
     RDKit          3D

  9  8  0  0  0  0  0  0  0  0999 V2000
   -2.1022   -0.6873    0.3932 C   0  0  0  0  0  0  0  0  0  0  0  0
   -1.2072   -0.1086   -0.1482 C   0  0  0  0  0  0  0  0  0  0  0  0
   -0.1242    0.6105   -0.8193 C   0  0  0  0  0  0  0  0  0  0  0  0
    1.2067    0.1106   -0.4741 C   0  0  0  0  0  0  0  0  0  0  0  0
    2.3005   -0.2875   -0.2012 C   0  0  0  0  0  0  0  0  0  0  0  0
   -2.8942   -1.2059    0.8778 H   0  0  0  0  0  0  0  0  0  0  0  0
   -0.1862    1.6723   -0.5649 H   0  0  0  0  0  0  0  0  0  0  0  0
   -0.2641    0.5418   -1.9017 H   0  0  0  0  0  0  0  0  0  0  0  0
    3.2709   -0.6459    0.0455 H   0  0  0  0  0  0  0  0  0  0  0  0
  1  2  3  0
  1  6  1  0
  2  3  1  0
  3  4  1  0
  3  7  1  0
  3  8  1  0
  4  5  3  0
  5  9  1  0
M  END
>  <reaction>  (1) 
rxn_1356

>  <mol_properties>  (1) 
{"2": {"label": "donator", "atom_type": "Cs"}, "6": {"label": "d_hydrogen", "atom_type": "H0"}}

>  <type>  (1) 
r1h

$$$$

     RDKit          3D

  9  8  0  0  0  0  0  0  0  0999 V2000
    2.3038   -0.0269    0.1590 C   0  0  0  0  0  0  0  0  0  0  0  0
    1.1426    0.1377   -0.1648 C   0  0  0  0  0  0  0  0  0  0  0  0
   -0.1694    0.3175   -0.5203 C   0  0  0  0  0  3  0  0  0  0  0  0
   -1.3163   -0.1910    0.2856 C   0  0  0  0  0  0  0  0  0  0  0  0
    3.3199   -0.1683    0.4378 H   0  0  0  0  0  0  0  0  0  0  0  0
   -0.3786    0.8584   -1.4360 H   0  0  0  0  0  0  0  0  0  0  0  0
   -1.9694    0.6309    0.5951 H   0  0  0  0  0  0  0  0  0  0  0  0
   -1.9325   -0.8770   -0.3039 H   0  0  0  0  0  0  0  0  0  0  0  0
   -0.9753   -0.7144    1.1774 H   0  0  0  0  0  0  0  0  0  0  0  0
  1  2  3  0
  1  5  1  0
  2  3  1  0
  3  4  1  0
  3  6  1  0
  4  7  1  0
  4  8  1  0
  4  9  1  0
M  RAD  1   3   2
M  END
>  <reaction>  (2) 
rxn_1356

>  <mol_properties>  (2) 
{"2": {"label": "acceptor", "atom_type": "Cs"}}

>  <type>  (2) 
r2

$$$$

     RDKit          3D

 10  9  0  0  0  0  0  0  0  0999 V2000
    2.2738    0.0217   -0.0992 C   0  0  0  0  0  0  0  0  0  0  0  0
    1.1083    0.2960   -0.0695 C   0  0  0  0  0  0  0  0  0  0  0  0
   -0.3173    0.6046   -0.0227 C   0  0  0  0  0  0  0  0  0  0  0  0
   -1.1561   -0.5495    0.5292 C   0  0  0  0  0  0  0  0  0  0  0  0
    3.3097   -0.2166   -0.1277 H   0  0  0  0  0  0  0  0  0  0  0  0
   -0.6542    0.8617   -1.0302 H   0  0  0  0  0  0  0  0  0  0  0  0
   -0.4633    1.4978    0.5900 H   0  0  0  0  0  0  0  0  0  0  0  0
   -0.8485   -0.7997    1.5447 H   0  0  0  0  0  0  0  0  0  0  0  0
   -2.2115   -0.2752    0.5459 H   0  0  0  0  0  0  0  0  0  0  0  0
   -1.0409   -1.4407   -0.0879 H   0  0  0  0  0  0  0  0  0  0  0  0
  1  2  3  0
  1  5  1  0
  2  3  1  0
  3  4  1  0
  3  6  1  0
  3  7  1  0
  4  8  1  0
  4  9  1  0
  4 10  1  0
M  END
>  <reaction>  (3) 
rxn_1356

>  <mol_properties>  (3) 
{"0": {"label": "a_hydrogen", "atom_type": "H0"}, "3": {"label": "acceptor", "atom_type": "Cs"}}

>  <type>  (3) 
r2h

$$$$

     RDKit          3D

 18 16  0  0  0  0  0  0  0  0999 V2000
   -1.1677   -0.2444   -2.2984 C   0  0  0  0  0  0  0  0  0  0  0  0
   -0.8474   -0.7251   -1.2466 C   0  0  0  0  0  0  0  0  0  0  0  0
   -0.4108   -1.2400    0.0162 C   0  0  0  0  0  0  0  0  0  0  0  0
   -1.4065   -1.4421    1.0268 C   0  0  0  0  0  0  0  0  0  0  0  0
   -2.2033   -1.5714    1.9147 C   0  0  0  0  0  0  0  0  0  0  0  0
   -1.4633    0.1639   -3.2347 H   0  0  0  0  0  0  0  0  0  0  0  0
    0.3861   -0.2958    0.5050 H   0  0  0  0  0  0  0  0  0  0  0  0
    0.2993   -2.0617   -0.0709 H   0  0  0  0  0  0  0  0  0  0  0  0
   -2.9228   -1.7033    2.6866 H   0  0  0  0  0  0  0  0  0  0  0  0
    3.2241    0.8823   -0.4855 C   0  0  0  0  0  0  0  0  0  0  0  0
    2.2539    0.8503    0.2263 C   0  0  0  0  0  0  0  0  0  0  0  0
    1.0779    0.7710    1.0154 C   0  0  0  0  0  3  0  0  0  0  0  0
    0.0660    1.8841    0.9013 C   0  0  0  0  0  0  0  0  0  0  0  0
    4.0876    0.9214   -1.1047 H   0  0  0  0  0  0  0  0  0  0  0  0
    1.2467    0.4035    2.0267 H   0  0  0  0  0  0  0  0  0  0  0  0
   -0.8565    1.6075    1.4134 H   0  0  0  0  0  0  0  0  0  0  0  0
    0.4473    2.8037    1.3523 H   0  0  0  0  0  0  0  0  0  0  0  0
   -0.1646    2.0874   -0.1447 H   0  0  0  0  0  0  0  0  0  0  0  0
  1  2  3  0
  1  6  1  0
  2  3  1  0
  3  4  1  0
  3  7  1  0
  3  8  1  0
  4  5  3  0
  5  9  1  0
 10 11  3  0
 10 14  1  0
 11 12  1  0
 12 13  1  0
 12 15  1  0
 13 16  1  0
 13 17  1  0
 13 18  1  0
M  RAD  1  12   2
M  END
>  <reaction>  (4) 
rxn_1356

>  <mol_properties>  (4) 
{"1": {"label": "*0", "atom_type": "Ct"}, "2": {"label": "*1", "atom_type": "Cs"}, "6": {"label": "*2", "atom_type": "H0"}, "10": {"label": "*4", "atom_type": "Ct"}, "11": {"label": "*3", "atom_type": "Cs"}}

>  <type>  (4) 
ts

$$$$

     RDKit          3D

 18 16  0  0  0  0  0  0  0  0999 V2000
   -0.2170   -1.0351   -3.1382 C   0  0  0  0  0  0  0  0  0  0  0  0
   -0.2170   -1.0351   -1.9427 C   0  0  0  0  0  0  0  0  0  0  0  0
   -0.2170   -1.0351   -0.4797 C   0  0  0  0  0  3  0  0  0  0  0  0
   -1.5311   -0.7595    0.1014 C   0  0  0  0  0  0  0  0  0  0  0  0
   -2.6048   -0.5343    0.5763 C   0  0  0  0  0  0  0  0  0  0  0  0
   -0.2170   -1.0351   -4.2017 H   0  0  0  0  0  0  0  0  0  0  0  0
    0.6411   -0.1407   -0.0487 H   0  0  0  0  0  0  0  0  0  0  0  0
    0.1383   -2.0050   -0.1205 H   0  0  0  0  0  0  0  0  0  0  0  0
   -3.5600   -0.3340    0.9988 H   0  0  0  0  0  0  0  0  0  0  0  0
    0.2000    2.5313    1.8691 C   0  0  0  0  0  0  0  0  0  0  0  0
    0.7845    1.7375    1.1888 C   0  0  0  0  0  0  0  0  0  0  0  0
    1.4987    0.7531    0.3821 C   0  0  0  0  0  0  0  0  0  0  0  0
    1.8826   -0.4974    1.1752 C   0  0  0  0  0  0  0  0  0  0  0  0
   -0.3189    3.2359    2.4730 H   0  0  0  0  0  0  0  0  0  0  0  0
    2.3951    1.2219   -0.0316 H   0  0  0  0  0  0  0  0  0  0  0  0
    2.4126   -1.2032    0.5345 H   0  0  0  0  0  0  0  0  0  0  0  0
    2.5295   -0.2397    2.0139 H   0  0  0  0  0  0  0  0  0  0  0  0
    0.9953   -0.9909    1.5721 H   0  0  0  0  0  0  0  0  0  0  0  0
  1  2  3  0
  1  6  1  0
  2  3  1  0
  3  4  1  0
  3  8  1  0
  4  5  3  0
  5  9  1  0
  7 12  1  0
 10 11  3  0
 10 14  1  0
 11 12  1  0
 12 13  1  0
 12 15  1  0
 13 16  1  0
 13 17  1  0
 13 18  1  0
M  RAD  1   3   2
M  END
>  <reaction>  (5) 
rxn_1356

>  <mol_properties>  (5) 
{"1": {"label": "*0", "atom_type": "Ct"}, "2": {"label": "*1", "atom_type": "Cs"}, "6": {"label": "*2", "atom_type": "H0"}, "10": {"label": "*4", "atom_type": "Ct"}, "11": {"label": "*3", "atom_type": "Cs"}}

>  <type>  (5) 
unop_1

>  <geom_source>  (5) 
Heuristics

$$$$

     RDKit          3D

 18 16  0  0  0  0  0  0  0  0999 V2000
   -0.3020   -1.2818   -2.6492 C   0  0  0  0  0  0  0  0  0  0  0  0
   -0.3020   -1.2818   -1.4537 C   0  0  0  0  0  0  0  0  0  0  0  0
   -0.3020   -1.2818    0.0093 C   0  0  0  0  0  3  0  0  0  0  0  0
   -1.6160   -1.0062    0.5904 C   0  0  0  0  0  0  0  0  0  0  0  0
   -2.6898   -0.7809    1.0653 C   0  0  0  0  0  0  0  0  0  0  0  0
   -0.3020   -1.2818   -3.7127 H   0  0  0  0  0  0  0  0  0  0  0  0
    0.5561   -0.3874    0.4403 H   0  0  0  0  0  0  0  0  0  0  0  0
    0.0534   -2.2516    0.3685 H   0  0  0  0  0  0  0  0  0  0  0  0
   -3.6450   -0.5806    1.4878 H   0  0  0  0  0  0  0  0  0  0  0  0
    1.5468    2.4891   -0.8928 C   0  0  0  0  0  0  0  0  0  0  0  0
    1.4938    1.5881   -0.1054 C   0  0  0  0  0  0  0  0  0  0  0  0
    1.4137    0.5065    0.8711 C   0  0  0  0  0  0  0  0  0  0  0  0
    0.6002    0.8852    2.1100 C   0  0  0  0  0  0  0  0  0  0  0  0
    1.5937    3.2889   -1.5919 H   0  0  0  0  0  0  0  0  0  0  0  0
    2.4275    0.2217    1.1636 H   0  0  0  0  0  0  0  0  0  0  0  0
    0.5672    0.0496    2.8102 H   0  0  0  0  0  0  0  0  0  0  0  0
    1.0440    1.7424    2.6166 H   0  0  0  0  0  0  0  0  0  0  0  0
   -0.4220    1.1465    1.8362 H   0  0  0  0  0  0  0  0  0  0  0  0
  1  2  3  0
  1  6  1  0
  2  3  1  0
  3  4  1  0
  3  8  1  0
  4  5  3  0
  5  9  1  0
  7 12  1  0
 10 11  3  0
 10 14  1  0
 11 12  1  0
 12 13  1  0
 12 15  1  0
 13 16  1  0
 13 17  1  0
 13 18  1  0
M  RAD  1   3   2
M  END
>  <reaction>  (6) 
rxn_1356

>  <mol_properties>  (6) 
{"1": {"label": "*0", "atom_type": "Ct"}, "2": {"label": "*1", "atom_type": "Cs"}, "6": {"label": "*2", "atom_type": "H0"}, "10": {"label": "*4", "atom_type": "Ct"}, "11": {"label": "*3", "atom_type": "Cs"}}

>  <type>  (6) 
unop_2

>  <geom_source>  (6) 
Heuristics

$$$$

     RDKit          3D

 18 16  0  0  0  0  0  0  0  0999 V2000
   -0.3756   -0.9057   -3.1976 C   0  0  0  0  0  0  0  0  0  0  0  0
   -0.3756   -0.9057   -2.0021 C   0  0  0  0  0  0  0  0  0  0  0  0
   -0.3756   -0.9057   -0.5391 C   0  0  0  0  0  3  0  0  0  0  0  0
   -1.6896   -0.6301    0.0420 C   0  0  0  0  0  0  0  0  0  0  0  0
   -2.7634   -0.4049    0.5169 C   0  0  0  0  0  0  0  0  0  0  0  0
   -0.3756   -0.9057   -4.2611 H   0  0  0  0  0  0  0  0  0  0  0  0
    0.4825   -0.0113   -0.1081 H   0  0  0  0  0  0  0  0  0  0  0  0
   -0.0203   -1.8756   -0.1799 H   0  0  0  0  0  0  0  0  0  0  0  0
   -3.7186   -0.2045    0.9394 H   0  0  0  0  0  0  0  0  0  0  0  0
    0.5083    1.8034    2.6721 C   0  0  0  0  0  0  0  0  0  0  0  0
    0.8759    1.3968    1.6072 C   0  0  0  0  0  0  0  0  0  0  0  0
    1.3401    0.8825    0.3227 C   0  0  0  0  0  0  0  0  0  0  0  0
    2.3415   -0.2645    0.4701 C   0  0  0  0  0  0  0  0  0  0  0  0
    0.1820    2.1643    3.6175 H   0  0  0  0  0  0  0  0  0  0  0  0
    1.7927    1.7023   -0.2409 H   0  0  0  0  0  0  0  0  0  0  0  0
    2.6602   -0.6163   -0.5118 H   0  0  0  0  0  0  0  0  0  0  0  0
    3.2230    0.0606    1.0230 H   0  0  0  0  0  0  0  0  0  0  0  0
    1.8947   -1.1008    1.0080 H   0  0  0  0  0  0  0  0  0  0  0  0
  1  2  3  0
  1  6  1  0
  2  3  1  0
  3  4  1  0
  3  8  1  0
  4  5  3  0
  5  9  1  0
  7 12  1  0
 10 11  3  0
 10 14  1  0
 11 12  1  0
 12 13  1  0
 12 15  1  0
 13 16  1  0
 13 17  1  0
 13 18  1  0
M  RAD  1   3   2
M  END
>  <reaction>  (7) 
rxn_1356

>  <mol_properties>  (7) 
{"1": {"label": "*0", "atom_type": "Ct"}, "2": {"label": "*1", "atom_type": "Cs"}, "6": {"label": "*2", "atom_type": "H0"}, "10": {"label": "*4", "atom_type": "Ct"}, "11": {"label": "*3", "atom_type": "Cs"}}

>  <type>  (7) 
unop_3

>  <geom_source>  (7) 
Heuristics

$$$$

     RDKit          3D

 18 16  0  0  0  0  0  0  0  0999 V2000
   -0.7703   -0.9870   -2.6726 C   0  0  0  0  0  0  0  0  0  0  0  0
   -0.7703   -0.9870   -1.4771 C   0  0  0  0  0  0  0  0  0  0  0  0
   -0.7703   -0.9870   -0.0141 C   0  0  0  0  0  3  0  0  0  0  0  0
   -2.0843   -0.7114    0.5670 C   0  0  0  0  0  0  0  0  0  0  0  0
   -3.1581   -0.4862    1.0419 C   0  0  0  0  0  0  0  0  0  0  0  0
   -0.7703   -0.9870   -3.7361 H   0  0  0  0  0  0  0  0  0  0  0  0
    0.0878   -0.0926    0.4169 H   0  0  0  0  0  0  0  0  0  0  0  0
   -0.4150   -1.9569    0.3451 H   0  0  0  0  0  0  0  0  0  0  0  0
   -4.1133   -0.2859    1.4644 H   0  0  0  0  0  0  0  0  0  0  0  0
    3.3682    0.1948   -0.0589 C   0  0  0  0  0  0  0  0  0  0  0  0
    2.2728    0.4559    0.3490 C   0  0  0  0  0  0  0  0  0  0  0  0
    0.9454    0.8012    0.8477 C   0  0  0  0  0  0  0  0  0  0  0  0
    0.7883    2.2966    1.1294 C   0  0  0  0  0  0  0  0  0  0  0  0
    4.3407   -0.0370   -0.4210 H   0  0  0  0  0  0  0  0  0  0  0  0
    0.7523    0.2281    1.7580 H   0  0  0  0  0  0  0  0  0  0  0  0
   -0.2158    2.5079    1.4990 H   0  0  0  0  0  0  0  0  0  0  0  0
    1.5083    2.6265    1.8785 H   0  0  0  0  0  0  0  0  0  0  0  0
    0.9523    2.8799    0.2232 H   0  0  0  0  0  0  0  0  0  0  0  0
  1  2  3  0
  1  6  1  0
  2  3  1  0
  3  4  1  0
  3  8  1  0
  4  5  3  0
  5  9  1  0
  7 12  1  0
 10 11  3  0
 10 14  1  0
 11 12  1  0
 12 13  1  0
 12 15  1  0
 13 16  1  0
 13 17  1  0
 13 18  1  0
M  RAD  1   3   2
M  END
>  <reaction>  (8) 
rxn_1356

>  <mol_properties>  (8) 
{"1": {"label": "*0", "atom_type": "Ct"}, "2": {"label": "*1", "atom_type": "Cs"}, "6": {"label": "*2", "atom_type": "H0"}, "10": {"label": "*4", "atom_type": "Ct"}, "11": {"label": "*3", "atom_type": "Cs"}}

>  <type>  (8) 
unop_4

>  <geom_source>  (8) 
Heuristics

$$$$

     RDKit          3D

 18 16  0  0  0  0  0  0  0  0999 V2000
   -0.5634   -0.8627   -3.1536 C   0  0  0  0  0  0  0  0  0  0  0  0
   -0.5634   -0.8627   -1.9581 C   0  0  0  0  0  0  0  0  0  0  0  0
   -0.5634   -0.8627   -0.4951 C   0  0  0  0  0  3  0  0  0  0  0  0
   -1.8774   -0.5871    0.0861 C   0  0  0  0  0  0  0  0  0  0  0  0
   -2.9511   -0.3619    0.5610 C   0  0  0  0  0  0  0  0  0  0  0  0
   -0.5634   -0.8627   -4.2171 H   0  0  0  0  0  0  0  0  0  0  0  0
    0.2948    0.0317   -0.0640 H   0  0  0  0  0  0  0  0  0  0  0  0
   -0.2080   -1.8326   -0.1359 H   0  0  0  0  0  0  0  0  0  0  0  0
   -3.9063   -0.1616    0.9834 H   0  0  0  0  0  0  0  0  0  0  0  0
    1.1611    0.9063    3.0237 C   0  0  0  0  0  0  0  0  0  0  0  0
    1.1447    0.9175    1.8261 C   0  0  0  0  0  0  0  0  0  0  0  0
    1.1524    0.9255    0.3667 C   0  0  0  0  0  0  0  0  0  0  0  0
    2.5369    0.6456   -0.2205 C   0  0  0  0  0  0  0  0  0  0  0  0
    1.1756    0.8963    4.0868 H   0  0  0  0  0  0  0  0  0  0  0  0
    0.7893    1.8960    0.0190 H   0  0  0  0  0  0  0  0  0  0  0  0
    2.4953    0.6613   -1.3102 H   0  0  0  0  0  0  0  0  0  0  0  0
    3.2553    1.3968    0.1082 H   0  0  0  0  0  0  0  0  0  0  0  0
    2.9010   -0.3317    0.0969 H   0  0  0  0  0  0  0  0  0  0  0  0
  1  2  3  0
  1  6  1  0
  2  3  1  0
  3  4  1  0
  3  8  1  0
  4  5  3  0
  5  9  1  0
  7 12  1  0
 10 11  3  0
 10 14  1  0
 11 12  1  0
 12 13  1  0
 12 15  1  0
 13 16  1  0
 13 17  1  0
 13 18  1  0
M  RAD  1   3   2
M  END
>  <reaction>  (9) 
rxn_1356

>  <mol_properties>  (9) 
{"1": {"label": "*0", "atom_type": "Ct"}, "2": {"label": "*1", "atom_type": "Cs"}, "6": {"label": "*2", "atom_type": "H0"}, "10": {"label": "*4", "atom_type": "Ct"}, "11": {"label": "*3", "atom_type": "Cs"}}

>  <type>  (9) 
unop_5

>  <geom_source>  (9) 
Heuristics

$$$$

     RDKit          3D

 18 16  0  0  0  0  0  0  0  0999 V2000
   -0.7931   -0.9024   -2.8261 C   0  0  0  0  0  0  0  0  0  0  0  0
   -0.7931   -0.9024   -1.6306 C   0  0  0  0  0  0  0  0  0  0  0  0
   -0.7931   -0.9024   -0.1676 C   0  0  0  0  0  3  0  0  0  0  0  0
   -2.1071   -0.6268    0.4135 C   0  0  0  0  0  0  0  0  0  0  0  0
   -3.1809   -0.4016    0.8884 C   0  0  0  0  0  0  0  0  0  0  0  0
   -0.7931   -0.9024   -3.8896 H   0  0  0  0  0  0  0  0  0  0  0  0
    0.0650   -0.0080    0.2634 H   0  0  0  0  0  0  0  0  0  0  0  0
   -0.4378   -1.8723    0.1916 H   0  0  0  0  0  0  0  0  0  0  0  0
   -4.1361   -0.2013    1.3109 H   0  0  0  0  0  0  0  0  0  0  0  0
    3.3065   -0.2536    0.9742 C   0  0  0  0  0  0  0  0  0  0  0  0
    2.2265    0.2485    0.8482 C   0  0  0  0  0  0  0  0  0  0  0  0
    0.9226    0.8858    0.6942 C   0  0  0  0  0  0  0  0  0  0  0  0
    1.0137    2.4108    0.6144 C   0  0  0  0  0  0  0  0  0  0  0  0
    4.2654   -0.6994    1.0862 H   0  0  0  0  0  0  0  0  0  0  0  0
    0.2877    0.5938    1.5344 H   0  0  0  0  0  0  0  0  0  0  0  0
    0.0190    2.8431    0.5000 H   0  0  0  0  0  0  0  0  0  0  0  0
    1.4654    2.8188    1.5187 H   0  0  0  0  0  0  0  0  0  0  0  0
    1.6231    2.7176   -0.2357 H   0  0  0  0  0  0  0  0  0  0  0  0
  1  2  3  0
  1  6  1  0
  2  3  1  0
  3  4  1  0
  3  8  1  0
  4  5  3  0
  5  9  1  0
  7 12  1  0
 10 11  3  0
 10 14  1  0
 11 12  1  0
 12 13  1  0
 12 15  1  0
 13 16  1  0
 13 17  1  0
 13 18  1  0
M  RAD  1   3   2
M  END
>  <reaction>  (10) 
rxn_1356

>  <mol_properties>  (10) 
{"1": {"label": "*0", "atom_type": "Ct"}, "2": {"label": "*1", "atom_type": "Cs"}, "6": {"label": "*2", "atom_type": "H0"}, "10": {"label": "*4", "atom_type": "Ct"}, "11": {"label": "*3", "atom_type": "Cs"}}

>  <type>  (10) 
unop_6

>  <geom_source>  (10) 
Heuristics

$$$$

     RDKit          3D

 18 16  0  0  0  0  0  0  0  0999 V2000
   -0.7494   -0.8743   -2.9711 C   0  0  0  0  0  0  0  0  0  0  0  0
   -0.7494   -0.8743   -1.7756 C   0  0  0  0  0  0  0  0  0  0  0  0
   -0.7494   -0.8743   -0.3126 C   0  0  0  0  0  3  0  0  0  0  0  0
   -2.0634   -0.5987    0.2686 C   0  0  0  0  0  0  0  0  0  0  0  0
   -3.1372   -0.3735    0.7435 C   0  0  0  0  0  0  0  0  0  0  0  0
   -0.7494   -0.8743   -4.0346 H   0  0  0  0  0  0  0  0  0  0  0  0
    0.1087    0.0201    0.1184 H   0  0  0  0  0  0  0  0  0  0  0  0
   -0.3940   -1.8442    0.0466 H   0  0  0  0  0  0  0  0  0  0  0  0
   -4.0924   -0.1732    1.1659 H   0  0  0  0  0  0  0  0  0  0  0  0
    2.8249   -0.2930    2.0151 C   0  0  0  0  0  0  0  0  0  0  0  0
    1.9794    0.2410    1.3559 C   0  0  0  0  0  0  0  0  0  0  0  0
    0.9663    0.9139    0.5492 C   0  0  0  0  0  0  0  0  0  0  0  0
    1.4182    2.2900    0.0567 C   0  0  0  0  0  0  0  0  0  0  0  0
    3.5755   -0.7670    2.6003 H   0  0  0  0  0  0  0  0  0  0  0  0
    0.0534    1.0115    1.1420 H   0  0  0  0  0  0  0  0  0  0  0  0
    0.6322    2.7545   -0.5399 H   0  0  0  0  0  0  0  0  0  0  0  0
    1.6464    2.9455    0.8973 H   0  0  0  0  0  0  0  0  0  0  0  0
    2.3140    2.2052   -0.5586 H   0  0  0  0  0  0  0  0  0  0  0  0
  1  2  3  0
  1  6  1  0
  2  3  1  0
  3  4  1  0
  3  8  1  0
  4  5  3  0
  5  9  1  0
  7 12  1  0
 10 11  3  0
 10 14  1  0
 11 12  1  0
 12 13  1  0
 12 15  1  0
 13 16  1  0
 13 17  1  0
 13 18  1  0
M  RAD  1   3   2
M  END
>  <reaction>  (11) 
rxn_1356

>  <mol_properties>  (11) 
{"1": {"label": "*0", "atom_type": "Ct"}, "2": {"label": "*1", "atom_type": "Cs"}, "6": {"label": "*2", "atom_type": "H0"}, "10": {"label": "*4", "atom_type": "Ct"}, "11": {"label": "*3", "atom_type": "Cs"}}

>  <type>  (11) 
unop_7

>  <geom_source>  (11) 
Heuristics

$$$$

     RDKit          3D

 18 16  0  0  0  0  0  0  0  0999 V2000
   -0.1492   -1.1691   -2.9938 C   0  0  0  0  0  0  0  0  0  0  0  0
   -0.1492   -1.1691   -1.7983 C   0  0  0  0  0  0  0  0  0  0  0  0
   -0.1492   -1.1691   -0.3353 C   0  0  0  0  0  3  0  0  0  0  0  0
   -1.4633   -0.8935    0.2458 C   0  0  0  0  0  0  0  0  0  0  0  0
   -2.5370   -0.6683    0.7207 C   0  0  0  0  0  0  0  0  0  0  0  0
   -0.1492   -1.1691   -4.0573 H   0  0  0  0  0  0  0  0  0  0  0  0
    0.7089   -0.2747    0.0957 H   0  0  0  0  0  0  0  0  0  0  0  0
    0.2061   -2.1390    0.0239 H   0  0  0  0  0  0  0  0  0  0  0  0
   -3.4922   -0.4680    1.1432 H   0  0  0  0  0  0  0  0  0  0  0  0
    0.3016    2.9362    0.8277 C   0  0  0  0  0  0  0  0  0  0  0  0
    0.8758    1.8955    0.6805 C   0  0  0  0  0  0  0  0  0  0  0  0
    1.5665    0.6191    0.5265 C   0  0  0  0  0  0  0  0  0  0  0  0
    1.3904   -0.3002    1.7365 C   0  0  0  0  0  0  0  0  0  0  0  0
   -0.2082    3.8601    0.9585 H   0  0  0  0  0  0  0  0  0  0  0  0
    2.6287    0.8129    0.3570 H   0  0  0  0  0  0  0  0  0  0  0  0
    1.9218   -1.2393    1.5779 H   0  0  0  0  0  0  0  0  0  0  0  0
    1.7819    0.1696    2.6390 H   0  0  0  0  0  0  0  0  0  0  0  0
    0.3364   -0.5237    1.9019 H   0  0  0  0  0  0  0  0  0  0  0  0
  1  2  3  0
  1  6  1  0
  2  3  1  0
  3  4  1  0
  3  8  1  0
  4  5  3  0
  5  9  1  0
  7 12  1  0
 10 11  3  0
 10 14  1  0
 11 12  1  0
 12 13  1  0
 12 15  1  0
 13 16  1  0
 13 17  1  0
 13 18  1  0
M  RAD  1   3   2
M  END
>  <reaction>  (12) 
rxn_1356

>  <mol_properties>  (12) 
{"1": {"label": "*0", "atom_type": "Ct"}, "2": {"label": "*1", "atom_type": "Cs"}, "6": {"label": "*2", "atom_type": "H0"}, "10": {"label": "*4", "atom_type": "Ct"}, "11": {"label": "*3", "atom_type": "Cs"}}

>  <type>  (12) 
unop_8

>  <geom_source>  (12) 
Heuristics

$$$$

     RDKit          3D

 18 16  0  0  0  0  0  0  0  0999 V2000
   -0.6611   -1.1122   -2.5657 C   0  0  0  0  0  0  0  0  0  0  0  0
   -0.6611   -1.1122   -1.3702 C   0  0  0  0  0  0  0  0  0  0  0  0
   -0.6611   -1.1122    0.0928 C   0  0  0  0  0  3  0  0  0  0  0  0
   -1.9751   -0.8366    0.6740 C   0  0  0  0  0  0  0  0  0  0  0  0
   -3.0488   -0.6114    1.1489 C   0  0  0  0  0  0  0  0  0  0  0  0
   -0.6611   -1.1122   -3.6292 H   0  0  0  0  0  0  0  0  0  0  0  0
    0.1971   -0.2178    0.5238 H   0  0  0  0  0  0  0  0  0  0  0  0
   -0.3057   -2.0820    0.4520 H   0  0  0  0  0  0  0  0  0  0  0  0
   -4.0040   -0.4110    1.5713 H   0  0  0  0  0  0  0  0  0  0  0  0
    3.0164    0.9262   -0.8198 C   0  0  0  0  0  0  0  0  0  0  0  0
    2.1321    0.8009   -0.0219 C   0  0  0  0  0  0  0  0  0  0  0  0
    1.0547    0.6761    0.9546 C   0  0  0  0  0  0  0  0  0  0  0  0
    0.6362    2.0212    1.5510 C   0  0  0  0  0  0  0  0  0  0  0  0
    3.8015    1.0375   -1.5283 H   0  0  0  0  0  0  0  0  0  0  0  0
    1.3784    0.0002    1.7501 H   0  0  0  0  0  0  0  0  0  0  0  0
   -0.1688    1.8801    2.2732 H   0  0  0  0  0  0  0  0  0  0  0  0
    1.4755    2.4969    2.0585 H   0  0  0  0  0  0  0  0  0  0  0  0
    0.2856    2.6974    0.7712 H   0  0  0  0  0  0  0  0  0  0  0  0
  1  2  3  0
  1  6  1  0
  2  3  1  0
  3  4  1  0
  3  8  1  0
  4  5  3  0
  5  9  1  0
  7 12  1  0
 10 11  3  0
 10 14  1  0
 11 12  1  0
 12 13  1  0
 12 15  1  0
 13 16  1  0
 13 17  1  0
 13 18  1  0
M  RAD  1   3   2
M  END
>  <reaction>  (13) 
rxn_1356

>  <mol_properties>  (13) 
{"1": {"label": "*0", "atom_type": "Ct"}, "2": {"label": "*1", "atom_type": "Cs"}, "6": {"label": "*2", "atom_type": "H0"}, "10": {"label": "*4", "atom_type": "Ct"}, "11": {"label": "*3", "atom_type": "Cs"}}

>  <type>  (13) 
unop_9

>  <geom_source>  (13) 
Heuristics

$$$$

     RDKit          3D

 18 16  0  0  0  0  0  0  0  0999 V2000
   -0.1803   -1.2590   -2.8131 C   0  0  0  0  0  0  0  0  0  0  0  0
   -0.1803   -1.2590   -1.6176 C   0  0  0  0  0  0  0  0  0  0  0  0
   -0.1803   -1.2590   -0.1546 C   0  0  0  0  0  3  0  0  0  0  0  0
   -1.4943   -0.9834    0.4265 C   0  0  0  0  0  0  0  0  0  0  0  0
   -2.5681   -0.7582    0.9014 C   0  0  0  0  0  0  0  0  0  0  0  0
   -0.1803   -1.2590   -3.8766 H   0  0  0  0  0  0  0  0  0  0  0  0
    0.6778   -0.3646    0.2764 H   0  0  0  0  0  0  0  0  0  0  0  0
    0.1751   -2.2288    0.2046 H   0  0  0  0  0  0  0  0  0  0  0  0
   -3.5233   -0.5578    1.3239 H   0  0  0  0  0  0  0  0  0  0  0  0
    0.7946    2.9211   -0.1816 C   0  0  0  0  0  0  0  0  0  0  0  0
    1.1355    1.8412    0.2085 C   0  0  0  0  0  0  0  0  0  0  0  0
    1.5354    0.5293    0.7072 C   0  0  0  0  0  0  0  0  0  0  0  0
    0.9218    0.2004    2.0694 C   0  0  0  0  0  0  0  0  0  0  0  0
    0.4919    3.8797   -0.5280 H   0  0  0  0  0  0  0  0  0  0  0  0
    2.6259    0.4956    0.7717 H   0  0  0  0  0  0  0  0  0  0  0  0
    1.2470   -0.7861    2.4019 H   0  0  0  0  0  0  0  0  0  0  0  0
    1.2247    0.9337    2.8169 H   0  0  0  0  0  0  0  0  0  0  0  0
   -0.1669    0.2043    2.0139 H   0  0  0  0  0  0  0  0  0  0  0  0
  1  2  3  0
  1  6  1  0
  2  3  1  0
  3  4  1  0
  3  8  1  0
  4  5  3  0
  5  9  1  0
  7 12  1  0
 10 11  3  0
 10 14  1  0
 11 12  1  0
 12 13  1  0
 12 15  1  0
 13 16  1  0
 13 17  1  0
 13 18  1  0
M  RAD  1   3   2
M  END
>  <reaction>  (14) 
rxn_1356

>  <mol_properties>  (14) 
{"1": {"label": "*0", "atom_type": "Ct"}, "2": {"label": "*1", "atom_type": "Cs"}, "6": {"label": "*2", "atom_type": "H0"}, "10": {"label": "*4", "atom_type": "Ct"}, "11": {"label": "*3", "atom_type": "Cs"}}

>  <type>  (14) 
unop_10

>  <geom_source>  (14) 
Heuristics

$$$$

     RDKit          3D

 18 16  0  0  0  0  0  0  0  0999 V2000
   -0.6746   -0.8767   -3.0745 C   0  0  0  0  0  0  0  0  0  0  0  0
   -0.6746   -0.8767   -1.8790 C   0  0  0  0  0  0  0  0  0  0  0  0
   -0.6746   -0.8767   -0.4160 C   0  0  0  0  0  3  0  0  0  0  0  0
   -1.9886   -0.6011    0.1651 C   0  0  0  0  0  0  0  0  0  0  0  0
   -3.0623   -0.3759    0.6400 C   0  0  0  0  0  0  0  0  0  0  0  0
   -0.6746   -0.8767   -4.1380 H   0  0  0  0  0  0  0  0  0  0  0  0
    0.1836    0.0177    0.0150 H   0  0  0  0  0  0  0  0  0  0  0  0
   -0.3192   -1.8466   -0.0568 H   0  0  0  0  0  0  0  0  0  0  0  0
   -4.0175   -0.1755    1.0625 H   0  0  0  0  0  0  0  0  0  0  0  0
    2.0316    0.1167    2.7797 C   0  0  0  0  0  0  0  0  0  0  0  0
    1.5742    0.4690    1.7303 C   0  0  0  0  0  0  0  0  0  0  0  0
    1.0412    0.9115    0.4458 C   0  0  0  0  0  0  0  0  0  0  0  0
    2.0404    1.7496   -0.3539 C   0  0  0  0  0  0  0  0  0  0  0  0
    2.4376   -0.1961    3.7113 H   0  0  0  0  0  0  0  0  0  0  0  0
    0.1297    1.4877    0.6236 H   0  0  0  0  0  0  0  0  0  0  0  0
    1.6007    2.0574   -1.3033 H   0  0  0  0  0  0  0  0  0  0  0  0
    2.3256    2.6439    0.2004 H   0  0  0  0  0  0  0  0  0  0  0  0
    2.9451    1.1780   -0.5617 H   0  0  0  0  0  0  0  0  0  0  0  0
  1  2  3  0
  1  6  1  0
  2  3  1  0
  3  4  1  0
  3  8  1  0
  4  5  3  0
  5  9  1  0
  7 12  1  0
 10 11  3  0
 10 14  1  0
 11 12  1  0
 12 13  1  0
 12 15  1  0
 13 16  1  0
 13 17  1  0
 13 18  1  0
M  RAD  1   3   2
M  END
>  <reaction>  (15) 
rxn_1356

>  <mol_properties>  (15) 
{"1": {"label": "*0", "atom_type": "Ct"}, "2": {"label": "*1", "atom_type": "Cs"}, "6": {"label": "*2", "atom_type": "H0"}, "10": {"label": "*4", "atom_type": "Ct"}, "11": {"label": "*3", "atom_type": "Cs"}}

>  <type>  (15) 
unop_11

>  <geom_source>  (15) 
Heuristics

$$$$

     RDKit          3D

 18 16  0  0  0  0  0  0  0  0999 V2000
   -0.4837   -1.2277   -2.5547 C   0  0  0  0  0  0  0  0  0  0  0  0
   -0.4837   -1.2277   -1.3592 C   0  0  0  0  0  0  0  0  0  0  0  0
   -0.4837   -1.2277    0.1038 C   0  0  0  0  0  3  0  0  0  0  0  0
   -1.7977   -0.9521    0.6850 C   0  0  0  0  0  0  0  0  0  0  0  0
   -2.8715   -0.7269    1.1599 C   0  0  0  0  0  0  0  0  0  0  0  0
   -0.4837   -1.2277   -3.6181 H   0  0  0  0  0  0  0  0  0  0  0  0
    0.3744   -0.3333    0.5349 H   0  0  0  0  0  0  0  0  0  0  0  0
   -0.1284   -2.1976    0.4630 H   0  0  0  0  0  0  0  0  0  0  0  0
   -3.8267   -0.5266    1.5824 H   0  0  0  0  0  0  0  0  0  0  0  0
    2.3549    1.7592   -1.1229 C   0  0  0  0  0  0  0  0  0  0  0  0
    1.8529    1.2076   -0.1858 C   0  0  0  0  0  0  0  0  0  0  0  0
    1.2320    0.5605    0.9656 C   0  0  0  0  0  0  0  0  0  0  0  0
    0.5297    1.5516    1.8956 C   0  0  0  0  0  0  0  0  0  0  0  0
    2.8006    2.2488   -1.9549 H   0  0  0  0  0  0  0  0  0  0  0  0
    2.0002    0.0123    1.5168 H   0  0  0  0  0  0  0  0  0  0  0  0
    0.0817    1.0255    2.7393 H   0  0  0  0  0  0  0  0  0  0  0  0
    1.2365    2.2857    2.2827 H   0  0  0  0  0  0  0  0  0  0  0  0
   -0.2578    2.0875    1.3655 H   0  0  0  0  0  0  0  0  0  0  0  0
  1  2  3  0
  1  6  1  0
  2  3  1  0
  3  4  1  0
  3  8  1  0
  4  5  3  0
  5  9  1  0
  7 12  1  0
 10 11  3  0
 10 14  1  0
 11 12  1  0
 12 13  1  0
 12 15  1  0
 13 16  1  0
 13 17  1  0
 13 18  1  0
M  RAD  1   3   2
M  END
>  <reaction>  (16) 
rxn_1356

>  <mol_properties>  (16) 
{"1": {"label": "*0", "atom_type": "Ct"}, "2": {"label": "*1", "atom_type": "Cs"}, "6": {"label": "*2", "atom_type": "H0"}, "10": {"label": "*4", "atom_type": "Ct"}, "11": {"label": "*3", "atom_type": "Cs"}}

>  <type>  (16) 
unop_12

>  <geom_source>  (16) 
Heuristics

$$$$

     RDKit          3D

 18 16  0  0  0  0  0  0  0  0999 V2000
   -1.1221   -0.3932   -0.0049 C   0  0  0  0  0  0  0  0  0  0  0  0
   -1.9368    0.0746   -1.2031 C   0  0  0  0  0  0  0  0  0  0  0  0
    1.3539    0.3451    0.4718 C   0  0  0  0  0  3  0  0  0  0  0  0
   -1.8442   -0.1298    1.2446 C   0  0  0  0  0  0  0  0  0  0  0  0
    1.9070    1.1705   -0.6037 C   0  0  0  0  0  0  0  0  0  0  0  0
    2.0293   -0.9537    0.4961 C   0  0  0  0  0  0  0  0  0  0  0  0
   -2.4367    0.0865    2.2719 C   0  0  0  0  0  0  0  0  0  0  0  0
    2.3611    1.8516   -1.4889 C   0  0  0  0  0  0  0  0  0  0  0  0
    2.5843   -2.0240    0.5176 C   0  0  0  0  0  0  0  0  0  0  0  0
   -0.9257   -1.4829   -0.0891 H   0  0  0  0  0  0  0  0  0  0  0  0
    0.0580    0.2645    0.0189 H   0  0  0  0  0  0  0  0  0  0  0  0
   -1.3712   -0.1316   -2.1358 H   0  0  0  0  0  0  0  0  0  0  0  0
   -2.9071   -0.4654   -1.2474 H   0  0  0  0  0  0  0  0  0  0  0  0
   -2.1251    1.1676   -1.1371 H   0  0  0  0  0  0  0  0  0  0  0  0
    1.5013    0.8574    1.4449 H   0  0  0  0  0  0  0  0  0  0  0  0
   -2.9570    0.2765    3.1737 H   0  0  0  0  0  0  0  0  0  0  0  0
    2.7597    2.4493   -2.2660 H   0  0  0  0  0  0  0  0  0  0  0  0
    3.0714   -2.9633    0.5363 H   0  0  0  0  0  0  0  0  0  0  0  0
  1  2  1  0
  1  4  1  0
  1 10  1  0
  1 11  1  0
  2 12  1  0
  2 13  1  0
  2 14  1  0
  3  5  1  0
  3  6  1  0
  3 15  1  0
  4  7  3  0
  5  8  3  0
  6  9  3  0
  7 16  1  0
  8 17  1  0
  9 18  1  0
M  RAD  1   3   2
M  END
>  <reaction>  (17) 
rxn_1356

>  <mol_properties>  (17) 
{"1": {"label": "*0", "atom_type": "Ct"}, "2": {"label": "*1", "atom_type": "Cs"}, "6": {"label": "*2", "atom_type": "H0"}, "10": {"label": "*4", "atom_type": "Ct"}, "11": {"label": "*3", "atom_type": "Cs"}}

>  <type>  (17) 
unop_13

>  <geom_source>  (17) 
AutoTST

$$$$
