
     RDKit          3D

 15 15  0  0  0  0  0  0  0  0999 V2000
    2.2031   -0.2111   -0.1693 C   0  0  0  0  0  0  0  0  0  0  0  0
    0.7140   -0.0314   -0.0623 C   0  0  0  0  0  0  0  0  0  0  0  0
   -0.0114    0.5491   -1.0982 C   0  0  0  0  0  0  0  0  0  0  0  0
   -1.3882    0.6886   -1.0150 C   0  0  0  0  0  0  0  0  0  0  0  0
   -2.0661    0.2493    0.1118 C   0  0  0  0  0  0  0  0  0  0  0  0
   -1.3551   -0.3278    1.1528 C   0  0  0  0  0  0  0  0  0  0  0  0
    0.0216   -0.4648    1.0642 C   0  0  0  0  0  0  0  0  0  0  0  0
    2.6776   -0.1836    0.8122 H   0  0  0  0  0  0  0  0  0  0  0  0
    2.4446   -1.1749   -0.6249 H   0  0  0  0  0  0  0  0  0  0  0  0
    2.6532    0.5664   -0.7875 H   0  0  0  0  0  0  0  0  0  0  0  0
    0.5104    0.8989   -1.9819 H   0  0  0  0  0  0  0  0  0  0  0  0
   -1.9328    1.1452   -1.8322 H   0  0  0  0  0  0  0  0  0  0  0  0
   -3.1409    0.3597    0.1800 H   0  0  0  0  0  0  0  0  0  0  0  0
   -1.8736   -0.6702    2.0398 H   0  0  0  0  0  0  0  0  0  0  0  0
    0.5695   -0.9141    1.8849 H   0  0  0  0  0  0  0  0  0  0  0  0
  1  2  1  0
  1  8  1  0
  1  9  1  0
  1 10  1  0
  2  3  2  0
  2  7  1  0
  3  4  1  0
  3 11  1  0
  4  5  2  0
  4 12  1  0
  5  6  1  0
  5 13  1  0
  6  7  2  0
  6 14  1  0
  7 15  1  0
M  END
>  <reaction>  (1) 
rxn_1458

>  <mol_properties>  (1) 
{"0": {"label": "donator", "atom_type": "Cs"}, "7": {"label": "d_hydrogen", "atom_type": "H0"}}

>  <type>  (1) 
r1h

$$$$

     RDKit          3D

  6  5  0  0  0  0  0  0  0  0999 V2000
   -0.7309   -0.0987    0.0327 C   0  0  0  0  0  0  0  0  0  0  0  0
    0.6208    0.0065   -0.0096 C   0  0  0  0  0  0  0  0  0  0  0  0
    1.6572   -1.2972    0.2837 S   0  0  0  0  0  1  0  0  0  0  0  0
   -1.3651    0.7588   -0.1608 H   0  0  0  0  0  0  0  0  0  0  0  0
   -1.2044   -1.0453    0.2616 H   0  0  0  0  0  0  0  0  0  0  0  0
    1.0609    0.9725   -0.2426 H   0  0  0  0  0  0  0  0  0  0  0  0
  1  2  2  3
  1  4  1  0
  1  5  1  0
  2  3  1  0
  2  6  1  0
M  RAD  1   3   2
M  END
>  <reaction>  (2) 
rxn_1458

>  <mol_properties>  (2) 
{"0": {"label": "acceptor", "atom_type": "Cs"}}

>  <type>  (2) 
r2

$$$$

     RDKit          3D

  7  6  0  0  0  0  0  0  0  0999 V2000
   -0.6782    0.0507    0.0301 C   0  0  0  0  0  0  0  0  0  0  0  0
    0.8092    0.0996    0.0213 C   0  0  0  0  0  0  0  0  0  0  0  0
    1.7473    0.7521    1.1507 S   0  0  0  0  0  0  0  0  0  0  0  0
   -1.0667    0.5456   -0.8653 H   0  0  0  0  0  0  0  0  0  0  0  0
   -1.0112   -0.9904   -0.0239 H   0  0  0  0  0  0  0  0  0  0  0  0
   -1.0920    0.5225    0.9188 H   0  0  0  0  0  0  0  0  0  0  0  0
    1.2740   -0.3620   -0.8520 H   0  0  0  0  0  0  0  0  0  0  0  0
  1  2  1  0
  1  4  1  0
  1  5  1  0
  1  6  1  0
  2  3  2  0
  2  7  1  0
M  END
>  <reaction>  (3) 
rxn_1458

>  <mol_properties>  (3) 
{"0": {"label": "acceptor", "atom_type": "Cs"}, "6": {"label": "a_hydrogen", "atom_type": "H0"}}

>  <type>  (3) 
r2h

$$$$

     RDKit          3D

 21 20  0  0  0  0  0  0  0  0999 V2000
   -1.1692   -0.2448    1.7323 C   0  0  0  0  0  0  0  0  0  0  0  0
   -0.5042   -1.2822    2.4683 C   0  0  0  0  0  0  0  0  0  0  0  0
    0.2581   -2.5656    1.8081 S   0  0  0  0  0  0  0  0  0  0  0  0
   -1.8450    0.3936    2.2968 H   0  0  0  0  0  0  0  0  0  0  0  0
   -1.5279   -0.5205    0.7434 H   0  0  0  0  0  0  0  0  0  0  0  0
   -0.4591   -1.1465    3.5491 H   0  0  0  0  0  0  0  0  0  0  0  0
    0.8099    1.2927    0.7628 C   0  0  0  0  0  0  0  0  0  0  0  0
    0.5359    1.2867   -0.6617 C   0  0  0  0  0  0  0  0  0  0  0  0
   -0.0713    2.3823   -1.2867 C   0  0  0  0  0  3  0  0  0  0  0  0
   -0.3694    2.3507   -2.6367 C   0  0  0  0  0  0  0  0  0  0  0  0
   -0.0770    1.2208   -3.3892 C   0  0  0  0  0  0  0  0  0  0  0  0
    0.5151    0.1214   -2.7808 C   0  0  0  0  0  0  0  0  0  0  0  0
    0.8172    0.1511   -1.4322 C   0  0  0  0  0  0  0  0  0  0  0  0
   -0.2303    0.5703    1.3615 H   0  0  0  0  0  0  0  0  0  0  0  0
    1.6057    0.6416    1.1145 H   0  0  0  0  0  0  0  0  0  0  0  0
    0.7482    2.2472    1.2768 H   0  0  0  0  0  0  0  0  0  0  0  0
   -0.3006    3.2662   -0.7028 H   0  0  0  0  0  0  0  0  0  0  0  0
   -0.8315    3.2098   -3.1065 H   0  0  0  0  0  0  0  0  0  0  0  0
   -0.3115    1.1964   -4.4457 H   0  0  0  0  0  0  0  0  0  0  0  0
    0.7395   -0.7639   -3.3620 H   0  0  0  0  0  0  0  0  0  0  0  0
    1.2624   -0.7140   -0.9545 H   0  0  0  0  0  0  0  0  0  0  0  0
  1  2  1  0
  1  4  1  0
  1  5  1  0
  1 14  1  0
  2  3  2  0
  2  6  1  0
  7  8  2  3
  7 15  1  0
  7 16  1  0
  8  9  1  0
  8 13  1  0
  9 10  1  0
  9 17  1  0
 10 11  2  0
 10 18  1  0
 11 12  1  0
 11 19  1  0
 12 13  2  0
 12 20  1  0
 13 21  1  0
M  RAD  1   9   2
M  END
>  <reaction>  (4) 
rxn_1458

>  <mol_properties>  (4) 
{"0": {"label": "*1", "atom_type": "Cs"}, "1": {"label": "*0", "atom_type": "CS"}, "6": {"label": "*3", "atom_type": "Cd"}, "7": {"label": "*4", "atom_type": "Cd"}, "13": {"label": "*2", "atom_type": "H0"}}

>  <type>  (4) 
ts

$$$$

     RDKit          3D

 21 20  0  0  0  0  0  0  0  0999 V2000
   -0.9914   -0.7503    1.7316 C   0  0  0  0  0  0  0  0  0  0  0  0
   -0.0302   -1.5213    2.5660 C   0  0  0  0  0  0  0  0  0  0  0  0
   -0.1591   -3.0669    2.9851 S   0  0  0  0  0  1  0  0  0  0  0  0
   -1.3555    0.1141    2.2955 H   0  0  0  0  0  0  0  0  0  0  0  0
   -1.8330   -1.3631    1.4157 H   0  0  0  0  0  0  0  0  0  0  0  0
    0.8342   -0.9495    2.9091 H   0  0  0  0  0  0  0  0  0  0  0  0
    0.1905    1.3869    0.7777 C   0  0  0  0  0  0  0  0  0  0  0  0
    0.1905    1.3869   -0.7260 C   0  0  0  0  0  0  0  0  0  0  0  0
    0.1905    2.5812   -1.4400 C   0  0  0  0  0  0  0  0  0  0  0  0
    0.2209    2.5846   -2.8260 C   0  0  0  0  0  0  0  0  0  0  0  0
    0.2505    1.3876   -3.5251 C   0  0  0  0  0  0  0  0  0  0  0  0
    0.2473    0.1902   -2.8260 C   0  0  0  0  0  0  0  0  0  0  0  0
    0.2168    0.1929   -1.4400 C   0  0  0  0  0  0  0  0  0  0  0  0
   -0.3994    0.3202    1.2538 H   0  0  0  0  0  0  0  0  0  0  0  0
    1.2127    1.3982    1.1645 H   0  0  0  0  0  0  0  0  0  0  0  0
   -0.3205    2.2648    1.1745 H   0  0  0  0  0  0  0  0  0  0  0  0
    0.1639    3.5223   -0.9022 H   0  0  0  0  0  0  0  0  0  0  0  0
    0.2183    3.5258   -3.3618 H   0  0  0  0  0  0  0  0  0  0  0  0
    0.2716    1.3878   -4.6074 H   0  0  0  0  0  0  0  0  0  0  0  0
    0.2654   -0.7508   -3.3618 H   0  0  0  0  0  0  0  0  0  0  0  0
    0.2110   -0.7486   -0.9022 H   0  0  0  0  0  0  0  0  0  0  0  0
  1  2  2  3
  1  4  1  0
  1  5  1  0
  2  3  1  0
  2  6  1  0
  7  8  1  0
  7 14  1  0
  7 15  1  0
  7 16  1  0
  8  9  2  0
  8 13  1  0
  9 10  1  0
  9 17  1  0
 10 11  2  0
 10 18  1  0
 11 12  1  0
 11 19  1  0
 12 13  2  0
 12 20  1  0
 13 21  1  0
M  RAD  1   3   2
M  END
>  <reaction>  (5) 
rxn_1458

>  <mol_properties>  (5) 
{"0": {"label": "*1", "atom_type": "Cs"}, "1": {"label": "*0", "atom_type": "CS"}, "6": {"label": "*3", "atom_type": "Cd"}, "7": {"label": "*4", "atom_type": "Cd"}, "13": {"label": "*2", "atom_type": "H0"}}

>  <type>  (5) 
unop_1

>  <geom_source>  (5) 
Heuristics

$$$$

     RDKit          3D

 21 20  0  0  0  0  0  0  0  0999 V2000
   -0.5573   -0.7313    2.4325 C   0  0  0  0  0  0  0  0  0  0  0  0
   -0.3823   -1.8637    1.4829 C   0  0  0  0  0  0  0  0  0  0  0  0
   -1.4900   -2.9608    1.0945 S   0  0  0  0  0  1  0  0  0  0  0  0
    0.1860   -0.8053    3.2324 H   0  0  0  0  0  0  0  0  0  0  0  0
   -1.5571   -0.7153    2.8612 H   0  0  0  0  0  0  0  0  0  0  0  0
    0.6066   -1.9239    1.0246 H   0  0  0  0  0  0  0  0  0  0  0  0
    0.6246    1.4059    1.4787 C   0  0  0  0  0  0  0  0  0  0  0  0
    0.6246    1.4059   -0.0251 C   0  0  0  0  0  0  0  0  0  0  0  0
    0.6246    2.6002   -0.7391 C   0  0  0  0  0  0  0  0  0  0  0  0
    0.6550    2.6036   -2.1251 C   0  0  0  0  0  0  0  0  0  0  0  0
    0.6846    1.4065   -2.8241 C   0  0  0  0  0  0  0  0  0  0  0  0
    0.6814    0.2092   -2.1251 C   0  0  0  0  0  0  0  0  0  0  0  0
    0.6509    0.2118   -0.7391 C   0  0  0  0  0  0  0  0  0  0  0  0
    0.0347    0.3392    1.9548 H   0  0  0  0  0  0  0  0  0  0  0  0
    1.6468    1.4171    1.8654 H   0  0  0  0  0  0  0  0  0  0  0  0
    0.1136    2.2838    1.8754 H   0  0  0  0  0  0  0  0  0  0  0  0
    0.5980    3.5413   -0.2013 H   0  0  0  0  0  0  0  0  0  0  0  0
    0.6524    3.5448   -2.6608 H   0  0  0  0  0  0  0  0  0  0  0  0
    0.7057    1.4068   -3.9065 H   0  0  0  0  0  0  0  0  0  0  0  0
    0.6996   -0.7319   -2.6608 H   0  0  0  0  0  0  0  0  0  0  0  0
    0.6451   -0.7296   -0.2013 H   0  0  0  0  0  0  0  0  0  0  0  0
  1  2  2  3
  1  4  1  0
  1  5  1  0
  2  3  1  0
  2  6  1  0
  7  8  1  0
  7 14  1  0
  7 15  1  0
  7 16  1  0
  8  9  2  0
  8 13  1  0
  9 10  1  0
  9 17  1  0
 10 11  2  0
 10 18  1  0
 11 12  1  0
 11 19  1  0
 12 13  2  0
 12 20  1  0
 13 21  1  0
M  RAD  1   3   2
M  END
>  <reaction>  (6) 
rxn_1458

>  <mol_properties>  (6) 
{"0": {"label": "*1", "atom_type": "Cs"}, "1": {"label": "*0", "atom_type": "CS"}, "6": {"label": "*3", "atom_type": "Cd"}, "7": {"label": "*4", "atom_type": "Cd"}, "13": {"label": "*2", "atom_type": "H0"}}

>  <type>  (6) 
unop_2

>  <geom_source>  (6) 
Heuristics

$$$$

     RDKit          3D

 21 20  0  0  0  0  0  0  0  0999 V2000
   -0.9360   -0.8862    1.5501 C   0  0  0  0  0  0  0  0  0  0  0  0
   -0.3335   -1.2454    2.8626 C   0  0  0  0  0  0  0  0  0  0  0  0
   -0.2050   -2.7236    3.4789 S   0  0  0  0  0  1  0  0  0  0  0  0
   -1.7584   -0.1810    1.7048 H   0  0  0  0  0  0  0  0  0  0  0  0
   -1.3000   -1.7636    1.0198 H   0  0  0  0  0  0  0  0  0  0  0  0
    0.0477   -0.3976    3.4350 H   0  0  0  0  0  0  0  0  0  0  0  0
    0.2459    1.2510    0.5963 C   0  0  0  0  0  0  0  0  0  0  0  0
    0.2459    1.2510   -0.9075 C   0  0  0  0  0  0  0  0  0  0  0  0
    0.2459    2.4453   -1.6215 C   0  0  0  0  0  0  0  0  0  0  0  0
    0.2763    2.4487   -3.0075 C   0  0  0  0  0  0  0  0  0  0  0  0
    0.3059    1.2517   -3.7065 C   0  0  0  0  0  0  0  0  0  0  0  0
    0.3028    0.0543   -3.0075 C   0  0  0  0  0  0  0  0  0  0  0  0
    0.2722    0.0570   -1.6215 C   0  0  0  0  0  0  0  0  0  0  0  0
   -0.3440    0.1843    1.0723 H   0  0  0  0  0  0  0  0  0  0  0  0
    1.2681    1.2623    0.9830 H   0  0  0  0  0  0  0  0  0  0  0  0
   -0.2651    2.1289    0.9930 H   0  0  0  0  0  0  0  0  0  0  0  0
    0.2193    3.3864   -1.0837 H   0  0  0  0  0  0  0  0  0  0  0  0
    0.2737    3.3899   -3.5432 H   0  0  0  0  0  0  0  0  0  0  0  0
    0.3270    1.2519   -4.7889 H   0  0  0  0  0  0  0  0  0  0  0  0
    0.3209   -0.8867   -3.5432 H   0  0  0  0  0  0  0  0  0  0  0  0
    0.2664   -0.8845   -1.0837 H   0  0  0  0  0  0  0  0  0  0  0  0
  1  2  2  3
  1  4  1  0
  1  5  1  0
  2  3  1  0
  2  6  1  0
  7  8  1  0
  7 14  1  0
  7 15  1  0
  7 16  1  0
  8  9  2  0
  8 13  1  0
  9 10  1  0
  9 17  1  0
 10 11  2  0
 10 18  1  0
 11 12  1  0
 11 19  1  0
 12 13  2  0
 12 20  1  0
 13 21  1  0
M  RAD  1   3   2
M  END
>  <reaction>  (7) 
rxn_1458

>  <mol_properties>  (7) 
{"0": {"label": "*1", "atom_type": "Cs"}, "1": {"label": "*0", "atom_type": "CS"}, "6": {"label": "*3", "atom_type": "Cd"}, "7": {"label": "*4", "atom_type": "Cd"}, "13": {"label": "*2", "atom_type": "H0"}}

>  <type>  (7) 
unop_3

>  <geom_source>  (7) 
Heuristics

$$$$

     RDKit          3D

 21 20  0  0  0  0  0  0  0  0999 V2000
   -0.0475   -1.4176    2.0549 C   0  0  0  0  0  0  0  0  0  0  0  0
   -1.4583   -1.4597    1.5834 C   0  0  0  0  0  0  0  0  0  0  0  0
   -2.7307   -0.8201    2.3272 S   0  0  0  0  0  1  0  0  0  0  0  0
    0.3324   -2.4378    2.1668 H   0  0  0  0  0  0  0  0  0  0  0  0
    0.0463   -0.8856    2.9993 H   0  0  0  0  0  0  0  0  0  0  0  0
   -1.6058   -1.9840    0.6372 H   0  0  0  0  0  0  0  0  0  0  0  0
    1.1343    0.7196    1.1011 C   0  0  0  0  0  0  0  0  0  0  0  0
    1.1343    0.7196   -0.4026 C   0  0  0  0  0  0  0  0  0  0  0  0
    1.1343    1.9139   -1.1167 C   0  0  0  0  0  0  0  0  0  0  0  0
    1.1648    1.9173   -2.5027 C   0  0  0  0  0  0  0  0  0  0  0  0
    1.1943    0.7203   -3.2017 C   0  0  0  0  0  0  0  0  0  0  0  0
    1.1912   -0.4771   -2.5027 C   0  0  0  0  0  0  0  0  0  0  0  0
    1.1607   -0.4744   -1.1167 C   0  0  0  0  0  0  0  0  0  0  0  0
    0.5445   -0.3471    1.5772 H   0  0  0  0  0  0  0  0  0  0  0  0
    2.1566    0.7309    1.4879 H   0  0  0  0  0  0  0  0  0  0  0  0
    0.6233    1.5975    1.4978 H   0  0  0  0  0  0  0  0  0  0  0  0
    1.1077    2.8550   -0.5789 H   0  0  0  0  0  0  0  0  0  0  0  0
    1.1621    2.8585   -3.0384 H   0  0  0  0  0  0  0  0  0  0  0  0
    1.2155    0.7205   -4.2841 H   0  0  0  0  0  0  0  0  0  0  0  0
    1.2093   -1.4181   -3.0384 H   0  0  0  0  0  0  0  0  0  0  0  0
    1.1548   -1.4159   -0.5789 H   0  0  0  0  0  0  0  0  0  0  0  0
  1  2  2  3
  1  4  1  0
  1  5  1  0
  2  3  1  0
  2  6  1  0
  7  8  1  0
  7 14  1  0
  7 15  1  0
  7 16  1  0
  8  9  2  0
  8 13  1  0
  9 10  1  0
  9 17  1  0
 10 11  2  0
 10 18  1  0
 11 12  1  0
 11 19  1  0
 12 13  2  0
 12 20  1  0
 13 21  1  0
M  RAD  1   3   2
M  END
>  <reaction>  (8) 
rxn_1458

>  <mol_properties>  (8) 
{"0": {"label": "*1", "atom_type": "Cs"}, "1": {"label": "*0", "atom_type": "CS"}, "6": {"label": "*3", "atom_type": "Cd"}, "7": {"label": "*4", "atom_type": "Cd"}, "13": {"label": "*2", "atom_type": "H0"}}

>  <type>  (8) 
unop_4

>  <geom_source>  (8) 
Heuristics

$$$$

     RDKit          3D

 21 20  0  0  0  0  0  0  0  0999 V2000
   -0.8712   -1.0800    1.4259 C   0  0  0  0  0  0  0  0  0  0  0  0
   -0.8492   -1.0402    2.9133 C   0  0  0  0  0  0  0  0  0  0  0  0
   -0.2029   -2.1435    3.8862 S   0  0  0  0  0  1  0  0  0  0  0  0
   -1.9066   -1.0433    1.0733 H   0  0  0  0  0  0  0  0  0  0  0  0
   -0.3835   -1.9723    1.0391 H   0  0  0  0  0  0  0  0  0  0  0  0
   -1.3275   -0.1621    3.3516 H   0  0  0  0  0  0  0  0  0  0  0  0
    0.3106    1.0572    0.4720 C   0  0  0  0  0  0  0  0  0  0  0  0
    0.3106    1.0572   -1.0317 C   0  0  0  0  0  0  0  0  0  0  0  0
    0.3106    2.2515   -1.7457 C   0  0  0  0  0  0  0  0  0  0  0  0
    0.3411    2.2549   -3.1317 C   0  0  0  0  0  0  0  0  0  0  0  0
    0.3706    1.0579   -3.8308 C   0  0  0  0  0  0  0  0  0  0  0  0
    0.3675   -0.1395   -3.1317 C   0  0  0  0  0  0  0  0  0  0  0  0
    0.3369   -0.1368   -1.7457 C   0  0  0  0  0  0  0  0  0  0  0  0
   -0.2793   -0.0095    0.9481 H   0  0  0  0  0  0  0  0  0  0  0  0
    1.3328    1.0685    0.8588 H   0  0  0  0  0  0  0  0  0  0  0  0
   -0.2004    1.9351    0.8688 H   0  0  0  0  0  0  0  0  0  0  0  0
    0.2840    3.1926   -1.2079 H   0  0  0  0  0  0  0  0  0  0  0  0
    0.3384    3.1961   -3.6675 H   0  0  0  0  0  0  0  0  0  0  0  0
    0.3918    1.0581   -4.9131 H   0  0  0  0  0  0  0  0  0  0  0  0
    0.3856   -1.0805   -3.6675 H   0  0  0  0  0  0  0  0  0  0  0  0
    0.3311   -1.0783   -1.2079 H   0  0  0  0  0  0  0  0  0  0  0  0
  1  2  2  3
  1  4  1  0
  1  5  1  0
  2  3  1  0
  2  6  1  0
  7  8  1  0
  7 14  1  0
  7 15  1  0
  7 16  1  0
  8  9  2  0
  8 13  1  0
  9 10  1  0
  9 17  1  0
 10 11  2  0
 10 18  1  0
 11 12  1  0
 11 19  1  0
 12 13  2  0
 12 20  1  0
 13 21  1  0
M  RAD  1   3   2
M  END
>  <reaction>  (9) 
rxn_1458

>  <mol_properties>  (9) 
{"0": {"label": "*1", "atom_type": "Cs"}, "1": {"label": "*0", "atom_type": "CS"}, "6": {"label": "*3", "atom_type": "Cd"}, "7": {"label": "*4", "atom_type": "Cd"}, "13": {"label": "*2", "atom_type": "H0"}}

>  <type>  (9) 
unop_5

>  <geom_source>  (9) 
Heuristics

$$$$

     RDKit          3D

 21 20  0  0  0  0  0  0  0  0999 V2000
   -0.1588   -1.5304    1.7533 C   0  0  0  0  0  0  0  0  0  0  0  0
   -1.6106   -1.2584    1.9347 C   0  0  0  0  0  0  0  0  0  0  0  0
   -2.2927   -0.5263    3.1918 S   0  0  0  0  0  1  0  0  0  0  0  0
    0.0001   -2.6060    1.6285 H   0  0  0  0  0  0  0  0  0  0  0  0
    0.4276   -1.1683    2.5951 H   0  0  0  0  0  0  0  0  0  0  0  0
   -2.2436   -1.6035    1.1149 H   0  0  0  0  0  0  0  0  0  0  0  0
    1.0230    0.6068    0.7995 C   0  0  0  0  0  0  0  0  0  0  0  0
    1.0230    0.6068   -0.7043 C   0  0  0  0  0  0  0  0  0  0  0  0
    1.0230    1.8011   -1.4183 C   0  0  0  0  0  0  0  0  0  0  0  0
    1.0535    1.8045   -2.8043 C   0  0  0  0  0  0  0  0  0  0  0  0
    1.0830    0.6075   -3.5033 C   0  0  0  0  0  0  0  0  0  0  0  0
    1.0799   -0.5899   -2.8043 C   0  0  0  0  0  0  0  0  0  0  0  0
    1.0494   -0.5872   -1.4183 C   0  0  0  0  0  0  0  0  0  0  0  0
    0.4331   -0.4599    1.2755 H   0  0  0  0  0  0  0  0  0  0  0  0
    2.0452    0.6181    1.1862 H   0  0  0  0  0  0  0  0  0  0  0  0
    0.5120    1.4847    1.1962 H   0  0  0  0  0  0  0  0  0  0  0  0
    0.9964    2.7422   -0.8805 H   0  0  0  0  0  0  0  0  0  0  0  0
    1.0508    2.7457   -3.3400 H   0  0  0  0  0  0  0  0  0  0  0  0
    1.1042    0.6077   -4.5857 H   0  0  0  0  0  0  0  0  0  0  0  0
    1.0980   -1.5309   -3.3400 H   0  0  0  0  0  0  0  0  0  0  0  0
    1.0435   -1.5287   -0.8805 H   0  0  0  0  0  0  0  0  0  0  0  0
  1  2  2  3
  1  4  1  0
  1  5  1  0
  2  3  1  0
  2  6  1  0
  7  8  1  0
  7 14  1  0
  7 15  1  0
  7 16  1  0
  8  9  2  0
  8 13  1  0
  9 10  1  0
  9 17  1  0
 10 11  2  0
 10 18  1  0
 11 12  1  0
 11 19  1  0
 12 13  2  0
 12 20  1  0
 13 21  1  0
M  RAD  1   3   2
M  END
>  <reaction>  (10) 
rxn_1458

>  <mol_properties>  (10) 
{"0": {"label": "*1", "atom_type": "Cs"}, "1": {"label": "*0", "atom_type": "CS"}, "6": {"label": "*3", "atom_type": "Cd"}, "7": {"label": "*4", "atom_type": "Cd"}, "13": {"label": "*2", "atom_type": "H0"}}

>  <type>  (10) 
unop_6

>  <geom_source>  (10) 
Heuristics

$$$$

     RDKit          3D

 21 20  0  0  0  0  0  0  0  0999 V2000
   -0.3964   -1.5120    1.5006 C   0  0  0  0  0  0  0  0  0  0  0  0
   -1.5604   -1.1078    2.3351 C   0  0  0  0  0  0  0  0  0  0  0  0
   -1.5156   -0.6503    3.8746 S   0  0  0  0  0  1  0  0  0  0  0  0
   -0.5508   -2.5276    1.1231 H   0  0  0  0  0  0  0  0  0  0  0  0
    0.5358   -1.4664    2.0596 H   0  0  0  0  0  0  0  0  0  0  0  0
   -2.5217   -1.1368    1.8186 H   0  0  0  0  0  0  0  0  0  0  0  0
    0.7854    0.6252    0.5468 C   0  0  0  0  0  0  0  0  0  0  0  0
    0.7854    0.6252   -0.9570 C   0  0  0  0  0  0  0  0  0  0  0  0
    0.7854    1.8195   -1.6710 C   0  0  0  0  0  0  0  0  0  0  0  0
    0.8159    1.8228   -3.0570 C   0  0  0  0  0  0  0  0  0  0  0  0
    0.8454    0.6258   -3.7560 C   0  0  0  0  0  0  0  0  0  0  0  0
    0.8423   -0.5715   -3.0570 C   0  0  0  0  0  0  0  0  0  0  0  0
    0.8118   -0.5689   -1.6710 C   0  0  0  0  0  0  0  0  0  0  0  0
    0.1956   -0.4415    1.0228 H   0  0  0  0  0  0  0  0  0  0  0  0
    1.8077    0.6364    0.9335 H   0  0  0  0  0  0  0  0  0  0  0  0
    0.2744    1.5031    0.9435 H   0  0  0  0  0  0  0  0  0  0  0  0
    0.7588    2.7606   -1.1332 H   0  0  0  0  0  0  0  0  0  0  0  0
    0.8133    2.7641   -3.5927 H   0  0  0  0  0  0  0  0  0  0  0  0
    0.8666    0.6261   -4.8384 H   0  0  0  0  0  0  0  0  0  0  0  0
    0.8604   -1.5126   -3.5927 H   0  0  0  0  0  0  0  0  0  0  0  0
    0.8059   -1.5103   -1.1332 H   0  0  0  0  0  0  0  0  0  0  0  0
  1  2  2  3
  1  4  1  0
  1  5  1  0
  2  3  1  0
  2  6  1  0
  7  8  1  0
  7 14  1  0
  7 15  1  0
  7 16  1  0
  8  9  2  0
  8 13  1  0
  9 10  1  0
  9 17  1  0
 10 11  2  0
 10 18  1  0
 11 12  1  0
 11 19  1  0
 12 13  2  0
 12 20  1  0
 13 21  1  0
M  RAD  1   3   2
M  END
>  <reaction>  (11) 
rxn_1458

>  <mol_properties>  (11) 
{"0": {"label": "*1", "atom_type": "Cs"}, "1": {"label": "*0", "atom_type": "CS"}, "6": {"label": "*3", "atom_type": "Cd"}, "7": {"label": "*4", "atom_type": "Cd"}, "13": {"label": "*2", "atom_type": "H0"}}

>  <type>  (11) 
unop_7

>  <geom_source>  (11) 
Heuristics

$$$$

     RDKit          3D

 21 20  0  0  0  0  0  0  0  0999 V2000
   -0.9681   -0.6506    1.9840 C   0  0  0  0  0  0  0  0  0  0  0  0
    0.0341   -1.7356    2.1655 C   0  0  0  0  0  0  0  0  0  0  0  0
   -0.2767   -3.3059    2.3032 S   0  0  0  0  0  1  0  0  0  0  0  0
   -0.8767    0.0733    2.7997 H   0  0  0  0  0  0  0  0  0  0  0  0
   -1.9833   -1.0405    1.9517 H   0  0  0  0  0  0  0  0  0  0  0  0
    1.0705   -1.3951    2.2043 H   0  0  0  0  0  0  0  0  0  0  0  0
    0.2137    1.4867    1.0302 C   0  0  0  0  0  0  0  0  0  0  0  0
    0.2137    1.4867   -0.4735 C   0  0  0  0  0  0  0  0  0  0  0  0
    0.2137    2.6810   -1.1876 C   0  0  0  0  0  0  0  0  0  0  0  0
    0.2442    2.6843   -2.5736 C   0  0  0  0  0  0  0  0  0  0  0  0
    0.2737    1.4873   -3.2726 C   0  0  0  0  0  0  0  0  0  0  0  0
    0.2706    0.2899   -2.5736 C   0  0  0  0  0  0  0  0  0  0  0  0
    0.2401    0.2926   -1.1876 C   0  0  0  0  0  0  0  0  0  0  0  0
   -0.3762    0.4199    1.5063 H   0  0  0  0  0  0  0  0  0  0  0  0
    1.2359    1.4979    1.4169 H   0  0  0  0  0  0  0  0  0  0  0  0
   -0.2973    2.3646    1.4269 H   0  0  0  0  0  0  0  0  0  0  0  0
    0.1871    3.6221   -0.6498 H   0  0  0  0  0  0  0  0  0  0  0  0
    0.2415    3.6255   -3.1093 H   0  0  0  0  0  0  0  0  0  0  0  0
    0.2949    1.4876   -4.3550 H   0  0  0  0  0  0  0  0  0  0  0  0
    0.2887   -0.6511   -3.1093 H   0  0  0  0  0  0  0  0  0  0  0  0
    0.2342   -0.6488   -0.6498 H   0  0  0  0  0  0  0  0  0  0  0  0
  1  2  2  3
  1  4  1  0
  1  5  1  0
  2  3  1  0
  2  6  1  0
  7  8  1  0
  7 14  1  0
  7 15  1  0
  7 16  1  0
  8  9  2  0
  8 13  1  0
  9 10  1  0
  9 17  1  0
 10 11  2  0
 10 18  1  0
 11 12  1  0
 11 19  1  0
 12 13  2  0
 12 20  1  0
 13 21  1  0
M  RAD  1   3   2
M  END
>  <reaction>  (12) 
rxn_1458

>  <mol_properties>  (12) 
{"0": {"label": "*1", "atom_type": "Cs"}, "1": {"label": "*0", "atom_type": "CS"}, "6": {"label": "*3", "atom_type": "Cd"}, "7": {"label": "*4", "atom_type": "Cd"}, "13": {"label": "*2", "atom_type": "H0"}}

>  <type>  (12) 
unop_8

>  <geom_source>  (12) 
Heuristics

$$$$

     RDKit          3D

 21 20  0  0  0  0  0  0  0  0999 V2000
   -0.0896   -1.2039    2.3183 C   0  0  0  0  0  0  0  0  0  0  0  0
   -1.1417   -1.6578    1.3687 C   0  0  0  0  0  0  0  0  0  0  0  0
   -2.7266   -1.4531    1.5342 S   0  0  0  0  0  1  0  0  0  0  0  0
    0.4984   -2.0641    2.6528 H   0  0  0  0  0  0  0  0  0  0  0  0
   -0.5164   -0.6942    3.1796 H   0  0  0  0  0  0  0  0  0  0  0  0
   -0.7637   -2.1762    0.4855 H   0  0  0  0  0  0  0  0  0  0  0  0
    1.0922    0.9333    1.3645 C   0  0  0  0  0  0  0  0  0  0  0  0
    1.0922    0.9333   -0.1392 C   0  0  0  0  0  0  0  0  0  0  0  0
    1.0922    2.1276   -0.8533 C   0  0  0  0  0  0  0  0  0  0  0  0
    1.1227    2.1310   -2.2393 C   0  0  0  0  0  0  0  0  0  0  0  0
    1.1522    0.9340   -2.9383 C   0  0  0  0  0  0  0  0  0  0  0  0
    1.1491   -0.2634   -2.2393 C   0  0  0  0  0  0  0  0  0  0  0  0
    1.1186   -0.2607   -0.8533 C   0  0  0  0  0  0  0  0  0  0  0  0
    0.5024   -0.1334    1.8406 H   0  0  0  0  0  0  0  0  0  0  0  0
    2.1145    0.9446    1.7513 H   0  0  0  0  0  0  0  0  0  0  0  0
    0.5812    1.8112    1.7612 H   0  0  0  0  0  0  0  0  0  0  0  0
    1.0656    3.0687   -0.3155 H   0  0  0  0  0  0  0  0  0  0  0  0
    1.1201    3.0722   -2.7750 H   0  0  0  0  0  0  0  0  0  0  0  0
    1.1734    0.9342   -4.0207 H   0  0  0  0  0  0  0  0  0  0  0  0
    1.1672   -1.2044   -2.7750 H   0  0  0  0  0  0  0  0  0  0  0  0
    1.1127   -1.2022   -0.3155 H   0  0  0  0  0  0  0  0  0  0  0  0
  1  2  2  3
  1  4  1  0
  1  5  1  0
  2  3  1  0
  2  6  1  0
  7  8  1  0
  7 14  1  0
  7 15  1  0
  7 16  1  0
  8  9  2  0
  8 13  1  0
  9 10  1  0
  9 17  1  0
 10 11  2  0
 10 18  1  0
 11 12  1  0
 11 19  1  0
 12 13  2  0
 12 20  1  0
 13 21  1  0
M  RAD  1   3   2
M  END
>  <reaction>  (13) 
rxn_1458

>  <mol_properties>  (13) 
{"0": {"label": "*1", "atom_type": "Cs"}, "1": {"label": "*0", "atom_type": "CS"}, "6": {"label": "*3", "atom_type": "Cd"}, "7": {"label": "*4", "atom_type": "Cd"}, "13": {"label": "*2", "atom_type": "H0"}}

>  <type>  (13) 
unop_9

>  <geom_source>  (13) 
Heuristics

$$$$

     RDKit          3D

 21 20  0  0  0  0  0  0  0  0999 V2000
   -0.8163   -0.6316    2.2475 C   0  0  0  0  0  0  0  0  0  0  0  0
   -0.1019   -1.8489    1.7760 C   0  0  0  0  0  0  0  0  0  0  0  0
   -0.7373   -3.3123    1.5854 S   0  0  0  0  0  1  0  0  0  0  0  0
   -0.3249   -0.2423    3.1446 H   0  0  0  0  0  0  0  0  0  0  0  0
   -1.8631   -0.8360    2.4622 H   0  0  0  0  0  0  0  0  0  0  0  0
    0.9543   -1.6958    1.5466 H   0  0  0  0  0  0  0  0  0  0  0  0
    0.3655    1.5057    1.2937 C   0  0  0  0  0  0  0  0  0  0  0  0
    0.3655    1.5057   -0.2100 C   0  0  0  0  0  0  0  0  0  0  0  0
    0.3655    2.7000   -0.9241 C   0  0  0  0  0  0  0  0  0  0  0  0
    0.3960    2.7033   -2.3101 C   0  0  0  0  0  0  0  0  0  0  0  0
    0.4255    1.5063   -3.0091 C   0  0  0  0  0  0  0  0  0  0  0  0
    0.4224    0.3090   -2.3101 C   0  0  0  0  0  0  0  0  0  0  0  0
    0.3919    0.3116   -0.9241 C   0  0  0  0  0  0  0  0  0  0  0  0
   -0.2244    0.4389    1.7698 H   0  0  0  0  0  0  0  0  0  0  0  0
    1.3878    1.5169    1.6805 H   0  0  0  0  0  0  0  0  0  0  0  0
   -0.1455    2.3836    1.6904 H   0  0  0  0  0  0  0  0  0  0  0  0
    0.3389    3.6411   -0.3862 H   0  0  0  0  0  0  0  0  0  0  0  0
    0.3933    3.6445   -2.8458 H   0  0  0  0  0  0  0  0  0  0  0  0
    0.4467    1.5066   -4.0914 H   0  0  0  0  0  0  0  0  0  0  0  0
    0.4405   -0.6321   -2.8458 H   0  0  0  0  0  0  0  0  0  0  0  0
    0.3860   -0.6298   -0.3862 H   0  0  0  0  0  0  0  0  0  0  0  0
  1  2  2  3
  1  4  1  0
  1  5  1  0
  2  3  1  0
  2  6  1  0
  7  8  1  0
  7 14  1  0
  7 15  1  0
  7 16  1  0
  8  9  2  0
  8 13  1  0
  9 10  1  0
  9 17  1  0
 10 11  2  0
 10 18  1  0
 11 12  1  0
 11 19  1  0
 12 13  2  0
 12 20  1  0
 13 21  1  0
M  RAD  1   3   2
M  END
>  <reaction>  (14) 
rxn_1458

>  <mol_properties>  (14) 
{"0": {"label": "*1", "atom_type": "Cs"}, "1": {"label": "*0", "atom_type": "CS"}, "6": {"label": "*3", "atom_type": "Cd"}, "7": {"label": "*4", "atom_type": "Cd"}, "13": {"label": "*2", "atom_type": "H0"}}

>  <type>  (14) 
unop_10

>  <geom_source>  (14) 
Heuristics

$$$$

     RDKit          3D

 21 20  0  0  0  0  0  0  0  0999 V2000
   -0.6847   -1.3462    1.3787 C   0  0  0  0  0  0  0  0  0  0  0  0
   -1.3093   -1.0269    2.6912 C   0  0  0  0  0  0  0  0  0  0  0  0
   -0.6467   -1.2428    4.1389 S   0  0  0  0  0  1  0  0  0  0  0  0
   -1.3163   -2.0554    0.8349 H   0  0  0  0  0  0  0  0  0  0  0  0
    0.3141   -1.7609    1.4976 H   0  0  0  0  0  0  0  0  0  0  0  0
   -2.3149   -0.6071    2.6259 H   0  0  0  0  0  0  0  0  0  0  0  0
    0.4971    0.7910    0.4249 C   0  0  0  0  0  0  0  0  0  0  0  0
    0.4971    0.7910   -1.0788 C   0  0  0  0  0  0  0  0  0  0  0  0
    0.4971    1.9853   -1.7929 C   0  0  0  0  0  0  0  0  0  0  0  0
    0.5276    1.9887   -3.1789 C   0  0  0  0  0  0  0  0  0  0  0  0
    0.5571    0.7917   -3.8779 C   0  0  0  0  0  0  0  0  0  0  0  0
    0.5540   -0.4057   -3.1789 C   0  0  0  0  0  0  0  0  0  0  0  0
    0.5234   -0.4030   -1.7929 C   0  0  0  0  0  0  0  0  0  0  0  0
   -0.0928   -0.2757    0.9010 H   0  0  0  0  0  0  0  0  0  0  0  0
    1.5193    0.8023    0.8117 H   0  0  0  0  0  0  0  0  0  0  0  0
   -0.0139    1.6689    0.8216 H   0  0  0  0  0  0  0  0  0  0  0  0
    0.4705    2.9264   -1.2551 H   0  0  0  0  0  0  0  0  0  0  0  0
    0.5249    2.9299   -3.7146 H   0  0  0  0  0  0  0  0  0  0  0  0
    0.5783    0.7919   -4.9603 H   0  0  0  0  0  0  0  0  0  0  0  0
    0.5721   -1.3467   -3.7146 H   0  0  0  0  0  0  0  0  0  0  0  0
    0.5176   -1.3445   -1.2551 H   0  0  0  0  0  0  0  0  0  0  0  0
  1  2  2  3
  1  4  1  0
  1  5  1  0
  2  3  1  0
  2  6  1  0
  7  8  1  0
  7 14  1  0
  7 15  1  0
  7 16  1  0
  8  9  2  0
  8 13  1  0
  9 10  1  0
  9 17  1  0
 10 11  2  0
 10 18  1  0
 11 12  1  0
 11 19  1  0
 12 13  2  0
 12 20  1  0
 13 21  1  0
M  RAD  1   3   2
M  END
>  <reaction>  (15) 
rxn_1458

>  <mol_properties>  (15) 
{"0": {"label": "*1", "atom_type": "Cs"}, "1": {"label": "*0", "atom_type": "CS"}, "6": {"label": "*3", "atom_type": "Cd"}, "7": {"label": "*4", "atom_type": "Cd"}, "13": {"label": "*2", "atom_type": "H0"}}

>  <type>  (15) 
unop_11

>  <geom_source>  (15) 
Heuristics

$$$$

     RDKit          3D

 21 20  0  0  0  0  0  0  0  0999 V2000
   -0.2788   -0.9453    2.4617 C   0  0  0  0  0  0  0  0  0  0  0  0
   -0.7504   -1.7983    1.3371 C   0  0  0  0  0  0  0  0  0  0  0  0
   -2.2639   -2.2632    1.0641 S   0  0  0  0  0  1  0  0  0  0  0  0
    0.4785   -1.4850    3.0387 H   0  0  0  0  0  0  0  0  0  0  0  0
   -1.0972   -0.6510    3.1154 H   0  0  0  0  0  0  0  0  0  0  0  0
    0.0350   -2.1208    0.6509 H   0  0  0  0  0  0  0  0  0  0  0  0
    0.9031    1.1919    1.5079 C   0  0  0  0  0  0  0  0  0  0  0  0
    0.9031    1.1919    0.0041 C   0  0  0  0  0  0  0  0  0  0  0  0
    0.9031    2.3862   -0.7099 C   0  0  0  0  0  0  0  0  0  0  0  0
    0.9335    2.3895   -2.0959 C   0  0  0  0  0  0  0  0  0  0  0  0
    0.9630    1.1925   -2.7949 C   0  0  0  0  0  0  0  0  0  0  0  0
    0.9599   -0.0048   -2.0959 C   0  0  0  0  0  0  0  0  0  0  0  0
    0.9294   -0.0022   -0.7099 C   0  0  0  0  0  0  0  0  0  0  0  0
    0.3132    0.1252    1.9839 H   0  0  0  0  0  0  0  0  0  0  0  0
    1.9253    1.2031    1.8946 H   0  0  0  0  0  0  0  0  0  0  0  0
    0.3920    2.0698    1.9046 H   0  0  0  0  0  0  0  0  0  0  0  0
    0.8764    3.3273   -0.1721 H   0  0  0  0  0  0  0  0  0  0  0  0
    0.9309    3.3308   -2.6316 H   0  0  0  0  0  0  0  0  0  0  0  0
    0.9842    1.1928   -3.8773 H   0  0  0  0  0  0  0  0  0  0  0  0
    0.9780   -0.9459   -2.6316 H   0  0  0  0  0  0  0  0  0  0  0  0
    0.9235   -0.9436   -0.1721 H   0  0  0  0  0  0  0  0  0  0  0  0
  1  2  2  3
  1  4  1  0
  1  5  1  0
  2  3  1  0
  2  6  1  0
  7  8  1  0
  7 14  1  0
  7 15  1  0
  7 16  1  0
  8  9  2  0
  8 13  1  0
  9 10  1  0
  9 17  1  0
 10 11  2  0
 10 18  1  0
 11 12  1  0
 11 19  1  0
 12 13  2  0
 12 20  1  0
 13 21  1  0
M  RAD  1   3   2
M  END
>  <reaction>  (16) 
rxn_1458

>  <mol_properties>  (16) 
{"0": {"label": "*1", "atom_type": "Cs"}, "1": {"label": "*0", "atom_type": "CS"}, "6": {"label": "*3", "atom_type": "Cd"}, "7": {"label": "*4", "atom_type": "Cd"}, "13": {"label": "*2", "atom_type": "H0"}}

>  <type>  (16) 
unop_12

>  <geom_source>  (16) 
Heuristics

$$$$

     RDKit          3D

 21 20  0  0  0  0  0  0  0  0999 V2000
   -4.5884   -0.3993    1.6600 S   0  0  0  0  0  0  0  0  0  0  0  0
   -2.5213   -0.5007    0.1722 C   0  0  0  0  0  0  0  0  0  0  0  0
    0.6587    0.3335   -0.5926 C   0  0  0  0  0  0  0  0  0  0  0  0
    0.9303    0.7164    0.7278 C   0  0  0  0  0  3  0  0  0  0  0  0
    1.6205   -0.3822   -1.3215 C   0  0  0  0  0  0  0  0  0  0  0  0
    2.1560    0.3858    1.3155 C   0  0  0  0  0  0  0  0  0  0  0  0
    3.1127   -0.3276    0.5867 C   0  0  0  0  0  0  0  0  0  0  0  0
    2.8451   -0.7114   -0.7311 C   0  0  0  0  0  0  0  0  0  0  0  0
   -3.4862    0.2640    1.0221 C   0  0  0  0  0  0  0  0  0  0  0  0
   -0.6513    0.6895   -1.2141 C   0  0  0  0  0  0  0  0  0  0  0  0
   -2.0167   -1.2867    0.7740 H   0  0  0  0  0  0  0  0  0  0  0  0
   -3.0506   -0.9708   -0.6841 H   0  0  0  0  0  0  0  0  0  0  0  0
   -1.5936    0.3345   -0.3046 H   0  0  0  0  0  0  0  0  0  0  0  0
    0.1954    1.2692    1.3000 H   0  0  0  0  0  0  0  0  0  0  0  0
    2.3640    0.6824    2.3354 H   0  0  0  0  0  0  0  0  0  0  0  0
    1.4215   -0.6834   -2.3427 H   0  0  0  0  0  0  0  0  0  0  0  0
    4.0605   -0.5828    1.0426 H   0  0  0  0  0  0  0  0  0  0  0  0
    3.5861   -1.2635   -1.2945 H   0  0  0  0  0  0  0  0  0  0  0  0
   -3.3528    1.3318    1.1589 H   0  0  0  0  0  0  0  0  0  0  0  0
   -1.1997   -0.2310   -1.5052 H   0  0  0  0  0  0  0  0  0  0  0  0
   -0.4903    1.3327   -2.1047 H   0  0  0  0  0  0  0  0  0  0  0  0
  1  9  2  0
  2  9  1  0
  2 11  1  0
  2 12  1  0
  2 13  1  0
  3 10  2  3
  3  4  1  0
  3  5  1  0
  4  6  1  0
  4 14  1  0
  5  8  2  0
  5 16  1  0
  6  7  2  0
  6 15  1  0
  7  8  1  0
  7 17  1  0
  8 18  1  0
  9 19  1  0
 10 20  1  0
 10 21  1  0
M  RAD  1   4   2
M  END
>  <reaction>  (17) 
rxn_1458

>  <mol_properties>  (17) 
{"0": {"label": "*1", "atom_type": "Cs"}, "1": {"label": "*0", "atom_type": "CS"}, "6": {"label": "*3", "atom_type": "Cd"}, "7": {"label": "*4", "atom_type": "Cd"}, "13": {"label": "*2", "atom_type": "H0"}}

>  <type>  (17) 
unop_13

>  <geom_source>  (17) 
AutoTST

$$$$

     RDKit          3D

 21 20  0  0  0  0  0  0  0  0999 V2000
   -0.5573   -0.7313    2.4325 C   0  0  0  0  0  0  0  0  0  0  0  0
   -0.3824   -1.8637    1.4829 C   0  0  0  0  0  0  0  0  0  0  0  0
   -1.4900   -2.9608    1.0945 S   0  0  0  0  0  1  0  0  0  0  0  0
    0.1860   -0.8053    3.2324 H   0  0  0  0  0  0  0  0  0  0  0  0
   -1.5571   -0.7153    2.8612 H   0  0  0  0  0  0  0  0  0  0  0  0
    0.6066   -1.9239    1.0246 H   0  0  0  0  0  0  0  0  0  0  0  0
    0.6246    1.4059    1.4787 C   0  0  0  0  0  0  0  0  0  0  0  0
    0.6246    1.4059   -0.0250 C   0  0  0  0  0  0  0  0  0  0  0  0
    0.6246    2.6002   -0.7391 C   0  0  0  0  0  0  0  0  0  0  0  0
    0.6550    2.6035   -2.1251 C   0  0  0  0  0  0  0  0  0  0  0  0
    0.6846    1.4065   -2.8241 C   0  0  0  0  0  0  0  0  0  0  0  0
    0.6814    0.2092   -2.1251 C   0  0  0  0  0  0  0  0  0  0  0  0
    0.6509    0.2119   -0.7391 C   0  0  0  0  0  0  0  0  0  0  0  0
    0.0347    0.3392    1.9547 H   0  0  0  0  0  0  0  0  0  0  0  0
    1.6468    1.4171    1.8654 H   0  0  0  0  0  0  0  0  0  0  0  0
    0.1136    2.2838    1.8754 H   0  0  0  0  0  0  0  0  0  0  0  0
    0.5980    3.5413   -0.2013 H   0  0  0  0  0  0  0  0  0  0  0  0
    0.6524    3.5448   -2.6608 H   0  0  0  0  0  0  0  0  0  0  0  0
    0.7057    1.4068   -3.9065 H   0  0  0  0  0  0  0  0  0  0  0  0
    0.6996   -0.7319   -2.6608 H   0  0  0  0  0  0  0  0  0  0  0  0
    0.6451   -0.7296   -0.2013 H   0  0  0  0  0  0  0  0  0  0  0  0
  1  2  2  3
  1  4  1  0
  1  5  1  0
  2  3  1  0
  2  6  1  0
  7  8  1  0
  7 14  1  0
  7 15  1  0
  7 16  1  0
  8  9  2  0
  8 13  1  0
  9 10  1  0
  9 17  1  0
 10 11  2  0
 10 18  1  0
 11 12  1  0
 11 19  1  0
 12 13  2  0
 12 20  1  0
 13 21  1  0
M  RAD  1   3   2
M  END
>  <reaction>  (18) 
rxn_1458

>  <mol_properties>  (18) 
{"0": {"label": "*1", "atom_type": "Cs"}, "1": {"label": "*0", "atom_type": "CS"}, "6": {"label": "*3", "atom_type": "Cd"}, "7": {"label": "*4", "atom_type": "Cd"}, "13": {"label": "*2", "atom_type": "H0"}}

>  <type>  (18) 
unop_14

>  <geom_source>  (18) 
gaussian_log

$$$$
