
     RDKit          3D

  6  5  0  0  0  0  0  0  0  0999 V2000
   -0.5072   -0.0291   -0.0097 C   0  0  0  0  0  0  0  0  0  0  0  0
    1.1321   -0.1527   -0.7687 S   0  0  0  0  0  0  0  0  0  0  0  0
   -0.6174   -0.7330    0.8127 H   0  0  0  0  0  0  0  0  0  0  0  0
   -0.5863    0.9827    0.3845 H   0  0  0  0  0  0  0  0  0  0  0  0
   -1.2962   -0.1800   -0.7434 H   0  0  0  0  0  0  0  0  0  0  0  0
    1.0312   -1.4237   -1.1764 H   0  0  0  0  0  0  0  0  0  0  0  0
  1  2  1  0
  1  3  1  0
  1  4  1  0
  1  5  1  0
  2  6  1  0
M  END
>  <reaction>  (1) 
rxn_1805

>  <mol_properties>  (1) 
{"0": {"label": "donator", "atom_type": "Cs"}, "2": {"label": "d_hydrogen", "atom_type": "H0"}}

>  <type>  (1) 
r1h

$$$$

     RDKit          3D

 13 12  0  0  0  0  0  0  0  0999 V2000
   -1.3649   -0.5966   -0.3478 C   0  0  0  0  0  0  0  0  0  0  0  0
   -0.1601   -0.2776    0.4668 C   0  0  0  0  0  3  0  0  0  0  0  0
    1.1241   -0.9571    0.1414 C   0  0  0  0  0  0  0  0  0  0  0  0
   -0.1188    1.0130    1.2082 C   0  0  0  0  0  0  0  0  0  0  0  0
   -1.4264   -1.6632   -0.5772 H   0  0  0  0  0  0  0  0  0  0  0  0
   -2.2859   -0.3006    0.1602 H   0  0  0  0  0  0  0  0  0  0  0  0
   -1.3533   -0.0665   -1.3138 H   0  0  0  0  0  0  0  0  0  0  0  0
    1.6172   -0.4966   -0.7298 H   0  0  0  0  0  0  0  0  0  0  0  0
    0.9723   -2.0105   -0.1060 H   0  0  0  0  0  0  0  0  0  0  0  0
    1.8339   -0.8974    0.9700 H   0  0  0  0  0  0  0  0  0  0  0  0
   -1.0852    1.2507    1.6593 H   0  0  0  0  0  0  0  0  0  0  0  0
    0.6359    1.0009    1.9983 H   0  0  0  0  0  0  0  0  0  0  0  0
    0.1343    1.8546    0.5434 H   0  0  0  0  0  0  0  0  0  0  0  0
  1  2  1  0
  1  5  1  0
  1  6  1  0
  1  7  1  0
  2  3  1  0
  2  4  1  0
  3  8  1  0
  3  9  1  0
  3 10  1  0
  4 11  1  0
  4 12  1  0
  4 13  1  0
M  RAD  1   2   2
M  END
>  <reaction>  (2) 
rxn_1805

>  <mol_properties>  (2) 
{"1": {"label": "acceptor", "atom_type": "Cs"}}

>  <type>  (2) 
r2

$$$$

     RDKit          3D

 14 13  0  0  0  0  0  0  0  0999 V2000
   -0.7647   -1.2351   -0.0349 C   0  0  0  0  0  0  0  0  0  0  0  0
    0.0570   -0.0126    0.3624 C   0  0  0  0  0  0  0  0  0  0  0  0
    1.4161   -0.0194   -0.3307 C   0  0  0  0  0  0  0  0  0  0  0  0
   -0.7022    1.2765    0.0629 C   0  0  0  0  0  0  0  0  0  0  0  0
   -0.2387   -2.1618    0.2039 H   0  0  0  0  0  0  0  0  0  0  0  0
   -0.9625   -1.2315   -1.1108 H   0  0  0  0  0  0  0  0  0  0  0  0
   -1.7273   -1.2512    0.4806 H   0  0  0  0  0  0  0  0  0  0  0  0
    0.2295   -0.0590    1.4432 H   0  0  0  0  0  0  0  0  0  0  0  0
    1.2933    0.0260   -1.4168 H   0  0  0  0  0  0  0  0  0  0  0  0
    2.0207    0.8381   -0.0278 H   0  0  0  0  0  0  0  0  0  0  0  0
    1.9766   -0.9269   -0.0966 H   0  0  0  0  0  0  0  0  0  0  0  0
   -1.6638    1.3002    0.5800 H   0  0  0  0  0  0  0  0  0  0  0  0
   -0.8979    1.3663   -1.0096 H   0  0  0  0  0  0  0  0  0  0  0  0
   -0.1313    2.1546    0.3720 H   0  0  0  0  0  0  0  0  0  0  0  0
  1  2  1  0
  1  5  1  0
  1  6  1  0
  1  7  1  0
  2  3  1  0
  2  4  1  0
  2  8  1  0
  3  9  1  0
  3 10  1  0
  3 11  1  0
  4 12  1  0
  4 13  1  0
  4 14  1  0
M  END
>  <reaction>  (3) 
rxn_1805

>  <mol_properties>  (3) 
{"0": {"label": "a_hydrogen", "atom_type": "H0"}, "2": {"label": "acceptor", "atom_type": "Cs"}}

>  <type>  (3) 
r2h

$$$$

     RDKit          3D

 19 17  0  0  0  0  0  0  0  0999 V2000
   -0.1591   -0.9892   -0.8771 C   0  0  0  0  0  3  0  0  0  0  0  0
    1.5073   -1.4384   -1.2797 S   0  0  0  0  0  0  0  0  0  0  0  0
   -0.1586   -0.0364    0.1049 H   0  0  0  0  0  0  0  0  0  0  0  0
   -0.6163   -0.4926   -1.7293 H   0  0  0  0  0  0  0  0  0  0  0  0
   -0.7697   -1.8059   -0.5005 H   0  0  0  0  0  0  0  0  0  0  0  0
    1.8022   -2.0550   -0.1279 H   0  0  0  0  0  0  0  0  0  0  0  0
   -1.5225    1.0976    1.4910 C   0  0  0  0  0  0  0  0  0  0  0  0
   -0.0963    0.8980    1.0394 C   0  0  0  0  0  0  0  0  0  0  0  0
    0.5021    2.0815    0.3196 C   0  0  0  0  0  0  0  0  0  0  0  0
    0.8072    0.2967    2.0881 C   0  0  0  0  0  0  0  0  0  0  0  0
   -2.1596    1.4216    0.6650 H   0  0  0  0  0  0  0  0  0  0  0  0
   -1.9420    0.1774    1.9040 H   0  0  0  0  0  0  0  0  0  0  0  0
   -1.5814    1.8652    2.2722 H   0  0  0  0  0  0  0  0  0  0  0  0
    0.6545    2.9224    1.0071 H   0  0  0  0  0  0  0  0  0  0  0  0
   -0.1503    2.4285   -0.4848 H   0  0  0  0  0  0  0  0  0  0  0  0
    1.4717    1.8273   -0.1142 H   0  0  0  0  0  0  0  0  0  0  0  0
    0.3881   -0.6280    2.4922 H   0  0  0  0  0  0  0  0  0  0  0  0
    1.7946    0.0759    1.6767 H   0  0  0  0  0  0  0  0  0  0  0  0
    0.9472    0.9883    2.9279 H   0  0  0  0  0  0  0  0  0  0  0  0
  1  2  1  0
  1  4  1  0
  1  5  1  0
  2  6  1  0
  3  8  1  0
  7  8  1  0
  7 11  1  0
  7 12  1  0
  7 13  1  0
  8  9  1  0
  8 10  1  0
  9 14  1  0
  9 15  1  0
  9 16  1  0
 10 17  1  0
 10 18  1  0
 10 19  1  0
M  RAD  1   1   2
M  END
>  <reaction>  (4) 
rxn_1805

>  <mol_properties>  (4) 
{"0": {"label": "*3", "atom_type": "Cs"}, "1": {"label": "*4", "atom_type": "S2s"}, "2": {"label": "*2", "atom_type": "H0"}, "6": {"label": "*0", "atom_type": "Cs"}, "7": {"label": "*1", "atom_type": "Cs"}}

>  <type>  (4) 
ts

$$$$

     RDKit          3D

 19 17  0  0  0  0  0  0  0  0999 V2000
   -0.0615   -1.4501   -0.1295 C   0  0  0  0  0  0  0  0  0  0  0  0
   -0.0615   -1.4501   -1.9401 S   0  0  0  0  0  0  0  0  0  0  0  0
   -0.0615   -0.2343    0.3463 H   0  0  0  0  0  0  0  0  0  0  0  0
   -0.9822   -1.9442    0.1765 H   0  0  0  0  0  0  0  0  0  0  0  0
    0.7829   -2.0101    0.2670 H   0  0  0  0  0  0  0  0  0  0  0  0
    1.1088   -0.8220   -2.1065 H   0  0  0  0  0  0  0  0  0  0  0  0
   -1.3187    1.1627    1.6724 C   0  0  0  0  0  0  0  0  0  0  0  0
   -0.0615    0.9899    0.8254 C   0  0  0  0  0  3  0  0  0  0  0  0
    0.4506    2.3379    0.3269 C   0  0  0  0  0  0  0  0  0  0  0  0
    1.0220    0.2472    1.6014 C   0  0  0  0  0  0  0  0  0  0  0  0
   -2.1084    1.6679    1.1124 H   0  0  0  0  0  0  0  0  0  0  0  0
   -1.7069    0.1988    2.0080 H   0  0  0  0  0  0  0  0  0  0  0  0
   -1.1032    1.7633    2.5610 H   0  0  0  0  0  0  0  0  0  0  0  0
    0.7269    2.9788    1.1692 H   0  0  0  0  0  0  0  0  0  0  0  0
   -0.3112    2.8617   -0.2544 H   0  0  0  0  0  0  0  0  0  0  0  0
    1.3337    2.2184   -0.3044 H   0  0  0  0  0  0  0  0  0  0  0  0
    0.6708   -0.7312    1.9359 H   0  0  0  0  0  0  0  0  0  0  0  0
    1.9142    0.0947    0.9905 H   0  0  0  0  0  0  0  0  0  0  0  0
    1.3178    0.8164    2.4876 H   0  0  0  0  0  0  0  0  0  0  0  0
  1  2  1  0
  1  3  1  0
  1  4  1  0
  1  5  1  0
  2  6  1  0
  7  8  1  0
  7 11  1  0
  7 12  1  0
  7 13  1  0
  8  9  1  0
  8 10  1  0
  9 14  1  0
  9 15  1  0
  9 16  1  0
 10 17  1  0
 10 18  1  0
 10 19  1  0
M  RAD  1   8   2
M  END
>  <reaction>  (5) 
rxn_1805

>  <mol_properties>  (5) 
{"0": {"label": "*3", "atom_type": "Cs"}, "1": {"label": "*4", "atom_type": "S2s"}, "2": {"label": "*2", "atom_type": "H0"}, "6": {"label": "*0", "atom_type": "Cs"}, "7": {"label": "*1", "atom_type": "Cs"}}

>  <type>  (5) 
unop_1

>  <geom_source>  (5) 
Heuristics

$$$$

     RDKit          3D

 19 17  0  0  0  0  0  0  0  0999 V2000
    0.0458   -1.5110   -0.0607 C   0  0  0  0  0  0  0  0  0  0  0  0
    0.0458   -1.5110   -1.8714 S   0  0  0  0  0  0  0  0  0  0  0  0
    0.0458   -0.2952    0.4150 H   0  0  0  0  0  0  0  0  0  0  0  0
   -0.8749   -2.0052    0.2452 H   0  0  0  0  0  0  0  0  0  0  0  0
    0.8902   -2.0710    0.3357 H   0  0  0  0  0  0  0  0  0  0  0  0
    1.2161   -0.8829   -2.0378 H   0  0  0  0  0  0  0  0  0  0  0  0
   -0.6800    1.8244   -0.1055 C   0  0  0  0  0  0  0  0  0  0  0  0
    0.0458    0.9290    0.8941 C   0  0  0  0  0  3  0  0  0  0  0  0
    1.3165    1.6004    1.4063 C   0  0  0  0  0  0  0  0  0  0  0  0
   -0.8727    0.5445    2.0500 C   0  0  0  0  0  0  0  0  0  0  0  0
   -0.0367    2.0793   -0.9503 H   0  0  0  0  0  0  0  0  0  0  0  0
   -1.5751    1.3372   -0.4980 H   0  0  0  0  0  0  0  0  0  0  0  0
   -0.9906    2.7588    0.3712 H   0  0  0  0  0  0  0  0  0  0  0  0
    1.0745    2.5271    1.9350 H   0  0  0  0  0  0  0  0  0  0  0  0
    1.9913    1.8517    0.5854 H   0  0  0  0  0  0  0  0  0  0  0  0
    1.8560    0.9523    2.1001 H   0  0  0  0  0  0  0  0  0  0  0  0
   -1.7708    0.0371    1.6917 H   0  0  0  0  0  0  0  0  0  0  0  0
   -0.3679   -0.1203    2.7542 H   0  0  0  0  0  0  0  0  0  0  0  0
   -1.1898    1.4350    2.6007 H   0  0  0  0  0  0  0  0  0  0  0  0
  1  2  1  0
  1  3  1  0
  1  4  1  0
  1  5  1  0
  2  6  1  0
  7  8  1  0
  7 11  1  0
  7 12  1  0
  7 13  1  0
  8  9  1  0
  8 10  1  0
  9 14  1  0
  9 15  1  0
  9 16  1  0
 10 17  1  0
 10 18  1  0
 10 19  1  0
M  RAD  1   8   2
M  END
>  <reaction>  (6) 
rxn_1805

>  <mol_properties>  (6) 
{"0": {"label": "*3", "atom_type": "Cs"}, "1": {"label": "*4", "atom_type": "S2s"}, "2": {"label": "*2", "atom_type": "H0"}, "6": {"label": "*0", "atom_type": "Cs"}, "7": {"label": "*1", "atom_type": "Cs"}}

>  <type>  (6) 
unop_2

>  <geom_source>  (6) 
Heuristics

$$$$

     RDKit          3D

 19 17  0  0  0  0  0  0  0  0999 V2000
   -0.0863   -1.4923   -0.0778 C   0  0  0  0  0  0  0  0  0  0  0  0
   -0.0863   -1.4923   -1.8884 S   0  0  0  0  0  0  0  0  0  0  0  0
   -0.0863   -0.2765    0.3980 H   0  0  0  0  0  0  0  0  0  0  0  0
   -1.0070   -1.9865    0.2281 H   0  0  0  0  0  0  0  0  0  0  0  0
    0.7580   -2.0523    0.3187 H   0  0  0  0  0  0  0  0  0  0  0  0
    1.0840   -0.8642   -2.0548 H   0  0  0  0  0  0  0  0  0  0  0  0
   -0.8122    0.9268    2.2189 C   0  0  0  0  0  0  0  0  0  0  0  0
   -0.0863    0.9477    0.8770 C   0  0  0  0  0  3  0  0  0  0  0  0
   -0.3548    2.2513    0.1312 C   0  0  0  0  0  0  0  0  0  0  0  0
    1.4113    0.7232    1.0628 C   0  0  0  0  0  0  0  0  0  0  0  0
   -1.8886    1.0578    2.0901 H   0  0  0  0  0  0  0  0  0  0  0  0
   -0.6476   -0.0160    2.7447 H   0  0  0  0  0  0  0  0  0  0  0  0
   -0.4524    1.7350    2.8624 H   0  0  0  0  0  0  0  0  0  0  0  0
    0.0208    3.1049    0.7030 H   0  0  0  0  0  0  0  0  0  0  0  0
   -1.4240    2.4032   -0.0306 H   0  0  0  0  0  0  0  0  0  0  0  0
    0.1384    2.2601   -0.8431 H   0  0  0  0  0  0  0  0  0  0  0  0
    1.6111   -0.2228    1.5703 H   0  0  0  0  0  0  0  0  0  0  0  0
    1.9325    0.7080    0.1033 H   0  0  0  0  0  0  0  0  0  0  0  0
    1.8474    1.5244    1.6667 H   0  0  0  0  0  0  0  0  0  0  0  0
  1  2  1  0
  1  3  1  0
  1  4  1  0
  1  5  1  0
  2  6  1  0
  7  8  1  0
  7 11  1  0
  7 12  1  0
  7 13  1  0
  8  9  1  0
  8 10  1  0
  9 14  1  0
  9 15  1  0
  9 16  1  0
 10 17  1  0
 10 18  1  0
 10 19  1  0
M  RAD  1   8   2
M  END
>  <reaction>  (7) 
rxn_1805

>  <mol_properties>  (7) 
{"0": {"label": "*3", "atom_type": "Cs"}, "1": {"label": "*4", "atom_type": "S2s"}, "2": {"label": "*2", "atom_type": "H0"}, "6": {"label": "*0", "atom_type": "Cs"}, "7": {"label": "*1", "atom_type": "Cs"}}

>  <type>  (7) 
unop_3

>  <geom_source>  (7) 
Heuristics

$$$$

     RDKit          3D

 19 17  0  0  0  0  0  0  0  0999 V2000
   -0.0715   -1.4721   -0.1081 C   0  0  0  0  0  0  0  0  0  0  0  0
   -0.0715   -1.4721   -1.9188 S   0  0  0  0  0  0  0  0  0  0  0  0
   -0.0715   -0.2563    0.3677 H   0  0  0  0  0  0  0  0  0  0  0  0
   -0.9922   -1.9663    0.1978 H   0  0  0  0  0  0  0  0  0  0  0  0
    0.7729   -2.0321    0.2884 H   0  0  0  0  0  0  0  0  0  0  0  0
    1.0988   -0.8440   -2.0852 H   0  0  0  0  0  0  0  0  0  0  0  0
    1.1857    1.6696    0.3419 C   0  0  0  0  0  0  0  0  0  0  0  0
   -0.0715    0.9678    0.8467 C   0  0  0  0  0  3  0  0  0  0  0  0
    0.2133    0.1938    2.1303 C   0  0  0  0  0  0  0  0  0  0  0  0
   -1.2085    1.9645    1.0509 C   0  0  0  0  0  0  0  0  0  0  0  0
    1.9945    0.9574    0.1659 H   0  0  0  0  0  0  0  0  0  0  0  0
    0.9953    2.2016   -0.5926 H   0  0  0  0  0  0  0  0  0  0  0  0
    1.5383    2.4002    1.0758 H   0  0  0  0  0  0  0  0  0  0  0  0
    0.5325    0.8737    2.9256 H   0  0  0  0  0  0  0  0  0  0  0  0
    1.0068   -0.5418    1.9825 H   0  0  0  0  0  0  0  0  0  0  0  0
   -0.6757   -0.3347    2.4808 H   0  0  0  0  0  0  0  0  0  0  0  0
   -1.4368    2.5011    0.1276 H   0  0  0  0  0  0  0  0  0  0  0  0
   -2.1201    1.4641    1.3844 H   0  0  0  0  0  0  0  0  0  0  0  0
   -0.9381    2.7052    1.8091 H   0  0  0  0  0  0  0  0  0  0  0  0
  1  2  1  0
  1  3  1  0
  1  4  1  0
  1  5  1  0
  2  6  1  0
  7  8  1  0
  7 11  1  0
  7 12  1  0
  7 13  1  0
  8  9  1  0
  8 10  1  0
  9 14  1  0
  9 15  1  0
  9 16  1  0
 10 17  1  0
 10 18  1  0
 10 19  1  0
M  RAD  1   8   2
M  END
>  <reaction>  (8) 
rxn_1805

>  <mol_properties>  (8) 
{"0": {"label": "*3", "atom_type": "Cs"}, "1": {"label": "*4", "atom_type": "S2s"}, "2": {"label": "*2", "atom_type": "H0"}, "6": {"label": "*0", "atom_type": "Cs"}, "7": {"label": "*1", "atom_type": "Cs"}}

>  <type>  (8) 
unop_4

>  <geom_source>  (8) 
Heuristics

$$$$

     RDKit          3D

 19 17  0  0  0  0  0  0  0  0999 V2000
   -0.0105   -1.5305   -0.0374 C   0  0  0  0  0  0  0  0  0  0  0  0
   -0.0105   -1.5305   -1.8480 S   0  0  0  0  0  0  0  0  0  0  0  0
   -0.0105   -0.3147    0.4384 H   0  0  0  0  0  0  0  0  0  0  0  0
   -0.9312   -2.0247    0.2686 H   0  0  0  0  0  0  0  0  0  0  0  0
    0.8339   -2.0905    0.3591 H   0  0  0  0  0  0  0  0  0  0  0  0
    1.1598   -0.9024   -2.0144 H   0  0  0  0  0  0  0  0  0  0  0  0
   -0.0105    0.8177    2.4404 C   0  0  0  0  0  0  0  0  0  0  0  0
   -0.0105    0.9094    0.9175 C   0  0  0  0  0  3  0  0  0  0  0  0
   -1.2677    1.6112    0.4127 C   0  0  0  0  0  0  0  0  0  0  0  0
    1.2467    1.6113    0.4127 C   0  0  0  0  0  0  0  0  0  0  0  0
   -0.8939    0.2904    2.8064 H   0  0  0  0  0  0  0  0  0  0  0  0
    0.8729    0.2904    2.8064 H   0  0  0  0  0  0  0  0  0  0  0  0
   -0.0105    1.8172    2.8851 H   0  0  0  0  0  0  0  0  0  0  0  0
   -1.3108    2.6380    0.7877 H   0  0  0  0  0  0  0  0  0  0  0  0
   -2.1710    1.0964    0.7467 H   0  0  0  0  0  0  0  0  0  0  0  0
   -1.2876    1.6540   -0.6783 H   0  0  0  0  0  0  0  0  0  0  0  0
    2.1500    1.0965    0.7466 H   0  0  0  0  0  0  0  0  0  0  0  0
    1.2666    1.6542   -0.6783 H   0  0  0  0  0  0  0  0  0  0  0  0
    1.2898    2.6380    0.7878 H   0  0  0  0  0  0  0  0  0  0  0  0
  1  2  1  0
  1  3  1  0
  1  4  1  0
  1  5  1  0
  2  6  1  0
  7  8  1  0
  7 11  1  0
  7 12  1  0
  7 13  1  0
  8  9  1  0
  8 10  1  0
  9 14  1  0
  9 15  1  0
  9 16  1  0
 10 17  1  0
 10 18  1  0
 10 19  1  0
M  RAD  1   8   2
M  END
>  <reaction>  (9) 
rxn_1805

>  <mol_properties>  (9) 
{"0": {"label": "*3", "atom_type": "Cs"}, "1": {"label": "*4", "atom_type": "S2s"}, "2": {"label": "*2", "atom_type": "H0"}, "6": {"label": "*0", "atom_type": "Cs"}, "7": {"label": "*1", "atom_type": "Cs"}}

>  <type>  (9) 
unop_5

>  <geom_source>  (9) 
Heuristics

$$$$

     RDKit          3D

 19 17  0  0  0  0  0  0  0  0999 V2000
   -0.0241   -1.4454   -0.1395 C   0  0  0  0  0  0  0  0  0  0  0  0
   -0.0241   -1.4454   -1.9501 S   0  0  0  0  0  0  0  0  0  0  0  0
   -0.0241   -0.2296    0.3363 H   0  0  0  0  0  0  0  0  0  0  0  0
   -0.9448   -1.9395    0.1665 H   0  0  0  0  0  0  0  0  0  0  0  0
    0.8203   -2.0054    0.2570 H   0  0  0  0  0  0  0  0  0  0  0  0
    1.1462   -0.8173   -2.1165 H   0  0  0  0  0  0  0  0  0  0  0  0
    1.4275    1.4319    0.9865 C   0  0  0  0  0  0  0  0  0  0  0  0
   -0.0241    0.9946    0.8153 C   0  0  0  0  0  3  0  0  0  0  0  0
   -0.4631    0.0959    1.9675 C   0  0  0  0  0  0  0  0  0  0  0  0
   -0.9464    2.2028    0.6832 C   0  0  0  0  0  0  0  0  0  0  0  0
    2.0964    0.5712    1.0524 H   0  0  0  0  0  0  0  0  0  0  0  0
    1.7568    2.0516    0.1498 H   0  0  0  0  0  0  0  0  0  0  0  0
    1.5464    2.0177    1.9026 H   0  0  0  0  0  0  0  0  0  0  0  0
   -0.4092    0.6359    2.9174 H   0  0  0  0  0  0  0  0  0  0  0  0
    0.1758   -0.7859    2.0489 H   0  0  0  0  0  0  0  0  0  0  0  0
   -1.4924   -0.2443    1.8357 H   0  0  0  0  0  0  0  0  0  0  0  0
   -0.6547    2.8348   -0.1583 H   0  0  0  0  0  0  0  0  0  0  0  0
   -1.9834    1.8960    0.5312 H   0  0  0  0  0  0  0  0  0  0  0  0
   -0.9089    2.8151    1.5890 H   0  0  0  0  0  0  0  0  0  0  0  0
  1  2  1  0
  1  3  1  0
  1  4  1  0
  1  5  1  0
  2  6  1  0
  7  8  1  0
  7 11  1  0
  7 12  1  0
  7 13  1  0
  8  9  1  0
  8 10  1  0
  9 14  1  0
  9 15  1  0
  9 16  1  0
 10 17  1  0
 10 18  1  0
 10 19  1  0
M  RAD  1   8   2
M  END
>  <reaction>  (10) 
rxn_1805

>  <mol_properties>  (10) 
{"0": {"label": "*3", "atom_type": "Cs"}, "1": {"label": "*4", "atom_type": "S2s"}, "2": {"label": "*2", "atom_type": "H0"}, "6": {"label": "*0", "atom_type": "Cs"}, "7": {"label": "*1", "atom_type": "Cs"}}

>  <type>  (10) 
unop_6

>  <geom_source>  (10) 
Heuristics

$$$$

     RDKit          3D

 19 17  0  0  0  0  0  0  0  0999 V2000
    0.0405   -1.4501   -0.1295 C   0  0  0  0  0  0  0  0  0  0  0  0
    0.0405   -1.4501   -1.9401 S   0  0  0  0  0  0  0  0  0  0  0  0
    0.0405   -0.2343    0.3463 H   0  0  0  0  0  0  0  0  0  0  0  0
   -0.8802   -1.9442    0.1765 H   0  0  0  0  0  0  0  0  0  0  0  0
    0.8849   -2.0101    0.2670 H   0  0  0  0  0  0  0  0  0  0  0  0
    1.2108   -0.8220   -2.1065 H   0  0  0  0  0  0  0  0  0  0  0  0
    1.2977    1.1627    1.6724 C   0  0  0  0  0  0  0  0  0  0  0  0
    0.0405    0.9899    0.8253 C   0  0  0  0  0  3  0  0  0  0  0  0
   -1.0430    0.2472    1.6014 C   0  0  0  0  0  0  0  0  0  0  0  0
   -0.4716    2.3379    0.3269 C   0  0  0  0  0  0  0  0  0  0  0  0
    1.6859    0.1988    2.0080 H   0  0  0  0  0  0  0  0  0  0  0  0
    2.0874    1.6679    1.1124 H   0  0  0  0  0  0  0  0  0  0  0  0
    1.0822    1.7633    2.5610 H   0  0  0  0  0  0  0  0  0  0  0  0
   -1.3389    0.8163    2.4875 H   0  0  0  0  0  0  0  0  0  0  0  0
   -0.6917   -0.7312    1.9359 H   0  0  0  0  0  0  0  0  0  0  0  0
   -1.9351    0.0945    0.9904 H   0  0  0  0  0  0  0  0  0  0  0  0
    0.2901    2.8617   -0.2544 H   0  0  0  0  0  0  0  0  0  0  0  0
   -1.3547    2.2184   -0.3042 H   0  0  0  0  0  0  0  0  0  0  0  0
   -0.7478    2.9788    1.1693 H   0  0  0  0  0  0  0  0  0  0  0  0
  1  2  1  0
  1  3  1  0
  1  4  1  0
  1  5  1  0
  2  6  1  0
  7  8  1  0
  7 11  1  0
  7 12  1  0
  7 13  1  0
  8  9  1  0
  8 10  1  0
  9 14  1  0
  9 15  1  0
  9 16  1  0
 10 17  1  0
 10 18  1  0
 10 19  1  0
M  RAD  1   8   2
M  END
>  <reaction>  (11) 
rxn_1805

>  <mol_properties>  (11) 
{"0": {"label": "*3", "atom_type": "Cs"}, "1": {"label": "*4", "atom_type": "S2s"}, "2": {"label": "*2", "atom_type": "H0"}, "6": {"label": "*0", "atom_type": "Cs"}, "7": {"label": "*1", "atom_type": "Cs"}}

>  <type>  (11) 
unop_7

>  <geom_source>  (11) 
Heuristics

$$$$

     RDKit          3D

 19 17  0  0  0  0  0  0  0  0999 V2000
    0.0031   -1.4454   -0.1395 C   0  0  0  0  0  0  0  0  0  0  0  0
    0.0031   -1.4454   -1.9501 S   0  0  0  0  0  0  0  0  0  0  0  0
    0.0031   -0.2296    0.3363 H   0  0  0  0  0  0  0  0  0  0  0  0
   -0.9176   -1.9395    0.1665 H   0  0  0  0  0  0  0  0  0  0  0  0
    0.8475   -2.0054    0.2570 H   0  0  0  0  0  0  0  0  0  0  0  0
    1.1734   -0.8173   -2.1165 H   0  0  0  0  0  0  0  0  0  0  0  0
   -1.4485    1.4319    0.9865 C   0  0  0  0  0  0  0  0  0  0  0  0
    0.0031    0.9946    0.8153 C   0  0  0  0  0  3  0  0  0  0  0  0
    0.9254    2.2028    0.6831 C   0  0  0  0  0  0  0  0  0  0  0  0
    0.4421    0.0960    1.9675 C   0  0  0  0  0  0  0  0  0  0  0  0
   -1.7777    2.0517    0.1498 H   0  0  0  0  0  0  0  0  0  0  0  0
   -2.1174    0.5712    1.0523 H   0  0  0  0  0  0  0  0  0  0  0  0
   -1.5674    2.0177    1.9027 H   0  0  0  0  0  0  0  0  0  0  0  0
    0.8881    2.8151    1.5889 H   0  0  0  0  0  0  0  0  0  0  0  0
    0.6337    2.8347   -0.1583 H   0  0  0  0  0  0  0  0  0  0  0  0
    1.9623    1.8960    0.5310 H   0  0  0  0  0  0  0  0  0  0  0  0
   -0.1968   -0.7859    2.0489 H   0  0  0  0  0  0  0  0  0  0  0  0
    1.4715   -0.2441    1.8359 H   0  0  0  0  0  0  0  0  0  0  0  0
    0.3881    0.6360    2.9174 H   0  0  0  0  0  0  0  0  0  0  0  0
  1  2  1  0
  1  3  1  0
  1  4  1  0
  1  5  1  0
  2  6  1  0
  7  8  1  0
  7 11  1  0
  7 12  1  0
  7 13  1  0
  8  9  1  0
  8 10  1  0
  9 14  1  0
  9 15  1  0
  9 16  1  0
 10 17  1  0
 10 18  1  0
 10 19  1  0
M  RAD  1   8   2
M  END
>  <reaction>  (12) 
rxn_1805

>  <mol_properties>  (12) 
{"0": {"label": "*3", "atom_type": "Cs"}, "1": {"label": "*4", "atom_type": "S2s"}, "2": {"label": "*2", "atom_type": "H0"}, "6": {"label": "*0", "atom_type": "Cs"}, "7": {"label": "*1", "atom_type": "Cs"}}

>  <type>  (12) 
unop_8

>  <geom_source>  (12) 
Heuristics

$$$$

     RDKit          3D

 19 17  0  0  0  0  0  0  0  0999 V2000
   -0.0668   -1.5110   -0.0608 C   0  0  0  0  0  0  0  0  0  0  0  0
   -0.0668   -1.5110   -1.8714 S   0  0  0  0  0  0  0  0  0  0  0  0
   -0.0668   -0.2952    0.4150 H   0  0  0  0  0  0  0  0  0  0  0  0
   -0.9875   -2.0052    0.2452 H   0  0  0  0  0  0  0  0  0  0  0  0
    0.7776   -2.0710    0.3357 H   0  0  0  0  0  0  0  0  0  0  0  0
    1.1035   -0.8829   -2.0378 H   0  0  0  0  0  0  0  0  0  0  0  0
    0.6590    1.8244   -0.1055 C   0  0  0  0  0  0  0  0  0  0  0  0
   -0.0668    0.9290    0.8941 C   0  0  0  0  0  3  0  0  0  0  0  0
    0.8517    0.5445    2.0500 C   0  0  0  0  0  0  0  0  0  0  0  0
   -1.3374    1.6004    1.4063 C   0  0  0  0  0  0  0  0  0  0  0  0
    1.5541    1.3373   -0.4980 H   0  0  0  0  0  0  0  0  0  0  0  0
    0.0157    2.0792   -0.9504 H   0  0  0  0  0  0  0  0  0  0  0  0
    0.9695    2.7588    0.3711 H   0  0  0  0  0  0  0  0  0  0  0  0
    1.1688    1.4349    2.6008 H   0  0  0  0  0  0  0  0  0  0  0  0
    1.7499    0.0371    1.6916 H   0  0  0  0  0  0  0  0  0  0  0  0
    0.3469   -0.1204    2.7540 H   0  0  0  0  0  0  0  0  0  0  0  0
   -2.0123    1.8517    0.5854 H   0  0  0  0  0  0  0  0  0  0  0  0
   -1.8769    0.9524    2.1003 H   0  0  0  0  0  0  0  0  0  0  0  0
   -1.0954    2.5271    1.9349 H   0  0  0  0  0  0  0  0  0  0  0  0
  1  2  1  0
  1  3  1  0
  1  4  1  0
  1  5  1  0
  2  6  1  0
  7  8  1  0
  7 11  1  0
  7 12  1  0
  7 13  1  0
  8  9  1  0
  8 10  1  0
  9 14  1  0
  9 15  1  0
  9 16  1  0
 10 17  1  0
 10 18  1  0
 10 19  1  0
M  RAD  1   8   2
M  END
>  <reaction>  (13) 
rxn_1805

>  <mol_properties>  (13) 
{"0": {"label": "*3", "atom_type": "Cs"}, "1": {"label": "*4", "atom_type": "S2s"}, "2": {"label": "*2", "atom_type": "H0"}, "6": {"label": "*0", "atom_type": "Cs"}, "7": {"label": "*1", "atom_type": "Cs"}}

>  <type>  (13) 
unop_9

>  <geom_source>  (13) 
Heuristics

$$$$

     RDKit          3D

 19 17  0  0  0  0  0  0  0  0999 V2000
    0.0505   -1.4721   -0.1081 C   0  0  0  0  0  0  0  0  0  0  0  0
    0.0505   -1.4721   -1.9188 S   0  0  0  0  0  0  0  0  0  0  0  0
    0.0505   -0.2563    0.3677 H   0  0  0  0  0  0  0  0  0  0  0  0
   -0.8702   -1.9663    0.1978 H   0  0  0  0  0  0  0  0  0  0  0  0
    0.8949   -2.0321    0.2884 H   0  0  0  0  0  0  0  0  0  0  0  0
    1.2208   -0.8440   -2.0852 H   0  0  0  0  0  0  0  0  0  0  0  0
   -1.2066    1.6696    0.3419 C   0  0  0  0  0  0  0  0  0  0  0  0
    0.0505    0.9678    0.8467 C   0  0  0  0  0  3  0  0  0  0  0  0
    1.1876    1.9644    1.0508 C   0  0  0  0  0  0  0  0  0  0  0  0
   -0.2343    0.1939    2.1303 C   0  0  0  0  0  0  0  0  0  0  0  0
   -1.0163    2.2016   -0.5926 H   0  0  0  0  0  0  0  0  0  0  0  0
   -2.0155    0.9573    0.1659 H   0  0  0  0  0  0  0  0  0  0  0  0
   -1.5593    2.4002    1.0758 H   0  0  0  0  0  0  0  0  0  0  0  0
    0.9172    2.7051    1.8091 H   0  0  0  0  0  0  0  0  0  0  0  0
    1.4157    2.5011    0.1275 H   0  0  0  0  0  0  0  0  0  0  0  0
    2.0991    1.4640    1.3842 H   0  0  0  0  0  0  0  0  0  0  0  0
   -1.0277   -0.5418    1.9826 H   0  0  0  0  0  0  0  0  0  0  0  0
    0.6547   -0.3346    2.4809 H   0  0  0  0  0  0  0  0  0  0  0  0
   -0.5536    0.8738    2.9256 H   0  0  0  0  0  0  0  0  0  0  0  0
  1  2  1  0
  1  3  1  0
  1  4  1  0
  1  5  1  0
  2  6  1  0
  7  8  1  0
  7 11  1  0
  7 12  1  0
  7 13  1  0
  8  9  1  0
  8 10  1  0
  9 14  1  0
  9 15  1  0
  9 16  1  0
 10 17  1  0
 10 18  1  0
 10 19  1  0
M  RAD  1   8   2
M  END
>  <reaction>  (14) 
rxn_1805

>  <mol_properties>  (14) 
{"0": {"label": "*3", "atom_type": "Cs"}, "1": {"label": "*4", "atom_type": "S2s"}, "2": {"label": "*2", "atom_type": "H0"}, "6": {"label": "*0", "atom_type": "Cs"}, "7": {"label": "*1", "atom_type": "Cs"}}

>  <type>  (14) 
unop_10

>  <geom_source>  (14) 
Heuristics

$$$$

     RDKit          3D

 19 17  0  0  0  0  0  0  0  0999 V2000
    0.0654   -1.4923   -0.0778 C   0  0  0  0  0  0  0  0  0  0  0  0
    0.0654   -1.4923   -1.8884 S   0  0  0  0  0  0  0  0  0  0  0  0
    0.0654   -0.2765    0.3980 H   0  0  0  0  0  0  0  0  0  0  0  0
   -0.8553   -1.9865    0.2281 H   0  0  0  0  0  0  0  0  0  0  0  0
    0.9097   -2.0523    0.3187 H   0  0  0  0  0  0  0  0  0  0  0  0
    1.2357   -0.8642   -2.0548 H   0  0  0  0  0  0  0  0  0  0  0  0
    0.7912    0.9268    2.2189 C   0  0  0  0  0  0  0  0  0  0  0  0
    0.0654    0.9477    0.8770 C   0  0  0  0  0  3  0  0  0  0  0  0
   -1.4323    0.7232    1.0628 C   0  0  0  0  0  0  0  0  0  0  0  0
    0.3338    2.2513    0.1312 C   0  0  0  0  0  0  0  0  0  0  0  0
    0.6266   -0.0160    2.7447 H   0  0  0  0  0  0  0  0  0  0  0  0
    1.8677    1.0578    2.0901 H   0  0  0  0  0  0  0  0  0  0  0  0
    0.4314    1.7350    2.8624 H   0  0  0  0  0  0  0  0  0  0  0  0
   -1.8685    1.5244    1.6666 H   0  0  0  0  0  0  0  0  0  0  0  0
   -1.6320   -0.2229    1.5703 H   0  0  0  0  0  0  0  0  0  0  0  0
   -1.9535    0.7078    0.1032 H   0  0  0  0  0  0  0  0  0  0  0  0
    1.4030    2.4033   -0.0306 H   0  0  0  0  0  0  0  0  0  0  0  0
   -0.1595    2.2603   -0.8430 H   0  0  0  0  0  0  0  0  0  0  0  0
   -0.0417    3.1049    0.7031 H   0  0  0  0  0  0  0  0  0  0  0  0
  1  2  1  0
  1  3  1  0
  1  4  1  0
  1  5  1  0
  2  6  1  0
  7  8  1  0
  7 11  1  0
  7 12  1  0
  7 13  1  0
  8  9  1  0
  8 10  1  0
  9 14  1  0
  9 15  1  0
  9 16  1  0
 10 17  1  0
 10 18  1  0
 10 19  1  0
M  RAD  1   8   2
M  END
>  <reaction>  (15) 
rxn_1805

>  <mol_properties>  (15) 
{"0": {"label": "*3", "atom_type": "Cs"}, "1": {"label": "*4", "atom_type": "S2s"}, "2": {"label": "*2", "atom_type": "H0"}, "6": {"label": "*0", "atom_type": "Cs"}, "7": {"label": "*1", "atom_type": "Cs"}}

>  <type>  (15) 
unop_11

>  <geom_source>  (15) 
Heuristics

$$$$

     RDKit          3D

 19 17  0  0  0  0  0  0  0  0999 V2000
   -0.0105   -1.5305   -0.0374 C   0  0  0  0  0  0  0  0  0  0  0  0
   -0.0105   -1.5305   -1.8480 S   0  0  0  0  0  0  0  0  0  0  0  0
   -0.0105   -0.3147    0.4384 H   0  0  0  0  0  0  0  0  0  0  0  0
   -0.9312   -2.0247    0.2686 H   0  0  0  0  0  0  0  0  0  0  0  0
    0.8339   -2.0905    0.3591 H   0  0  0  0  0  0  0  0  0  0  0  0
    1.1598   -0.9024   -2.0144 H   0  0  0  0  0  0  0  0  0  0  0  0
   -0.0105    1.8757   -0.2632 C   0  0  0  0  0  0  0  0  0  0  0  0
   -0.0105    0.9094    0.9175 C   0  0  0  0  0  3  0  0  0  0  0  0
    1.2467    1.0822    1.7645 C   0  0  0  0  0  0  0  0  0  0  0  0
   -1.2676    1.0823    1.7645 C   0  0  0  0  0  0  0  0  0  0  0  0
    0.8729    1.7369   -0.8900 H   0  0  0  0  0  0  0  0  0  0  0  0
   -0.8939    1.7368   -0.8900 H   0  0  0  0  0  0  0  0  0  0  0  0
   -0.0105    2.9116    0.0886 H   0  0  0  0  0  0  0  0  0  0  0  0
    1.2899    2.0908    2.1860 H   0  0  0  0  0  0  0  0  0  0  0  0
    2.1500    0.9309    1.1698 H   0  0  0  0  0  0  0  0  0  0  0  0
    1.2666    0.3732    2.5947 H   0  0  0  0  0  0  0  0  0  0  0  0
   -2.1710    0.9308    1.1699 H   0  0  0  0  0  0  0  0  0  0  0  0
   -1.2875    0.3733    2.5949 H   0  0  0  0  0  0  0  0  0  0  0  0
   -1.3108    2.0909    2.1859 H   0  0  0  0  0  0  0  0  0  0  0  0
  1  2  1  0
  1  3  1  0
  1  4  1  0
  1  5  1  0
  2  6  1  0
  7  8  1  0
  7 11  1  0
  7 12  1  0
  7 13  1  0
  8  9  1  0
  8 10  1  0
  9 14  1  0
  9 15  1  0
  9 16  1  0
 10 17  1  0
 10 18  1  0
 10 19  1  0
M  RAD  1   8   2
M  END
>  <reaction>  (16) 
rxn_1805

>  <mol_properties>  (16) 
{"0": {"label": "*3", "atom_type": "Cs"}, "1": {"label": "*4", "atom_type": "S2s"}, "2": {"label": "*2", "atom_type": "H0"}, "6": {"label": "*0", "atom_type": "Cs"}, "7": {"label": "*1", "atom_type": "Cs"}}

>  <type>  (16) 
unop_12

>  <geom_source>  (16) 
Heuristics

$$$$

     RDKit          3D

 19 17  0  0  0  0  0  0  0  0999 V2000
    3.0921   -1.2611   -0.5064 S   0  0  0  0  0  0  0  0  0  0  0  0
   -0.4660    0.0667    0.0336 C   0  0  0  0  0  3  0  0  0  0  0  0
   -1.0435   -0.8313   -1.0643 C   0  0  0  0  0  0  0  0  0  0  0  0
   -1.0458   -0.3086    1.4005 C   0  0  0  0  0  0  0  0  0  0  0  0
   -0.7298    1.5424   -0.2796 C   0  0  0  0  0  0  0  0  0  0  0  0
    2.1134    0.2305   -0.1769 C   0  0  0  0  0  0  0  0  0  0  0  0
    0.8772   -0.1247    0.0754 H   0  0  0  0  0  0  0  0  0  0  0  0
   -2.1457   -0.7074   -1.1351 H   0  0  0  0  0  0  0  0  0  0  0  0
   -0.5878   -0.5748   -2.0441 H   0  0  0  0  0  0  0  0  0  0  0  0
   -0.8133   -1.8955   -0.8453 H   0  0  0  0  0  0  0  0  0  0  0  0
   -0.5917    0.3237    2.1927 H   0  0  0  0  0  0  0  0  0  0  0  0
   -2.1480   -0.1670    1.4130 H   0  0  0  0  0  0  0  0  0  0  0  0
   -0.8156   -1.3700    1.6327 H   0  0  0  0  0  0  0  0  0  0  0  0
   -0.2740    2.1846    0.5036 H   0  0  0  0  0  0  0  0  0  0  0  0
   -1.8213    1.7465   -0.3238 H   0  0  0  0  0  0  0  0  0  0  0  0
   -0.2724    1.8116   -1.2551 H   0  0  0  0  0  0  0  0  0  0  0  0
    1.9189    0.3148    0.9123 H   0  0  0  0  0  0  0  0  0  0  0  0
    2.6745    1.1236   -0.5210 H   0  0  0  0  0  0  0  0  0  0  0  0
    2.0789   -2.1041   -0.0122 H   0  0  0  0  0  0  0  0  0  0  0  0
  1  6  1  0
  1 19  1  0
  2  3  1  0
  2  4  1  0
  2  5  1  0
  3  8  1  0
  3  9  1  0
  3 10  1  0
  4 11  1  0
  4 12  1  0
  4 13  1  0
  5 14  1  0
  5 15  1  0
  5 16  1  0
  6  7  1  0
  6 17  1  0
  6 18  1  0
M  RAD  1   2   2
M  END
>  <reaction>  (17) 
rxn_1805

>  <mol_properties>  (17) 
{"0": {"label": "*3", "atom_type": "Cs"}, "1": {"label": "*4", "atom_type": "S2s"}, "2": {"label": "*2", "atom_type": "H0"}, "6": {"label": "*0", "atom_type": "Cs"}, "7": {"label": "*1", "atom_type": "Cs"}}

>  <type>  (17) 
unop_13

>  <geom_source>  (17) 
AutoTST

$$$$
