
     RDKit          3D

  8  7  0  0  0  0  0  0  0  0999 V2000
    0.7610    0.0250    0.0051 C   0  0  0  0  0  0  0  0  0  0  0  0
   -0.7610   -0.0250   -0.0051 C   0  0  0  0  0  0  0  0  0  0  0  0
    1.1904   -0.9237   -0.3217 H   0  0  0  0  0  0  0  0  0  0  0  0
    1.1359    0.8041   -0.6609 H   0  0  0  0  0  0  0  0  0  0  0  0
    1.1435    0.2336    1.0058 H   0  0  0  0  0  0  0  0  0  0  0  0
   -1.1435   -0.2336   -1.0058 H   0  0  0  0  0  0  0  0  0  0  0  0
   -1.1904    0.9237    0.3216 H   0  0  0  0  0  0  0  0  0  0  0  0
   -1.1359   -0.8041    0.6609 H   0  0  0  0  0  0  0  0  0  0  0  0
  1  2  1  0
  1  3  1  0
  1  4  1  0
  1  5  1  0
  2  6  1  0
  2  7  1  0
  2  8  1  0
M  END
>  <reaction>  (1) 
rxn_326

>  <mol_properties>  (1) 
{"1": {"label": "donator", "atom_type": "Cs"}, "5": {"label": "d_hydrogen", "atom_type": "H0"}}

>  <type>  (1) 
r1h

$$$$

     RDKit          3D

  6  5  0  0  0  0  0  0  0  0999 V2000
   -0.4436    0.0188   -0.1393 C   0  0  0  0  0  0  0  0  0  0  0  0
    1.0624   -0.0017   -0.1425 C   0  0  0  0  0  3  0  0  0  0  0  0
    1.7971   -0.0947    0.7691 O   0  0  0  0  0  0  0  0  0  0  0  0
   -0.8374   -0.0681    0.8758 H   0  0  0  0  0  0  0  0  0  0  0  0
   -0.7772    0.9478   -0.6020 H   0  0  0  0  0  0  0  0  0  0  0  0
   -0.8013   -0.8022   -0.7611 H   0  0  0  0  0  0  0  0  0  0  0  0
  1  2  1  0
  1  4  1  0
  1  5  1  0
  1  6  1  0
  2  3  2  0
M  RAD  1   2   2
M  END
>  <reaction>  (2) 
rxn_326

>  <mol_properties>  (2) 
{"1": {"label": "acceptor", "atom_type": "CO"}}

>  <type>  (2) 
r2

$$$$

     RDKit          3D

  7  6  0  0  0  0  0  0  0  0999 V2000
   -0.6468   -0.0443   -0.0231 C   0  0  0  0  0  0  0  0  0  0  0  0
    0.8470    0.0371    0.0688 C   0  0  0  0  0  0  0  0  0  0  0  0
    1.4866   -0.2280    1.0479 O   0  0  0  0  0  0  0  0  0  0  0  0
   -1.0466    0.9363   -0.2943 H   0  0  0  0  0  0  0  0  0  0  0  0
   -0.9229   -0.7318   -0.8269 H   0  0  0  0  0  0  0  0  0  0  0  0
   -1.0759   -0.3772    0.9198 H   0  0  0  0  0  0  0  0  0  0  0  0
    1.3584    0.3712   -0.8589 H   0  0  0  0  0  0  0  0  0  0  0  0
  1  2  1  0
  1  4  1  0
  1  5  1  0
  1  6  1  0
  2  3  2  0
  2  7  1  0
M  END
>  <reaction>  (3) 
rxn_326

>  <mol_properties>  (3) 
{"1": {"label": "acceptor", "atom_type": "CO"}, "6": {"label": "a_hydrogen", "atom_type": "H0"}}

>  <type>  (3) 
r2h

$$$$

     RDKit          3D

 14 12  0  0  0  0  0  0  0  0999 V2000
   -1.1746    1.5744    0.7976 C   0  0  0  0  0  0  0  0  0  0  0  0
   -0.1607    0.9934   -0.1459 C   0  0  0  0  0  0  0  0  0  0  0  0
    0.7413    1.5771   -0.6568 O   0  0  0  0  0  0  0  0  0  0  0  0
   -0.9913    2.6339    0.9744 H   0  0  0  0  0  0  0  0  0  0  0  0
   -2.1717    1.4253    0.3775 H   0  0  0  0  0  0  0  0  0  0  0  0
   -1.1386    1.0196    1.7376 H   0  0  0  0  0  0  0  0  0  0  0  0
    0.7797   -1.8387   -1.7051 C   0  0  0  0  0  0  0  0  0  0  0  0
   -0.3825   -1.6650   -0.7704 C   0  0  0  0  0  3  0  0  0  0  0  0
    0.6871   -1.1899   -2.5779 H   0  0  0  0  0  0  0  0  0  0  0  0
    1.7237   -1.5970   -1.2133 H   0  0  0  0  0  0  0  0  0  0  0  0
    0.8541   -2.8694   -2.0690 H   0  0  0  0  0  0  0  0  0  0  0  0
   -0.3286   -0.2722   -0.3959 H   0  0  0  0  0  0  0  0  0  0  0  0
   -0.3061   -2.1821    0.1842 H   0  0  0  0  0  0  0  0  0  0  0  0
   -1.3702   -1.7642   -1.2167 H   0  0  0  0  0  0  0  0  0  0  0  0
  1  2  1  0
  1  4  1  0
  1  5  1  0
  1  6  1  0
  2  3  2  0
  2 12  1  0
  7  8  1  0
  7  9  1  0
  7 10  1  0
  7 11  1  0
  8 13  1  0
  8 14  1  0
M  RAD  1   8   2
M  END
>  <reaction>  (4) 
rxn_326

>  <mol_properties>  (4) 
{"1": {"label": "*1", "atom_type": "CO"}, "2": {"label": "*0", "atom_type": "O2d"}, "6": {"label": "*4", "atom_type": "Cs"}, "7": {"label": "*3", "atom_type": "Cs"}, "11": {"label": "*2", "atom_type": "H0"}}

>  <type>  (4) 
ts

$$$$

     RDKit          3D

 14 12  0  0  0  0  0  0  0  0999 V2000
   -1.1691    1.2108    1.3339 C   0  0  0  0  0  0  0  0  0  0  0  0
    0.0065    0.8648    0.4709 C   0  0  0  0  0  3  0  0  0  0  0  0
    1.1387    1.1886    0.6972 O   0  0  0  0  0  0  0  0  0  0  0  0
   -0.8582    1.7969    2.1963 H   0  0  0  0  0  0  0  0  0  0  0  0
   -1.9005    1.7681    0.7427 H   0  0  0  0  0  0  0  0  0  0  0  0
   -1.6614    0.2910    1.6605 H   0  0  0  0  0  0  0  0  0  0  0  0
    0.0065   -1.5978   -2.0103 C   0  0  0  0  0  0  0  0  0  0  0  0
    0.0065   -1.5978   -0.4875 C   0  0  0  0  0  0  0  0  0  0  0  0
   -0.8744   -1.0893   -2.4061 H   0  0  0  0  0  0  0  0  0  0  0  0
    0.8873   -1.0893   -2.4061 H   0  0  0  0  0  0  0  0  0  0  0  0
    0.0064   -2.6149   -2.4061 H   0  0  0  0  0  0  0  0  0  0  0  0
    0.0065   -0.3773   -0.0125 H   0  0  0  0  0  0  0  0  0  0  0  0
    0.8873   -2.1064   -0.0916 H   0  0  0  0  0  0  0  0  0  0  0  0
   -0.8744   -2.1064   -0.0916 H   0  0  0  0  0  0  0  0  0  0  0  0
  1  2  1  0
  1  4  1  0
  1  5  1  0
  1  6  1  0
  2  3  2  0
  7  8  1  0
  7  9  1  0
  7 10  1  0
  7 11  1  0
  8 12  1  0
  8 13  1  0
  8 14  1  0
M  RAD  1   2   2
M  END
>  <reaction>  (5) 
rxn_326

>  <mol_properties>  (5) 
{"1": {"label": "*1", "atom_type": "CO"}, "2": {"label": "*0", "atom_type": "O2d"}, "6": {"label": "*4", "atom_type": "Cs"}, "7": {"label": "*3", "atom_type": "Cs"}, "11": {"label": "*2", "atom_type": "H0"}}

>  <type>  (5) 
unop_1

>  <geom_source>  (5) 
Heuristics

$$$$

     RDKit          3D

 14 12  0  0  0  0  0  0  0  0999 V2000
   -0.5870    1.7764   -0.2261 C   0  0  0  0  0  0  0  0  0  0  0  0
    0.0917    0.7579    0.6390 C   0  0  0  0  0  3  0  0  0  0  0  0
    0.3418    0.9074    1.8022 O   0  0  0  0  0  0  0  0  0  0  0  0
   -0.8238    2.6730    0.3431 H   0  0  0  0  0  0  0  0  0  0  0  0
    0.0625    2.0255   -1.0694 H   0  0  0  0  0  0  0  0  0  0  0  0
   -1.4991    1.3443   -0.6462 H   0  0  0  0  0  0  0  0  0  0  0  0
    0.0917   -1.7047   -1.8423 C   0  0  0  0  0  0  0  0  0  0  0  0
    0.0917   -1.7047   -0.3195 C   0  0  0  0  0  0  0  0  0  0  0  0
   -0.7891   -1.1962   -2.2381 H   0  0  0  0  0  0  0  0  0  0  0  0
    0.9726   -1.1962   -2.2381 H   0  0  0  0  0  0  0  0  0  0  0  0
    0.0917   -2.7218   -2.2381 H   0  0  0  0  0  0  0  0  0  0  0  0
    0.0917   -0.4842    0.1556 H   0  0  0  0  0  0  0  0  0  0  0  0
    0.9726   -2.2133    0.0764 H   0  0  0  0  0  0  0  0  0  0  0  0
   -0.7891   -2.2133    0.0764 H   0  0  0  0  0  0  0  0  0  0  0  0
  1  2  1  0
  1  4  1  0
  1  5  1  0
  1  6  1  0
  2  3  2  0
  7  8  1  0
  7  9  1  0
  7 10  1  0
  7 11  1  0
  8 12  1  0
  8 13  1  0
  8 14  1  0
M  RAD  1   2   2
M  END
>  <reaction>  (6) 
rxn_326

>  <mol_properties>  (6) 
{"1": {"label": "*1", "atom_type": "CO"}, "2": {"label": "*0", "atom_type": "O2d"}, "6": {"label": "*4", "atom_type": "Cs"}, "7": {"label": "*3", "atom_type": "Cs"}, "11": {"label": "*2", "atom_type": "H0"}}

>  <type>  (6) 
unop_2

>  <geom_source>  (6) 
Heuristics

$$$$

     RDKit          3D

 14 12  0  0  0  0  0  0  0  0999 V2000
   -0.7342    0.9960    1.8296 C   0  0  0  0  0  0  0  0  0  0  0  0
   -0.0555    0.8302    0.5036 C   0  0  0  0  0  3  0  0  0  0  0  0
    0.8699    1.4909    0.1226 O   0  0  0  0  0  0  0  0  0  0  0  0
   -0.2744    1.7982    2.4031 H   0  0  0  0  0  0  0  0  0  0  0  0
   -1.7949    1.2067    1.6693 H   0  0  0  0  0  0  0  0  0  0  0  0
   -0.6789    0.0557    2.3844 H   0  0  0  0  0  0  0  0  0  0  0  0
   -0.0555   -1.6324   -1.9777 C   0  0  0  0  0  0  0  0  0  0  0  0
   -0.0555   -1.6324   -0.4549 C   0  0  0  0  0  0  0  0  0  0  0  0
   -0.9363   -1.1239   -2.3735 H   0  0  0  0  0  0  0  0  0  0  0  0
    0.8253   -1.1239   -2.3735 H   0  0  0  0  0  0  0  0  0  0  0  0
   -0.0555   -2.6495   -2.3735 H   0  0  0  0  0  0  0  0  0  0  0  0
   -0.0555   -0.4119    0.0201 H   0  0  0  0  0  0  0  0  0  0  0  0
    0.8253   -2.1410   -0.0590 H   0  0  0  0  0  0  0  0  0  0  0  0
   -0.9363   -2.1410   -0.0590 H   0  0  0  0  0  0  0  0  0  0  0  0
  1  2  1  0
  1  4  1  0
  1  5  1  0
  1  6  1  0
  2  3  2  0
  7  8  1  0
  7  9  1  0
  7 10  1  0
  7 11  1  0
  8 12  1  0
  8 13  1  0
  8 14  1  0
M  RAD  1   2   2
M  END
>  <reaction>  (7) 
rxn_326

>  <mol_properties>  (7) 
{"1": {"label": "*1", "atom_type": "CO"}, "2": {"label": "*0", "atom_type": "O2d"}, "6": {"label": "*4", "atom_type": "Cs"}, "7": {"label": "*3", "atom_type": "Cs"}, "11": {"label": "*2", "atom_type": "H0"}}

>  <type>  (7) 
unop_3

>  <geom_source>  (7) 
Heuristics

$$$$

     RDKit          3D

 14 12  0  0  0  0  0  0  0  0999 V2000
    1.0505    1.6454    0.1640 C   0  0  0  0  0  0  0  0  0  0  0  0
   -0.1251    0.8071    0.5660 C   0  0  0  0  0  3  0  0  0  0  0  0
   -0.7130    0.9092    1.6062 O   0  0  0  0  0  0  0  0  0  0  0  0
    1.3009    2.3617    0.9437 H   0  0  0  0  0  0  0  0  0  0  0  0
    1.9055    0.9955   -0.0401 H   0  0  0  0  0  0  0  0  0  0  0  0
    0.8206    2.1676   -0.7684 H   0  0  0  0  0  0  0  0  0  0  0  0
   -0.1251   -1.6556   -1.9152 C   0  0  0  0  0  0  0  0  0  0  0  0
   -0.1251   -1.6556   -0.3924 C   0  0  0  0  0  0  0  0  0  0  0  0
   -1.0059   -1.1470   -2.3110 H   0  0  0  0  0  0  0  0  0  0  0  0
    0.7558   -1.1470   -2.3110 H   0  0  0  0  0  0  0  0  0  0  0  0
   -0.1251   -2.6727   -2.3110 H   0  0  0  0  0  0  0  0  0  0  0  0
   -0.1251   -0.4350    0.0826 H   0  0  0  0  0  0  0  0  0  0  0  0
    0.7557   -2.1641    0.0035 H   0  0  0  0  0  0  0  0  0  0  0  0
   -1.0059   -2.1641    0.0035 H   0  0  0  0  0  0  0  0  0  0  0  0
  1  2  1  0
  1  4  1  0
  1  5  1  0
  1  6  1  0
  2  3  2  0
  7  8  1  0
  7  9  1  0
  7 10  1  0
  7 11  1  0
  8 12  1  0
  8 13  1  0
  8 14  1  0
M  RAD  1   2   2
M  END
>  <reaction>  (8) 
rxn_326

>  <mol_properties>  (8) 
{"1": {"label": "*1", "atom_type": "CO"}, "2": {"label": "*0", "atom_type": "O2d"}, "6": {"label": "*4", "atom_type": "Cs"}, "7": {"label": "*3", "atom_type": "Cs"}, "11": {"label": "*2", "atom_type": "H0"}}

>  <type>  (8) 
unop_4

>  <geom_source>  (8) 
Heuristics

$$$$

     RDKit          3D

 14 12  0  0  0  0  0  0  0  0999 V2000
    0.0000    0.8838    2.0423 C   0  0  0  0  0  0  0  0  0  0  0  0
    0.0000    0.7840    0.5469 C   0  0  0  0  0  3  0  0  0  0  0  0
   -0.0000    1.7219   -0.2003 O   0  0  0  0  0  0  0  0  0  0  0  0
    0.0000    1.9239    2.3617 H   0  0  0  0  0  0  0  0  0  0  0  0
   -0.8777    0.3671    2.4395 H   0  0  0  0  0  0  0  0  0  0  0  0
    0.8777    0.3671    2.4395 H   0  0  0  0  0  0  0  0  0  0  0  0
    0.0000   -1.6787   -1.9344 C   0  0  0  0  0  0  0  0  0  0  0  0
    0.0000   -1.6787   -0.4116 C   0  0  0  0  0  0  0  0  0  0  0  0
   -0.8808   -1.1701   -2.3302 H   0  0  0  0  0  0  0  0  0  0  0  0
    0.8808   -1.1701   -2.3302 H   0  0  0  0  0  0  0  0  0  0  0  0
   -0.0000   -2.6958   -2.3302 H   0  0  0  0  0  0  0  0  0  0  0  0
    0.0000   -0.4581    0.0634 H   0  0  0  0  0  0  0  0  0  0  0  0
    0.8808   -2.1872   -0.0157 H   0  0  0  0  0  0  0  0  0  0  0  0
   -0.8808   -2.1872   -0.0157 H   0  0  0  0  0  0  0  0  0  0  0  0
  1  2  1  0
  1  4  1  0
  1  5  1  0
  1  6  1  0
  2  3  2  0
  7  8  1  0
  7  9  1  0
  7 10  1  0
  7 11  1  0
  8 12  1  0
  8 13  1  0
  8 14  1  0
M  RAD  1   2   2
M  END
>  <reaction>  (9) 
rxn_326

>  <mol_properties>  (9) 
{"1": {"label": "*1", "atom_type": "CO"}, "2": {"label": "*0", "atom_type": "O2d"}, "6": {"label": "*4", "atom_type": "Cs"}, "7": {"label": "*3", "atom_type": "Cs"}, "11": {"label": "*2", "atom_type": "H0"}}

>  <type>  (9) 
unop_5

>  <geom_source>  (9) 
Heuristics

$$$$

     RDKit          3D

 14 12  0  0  0  0  0  0  0  0999 V2000
    1.2700    1.4434    0.7278 C   0  0  0  0  0  0  0  0  0  0  0  0
   -0.0874    0.8512    0.4973 C   0  0  0  0  0  3  0  0  0  0  0  0
   -1.0278    0.9940    1.2276 O   0  0  0  0  0  0  0  0  0  0  0  0
    1.2895    2.0222    1.6489 H   0  0  0  0  0  0  0  0  0  0  0  0
    2.0121    0.6418    0.7701 H   0  0  0  0  0  0  0  0  0  0  0  0
    1.5373    2.0772   -0.1218 H   0  0  0  0  0  0  0  0  0  0  0  0
   -0.0874   -1.6114   -1.9839 C   0  0  0  0  0  0  0  0  0  0  0  0
   -0.0874   -1.6114   -0.4611 C   0  0  0  0  0  0  0  0  0  0  0  0
   -0.9683   -1.1028   -2.3797 H   0  0  0  0  0  0  0  0  0  0  0  0
    0.7934   -1.1028   -2.3797 H   0  0  0  0  0  0  0  0  0  0  0  0
   -0.0874   -2.6285   -2.3797 H   0  0  0  0  0  0  0  0  0  0  0  0
   -0.0874   -0.3909    0.0139 H   0  0  0  0  0  0  0  0  0  0  0  0
    0.7934   -2.1200   -0.0652 H   0  0  0  0  0  0  0  0  0  0  0  0
   -0.9683   -2.1200   -0.0652 H   0  0  0  0  0  0  0  0  0  0  0  0
  1  2  1  0
  1  4  1  0
  1  5  1  0
  1  6  1  0
  2  3  2  0
  7  8  1  0
  7  9  1  0
  7 10  1  0
  7 11  1  0
  8 12  1  0
  8 13  1  0
  8 14  1  0
M  RAD  1   2   2
M  END
>  <reaction>  (10) 
rxn_326

>  <mol_properties>  (10) 
{"1": {"label": "*1", "atom_type": "CO"}, "2": {"label": "*0", "atom_type": "O2d"}, "6": {"label": "*4", "atom_type": "Cs"}, "7": {"label": "*3", "atom_type": "Cs"}, "11": {"label": "*2", "atom_type": "H0"}}

>  <type>  (10) 
unop_6

>  <geom_source>  (10) 
Heuristics

$$$$

     RDKit          3D

 14 12  0  0  0  0  0  0  0  0999 V2000
    1.1691    1.2108    1.3339 C   0  0  0  0  0  0  0  0  0  0  0  0
   -0.0065    0.8648    0.4709 C   0  0  0  0  0  3  0  0  0  0  0  0
   -1.1387    1.1886    0.6972 O   0  0  0  0  0  0  0  0  0  0  0  0
    0.8582    1.7969    2.1962 H   0  0  0  0  0  0  0  0  0  0  0  0
    1.6614    0.2910    1.6605 H   0  0  0  0  0  0  0  0  0  0  0  0
    1.9005    1.7681    0.7427 H   0  0  0  0  0  0  0  0  0  0  0  0
   -0.0065   -1.5978   -2.0103 C   0  0  0  0  0  0  0  0  0  0  0  0
   -0.0065   -1.5978   -0.4875 C   0  0  0  0  0  0  0  0  0  0  0  0
   -0.8873   -1.0893   -2.4061 H   0  0  0  0  0  0  0  0  0  0  0  0
    0.8744   -1.0893   -2.4061 H   0  0  0  0  0  0  0  0  0  0  0  0
   -0.0065   -2.6149   -2.4061 H   0  0  0  0  0  0  0  0  0  0  0  0
   -0.0065   -0.3773   -0.0125 H   0  0  0  0  0  0  0  0  0  0  0  0
    0.8744   -2.1064   -0.0916 H   0  0  0  0  0  0  0  0  0  0  0  0
   -0.8873   -2.1064   -0.0916 H   0  0  0  0  0  0  0  0  0  0  0  0
  1  2  1  0
  1  4  1  0
  1  5  1  0
  1  6  1  0
  2  3  2  0
  7  8  1  0
  7  9  1  0
  7 10  1  0
  7 11  1  0
  8 12  1  0
  8 13  1  0
  8 14  1  0
M  RAD  1   2   2
M  END
>  <reaction>  (11) 
rxn_326

>  <mol_properties>  (11) 
{"1": {"label": "*1", "atom_type": "CO"}, "2": {"label": "*0", "atom_type": "O2d"}, "6": {"label": "*4", "atom_type": "Cs"}, "7": {"label": "*3", "atom_type": "Cs"}, "11": {"label": "*2", "atom_type": "H0"}}

>  <type>  (11) 
unop_7

>  <geom_source>  (11) 
Heuristics

$$$$

     RDKit          3D

 14 12  0  0  0  0  0  0  0  0999 V2000
   -1.2700    1.4434    0.7278 C   0  0  0  0  0  0  0  0  0  0  0  0
    0.0874    0.8512    0.4973 C   0  0  0  0  0  3  0  0  0  0  0  0
    1.0278    0.9940    1.2276 O   0  0  0  0  0  0  0  0  0  0  0  0
   -1.2895    2.0222    1.6489 H   0  0  0  0  0  0  0  0  0  0  0  0
   -1.5373    2.0772   -0.1218 H   0  0  0  0  0  0  0  0  0  0  0  0
   -2.0121    0.6418    0.7701 H   0  0  0  0  0  0  0  0  0  0  0  0
    0.0874   -1.6114   -1.9839 C   0  0  0  0  0  0  0  0  0  0  0  0
    0.0874   -1.6114   -0.4611 C   0  0  0  0  0  0  0  0  0  0  0  0
   -0.7934   -1.1028   -2.3797 H   0  0  0  0  0  0  0  0  0  0  0  0
    0.9683   -1.1028   -2.3797 H   0  0  0  0  0  0  0  0  0  0  0  0
    0.0874   -2.6285   -2.3797 H   0  0  0  0  0  0  0  0  0  0  0  0
    0.0874   -0.3909    0.0139 H   0  0  0  0  0  0  0  0  0  0  0  0
    0.9683   -2.1200   -0.0652 H   0  0  0  0  0  0  0  0  0  0  0  0
   -0.7934   -2.1200   -0.0652 H   0  0  0  0  0  0  0  0  0  0  0  0
  1  2  1  0
  1  4  1  0
  1  5  1  0
  1  6  1  0
  2  3  2  0
  7  8  1  0
  7  9  1  0
  7 10  1  0
  7 11  1  0
  8 12  1  0
  8 13  1  0
  8 14  1  0
M  RAD  1   2   2
M  END
>  <reaction>  (12) 
rxn_326

>  <mol_properties>  (12) 
{"1": {"label": "*1", "atom_type": "CO"}, "2": {"label": "*0", "atom_type": "O2d"}, "6": {"label": "*4", "atom_type": "Cs"}, "7": {"label": "*3", "atom_type": "Cs"}, "11": {"label": "*2", "atom_type": "H0"}}

>  <type>  (12) 
unop_8

>  <geom_source>  (12) 
Heuristics

$$$$

     RDKit          3D

 14 12  0  0  0  0  0  0  0  0999 V2000
    0.5870    1.7764   -0.2261 C   0  0  0  0  0  0  0  0  0  0  0  0
   -0.0917    0.7579    0.6390 C   0  0  0  0  0  3  0  0  0  0  0  0
   -0.3418    0.9074    1.8022 O   0  0  0  0  0  0  0  0  0  0  0  0
    0.8238    2.6730    0.3431 H   0  0  0  0  0  0  0  0  0  0  0  0
    1.4991    1.3443   -0.6462 H   0  0  0  0  0  0  0  0  0  0  0  0
   -0.0625    2.0255   -1.0695 H   0  0  0  0  0  0  0  0  0  0  0  0
   -0.0917   -1.7047   -1.8423 C   0  0  0  0  0  0  0  0  0  0  0  0
   -0.0917   -1.7047   -0.3195 C   0  0  0  0  0  0  0  0  0  0  0  0
   -0.9725   -1.1962   -2.2381 H   0  0  0  0  0  0  0  0  0  0  0  0
    0.7891   -1.1962   -2.2381 H   0  0  0  0  0  0  0  0  0  0  0  0
   -0.0917   -2.7218   -2.2381 H   0  0  0  0  0  0  0  0  0  0  0  0
   -0.0917   -0.4842    0.1556 H   0  0  0  0  0  0  0  0  0  0  0  0
    0.7891   -2.2133    0.0764 H   0  0  0  0  0  0  0  0  0  0  0  0
   -0.9726   -2.2133    0.0764 H   0  0  0  0  0  0  0  0  0  0  0  0
  1  2  1  0
  1  4  1  0
  1  5  1  0
  1  6  1  0
  2  3  2  0
  7  8  1  0
  7  9  1  0
  7 10  1  0
  7 11  1  0
  8 12  1  0
  8 13  1  0
  8 14  1  0
M  RAD  1   2   2
M  END
>  <reaction>  (13) 
rxn_326

>  <mol_properties>  (13) 
{"1": {"label": "*1", "atom_type": "CO"}, "2": {"label": "*0", "atom_type": "O2d"}, "6": {"label": "*4", "atom_type": "Cs"}, "7": {"label": "*3", "atom_type": "Cs"}, "11": {"label": "*2", "atom_type": "H0"}}

>  <type>  (13) 
unop_9

>  <geom_source>  (13) 
Heuristics

$$$$

     RDKit          3D

 14 12  0  0  0  0  0  0  0  0999 V2000
   -1.0505    1.6454    0.1640 C   0  0  0  0  0  0  0  0  0  0  0  0
    0.1251    0.8071    0.5660 C   0  0  0  0  0  3  0  0  0  0  0  0
    0.7130    0.9092    1.6062 O   0  0  0  0  0  0  0  0  0  0  0  0
   -1.3010    2.3617    0.9438 H   0  0  0  0  0  0  0  0  0  0  0  0
   -0.8205    2.1676   -0.7684 H   0  0  0  0  0  0  0  0  0  0  0  0
   -1.9055    0.9955   -0.0401 H   0  0  0  0  0  0  0  0  0  0  0  0
    0.1251   -1.6556   -1.9152 C   0  0  0  0  0  0  0  0  0  0  0  0
    0.1251   -1.6556   -0.3924 C   0  0  0  0  0  0  0  0  0  0  0  0
   -0.7557   -1.1470   -2.3110 H   0  0  0  0  0  0  0  0  0  0  0  0
    1.0059   -1.1470   -2.3110 H   0  0  0  0  0  0  0  0  0  0  0  0
    0.1251   -2.6727   -2.3110 H   0  0  0  0  0  0  0  0  0  0  0  0
    0.1251   -0.4350    0.0826 H   0  0  0  0  0  0  0  0  0  0  0  0
    1.0059   -2.1641    0.0035 H   0  0  0  0  0  0  0  0  0  0  0  0
   -0.7557   -2.1641    0.0035 H   0  0  0  0  0  0  0  0  0  0  0  0
  1  2  1  0
  1  4  1  0
  1  5  1  0
  1  6  1  0
  2  3  2  0
  7  8  1  0
  7  9  1  0
  7 10  1  0
  7 11  1  0
  8 12  1  0
  8 13  1  0
  8 14  1  0
M  RAD  1   2   2
M  END
>  <reaction>  (14) 
rxn_326

>  <mol_properties>  (14) 
{"1": {"label": "*1", "atom_type": "CO"}, "2": {"label": "*0", "atom_type": "O2d"}, "6": {"label": "*4", "atom_type": "Cs"}, "7": {"label": "*3", "atom_type": "Cs"}, "11": {"label": "*2", "atom_type": "H0"}}

>  <type>  (14) 
unop_10

>  <geom_source>  (14) 
Heuristics

$$$$

     RDKit          3D

 14 12  0  0  0  0  0  0  0  0999 V2000
    0.7342    0.9960    1.8296 C   0  0  0  0  0  0  0  0  0  0  0  0
    0.0555    0.8302    0.5036 C   0  0  0  0  0  3  0  0  0  0  0  0
   -0.8699    1.4909    0.1226 O   0  0  0  0  0  0  0  0  0  0  0  0
    0.2745    1.7982    2.4031 H   0  0  0  0  0  0  0  0  0  0  0  0
    0.6788    0.0557    2.3845 H   0  0  0  0  0  0  0  0  0  0  0  0
    1.7949    1.2066    1.6693 H   0  0  0  0  0  0  0  0  0  0  0  0
    0.0555   -1.6324   -1.9777 C   0  0  0  0  0  0  0  0  0  0  0  0
    0.0555   -1.6324   -0.4549 C   0  0  0  0  0  0  0  0  0  0  0  0
   -0.8253   -1.1239   -2.3735 H   0  0  0  0  0  0  0  0  0  0  0  0
    0.9363   -1.1239   -2.3735 H   0  0  0  0  0  0  0  0  0  0  0  0
    0.0555   -2.6495   -2.3735 H   0  0  0  0  0  0  0  0  0  0  0  0
    0.0555   -0.4119    0.0201 H   0  0  0  0  0  0  0  0  0  0  0  0
    0.9363   -2.1410   -0.0590 H   0  0  0  0  0  0  0  0  0  0  0  0
   -0.8253   -2.1410   -0.0590 H   0  0  0  0  0  0  0  0  0  0  0  0
  1  2  1  0
  1  4  1  0
  1  5  1  0
  1  6  1  0
  2  3  2  0
  7  8  1  0
  7  9  1  0
  7 10  1  0
  7 11  1  0
  8 12  1  0
  8 13  1  0
  8 14  1  0
M  RAD  1   2   2
M  END
>  <reaction>  (15) 
rxn_326

>  <mol_properties>  (15) 
{"1": {"label": "*1", "atom_type": "CO"}, "2": {"label": "*0", "atom_type": "O2d"}, "6": {"label": "*4", "atom_type": "Cs"}, "7": {"label": "*3", "atom_type": "Cs"}, "11": {"label": "*2", "atom_type": "H0"}}

>  <type>  (15) 
unop_11

>  <geom_source>  (15) 
Heuristics

$$$$

     RDKit          3D

 14 12  0  0  0  0  0  0  0  0999 V2000
   -0.0000    1.8202   -0.3638 C   0  0  0  0  0  0  0  0  0  0  0  0
   -0.0000    0.7357    0.6708 C   0  0  0  0  0  3  0  0  0  0  0  0
    0.0000    0.9219    1.8554 O   0  0  0  0  0  0  0  0  0  0  0  0
   -0.0000    2.8026    0.1040 H   0  0  0  0  0  0  0  0  0  0  0  0
    0.8777    1.7080   -1.0057 H   0  0  0  0  0  0  0  0  0  0  0  0
   -0.8777    1.7079   -1.0057 H   0  0  0  0  0  0  0  0  0  0  0  0
   -0.0000   -1.7269   -1.8104 C   0  0  0  0  0  0  0  0  0  0  0  0
   -0.0000   -1.7269   -0.2876 C   0  0  0  0  0  0  0  0  0  0  0  0
   -0.8808   -1.2184   -2.2063 H   0  0  0  0  0  0  0  0  0  0  0  0
    0.8808   -1.2184   -2.2063 H   0  0  0  0  0  0  0  0  0  0  0  0
   -0.0000   -2.7440   -2.2063 H   0  0  0  0  0  0  0  0  0  0  0  0
   -0.0000   -0.5064    0.1874 H   0  0  0  0  0  0  0  0  0  0  0  0
    0.8808   -2.2355    0.1082 H   0  0  0  0  0  0  0  0  0  0  0  0
   -0.8808   -2.2355    0.1082 H   0  0  0  0  0  0  0  0  0  0  0  0
  1  2  1  0
  1  4  1  0
  1  5  1  0
  1  6  1  0
  2  3  2  0
  7  8  1  0
  7  9  1  0
  7 10  1  0
  7 11  1  0
  8 12  1  0
  8 13  1  0
  8 14  1  0
M  RAD  1   2   2
M  END
>  <reaction>  (16) 
rxn_326

>  <mol_properties>  (16) 
{"1": {"label": "*1", "atom_type": "CO"}, "2": {"label": "*0", "atom_type": "O2d"}, "6": {"label": "*4", "atom_type": "Cs"}, "7": {"label": "*3", "atom_type": "Cs"}, "11": {"label": "*2", "atom_type": "H0"}}

>  <type>  (16) 
unop_12

>  <geom_source>  (16) 
Heuristics

$$$$

     RDKit          3D

 14 12  0  0  0  0  0  0  0  0999 V2000
    1.6352   -1.7705   -0.8858 O   0  0  0  0  0  0  0  0  0  0  0  0
    2.2212    0.1541    0.3398 C   0  0  0  0  0  0  0  0  0  0  0  0
   -1.8824    0.8040    0.1492 C   0  0  0  0  0  0  0  0  0  0  0  0
   -1.3157   -0.5163   -0.3391 C   0  0  0  0  0  0  0  0  0  0  0  0
    1.2662   -0.7048   -0.4197 C   0  0  0  0  0  3  0  0  0  0  0  0
    3.0728    0.4377   -0.3134 H   0  0  0  0  0  0  0  0  0  0  0  0
    1.7021    1.0737    0.6804 H   0  0  0  0  0  0  0  0  0  0  0  0
    2.6014   -0.3981    1.2246 H   0  0  0  0  0  0  0  0  0  0  0  0
   -1.9192    1.5269   -0.6922 H   0  0  0  0  0  0  0  0  0  0  0  0
   -2.9076    0.6516    0.5477 H   0  0  0  0  0  0  0  0  0  0  0  0
   -1.2337    1.2133    0.9513 H   0  0  0  0  0  0  0  0  0  0  0  0
   -0.0183   -0.3007   -0.5939 H   0  0  0  0  0  0  0  0  0  0  0  0
   -1.2674   -1.2426    0.4994 H   0  0  0  0  0  0  0  0  0  0  0  0
   -1.9547   -0.9283   -1.1483 H   0  0  0  0  0  0  0  0  0  0  0  0
  1  5  2  0
  2  5  1  0
  2  6  1  0
  2  7  1  0
  2  8  1  0
  3  4  1  0
  3  9  1  0
  3 10  1  0
  3 11  1  0
  4 12  1  0
  4 13  1  0
  4 14  1  0
M  RAD  1   5   2
M  END
>  <reaction>  (17) 
rxn_326

>  <mol_properties>  (17) 
{"1": {"label": "*1", "atom_type": "CO"}, "2": {"label": "*0", "atom_type": "O2d"}, "6": {"label": "*4", "atom_type": "Cs"}, "7": {"label": "*3", "atom_type": "Cs"}, "11": {"label": "*2", "atom_type": "H0"}}

>  <type>  (17) 
unop_13

>  <geom_source>  (17) 
AutoTST

$$$$

     RDKit          3D

 14 12  0  0  0  0  0  0  0  0999 V2000
   -0.5870    1.7764   -0.2261 C   0  0  0  0  0  0  0  0  0  0  0  0
    0.0917    0.7579    0.6390 C   0  0  0  0  0  3  0  0  0  0  0  0
    0.3418    0.9074    1.8022 O   0  0  0  0  0  0  0  0  0  0  0  0
   -0.8238    2.6730    0.3431 H   0  0  0  0  0  0  0  0  0  0  0  0
    0.0625    2.0255   -1.0694 H   0  0  0  0  0  0  0  0  0  0  0  0
   -1.4991    1.3443   -0.6462 H   0  0  0  0  0  0  0  0  0  0  0  0
    0.0917   -1.7047   -1.8422 C   0  0  0  0  0  0  0  0  0  0  0  0
    0.0917   -1.7047   -0.3195 C   0  0  0  0  0  0  0  0  0  0  0  0
   -0.7891   -1.1962   -2.2381 H   0  0  0  0  0  0  0  0  0  0  0  0
    0.9726   -1.1962   -2.2381 H   0  0  0  0  0  0  0  0  0  0  0  0
    0.0917   -2.7218   -2.2381 H   0  0  0  0  0  0  0  0  0  0  0  0
    0.0917   -0.4842    0.1555 H   0  0  0  0  0  0  0  0  0  0  0  0
    0.9726   -2.2133    0.0764 H   0  0  0  0  0  0  0  0  0  0  0  0
   -0.7891   -2.2133    0.0764 H   0  0  0  0  0  0  0  0  0  0  0  0
  1  2  1  0
  1  4  1  0
  1  5  1  0
  1  6  1  0
  2  3  2  0
  7  8  1  0
  7  9  1  0
  7 10  1  0
  7 11  1  0
  8 12  1  0
  8 13  1  0
  8 14  1  0
M  RAD  1   2   2
M  END
>  <reaction>  (18) 
rxn_326

>  <mol_properties>  (18) 
{"1": {"label": "*1", "atom_type": "CO"}, "2": {"label": "*0", "atom_type": "O2d"}, "6": {"label": "*4", "atom_type": "Cs"}, "7": {"label": "*3", "atom_type": "Cs"}, "11": {"label": "*2", "atom_type": "H0"}}

>  <type>  (18) 
unop_14

>  <geom_source>  (18) 
gaussian_log

$$$$
