
     RDKit          3D

  6  5  0  0  0  0  0  0  0  0999 V2000
    0.6594    0.0438   -0.0050 C   0  0  0  0  0  0  0  0  0  0  0  0
   -0.6594   -0.0438    0.0050 C   0  0  0  0  0  0  0  0  0  0  0  0
    1.1706    0.8681   -0.4881 H   0  0  0  0  0  0  0  0  0  0  0  0
    1.2824   -0.7051    0.4696 H   0  0  0  0  0  0  0  0  0  0  0  0
   -1.2824    0.7051   -0.4696 H   0  0  0  0  0  0  0  0  0  0  0  0
   -1.1706   -0.8681    0.4881 H   0  0  0  0  0  0  0  0  0  0  0  0
  1  2  2  3
  1  3  1  0
  1  4  1  0
  2  5  1  0
  2  6  1  0
M  END
>  <reaction>  (1) 
rxn_1589

>  <mol_properties>  (1) 
{"1": {"label": "donator", "atom_type": "Cd"}, "4": {"label": "d_hydrogen", "atom_type": "H0"}}

>  <type>  (1) 
r1h

$$$$

     RDKit          3D

  6  5  0  0  0  0  0  0  0  0999 V2000
   -0.7309   -0.0987    0.0327 C   0  0  0  0  0  0  0  0  0  0  0  0
    0.6208    0.0065   -0.0096 C   0  0  0  0  0  0  0  0  0  0  0  0
    1.6572   -1.2972    0.2837 S   0  0  0  0  0  1  0  0  0  0  0  0
   -1.3651    0.7588   -0.1608 H   0  0  0  0  0  0  0  0  0  0  0  0
   -1.2044   -1.0453    0.2616 H   0  0  0  0  0  0  0  0  0  0  0  0
    1.0609    0.9725   -0.2426 H   0  0  0  0  0  0  0  0  0  0  0  0
  1  2  2  3
  1  4  1  0
  1  5  1  0
  2  3  1  0
  2  6  1  0
M  RAD  1   3   2
M  END
>  <reaction>  (2) 
rxn_1589

>  <mol_properties>  (2) 
{"0": {"label": "acceptor", "atom_type": "Cs"}}

>  <type>  (2) 
r2

$$$$

     RDKit          3D

  7  6  0  0  0  0  0  0  0  0999 V2000
   -0.6782    0.0507    0.0301 C   0  0  0  0  0  0  0  0  0  0  0  0
    0.8092    0.0996    0.0213 C   0  0  0  0  0  0  0  0  0  0  0  0
    1.7473    0.7521    1.1507 S   0  0  0  0  0  0  0  0  0  0  0  0
   -1.0667    0.5456   -0.8653 H   0  0  0  0  0  0  0  0  0  0  0  0
   -1.0112   -0.9904   -0.0239 H   0  0  0  0  0  0  0  0  0  0  0  0
   -1.0920    0.5225    0.9188 H   0  0  0  0  0  0  0  0  0  0  0  0
    1.2740   -0.3620   -0.8520 H   0  0  0  0  0  0  0  0  0  0  0  0
  1  2  1  0
  1  4  1  0
  1  5  1  0
  1  6  1  0
  2  3  2  0
  2  7  1  0
M  END
>  <reaction>  (3) 
rxn_1589

>  <mol_properties>  (3) 
{"0": {"label": "a_hydrogen", "atom_type": "H0"}, "1": {"label": "acceptor", "atom_type": "Cs"}}

>  <type>  (3) 
r2h

$$$$

     RDKit          3D

 12 10  0  0  0  0  0  0  0  0999 V2000
   -0.2386   -2.3942   -1.4767 C   0  0  0  0  0  0  0  0  0  0  0  0
   -0.4539   -2.6458   -0.2142 C   0  0  0  0  0  3  0  0  0  0  0  0
   -0.0866   -1.3796   -1.8363 H   0  0  0  0  0  0  0  0  0  0  0  0
   -0.1968   -3.1879   -2.2202 H   0  0  0  0  0  0  0  0  0  0  0  0
   -0.4662   -1.3584    0.6191 H   0  0  0  0  0  0  0  0  0  0  0  0
   -0.6187   -3.5561    0.3457 H   0  0  0  0  0  0  0  0  0  0  0  0
   -0.4166   -0.2906    1.1944 C   0  0  0  0  0  0  0  0  0  0  0  0
   -0.5148    0.7324    0.1624 C   0  0  0  0  0  0  0  0  0  0  0  0
    0.7269    1.5393   -0.4973 S   0  0  0  0  0  0  0  0  0  0  0  0
   -1.2769   -0.3308    1.8624 H   0  0  0  0  0  0  0  0  0  0  0  0
    0.5350   -0.3030    1.7203 H   0  0  0  0  0  0  0  0  0  0  0  0
   -1.5228    0.9215   -0.2096 H   0  0  0  0  0  0  0  0  0  0  0  0
  1  2  2  3
  1  3  1  0
  1  4  1  0
  2  6  1  0
  5  7  1  0
  7  8  1  0
  7 10  1  0
  7 11  1  0
  8  9  2  0
  8 12  1  0
M  RAD  1   2   2
M  END
>  <reaction>  (4) 
rxn_1589

>  <mol_properties>  (4) 
{"0": {"label": "*4", "atom_type": "Cd"}, "1": {"label": "*3", "atom_type": "Cd"}, "4": {"label": "*2", "atom_type": "H0"}, "6": {"label": "*1", "atom_type": "Cs"}, "7": {"label": "*0", "atom_type": "CS"}}

>  <type>  (4) 
ts

$$$$

     RDKit          3D

 12 10  0  0  0  0  0  0  0  0999 V2000
    0.8528   -2.0164   -2.7333 C   0  0  0  0  0  0  0  0  0  0  0  0
    0.8528   -2.0164   -1.4115 C   0  0  0  0  0  0  0  0  0  0  0  0
    0.8528   -1.0938   -3.3017 H   0  0  0  0  0  0  0  0  0  0  0  0
    0.8528   -2.9390   -3.3017 H   0  0  0  0  0  0  0  0  0  0  0  0
    0.8528   -0.9093   -0.7295 H   0  0  0  0  0  0  0  0  0  0  0  0
    0.8528   -2.9390   -0.8431 H   0  0  0  0  0  0  0  0  0  0  0  0
    0.8528    0.2088   -0.0406 C   0  0  0  0  0  0  0  0  0  0  0  0
   -0.3614    0.2657    0.8178 C   0  0  0  0  0  0  0  0  0  0  0  0
   -0.9965    1.5830    1.4833 S   0  0  0  0  0  1  0  0  0  0  0  0
    1.5898   -0.4629    0.4104 H   0  0  0  0  0  0  0  0  0  0  0  0
    1.2928    1.1936   -0.1827 H   0  0  0  0  0  0  0  0  0  0  0  0
   -0.8412   -0.6995    0.9911 H   0  0  0  0  0  0  0  0  0  0  0  0
  1  2  2  3
  1  3  1  0
  1  4  1  0
  2  5  1  0
  2  6  1  0
  7  8  2  3
  7 10  1  0
  7 11  1  0
  8  9  1  0
  8 12  1  0
M  RAD  1   9   2
M  END
>  <reaction>  (5) 
rxn_1589

>  <mol_properties>  (5) 
{"0": {"label": "*4", "atom_type": "Cd"}, "1": {"label": "*3", "atom_type": "Cd"}, "4": {"label": "*2", "atom_type": "H0"}, "6": {"label": "*1", "atom_type": "Cs"}, "7": {"label": "*0", "atom_type": "CS"}}

>  <type>  (5) 
unop_1

>  <geom_source>  (5) 
Heuristics

$$$$

     RDKit          3D

 12 10  0  0  0  0  0  0  0  0999 V2000
    0.2094   -2.6211   -1.6066 C   0  0  0  0  0  0  0  0  0  0  0  0
    0.2094   -2.6211   -0.2849 C   0  0  0  0  0  0  0  0  0  0  0  0
    0.2094   -1.6985   -2.1750 H   0  0  0  0  0  0  0  0  0  0  0  0
    0.2094   -3.5437   -2.1750 H   0  0  0  0  0  0  0  0  0  0  0  0
    0.2094   -1.5140    0.3972 H   0  0  0  0  0  0  0  0  0  0  0  0
    0.2094   -3.5437    0.2835 H   0  0  0  0  0  0  0  0  0  0  0  0
    0.2094   -0.3959    1.0861 C   0  0  0  0  0  0  0  0  0  0  0  0
   -0.4917    0.6656    0.3139 C   0  0  0  0  0  0  0  0  0  0  0  0
   -0.0533    2.2071    0.1993 S   0  0  0  0  0  1  0  0  0  0  0  0
   -0.4768   -0.8291    1.8203 H   0  0  0  0  0  0  0  0  0  0  0  0
    1.0921   -0.0104    1.5918 H   0  0  0  0  0  0  0  0  0  0  0  0
   -1.3863    0.3286   -0.2132 H   0  0  0  0  0  0  0  0  0  0  0  0
  1  2  2  3
  1  3  1  0
  1  4  1  0
  2  5  1  0
  2  6  1  0
  7  8  2  3
  7 10  1  0
  7 11  1  0
  8  9  1  0
  8 12  1  0
M  RAD  1   9   2
M  END
>  <reaction>  (6) 
rxn_1589

>  <mol_properties>  (6) 
{"0": {"label": "*4", "atom_type": "Cd"}, "1": {"label": "*3", "atom_type": "Cd"}, "4": {"label": "*2", "atom_type": "H0"}, "6": {"label": "*1", "atom_type": "Cs"}, "7": {"label": "*0", "atom_type": "CS"}}

>  <type>  (6) 
unop_2

>  <geom_source>  (6) 
Heuristics

$$$$

     RDKit          3D

 12 10  0  0  0  0  0  0  0  0999 V2000
    0.6545   -1.8028   -3.0146 C   0  0  0  0  0  0  0  0  0  0  0  0
    0.6545   -1.8028   -1.6928 C   0  0  0  0  0  0  0  0  0  0  0  0
    0.6545   -0.8802   -3.5830 H   0  0  0  0  0  0  0  0  0  0  0  0
    0.6545   -2.7253   -3.5830 H   0  0  0  0  0  0  0  0  0  0  0  0
    0.6545   -0.6957   -1.0108 H   0  0  0  0  0  0  0  0  0  0  0  0
    0.6545   -2.7253   -1.1245 H   0  0  0  0  0  0  0  0  0  0  0  0
    0.6545    0.4224   -0.3219 C   0  0  0  0  0  0  0  0  0  0  0  0
   -0.0465    0.2102    0.9735 C   0  0  0  0  0  0  0  0  0  0  0  0
   -0.8743    1.3114    1.8001 S   0  0  0  0  0  1  0  0  0  0  0  0
    1.7155    0.1792   -0.2089 H   0  0  0  0  0  0  0  0  0  0  0  0
    0.5484    1.4461   -0.6749 H   0  0  0  0  0  0  0  0  0  0  0  0
    0.0302   -0.8037    1.3710 H   0  0  0  0  0  0  0  0  0  0  0  0
  1  2  2  3
  1  3  1  0
  1  4  1  0
  2  5  1  0
  2  6  1  0
  7  8  2  3
  7 10  1  0
  7 11  1  0
  8  9  1  0
  8 12  1  0
M  RAD  1   9   2
M  END
>  <reaction>  (7) 
rxn_1589

>  <mol_properties>  (7) 
{"0": {"label": "*4", "atom_type": "Cd"}, "1": {"label": "*3", "atom_type": "Cd"}, "4": {"label": "*2", "atom_type": "H0"}, "6": {"label": "*1", "atom_type": "Cs"}, "7": {"label": "*0", "atom_type": "CS"}}

>  <type>  (7) 
unop_3

>  <geom_source>  (7) 
Heuristics

$$$$

     RDKit          3D

 12 10  0  0  0  0  0  0  0  0999 V2000
   -1.1414   -1.8995   -2.1415 C   0  0  0  0  0  0  0  0  0  0  0  0
   -1.1414   -1.8995   -0.8198 C   0  0  0  0  0  0  0  0  0  0  0  0
   -1.1414   -0.9770   -2.7099 H   0  0  0  0  0  0  0  0  0  0  0  0
   -1.1414   -2.8221   -2.7099 H   0  0  0  0  0  0  0  0  0  0  0  0
   -1.1414   -0.7924   -0.1378 H   0  0  0  0  0  0  0  0  0  0  0  0
   -1.1414   -2.8221   -0.2514 H   0  0  0  0  0  0  0  0  0  0  0  0
   -1.1414    0.3257    0.5511 C   0  0  0  0  0  0  0  0  0  0  0  0
    0.0729    1.1180    0.2158 C   0  0  0  0  0  0  0  0  0  0  0  0
    1.4959    1.0400    0.9577 S   0  0  0  0  0  1  0  0  0  0  0  0
   -1.9676    1.0031    0.7880 H   0  0  0  0  0  0  0  0  0  0  0  0
   -0.9661   -0.3460    1.3889 H   0  0  0  0  0  0  0  0  0  0  0  0
   -0.0518    1.8088   -0.6202 H   0  0  0  0  0  0  0  0  0  0  0  0
  1  2  2  3
  1  3  1  0
  1  4  1  0
  2  5  1  0
  2  6  1  0
  7  8  2  3
  7 10  1  0
  7 11  1  0
  8  9  1  0
  8 12  1  0
M  RAD  1   9   2
M  END
>  <reaction>  (8) 
rxn_1589

>  <mol_properties>  (8) 
{"0": {"label": "*4", "atom_type": "Cd"}, "1": {"label": "*3", "atom_type": "Cd"}, "4": {"label": "*2", "atom_type": "H0"}, "6": {"label": "*1", "atom_type": "Cs"}, "7": {"label": "*0", "atom_type": "CS"}}

>  <type>  (8) 
unop_4

>  <geom_source>  (8) 
Heuristics

$$$$

     RDKit          3D

 12 10  0  0  0  0  0  0  0  0999 V2000
    0.3934   -1.5280   -3.1838 C   0  0  0  0  0  0  0  0  0  0  0  0
    0.3934   -1.5280   -1.8621 C   0  0  0  0  0  0  0  0  0  0  0  0
    0.3934   -0.6054   -3.7522 H   0  0  0  0  0  0  0  0  0  0  0  0
    0.3934   -2.4506   -3.7522 H   0  0  0  0  0  0  0  0  0  0  0  0
    0.3934   -0.4209   -1.1800 H   0  0  0  0  0  0  0  0  0  0  0  0
    0.3934   -2.4506   -1.2937 H   0  0  0  0  0  0  0  0  0  0  0  0
    0.3934    0.6972   -0.4912 C   0  0  0  0  0  0  0  0  0  0  0  0
    0.3934    0.3864    0.9642 C   0  0  0  0  0  0  0  0  0  0  0  0
   -0.7061    0.8546    2.0381 S   0  0  0  0  0  1  0  0  0  0  0  0
    1.3173    1.2216   -0.7542 H   0  0  0  0  0  0  0  0  0  0  0  0
   -0.4652    1.3024   -0.7743 H   0  0  0  0  0  0  0  0  0  0  0  0
    1.2368   -0.2203    1.2993 H   0  0  0  0  0  0  0  0  0  0  0  0
  1  2  2  3
  1  3  1  0
  1  4  1  0
  2  5  1  0
  2  6  1  0
  7  8  2  3
  7 10  1  0
  7 11  1  0
  8  9  1  0
  8 12  1  0
M  RAD  1   9   2
M  END
>  <reaction>  (9) 
rxn_1589

>  <mol_properties>  (9) 
{"0": {"label": "*4", "atom_type": "Cd"}, "1": {"label": "*3", "atom_type": "Cd"}, "4": {"label": "*2", "atom_type": "H0"}, "6": {"label": "*1", "atom_type": "Cs"}, "7": {"label": "*0", "atom_type": "CS"}}

>  <type>  (9) 
unop_5

>  <geom_source>  (9) 
Heuristics

$$$$

     RDKit          3D

 12 10  0  0  0  0  0  0  0  0999 V2000
   -1.0670   -1.5453   -2.6093 C   0  0  0  0  0  0  0  0  0  0  0  0
   -1.0670   -1.5453   -1.2876 C   0  0  0  0  0  0  0  0  0  0  0  0
   -1.0670   -0.6227   -3.1777 H   0  0  0  0  0  0  0  0  0  0  0  0
   -1.0670   -2.4679   -3.1777 H   0  0  0  0  0  0  0  0  0  0  0  0
   -1.0670   -0.4382   -0.6055 H   0  0  0  0  0  0  0  0  0  0  0  0
   -1.0670   -2.4679   -0.7192 H   0  0  0  0  0  0  0  0  0  0  0  0
   -1.0670    0.6799    0.0833 C   0  0  0  0  0  0  0  0  0  0  0  0
    0.3350    1.1045    0.3449 C   0  0  0  0  0  0  0  0  0  0  0  0
    1.2862    0.5740    1.5261 S   0  0  0  0  0  1  0  0  0  0  0  0
   -1.7266    1.5526    0.1151 H   0  0  0  0  0  0  0  0  0  0  0  0
   -1.4050   -0.0617    0.8041 H   0  0  0  0  0  0  0  0  0  0  0  0
    0.7220    1.8496   -0.3529 H   0  0  0  0  0  0  0  0  0  0  0  0
  1  2  2  3
  1  3  1  0
  1  4  1  0
  2  5  1  0
  2  6  1  0
  7  8  2  3
  7 10  1  0
  7 11  1  0
  8  9  1  0
  8 12  1  0
M  RAD  1   9   2
M  END
>  <reaction>  (10) 
rxn_1589

>  <mol_properties>  (10) 
{"0": {"label": "*4", "atom_type": "Cd"}, "1": {"label": "*3", "atom_type": "Cd"}, "4": {"label": "*2", "atom_type": "H0"}, "6": {"label": "*1", "atom_type": "Cs"}, "7": {"label": "*0", "atom_type": "CS"}}

>  <type>  (10) 
unop_6

>  <geom_source>  (10) 
Heuristics

$$$$

     RDKit          3D

 12 10  0  0  0  0  0  0  0  0999 V2000
   -0.6908   -1.2980   -3.0101 C   0  0  0  0  0  0  0  0  0  0  0  0
   -0.6908   -1.2980   -1.6884 C   0  0  0  0  0  0  0  0  0  0  0  0
   -0.6908   -0.3754   -3.5785 H   0  0  0  0  0  0  0  0  0  0  0  0
   -0.6908   -2.2206   -3.5785 H   0  0  0  0  0  0  0  0  0  0  0  0
   -0.6908   -0.1909   -1.0063 H   0  0  0  0  0  0  0  0  0  0  0  0
   -0.6908   -2.2206   -1.1200 H   0  0  0  0  0  0  0  0  0  0  0  0
   -0.6908    0.9272   -0.3175 C   0  0  0  0  0  0  0  0  0  0  0  0
    0.5235    0.9841    0.5410 C   0  0  0  0  0  0  0  0  0  0  0  0
    0.7056    0.2935    1.9802 S   0  0  0  0  0  1  0  0  0  0  0  0
   -1.0471    1.9426   -0.5166 H   0  0  0  0  0  0  0  0  0  0  0  0
   -1.4845    0.3441    0.1447 H   0  0  0  0  0  0  0  0  0  0  0  0
    1.3507    1.5592    0.1206 H   0  0  0  0  0  0  0  0  0  0  0  0
  1  2  2  3
  1  3  1  0
  1  4  1  0
  2  5  1  0
  2  6  1  0
  7  8  2  3
  7 10  1  0
  7 11  1  0
  8  9  1  0
  8 12  1  0
M  RAD  1   9   2
M  END
>  <reaction>  (11) 
rxn_1589

>  <mol_properties>  (11) 
{"0": {"label": "*4", "atom_type": "Cd"}, "1": {"label": "*3", "atom_type": "Cd"}, "4": {"label": "*2", "atom_type": "H0"}, "6": {"label": "*1", "atom_type": "Cs"}, "7": {"label": "*0", "atom_type": "CS"}}

>  <type>  (11) 
unop_7

>  <geom_source>  (11) 
Heuristics

$$$$

     RDKit          3D

 12 10  0  0  0  0  0  0  0  0999 V2000
    0.9013   -2.2630   -2.3327 C   0  0  0  0  0  0  0  0  0  0  0  0
    0.9013   -2.2630   -1.0110 C   0  0  0  0  0  0  0  0  0  0  0  0
    0.9013   -1.3405   -2.9011 H   0  0  0  0  0  0  0  0  0  0  0  0
    0.9013   -3.1856   -2.9011 H   0  0  0  0  0  0  0  0  0  0  0  0
    0.9013   -1.1559   -0.3289 H   0  0  0  0  0  0  0  0  0  0  0  0
    0.9013   -3.1856   -0.4426 H   0  0  0  0  0  0  0  0  0  0  0  0
    0.9013   -0.0378    0.3599 C   0  0  0  0  0  0  0  0  0  0  0  0
   -0.5008    0.3868    0.6215 C   0  0  0  0  0  0  0  0  0  0  0  0
   -0.9887    1.8621    1.0297 S   0  0  0  0  0  1  0  0  0  0  0  0
    1.1716   -0.8505    1.0412 H   0  0  0  0  0  0  0  0  0  0  0  0
    1.6010    0.7870    0.4771 H   0  0  0  0  0  0  0  0  0  0  0  0
   -1.2431   -0.4068    0.5167 H   0  0  0  0  0  0  0  0  0  0  0  0
  1  2  2  3
  1  3  1  0
  1  4  1  0
  2  5  1  0
  2  6  1  0
  7  8  2  3
  7 10  1  0
  7 11  1  0
  8  9  1  0
  8 12  1  0
M  RAD  1   9   2
M  END
>  <reaction>  (12) 
rxn_1589

>  <mol_properties>  (12) 
{"0": {"label": "*4", "atom_type": "Cd"}, "1": {"label": "*3", "atom_type": "Cd"}, "4": {"label": "*2", "atom_type": "H0"}, "6": {"label": "*1", "atom_type": "Cs"}, "7": {"label": "*0", "atom_type": "CS"}}

>  <type>  (12) 
unop_8

>  <geom_source>  (12) 
Heuristics

$$$$

     RDKit          3D

 12 10  0  0  0  0  0  0  0  0999 V2000
   -0.8980   -2.2659   -1.7435 C   0  0  0  0  0  0  0  0  0  0  0  0
   -0.8980   -2.2659   -0.4217 C   0  0  0  0  0  0  0  0  0  0  0  0
   -0.8980   -1.3433   -2.3119 H   0  0  0  0  0  0  0  0  0  0  0  0
   -0.8980   -3.1885   -2.3119 H   0  0  0  0  0  0  0  0  0  0  0  0
   -0.8980   -1.1588    0.2603 H   0  0  0  0  0  0  0  0  0  0  0  0
   -0.8980   -3.1885    0.1467 H   0  0  0  0  0  0  0  0  0  0  0  0
   -0.8980   -0.0407    0.9492 C   0  0  0  0  0  0  0  0  0  0  0  0
   -0.1969    1.0208    0.1770 C   0  0  0  0  0  0  0  0  0  0  0  0
    1.2892    1.5696    0.4450 S   0  0  0  0  0  1  0  0  0  0  0  0
   -1.8288    0.3602    1.3620 H   0  0  0  0  0  0  0  0  0  0  0  0
   -0.2778   -0.4304    1.7537 H   0  0  0  0  0  0  0  0  0  0  0  0
   -0.7786    1.4452   -0.6436 H   0  0  0  0  0  0  0  0  0  0  0  0
  1  2  2  3
  1  3  1  0
  1  4  1  0
  2  5  1  0
  2  6  1  0
  7  8  2  3
  7 10  1  0
  7 11  1  0
  8  9  1  0
  8 12  1  0
M  RAD  1   9   2
M  END
>  <reaction>  (13) 
rxn_1589

>  <mol_properties>  (13) 
{"0": {"label": "*4", "atom_type": "Cd"}, "1": {"label": "*3", "atom_type": "Cd"}, "4": {"label": "*2", "atom_type": "H0"}, "6": {"label": "*1", "atom_type": "Cs"}, "7": {"label": "*0", "atom_type": "CS"}}

>  <type>  (13) 
unop_9

>  <geom_source>  (13) 
Heuristics

$$$$

     RDKit          3D

 12 10  0  0  0  0  0  0  0  0999 V2000
    0.6867   -2.4987   -1.9106 C   0  0  0  0  0  0  0  0  0  0  0  0
    0.6867   -2.4987   -0.5889 C   0  0  0  0  0  0  0  0  0  0  0  0
    0.6867   -1.5761   -2.4790 H   0  0  0  0  0  0  0  0  0  0  0  0
    0.6867   -3.4213   -2.4790 H   0  0  0  0  0  0  0  0  0  0  0  0
    0.6867   -1.3916    0.0931 H   0  0  0  0  0  0  0  0  0  0  0  0
    0.6867   -3.4213   -0.0205 H   0  0  0  0  0  0  0  0  0  0  0  0
    0.6867   -0.2735    0.7820 C   0  0  0  0  0  0  0  0  0  0  0  0
   -0.5276    0.5188    0.4467 C   0  0  0  0  0  0  0  0  0  0  0  0
   -0.6797    2.1154    0.5433 S   0  0  0  0  0  1  0  0  0  0  0  0
    0.4450   -1.0030    1.5611 H   0  0  0  0  0  0  0  0  0  0  0  0
    1.5038    0.3625    1.1158 H   0  0  0  0  0  0  0  0  0  0  0  0
   -1.3778   -0.0749    0.1057 H   0  0  0  0  0  0  0  0  0  0  0  0
  1  2  2  3
  1  3  1  0
  1  4  1  0
  2  5  1  0
  2  6  1  0
  7  8  2  3
  7 10  1  0
  7 11  1  0
  8  9  1  0
  8 12  1  0
M  RAD  1   9   2
M  END
>  <reaction>  (14) 
rxn_1589

>  <mol_properties>  (14) 
{"0": {"label": "*4", "atom_type": "Cd"}, "1": {"label": "*3", "atom_type": "Cd"}, "4": {"label": "*2", "atom_type": "H0"}, "6": {"label": "*1", "atom_type": "Cs"}, "7": {"label": "*0", "atom_type": "CS"}}

>  <type>  (14) 
unop_10

>  <geom_source>  (14) 
Heuristics

$$$$

     RDKit          3D

 12 10  0  0  0  0  0  0  0  0999 V2000
   -0.1135   -1.2697   -3.2200 C   0  0  0  0  0  0  0  0  0  0  0  0
   -0.1135   -1.2697   -1.8983 C   0  0  0  0  0  0  0  0  0  0  0  0
   -0.1135   -0.3471   -3.7884 H   0  0  0  0  0  0  0  0  0  0  0  0
   -0.1135   -2.1923   -3.7884 H   0  0  0  0  0  0  0  0  0  0  0  0
   -0.1135   -0.1626   -1.2162 H   0  0  0  0  0  0  0  0  0  0  0  0
   -0.1135   -2.1923   -1.3299 H   0  0  0  0  0  0  0  0  0  0  0  0
   -0.1135    0.9555   -0.5274 C   0  0  0  0  0  0  0  0  0  0  0  0
    0.5876    0.7432    0.7680 C   0  0  0  0  0  0  0  0  0  0  0  0
   -0.0967    0.3547    2.1688 S   0  0  0  0  0  1  0  0  0  0  0  0
    0.0960    1.9641   -0.8968 H   0  0  0  0  0  0  0  0  0  0  0  0
   -1.1882    0.8157   -0.4320 H   0  0  0  0  0  0  0  0  0  0  0  0
    1.6707    0.8722    0.7251 H   0  0  0  0  0  0  0  0  0  0  0  0
  1  2  2  3
  1  3  1  0
  1  4  1  0
  2  5  1  0
  2  6  1  0
  7  8  2  3
  7 10  1  0
  7 11  1  0
  8  9  1  0
  8 12  1  0
M  RAD  1   9   2
M  END
>  <reaction>  (15) 
rxn_1589

>  <mol_properties>  (15) 
{"0": {"label": "*4", "atom_type": "Cd"}, "1": {"label": "*3", "atom_type": "Cd"}, "4": {"label": "*2", "atom_type": "H0"}, "6": {"label": "*1", "atom_type": "Cs"}, "7": {"label": "*0", "atom_type": "CS"}}

>  <type>  (15) 
unop_11

>  <geom_source>  (15) 
Heuristics

$$$$

     RDKit          3D

 12 10  0  0  0  0  0  0  0  0999 V2000
   -0.3934   -2.5405   -1.5404 C   0  0  0  0  0  0  0  0  0  0  0  0
   -0.3934   -2.5405   -0.2187 C   0  0  0  0  0  0  0  0  0  0  0  0
   -0.3934   -1.6179   -2.1088 H   0  0  0  0  0  0  0  0  0  0  0  0
   -0.3934   -3.4631   -2.1088 H   0  0  0  0  0  0  0  0  0  0  0  0
   -0.3934   -1.4334    0.4633 H   0  0  0  0  0  0  0  0  0  0  0  0
   -0.3934   -3.4631    0.3497 H   0  0  0  0  0  0  0  0  0  0  0  0
   -0.3934   -0.3153    1.1522 C   0  0  0  0  0  0  0  0  0  0  0  0
   -0.3934    0.8448    0.2201 C   0  0  0  0  0  0  0  0  0  0  0  0
    0.7061    2.0145    0.1553 S   0  0  0  0  0  1  0  0  0  0  0  0
   -1.3173   -0.3144    1.7388 H   0  0  0  0  0  0  0  0  0  0  0  0
    0.4652   -0.2960    1.8201 H   0  0  0  0  0  0  0  0  0  0  0  0
   -1.2368    0.8713   -0.4725 H   0  0  0  0  0  0  0  0  0  0  0  0
  1  2  2  3
  1  3  1  0
  1  4  1  0
  2  5  1  0
  2  6  1  0
  7  8  2  3
  7 10  1  0
  7 11  1  0
  8  9  1  0
  8 12  1  0
M  RAD  1   9   2
M  END
>  <reaction>  (16) 
rxn_1589

>  <mol_properties>  (16) 
{"0": {"label": "*4", "atom_type": "Cd"}, "1": {"label": "*3", "atom_type": "Cd"}, "4": {"label": "*2", "atom_type": "H0"}, "6": {"label": "*1", "atom_type": "Cs"}, "7": {"label": "*0", "atom_type": "CS"}}

>  <type>  (16) 
unop_12

>  <geom_source>  (16) 
Heuristics

$$$$

     RDKit          3D

 12 10  0  0  0  0  0  0  0  0999 V2000
   -2.1714   -1.6234    0.5236 S   0  0  0  0  0  1  0  0  0  0  0  0
   -0.7216    0.4482    0.2448 C   0  0  0  0  0  0  0  0  0  0  0  0
   -1.6958   -0.3684    1.0318 C   0  0  0  0  0  0  0  0  0  0  0  0
    1.4324   -0.0964   -1.2233 C   0  0  0  0  0  0  0  0  0  0  0  0
    1.6881   -0.4919    0.0204 C   0  0  0  0  0  0  0  0  0  0  0  0
   -0.4413    1.3535    0.8228 H   0  0  0  0  0  0  0  0  0  0  0  0
   -1.1764    0.7660   -0.7178 H   0  0  0  0  0  0  0  0  0  0  0  0
    0.4507   -0.3128   -0.0133 H   0  0  0  0  0  0  0  0  0  0  0  0
   -2.0280   -0.0254    2.0062 H   0  0  0  0  0  0  0  0  0  0  0  0
    1.5419    0.9470   -1.5006 H   0  0  0  0  0  0  0  0  0  0  0  0
    1.1128   -0.8199   -1.9651 H   0  0  0  0  0  0  0  0  0  0  0  0
    2.0086    0.2236    0.7706 H   0  0  0  0  0  0  0  0  0  0  0  0
  1  3  1  0
  2  3  2  3
  2  6  1  0
  2  7  1  0
  3  9  1  0
  4  5  2  3
  4 10  1  0
  4 11  1  0
  5  8  1  0
  5 12  1  0
M  RAD  1   1   2
M  END
>  <reaction>  (17) 
rxn_1589

>  <mol_properties>  (17) 
{"0": {"label": "*4", "atom_type": "Cd"}, "1": {"label": "*3", "atom_type": "Cd"}, "4": {"label": "*2", "atom_type": "H0"}, "6": {"label": "*1", "atom_type": "Cs"}, "7": {"label": "*0", "atom_type": "CS"}}

>  <type>  (17) 
unop_13

>  <geom_source>  (17) 
AutoTST

$$$$
