
     RDKit          3D

  6  5  0  0  0  0  0  0  0  0999 V2000
   -0.3669    0.0060    0.0609 C   0  0  0  0  0  0  0  0  0  0  0  0
    0.9818   -0.0507    0.4695 O   0  0  0  0  0  0  0  0  0  0  0  0
   -0.6066    0.9462   -0.4488 H   0  0  0  0  0  0  0  0  0  0  0  0
   -0.5221   -0.8115   -0.6420 H   0  0  0  0  0  0  0  0  0  0  0  0
   -1.0602   -0.1268    0.8992 H   0  0  0  0  0  0  0  0  0  0  0  0
    1.1451    0.6595    1.0897 H   0  0  0  0  0  0  0  0  0  0  0  0
  1  2  1  0
  1  3  1  0
  1  4  1  0
  1  5  1  0
  2  6  1  0
M  END
>  <reaction>  (1) 
rxn_392

>  <mol_properties>  (1) 
{"1": {"label": "donator", "atom_type": "O2s"}, "5": {"label": "d_hydrogen", "atom_type": "H0"}}

>  <type>  (1) 
r1h

$$$$

     RDKit          3D

  5  4  0  0  0  0  0  0  0  0999 V2000
    0.0397    0.7134    0.0000 C   0  0  0  0  0  3  0  0  0  0  0  0
    0.0458   -0.5870    0.0000 C   0  0  0  0  0  0  0  0  0  0  0  0
   -0.6871    1.5118    0.0000 H   0  0  0  0  0  0  0  0  0  0  0  0
   -0.8806   -1.1637    0.0000 H   0  0  0  0  0  0  0  0  0  0  0  0
    0.9690   -1.1600    0.0000 H   0  0  0  0  0  0  0  0  0  0  0  0
  1  2  2  3
  1  3  1  0
  2  4  1  0
  2  5  1  0
M  RAD  1   1   2
M  END
>  <reaction>  (2) 
rxn_392

>  <mol_properties>  (2) 
{"0": {"label": "acceptor", "atom_type": "Cd"}}

>  <type>  (2) 
r2

$$$$

     RDKit          3D

  6  5  0  0  0  0  0  0  0  0999 V2000
    0.6594    0.0438   -0.0050 C   0  0  0  0  0  0  0  0  0  0  0  0
   -0.6594   -0.0438    0.0050 C   0  0  0  0  0  0  0  0  0  0  0  0
    1.1706    0.8681   -0.4881 H   0  0  0  0  0  0  0  0  0  0  0  0
    1.2824   -0.7051    0.4696 H   0  0  0  0  0  0  0  0  0  0  0  0
   -1.2824    0.7051   -0.4696 H   0  0  0  0  0  0  0  0  0  0  0  0
   -1.1706   -0.8681    0.4881 H   0  0  0  0  0  0  0  0  0  0  0  0
  1  2  2  3
  1  3  1  0
  1  4  1  0
  2  5  1  0
  2  6  1  0
M  END
>  <reaction>  (3) 
rxn_392

>  <mol_properties>  (3) 
{"0": {"label": "acceptor", "atom_type": "Cd"}, "5": {"label": "a_hydrogen", "atom_type": "H0"}}

>  <type>  (3) 
r2h

$$$$

     RDKit          3D

 11  9  0  0  0  0  0  0  0  0999 V2000
   -0.0198    0.9499    1.0413 C   0  0  0  0  0  3  0  0  0  0  0  0
   -0.3660    1.8481    0.1542 C   0  0  0  0  0  0  0  0  0  0  0  0
    0.1243    1.0584    2.1099 H   0  0  0  0  0  0  0  0  0  0  0  0
   -0.5574    2.8795    0.4395 H   0  0  0  0  0  0  0  0  0  0  0  0
   -0.4768    1.6057   -0.8978 H   0  0  0  0  0  0  0  0  0  0  0  0
    0.1207   -1.2079   -1.1983 C   0  0  0  0  0  0  0  0  0  0  0  0
    0.3658   -1.3339    0.1683 O   0  0  0  0  0  0  0  0  0  0  0  0
    0.8135   -0.5130   -1.6890 H   0  0  0  0  0  0  0  0  0  0  0  0
    0.2797   -2.2002   -1.6318 H   0  0  0  0  0  0  0  0  0  0  0  0
   -0.9120   -0.9086   -1.4162 H   0  0  0  0  0  0  0  0  0  0  0  0
    0.2017   -0.2803    0.6583 H   0  0  0  0  0  0  0  0  0  0  0  0
  1  2  2  3
  1  3  1  0
  2  4  1  0
  2  5  1  0
  6  7  1  0
  6  8  1  0
  6  9  1  0
  6 10  1  0
  7 11  1  0
M  RAD  1   1   2
M  END
>  <reaction>  (4) 
rxn_392

>  <mol_properties>  (4) 
{"0": {"label": "*3", "atom_type": "Cd"}, "1": {"label": "*4", "atom_type": "Cd"}, "5": {"label": "*0", "atom_type": "Cs"}, "6": {"label": "*1", "atom_type": "O2s"}, "10": {"label": "*2", "atom_type": "H0"}}

>  <type>  (4) 
ts

$$$$

     RDKit          3D

 11  9  0  0  0  0  0  0  0  0999 V2000
    0.2278    1.1173    0.6042 C   0  0  0  0  0  3  0  0  0  0  0  0
   -0.7467    1.5933    1.3596 C   0  0  0  0  0  0  0  0  0  0  0  0
    1.2698    1.3028    0.8370 H   0  0  0  0  0  0  0  0  0  0  0  0
   -0.5430    2.1880    2.2422 H   0  0  0  0  0  0  0  0  0  0  0  0
   -1.7886    1.4079    1.1268 H   0  0  0  0  0  0  0  0  0  0  0  0
    0.2278   -1.2018   -1.5924 C   0  0  0  0  0  0  0  0  0  0  0  0
    0.2278   -1.2018   -0.1820 O   0  0  0  0  0  0  0  0  0  0  0  0
    1.1186   -0.7164   -2.0072 H   0  0  0  0  0  0  0  0  0  0  0  0
    0.2278   -2.2432   -1.9116 H   0  0  0  0  0  0  0  0  0  0  0  0
   -0.6630   -0.7164   -2.0072 H   0  0  0  0  0  0  0  0  0  0  0  0
    0.2278   -0.1142    0.1867 H   0  0  0  0  0  0  0  0  0  0  0  0
  1  2  2  3
  1  3  1  0
  2  4  1  0
  2  5  1  0
  6  7  1  0
  6  8  1  0
  6  9  1  0
  6 10  1  0
  7 11  1  0
M  RAD  1   1   2
M  END
>  <reaction>  (5) 
rxn_392

>  <mol_properties>  (5) 
{"0": {"label": "*3", "atom_type": "Cd"}, "1": {"label": "*4", "atom_type": "Cd"}, "5": {"label": "*0", "atom_type": "Cs"}, "6": {"label": "*1", "atom_type": "O2s"}, "10": {"label": "*2", "atom_type": "H0"}}

>  <type>  (5) 
unop_1

>  <geom_source>  (5) 
Heuristics

$$$$

     RDKit          3D

 11  9  0  0  0  0  0  0  0  0999 V2000
    0.1379    0.9941    0.9571 C   0  0  0  0  0  3  0  0  0  0  0  0
   -0.4247    1.9636    0.2567 C   0  0  0  0  0  0  0  0  0  0  0  0
    0.3666    1.1123    2.0097 H   0  0  0  0  0  0  0  0  0  0  0  0
   -0.6799    2.9156    0.7069 H   0  0  0  0  0  0  0  0  0  0  0  0
   -0.6535    1.8453   -0.7959 H   0  0  0  0  0  0  0  0  0  0  0  0
    0.1379   -1.3250   -1.2395 C   0  0  0  0  0  0  0  0  0  0  0  0
    0.1379   -1.3250    0.1709 O   0  0  0  0  0  0  0  0  0  0  0  0
    1.0287   -0.8397   -1.6542 H   0  0  0  0  0  0  0  0  0  0  0  0
    0.1379   -2.3665   -1.5586 H   0  0  0  0  0  0  0  0  0  0  0  0
   -0.7529   -0.8397   -1.6542 H   0  0  0  0  0  0  0  0  0  0  0  0
    0.1379   -0.2374    0.5396 H   0  0  0  0  0  0  0  0  0  0  0  0
  1  2  2  3
  1  3  1  0
  2  4  1  0
  2  5  1  0
  6  7  1  0
  6  8  1  0
  6  9  1  0
  6 10  1  0
  7 11  1  0
M  RAD  1   1   2
M  END
>  <reaction>  (6) 
rxn_392

>  <mol_properties>  (6) 
{"0": {"label": "*3", "atom_type": "Cd"}, "1": {"label": "*4", "atom_type": "Cd"}, "5": {"label": "*0", "atom_type": "Cs"}, "6": {"label": "*1", "atom_type": "O2s"}, "10": {"label": "*2", "atom_type": "H0"}}

>  <type>  (6) 
unop_2

>  <geom_source>  (6) 
Heuristics

$$$$

     RDKit          3D

 11  9  0  0  0  0  0  0  0  0999 V2000
    0.1261    1.1460    0.5157 C   0  0  0  0  0  3  0  0  0  0  0  0
   -0.4365    1.4897    1.6612 C   0  0  0  0  0  0  0  0  0  0  0  0
    1.0460    1.6055    0.1738 H   0  0  0  0  0  0  0  0  0  0  0  0
   -0.0006    2.2448    2.3046 H   0  0  0  0  0  0  0  0  0  0  0  0
   -1.3564    1.0301    2.0031 H   0  0  0  0  0  0  0  0  0  0  0  0
    0.1261   -1.1732   -1.6809 C   0  0  0  0  0  0  0  0  0  0  0  0
    0.1261   -1.1732   -0.2705 O   0  0  0  0  0  0  0  0  0  0  0  0
    1.0169   -0.6878   -2.0957 H   0  0  0  0  0  0  0  0  0  0  0  0
    0.1261   -2.2146   -2.0001 H   0  0  0  0  0  0  0  0  0  0  0  0
   -0.7647   -0.6878   -2.0957 H   0  0  0  0  0  0  0  0  0  0  0  0
    0.1261   -0.0855    0.0982 H   0  0  0  0  0  0  0  0  0  0  0  0
  1  2  2  3
  1  3  1  0
  2  4  1  0
  2  5  1  0
  6  7  1  0
  6  8  1  0
  6  9  1  0
  6 10  1  0
  7 11  1  0
M  RAD  1   1   2
M  END
>  <reaction>  (7) 
rxn_392

>  <mol_properties>  (7) 
{"0": {"label": "*3", "atom_type": "Cd"}, "1": {"label": "*4", "atom_type": "Cd"}, "5": {"label": "*0", "atom_type": "Cs"}, "6": {"label": "*1", "atom_type": "O2s"}, "10": {"label": "*2", "atom_type": "H0"}}

>  <type>  (7) 
unop_3

>  <geom_source>  (7) 
Heuristics

$$$$

     RDKit          3D

 11  9  0  0  0  0  0  0  0  0999 V2000
   -0.2366    1.0283    0.8606 C   0  0  0  0  0  3  0  0  0  0  0  0
    0.7379    1.8655    0.5503 C   0  0  0  0  0  0  0  0  0  0  0  0
   -0.7634    1.0942    1.8053 H   0  0  0  0  0  0  0  0  0  0  0  0
    1.0494    2.6515    1.2282 H   0  0  0  0  0  0  0  0  0  0  0  0
    1.2646    1.7996   -0.3944 H   0  0  0  0  0  0  0  0  0  0  0  0
   -0.2366   -1.2908   -1.3359 C   0  0  0  0  0  0  0  0  0  0  0  0
   -0.2366   -1.2908    0.0744 O   0  0  0  0  0  0  0  0  0  0  0  0
    0.6542   -0.8054   -1.7507 H   0  0  0  0  0  0  0  0  0  0  0  0
   -0.2366   -2.3322   -1.6551 H   0  0  0  0  0  0  0  0  0  0  0  0
   -1.1274   -0.8055   -1.7507 H   0  0  0  0  0  0  0  0  0  0  0  0
   -0.2366   -0.2032    0.4431 H   0  0  0  0  0  0  0  0  0  0  0  0
  1  2  2  3
  1  3  1  0
  2  4  1  0
  2  5  1  0
  6  7  1  0
  6  8  1  0
  6  9  1  0
  6 10  1  0
  7 11  1  0
M  RAD  1   1   2
M  END
>  <reaction>  (8) 
rxn_392

>  <mol_properties>  (8) 
{"0": {"label": "*3", "atom_type": "Cd"}, "1": {"label": "*4", "atom_type": "Cd"}, "5": {"label": "*0", "atom_type": "Cs"}, "6": {"label": "*1", "atom_type": "O2s"}, "10": {"label": "*2", "atom_type": "H0"}}

>  <type>  (8) 
unop_4

>  <geom_source>  (8) 
Heuristics

$$$$

     RDKit          3D

 11  9  0  0  0  0  0  0  0  0999 V2000
   -0.0000    1.1528    0.4868 C   0  0  0  0  0  3  0  0  0  0  0  0
   -0.0000    1.4481    1.7751 C   0  0  0  0  0  0  0  0  0  0  0  0
   -0.0000    1.9251   -0.2733 H   0  0  0  0  0  0  0  0  0  0  0  0
   -0.0000    2.4744    2.1230 H   0  0  0  0  0  0  0  0  0  0  0  0
    0.0000    0.6759    2.5353 H   0  0  0  0  0  0  0  0  0  0  0  0
   -0.0000   -1.1663   -1.7097 C   0  0  0  0  0  0  0  0  0  0  0  0
   -0.0000   -1.1663   -0.2994 O   0  0  0  0  0  0  0  0  0  0  0  0
    0.8908   -0.6809   -2.1245 H   0  0  0  0  0  0  0  0  0  0  0  0
    0.0000   -2.2077   -2.0289 H   0  0  0  0  0  0  0  0  0  0  0  0
   -0.8908   -0.6809   -2.1245 H   0  0  0  0  0  0  0  0  0  0  0  0
   -0.0000   -0.0787    0.0693 H   0  0  0  0  0  0  0  0  0  0  0  0
  1  2  2  3
  1  3  1  0
  2  4  1  0
  2  5  1  0
  6  7  1  0
  6  8  1  0
  6  9  1  0
  6 10  1  0
  7 11  1  0
M  RAD  1   1   2
M  END
>  <reaction>  (9) 
rxn_392

>  <mol_properties>  (9) 
{"0": {"label": "*3", "atom_type": "Cd"}, "1": {"label": "*4", "atom_type": "Cd"}, "5": {"label": "*0", "atom_type": "Cs"}, "6": {"label": "*1", "atom_type": "O2s"}, "10": {"label": "*2", "atom_type": "H0"}}

>  <type>  (9) 
unop_5

>  <geom_source>  (9) 
Heuristics

$$$$

     RDKit          3D

 11  9  0  0  0  0  0  0  0  0999 V2000
   -0.2692    1.0738    0.7309 C   0  0  0  0  0  3  0  0  0  0  0  0
    0.8561    1.7303    0.9535 C   0  0  0  0  0  0  0  0  0  0  0  0
   -1.1123    1.1449    1.4080 H   0  0  0  0  0  0  0  0  0  0  0  0
    0.9809    2.3662    1.8220 H   0  0  0  0  0  0  0  0  0  0  0  0
    1.6991    1.6592    0.2764 H   0  0  0  0  0  0  0  0  0  0  0  0
   -0.2692   -1.2454   -1.4657 C   0  0  0  0  0  0  0  0  0  0  0  0
   -0.2692   -1.2454   -0.0553 O   0  0  0  0  0  0  0  0  0  0  0  0
    0.6216   -0.7600   -1.8804 H   0  0  0  0  0  0  0  0  0  0  0  0
   -0.2692   -2.2868   -1.7848 H   0  0  0  0  0  0  0  0  0  0  0  0
   -1.1600   -0.7600   -1.8804 H   0  0  0  0  0  0  0  0  0  0  0  0
   -0.2692   -0.1577    0.3134 H   0  0  0  0  0  0  0  0  0  0  0  0
  1  2  2  3
  1  3  1  0
  2  4  1  0
  2  5  1  0
  6  7  1  0
  6  8  1  0
  6  9  1  0
  6 10  1  0
  7 11  1  0
M  RAD  1   1   2
M  END
>  <reaction>  (10) 
rxn_392

>  <mol_properties>  (10) 
{"0": {"label": "*3", "atom_type": "Cd"}, "1": {"label": "*4", "atom_type": "Cd"}, "5": {"label": "*0", "atom_type": "Cs"}, "6": {"label": "*1", "atom_type": "O2s"}, "10": {"label": "*2", "atom_type": "H0"}}

>  <type>  (10) 
unop_6

>  <geom_source>  (10) 
Heuristics

$$$$

     RDKit          3D

 11  9  0  0  0  0  0  0  0  0999 V2000
   -0.2278    1.1173    0.6042 C   0  0  0  0  0  3  0  0  0  0  0  0
    0.7467    1.5933    1.3596 C   0  0  0  0  0  0  0  0  0  0  0  0
   -1.2698    1.3028    0.8370 H   0  0  0  0  0  0  0  0  0  0  0  0
    0.5430    2.1880    2.2422 H   0  0  0  0  0  0  0  0  0  0  0  0
    1.7886    1.4079    1.1268 H   0  0  0  0  0  0  0  0  0  0  0  0
   -0.2278   -1.2018   -1.5924 C   0  0  0  0  0  0  0  0  0  0  0  0
   -0.2278   -1.2018   -0.1820 O   0  0  0  0  0  0  0  0  0  0  0  0
    0.6630   -0.7164   -2.0072 H   0  0  0  0  0  0  0  0  0  0  0  0
   -0.2278   -2.2432   -1.9116 H   0  0  0  0  0  0  0  0  0  0  0  0
   -1.1186   -0.7164   -2.0072 H   0  0  0  0  0  0  0  0  0  0  0  0
   -0.2278   -0.1142    0.1867 H   0  0  0  0  0  0  0  0  0  0  0  0
  1  2  2  3
  1  3  1  0
  2  4  1  0
  2  5  1  0
  6  7  1  0
  6  8  1  0
  6  9  1  0
  6 10  1  0
  7 11  1  0
M  RAD  1   1   2
M  END
>  <reaction>  (11) 
rxn_392

>  <mol_properties>  (11) 
{"0": {"label": "*3", "atom_type": "Cd"}, "1": {"label": "*4", "atom_type": "Cd"}, "5": {"label": "*0", "atom_type": "Cs"}, "6": {"label": "*1", "atom_type": "O2s"}, "10": {"label": "*2", "atom_type": "H0"}}

>  <type>  (11) 
unop_7

>  <geom_source>  (11) 
Heuristics

$$$$

     RDKit          3D

 11  9  0  0  0  0  0  0  0  0999 V2000
    0.2692    1.0738    0.7309 C   0  0  0  0  0  3  0  0  0  0  0  0
   -0.8561    1.7303    0.9535 C   0  0  0  0  0  0  0  0  0  0  0  0
    1.1123    1.1449    1.4080 H   0  0  0  0  0  0  0  0  0  0  0  0
   -0.9809    2.3662    1.8220 H   0  0  0  0  0  0  0  0  0  0  0  0
   -1.6991    1.6592    0.2764 H   0  0  0  0  0  0  0  0  0  0  0  0
    0.2692   -1.2454   -1.4657 C   0  0  0  0  0  0  0  0  0  0  0  0
    0.2692   -1.2454   -0.0553 O   0  0  0  0  0  0  0  0  0  0  0  0
    1.1600   -0.7600   -1.8804 H   0  0  0  0  0  0  0  0  0  0  0  0
    0.2692   -2.2868   -1.7848 H   0  0  0  0  0  0  0  0  0  0  0  0
   -0.6216   -0.7600   -1.8804 H   0  0  0  0  0  0  0  0  0  0  0  0
    0.2692   -0.1577    0.3134 H   0  0  0  0  0  0  0  0  0  0  0  0
  1  2  2  3
  1  3  1  0
  2  4  1  0
  2  5  1  0
  6  7  1  0
  6  8  1  0
  6  9  1  0
  6 10  1  0
  7 11  1  0
M  RAD  1   1   2
M  END
>  <reaction>  (12) 
rxn_392

>  <mol_properties>  (12) 
{"0": {"label": "*3", "atom_type": "Cd"}, "1": {"label": "*4", "atom_type": "Cd"}, "5": {"label": "*0", "atom_type": "Cs"}, "6": {"label": "*1", "atom_type": "O2s"}, "10": {"label": "*2", "atom_type": "H0"}}

>  <type>  (12) 
unop_8

>  <geom_source>  (12) 
Heuristics

$$$$

     RDKit          3D

 11  9  0  0  0  0  0  0  0  0999 V2000
   -0.1379    0.9941    0.9571 C   0  0  0  0  0  3  0  0  0  0  0  0
    0.4247    1.9636    0.2567 C   0  0  0  0  0  0  0  0  0  0  0  0
   -0.3666    1.1123    2.0097 H   0  0  0  0  0  0  0  0  0  0  0  0
    0.6799    2.9156    0.7069 H   0  0  0  0  0  0  0  0  0  0  0  0
    0.6535    1.8453   -0.7959 H   0  0  0  0  0  0  0  0  0  0  0  0
   -0.1379   -1.3250   -1.2395 C   0  0  0  0  0  0  0  0  0  0  0  0
   -0.1379   -1.3250    0.1709 O   0  0  0  0  0  0  0  0  0  0  0  0
    0.7529   -0.8397   -1.6542 H   0  0  0  0  0  0  0  0  0  0  0  0
   -0.1379   -2.3665   -1.5586 H   0  0  0  0  0  0  0  0  0  0  0  0
   -1.0287   -0.8397   -1.6542 H   0  0  0  0  0  0  0  0  0  0  0  0
   -0.1379   -0.2374    0.5396 H   0  0  0  0  0  0  0  0  0  0  0  0
  1  2  2  3
  1  3  1  0
  2  4  1  0
  2  5  1  0
  6  7  1  0
  6  8  1  0
  6  9  1  0
  6 10  1  0
  7 11  1  0
M  RAD  1   1   2
M  END
>  <reaction>  (13) 
rxn_392

>  <mol_properties>  (13) 
{"0": {"label": "*3", "atom_type": "Cd"}, "1": {"label": "*4", "atom_type": "Cd"}, "5": {"label": "*0", "atom_type": "Cs"}, "6": {"label": "*1", "atom_type": "O2s"}, "10": {"label": "*2", "atom_type": "H0"}}

>  <type>  (13) 
unop_9

>  <geom_source>  (13) 
Heuristics

$$$$

     RDKit          3D

 11  9  0  0  0  0  0  0  0  0999 V2000
    0.2366    1.0283    0.8606 C   0  0  0  0  0  3  0  0  0  0  0  0
   -0.7379    1.8655    0.5503 C   0  0  0  0  0  0  0  0  0  0  0  0
    0.7634    1.0942    1.8053 H   0  0  0  0  0  0  0  0  0  0  0  0
   -1.0494    2.6515    1.2282 H   0  0  0  0  0  0  0  0  0  0  0  0
   -1.2646    1.7996   -0.3944 H   0  0  0  0  0  0  0  0  0  0  0  0
    0.2366   -1.2908   -1.3359 C   0  0  0  0  0  0  0  0  0  0  0  0
    0.2366   -1.2908    0.0744 O   0  0  0  0  0  0  0  0  0  0  0  0
    1.1274   -0.8054   -1.7507 H   0  0  0  0  0  0  0  0  0  0  0  0
    0.2366   -2.3322   -1.6551 H   0  0  0  0  0  0  0  0  0  0  0  0
   -0.6542   -0.8055   -1.7507 H   0  0  0  0  0  0  0  0  0  0  0  0
    0.2366   -0.2032    0.4431 H   0  0  0  0  0  0  0  0  0  0  0  0
  1  2  2  3
  1  3  1  0
  2  4  1  0
  2  5  1  0
  6  7  1  0
  6  8  1  0
  6  9  1  0
  6 10  1  0
  7 11  1  0
M  RAD  1   1   2
M  END
>  <reaction>  (14) 
rxn_392

>  <mol_properties>  (14) 
{"0": {"label": "*3", "atom_type": "Cd"}, "1": {"label": "*4", "atom_type": "Cd"}, "5": {"label": "*0", "atom_type": "Cs"}, "6": {"label": "*1", "atom_type": "O2s"}, "10": {"label": "*2", "atom_type": "H0"}}

>  <type>  (14) 
unop_10

>  <geom_source>  (14) 
Heuristics

$$$$

     RDKit          3D

 11  9  0  0  0  0  0  0  0  0999 V2000
   -0.1261    1.1460    0.5157 C   0  0  0  0  0  3  0  0  0  0  0  0
    0.4365    1.4897    1.6612 C   0  0  0  0  0  0  0  0  0  0  0  0
   -1.0460    1.6055    0.1738 H   0  0  0  0  0  0  0  0  0  0  0  0
    0.0006    2.2448    2.3046 H   0  0  0  0  0  0  0  0  0  0  0  0
    1.3564    1.0301    2.0031 H   0  0  0  0  0  0  0  0  0  0  0  0
   -0.1261   -1.1732   -1.6809 C   0  0  0  0  0  0  0  0  0  0  0  0
   -0.1261   -1.1732   -0.2705 O   0  0  0  0  0  0  0  0  0  0  0  0
    0.7647   -0.6878   -2.0957 H   0  0  0  0  0  0  0  0  0  0  0  0
   -0.1261   -2.2146   -2.0001 H   0  0  0  0  0  0  0  0  0  0  0  0
   -1.0169   -0.6878   -2.0957 H   0  0  0  0  0  0  0  0  0  0  0  0
   -0.1261   -0.0855    0.0982 H   0  0  0  0  0  0  0  0  0  0  0  0
  1  2  2  3
  1  3  1  0
  2  4  1  0
  2  5  1  0
  6  7  1  0
  6  8  1  0
  6  9  1  0
  6 10  1  0
  7 11  1  0
M  RAD  1   1   2
M  END
>  <reaction>  (15) 
rxn_392

>  <mol_properties>  (15) 
{"0": {"label": "*3", "atom_type": "Cd"}, "1": {"label": "*4", "atom_type": "Cd"}, "5": {"label": "*0", "atom_type": "Cs"}, "6": {"label": "*1", "atom_type": "O2s"}, "10": {"label": "*2", "atom_type": "H0"}}

>  <type>  (15) 
unop_11

>  <geom_source>  (15) 
Heuristics

$$$$

     RDKit          3D

 11  9  0  0  0  0  0  0  0  0999 V2000
   -0.0000    0.9813    0.9927 C   0  0  0  0  0  3  0  0  0  0  0  0
   -0.0000    1.9992    0.1496 C   0  0  0  0  0  0  0  0  0  0  0  0
    0.0000    1.1322    2.0658 H   0  0  0  0  0  0  0  0  0  0  0  0
   -0.0000    3.0255    0.4975 H   0  0  0  0  0  0  0  0  0  0  0  0
   -0.0000    1.8484   -0.9235 H   0  0  0  0  0  0  0  0  0  0  0  0
   -0.0000   -1.3378   -1.2038 C   0  0  0  0  0  0  0  0  0  0  0  0
   -0.0000   -1.3378    0.2065 O   0  0  0  0  0  0  0  0  0  0  0  0
    0.8908   -0.8524   -1.6186 H   0  0  0  0  0  0  0  0  0  0  0  0
    0.0000   -2.3792   -1.5230 H   0  0  0  0  0  0  0  0  0  0  0  0
   -0.8908   -0.8524   -1.6186 H   0  0  0  0  0  0  0  0  0  0  0  0
   -0.0000   -0.2502    0.5752 H   0  0  0  0  0  0  0  0  0  0  0  0
  1  2  2  3
  1  3  1  0
  2  4  1  0
  2  5  1  0
  6  7  1  0
  6  8  1  0
  6  9  1  0
  6 10  1  0
  7 11  1  0
M  RAD  1   1   2
M  END
>  <reaction>  (16) 
rxn_392

>  <mol_properties>  (16) 
{"0": {"label": "*3", "atom_type": "Cd"}, "1": {"label": "*4", "atom_type": "Cd"}, "5": {"label": "*0", "atom_type": "Cs"}, "6": {"label": "*1", "atom_type": "O2s"}, "10": {"label": "*2", "atom_type": "H0"}}

>  <type>  (16) 
unop_12

>  <geom_source>  (16) 
Heuristics

$$$$

     RDKit          3D

 11  9  0  0  0  0  0  0  0  0999 V2000
   -0.8928    0.5843   -0.0429 O   0  0  0  0  0  1  0  0  0  0  0  0
   -2.1991    0.1751    0.2195 C   0  0  0  0  0  0  0  0  0  0  0  0
    1.4837    0.3982   -0.0115 C   0  0  0  0  0  0  0  0  0  0  0  0
    2.1278   -0.7235   -0.3238 C   0  0  0  0  0  0  0  0  0  0  0  0
   -2.8057    0.2585   -0.7056 H   0  0  0  0  0  0  0  0  0  0  0  0
   -2.6373    0.8203    1.0085 H   0  0  0  0  0  0  0  0  0  0  0  0
   -2.1940   -0.8793    0.5647 H   0  0  0  0  0  0  0  0  0  0  0  0
    0.3706    0.5832   -0.4105 H   0  0  0  0  0  0  0  0  0  0  0  0
    1.9634    1.1507    0.6060 H   0  0  0  0  0  0  0  0  0  0  0  0
    3.1371   -0.8934    0.0368 H   0  0  0  0  0  0  0  0  0  0  0  0
    1.6461   -1.4742   -0.9413 H   0  0  0  0  0  0  0  0  0  0  0  0
  1  2  1  0
  2  5  1  0
  2  6  1  0
  2  7  1  0
  3  4  2  3
  3  8  1  0
  3  9  1  0
  4 10  1  0
  4 11  1  0
M  RAD  1   1   2
M  END
>  <reaction>  (17) 
rxn_392

>  <mol_properties>  (17) 
{"0": {"label": "*3", "atom_type": "Cd"}, "1": {"label": "*4", "atom_type": "Cd"}, "5": {"label": "*0", "atom_type": "Cs"}, "6": {"label": "*1", "atom_type": "O2s"}, "10": {"label": "*2", "atom_type": "H0"}}

>  <type>  (17) 
unop_13

>  <geom_source>  (17) 
AutoTST

$$$$
