
     RDKit          3D

  6  5  0  0  0  0  0  0  0  0999 V2000
    0.6594    0.0438   -0.0050 C   0  0  0  0  0  0  0  0  0  0  0  0
   -0.6594   -0.0438    0.0050 C   0  0  0  0  0  0  0  0  0  0  0  0
    1.1706    0.8681   -0.4881 H   0  0  0  0  0  0  0  0  0  0  0  0
    1.2824   -0.7051    0.4696 H   0  0  0  0  0  0  0  0  0  0  0  0
   -1.2824    0.7051   -0.4696 H   0  0  0  0  0  0  0  0  0  0  0  0
   -1.1706   -0.8681    0.4881 H   0  0  0  0  0  0  0  0  0  0  0  0
  1  2  2  3
  1  3  1  0
  1  4  1  0
  2  5  1  0
  2  6  1  0
M  END
>  <reaction>  (1) 
rxn_1581

>  <mol_properties>  (1) 
{"1": {"label": "donator", "atom_type": "Cd"}, "4": {"label": "d_hydrogen", "atom_type": "H0"}}

>  <type>  (1) 
r1h

$$$$

     RDKit          3D

 20 20  0  0  0  0  0  0  0  0999 V2000
   -2.4774    0.8083    0.1488 C   0  0  0  0  0  0  0  0  0  0  0  0
   -1.4172   -0.1696   -0.2476 C   0  0  0  0  0  3  0  0  0  0  0  0
   -0.2904    0.2932   -1.1156 C   0  0  0  0  0  0  0  0  0  0  0  0
   -1.4797   -1.5204    0.1947 C   0  0  0  0  0  0  0  0  0  0  0  0
   -0.4907   -2.4664   -0.1650 C   0  0  0  0  0  0  0  0  0  0  0  0
   -0.5559   -3.7750    0.2665 C   0  0  0  0  0  0  0  0  0  0  0  0
   -1.6038   -4.2041    1.0733 C   0  0  0  0  0  0  0  0  0  0  0  0
   -2.5899   -3.2959    1.4424 C   0  0  0  0  0  0  0  0  0  0  0  0
   -2.5339   -1.9852    1.0162 C   0  0  0  0  0  0  0  0  0  0  0  0
   -3.4697    0.4933   -0.1924 H   0  0  0  0  0  0  0  0  0  0  0  0
   -2.5434    0.9184    1.2368 H   0  0  0  0  0  0  0  0  0  0  0  0
   -2.2829    1.7944   -0.2706 H   0  0  0  0  0  0  0  0  0  0  0  0
   -0.2452   -0.2661   -2.0565 H   0  0  0  0  0  0  0  0  0  0  0  0
   -0.3905    1.3487   -1.3647 H   0  0  0  0  0  0  0  0  0  0  0  0
    0.6811    0.1589   -0.6274 H   0  0  0  0  0  0  0  0  0  0  0  0
    0.3373   -2.1635   -0.7918 H   0  0  0  0  0  0  0  0  0  0  0  0
    0.2187   -4.4725   -0.0281 H   0  0  0  0  0  0  0  0  0  0  0  0
   -1.6513   -5.2316    1.4097 H   0  0  0  0  0  0  0  0  0  0  0  0
   -3.4116   -3.6175    2.0706 H   0  0  0  0  0  0  0  0  0  0  0  0
   -3.3164   -1.3029    1.3205 H   0  0  0  0  0  0  0  0  0  0  0  0
  1  2  1  0
  1 10  1  0
  1 11  1  0
  1 12  1  0
  2  3  1  0
  2  4  1  0
  3 13  1  0
  3 14  1  0
  3 15  1  0
  4  5  2  0
  4  9  1  0
  5  6  1  0
  5 16  1  0
  6  7  2  0
  6 17  1  0
  7  8  1  0
  7 18  1  0
  8  9  2  0
  8 19  1  0
  9 20  1  0
M  RAD  1   2   2
M  END
>  <reaction>  (2) 
rxn_1581

>  <mol_properties>  (2) 
{"1": {"label": "acceptor", "atom_type": "Cs"}}

>  <type>  (2) 
r2

$$$$

     RDKit          3D

 21 21  0  0  0  0  0  0  0  0999 V2000
   -1.3695    1.3367   -1.0719 C   0  0  0  0  0  0  0  0  0  0  0  0
   -1.4091   -0.0981   -0.5428 C   0  0  0  0  0  0  0  0  0  0  0  0
   -0.1819   -0.3999    0.3191 C   0  0  0  0  0  0  0  0  0  0  0  0
   -1.5636   -1.1028   -1.6652 C   0  0  0  0  0  0  0  0  0  0  0  0
   -0.5920   -1.2314   -2.6553 C   0  0  0  0  0  0  0  0  0  0  0  0
   -0.7353   -2.1509   -3.6809 C   0  0  0  0  0  0  0  0  0  0  0  0
   -1.8582   -2.9642   -3.7377 C   0  0  0  0  0  0  0  0  0  0  0  0
   -2.8325   -2.8475   -2.7602 C   0  0  0  0  0  0  0  0  0  0  0  0
   -2.6828   -1.9241   -1.7351 C   0  0  0  0  0  0  0  0  0  0  0  0
   -0.4920    1.4974   -1.7025 H   0  0  0  0  0  0  0  0  0  0  0  0
   -2.2553    1.5607   -1.6679 H   0  0  0  0  0  0  0  0  0  0  0  0
   -1.3211    2.0496   -0.2461 H   0  0  0  0  0  0  0  0  0  0  0  0
   -2.2930   -0.1918    0.0948 H   0  0  0  0  0  0  0  0  0  0  0  0
   -0.1215    0.2955    1.1588 H   0  0  0  0  0  0  0  0  0  0  0  0
   -0.2200   -1.4155    0.7159 H   0  0  0  0  0  0  0  0  0  0  0  0
    0.7383   -0.3016   -0.2615 H   0  0  0  0  0  0  0  0  0  0  0  0
    0.2915   -0.6040   -2.6263 H   0  0  0  0  0  0  0  0  0  0  0  0
    0.0326   -2.2338   -4.4401 H   0  0  0  0  0  0  0  0  0  0  0  0
   -1.9712   -3.6833   -4.5391 H   0  0  0  0  0  0  0  0  0  0  0  0
   -3.7135   -3.4765   -2.7932 H   0  0  0  0  0  0  0  0  0  0  0  0
   -3.4509   -1.8400   -0.9743 H   0  0  0  0  0  0  0  0  0  0  0  0
  1  2  1  0
  1 10  1  0
  1 11  1  0
  1 12  1  0
  2  3  1  0
  2  4  1  0
  2 13  1  0
  3 14  1  0
  3 15  1  0
  3 16  1  0
  4  5  2  0
  4  9  1  0
  5  6  1  0
  5 17  1  0
  6  7  2  0
  6 18  1  0
  7  8  1  0
  7 19  1  0
  8  9  2  0
  8 20  1  0
  9 21  1  0
M  END
>  <reaction>  (3) 
rxn_1581

>  <mol_properties>  (3) 
{"0": {"label": "a_hydrogen", "atom_type": "H0"}, "2": {"label": "acceptor", "atom_type": "Cs"}}

>  <type>  (3) 
r2h

$$$$

     RDKit          3D

 26 25  0  0  0  0  0  0  0  0999 V2000
    0.0735   -1.7627   -2.6184 C   0  0  0  0  0  0  0  0  0  0  0  0
   -1.1751   -1.5080   -2.3142 C   0  0  0  0  0  3  0  0  0  0  0  0
    0.8934   -1.3031   -2.0731 H   0  0  0  0  0  0  0  0  0  0  0  0
    0.3443   -2.4437   -3.4235 H   0  0  0  0  0  0  0  0  0  0  0  0
   -1.3450   -0.5259   -1.1889 H   0  0  0  0  0  0  0  0  0  0  0  0
   -2.0884   -1.8832   -2.7603 H   0  0  0  0  0  0  0  0  0  0  0  0
   -1.8194    1.5870   -1.0211 C   0  0  0  0  0  0  0  0  0  0  0  0
   -1.4106    0.3169   -0.3032 C   0  0  0  0  0  0  0  0  0  0  0  0
   -2.4992   -0.1889    0.6308 C   0  0  0  0  0  0  0  0  0  0  0  0
   -0.0421    0.3232    0.3108 C   0  0  0  0  0  0  0  0  0  0  0  0
    0.7490    1.4684    0.3709 C   0  0  0  0  0  0  0  0  0  0  0  0
    2.0170    1.4352    0.9345 C   0  0  0  0  0  0  0  0  0  0  0  0
    2.5265    0.2528    1.4431 C   0  0  0  0  0  0  0  0  0  0  0  0
    1.7551   -0.9000    1.3831 C   0  0  0  0  0  0  0  0  0  0  0  0
    0.4898   -0.8620    0.8262 C   0  0  0  0  0  0  0  0  0  0  0  0
   -1.0821    1.8832   -1.7686 H   0  0  0  0  0  0  0  0  0  0  0  0
   -2.7713    1.4351   -1.5327 H   0  0  0  0  0  0  0  0  0  0  0  0
   -1.9521    2.4181   -0.3213 H   0  0  0  0  0  0  0  0  0  0  0  0
   -2.6603    0.5207    1.4479 H   0  0  0  0  0  0  0  0  0  0  0  0
   -3.4425   -0.3034    0.0928 H   0  0  0  0  0  0  0  0  0  0  0  0
   -2.2446   -1.1519    1.0730 H   0  0  0  0  0  0  0  0  0  0  0  0
    0.3752    2.4054   -0.0200 H   0  0  0  0  0  0  0  0  0  0  0  0
    2.6082    2.3418    0.9735 H   0  0  0  0  0  0  0  0  0  0  0  0
    3.5167    0.2262    1.8798 H   0  0  0  0  0  0  0  0  0  0  0  0
    2.1440   -1.8341    1.7691 H   0  0  0  0  0  0  0  0  0  0  0  0
   -0.0912   -1.7745    0.7666 H   0  0  0  0  0  0  0  0  0  0  0  0
  1  2  2  3
  1  3  1  0
  1  4  1  0
  2  6  1  0
  5  8  1  0
  7  8  1  0
  7 16  1  0
  7 17  1  0
  7 18  1  0
  8  9  1  0
  8 10  1  0
  9 19  1  0
  9 20  1  0
  9 21  1  0
 10 11  2  0
 10 15  1  0
 11 12  1  0
 11 22  1  0
 12 13  2  0
 12 23  1  0
 13 14  1  0
 13 24  1  0
 14 15  2  0
 14 25  1  0
 15 26  1  0
M  RAD  1   2   2
M  END
>  <reaction>  (4) 
rxn_1581

>  <mol_properties>  (4) 
{"0": {"label": "*4", "atom_type": "Cd"}, "1": {"label": "*3", "atom_type": "Cd"}, "4": {"label": "*2", "atom_type": "H0"}, "7": {"label": "*1", "atom_type": "Cs"}, "9": {"label": "*0", "atom_type": "Cd"}}

>  <type>  (4) 
ts

$$$$

     RDKit          3D

 26 25  0  0  0  0  0  0  0  0999 V2000
   -0.4944   -3.1405   -2.1854 C   0  0  0  0  0  0  0  0  0  0  0  0
   -0.4944   -3.1405   -0.8636 C   0  0  0  0  0  0  0  0  0  0  0  0
   -0.4944   -2.2180   -2.7538 H   0  0  0  0  0  0  0  0  0  0  0  0
   -0.4944   -4.0631   -2.7538 H   0  0  0  0  0  0  0  0  0  0  0  0
   -0.4944   -2.0334   -0.1816 H   0  0  0  0  0  0  0  0  0  0  0  0
   -0.4944   -4.0631   -0.2953 H   0  0  0  0  0  0  0  0  0  0  0  0
   -1.7570   -0.9036    1.3706 C   0  0  0  0  0  0  0  0  0  0  0  0
   -0.4944   -0.9158    0.5070 C   0  0  0  0  0  3  0  0  0  0  0  0
    0.5914   -1.7925    1.1334 C   0  0  0  0  0  0  0  0  0  0  0  0
    0.0087    0.4862    0.2341 C   0  0  0  0  0  0  0  0  0  0  0  0
    0.4275    1.3156    1.2721 C   0  0  0  0  0  0  0  0  0  0  0  0
    0.8873    2.5975    1.0204 C   0  0  0  0  0  0  0  0  0  0  0  0
    0.9379    3.0783   -0.2803 C   0  0  0  0  0  0  0  0  0  0  0  0
    0.5247    2.2649   -1.3225 C   0  0  0  0  0  0  0  0  0  0  0  0
    0.0651    0.9814   -1.0634 C   0  0  0  0  0  0  0  0  0  0  0  0
   -2.5403   -0.2971    0.9137 H   0  0  0  0  0  0  0  0  0  0  0  0
   -2.1407   -1.9171    1.5046 H   0  0  0  0  0  0  0  0  0  0  0  0
   -1.5499   -0.4922    2.3612 H   0  0  0  0  0  0  0  0  0  0  0  0
    0.8829   -1.4131    2.1154 H   0  0  0  0  0  0  0  0  0  0  0  0
    0.2313   -2.8150    1.2650 H   0  0  0  0  0  0  0  0  0  0  0  0
    1.4842   -1.8205    0.5071 H   0  0  0  0  0  0  0  0  0  0  0  0
    0.3947    0.9561    2.2943 H   0  0  0  0  0  0  0  0  0  0  0  0
    1.2079    3.2250    1.8429 H   0  0  0  0  0  0  0  0  0  0  0  0
    1.2971    4.0802   -0.4781 H   0  0  0  0  0  0  0  0  0  0  0  0
    0.5593    2.6284   -2.3420 H   0  0  0  0  0  0  0  0  0  0  0  0
   -0.2563    0.3520   -1.8858 H   0  0  0  0  0  0  0  0  0  0  0  0
  1  2  2  3
  1  3  1  0
  1  4  1  0
  2  5  1  0
  2  6  1  0
  7  8  1  0
  7 16  1  0
  7 17  1  0
  7 18  1  0
  8  9  1  0
  8 10  1  0
  9 19  1  0
  9 20  1  0
  9 21  1  0
 10 11  2  0
 10 15  1  0
 11 12  1  0
 11 22  1  0
 12 13  2  0
 12 23  1  0
 13 14  1  0
 13 24  1  0
 14 15  2  0
 14 25  1  0
 15 26  1  0
M  RAD  1   8   2
M  END
>  <reaction>  (5) 
rxn_1581

>  <mol_properties>  (5) 
{"0": {"label": "*4", "atom_type": "Cd"}, "1": {"label": "*3", "atom_type": "Cd"}, "4": {"label": "*2", "atom_type": "H0"}, "7": {"label": "*1", "atom_type": "Cs"}, "9": {"label": "*0", "atom_type": "Cd"}}

>  <type>  (5) 
unop_1

>  <geom_source>  (5) 
Heuristics

$$$$

     RDKit          3D

 26 25  0  0  0  0  0  0  0  0999 V2000
   -1.1239   -2.4113   -2.9512 C   0  0  0  0  0  0  0  0  0  0  0  0
   -1.1239   -2.4113   -1.6295 C   0  0  0  0  0  0  0  0  0  0  0  0
   -1.1239   -1.4887   -3.5196 H   0  0  0  0  0  0  0  0  0  0  0  0
   -1.1239   -3.3339   -3.5196 H   0  0  0  0  0  0  0  0  0  0  0  0
   -1.1239   -1.3042   -0.9474 H   0  0  0  0  0  0  0  0  0  0  0  0
   -1.1239   -3.3339   -1.0611 H   0  0  0  0  0  0  0  0  0  0  0  0
   -1.8528    0.8702   -1.0907 C   0  0  0  0  0  0  0  0  0  0  0  0
   -1.1239   -0.1866   -0.2589 C   0  0  0  0  0  3  0  0  0  0  0  0
   -2.0473   -0.7803    0.8064 C   0  0  0  0  0  0  0  0  0  0  0  0
    0.1494    0.3627    0.3495 C   0  0  0  0  0  0  0  0  0  0  0  0
    0.1159    1.4152    1.2617 C   0  0  0  0  0  0  0  0  0  0  0  0
    1.2816    1.9160    1.8169 C   0  0  0  0  0  0  0  0  0  0  0  0
    2.5101    1.3722    1.4697 C   0  0  0  0  0  0  0  0  0  0  0  0
    2.5589    0.3255    0.5641 C   0  0  0  0  0  0  0  0  0  0  0  0
    1.3872   -0.1718    0.0113 C   0  0  0  0  0  0  0  0  0  0  0  0
   -1.2023    1.2782   -1.8657 H   0  0  0  0  0  0  0  0  0  0  0  0
   -2.7335    0.4401   -1.5721 H   0  0  0  0  0  0  0  0  0  0  0  0
   -2.1877    1.6997   -0.4637 H   0  0  0  0  0  0  0  0  0  0  0  0
   -2.3891   -0.0102    1.5017 H   0  0  0  0  0  0  0  0  0  0  0  0
   -2.9299   -1.2271    0.3441 H   0  0  0  0  0  0  0  0  0  0  0  0
   -1.5356   -1.5504    1.3855 H   0  0  0  0  0  0  0  0  0  0  0  0
   -0.8352    1.8518    1.5441 H   0  0  0  0  0  0  0  0  0  0  0  0
    1.2319    2.7348    2.5241 H   0  0  0  0  0  0  0  0  0  0  0  0
    3.4219    1.7631    1.9032 H   0  0  0  0  0  0  0  0  0  0  0  0
    3.5115   -0.1076    0.2849 H   0  0  0  0  0  0  0  0  0  0  0  0
    1.4354   -0.9915   -0.6969 H   0  0  0  0  0  0  0  0  0  0  0  0
  1  2  2  3
  1  3  1  0
  1  4  1  0
  2  5  1  0
  2  6  1  0
  7  8  1  0
  7 16  1  0
  7 17  1  0
  7 18  1  0
  8  9  1  0
  8 10  1  0
  9 19  1  0
  9 20  1  0
  9 21  1  0
 10 11  2  0
 10 15  1  0
 11 12  1  0
 11 22  1  0
 12 13  2  0
 12 23  1  0
 13 14  1  0
 13 24  1  0
 14 15  2  0
 14 25  1  0
 15 26  1  0
M  RAD  1   8   2
M  END
>  <reaction>  (6) 
rxn_1581

>  <mol_properties>  (6) 
{"0": {"label": "*4", "atom_type": "Cd"}, "1": {"label": "*3", "atom_type": "Cd"}, "4": {"label": "*2", "atom_type": "H0"}, "7": {"label": "*1", "atom_type": "Cs"}, "9": {"label": "*0", "atom_type": "Cd"}}

>  <type>  (6) 
unop_2

>  <geom_source>  (6) 
Heuristics

$$$$

     RDKit          3D

 26 25  0  0  0  0  0  0  0  0999 V2000
    0.2024   -3.1693   -1.9315 C   0  0  0  0  0  0  0  0  0  0  0  0
    0.2024   -3.1693   -0.6097 C   0  0  0  0  0  0  0  0  0  0  0  0
    0.2024   -2.2467   -2.4999 H   0  0  0  0  0  0  0  0  0  0  0  0
    0.2024   -4.0919   -2.4999 H   0  0  0  0  0  0  0  0  0  0  0  0
    0.2024   -2.0622    0.0723 H   0  0  0  0  0  0  0  0  0  0  0  0
    0.2024   -4.0919   -0.0414 H   0  0  0  0  0  0  0  0  0  0  0  0
   -0.5265   -1.2123    2.0788 C   0  0  0  0  0  0  0  0  0  0  0  0
    0.2024   -0.9446    0.7609 C   0  0  0  0  0  3  0  0  0  0  0  0
    1.7033   -1.2051    0.9003 C   0  0  0  0  0  0  0  0  0  0  0  0
   -0.0761    0.4507    0.2424 C   0  0  0  0  0  0  0  0  0  0  0  0
    0.3038    1.5776    0.9682 C   0  0  0  0  0  0  0  0  0  0  0  0
    0.0481    2.8528    0.4922 C   0  0  0  0  0  0  0  0  0  0  0  0
   -0.5956    3.0279   -0.7246 C   0  0  0  0  0  0  0  0  0  0  0  0
   -0.9791    1.9168   -1.4571 C   0  0  0  0  0  0  0  0  0  0  0  0
   -0.7199    0.6417   -0.9745 C   0  0  0  0  0  0  0  0  0  0  0  0
   -1.6002   -1.0489    1.9748 H   0  0  0  0  0  0  0  0  0  0  0  0
   -0.3652   -2.2418    2.4050 H   0  0  0  0  0  0  0  0  0  0  0  0
   -0.1623   -0.5516    2.8690 H   0  0  0  0  0  0  0  0  0  0  0  0
    2.1477   -0.5442    1.6481 H   0  0  0  0  0  0  0  0  0  0  0  0
    1.8871   -2.2346    1.2146 H   0  0  0  0  0  0  0  0  0  0  0  0
    2.2213   -1.0366   -0.0450 H   0  0  0  0  0  0  0  0  0  0  0  0
    0.8076    1.4591    1.9206 H   0  0  0  0  0  0  0  0  0  0  0  0
    0.3524    3.7147    1.0732 H   0  0  0  0  0  0  0  0  0  0  0  0
   -0.7959    4.0244   -1.0975 H   0  0  0  0  0  0  0  0  0  0  0  0
   -1.4822    2.0401   -2.4082 H   0  0  0  0  0  0  0  0  0  0  0  0
   -1.0240   -0.2222   -1.5551 H   0  0  0  0  0  0  0  0  0  0  0  0
  1  2  2  3
  1  3  1  0
  1  4  1  0
  2  5  1  0
  2  6  1  0
  7  8  1  0
  7 16  1  0
  7 17  1  0
  7 18  1  0
  8  9  1  0
  8 10  1  0
  9 19  1  0
  9 20  1  0
  9 21  1  0
 10 11  2  0
 10 15  1  0
 11 12  1  0
 11 22  1  0
 12 13  2  0
 12 23  1  0
 13 14  1  0
 13 24  1  0
 14 15  2  0
 14 25  1  0
 15 26  1  0
M  RAD  1   8   2
M  END
>  <reaction>  (7) 
rxn_1581

>  <mol_properties>  (7) 
{"0": {"label": "*4", "atom_type": "Cd"}, "1": {"label": "*3", "atom_type": "Cd"}, "4": {"label": "*2", "atom_type": "H0"}, "7": {"label": "*1", "atom_type": "Cs"}, "9": {"label": "*0", "atom_type": "Cd"}}

>  <type>  (7) 
unop_3

>  <geom_source>  (7) 
Heuristics

$$$$

     RDKit          3D

 26 25  0  0  0  0  0  0  0  0999 V2000
   -0.2886   -0.9624   -3.4295 C   0  0  0  0  0  0  0  0  0  0  0  0
   -0.2886   -0.9624   -2.1077 C   0  0  0  0  0  0  0  0  0  0  0  0
   -0.2886   -0.0398   -3.9979 H   0  0  0  0  0  0  0  0  0  0  0  0
   -0.2886   -1.8849   -3.9979 H   0  0  0  0  0  0  0  0  0  0  0  0
   -0.2886    0.1447   -1.4257 H   0  0  0  0  0  0  0  0  0  0  0  0
   -0.2886   -1.8849   -1.5394 H   0  0  0  0  0  0  0  0  0  0  0  0
    0.9739    2.0392   -1.1147 C   0  0  0  0  0  0  0  0  0  0  0  0
   -0.2886    1.2624   -0.7371 C   0  0  0  0  0  3  0  0  0  0  0  0
   -1.4287    2.2129   -0.3677 C   0  0  0  0  0  0  0  0  0  0  0  0
   -0.0183    0.2599    0.3652 C   0  0  0  0  0  0  0  0  0  0  0  0
    0.4038    0.6733    1.6268 C   0  0  0  0  0  0  0  0  0  0  0  0
    0.6504   -0.2451    2.6336 C   0  0  0  0  0  0  0  0  0  0  0  0
    0.4792   -1.6019    2.3982 C   0  0  0  0  0  0  0  0  0  0  0  0
    0.0599   -2.0277    1.1487 C   0  0  0  0  0  0  0  0  0  0  0  0
   -0.1855   -1.1022    0.1442 C   0  0  0  0  0  0  0  0  0  0  0  0
    1.7811    1.3632   -1.4004 H   0  0  0  0  0  0  0  0  0  0  0  0
    0.7755    2.7114   -1.9520 H   0  0  0  0  0  0  0  0  0  0  0  0
    1.3259    2.6456   -0.2769 H   0  0  0  0  0  0  0  0  0  0  0  0
   -1.1633    2.8255    0.4970 H   0  0  0  0  0  0  0  0  0  0  0  0
   -1.6514    2.8869   -1.1975 H   0  0  0  0  0  0  0  0  0  0  0  0
   -2.3366    1.6608   -0.1202 H   0  0  0  0  0  0  0  0  0  0  0  0
    0.5427    1.7294    1.8280 H   0  0  0  0  0  0  0  0  0  0  0  0
    0.9779    0.0988    3.6070 H   0  0  0  0  0  0  0  0  0  0  0  0
    0.6717   -2.3207    3.1846 H   0  0  0  0  0  0  0  0  0  0  0  0
   -0.0775   -3.0839    0.9524 H   0  0  0  0  0  0  0  0  0  0  0  0
   -0.5134   -1.4451   -0.8308 H   0  0  0  0  0  0  0  0  0  0  0  0
  1  2  2  3
  1  3  1  0
  1  4  1  0
  2  5  1  0
  2  6  1  0
  7  8  1  0
  7 16  1  0
  7 17  1  0
  7 18  1  0
  8  9  1  0
  8 10  1  0
  9 19  1  0
  9 20  1  0
  9 21  1  0
 10 11  2  0
 10 15  1  0
 11 12  1  0
 11 22  1  0
 12 13  2  0
 12 23  1  0
 13 14  1  0
 13 24  1  0
 14 15  2  0
 14 25  1  0
 15 26  1  0
M  RAD  1   8   2
M  END
>  <reaction>  (8) 
rxn_1581

>  <mol_properties>  (8) 
{"0": {"label": "*4", "atom_type": "Cd"}, "1": {"label": "*3", "atom_type": "Cd"}, "4": {"label": "*2", "atom_type": "H0"}, "7": {"label": "*1", "atom_type": "Cs"}, "9": {"label": "*0", "atom_type": "Cd"}}

>  <type>  (8) 
unop_4

>  <geom_source>  (8) 
Heuristics

$$$$

     RDKit          3D

 26 25  0  0  0  0  0  0  0  0999 V2000
    1.1437   -2.6183   -2.0298 C   0  0  0  0  0  0  0  0  0  0  0  0
    1.1437   -2.6183   -0.7081 C   0  0  0  0  0  0  0  0  0  0  0  0
    1.1437   -1.6957   -2.5982 H   0  0  0  0  0  0  0  0  0  0  0  0
    1.1437   -3.5409   -2.5982 H   0  0  0  0  0  0  0  0  0  0  0  0
    1.1437   -1.5112   -0.0260 H   0  0  0  0  0  0  0  0  0  0  0  0
    1.1436   -3.5409   -0.1397 H   0  0  0  0  0  0  0  0  0  0  0  0
    1.1437   -0.7638    2.1468 C   0  0  0  0  0  0  0  0  0  0  0  0
    1.1437   -0.3936    0.6625 C   0  0  0  0  0  3  0  0  0  0  0  0
    2.4091    0.3806    0.2893 C   0  0  0  0  0  0  0  0  0  0  0  0
   -0.1089    0.3648    0.2765 C   0  0  0  0  0  0  0  0  0  0  0  0
   -0.4025    1.6045    0.8402 C   0  0  0  0  0  0  0  0  0  0  0  0
   -1.5486    2.2965    0.4857 C   0  0  0  0  0  0  0  0  0  0  0  0
   -2.4285    1.7604   -0.4439 C   0  0  0  0  0  0  0  0  0  0  0  0
   -2.1496    0.5288   -1.0127 C   0  0  0  0  0  0  0  0  0  0  0  0
   -0.9994   -0.1595   -0.6532 C   0  0  0  0  0  0  0  0  0  0  0  0
    0.2526   -1.3357    2.4095 H   0  0  0  0  0  0  0  0  0  0  0  0
    2.0224   -1.3633    2.3933 H   0  0  0  0  0  0  0  0  0  0  0  0
    1.1642    0.1308    2.7735 H   0  0  0  0  0  0  0  0  0  0  0  0
    2.4751    1.3163    0.8492 H   0  0  0  0  0  0  0  0  0  0  0  0
    3.3006   -0.2074    0.5171 H   0  0  0  0  0  0  0  0  0  0  0  0
    2.4212    0.6254   -0.7738 H   0  0  0  0  0  0  0  0  0  0  0  0
    0.2738    2.0380    1.5680 H   0  0  0  0  0  0  0  0  0  0  0  0
   -1.7569    3.2588    0.9367 H   0  0  0  0  0  0  0  0  0  0  0  0
   -3.3246    2.3006   -0.7217 H   0  0  0  0  0  0  0  0  0  0  0  0
   -2.8282    0.0996   -1.7395 H   0  0  0  0  0  0  0  0  0  0  0  0
   -0.7895   -1.1231   -1.1039 H   0  0  0  0  0  0  0  0  0  0  0  0
  1  2  2  3
  1  3  1  0
  1  4  1  0
  2  5  1  0
  2  6  1  0
  7  8  1  0
  7 16  1  0
  7 17  1  0
  7 18  1  0
  8  9  1  0
  8 10  1  0
  9 19  1  0
  9 20  1  0
  9 21  1  0
 10 11  2  0
 10 15  1  0
 11 12  1  0
 11 22  1  0
 12 13  2  0
 12 23  1  0
 13 14  1  0
 13 24  1  0
 14 15  2  0
 14 25  1  0
 15 26  1  0
M  RAD  1   8   2
M  END
>  <reaction>  (9) 
rxn_1581

>  <mol_properties>  (9) 
{"0": {"label": "*4", "atom_type": "Cd"}, "1": {"label": "*3", "atom_type": "Cd"}, "4": {"label": "*2", "atom_type": "H0"}, "7": {"label": "*1", "atom_type": "Cs"}, "9": {"label": "*0", "atom_type": "Cd"}}

>  <type>  (9) 
unop_5

>  <geom_source>  (9) 
Heuristics

$$$$

     RDKit          3D

 26 25  0  0  0  0  0  0  0  0999 V2000
    0.3989   -0.8561   -3.3043 C   0  0  0  0  0  0  0  0  0  0  0  0
    0.3989   -0.8561   -1.9826 C   0  0  0  0  0  0  0  0  0  0  0  0
    0.3989    0.0664   -3.8727 H   0  0  0  0  0  0  0  0  0  0  0  0
    0.3989   -1.7787   -3.8727 H   0  0  0  0  0  0  0  0  0  0  0  0
    0.3989    0.2510   -1.3005 H   0  0  0  0  0  0  0  0  0  0  0  0
    0.3989   -1.7787   -1.4142 H   0  0  0  0  0  0  0  0  0  0  0  0
    1.8568    1.7631   -0.3689 C   0  0  0  0  0  0  0  0  0  0  0  0
    0.3989    1.3686   -0.6120 C   0  0  0  0  0  3  0  0  0  0  0  0
   -0.5204    2.5888   -0.5365 C   0  0  0  0  0  0  0  0  0  0  0  0
   -0.0481    0.2736    0.3338 C   0  0  0  0  0  0  0  0  0  0  0  0
   -0.0740    0.4785    1.7115 C   0  0  0  0  0  0  0  0  0  0  0  0
   -0.4832   -0.5243    2.5747 C   0  0  0  0  0  0  0  0  0  0  0  0
   -0.8765   -1.7579    2.0755 C   0  0  0  0  0  0  0  0  0  0  0  0
   -0.8558   -1.9760    0.7080 C   0  0  0  0  0  0  0  0  0  0  0  0
   -0.4448   -0.9670   -0.1516 C   0  0  0  0  0  0  0  0  0  0  0  0
    2.5165    0.8975   -0.4450 H   0  0  0  0  0  0  0  0  0  0  0  0
    2.1803    2.5076   -1.0993 H   0  0  0  0  0  0  0  0  0  0  0  0
    1.9848    2.1952    0.6262 H   0  0  0  0  0  0  0  0  0  0  0  0
   -0.4779    3.0507    0.4526 H   0  0  0  0  0  0  0  0  0  0  0  0
   -0.2208    3.3416   -1.2686 H   0  0  0  0  0  0  0  0  0  0  0  0
   -1.5576    2.3126   -0.7322 H   0  0  0  0  0  0  0  0  0  0  0  0
    0.2299    1.4361    2.1186 H   0  0  0  0  0  0  0  0  0  0  0  0
   -0.4954   -0.3429    3.6424 H   0  0  0  0  0  0  0  0  0  0  0  0
   -1.1965   -2.5423    2.7495 H   0  0  0  0  0  0  0  0  0  0  0  0
   -1.1604   -2.9343    0.3059 H   0  0  0  0  0  0  0  0  0  0  0  0
   -0.4320   -1.1471   -1.2208 H   0  0  0  0  0  0  0  0  0  0  0  0
  1  2  2  3
  1  3  1  0
  1  4  1  0
  2  5  1  0
  2  6  1  0
  7  8  1  0
  7 16  1  0
  7 17  1  0
  7 18  1  0
  8  9  1  0
  8 10  1  0
  9 19  1  0
  9 20  1  0
  9 21  1  0
 10 11  2  0
 10 15  1  0
 11 12  1  0
 11 22  1  0
 12 13  2  0
 12 23  1  0
 13 14  1  0
 13 24  1  0
 14 15  2  0
 14 25  1  0
 15 26  1  0
M  RAD  1   8   2
M  END
>  <reaction>  (10) 
rxn_1581

>  <mol_properties>  (10) 
{"0": {"label": "*4", "atom_type": "Cd"}, "1": {"label": "*3", "atom_type": "Cd"}, "4": {"label": "*2", "atom_type": "H0"}, "7": {"label": "*1", "atom_type": "Cs"}, "9": {"label": "*0", "atom_type": "Cd"}}

>  <type>  (10) 
unop_6

>  <geom_source>  (10) 
Heuristics

$$$$

     RDKit          3D

 26 25  0  0  0  0  0  0  0  0999 V2000
    1.0216   -1.0635   -2.9853 C   0  0  0  0  0  0  0  0  0  0  0  0
    1.0216   -1.0635   -1.6636 C   0  0  0  0  0  0  0  0  0  0  0  0
    1.0216   -0.1410   -3.5537 H   0  0  0  0  0  0  0  0  0  0  0  0
    1.0216   -1.9861   -3.5537 H   0  0  0  0  0  0  0  0  0  0  0  0
    1.0216    0.0436   -0.9815 H   0  0  0  0  0  0  0  0  0  0  0  0
    1.0216   -1.9861   -1.0952 H   0  0  0  0  0  0  0  0  0  0  0  0
    2.2841    1.1734    0.5707 C   0  0  0  0  0  0  0  0  0  0  0  0
    1.0216    1.1612   -0.2930 C   0  0  0  0  0  3  0  0  0  0  0  0
    0.5191    2.5826   -0.5516 C   0  0  0  0  0  0  0  0  0  0  0  0
   -0.0589    0.2884    0.3103 C   0  0  0  0  0  0  0  0  0  0  0  0
   -0.6131    0.5845    1.5537 C   0  0  0  0  0  0  0  0  0  0  0  0
   -1.6011   -0.2150    2.1036 C   0  0  0  0  0  0  0  0  0  0  0  0
   -2.0572   -1.3321    1.4183 C   0  0  0  0  0  0  0  0  0  0  0  0
   -1.5156   -1.6390    0.1811 C   0  0  0  0  0  0  0  0  0  0  0  0
   -0.5257   -0.8336   -0.3644 C   0  0  0  0  0  0  0  0  0  0  0  0
    2.6567    0.1616    0.7370 H   0  0  0  0  0  0  0  0  0  0  0  0
    3.0729    1.7558    0.0901 H   0  0  0  0  0  0  0  0  0  0  0  0
    2.0865    1.6221    1.5469 H   0  0  0  0  0  0  0  0  0  0  0  0
    0.2580    3.0821    0.3842 H   0  0  0  0  0  0  0  0  0  0  0  0
    1.2901    3.1792   -1.0436 H   0  0  0  0  0  0  0  0  0  0  0  0
   -0.3682    2.5768   -1.1864 H   0  0  0  0  0  0  0  0  0  0  0  0
   -0.2685    1.4534    2.1028 H   0  0  0  0  0  0  0  0  0  0  0  0
   -2.0177    0.0342    3.0717 H   0  0  0  0  0  0  0  0  0  0  0  0
   -2.8296   -1.9578    1.8473 H   0  0  0  0  0  0  0  0  0  0  0  0
   -1.8630   -2.5080   -0.3638 H   0  0  0  0  0  0  0  0  0  0  0  0
   -0.1076   -1.0819   -1.3336 H   0  0  0  0  0  0  0  0  0  0  0  0
  1  2  2  3
  1  3  1  0
  1  4  1  0
  2  5  1  0
  2  6  1  0
  7  8  1  0
  7 16  1  0
  7 17  1  0
  7 18  1  0
  8  9  1  0
  8 10  1  0
  9 19  1  0
  9 20  1  0
  9 21  1  0
 10 11  2  0
 10 15  1  0
 11 12  1  0
 11 22  1  0
 12 13  2  0
 12 23  1  0
 13 14  1  0
 13 24  1  0
 14 15  2  0
 14 25  1  0
 15 26  1  0
M  RAD  1   8   2
M  END
>  <reaction>  (11) 
rxn_1581

>  <mol_properties>  (11) 
{"0": {"label": "*4", "atom_type": "Cd"}, "1": {"label": "*3", "atom_type": "Cd"}, "4": {"label": "*2", "atom_type": "H0"}, "7": {"label": "*1", "atom_type": "Cs"}, "9": {"label": "*0", "atom_type": "Cd"}}

>  <type>  (11) 
unop_7

>  <geom_source>  (11) 
Heuristics

$$$$

     RDKit          3D

 26 25  0  0  0  0  0  0  0  0999 V2000
   -0.8316   -2.9521   -2.4971 C   0  0  0  0  0  0  0  0  0  0  0  0
   -0.8316   -2.9521   -1.1754 C   0  0  0  0  0  0  0  0  0  0  0  0
   -0.8316   -2.0295   -3.0655 H   0  0  0  0  0  0  0  0  0  0  0  0
   -0.8316   -3.8747   -3.0655 H   0  0  0  0  0  0  0  0  0  0  0  0
   -0.8316   -1.8450   -0.4933 H   0  0  0  0  0  0  0  0  0  0  0  0
   -0.8316   -3.8747   -0.6070 H   0  0  0  0  0  0  0  0  0  0  0  0
   -2.2894   -0.3328    0.4383 C   0  0  0  0  0  0  0  0  0  0  0  0
   -0.8316   -0.7274    0.1952 C   0  0  0  0  0  3  0  0  0  0  0  0
   -0.3909   -1.8262    1.1639 C   0  0  0  0  0  0  0  0  0  0  0  0
    0.0893    0.4732    0.2569 C   0  0  0  0  0  0  0  0  0  0  0  0
    0.2263    1.2162    1.4274 C   0  0  0  0  0  0  0  0  0  0  0  0
    1.0690    2.3138    1.4817 C   0  0  0  0  0  0  0  0  0  0  0  0
    1.7951    2.6927    0.3615 C   0  0  0  0  0  0  0  0  0  0  0  0
    1.6690    1.9635   -0.8093 C   0  0  0  0  0  0  0  0  0  0  0  0
    0.8228    0.8646   -0.8570 C   0  0  0  0  0  0  0  0  0  0  0  0
   -2.6120    0.4346   -0.2668 H   0  0  0  0  0  0  0  0  0  0  0  0
   -2.9454   -1.1988    0.3281 H   0  0  0  0  0  0  0  0  0  0  0  0
   -2.4253    0.0616    1.4480 H   0  0  0  0  0  0  0  0  0  0  0  0
   -0.4584   -1.4855    2.1997 H   0  0  0  0  0  0  0  0  0  0  0  0
   -1.0277   -2.7073    1.0611 H   0  0  0  0  0  0  0  0  0  0  0  0
    0.6416   -2.1247    0.9768 H   0  0  0  0  0  0  0  0  0  0  0  0
   -0.3335    0.9343    2.3119 H   0  0  0  0  0  0  0  0  0  0  0  0
    1.1601    2.8770    2.4023 H   0  0  0  0  0  0  0  0  0  0  0  0
    2.4541    3.5506    0.4029 H   0  0  0  0  0  0  0  0  0  0  0  0
    2.2303    2.2489   -1.6904 H   0  0  0  0  0  0  0  0  0  0  0  0
    0.7306    0.2999   -1.7781 H   0  0  0  0  0  0  0  0  0  0  0  0
  1  2  2  3
  1  3  1  0
  1  4  1  0
  2  5  1  0
  2  6  1  0
  7  8  1  0
  7 16  1  0
  7 17  1  0
  7 18  1  0
  8  9  1  0
  8 10  1  0
  9 19  1  0
  9 20  1  0
  9 21  1  0
 10 11  2  0
 10 15  1  0
 11 12  1  0
 11 22  1  0
 12 13  2  0
 12 23  1  0
 13 14  1  0
 13 24  1  0
 14 15  2  0
 14 25  1  0
 15 26  1  0
M  RAD  1   8   2
M  END
>  <reaction>  (12) 
rxn_1581

>  <mol_properties>  (12) 
{"0": {"label": "*4", "atom_type": "Cd"}, "1": {"label": "*3", "atom_type": "Cd"}, "4": {"label": "*2", "atom_type": "H0"}, "7": {"label": "*1", "atom_type": "Cs"}, "9": {"label": "*0", "atom_type": "Cd"}}

>  <type>  (12) 
unop_8

>  <geom_source>  (12) 
Heuristics

$$$$

     RDKit          3D

 26 25  0  0  0  0  0  0  0  0999 V2000
   -0.8657   -1.3582   -3.3568 C   0  0  0  0  0  0  0  0  0  0  0  0
   -0.8657   -1.3582   -2.0351 C   0  0  0  0  0  0  0  0  0  0  0  0
   -0.8657   -0.4356   -3.9252 H   0  0  0  0  0  0  0  0  0  0  0  0
   -0.8657   -2.2808   -3.9252 H   0  0  0  0  0  0  0  0  0  0  0  0
   -0.8657   -0.2511   -1.3530 H   0  0  0  0  0  0  0  0  0  0  0  0
   -0.8657   -2.2808   -1.4667 H   0  0  0  0  0  0  0  0  0  0  0  0
   -0.1367    1.9233   -1.4963 C   0  0  0  0  0  0  0  0  0  0  0  0
   -0.8657    0.8665   -0.6645 C   0  0  0  0  0  3  0  0  0  0  0  0
   -2.1437    1.4380   -0.0479 C   0  0  0  0  0  0  0  0  0  0  0  0
    0.0400    0.2624    0.3881 C   0  0  0  0  0  0  0  0  0  0  0  0
    0.5844    1.0445    1.4044 C   0  0  0  0  0  0  0  0  0  0  0  0
    1.4125    0.4901    2.3661 C   0  0  0  0  0  0  0  0  0  0  0  0
    1.7145   -0.8639    2.3309 C   0  0  0  0  0  0  0  0  0  0  0  0
    1.1806   -1.6538    1.3264 C   0  0  0  0  0  0  0  0  0  0  0  0
    0.3515   -1.0920    0.3658 C   0  0  0  0  0  0  0  0  0  0  0  0
    0.7629    1.5108   -1.9553 H   0  0  0  0  0  0  0  0  0  0  0  0
   -0.7847    2.3023   -2.2893 H   0  0  0  0  0  0  0  0  0  0  0  0
    0.1624    2.7717   -0.8765 H   0  0  0  0  0  0  0  0  0  0  0  0
   -1.9167    2.2690    0.6239 H   0  0  0  0  0  0  0  0  0  0  0  0
   -2.8119    1.8121   -0.8263 H   0  0  0  0  0  0  0  0  0  0  0  0
   -2.6765    0.6791    0.5269 H   0  0  0  0  0  0  0  0  0  0  0  0
    0.3589    2.1040    1.4470 H   0  0  0  0  0  0  0  0  0  0  0  0
    1.8246    1.1170    3.1472 H   0  0  0  0  0  0  0  0  0  0  0  0
    2.3618   -1.2982    3.0822 H   0  0  0  0  0  0  0  0  0  0  0  0
    1.4086   -2.7118    1.2879 H   0  0  0  0  0  0  0  0  0  0  0  0
   -0.0619   -1.7185   -0.4169 H   0  0  0  0  0  0  0  0  0  0  0  0
  1  2  2  3
  1  3  1  0
  1  4  1  0
  2  5  1  0
  2  6  1  0
  7  8  1  0
  7 16  1  0
  7 17  1  0
  7 18  1  0
  8  9  1  0
  8 10  1  0
  9 19  1  0
  9 20  1  0
  9 21  1  0
 10 11  2  0
 10 15  1  0
 11 12  1  0
 11 22  1  0
 12 13  2  0
 12 23  1  0
 13 14  1  0
 13 24  1  0
 14 15  2  0
 14 25  1  0
 15 26  1  0
M  RAD  1   8   2
M  END
>  <reaction>  (13) 
rxn_1581

>  <mol_properties>  (13) 
{"0": {"label": "*4", "atom_type": "Cd"}, "1": {"label": "*3", "atom_type": "Cd"}, "4": {"label": "*2", "atom_type": "H0"}, "7": {"label": "*1", "atom_type": "Cs"}, "9": {"label": "*0", "atom_type": "Cd"}}

>  <type>  (13) 
unop_9

>  <geom_source>  (13) 
Heuristics

$$$$

     RDKit          3D

 26 25  0  0  0  0  0  0  0  0999 V2000
   -0.9998   -2.7260   -2.7502 C   0  0  0  0  0  0  0  0  0  0  0  0
   -0.9998   -2.7260   -1.4285 C   0  0  0  0  0  0  0  0  0  0  0  0
   -0.9998   -1.8034   -3.3186 H   0  0  0  0  0  0  0  0  0  0  0  0
   -0.9998   -3.6486   -3.3186 H   0  0  0  0  0  0  0  0  0  0  0  0
   -0.9998   -1.6189   -0.7464 H   0  0  0  0  0  0  0  0  0  0  0  0
   -0.9998   -3.6486   -0.8601 H   0  0  0  0  0  0  0  0  0  0  0  0
   -2.2623    0.2756   -0.4354 C   0  0  0  0  0  0  0  0  0  0  0  0
   -0.9998   -0.5013   -0.0579 C   0  0  0  0  0  3  0  0  0  0  0  0
   -1.2851   -1.5022    1.0631 C   0  0  0  0  0  0  0  0  0  0  0  0
    0.1410    0.4278    0.3005 C   0  0  0  0  0  0  0  0  0  0  0  0
    0.0497    1.2941    1.3878 C   0  0  0  0  0  0  0  0  0  0  0  0
    1.0941    2.1430    1.7138 C   0  0  0  0  0  0  0  0  0  0  0  0
    2.2565    2.1431    0.9559 C   0  0  0  0  0  0  0  0  0  0  0  0
    2.3616    1.2872   -0.1280 C   0  0  0  0  0  0  0  0  0  0  0  0
    1.3113    0.4390   -0.4493 C   0  0  0  0  0  0  0  0  0  0  0  0
   -2.0656    0.9736   -1.2504 H   0  0  0  0  0  0  0  0  0  0  0  0
   -3.0538   -0.4074   -0.7509 H   0  0  0  0  0  0  0  0  0  0  0  0
   -2.6374    0.8502    0.4146 H   0  0  0  0  0  0  0  0  0  0  0  0
   -1.6251   -0.9915    1.9670 H   0  0  0  0  0  0  0  0  0  0  0  0
   -2.0668   -2.2031    0.7628 H   0  0  0  0  0  0  0  0  0  0  0  0
   -0.3910   -2.0731    1.3178 H   0  0  0  0  0  0  0  0  0  0  0  0
   -0.8511    1.3072    1.9906 H   0  0  0  0  0  0  0  0  0  0  0  0
    1.0013    2.8082    2.5635 H   0  0  0  0  0  0  0  0  0  0  0  0
    3.0736    2.8063    1.2100 H   0  0  0  0  0  0  0  0  0  0  0  0
    3.2635    1.2776   -0.7274 H   0  0  0  0  0  0  0  0  0  0  0  0
    1.4028   -0.2275   -1.2997 H   0  0  0  0  0  0  0  0  0  0  0  0
  1  2  2  3
  1  3  1  0
  1  4  1  0
  2  5  1  0
  2  6  1  0
  7  8  1  0
  7 16  1  0
  7 17  1  0
  7 18  1  0
  8  9  1  0
  8 10  1  0
  9 19  1  0
  9 20  1  0
  9 21  1  0
 10 11  2  0
 10 15  1  0
 11 12  1  0
 11 22  1  0
 12 13  2  0
 12 23  1  0
 13 14  1  0
 13 24  1  0
 14 15  2  0
 14 25  1  0
 15 26  1  0
M  RAD  1   8   2
M  END
>  <reaction>  (14) 
rxn_1581

>  <mol_properties>  (14) 
{"0": {"label": "*4", "atom_type": "Cd"}, "1": {"label": "*3", "atom_type": "Cd"}, "4": {"label": "*2", "atom_type": "H0"}, "7": {"label": "*1", "atom_type": "Cs"}, "9": {"label": "*0", "atom_type": "Cd"}}

>  <type>  (14) 
unop_10

>  <geom_source>  (14) 
Heuristics

$$$$

     RDKit          3D

 26 25  0  0  0  0  0  0  0  0999 V2000
    1.4089   -1.6544   -2.5149 C   0  0  0  0  0  0  0  0  0  0  0  0
    1.4089   -1.6544   -1.1932 C   0  0  0  0  0  0  0  0  0  0  0  0
    1.4089   -0.7318   -3.0833 H   0  0  0  0  0  0  0  0  0  0  0  0
    1.4089   -2.5769   -3.0833 H   0  0  0  0  0  0  0  0  0  0  0  0
    1.4089   -0.5473   -0.5111 H   0  0  0  0  0  0  0  0  0  0  0  0
    1.4089   -2.5769   -0.6248 H   0  0  0  0  0  0  0  0  0  0  0  0
    2.1378    0.3027    1.4954 C   0  0  0  0  0  0  0  0  0  0  0  0
    1.4089    0.5704    0.1774 C   0  0  0  0  0  3  0  0  0  0  0  0
    1.6909    1.9861   -0.3287 C   0  0  0  0  0  0  0  0  0  0  0  0
   -0.0773    0.3064    0.2980 C   0  0  0  0  0  0  0  0  0  0  0  0
   -0.8710    1.0444    1.1735 C   0  0  0  0  0  0  0  0  0  0  0  0
   -2.2300    0.8015    1.2823 C   0  0  0  0  0  0  0  0  0  0  0  0
   -2.8259   -0.1889    0.5143 C   0  0  0  0  0  0  0  0  0  0  0  0
   -2.0495   -0.9306   -0.3604 C   0  0  0  0  0  0  0  0  0  0  0  0
   -0.6881   -0.6821   -0.4647 C   0  0  0  0  0  0  0  0  0  0  0  0
    1.9560   -0.7143    1.8459 H   0  0  0  0  0  0  0  0  0  0  0  0
    3.2146    0.4371    1.3732 H   0  0  0  0  0  0  0  0  0  0  0  0
    1.8026    0.9905    2.2751 H   0  0  0  0  0  0  0  0  0  0  0  0
    1.3396    2.7345    0.3853 H   0  0  0  0  0  0  0  0  0  0  0  0
    2.7631    2.1375   -0.4693 H   0  0  0  0  0  0  0  0  0  0  0  0
    1.1901    2.1707   -1.2802 H   0  0  0  0  0  0  0  0  0  0  0  0
   -0.4218    1.8218    1.7809 H   0  0  0  0  0  0  0  0  0  0  0  0
   -2.8278    1.3874    1.9695 H   0  0  0  0  0  0  0  0  0  0  0  0
   -3.8883   -0.3796    0.5987 H   0  0  0  0  0  0  0  0  0  0  0  0
   -2.5026   -1.7063   -0.9653 H   0  0  0  0  0  0  0  0  0  0  0  0
   -0.0884   -1.2680   -1.1523 H   0  0  0  0  0  0  0  0  0  0  0  0
  1  2  2  3
  1  3  1  0
  1  4  1  0
  2  5  1  0
  2  6  1  0
  7  8  1  0
  7 16  1  0
  7 17  1  0
  7 18  1  0
  8  9  1  0
  8 10  1  0
  9 19  1  0
  9 20  1  0
  9 21  1  0
 10 11  2  0
 10 15  1  0
 11 12  1  0
 11 22  1  0
 12 13  2  0
 12 23  1  0
 13 14  1  0
 13 24  1  0
 14 15  2  0
 14 25  1  0
 15 26  1  0
M  RAD  1   8   2
M  END
>  <reaction>  (15) 
rxn_1581

>  <mol_properties>  (15) 
{"0": {"label": "*4", "atom_type": "Cd"}, "1": {"label": "*3", "atom_type": "Cd"}, "4": {"label": "*2", "atom_type": "H0"}, "7": {"label": "*1", "atom_type": "Cs"}, "9": {"label": "*0", "atom_type": "Cd"}}

>  <type>  (15) 
unop_11

>  <geom_source>  (15) 
Heuristics

$$$$

     RDKit          3D

 26 25  0  0  0  0  0  0  0  0999 V2000
   -1.1437   -1.9225   -3.1593 C   0  0  0  0  0  0  0  0  0  0  0  0
   -1.1437   -1.9225   -1.8376 C   0  0  0  0  0  0  0  0  0  0  0  0
   -1.1436   -0.9999   -3.7277 H   0  0  0  0  0  0  0  0  0  0  0  0
   -1.1437   -2.8450   -3.7277 H   0  0  0  0  0  0  0  0  0  0  0  0
   -1.1437   -0.8153   -1.1555 H   0  0  0  0  0  0  0  0  0  0  0  0
   -1.1437   -2.8450   -1.2692 H   0  0  0  0  0  0  0  0  0  0  0  0
   -1.1437    1.4615   -1.4651 C   0  0  0  0  0  0  0  0  0  0  0  0
   -1.1437    0.3023   -0.4670 C   0  0  0  0  0  3  0  0  0  0  0  0
   -2.4091    0.3171    0.3924 C   0  0  0  0  0  0  0  0  0  0  0  0
    0.1089    0.2985    0.3840 C   0  0  0  0  0  0  0  0  0  0  0  0
    0.4025    1.3596    1.2378 C   0  0  0  0  0  0  0  0  0  0  0  0
    1.5486    1.3542    2.0152 C   0  0  0  0  0  0  0  0  0  0  0  0
    2.4285    0.2828    1.9545 C   0  0  0  0  0  0  0  0  0  0  0  0
    2.1496   -0.7792    1.1103 C   0  0  0  0  0  0  0  0  0  0  0  0
    0.9994   -0.7676    0.3339 C   0  0  0  0  0  0  0  0  0  0  0  0
   -0.2526    1.4389   -2.0941 H   0  0  0  0  0  0  0  0  0  0  0  0
   -2.0224    1.4121   -2.1115 H   0  0  0  0  0  0  0  0  0  0  0  0
   -1.1642    2.4235   -0.9480 H   0  0  0  0  0  0  0  0  0  0  0  0
   -2.4751    1.2380    0.9763 H   0  0  0  0  0  0  0  0  0  0  0  0
   -3.3006    0.2562   -0.2353 H   0  0  0  0  0  0  0  0  0  0  0  0
   -2.4212   -0.5223    1.0892 H   0  0  0  0  0  0  0  0  0  0  0  0
   -0.2738    2.2046    1.2976 H   0  0  0  0  0  0  0  0  0  0  0  0
    1.7569    2.1898    2.6719 H   0  0  0  0  0  0  0  0  0  0  0  0
    3.3246    0.2776    2.5619 H   0  0  0  0  0  0  0  0  0  0  0  0
    2.8282   -1.6213    1.0538 H   0  0  0  0  0  0  0  0  0  0  0  0
    0.7895   -1.6035   -0.3241 H   0  0  0  0  0  0  0  0  0  0  0  0
  1  2  2  3
  1  3  1  0
  1  4  1  0
  2  5  1  0
  2  6  1  0
  7  8  1  0
  7 16  1  0
  7 17  1  0
  7 18  1  0
  8  9  1  0
  8 10  1  0
  9 19  1  0
  9 20  1  0
  9 21  1  0
 10 11  2  0
 10 15  1  0
 11 12  1  0
 11 22  1  0
 12 13  2  0
 12 23  1  0
 13 14  1  0
 13 24  1  0
 14 15  2  0
 14 25  1  0
 15 26  1  0
M  RAD  1   8   2
M  END
>  <reaction>  (16) 
rxn_1581

>  <mol_properties>  (16) 
{"0": {"label": "*4", "atom_type": "Cd"}, "1": {"label": "*3", "atom_type": "Cd"}, "4": {"label": "*2", "atom_type": "H0"}, "7": {"label": "*1", "atom_type": "Cs"}, "9": {"label": "*0", "atom_type": "Cd"}}

>  <type>  (16) 
unop_12

>  <geom_source>  (16) 
Heuristics

$$$$

     RDKit          3D

 26 25  0  0  0  0  0  0  0  0999 V2000
   -0.7205   -0.6960   -0.0395 C   0  0  0  0  0  3  0  0  0  0  0  0
   -0.8323   -1.8421    0.9705 C   0  0  0  0  0  0  0  0  0  0  0  0
   -1.2106   -1.1287   -1.4248 C   0  0  0  0  0  0  0  0  0  0  0  0
    0.6938   -0.1569   -0.1023 C   0  0  0  0  0  0  0  0  0  0  0  0
    0.9501    1.1783    0.2549 C   0  0  0  0  0  0  0  0  0  0  0  0
    1.7672   -0.9713   -0.5144 C   0  0  0  0  0  0  0  0  0  0  0  0
    2.2513    1.6880    0.2012 C   0  0  0  0  0  0  0  0  0  0  0  0
    3.3080    0.8717   -0.2088 C   0  0  0  0  0  0  0  0  0  0  0  0
    3.0660   -0.4566   -0.5662 C   0  0  0  0  0  0  0  0  0  0  0  0
   -2.4514    2.0628    0.8820 C   0  0  0  0  0  0  0  0  0  0  0  0
   -2.7265    0.7809    0.6592 C   0  0  0  0  0  0  0  0  0  0  0  0
   -1.6159    0.3470    0.4125 H   0  0  0  0  0  0  0  0  0  0  0  0
   -0.4740   -1.5045    1.9662 H   0  0  0  0  0  0  0  0  0  0  0  0
   -0.2345   -2.7213    0.6494 H   0  0  0  0  0  0  0  0  0  0  0  0
   -1.8939   -2.1517    1.0716 H   0  0  0  0  0  0  0  0  0  0  0  0
   -2.2795   -1.4245   -1.3697 H   0  0  0  0  0  0  0  0  0  0  0  0
   -1.1222   -0.2821   -2.1383 H   0  0  0  0  0  0  0  0  0  0  0  0
   -0.6227   -1.9892   -1.8090 H   0  0  0  0  0  0  0  0  0  0  0  0
    0.1470    1.8293    0.5756 H   0  0  0  0  0  0  0  0  0  0  0  0
    2.4403    2.7172    0.4779 H   0  0  0  0  0  0  0  0  0  0  0  0
    1.6011   -2.0031   -0.7955 H   0  0  0  0  0  0  0  0  0  0  0  0
    4.3142    1.2684   -0.2495 H   0  0  0  0  0  0  0  0  0  0  0  0
    3.8855   -1.0884   -0.8837 H   0  0  0  0  0  0  0  0  0  0  0  0
   -3.0647    2.8406    0.4385 H   0  0  0  0  0  0  0  0  0  0  0  0
   -1.6098    2.3333    1.5100 H   0  0  0  0  0  0  0  0  0  0  0  0
   -3.5663    0.4990    0.0324 H   0  0  0  0  0  0  0  0  0  0  0  0
  1  2  1  0
  1  3  1  0
  1  4  1  0
  2 13  1  0
  2 14  1  0
  2 15  1  0
  3 16  1  0
  3 17  1  0
  3 18  1  0
  4  5  2  0
  4  6  1  0
  5  7  1  0
  5 19  1  0
  6  9  2  0
  6 21  1  0
  7  8  2  0
  7 20  1  0
  8  9  1  0
  8 22  1  0
  9 23  1  0
 10 11  2  3
 10 24  1  0
 10 25  1  0
 11 12  1  0
 11 26  1  0
M  RAD  1   1   2
M  END
>  <reaction>  (17) 
rxn_1581

>  <mol_properties>  (17) 
{"0": {"label": "*4", "atom_type": "Cd"}, "1": {"label": "*3", "atom_type": "Cd"}, "4": {"label": "*2", "atom_type": "H0"}, "7": {"label": "*1", "atom_type": "Cs"}, "9": {"label": "*0", "atom_type": "Cd"}}

>  <type>  (17) 
unop_13

>  <geom_source>  (17) 
AutoTST

$$$$

     RDKit          3D

 26 25  0  0  0  0  0  0  0  0999 V2000
   -1.1239   -2.4113   -2.9512 C   0  0  0  0  0  0  0  0  0  0  0  0
   -1.1239   -2.4113   -1.6295 C   0  0  0  0  0  0  0  0  0  0  0  0
   -1.1239   -1.4887   -3.5196 H   0  0  0  0  0  0  0  0  0  0  0  0
   -1.1239   -3.3339   -3.5196 H   0  0  0  0  0  0  0  0  0  0  0  0
   -1.1239   -1.3042   -0.9474 H   0  0  0  0  0  0  0  0  0  0  0  0
   -1.1239   -3.3339   -1.0611 H   0  0  0  0  0  0  0  0  0  0  0  0
   -1.8528    0.8702   -1.0907 C   0  0  0  0  0  0  0  0  0  0  0  0
   -1.1239   -0.1866   -0.2589 C   0  0  0  0  0  3  0  0  0  0  0  0
   -2.0473   -0.7803    0.8064 C   0  0  0  0  0  0  0  0  0  0  0  0
    0.1494    0.3627    0.3495 C   0  0  0  0  0  0  0  0  0  0  0  0
    0.1159    1.4152    1.2617 C   0  0  0  0  0  0  0  0  0  0  0  0
    1.2815    1.9160    1.8169 C   0  0  0  0  0  0  0  0  0  0  0  0
    2.5101    1.3722    1.4697 C   0  0  0  0  0  0  0  0  0  0  0  0
    2.5589    0.3255    0.5641 C   0  0  0  0  0  0  0  0  0  0  0  0
    1.3872   -0.1718    0.0114 C   0  0  0  0  0  0  0  0  0  0  0  0
   -1.2023    1.2782   -1.8657 H   0  0  0  0  0  0  0  0  0  0  0  0
   -2.7335    0.4401   -1.5721 H   0  0  0  0  0  0  0  0  0  0  0  0
   -2.1877    1.6997   -0.4637 H   0  0  0  0  0  0  0  0  0  0  0  0
   -2.3891   -0.0101    1.5017 H   0  0  0  0  0  0  0  0  0  0  0  0
   -2.9299   -1.2271    0.3441 H   0  0  0  0  0  0  0  0  0  0  0  0
   -1.5356   -1.5504    1.3856 H   0  0  0  0  0  0  0  0  0  0  0  0
   -0.8352    1.8518    1.5441 H   0  0  0  0  0  0  0  0  0  0  0  0
    1.2319    2.7348    2.5241 H   0  0  0  0  0  0  0  0  0  0  0  0
    3.4219    1.7631    1.9032 H   0  0  0  0  0  0  0  0  0  0  0  0
    3.5115   -0.1076    0.2849 H   0  0  0  0  0  0  0  0  0  0  0  0
    1.4354   -0.9915   -0.6969 H   0  0  0  0  0  0  0  0  0  0  0  0
  1  2  2  3
  1  3  1  0
  1  4  1  0
  2  5  1  0
  2  6  1  0
  7  8  1  0
  7 16  1  0
  7 17  1  0
  7 18  1  0
  8  9  1  0
  8 10  1  0
  9 19  1  0
  9 20  1  0
  9 21  1  0
 10 11  2  0
 10 15  1  0
 11 12  1  0
 11 22  1  0
 12 13  2  0
 12 23  1  0
 13 14  1  0
 13 24  1  0
 14 15  2  0
 14 25  1  0
 15 26  1  0
M  RAD  1   8   2
M  END
>  <reaction>  (18) 
rxn_1581

>  <mol_properties>  (18) 
{"0": {"label": "*4", "atom_type": "Cd"}, "1": {"label": "*3", "atom_type": "Cd"}, "4": {"label": "*2", "atom_type": "H0"}, "7": {"label": "*1", "atom_type": "Cs"}, "9": {"label": "*0", "atom_type": "Cd"}}

>  <type>  (18) 
unop_14

>  <geom_source>  (18) 
gaussian_log

$$$$
