
     RDKit          3D

 13 12  0  0  0  0  0  0  0  0999 V2000
    2.2975   -0.6134    0.7685 C   0  0  0  0  0  0  0  0  0  0  0  0
    1.1676   -0.5248    0.3802 C   0  0  0  0  0  0  0  0  0  0  0  0
   -0.2109   -0.3926   -0.0948 C   0  0  0  0  0  0  0  0  0  0  0  0
   -0.2501    0.2584   -1.4808 C   0  0  0  0  0  0  0  0  0  0  0  0
   -1.0633    0.3831    0.9141 C   0  0  0  0  0  0  0  0  0  0  0  0
    3.2999   -0.6974    1.1133 H   0  0  0  0  0  0  0  0  0  0  0  0
   -0.6209   -1.4038   -0.1814 H   0  0  0  0  0  0  0  0  0  0  0  0
    0.3402   -0.3102   -2.1992 H   0  0  0  0  0  0  0  0  0  0  0  0
    0.1511    1.2724   -1.4369 H   0  0  0  0  0  0  0  0  0  0  0  0
   -1.2791    0.3109   -1.8407 H   0  0  0  0  0  0  0  0  0  0  0  0
   -0.6861    1.4008    1.0287 H   0  0  0  0  0  0  0  0  0  0  0  0
   -1.0492   -0.0971    1.8924 H   0  0  0  0  0  0  0  0  0  0  0  0
   -2.0971    0.4363    0.5680 H   0  0  0  0  0  0  0  0  0  0  0  0
  1  2  3  0
  1  6  1  0
  2  3  1  0
  3  4  1  0
  3  5  1  0
  3  7  1  0
  4  8  1  0
  4  9  1  0
  4 10  1  0
  5 11  1  0
  5 12  1  0
  5 13  1  0
M  END
>  <reaction>  (1) 
rxn_1304

>  <mol_properties>  (1) 
{"2": {"label": "donator", "atom_type": "Cs"}, "6": {"label": "d_hydrogen", "atom_type": "H0"}}

>  <type>  (1) 
r1h

$$$$

     RDKit          3D

 10  9  0  0  0  0  0  0  0  0999 V2000
    1.2930    0.1441    0.3288 C   0  0  0  0  0  0  0  0  0  0  0  0
   -0.0374   -0.1647    0.9100 C   0  0  0  0  0  3  0  0  0  0  0  0
   -1.2664    0.4569    0.3567 C   0  0  0  0  0  0  0  0  0  0  0  0
    1.4384    1.2242    0.2174 H   0  0  0  0  0  0  0  0  0  0  0  0
    2.1077   -0.2477    0.9385 H   0  0  0  0  0  0  0  0  0  0  0  0
    1.4057   -0.2836   -0.6789 H   0  0  0  0  0  0  0  0  0  0  0  0
   -0.1309   -0.9912    1.6030 H   0  0  0  0  0  0  0  0  0  0  0  0
   -1.5005    0.0716   -0.6471 H   0  0  0  0  0  0  0  0  0  0  0  0
   -2.1382    0.2713    0.9849 H   0  0  0  0  0  0  0  0  0  0  0  0
   -1.1497    1.5406    0.2456 H   0  0  0  0  0  0  0  0  0  0  0  0
  1  2  1  0
  1  4  1  0
  1  5  1  0
  1  6  1  0
  2  3  1  0
  2  7  1  0
  3  8  1  0
  3  9  1  0
  3 10  1  0
M  RAD  1   2   2
M  END
>  <reaction>  (2) 
rxn_1304

>  <mol_properties>  (2) 
{"1": {"label": "acceptor", "atom_type": "Cs"}}

>  <type>  (2) 
r2

$$$$

     RDKit          3D

 11 10  0  0  0  0  0  0  0  0999 V2000
   -1.2710    0.1907   -0.2084 C   0  0  0  0  0  0  0  0  0  0  0  0
    0.0202   -0.6130   -0.2928 C   0  0  0  0  0  0  0  0  0  0  0  0
    0.1086   -1.6953    0.7756 C   0  0  0  0  0  0  0  0  0  0  0  0
   -1.3607    0.6851    0.7620 H   0  0  0  0  0  0  0  0  0  0  0  0
   -2.1429   -0.4567   -0.3299 H   0  0  0  0  0  0  0  0  0  0  0  0
   -1.3158    0.9602   -0.9809 H   0  0  0  0  0  0  0  0  0  0  0  0
    0.8757    0.0616   -0.1992 H   0  0  0  0  0  0  0  0  0  0  0  0
    0.0997   -1.0712   -1.2825 H   0  0  0  0  0  0  0  0  0  0  0  0
   -0.7198   -2.4022    0.6850 H   0  0  0  0  0  0  0  0  0  0  0  0
    1.0395   -2.2596    0.6989 H   0  0  0  0  0  0  0  0  0  0  0  0
    0.0624   -1.2603    1.7770 H   0  0  0  0  0  0  0  0  0  0  0  0
  1  2  1  0
  1  4  1  0
  1  5  1  0
  1  6  1  0
  2  3  1  0
  2  7  1  0
  2  8  1  0
  3  9  1  0
  3 10  1  0
  3 11  1  0
M  END
>  <reaction>  (3) 
rxn_1304

>  <mol_properties>  (3) 
{"0": {"label": "a_hydrogen", "atom_type": "H0"}, "2": {"label": "acceptor", "atom_type": "Cs"}}

>  <type>  (3) 
r2h

$$$$

     RDKit          3D

 23 21  0  0  0  0  0  0  0  0999 V2000
   -0.5853    0.5738   -2.4208 C   0  0  0  0  0  0  0  0  0  0  0  0
   -0.3058    0.7972   -1.2725 C   0  0  0  0  0  0  0  0  0  0  0  0
    0.0264    1.0038    0.1083 C   0  0  0  0  0  0  0  0  0  0  0  0
   -1.0559    1.6986    0.9140 C   0  0  0  0  0  0  0  0  0  0  0  0
    1.4247    1.5466    0.3399 C   0  0  0  0  0  0  0  0  0  0  0  0
   -0.8320    0.3929   -3.4389 H   0  0  0  0  0  0  0  0  0  0  0  0
    0.0689   -0.1889    0.6078 H   0  0  0  0  0  0  0  0  0  0  0  0
   -2.0261    1.2266    0.7574 H   0  0  0  0  0  0  0  0  0  0  0  0
   -1.1420    2.7513    0.6299 H   0  0  0  0  0  0  0  0  0  0  0  0
   -0.8168    1.6543    1.9788 H   0  0  0  0  0  0  0  0  0  0  0  0
    1.4991    2.5894    0.0186 H   0  0  0  0  0  0  0  0  0  0  0  0
    2.1664    0.9697   -0.2129 H   0  0  0  0  0  0  0  0  0  0  0  0
    1.6725    1.5017    1.4026 H   0  0  0  0  0  0  0  0  0  0  0  0
    1.1783   -2.1373    0.2395 C   0  0  0  0  0  0  0  0  0  0  0  0
    0.0951   -1.5116    1.0712 C   0  0  0  0  0  3  0  0  0  0  0  0
   -1.3073   -1.9849    0.8148 C   0  0  0  0  0  0  0  0  0  0  0  0
    0.9762   -1.9951   -0.8256 H   0  0  0  0  0  0  0  0  0  0  0  0
    2.1559   -1.7058    0.4599 H   0  0  0  0  0  0  0  0  0  0  0  0
    1.2441   -3.2170    0.4190 H   0  0  0  0  0  0  0  0  0  0  0  0
    0.3462   -1.3948    2.1251 H   0  0  0  0  0  0  0  0  0  0  0  0
   -1.4126   -3.0541    1.0339 H   0  0  0  0  0  0  0  0  0  0  0  0
   -2.0324   -1.4490    1.4293 H   0  0  0  0  0  0  0  0  0  0  0  0
   -1.5770   -1.8385   -0.2346 H   0  0  0  0  0  0  0  0  0  0  0  0
  1  2  3  0
  1  6  1  0
  2  3  1  0
  3  4  1  0
  3  5  1  0
  3  7  1  0
  4  8  1  0
  4  9  1  0
  4 10  1  0
  5 11  1  0
  5 12  1  0
  5 13  1  0
 14 15  1  0
 14 17  1  0
 14 18  1  0
 14 19  1  0
 15 16  1  0
 15 20  1  0
 16 21  1  0
 16 22  1  0
 16 23  1  0
M  RAD  1  15   2
M  END
>  <reaction>  (4) 
rxn_1304

>  <mol_properties>  (4) 
{"1": {"label": "*0", "atom_type": "Ct"}, "2": {"label": "*1", "atom_type": "Cs"}, "6": {"label": "*2", "atom_type": "H0"}, "13": {"label": "*4", "atom_type": "Cs"}, "14": {"label": "*3", "atom_type": "Cs"}}

>  <type>  (4) 
ts

$$$$

     RDKit          3D

 23 21  0  0  0  0  0  0  0  0999 V2000
   -0.0803    0.9822   -2.7047 C   0  0  0  0  0  0  0  0  0  0  0  0
   -0.0803    0.9822   -1.5066 C   0  0  0  0  0  0  0  0  0  0  0  0
   -0.0803    1.0062   -0.0428 C   0  0  0  0  0  3  0  0  0  0  0  0
   -1.3465    1.6826    0.4915 C   0  0  0  0  0  0  0  0  0  0  0  0
    1.1858    1.6826    0.4915 C   0  0  0  0  0  0  0  0  0  0  0  0
   -0.0803    0.9822   -3.7680 H   0  0  0  0  0  0  0  0  0  0  0  0
   -0.0804   -0.2425    0.3651 H   0  0  0  0  0  0  0  0  0  0  0  0
   -2.2435    1.1833    0.1256 H   0  0  0  0  0  0  0  0  0  0  0  0
   -1.3838    2.7261    0.1740 H   0  0  0  0  0  0  0  0  0  0  0  0
   -1.3538    1.6546    1.5826 H   0  0  0  0  0  0  0  0  0  0  0  0
    1.2232    2.7261    0.1740 H   0  0  0  0  0  0  0  0  0  0  0  0
    2.0828    1.1833    0.1256 H   0  0  0  0  0  0  0  0  0  0  0  0
    1.1931    1.6546    1.5826 H   0  0  0  0  0  0  0  0  0  0  0  0
    1.1636   -1.7489    1.6127 C   0  0  0  0  0  0  0  0  0  0  0  0
   -0.0804   -1.4899    0.7725 C   0  0  0  0  0  0  0  0  0  0  0  0
   -0.7132   -2.7733    0.2502 C   0  0  0  0  0  0  0  0  0  0  0  0
    1.9259   -2.2727    1.0308 H   0  0  0  0  0  0  0  0  0  0  0  0
    1.6022   -0.8185    1.9775 H   0  0  0  0  0  0  0  0  0  0  0  0
    0.9269   -2.3699    2.4801 H   0  0  0  0  0  0  0  0  0  0  0  0
   -0.8135   -0.9387    1.3680 H   0  0  0  0  0  0  0  0  0  0  0  0
   -1.0091   -3.4266    1.0746 H   0  0  0  0  0  0  0  0  0  0  0  0
   -1.6020   -2.5674   -0.3487 H   0  0  0  0  0  0  0  0  0  0  0  0
   -0.0101   -3.3293   -0.3747 H   0  0  0  0  0  0  0  0  0  0  0  0
  1  2  3  0
  1  6  1  0
  2  3  1  0
  3  4  1  0
  3  5  1  0
  4  8  1  0
  4  9  1  0
  4 10  1  0
  5 11  1  0
  5 12  1  0
  5 13  1  0
  7 15  1  0
 14 15  1  0
 14 17  1  0
 14 18  1  0
 14 19  1  0
 15 16  1  0
 15 20  1  0
 16 21  1  0
 16 22  1  0
 16 23  1  0
M  RAD  1   3   2
M  END
>  <reaction>  (5) 
rxn_1304

>  <mol_properties>  (5) 
{"1": {"label": "*0", "atom_type": "Ct"}, "2": {"label": "*1", "atom_type": "Cs"}, "6": {"label": "*2", "atom_type": "H0"}, "13": {"label": "*4", "atom_type": "Cs"}, "14": {"label": "*3", "atom_type": "Cs"}}

>  <type>  (5) 
unop_1

>  <geom_source>  (5) 
Heuristics

$$$$

     RDKit          3D

 23 21  0  0  0  0  0  0  0  0999 V2000
    0.0675    0.9852   -2.5978 C   0  0  0  0  0  0  0  0  0  0  0  0
    0.0675    0.9852   -1.3997 C   0  0  0  0  0  0  0  0  0  0  0  0
    0.0675    1.0092    0.0641 C   0  0  0  0  0  3  0  0  0  0  0  0
   -1.1986    1.6856    0.5984 C   0  0  0  0  0  0  0  0  0  0  0  0
    1.3337    1.6856    0.5984 C   0  0  0  0  0  0  0  0  0  0  0  0
    0.0675    0.9852   -3.6611 H   0  0  0  0  0  0  0  0  0  0  0  0
    0.0675   -0.2395    0.4720 H   0  0  0  0  0  0  0  0  0  0  0  0
   -2.0956    1.1863    0.2325 H   0  0  0  0  0  0  0  0  0  0  0  0
   -1.2359    2.7291    0.2809 H   0  0  0  0  0  0  0  0  0  0  0  0
   -1.2059    1.6576    1.6895 H   0  0  0  0  0  0  0  0  0  0  0  0
    1.3710    2.7291    0.2809 H   0  0  0  0  0  0  0  0  0  0  0  0
    2.2307    1.1863    0.2325 H   0  0  0  0  0  0  0  0  0  0  0  0
    1.3410    1.6576    1.6895 H   0  0  0  0  0  0  0  0  0  0  0  0
    0.7857   -2.3552   -0.1456 C   0  0  0  0  0  0  0  0  0  0  0  0
    0.0675   -1.4869    0.8794 C   0  0  0  0  0  0  0  0  0  0  0  0
   -1.1690   -2.1630    1.4577 C   0  0  0  0  0  0  0  0  0  0  0  0
    0.1268   -2.5967   -0.9832 H   0  0  0  0  0  0  0  0  0  0  0  0
    1.6679   -1.8543   -0.5480 H   0  0  0  0  0  0  0  0  0  0  0  0
    1.1107   -3.2983    0.3004 H   0  0  0  0  0  0  0  0  0  0  0  0
    0.7570   -1.2347    1.6899 H   0  0  0  0  0  0  0  0  0  0  0  0
   -0.9057   -3.1001    1.9543 H   0  0  0  0  0  0  0  0  0  0  0  0
   -1.6693   -1.5262    2.1892 H   0  0  0  0  0  0  0  0  0  0  0  0
   -1.8895   -2.3985    0.6706 H   0  0  0  0  0  0  0  0  0  0  0  0
  1  2  3  0
  1  6  1  0
  2  3  1  0
  3  4  1  0
  3  5  1  0
  4  8  1  0
  4  9  1  0
  4 10  1  0
  5 11  1  0
  5 12  1  0
  5 13  1  0
  7 15  1  0
 14 15  1  0
 14 17  1  0
 14 18  1  0
 14 19  1  0
 15 16  1  0
 15 20  1  0
 16 21  1  0
 16 22  1  0
 16 23  1  0
M  RAD  1   3   2
M  END
>  <reaction>  (6) 
rxn_1304

>  <mol_properties>  (6) 
{"1": {"label": "*0", "atom_type": "Ct"}, "2": {"label": "*1", "atom_type": "Cs"}, "6": {"label": "*2", "atom_type": "H0"}, "13": {"label": "*4", "atom_type": "Cs"}, "14": {"label": "*3", "atom_type": "Cs"}}

>  <type>  (6) 
unop_2

>  <geom_source>  (6) 
Heuristics

$$$$

     RDKit          3D

 23 21  0  0  0  0  0  0  0  0999 V2000
   -0.1117    0.9602   -2.7283 C   0  0  0  0  0  0  0  0  0  0  0  0
   -0.1117    0.9602   -1.5302 C   0  0  0  0  0  0  0  0  0  0  0  0
   -0.1117    0.9841   -0.0664 C   0  0  0  0  0  3  0  0  0  0  0  0
   -1.3778    1.6606    0.4680 C   0  0  0  0  0  0  0  0  0  0  0  0
    1.1544    1.6606    0.4680 C   0  0  0  0  0  0  0  0  0  0  0  0
   -0.1117    0.9602   -3.7916 H   0  0  0  0  0  0  0  0  0  0  0  0
   -0.1117   -0.2645    0.3415 H   0  0  0  0  0  0  0  0  0  0  0  0
   -2.2749    1.1613    0.1021 H   0  0  0  0  0  0  0  0  0  0  0  0
   -1.4152    2.7041    0.1505 H   0  0  0  0  0  0  0  0  0  0  0  0
   -1.3852    1.6326    1.5590 H   0  0  0  0  0  0  0  0  0  0  0  0
    1.1918    2.7041    0.1505 H   0  0  0  0  0  0  0  0  0  0  0  0
    2.0514    1.1612    0.1021 H   0  0  0  0  0  0  0  0  0  0  0  0
    1.1617    1.6326    1.5590 H   0  0  0  0  0  0  0  0  0  0  0  0
    0.6065   -1.6076    2.0890 C   0  0  0  0  0  0  0  0  0  0  0  0
   -0.1118   -1.5119    0.7490 C   0  0  0  0  0  0  0  0  0  0  0  0
    0.0223   -2.7824   -0.0806 C   0  0  0  0  0  0  0  0  0  0  0  0
    1.6743   -1.7912    1.9476 H   0  0  0  0  0  0  0  0  0  0  0  0
    0.4991   -0.6890    2.6682 H   0  0  0  0  0  0  0  0  0  0  0  0
    0.2074   -2.4296    2.6882 H   0  0  0  0  0  0  0  0  0  0  0  0
   -1.1707   -1.2976    0.9181 H   0  0  0  0  0  0  0  0  0  0  0  0
   -0.3951   -3.6415    0.4502 H   0  0  0  0  0  0  0  0  0  0  0  0
   -0.4982   -2.6946   -1.0358 H   0  0  0  0  0  0  0  0  0  0  0  0
    1.0718   -3.0031   -0.2904 H   0  0  0  0  0  0  0  0  0  0  0  0
  1  2  3  0
  1  6  1  0
  2  3  1  0
  3  4  1  0
  3  5  1  0
  4  8  1  0
  4  9  1  0
  4 10  1  0
  5 11  1  0
  5 12  1  0
  5 13  1  0
  7 15  1  0
 14 15  1  0
 14 17  1  0
 14 18  1  0
 14 19  1  0
 15 16  1  0
 15 20  1  0
 16 21  1  0
 16 22  1  0
 16 23  1  0
M  RAD  1   3   2
M  END
>  <reaction>  (7) 
rxn_1304

>  <mol_properties>  (7) 
{"1": {"label": "*0", "atom_type": "Ct"}, "2": {"label": "*1", "atom_type": "Cs"}, "6": {"label": "*2", "atom_type": "H0"}, "13": {"label": "*4", "atom_type": "Cs"}, "14": {"label": "*3", "atom_type": "Cs"}}

>  <type>  (7) 
unop_3

>  <geom_source>  (7) 
Heuristics

$$$$

     RDKit          3D

 23 21  0  0  0  0  0  0  0  0999 V2000
    0.2012    0.7830   -2.7739 C   0  0  0  0  0  0  0  0  0  0  0  0
    0.2012    0.7830   -1.5759 C   0  0  0  0  0  0  0  0  0  0  0  0
    0.2012    0.8069   -0.1120 C   0  0  0  0  0  3  0  0  0  0  0  0
   -1.0649    1.4834    0.4223 C   0  0  0  0  0  0  0  0  0  0  0  0
    1.4673    1.4833    0.4223 C   0  0  0  0  0  0  0  0  0  0  0  0
    0.2012    0.7830   -3.8373 H   0  0  0  0  0  0  0  0  0  0  0  0
    0.2012   -0.4417    0.2958 H   0  0  0  0  0  0  0  0  0  0  0  0
   -1.9620    0.9841    0.0564 H   0  0  0  0  0  0  0  0  0  0  0  0
   -1.1023    2.5269    0.1048 H   0  0  0  0  0  0  0  0  0  0  0  0
   -1.0723    1.4554    1.5134 H   0  0  0  0  0  0  0  0  0  0  0  0
    1.5047    2.5269    0.1048 H   0  0  0  0  0  0  0  0  0  0  0  0
    2.3643    0.9840    0.0564 H   0  0  0  0  0  0  0  0  0  0  0  0
    1.4746    1.4553    1.5134 H   0  0  0  0  0  0  0  0  0  0  0  0
   -1.0429   -2.3941    0.1780 C   0  0  0  0  0  0  0  0  0  0  0  0
    0.2011   -1.6891    0.7033 C   0  0  0  0  0  0  0  0  0  0  0  0
   -0.0203   -1.0463    2.0665 C   0  0  0  0  0  0  0  0  0  0  0  0
   -1.8748   -1.6932    0.0746 H   0  0  0  0  0  0  0  0  0  0  0  0
   -0.8647   -2.8479   -0.7984 H   0  0  0  0  0  0  0  0  0  0  0  0
   -1.3616   -3.1850    0.8614 H   0  0  0  0  0  0  0  0  0  0  0  0
    1.0252   -2.4050    0.7680 H   0  0  0  0  0  0  0  0  0  0  0  0
   -0.3068   -1.7946    2.8094 H   0  0  0  0  0  0  0  0  0  0  0  0
    0.8810   -0.5467    2.4256 H   0  0  0  0  0  0  0  0  0  0  0  0
   -0.8200   -0.3028    2.0225 H   0  0  0  0  0  0  0  0  0  0  0  0
  1  2  3  0
  1  6  1  0
  2  3  1  0
  3  4  1  0
  3  5  1  0
  4  8  1  0
  4  9  1  0
  4 10  1  0
  5 11  1  0
  5 12  1  0
  5 13  1  0
  7 15  1  0
 14 15  1  0
 14 17  1  0
 14 18  1  0
 14 19  1  0
 15 16  1  0
 15 20  1  0
 16 21  1  0
 16 22  1  0
 16 23  1  0
M  RAD  1   3   2
M  END
>  <reaction>  (8) 
rxn_1304

>  <mol_properties>  (8) 
{"1": {"label": "*0", "atom_type": "Ct"}, "2": {"label": "*1", "atom_type": "Cs"}, "6": {"label": "*2", "atom_type": "H0"}, "13": {"label": "*4", "atom_type": "Cs"}, "14": {"label": "*3", "atom_type": "Cs"}}

>  <type>  (8) 
unop_4

>  <geom_source>  (8) 
Heuristics

$$$$

     RDKit          3D

 23 21  0  0  0  0  0  0  0  0999 V2000
   -0.1613    0.8808   -2.7815 C   0  0  0  0  0  0  0  0  0  0  0  0
   -0.1613    0.8808   -1.5834 C   0  0  0  0  0  0  0  0  0  0  0  0
   -0.1613    0.9048   -0.1196 C   0  0  0  0  0  3  0  0  0  0  0  0
   -1.4274    1.5812    0.4148 C   0  0  0  0  0  0  0  0  0  0  0  0
    1.1048    1.5812    0.4148 C   0  0  0  0  0  0  0  0  0  0  0  0
   -0.1613    0.8808   -3.8448 H   0  0  0  0  0  0  0  0  0  0  0  0
   -0.1613   -0.3439    0.2883 H   0  0  0  0  0  0  0  0  0  0  0  0
   -2.3245    1.0819    0.0488 H   0  0  0  0  0  0  0  0  0  0  0  0
   -1.4648    2.6247    0.0972 H   0  0  0  0  0  0  0  0  0  0  0  0
   -1.4348    1.5532    1.5058 H   0  0  0  0  0  0  0  0  0  0  0  0
    1.1422    2.6247    0.0972 H   0  0  0  0  0  0  0  0  0  0  0  0
    2.0019    1.0819    0.0488 H   0  0  0  0  0  0  0  0  0  0  0  0
    1.1121    1.5532    1.5058 H   0  0  0  0  0  0  0  0  0  0  0  0
   -0.1614   -1.6272    2.2187 C   0  0  0  0  0  0  0  0  0  0  0  0
   -0.1614   -1.5913    0.6958 C   0  0  0  0  0  0  0  0  0  0  0  0
    1.0309   -2.3221    0.0916 C   0  0  0  0  0  0  0  0  0  0  0  0
    0.7418   -1.1615    2.6204 H   0  0  0  0  0  0  0  0  0  0  0  0
   -1.0221   -1.0991    2.6324 H   0  0  0  0  0  0  0  0  0  0  0  0
   -0.1923   -2.6562    2.5851 H   0  0  0  0  0  0  0  0  0  0  0  0
   -1.0881   -2.0348    0.3212 H   0  0  0  0  0  0  0  0  0  0  0  0
    1.0376   -3.3730    0.3910 H   0  0  0  0  0  0  0  0  0  0  0  0
    1.0134   -2.2854   -0.9989 H   0  0  0  0  0  0  0  0  0  0  0  0
    1.9717   -1.8783    0.4263 H   0  0  0  0  0  0  0  0  0  0  0  0
  1  2  3  0
  1  6  1  0
  2  3  1  0
  3  4  1  0
  3  5  1  0
  4  8  1  0
  4  9  1  0
  4 10  1  0
  5 11  1  0
  5 12  1  0
  5 13  1  0
  7 15  1  0
 14 15  1  0
 14 17  1  0
 14 18  1  0
 14 19  1  0
 15 16  1  0
 15 20  1  0
 16 21  1  0
 16 22  1  0
 16 23  1  0
M  RAD  1   3   2
M  END
>  <reaction>  (9) 
rxn_1304

>  <mol_properties>  (9) 
{"1": {"label": "*0", "atom_type": "Ct"}, "2": {"label": "*1", "atom_type": "Cs"}, "6": {"label": "*2", "atom_type": "H0"}, "13": {"label": "*4", "atom_type": "Cs"}, "14": {"label": "*3", "atom_type": "Cs"}}

>  <type>  (9) 
unop_5

>  <geom_source>  (9) 
Heuristics

$$$$

     RDKit          3D

 23 21  0  0  0  0  0  0  0  0999 V2000
    0.1279    0.7342   -2.8480 C   0  0  0  0  0  0  0  0  0  0  0  0
    0.1279    0.7342   -1.6499 C   0  0  0  0  0  0  0  0  0  0  0  0
    0.1279    0.7582   -0.1861 C   0  0  0  0  0  3  0  0  0  0  0  0
   -1.1382    1.4346    0.3483 C   0  0  0  0  0  0  0  0  0  0  0  0
    1.3940    1.4346    0.3483 C   0  0  0  0  0  0  0  0  0  0  0  0
    0.1279    0.7342   -3.9113 H   0  0  0  0  0  0  0  0  0  0  0  0
    0.1279   -0.4905    0.2218 H   0  0  0  0  0  0  0  0  0  0  0  0
   -2.0353    0.9353   -0.0177 H   0  0  0  0  0  0  0  0  0  0  0  0
   -1.1756    2.4781    0.0307 H   0  0  0  0  0  0  0  0  0  0  0  0
   -1.1456    1.4066    1.4393 H   0  0  0  0  0  0  0  0  0  0  0  0
    1.4314    2.4781    0.0307 H   0  0  0  0  0  0  0  0  0  0  0  0
    2.2910    0.9352   -0.0177 H   0  0  0  0  0  0  0  0  0  0  0  0
    1.4013    1.4066    1.4393 H   0  0  0  0  0  0  0  0  0  0  0  0
   -1.3086   -2.2199    0.7867 C   0  0  0  0  0  0  0  0  0  0  0  0
    0.1278   -1.7379    0.6293 C   0  0  0  0  0  0  0  0  0  0  0  0
    0.6245   -0.9665    1.8453 C   0  0  0  0  0  0  0  0  0  0  0  0
   -1.9889   -1.3780    0.9366 H   0  0  0  0  0  0  0  0  0  0  0  0
   -1.6460   -2.7697   -0.0935 H   0  0  0  0  0  0  0  0  0  0  0  0
   -1.4065   -2.8804    1.6517 H   0  0  0  0  0  0  0  0  0  0  0  0
    0.7820   -2.5956    0.4502 H   0  0  0  0  0  0  0  0  0  0  0  0
    0.5876   -1.5875    2.7437 H   0  0  0  0  0  0  0  0  0  0  0  0
    1.6542   -0.6299    1.7138 H   0  0  0  0  0  0  0  0  0  0  0  0
    0.0051   -0.0851    2.0285 H   0  0  0  0  0  0  0  0  0  0  0  0
  1  2  3  0
  1  6  1  0
  2  3  1  0
  3  4  1  0
  3  5  1  0
  4  8  1  0
  4  9  1  0
  4 10  1  0
  5 11  1  0
  5 12  1  0
  5 13  1  0
  7 15  1  0
 14 15  1  0
 14 17  1  0
 14 18  1  0
 14 19  1  0
 15 16  1  0
 15 20  1  0
 16 21  1  0
 16 22  1  0
 16 23  1  0
M  RAD  1   3   2
M  END
>  <reaction>  (10) 
rxn_1304

>  <mol_properties>  (10) 
{"1": {"label": "*0", "atom_type": "Ct"}, "2": {"label": "*1", "atom_type": "Cs"}, "6": {"label": "*2", "atom_type": "H0"}, "13": {"label": "*4", "atom_type": "Cs"}, "14": {"label": "*3", "atom_type": "Cs"}}

>  <type>  (10) 
unop_6

>  <geom_source>  (10) 
Heuristics

$$$$

     RDKit          3D

 23 21  0  0  0  0  0  0  0  0999 V2000
    0.0134    0.7224   -2.8839 C   0  0  0  0  0  0  0  0  0  0  0  0
    0.0134    0.7224   -1.6859 C   0  0  0  0  0  0  0  0  0  0  0  0
    0.0134    0.7463   -0.2221 C   0  0  0  0  0  3  0  0  0  0  0  0
   -1.2527    1.4228    0.3123 C   0  0  0  0  0  0  0  0  0  0  0  0
    1.2795    1.4228    0.3123 C   0  0  0  0  0  0  0  0  0  0  0  0
    0.0134    0.7224   -3.9473 H   0  0  0  0  0  0  0  0  0  0  0  0
    0.0134   -0.5023    0.1858 H   0  0  0  0  0  0  0  0  0  0  0  0
   -2.1498    0.9235   -0.0536 H   0  0  0  0  0  0  0  0  0  0  0  0
   -1.2900    2.4663   -0.0052 H   0  0  0  0  0  0  0  0  0  0  0  0
   -1.2600    1.3948    1.4034 H   0  0  0  0  0  0  0  0  0  0  0  0
    1.3169    2.4663   -0.0052 H   0  0  0  0  0  0  0  0  0  0  0  0
    2.1766    0.9234   -0.0536 H   0  0  0  0  0  0  0  0  0  0  0  0
    1.2869    1.3948    1.4034 H   0  0  0  0  0  0  0  0  0  0  0  0
   -1.2306   -2.0087    1.4335 C   0  0  0  0  0  0  0  0  0  0  0  0
    0.0134   -1.7497    0.5933 C   0  0  0  0  0  0  0  0  0  0  0  0
    1.1411   -1.1131    1.3955 C   0  0  0  0  0  0  0  0  0  0  0  0
   -1.6181   -1.0779    1.8550 H   0  0  0  0  0  0  0  0  0  0  0  0
   -2.0265   -2.4644    0.8420 H   0  0  0  0  0  0  0  0  0  0  0  0
   -1.0067   -2.6794    2.2665 H   0  0  0  0  0  0  0  0  0  0  0  0
    0.3618   -2.6909    0.1592 H   0  0  0  0  0  0  0  0  0  0  0  0
    1.4397   -1.7556    2.2274 H   0  0  0  0  0  0  0  0  0  0  0  0
    2.0226   -0.9355    0.7771 H   0  0  0  0  0  0  0  0  0  0  0  0
    0.8284   -0.1541    1.8158 H   0  0  0  0  0  0  0  0  0  0  0  0
  1  2  3  0
  1  6  1  0
  2  3  1  0
  3  4  1  0
  3  5  1  0
  4  8  1  0
  4  9  1  0
  4 10  1  0
  5 11  1  0
  5 12  1  0
  5 13  1  0
  7 15  1  0
 14 15  1  0
 14 17  1  0
 14 18  1  0
 14 19  1  0
 15 16  1  0
 15 20  1  0
 16 21  1  0
 16 22  1  0
 16 23  1  0
M  RAD  1   3   2
M  END
>  <reaction>  (11) 
rxn_1304

>  <mol_properties>  (11) 
{"1": {"label": "*0", "atom_type": "Ct"}, "2": {"label": "*1", "atom_type": "Cs"}, "6": {"label": "*2", "atom_type": "H0"}, "13": {"label": "*4", "atom_type": "Cs"}, "14": {"label": "*3", "atom_type": "Cs"}}

>  <type>  (11) 
unop_7

>  <geom_source>  (11) 
Heuristics

$$$$

     RDKit          3D

 23 21  0  0  0  0  0  0  0  0999 V2000
   -0.0603    0.9939   -2.6688 C   0  0  0  0  0  0  0  0  0  0  0  0
   -0.0603    0.9939   -1.4707 C   0  0  0  0  0  0  0  0  0  0  0  0
   -0.0603    1.0179   -0.0069 C   0  0  0  0  0  3  0  0  0  0  0  0
   -1.3264    1.6943    0.5274 C   0  0  0  0  0  0  0  0  0  0  0  0
    1.2058    1.6943    0.5274 C   0  0  0  0  0  0  0  0  0  0  0  0
   -0.0603    0.9939   -3.7321 H   0  0  0  0  0  0  0  0  0  0  0  0
   -0.0604   -0.2308    0.4010 H   0  0  0  0  0  0  0  0  0  0  0  0
   -2.2235    1.1950    0.1615 H   0  0  0  0  0  0  0  0  0  0  0  0
   -1.3638    2.7378    0.2099 H   0  0  0  0  0  0  0  0  0  0  0  0
   -1.3338    1.6663    1.6185 H   0  0  0  0  0  0  0  0  0  0  0  0
    1.2432    2.7378    0.2099 H   0  0  0  0  0  0  0  0  0  0  0  0
    2.1028    1.1950    0.1615 H   0  0  0  0  0  0  0  0  0  0  0  0
    1.2131    1.6663    1.6185 H   0  0  0  0  0  0  0  0  0  0  0  0
    1.3761   -1.9602    0.9659 C   0  0  0  0  0  0  0  0  0  0  0  0
   -0.0604   -1.4782    0.8084 C   0  0  0  0  0  0  0  0  0  0  0  0
   -1.0559   -2.6261    0.7004 C   0  0  0  0  0  0  0  0  0  0  0  0
    1.6785   -2.5723    0.1127 H   0  0  0  0  0  0  0  0  0  0  0  0
    2.0737   -1.1244    1.0416 H   0  0  0  0  0  0  0  0  0  0  0  0
    1.4868   -2.5710    1.8652 H   0  0  0  0  0  0  0  0  0  0  0  0
   -0.3268   -0.8441    1.6586 H   0  0  0  0  0  0  0  0  0  0  0  0
   -1.0219   -3.2579    1.5913 H   0  0  0  0  0  0  0  0  0  0  0  0
   -2.0783   -2.2612    0.5883 H   0  0  0  0  0  0  0  0  0  0  0  0
   -0.8302   -3.2592   -0.1612 H   0  0  0  0  0  0  0  0  0  0  0  0
  1  2  3  0
  1  6  1  0
  2  3  1  0
  3  4  1  0
  3  5  1  0
  4  8  1  0
  4  9  1  0
  4 10  1  0
  5 11  1  0
  5 12  1  0
  5 13  1  0
  7 15  1  0
 14 15  1  0
 14 17  1  0
 14 18  1  0
 14 19  1  0
 15 16  1  0
 15 20  1  0
 16 21  1  0
 16 22  1  0
 16 23  1  0
M  RAD  1   3   2
M  END
>  <reaction>  (12) 
rxn_1304

>  <mol_properties>  (12) 
{"1": {"label": "*0", "atom_type": "Ct"}, "2": {"label": "*1", "atom_type": "Cs"}, "6": {"label": "*2", "atom_type": "H0"}, "13": {"label": "*4", "atom_type": "Cs"}, "14": {"label": "*3", "atom_type": "Cs"}}

>  <type>  (12) 
unop_8

>  <geom_source>  (12) 
Heuristics

$$$$

     RDKit          3D

 23 21  0  0  0  0  0  0  0  0999 V2000
    0.2147    0.8565   -2.6866 C   0  0  0  0  0  0  0  0  0  0  0  0
    0.2147    0.8565   -1.4885 C   0  0  0  0  0  0  0  0  0  0  0  0
    0.2147    0.8805   -0.0247 C   0  0  0  0  0  3  0  0  0  0  0  0
   -1.0514    1.5569    0.5097 C   0  0  0  0  0  0  0  0  0  0  0  0
    1.4809    1.5569    0.5097 C   0  0  0  0  0  0  0  0  0  0  0  0
    0.2147    0.8565   -3.7499 H   0  0  0  0  0  0  0  0  0  0  0  0
    0.2147   -0.3682    0.3832 H   0  0  0  0  0  0  0  0  0  0  0  0
   -1.9484    1.0576    0.1437 H   0  0  0  0  0  0  0  0  0  0  0  0
   -1.0887    2.6005    0.1921 H   0  0  0  0  0  0  0  0  0  0  0  0
   -1.0587    1.5289    1.6007 H   0  0  0  0  0  0  0  0  0  0  0  0
    1.5182    2.6004    0.1921 H   0  0  0  0  0  0  0  0  0  0  0  0
    2.3779    1.0576    0.1437 H   0  0  0  0  0  0  0  0  0  0  0  0
    1.4882    1.5289    1.6007 H   0  0  0  0  0  0  0  0  0  0  0  0
   -0.5035   -2.4838   -0.2344 C   0  0  0  0  0  0  0  0  0  0  0  0
    0.2147   -1.6156    0.7907 C   0  0  0  0  0  0  0  0  0  0  0  0
   -0.6347   -1.3407    2.0250 C   0  0  0  0  0  0  0  0  0  0  0  0
   -1.4248   -2.0050   -0.5750 H   0  0  0  0  0  0  0  0  0  0  0  0
    0.1203   -2.6695   -1.1104 H   0  0  0  0  0  0  0  0  0  0  0  0
   -0.7745   -3.4516    0.1947 H   0  0  0  0  0  0  0  0  0  0  0  0
    1.1466   -2.1025    1.0912 H   0  0  0  0  0  0  0  0  0  0  0  0
   -0.9098   -2.2724    2.5252 H   0  0  0  0  0  0  0  0  0  0  0  0
   -0.1037   -0.7179    2.7468 H   0  0  0  0  0  0  0  0  0  0  0  0
   -1.5601   -0.8258    1.7556 H   0  0  0  0  0  0  0  0  0  0  0  0
  1  2  3  0
  1  6  1  0
  2  3  1  0
  3  4  1  0
  3  5  1  0
  4  8  1  0
  4  9  1  0
  4 10  1  0
  5 11  1  0
  5 12  1  0
  5 13  1  0
  7 15  1  0
 14 15  1  0
 14 17  1  0
 14 18  1  0
 14 19  1  0
 15 16  1  0
 15 20  1  0
 16 21  1  0
 16 22  1  0
 16 23  1  0
M  RAD  1   3   2
M  END
>  <reaction>  (13) 
rxn_1304

>  <mol_properties>  (13) 
{"1": {"label": "*0", "atom_type": "Ct"}, "2": {"label": "*1", "atom_type": "Cs"}, "6": {"label": "*2", "atom_type": "H0"}, "13": {"label": "*4", "atom_type": "Cs"}, "14": {"label": "*3", "atom_type": "Cs"}}

>  <type>  (13) 
unop_9

>  <geom_source>  (13) 
Heuristics

$$$$

     RDKit          3D

 23 21  0  0  0  0  0  0  0  0999 V2000
   -0.0150    0.9999   -2.6243 C   0  0  0  0  0  0  0  0  0  0  0  0
   -0.0150    0.9999   -1.4262 C   0  0  0  0  0  0  0  0  0  0  0  0
   -0.0150    1.0239    0.0376 C   0  0  0  0  0  3  0  0  0  0  0  0
   -1.2811    1.7003    0.5720 C   0  0  0  0  0  0  0  0  0  0  0  0
    1.2511    1.7003    0.5720 C   0  0  0  0  0  0  0  0  0  0  0  0
   -0.0150    0.9999   -3.6876 H   0  0  0  0  0  0  0  0  0  0  0  0
   -0.0150   -0.2248    0.4455 H   0  0  0  0  0  0  0  0  0  0  0  0
   -2.1782    1.2010    0.2060 H   0  0  0  0  0  0  0  0  0  0  0  0
   -1.3184    2.7438    0.2544 H   0  0  0  0  0  0  0  0  0  0  0  0
   -1.2884    1.6723    1.6630 H   0  0  0  0  0  0  0  0  0  0  0  0
    1.2885    2.7438    0.2544 H   0  0  0  0  0  0  0  0  0  0  0  0
    2.1482    1.2010    0.2060 H   0  0  0  0  0  0  0  0  0  0  0  0
    1.2585    1.6723    1.6630 H   0  0  0  0  0  0  0  0  0  0  0  0
    1.2290   -2.1772    0.3277 C   0  0  0  0  0  0  0  0  0  0  0  0
   -0.0150   -1.4722    0.8530 C   0  0  0  0  0  0  0  0  0  0  0  0
   -1.1692   -2.4325    1.1101 C   0  0  0  0  0  0  0  0  0  0  0  0
    1.0188   -2.6908   -0.6136 H   0  0  0  0  0  0  0  0  0  0  0  0
    2.0439   -1.4735    0.1498 H   0  0  0  0  0  0  0  0  0  0  0  0
    1.5833   -2.9265    1.0397 H   0  0  0  0  0  0  0  0  0  0  0  0
    0.2301   -0.9419    1.7774 H   0  0  0  0  0  0  0  0  0  0  0  0
   -0.8905   -3.1899    1.8468 H   0  0  0  0  0  0  0  0  0  0  0  0
   -2.0503   -1.9094    1.4855 H   0  0  0  0  0  0  0  0  0  0  0  0
   -1.4550   -2.9542    0.1935 H   0  0  0  0  0  0  0  0  0  0  0  0
  1  2  3  0
  1  6  1  0
  2  3  1  0
  3  4  1  0
  3  5  1  0
  4  8  1  0
  4  9  1  0
  4 10  1  0
  5 11  1  0
  5 12  1  0
  5 13  1  0
  7 15  1  0
 14 15  1  0
 14 17  1  0
 14 18  1  0
 14 19  1  0
 15 16  1  0
 15 20  1  0
 16 21  1  0
 16 22  1  0
 16 23  1  0
M  RAD  1   3   2
M  END
>  <reaction>  (14) 
rxn_1304

>  <mol_properties>  (14) 
{"1": {"label": "*0", "atom_type": "Ct"}, "2": {"label": "*1", "atom_type": "Cs"}, "6": {"label": "*2", "atom_type": "H0"}, "13": {"label": "*4", "atom_type": "Cs"}, "14": {"label": "*3", "atom_type": "Cs"}}

>  <type>  (14) 
unop_10

>  <geom_source>  (14) 
Heuristics

$$$$

     RDKit          3D

 23 21  0  0  0  0  0  0  0  0999 V2000
   -0.1105    0.7676   -2.8611 C   0  0  0  0  0  0  0  0  0  0  0  0
   -0.1105    0.7676   -1.6630 C   0  0  0  0  0  0  0  0  0  0  0  0
   -0.1105    0.7916   -0.1992 C   0  0  0  0  0  3  0  0  0  0  0  0
   -1.3766    1.4680    0.3351 C   0  0  0  0  0  0  0  0  0  0  0  0
    1.1557    1.4680    0.3351 C   0  0  0  0  0  0  0  0  0  0  0  0
   -0.1105    0.7676   -3.9244 H   0  0  0  0  0  0  0  0  0  0  0  0
   -0.1105   -0.4571    0.2087 H   0  0  0  0  0  0  0  0  0  0  0  0
   -2.2736    0.9687   -0.0308 H   0  0  0  0  0  0  0  0  0  0  0  0
   -1.4139    2.5115    0.0176 H   0  0  0  0  0  0  0  0  0  0  0  0
   -1.3839    1.4400    1.4262 H   0  0  0  0  0  0  0  0  0  0  0  0
    1.1930    2.5115    0.0176 H   0  0  0  0  0  0  0  0  0  0  0  0
    2.0527    0.9687   -0.0308 H   0  0  0  0  0  0  0  0  0  0  0  0
    1.1630    1.4400    1.4262 H   0  0  0  0  0  0  0  0  0  0  0  0
   -0.8287   -1.8002    1.9561 C   0  0  0  0  0  0  0  0  0  0  0  0
   -0.1105   -1.7045    0.6161 C   0  0  0  0  0  0  0  0  0  0  0  0
    1.3975   -1.5518    0.7683 C   0  0  0  0  0  0  0  0  0  0  0  0
   -0.6526   -0.9057    2.5585 H   0  0  0  0  0  0  0  0  0  0  0  0
   -1.9068   -1.9090    1.8265 H   0  0  0  0  0  0  0  0  0  0  0  0
   -0.4722   -2.6591    2.5299 H   0  0  0  0  0  0  0  0  0  0  0  0
   -0.3279   -2.5964    0.0221 H   0  0  0  0  0  0  0  0  0  0  0  0
    1.8241   -2.4029    1.3047 H   0  0  0  0  0  0  0  0  0  0  0  0
    1.8938   -1.4849   -0.2013 H   0  0  0  0  0  0  0  0  0  0  0  0
    1.6437   -0.6494    1.3333 H   0  0  0  0  0  0  0  0  0  0  0  0
  1  2  3  0
  1  6  1  0
  2  3  1  0
  3  4  1  0
  3  5  1  0
  4  8  1  0
  4  9  1  0
  4 10  1  0
  5 11  1  0
  5 12  1  0
  5 13  1  0
  7 15  1  0
 14 15  1  0
 14 17  1  0
 14 18  1  0
 14 19  1  0
 15 16  1  0
 15 20  1  0
 16 21  1  0
 16 22  1  0
 16 23  1  0
M  RAD  1   3   2
M  END
>  <reaction>  (15) 
rxn_1304

>  <mol_properties>  (15) 
{"1": {"label": "*0", "atom_type": "Ct"}, "2": {"label": "*1", "atom_type": "Cs"}, "6": {"label": "*2", "atom_type": "H0"}, "13": {"label": "*4", "atom_type": "Cs"}, "14": {"label": "*3", "atom_type": "Cs"}}

>  <type>  (15) 
unop_11

>  <geom_source>  (15) 
Heuristics

$$$$

     RDKit          3D

 23 21  0  0  0  0  0  0  0  0999 V2000
    0.1613    0.9342   -2.6180 C   0  0  0  0  0  0  0  0  0  0  0  0
    0.1613    0.9342   -1.4200 C   0  0  0  0  0  0  0  0  0  0  0  0
    0.1613    0.9581    0.0438 C   0  0  0  0  0  3  0  0  0  0  0  0
   -1.1048    1.6346    0.5782 C   0  0  0  0  0  0  0  0  0  0  0  0
    1.4275    1.6346    0.5782 C   0  0  0  0  0  0  0  0  0  0  0  0
    0.1613    0.9342   -3.6814 H   0  0  0  0  0  0  0  0  0  0  0  0
    0.1613   -0.2905    0.4517 H   0  0  0  0  0  0  0  0  0  0  0  0
   -2.0018    1.1353    0.2123 H   0  0  0  0  0  0  0  0  0  0  0  0
   -1.1421    2.6781    0.2607 H   0  0  0  0  0  0  0  0  0  0  0  0
   -1.1121    1.6066    1.6693 H   0  0  0  0  0  0  0  0  0  0  0  0
    1.4648    2.6781    0.2607 H   0  0  0  0  0  0  0  0  0  0  0  0
    2.3245    1.1352    0.2123 H   0  0  0  0  0  0  0  0  0  0  0  0
    1.4348    1.6066    1.6693 H   0  0  0  0  0  0  0  0  0  0  0  0
    0.1613   -2.4659   -0.3488 C   0  0  0  0  0  0  0  0  0  0  0  0
    0.1613   -1.5379    0.8592 C   0  0  0  0  0  0  0  0  0  0  0  0
   -1.0310   -1.7711    1.7782 C   0  0  0  0  0  0  0  0  0  0  0  0
   -0.7419   -2.3272   -0.9480 H   0  0  0  0  0  0  0  0  0  0  0  0
    1.0220   -2.2839   -0.9945 H   0  0  0  0  0  0  0  0  0  0  0  0
    0.1922   -3.5128   -0.0372 H   0  0  0  0  0  0  0  0  0  0  0  0
    1.0880   -1.6748    1.4234 H   0  0  0  0  0  0  0  0  0  0  0  0
   -1.0377   -2.7961    2.1569 H   0  0  0  0  0  0  0  0  0  0  0  0
   -1.0134   -1.0977    2.6368 H   0  0  0  0  0  0  0  0  0  0  0  0
   -1.9717   -1.6104    1.2461 H   0  0  0  0  0  0  0  0  0  0  0  0
  1  2  3  0
  1  6  1  0
  2  3  1  0
  3  4  1  0
  3  5  1  0
  4  8  1  0
  4  9  1  0
  4 10  1  0
  5 11  1  0
  5 12  1  0
  5 13  1  0
  7 15  1  0
 14 15  1  0
 14 17  1  0
 14 18  1  0
 14 19  1  0
 15 16  1  0
 15 20  1  0
 16 21  1  0
 16 22  1  0
 16 23  1  0
M  RAD  1   3   2
M  END
>  <reaction>  (16) 
rxn_1304

>  <mol_properties>  (16) 
{"1": {"label": "*0", "atom_type": "Ct"}, "2": {"label": "*1", "atom_type": "Cs"}, "6": {"label": "*2", "atom_type": "H0"}, "13": {"label": "*4", "atom_type": "Cs"}, "14": {"label": "*3", "atom_type": "Cs"}}

>  <type>  (16) 
unop_12

>  <geom_source>  (16) 
Heuristics

$$$$

     RDKit          3D

 23 21  0  0  0  0  0  0  0  0999 V2000
   -1.2194   -0.6664   -0.1940 C   0  0  0  0  0  0  0  0  0  0  0  0
   -2.3492   -0.3411    0.7768 C   0  0  0  0  0  0  0  0  0  0  0  0
   -1.6939   -0.5976   -1.6415 C   0  0  0  0  0  0  0  0  0  0  0  0
    1.5458    1.5644   -0.6645 C   0  0  0  0  0  0  0  0  0  0  0  0
    1.3120    0.8207    1.7389 C   0  0  0  0  0  0  0  0  0  0  0  0
    1.0641    0.4599    0.2750 C   0  0  0  0  0  3  0  0  0  0  0  0
    1.7084   -0.8194   -0.0582 C   0  0  0  0  0  0  0  0  0  0  0  0
    2.2358   -1.8686   -0.3315 C   0  0  0  0  0  0  0  0  0  0  0  0
   -0.8337   -1.6868    0.0187 H   0  0  0  0  0  0  0  0  0  0  0  0
   -0.2510    0.1859   -0.0220 H   0  0  0  0  0  0  0  0  0  0  0  0
   -1.9687   -0.3973    1.8181 H   0  0  0  0  0  0  0  0  0  0  0  0
   -2.7298    0.6860    0.5929 H   0  0  0  0  0  0  0  0  0  0  0  0
   -3.1805   -1.0689    0.6606 H   0  0  0  0  0  0  0  0  0  0  0  0
   -2.5092   -1.3316   -1.8164 H   0  0  0  0  0  0  0  0  0  0  0  0
   -2.0604    0.4239   -1.8773 H   0  0  0  0  0  0  0  0  0  0  0  0
   -0.8475   -0.8362   -2.3191 H   0  0  0  0  0  0  0  0  0  0  0  0
    1.0192    2.5139   -0.4320 H   0  0  0  0  0  0  0  0  0  0  0  0
    2.6411    1.7222   -0.5588 H   0  0  0  0  0  0  0  0  0  0  0  0
    1.3180    1.2923   -1.7171 H   0  0  0  0  0  0  0  0  0  0  0  0
    0.9176    0.0187    2.3987 H   0  0  0  0  0  0  0  0  0  0  0  0
    2.3986    0.9507    1.9345 H   0  0  0  0  0  0  0  0  0  0  0  0
    0.7836    1.7646    1.9896 H   0  0  0  0  0  0  0  0  0  0  0  0
    2.6989   -2.7894   -0.5714 H   0  0  0  0  0  0  0  0  0  0  0  0
  1  2  1  0
  1  3  1  0
  1  9  1  0
  1 10  1  0
  2 11  1  0
  2 12  1  0
  2 13  1  0
  3 14  1  0
  3 15  1  0
  3 16  1  0
  4  6  1  0
  4 17  1  0
  4 18  1  0
  4 19  1  0
  5  6  1  0
  5 20  1  0
  5 21  1  0
  5 22  1  0
  6  7  1  0
  7  8  3  0
  8 23  1  0
M  RAD  1   6   2
M  END
>  <reaction>  (17) 
rxn_1304

>  <mol_properties>  (17) 
{"1": {"label": "*0", "atom_type": "Ct"}, "2": {"label": "*1", "atom_type": "Cs"}, "6": {"label": "*2", "atom_type": "H0"}, "13": {"label": "*4", "atom_type": "Cs"}, "14": {"label": "*3", "atom_type": "Cs"}}

>  <type>  (17) 
unop_13

>  <geom_source>  (17) 
AutoTST

$$$$
