
     RDKit          3D

  9  8  0  0  0  0  0  0  0  0999 V2000
    1.1303   -0.2933   -0.7510 C   0  0  0  0  0  0  0  0  0  0  0  0
    0.2866    0.4560   -0.0588 C   0  0  0  0  0  0  0  0  0  0  0  0
   -0.9719   -0.0331    0.5823 C   0  0  0  0  0  0  0  0  0  0  0  0
    2.0274    0.1230   -1.1916 H   0  0  0  0  0  0  0  0  0  0  0  0
    0.9532   -1.3530   -0.9023 H   0  0  0  0  0  0  0  0  0  0  0  0
    0.5065    1.5132    0.0659 H   0  0  0  0  0  0  0  0  0  0  0  0
   -0.9526    0.1426    1.6610 H   0  0  0  0  0  0  0  0  0  0  0  0
   -1.1182   -1.1002    0.4106 H   0  0  0  0  0  0  0  0  0  0  0  0
   -1.8412    0.5010    0.1901 H   0  0  0  0  0  0  0  0  0  0  0  0
  1  2  2  3
  1  4  1  0
  1  5  1  0
  2  3  1  0
  2  6  1  0
  3  7  1  0
  3  8  1  0
  3  9  1  0
M  END
>  <reaction>  (1) 
rxn_1619

>  <mol_properties>  (1) 
{"1": {"label": "donator", "atom_type": "Cd"}, "5": {"label": "d_hydrogen", "atom_type": "H0"}}

>  <type>  (1) 
r1h

$$$$

     RDKit          3D

 17 17  0  0  0  0  0  0  0  0999 V2000
    2.7069    0.2860   -0.1817 C   0  0  0  0  0  0  0  0  0  0  0  0
    1.6304   -0.7245    0.0085 C   0  0  0  0  0  0  0  0  0  0  0  0
    1.4786   -1.8800   -0.7837 C   0  0  0  0  0  0  0  0  0  0  0  0
    0.4231   -2.7891   -0.5312 C   0  0  0  0  0  3  0  0  0  0  0  0
    0.2582   -3.9235   -1.2940 C   0  0  0  0  0  0  0  0  0  0  0  0
    1.1348   -4.2030   -2.3401 C   0  0  0  0  0  0  0  0  0  0  0  0
    2.1804   -3.3260   -2.6093 C   0  0  0  0  0  0  0  0  0  0  0  0
    2.3549   -2.1866   -1.8513 C   0  0  0  0  0  0  0  0  0  0  0  0
    2.6698    0.7343   -1.1808 H   0  0  0  0  0  0  0  0  0  0  0  0
    3.7029   -0.1584   -0.0766 H   0  0  0  0  0  0  0  0  0  0  0  0
    2.6250    1.0917    0.5463 H   0  0  0  0  0  0  0  0  0  0  0  0
    0.9136   -0.5677    0.8059 H   0  0  0  0  0  0  0  0  0  0  0  0
   -0.2629   -2.5783    0.2811 H   0  0  0  0  0  0  0  0  0  0  0  0
   -0.5582   -4.6017   -1.0785 H   0  0  0  0  0  0  0  0  0  0  0  0
    1.0033   -5.0952   -2.9384 H   0  0  0  0  0  0  0  0  0  0  0  0
    2.8650   -3.5382   -3.4214 H   0  0  0  0  0  0  0  0  0  0  0  0
    3.1750   -1.5169   -2.0772 H   0  0  0  0  0  0  0  0  0  0  0  0
  1  2  1  0
  1  9  1  0
  1 10  1  0
  1 11  1  0
  2  3  2  3
  2 12  1  0
  3  4  1  0
  3  8  1  0
  4  5  1  0
  4 13  1  0
  5  6  2  0
  5 14  1  0
  6  7  1  0
  6 15  1  0
  7  8  2  0
  7 16  1  0
  8 17  1  0
M  RAD  1   4   2
M  END
>  <reaction>  (2) 
rxn_1619

>  <mol_properties>  (2) 
{"1": {"label": "acceptor", "atom_type": "Cs"}}

>  <type>  (2) 
r2

$$$$

     RDKit          3D

 18 18  0  0  0  0  0  0  0  0999 V2000
   -2.4852    0.3210   -0.3966 C   0  0  0  0  0  0  0  0  0  0  0  0
   -1.5917   -0.2708    0.6941 C   0  0  0  0  0  0  0  0  0  0  0  0
   -0.1292   -0.1692    0.3493 C   0  0  0  0  0  0  0  0  0  0  0  0
    0.6099    0.9558    0.7015 C   0  0  0  0  0  0  0  0  0  0  0  0
    1.9447    1.0728    0.3458 C   0  0  0  0  0  0  0  0  0  0  0  0
    2.5646    0.0613   -0.3720 C   0  0  0  0  0  0  0  0  0  0  0  0
    1.8399   -1.0657   -0.7287 C   0  0  0  0  0  0  0  0  0  0  0  0
    0.5055   -1.1769   -0.3700 C   0  0  0  0  0  0  0  0  0  0  0  0
   -2.3325   -0.1971   -1.3452 H   0  0  0  0  0  0  0  0  0  0  0  0
   -2.2554    1.3763   -0.5546 H   0  0  0  0  0  0  0  0  0  0  0  0
   -3.5397    0.2376   -0.1280 H   0  0  0  0  0  0  0  0  0  0  0  0
   -1.7801    0.2462    1.6380 H   0  0  0  0  0  0  0  0  0  0  0  0
   -1.8568   -1.3190    0.8516 H   0  0  0  0  0  0  0  0  0  0  0  0
    0.1327    1.7497    1.2656 H   0  0  0  0  0  0  0  0  0  0  0  0
    2.5033    1.9550    0.6330 H   0  0  0  0  0  0  0  0  0  0  0  0
    3.6077    0.1491   -0.6484 H   0  0  0  0  0  0  0  0  0  0  0  0
    2.3163   -1.8632   -1.2854 H   0  0  0  0  0  0  0  0  0  0  0  0
   -0.0540   -2.0629   -0.6500 H   0  0  0  0  0  0  0  0  0  0  0  0
  1  2  1  0
  1  9  1  0
  1 10  1  0
  1 11  1  0
  2  3  1  0
  2 12  1  0
  2 13  1  0
  3  4  2  0
  3  8  1  0
  4  5  1  0
  4 14  1  0
  5  6  2  0
  5 15  1  0
  6  7  1  0
  6 16  1  0
  7  8  2  0
  7 17  1  0
  8 18  1  0
M  END
>  <reaction>  (3) 
rxn_1619

>  <mol_properties>  (3) 
{"0": {"label": "a_hydrogen", "atom_type": "H0"}, "2": {"label": "acceptor", "atom_type": "Cs"}}

>  <type>  (3) 
r2h

$$$$

     RDKit          3D

 26 25  0  0  0  0  0  0  0  0999 V2000
   -0.5024    2.0873   -1.5559 C   0  0  0  0  0  0  0  0  0  0  0  0
    0.0898    2.5785   -0.4934 C   0  0  0  0  0  3  0  0  0  0  0  0
    0.5396    3.9378   -0.1246 C   0  0  0  0  0  0  0  0  0  0  0  0
   -0.7497    1.0330   -1.6308 H   0  0  0  0  0  0  0  0  0  0  0  0
   -0.7689    2.7189   -2.4032 H   0  0  0  0  0  0  0  0  0  0  0  0
    0.3623    1.5450    0.5091 H   0  0  0  0  0  0  0  0  0  0  0  0
    0.0539    4.2740    0.7944 H   0  0  0  0  0  0  0  0  0  0  0  0
    0.3104    4.6583   -0.9169 H   0  0  0  0  0  0  0  0  0  0  0  0
    1.6174    3.9564    0.0531 H   0  0  0  0  0  0  0  0  0  0  0  0
    2.1473    0.6412    1.4212 C   0  0  0  0  0  0  0  0  0  0  0  0
    0.6450    0.5884    1.2577 C   0  0  0  0  0  0  0  0  0  0  0  0
    0.0453   -0.6006    0.6062 C   0  0  0  0  0  0  0  0  0  0  0  0
   -1.3150   -0.8697    0.7800 C   0  0  0  0  0  0  0  0  0  0  0  0
   -1.9249   -1.9298    0.1341 C   0  0  0  0  0  0  0  0  0  0  0  0
   -1.1868   -2.7528   -0.7059 C   0  0  0  0  0  0  0  0  0  0  0  0
    0.1642   -2.5020   -0.8867 C   0  0  0  0  0  0  0  0  0  0  0  0
    0.7735   -1.4377   -0.2396 C   0  0  0  0  0  0  0  0  0  0  0  0
    2.6555    0.6493    0.4549 H   0  0  0  0  0  0  0  0  0  0  0  0
    2.5210   -0.2154    1.9887 H   0  0  0  0  0  0  0  0  0  0  0  0
    2.4400    1.5487    1.9508 H   0  0  0  0  0  0  0  0  0  0  0  0
    0.1182    0.8429    2.1783 H   0  0  0  0  0  0  0  0  0  0  0  0
   -1.8994   -0.2282    1.4300 H   0  0  0  0  0  0  0  0  0  0  0  0
   -2.9807   -2.1169    0.2865 H   0  0  0  0  0  0  0  0  0  0  0  0
   -1.6611   -3.5840   -1.2118 H   0  0  0  0  0  0  0  0  0  0  0  0
    0.7508   -3.1393   -1.5370 H   0  0  0  0  0  0  0  0  0  0  0  0
    1.8294   -1.2595   -0.3968 H   0  0  0  0  0  0  0  0  0  0  0  0
  1  2  2  3
  1  4  1  0
  1  5  1  0
  2  3  1  0
  3  7  1  0
  3  8  1  0
  3  9  1  0
  6 11  1  0
 10 11  1  0
 10 18  1  0
 10 19  1  0
 10 20  1  0
 11 12  1  0
 11 21  1  0
 12 13  2  0
 12 17  1  0
 13 14  1  0
 13 22  1  0
 14 15  2  0
 14 23  1  0
 15 16  1  0
 15 24  1  0
 16 17  2  0
 16 25  1  0
 17 26  1  0
M  RAD  1   2   2
M  END
>  <reaction>  (4) 
rxn_1619

>  <mol_properties>  (4) 
{"0": {"label": "*4", "atom_type": "Cd"}, "1": {"label": "*3", "atom_type": "Cd"}, "5": {"label": "*2", "atom_type": "H0"}, "10": {"label": "*1", "atom_type": "Cs"}, "11": {"label": "*0", "atom_type": "Cd"}}

>  <type>  (4) 
ts

$$$$

     RDKit          3D

 26 25  0  0  0  0  0  0  0  0999 V2000
    0.4804    2.9102   -2.0210 C   0  0  0  0  0  0  0  0  0  0  0  0
    0.4804    2.9102   -0.6973 C   0  0  0  0  0  0  0  0  0  0  0  0
    0.4804    4.1324    0.1632 C   0  0  0  0  0  0  0  0  0  0  0  0
    0.4804    1.9875   -2.5875 H   0  0  0  0  0  0  0  0  0  0  0  0
    0.4804    3.8358   -2.5870 H   0  0  0  0  0  0  0  0  0  0  0  0
    0.4804    1.7670   -0.0691 H   0  0  0  0  0  0  0  0  0  0  0  0
   -0.3973    4.1495    0.8144 H   0  0  0  0  0  0  0  0  0  0  0  0
    0.4804    5.0428   -0.4374 H   0  0  0  0  0  0  0  0  0  0  0  0
    1.3581    4.1495    0.8144 H   0  0  0  0  0  0  0  0  0  0  0  0
    1.7294    0.5199    1.4391 C   0  0  0  0  0  0  0  0  0  0  0  0
    0.4804    0.6180    0.5624 C   0  0  0  0  0  0  0  0  0  0  0  0
   -0.1329   -0.7307    0.2920 C   0  0  0  0  0  0  0  0  0  0  0  0
   -1.0837   -1.2674    1.1544 C   0  0  0  0  0  3  0  0  0  0  0  0
   -1.6165   -2.5280    0.9336 C   0  0  0  0  0  0  0  0  0  0  0  0
   -1.2044   -3.2760   -0.1588 C   0  0  0  0  0  0  0  0  0  0  0  0
   -0.2581   -2.7527   -1.0267 C   0  0  0  0  0  0  0  0  0  0  0  0
    0.2711   -1.4915   -0.8006 C   0  0  0  0  0  0  0  0  0  0  0  0
    2.4903   -0.0993    0.9604 H   0  0  0  0  0  0  0  0  0  0  0  0
    1.4909    0.0660    2.4028 H   0  0  0  0  0  0  0  0  0  0  0  0
    2.1580    1.5066    1.6231 H   0  0  0  0  0  0  0  0  0  0  0  0
   -0.2557    1.2617    1.0498 H   0  0  0  0  0  0  0  0  0  0  0  0
   -1.4132   -0.6871    2.0093 H   0  0  0  0  0  0  0  0  0  0  0  0
   -2.3584   -2.9261    1.6148 H   0  0  0  0  0  0  0  0  0  0  0  0
   -1.6213   -4.2595   -0.3350 H   0  0  0  0  0  0  0  0  0  0  0  0
    0.0670   -3.3272   -1.8853 H   0  0  0  0  0  0  0  0  0  0  0  0
    1.0086   -1.0876   -1.4856 H   0  0  0  0  0  0  0  0  0  0  0  0
  1  2  2  3
  1  4  1  0
  1  5  1  0
  2  3  1  0
  2  6  1  0
  3  7  1  0
  3  8  1  0
  3  9  1  0
 10 11  1  0
 10 18  1  0
 10 19  1  0
 10 20  1  0
 11 12  2  3
 11 21  1  0
 12 13  1  0
 12 17  1  0
 13 14  1  0
 13 22  1  0
 14 15  2  0
 14 23  1  0
 15 16  1  0
 15 24  1  0
 16 17  2  0
 16 25  1  0
 17 26  1  0
M  RAD  1  13   2
M  END
>  <reaction>  (5) 
rxn_1619

>  <mol_properties>  (5) 
{"0": {"label": "*4", "atom_type": "Cd"}, "1": {"label": "*3", "atom_type": "Cd"}, "5": {"label": "*2", "atom_type": "H0"}, "10": {"label": "*1", "atom_type": "Cs"}, "11": {"label": "*0", "atom_type": "Cd"}}

>  <type>  (5) 
unop_1

>  <geom_source>  (5) 
Heuristics

$$$$

     RDKit          3D

 26 25  0  0  0  0  0  0  0  0999 V2000
    1.1654    2.2183   -2.7814 C   0  0  0  0  0  0  0  0  0  0  0  0
    1.1654    2.2183   -1.4576 C   0  0  0  0  0  0  0  0  0  0  0  0
    1.1654    3.4405   -0.5971 C   0  0  0  0  0  0  0  0  0  0  0  0
    1.1654    1.2956   -3.3479 H   0  0  0  0  0  0  0  0  0  0  0  0
    1.1654    3.1439   -3.3474 H   0  0  0  0  0  0  0  0  0  0  0  0
    1.1654    1.0752   -0.8294 H   0  0  0  0  0  0  0  0  0  0  0  0
    0.2877    3.4576    0.0541 H   0  0  0  0  0  0  0  0  0  0  0  0
    1.1654    4.3510   -1.1977 H   0  0  0  0  0  0  0  0  0  0  0  0
    2.0431    3.4576    0.0541 H   0  0  0  0  0  0  0  0  0  0  0  0
    1.8865   -1.1208   -1.0478 C   0  0  0  0  0  0  0  0  0  0  0  0
    1.1654   -0.0739   -0.1979 C   0  0  0  0  0  0  0  0  0  0  0  0
   -0.0585   -0.6338    0.4779 C   0  0  0  0  0  0  0  0  0  0  0  0
    0.0293   -1.2296    1.7321 C   0  0  0  0  0  3  0  0  0  0  0  0
   -1.0866   -1.7868    2.3372 C   0  0  0  0  0  0  0  0  0  0  0  0
   -2.3145   -1.7572    1.6937 C   0  0  0  0  0  0  0  0  0  0  0  0
   -2.4163   -1.1658    0.4437 C   0  0  0  0  0  0  0  0  0  0  0  0
   -1.2967   -0.6102   -0.1561 C   0  0  0  0  0  0  0  0  0  0  0  0
    1.2268   -1.5080   -1.8265 H   0  0  0  0  0  0  0  0  0  0  0  0
    2.2051   -1.9650   -0.4334 H   0  0  0  0  0  0  0  0  0  0  0  0
    2.7693   -0.6956   -1.5283 H   0  0  0  0  0  0  0  0  0  0  0  0
    1.8519    0.3165    0.5571 H   0  0  0  0  0  0  0  0  0  0  0  0
    0.9857   -1.2538    2.2429 H   0  0  0  0  0  0  0  0  0  0  0  0
   -0.9977   -2.2425    3.3156 H   0  0  0  0  0  0  0  0  0  0  0  0
   -3.1880   -2.1891    2.1655 H   0  0  0  0  0  0  0  0  0  0  0  0
   -3.3718   -1.1336   -0.0650 H   0  0  0  0  0  0  0  0  0  0  0  0
   -1.3848   -0.1466   -1.1326 H   0  0  0  0  0  0  0  0  0  0  0  0
  1  2  2  3
  1  4  1  0
  1  5  1  0
  2  3  1  0
  2  6  1  0
  3  7  1  0
  3  8  1  0
  3  9  1  0
 10 11  1  0
 10 18  1  0
 10 19  1  0
 10 20  1  0
 11 12  2  3
 11 21  1  0
 12 13  1  0
 12 17  1  0
 13 14  1  0
 13 22  1  0
 14 15  2  0
 14 23  1  0
 15 16  1  0
 15 24  1  0
 16 17  2  0
 16 25  1  0
 17 26  1  0
M  RAD  1  13   2
M  END
>  <reaction>  (6) 
rxn_1619

>  <mol_properties>  (6) 
{"0": {"label": "*4", "atom_type": "Cd"}, "1": {"label": "*3", "atom_type": "Cd"}, "5": {"label": "*2", "atom_type": "H0"}, "10": {"label": "*1", "atom_type": "Cs"}, "11": {"label": "*0", "atom_type": "Cd"}}

>  <type>  (6) 
unop_2

>  <geom_source>  (6) 
Heuristics

$$$$

     RDKit          3D

 26 25  0  0  0  0  0  0  0  0999 V2000
   -0.2318    2.9218   -1.7719 C   0  0  0  0  0  0  0  0  0  0  0  0
   -0.2318    2.9218   -0.4481 C   0  0  0  0  0  0  0  0  0  0  0  0
   -0.2318    4.1440    0.4124 C   0  0  0  0  0  0  0  0  0  0  0  0
   -0.2318    1.9990   -2.3383 H   0  0  0  0  0  0  0  0  0  0  0  0
   -0.2318    3.8474   -2.3379 H   0  0  0  0  0  0  0  0  0  0  0  0
   -0.2318    1.7786    0.1801 H   0  0  0  0  0  0  0  0  0  0  0  0
   -1.1095    4.1611    1.0636 H   0  0  0  0  0  0  0  0  0  0  0  0
   -0.2318    5.0544   -0.1882 H   0  0  0  0  0  0  0  0  0  0  0  0
    0.6459    4.1611    1.0636 H   0  0  0  0  0  0  0  0  0  0  0  0
    0.4893    0.7857    2.1509 C   0  0  0  0  0  0  0  0  0  0  0  0
   -0.2318    0.6296    0.8116 C   0  0  0  0  0  0  0  0  0  0  0  0
   -0.0872   -0.7585    0.2454 C   0  0  0  0  0  0  0  0  0  0  0  0
   -0.9979   -1.7592    0.5696 C   0  0  0  0  0  3  0  0  0  0  0  0
   -0.8421   -3.0494    0.0870 C   0  0  0  0  0  0  0  0  0  0  0  0
    0.2329   -3.3610   -0.7315 C   0  0  0  0  0  0  0  0  0  0  0  0
    1.1476   -2.3730   -1.0631 C   0  0  0  0  0  0  0  0  0  0  0  0
    0.9863   -1.0846   -0.5774 C   0  0  0  0  0  0  0  0  0  0  0  0
    1.5563    0.5828    2.0417 H   0  0  0  0  0  0  0  0  0  0  0  0
    0.0924    0.0851    2.8879 H   0  0  0  0  0  0  0  0  0  0  0  0
    0.3725    1.7972    2.5438 H   0  0  0  0  0  0  0  0  0  0  0  0
   -1.2917    0.8617    0.9405 H   0  0  0  0  0  0  0  0  0  0  0  0
   -1.8430   -1.5223    1.2067 H   0  0  0  0  0  0  0  0  0  0  0  0
   -1.5643   -3.8130    0.3481 H   0  0  0  0  0  0  0  0  0  0  0  0
    0.3551   -4.3672   -1.1119 H   0  0  0  0  0  0  0  0  0  0  0  0
    1.9881   -2.6053   -1.7053 H   0  0  0  0  0  0  0  0  0  0  0  0
    1.7042   -0.3164   -0.8436 H   0  0  0  0  0  0  0  0  0  0  0  0
  1  2  2  3
  1  4  1  0
  1  5  1  0
  2  3  1  0
  2  6  1  0
  3  7  1  0
  3  8  1  0
  3  9  1  0
 10 11  1  0
 10 18  1  0
 10 19  1  0
 10 20  1  0
 11 12  2  3
 11 21  1  0
 12 13  1  0
 12 17  1  0
 13 14  1  0
 13 22  1  0
 14 15  2  0
 14 23  1  0
 15 16  1  0
 15 24  1  0
 16 17  2  0
 16 25  1  0
 17 26  1  0
M  RAD  1  13   2
M  END
>  <reaction>  (7) 
rxn_1619

>  <mol_properties>  (7) 
{"0": {"label": "*4", "atom_type": "Cd"}, "1": {"label": "*3", "atom_type": "Cd"}, "5": {"label": "*2", "atom_type": "H0"}, "10": {"label": "*1", "atom_type": "Cs"}, "11": {"label": "*0", "atom_type": "Cd"}}

>  <type>  (7) 
unop_3

>  <geom_source>  (7) 
Heuristics

$$$$

     RDKit          3D

 26 24  0  0  0  0  0  0  0  0999 V2000
    0.3893    0.7151   -3.3779 C   0  0  0  0  0  0  0  0  0  0  0  0
    0.3893    0.7151   -2.0542 C   0  0  0  0  0  3  0  0  0  0  0  0
    0.3893    1.9373   -1.1937 C   0  0  0  0  0  3  0  0  0  0  0  0
    0.3893   -0.2076   -3.9444 H   0  0  0  0  0  0  0  0  0  0  0  0
    0.3893    1.6407   -3.9440 H   0  0  0  0  0  0  0  0  0  0  0  0
    0.3893   -0.4281   -1.4260 H   0  0  0  0  0  0  0  0  0  0  0  0
   -0.4885    1.9544   -0.5425 H   0  0  0  0  0  0  0  0  0  0  0  0
    0.3893    2.8477   -1.7943 H   0  0  0  0  0  0  0  0  0  0  0  0
    1.2670    1.9544   -0.5425 H   0  0  0  0  0  0  0  0  0  0  0  0
   -0.8597   -2.3698   -1.1817 C   0  0  0  0  0  0  0  0  0  0  0  0
    0.3893   -1.5771   -0.7945 C   0  0  0  0  0  0  0  0  0  0  0  0
    0.1574   -0.7008    0.4082 C   0  0  0  0  0  0  0  0  0  0  0  0
    0.3694   -1.1855    1.6950 C   0  0  0  0  0  3  0  0  0  0  0  0
    0.1132   -0.3967    2.8059 C   0  0  0  0  0  0  0  0  0  0  0  0
   -0.3619    0.8962    2.6465 C   0  0  0  0  0  0  0  0  0  0  0  0
   -0.5768    1.3921    1.3695 C   0  0  0  0  0  0  0  0  0  0  0  0
   -0.3187    0.5984    0.2626 C   0  0  0  0  0  0  0  0  0  0  0  0
   -1.6870   -1.6976   -1.4170 H   0  0  0  0  0  0  0  0  0  0  0  0
   -1.1793   -3.0137   -0.3602 H   0  0  0  0  0  0  0  0  0  0  0  0
   -0.6711   -2.9976   -2.0542 H   0  0  0  0  0  0  0  0  0  0  0  0
    1.2091   -2.2692   -0.5882 H   0  0  0  0  0  0  0  0  0  0  0  0
    0.7438   -2.1947    1.8276 H   0  0  0  0  0  0  0  0  0  0  0  0
    0.2885   -0.7916    3.7989 H   0  0  0  0  0  0  0  0  0  0  0  0
   -0.5599    1.5151    3.5124 H   0  0  0  0  0  0  0  0  0  0  0  0
   -0.9435    2.4021    1.2344 H   0  0  0  0  0  0  0  0  0  0  0  0
   -0.4863    0.9943   -0.7331 H   0  0  0  0  0  0  0  0  0  0  0  0
  1  2  2  3
  1  4  1  0
  1  5  1  0
  2  6  1  0
  3  7  1  0
  3  8  1  0
  3  9  1  0
 10 11  1  0
 10 18  1  0
 10 19  1  0
 10 20  1  0
 11 12  2  3
 11 21  1  0
 12 13  1  0
 12 17  1  0
 13 14  1  0
 13 22  1  0
 14 15  2  0
 14 23  1  0
 15 16  1  0
 15 24  1  0
 16 17  2  0
 16 25  1  0
 17 26  1  0
M  RAD  3   2   2   3   2  13   2
M  END
>  <reaction>  (8) 
rxn_1619

>  <mol_properties>  (8) 
{"0": {"label": "*4", "atom_type": "Cd"}, "1": {"label": "*3", "atom_type": "Cd"}, "5": {"label": "*2", "atom_type": "H0"}, "10": {"label": "*1", "atom_type": "Cs"}, "11": {"label": "*0", "atom_type": "Cd"}}

>  <type>  (8) 
unop_4

>  <geom_source>  (8) 
Heuristics

$$$$

     RDKit          3D

 26 25  0  0  0  0  0  0  0  0999 V2000
   -1.2150    2.3261   -1.9177 C   0  0  0  0  0  0  0  0  0  0  0  0
   -1.2150    2.3261   -0.5939 C   0  0  0  0  0  0  0  0  0  0  0  0
   -1.2150    3.5483    0.2666 C   0  0  0  0  0  0  0  0  0  0  0  0
   -1.2150    1.4034   -2.4841 H   0  0  0  0  0  0  0  0  0  0  0  0
   -1.2150    3.2517   -2.4837 H   0  0  0  0  0  0  0  0  0  0  0  0
   -1.2150    1.1829    0.0343 H   0  0  0  0  0  0  0  0  0  0  0  0
   -2.0927    3.5654    0.9178 H   0  0  0  0  0  0  0  0  0  0  0  0
   -1.2150    4.4587   -0.3340 H   0  0  0  0  0  0  0  0  0  0  0  0
   -0.3373    3.5654    0.9178 H   0  0  0  0  0  0  0  0  0  0  0  0
   -1.2150    0.2831    2.1744 C   0  0  0  0  0  0  0  0  0  0  0  0
   -1.2150    0.0339    0.6658 C   0  0  0  0  0  0  0  0  0  0  0  0
   -0.0289   -0.7820    0.2234 C   0  0  0  0  0  0  0  0  0  0  0  0
   -0.0877   -2.1719    0.2019 C   0  0  0  0  0  3  0  0  0  0  0  0
    1.0167   -2.9274   -0.1608 C   0  0  0  0  0  0  0  0  0  0  0  0
    2.2038   -2.3013   -0.5093 C   0  0  0  0  0  0  0  0  0  0  0  0
    2.2759   -0.9167   -0.4929 C   0  0  0  0  0  0  0  0  0  0  0  0
    1.1681   -0.1667   -0.1293 C   0  0  0  0  0  0  0  0  0  0  0  0
   -0.3136    0.8187    2.4780 H   0  0  0  0  0  0  0  0  0  0  0  0
   -1.2401   -0.6607    2.7224 H   0  0  0  0  0  0  0  0  0  0  0  0
   -2.0814    0.8752    2.4743 H   0  0  0  0  0  0  0  0  0  0  0  0
   -2.1366   -0.4801    0.3826 H   0  0  0  0  0  0  0  0  0  0  0  0
   -1.0137   -2.6687    0.4702 H   0  0  0  0  0  0  0  0  0  0  0  0
    0.9489   -4.0081   -0.1747 H   0  0  0  0  0  0  0  0  0  0  0  0
    3.0667   -2.8890   -0.7957 H   0  0  0  0  0  0  0  0  0  0  0  0
    3.1972   -0.4182   -0.7677 H   0  0  0  0  0  0  0  0  0  0  0  0
    1.2312    0.9160   -0.1219 H   0  0  0  0  0  0  0  0  0  0  0  0
  1  2  2  3
  1  4  1  0
  1  5  1  0
  2  3  1  0
  2  6  1  0
  3  7  1  0
  3  8  1  0
  3  9  1  0
 10 11  1  0
 10 18  1  0
 10 19  1  0
 10 20  1  0
 11 12  2  3
 11 21  1  0
 12 13  1  0
 12 17  1  0
 13 14  1  0
 13 22  1  0
 14 15  2  0
 14 23  1  0
 15 16  1  0
 15 24  1  0
 16 17  2  0
 16 25  1  0
 17 26  1  0
M  RAD  1  13   2
M  END
>  <reaction>  (9) 
rxn_1619

>  <mol_properties>  (9) 
{"0": {"label": "*4", "atom_type": "Cd"}, "1": {"label": "*3", "atom_type": "Cd"}, "5": {"label": "*2", "atom_type": "H0"}, "10": {"label": "*1", "atom_type": "Cs"}, "11": {"label": "*0", "atom_type": "Cd"}}

>  <type>  (9) 
unop_5

>  <geom_source>  (9) 
Heuristics

$$$$

     RDKit          3D

 26 24  0  0  0  0  0  0  0  0999 V2000
   -0.3170    0.5688   -3.2891 C   0  0  0  0  0  0  0  0  0  0  0  0
   -0.3170    0.5688   -1.9653 C   0  0  0  0  0  3  0  0  0  0  0  0
   -0.3170    1.7910   -1.1048 C   0  0  0  0  0  0  0  0  0  0  0  0
   -0.3170   -0.3539   -3.8555 H   0  0  0  0  0  0  0  0  0  0  0  0
   -0.3170    1.4944   -3.8551 H   0  0  0  0  0  0  0  0  0  0  0  0
   -0.3170   -0.5743   -1.3371 H   0  0  0  0  0  0  0  0  0  0  0  0
   -1.1947    1.8081   -0.4536 H   0  0  0  0  0  0  0  0  0  0  0  0
   -0.3170    2.7015   -1.7054 H   0  0  0  0  0  0  0  0  0  0  0  0
    0.5607    1.8081   -0.4536 H   0  0  0  0  0  0  0  0  0  0  0  0
   -1.7592   -2.1687   -0.4609 C   0  0  0  0  0  0  0  0  0  0  0  0
   -0.3170   -1.7234   -0.7056 C   0  0  0  0  0  0  0  0  0  0  0  0
    0.1616   -0.7459    0.3355 C   0  0  0  0  0  0  0  0  0  0  0  0
    0.7610   -1.1913    1.5094 C   0  0  0  0  0  3  0  0  0  0  0  0
    1.1612   -0.2968    2.4901 C   0  0  0  0  0  0  0  0  0  0  0  0
    0.9668    1.0644    2.3114 C   0  0  0  0  0  0  0  0  0  0  0  0
    0.3713    1.5219    1.1457 C   0  0  0  0  0  0  0  0  0  0  0  0
   -0.0267    0.6225    0.1687 C   0  0  0  0  0  3  0  0  0  0  0  0
   -2.4362   -1.3126   -0.4753 H   0  0  0  0  0  0  0  0  0  0  0  0
   -1.8551   -2.6507    0.5139 H   0  0  0  0  0  0  0  0  0  0  0  0
   -2.0865   -2.8758   -1.2251 H   0  0  0  0  0  0  0  0  0  0  0  0
    0.3372   -2.5984   -0.7116 H   0  0  0  0  0  0  0  0  0  0  0  0
    0.9192   -2.2543    1.6550 H   0  0  0  0  0  0  0  0  0  0  0  0
    1.6294   -0.6637    3.3951 H   0  0  0  0  0  0  0  0  0  0  0  0
    1.2811    1.7650    3.0745 H   0  0  0  0  0  0  0  0  0  0  0  0
    0.2192    2.5834    0.9947 H   0  0  0  0  0  0  0  0  0  0  0  0
   -0.4889    0.9880   -0.7418 H   0  0  0  0  0  0  0  0  0  0  0  0
  1  2  2  3
  1  4  1  0
  1  5  1  0
  2  6  1  0
  3  7  1  0
  3  8  1  0
  3  9  1  0
  3 26  1  0
 10 11  1  0
 10 18  1  0
 10 19  1  0
 10 20  1  0
 11 12  2  3
 11 21  1  0
 12 13  1  0
 12 17  1  0
 13 14  1  0
 13 22  1  0
 14 15  2  0
 14 23  1  0
 15 16  1  0
 15 24  1  0
 16 17  2  0
 16 25  1  0
M  CHG  2  13  -1  17   1
M  RAD  1   2   2
M  END
>  <reaction>  (10) 
rxn_1619

>  <mol_properties>  (10) 
{"0": {"label": "*4", "atom_type": "Cd"}, "1": {"label": "*3", "atom_type": "Cd"}, "5": {"label": "*2", "atom_type": "H0"}, "10": {"label": "*1", "atom_type": "Cs"}, "11": {"label": "*0", "atom_type": "Cd"}}

>  <type>  (10) 
unop_6

>  <geom_source>  (10) 
Heuristics

$$$$

     RDKit          3D

 26 24  0  0  0  0  0  0  0  0999 V2000
   -0.9850    0.7366   -2.9831 C   0  0  0  0  0  0  0  0  0  0  0  0
   -0.9850    0.7366   -1.6594 C   0  0  0  0  0  3  0  0  0  0  0  0
   -0.9850    1.9588   -0.7989 C   0  0  0  0  0  0  0  0  0  0  0  0
   -0.9850   -0.1861   -3.5496 H   0  0  0  0  0  0  0  0  0  0  0  0
   -0.9850    1.6622   -3.5491 H   0  0  0  0  0  0  0  0  0  0  0  0
   -0.9850   -0.4066   -1.0312 H   0  0  0  0  0  0  0  0  0  0  0  0
   -1.8627    1.9759   -0.1477 H   0  0  0  0  0  0  0  0  0  0  0  0
   -0.9850    2.8692   -1.3995 H   0  0  0  0  0  0  0  0  0  0  0  0
   -0.1073    1.9759   -0.1477 H   0  0  0  0  0  0  0  0  0  0  0  0
   -2.2340   -1.6537    0.4770 C   0  0  0  0  0  0  0  0  0  0  0  0
   -0.9850   -1.5556   -0.3997 C   0  0  0  0  0  0  0  0  0  0  0  0
    0.1209   -0.7824    0.2691 C   0  0  0  0  0  0  0  0  0  0  0  0
    1.0472   -1.4243    1.0849 C   0  0  0  0  0  3  0  0  0  0  0  0
    2.0388   -0.7093    1.7387 C   0  0  0  0  0  0  0  0  0  0  0  0
    2.1198    0.6666    1.5863 C   0  0  0  0  0  0  0  0  0  0  0  0
    1.2034    1.3188    0.7755 C   0  0  0  0  0  0  0  0  0  0  0  0
    0.2141    0.5982    0.1243 C   0  0  0  0  0  3  0  0  0  0  0  0
   -2.6206   -0.6603    0.7121 H   0  0  0  0  0  0  0  0  0  0  0  0
   -2.0059   -2.1525    1.4208 H   0  0  0  0  0  0  0  0  0  0  0  0
   -3.0225   -2.2170   -0.0251 H   0  0  0  0  0  0  0  0  0  0  0  0
   -0.6317   -2.5607   -0.6421 H   0  0  0  0  0  0  0  0  0  0  0  0
    0.9922   -2.5006    1.2065 H   0  0  0  0  0  0  0  0  0  0  0  0
    2.7526   -1.2285    2.3662 H   0  0  0  0  0  0  0  0  0  0  0  0
    2.8950    1.2268    2.0934 H   0  0  0  0  0  0  0  0  0  0  0  0
    1.2610    2.3926    0.6465 H   0  0  0  0  0  0  0  0  0  0  0  0
   -0.4972    1.1150   -0.5107 H   0  0  0  0  0  0  0  0  0  0  0  0
  1  2  2  3
  1  4  1  0
  1  5  1  0
  2  6  1  0
  3  7  1  0
  3  8  1  0
  3  9  1  0
  3 26  1  0
 10 11  1  0
 10 18  1  0
 10 19  1  0
 10 20  1  0
 11 12  2  3
 11 21  1  0
 12 13  1  0
 12 17  1  0
 13 14  1  0
 13 22  1  0
 14 15  2  0
 14 23  1  0
 15 16  1  0
 15 24  1  0
 16 17  2  0
 16 25  1  0
M  CHG  2  13  -1  17   1
M  RAD  1   2   2
M  END
>  <reaction>  (11) 
rxn_1619

>  <mol_properties>  (11) 
{"0": {"label": "*4", "atom_type": "Cd"}, "1": {"label": "*3", "atom_type": "Cd"}, "5": {"label": "*2", "atom_type": "H0"}, "10": {"label": "*1", "atom_type": "Cs"}, "11": {"label": "*0", "atom_type": "Cd"}}

>  <type>  (11) 
unop_7

>  <geom_source>  (11) 
Heuristics

$$$$

     RDKit          3D

 26 25  0  0  0  0  0  0  0  0999 V2000
    0.8248    2.7418   -2.3272 C   0  0  0  0  0  0  0  0  0  0  0  0
    0.8248    2.7418   -1.0035 C   0  0  0  0  0  0  0  0  0  0  0  0
    0.8248    3.9640   -0.1430 C   0  0  0  0  0  0  0  0  0  0  0  0
    0.8248    1.8191   -2.8937 H   0  0  0  0  0  0  0  0  0  0  0  0
    0.8248    3.6674   -2.8932 H   0  0  0  0  0  0  0  0  0  0  0  0
    0.8248    1.5987   -0.3752 H   0  0  0  0  0  0  0  0  0  0  0  0
   -0.0529    3.9811    0.5083 H   0  0  0  0  0  0  0  0  0  0  0  0
    0.8248    4.8744   -0.7435 H   0  0  0  0  0  0  0  0  0  0  0  0
    1.7025    3.9811    0.5083 H   0  0  0  0  0  0  0  0  0  0  0  0
    2.2670    0.0042    0.5010 C   0  0  0  0  0  0  0  0  0  0  0  0
    0.8248    0.4496    0.2562 C   0  0  0  0  0  0  0  0  0  0  0  0
   -0.1495   -0.6943    0.3583 C   0  0  0  0  0  0  0  0  0  0  0  0
   -0.7243   -1.0344    1.5788 C   0  0  0  0  0  3  0  0  0  0  0  0
   -1.5861   -2.1151    1.6853 C   0  0  0  0  0  0  0  0  0  0  0  0
   -1.8879   -2.8770    0.5668 C   0  0  0  0  0  0  0  0  0  0  0  0
   -1.3226   -2.5485   -0.6560 C   0  0  0  0  0  0  0  0  0  0  0  0
   -0.4616   -1.4666   -0.7560 C   0  0  0  0  0  0  0  0  0  0  0  0
    2.5672   -0.7517   -0.2270 H   0  0  0  0  0  0  0  0  0  0  0  0
    2.3734   -0.4328    1.4956 H   0  0  0  0  0  0  0  0  0  0  0  0
    2.9564    0.8466    0.4226 H   0  0  0  0  0  0  0  0  0  0  0  0
    0.5558    1.2228    0.9798 H   0  0  0  0  0  0  0  0  0  0  0  0
   -0.4955   -0.4412    2.4575 H   0  0  0  0  0  0  0  0  0  0  0  0
   -2.0260   -2.3608    2.6439 H   0  0  0  0  0  0  0  0  0  0  0  0
   -2.5629   -3.7197    0.6468 H   0  0  0  0  0  0  0  0  0  0  0  0
   -1.5556   -3.1347   -1.5363 H   0  0  0  0  0  0  0  0  0  0  0  0
   -0.0257   -1.2140   -1.7165 H   0  0  0  0  0  0  0  0  0  0  0  0
  1  2  2  3
  1  4  1  0
  1  5  1  0
  2  3  1  0
  2  6  1  0
  3  7  1  0
  3  8  1  0
  3  9  1  0
 10 11  1  0
 10 18  1  0
 10 19  1  0
 10 20  1  0
 11 12  2  3
 11 21  1  0
 12 13  1  0
 12 17  1  0
 13 14  1  0
 13 22  1  0
 14 15  2  0
 14 23  1  0
 15 16  1  0
 15 24  1  0
 16 17  2  0
 16 25  1  0
 17 26  1  0
M  RAD  1  13   2
M  END
>  <reaction>  (12) 
rxn_1619

>  <mol_properties>  (12) 
{"0": {"label": "*4", "atom_type": "Cd"}, "1": {"label": "*3", "atom_type": "Cd"}, "5": {"label": "*2", "atom_type": "H0"}, "10": {"label": "*1", "atom_type": "Cs"}, "11": {"label": "*0", "atom_type": "Cd"}}

>  <type>  (12) 
unop_8

>  <geom_source>  (12) 
Heuristics

$$$$

     RDKit          3D

 26 25  0  0  0  0  0  0  0  0999 V2000
    0.9601    1.1413   -3.2581 C   0  0  0  0  0  0  0  0  0  0  0  0
    0.9601    1.1413   -1.9344 C   0  0  0  0  0  0  0  0  0  0  0  0
    0.9601    2.3635   -1.0738 C   0  0  0  0  0  0  0  0  0  0  0  0
    0.9601    0.2186   -3.8246 H   0  0  0  0  0  0  0  0  0  0  0  0
    0.9601    2.0669   -3.8241 H   0  0  0  0  0  0  0  0  0  0  0  0
    0.9601   -0.0018   -1.3061 H   0  0  0  0  0  0  0  0  0  0  0  0
    0.0824    2.3806   -0.4226 H   0  0  0  0  0  0  0  0  0  0  0  0
    0.9601    3.2739   -1.6744 H   0  0  0  0  0  0  0  0  0  0  0  0
    1.8378    2.3806   -0.4226 H   0  0  0  0  0  0  0  0  0  0  0  0
    0.2390   -2.1978   -1.5245 C   0  0  0  0  0  0  0  0  0  0  0  0
    0.9601   -1.1509   -0.6747 C   0  0  0  0  0  0  0  0  0  0  0  0
    0.1090   -0.6594    0.4666 C   0  0  0  0  0  0  0  0  0  0  0  0
    0.1241   -1.3073    1.6977 C   0  0  0  0  0  3  0  0  0  0  0  0
   -0.6919   -0.8856    2.7361 C   0  0  0  0  0  0  0  0  0  0  0  0
   -1.5407    0.1963    2.5584 C   0  0  0  0  0  0  0  0  0  0  0  0
   -1.5651    0.8517    1.3367 C   0  0  0  0  0  0  0  0  0  0  0  0
   -0.7467    0.4253    0.3022 C   0  0  0  0  0  0  0  0  0  0  0  0
   -0.6782   -1.7860   -1.9496 H   0  0  0  0  0  0  0  0  0  0  0  0
   -0.0358   -3.0642   -0.9200 H   0  0  0  0  0  0  0  0  0  0  0  0
    0.8717   -2.5406   -2.3450 H   0  0  0  0  0  0  0  0  0  0  0  0
    1.8858   -1.5775   -0.2812 H   0  0  0  0  0  0  0  0  0  0  0  0
    0.7877   -2.1524    1.8452 H   0  0  0  0  0  0  0  0  0  0  0  0
   -0.6623   -1.4013    3.6879 H   0  0  0  0  0  0  0  0  0  0  0  0
   -2.1768    0.5293    3.3688 H   0  0  0  0  0  0  0  0  0  0  0  0
   -2.2213    1.7005    1.1895 H   0  0  0  0  0  0  0  0  0  0  0  0
   -0.7690    0.9448   -0.6495 H   0  0  0  0  0  0  0  0  0  0  0  0
  1  2  2  3
  1  4  1  0
  1  5  1  0
  2  3  1  0
  2  6  1  0
  3  7  1  0
  3  8  1  0
  3  9  1  0
 10 11  1  0
 10 18  1  0
 10 19  1  0
 10 20  1  0
 11 12  2  3
 11 21  1  0
 12 13  1  0
 12 17  1  0
 13 14  1  0
 13 22  1  0
 14 15  2  0
 14 23  1  0
 15 16  1  0
 15 24  1  0
 16 17  2  0
 16 25  1  0
 17 26  1  0
M  RAD  1  13   2
M  END
>  <reaction>  (13) 
rxn_1619

>  <mol_properties>  (13) 
{"0": {"label": "*4", "atom_type": "Cd"}, "1": {"label": "*3", "atom_type": "Cd"}, "5": {"label": "*2", "atom_type": "H0"}, "10": {"label": "*1", "atom_type": "Cs"}, "11": {"label": "*0", "atom_type": "Cd"}}

>  <type>  (13) 
unop_9

>  <geom_source>  (13) 
Heuristics

$$$$

     RDKit          3D

 26 25  0  0  0  0  0  0  0  0999 V2000
    1.0120    2.5305   -2.5744 C   0  0  0  0  0  0  0  0  0  0  0  0
    1.0120    2.5305   -1.2506 C   0  0  0  0  0  0  0  0  0  0  0  0
    1.0120    3.7527   -0.3901 C   0  0  0  0  0  0  0  0  0  0  0  0
    1.0120    1.6077   -3.1409 H   0  0  0  0  0  0  0  0  0  0  0  0
    1.0120    3.4561   -3.1404 H   0  0  0  0  0  0  0  0  0  0  0  0
    1.0120    1.3873   -0.6224 H   0  0  0  0  0  0  0  0  0  0  0  0
    0.1343    3.7698    0.2611 H   0  0  0  0  0  0  0  0  0  0  0  0
    1.0120    4.6631   -0.9907 H   0  0  0  0  0  0  0  0  0  0  0  0
    1.8897    3.7698    0.2611 H   0  0  0  0  0  0  0  0  0  0  0  0
    2.2610   -0.5544   -0.3782 C   0  0  0  0  0  0  0  0  0  0  0  0
    1.0120    0.2383    0.0090 C   0  0  0  0  0  0  0  0  0  0  0  0
   -0.1241   -0.6576    0.4273 C   0  0  0  0  0  0  0  0  0  0  0  0
   -0.2682   -1.0544    1.7530 C   0  0  0  0  0  3  0  0  0  0  0  0
   -1.2857   -1.9157    2.1335 C   0  0  0  0  0  0  0  0  0  0  0  0
   -2.1797   -2.3966    1.1890 C   0  0  0  0  0  0  0  0  0  0  0  0
   -2.0480   -2.0084   -0.1357 C   0  0  0  0  0  0  0  0  0  0  0  0
   -1.0284   -1.1469   -0.5100 C   0  0  0  0  0  0  0  0  0  0  0  0
    2.0486   -1.2290   -1.2096 H   0  0  0  0  0  0  0  0  0  0  0  0
    2.6095   -1.1608    0.4599 H   0  0  0  0  0  0  0  0  0  0  0  0
    3.0715    0.1122   -0.6777 H   0  0  0  0  0  0  0  0  0  0  0  0
    1.2550    0.9232    0.8249 H   0  0  0  0  0  0  0  0  0  0  0  0
    0.4253   -0.6800    2.4980 H   0  0  0  0  0  0  0  0  0  0  0  0
   -1.3829   -2.2094    3.1714 H   0  0  0  0  0  0  0  0  0  0  0  0
   -2.9769   -3.0670    1.4842 H   0  0  0  0  0  0  0  0  0  0  0  0
   -2.7439   -2.3750   -0.8801 H   0  0  0  0  0  0  0  0  0  0  0  0
   -0.9337   -0.8453   -1.5474 H   0  0  0  0  0  0  0  0  0  0  0  0
  1  2  2  3
  1  4  1  0
  1  5  1  0
  2  3  1  0
  2  6  1  0
  3  7  1  0
  3  8  1  0
  3  9  1  0
 10 11  1  0
 10 18  1  0
 10 19  1  0
 10 20  1  0
 11 12  2  3
 11 21  1  0
 12 13  1  0
 12 17  1  0
 13 14  1  0
 13 22  1  0
 14 15  2  0
 14 23  1  0
 15 16  1  0
 15 24  1  0
 16 17  2  0
 16 25  1  0
 17 26  1  0
M  RAD  1  13   2
M  END
>  <reaction>  (14) 
rxn_1619

>  <mol_properties>  (14) 
{"0": {"label": "*4", "atom_type": "Cd"}, "1": {"label": "*3", "atom_type": "Cd"}, "5": {"label": "*2", "atom_type": "H0"}, "10": {"label": "*1", "atom_type": "Cs"}, "11": {"label": "*0", "atom_type": "Cd"}}

>  <type>  (14) 
unop_10

>  <geom_source>  (14) 
Heuristics

$$$$

     RDKit          3D

 26 25  0  0  0  0  0  0  0  0999 V2000
   -1.4416    1.3106   -2.4850 C   0  0  0  0  0  0  0  0  0  0  0  0
   -1.4416    1.3106   -1.1613 C   0  0  0  0  0  0  0  0  0  0  0  0
   -1.4416    2.5328   -0.3007 C   0  0  0  0  0  0  0  0  0  0  0  0
   -1.4416    0.3879   -3.0515 H   0  0  0  0  0  0  0  0  0  0  0  0
   -1.4416    2.2362   -3.0510 H   0  0  0  0  0  0  0  0  0  0  0  0
   -1.4416    0.1675   -0.5330 H   0  0  0  0  0  0  0  0  0  0  0  0
   -2.3193    2.5499    0.3505 H   0  0  0  0  0  0  0  0  0  0  0  0
   -1.4416    3.4433   -0.9013 H   0  0  0  0  0  0  0  0  0  0  0  0
   -0.5639    2.5499    0.3505 H   0  0  0  0  0  0  0  0  0  0  0  0
   -2.1627   -0.8254    1.4378 C   0  0  0  0  0  0  0  0  0  0  0  0
   -1.4416   -0.9816    0.0984 C   0  0  0  0  0  0  0  0  0  0  0  0
    0.0474   -0.7968    0.2285 C   0  0  0  0  0  0  0  0  0  0  0  0
    0.8771   -1.8755    0.5181 C   0  0  0  0  0  3  0  0  0  0  0  0
    2.2424   -1.7013    0.6838 C   0  0  0  0  0  0  0  0  0  0  0  0
    2.8024   -0.4387    0.5621 C   0  0  0  0  0  0  0  0  0  0  0  0
    1.9871    0.6450    0.2728 C   0  0  0  0  0  0  0  0  0  0  0  0
    0.6225    0.4644    0.1082 C   0  0  0  0  0  0  0  0  0  0  0  0
   -1.9882    0.1669    1.8577 H   0  0  0  0  0  0  0  0  0  0  0  0
   -1.8004   -1.5593    2.1600 H   0  0  0  0  0  0  0  0  0  0  0  0
   -3.2392   -0.9628    1.3221 H   0  0  0  0  0  0  0  0  0  0  0  0
   -1.6512   -1.9716   -0.3136 H   0  0  0  0  0  0  0  0  0  0  0  0
    0.4467   -2.8666    0.6117 H   0  0  0  0  0  0  0  0  0  0  0  0
    2.8713   -2.5547    0.9051 H   0  0  0  0  0  0  0  0  0  0  0  0
    3.8688   -0.3006    0.6881 H   0  0  0  0  0  0  0  0  0  0  0  0
    2.4156    1.6344    0.1714 H   0  0  0  0  0  0  0  0  0  0  0  0
   -0.0083    1.3163   -0.1209 H   0  0  0  0  0  0  0  0  0  0  0  0
  1  2  2  3
  1  4  1  0
  1  5  1  0
  2  3  1  0
  2  6  1  0
  3  7  1  0
  3  8  1  0
  3  9  1  0
 10 11  1  0
 10 18  1  0
 10 19  1  0
 10 20  1  0
 11 12  2  3
 11 21  1  0
 12 13  1  0
 12 17  1  0
 13 14  1  0
 13 22  1  0
 14 15  2  0
 14 23  1  0
 15 16  1  0
 15 24  1  0
 16 17  2  0
 16 25  1  0
 17 26  1  0
M  RAD  1  13   2
M  END
>  <reaction>  (15) 
rxn_1619

>  <mol_properties>  (15) 
{"0": {"label": "*4", "atom_type": "Cd"}, "1": {"label": "*3", "atom_type": "Cd"}, "5": {"label": "*2", "atom_type": "H0"}, "10": {"label": "*1", "atom_type": "Cs"}, "11": {"label": "*0", "atom_type": "Cd"}}

>  <type>  (15) 
unop_11

>  <geom_source>  (15) 
Heuristics

$$$$

     RDKit          3D

 26 25  0  0  0  0  0  0  0  0999 V2000
    1.2150    1.7222   -3.0165 C   0  0  0  0  0  0  0  0  0  0  0  0
    1.2150    1.7222   -1.6928 C   0  0  0  0  0  0  0  0  0  0  0  0
    1.2150    2.9444   -0.8323 C   0  0  0  0  0  0  0  0  0  0  0  0
    1.2150    0.7995   -3.5830 H   0  0  0  0  0  0  0  0  0  0  0  0
    1.2150    2.6478   -3.5825 H   0  0  0  0  0  0  0  0  0  0  0  0
    1.2150    0.5791   -1.0646 H   0  0  0  0  0  0  0  0  0  0  0  0
    0.3373    2.9615   -0.1810 H   0  0  0  0  0  0  0  0  0  0  0  0
    1.2150    3.8548   -1.4329 H   0  0  0  0  0  0  0  0  0  0  0  0
    2.0927    2.9615   -0.1810 H   0  0  0  0  0  0  0  0  0  0  0  0
    1.2150   -1.7100   -1.4522 C   0  0  0  0  0  0  0  0  0  0  0  0
    1.2150   -0.5700   -0.4331 C   0  0  0  0  0  0  0  0  0  0  0  0
    0.0289   -0.6340    0.4928 C   0  0  0  0  0  0  0  0  0  0  0  0
    0.0877   -1.3609    1.6776 C   0  0  0  0  0  3  0  0  0  0  0  0
   -1.0167   -1.4597    2.5098 C   0  0  0  0  0  0  0  0  0  0  0  0
   -2.2038   -0.8300    2.1681 C   0  0  0  0  0  0  0  0  0  0  0  0
   -2.2759   -0.1015    0.9905 C   0  0  0  0  0  0  0  0  0  0  0  0
   -1.1681   -0.0063    0.1625 C   0  0  0  0  0  0  0  0  0  0  0  0
    0.3136   -1.6791   -2.0671 H   0  0  0  0  0  0  0  0  0  0  0  0
    1.2401   -2.6785   -0.9493 H   0  0  0  0  0  0  0  0  0  0  0  0
    2.0814   -1.6456   -2.1128 H   0  0  0  0  0  0  0  0  0  0  0  0
    2.1366   -0.6065    0.1526 H   0  0  0  0  0  0  0  0  0  0  0  0
    1.0137   -1.8537    1.9531 H   0  0  0  0  0  0  0  0  0  0  0  0
   -0.9489   -2.0274    3.4296 H   0  0  0  0  0  0  0  0  0  0  0  0
   -3.0667   -0.9032    2.8178 H   0  0  0  0  0  0  0  0  0  0  0  0
   -3.1972    0.3977    0.7170 H   0  0  0  0  0  0  0  0  0  0  0  0
   -1.2312    0.5678   -0.7554 H   0  0  0  0  0  0  0  0  0  0  0  0
  1  2  2  3
  1  4  1  0
  1  5  1  0
  2  3  1  0
  2  6  1  0
  3  7  1  0
  3  8  1  0
  3  9  1  0
 10 11  1  0
 10 18  1  0
 10 19  1  0
 10 20  1  0
 11 12  2  3
 11 21  1  0
 12 13  1  0
 12 17  1  0
 13 14  1  0
 13 22  1  0
 14 15  2  0
 14 23  1  0
 15 16  1  0
 15 24  1  0
 16 17  2  0
 16 25  1  0
 17 26  1  0
M  RAD  1  13   2
M  END
>  <reaction>  (16) 
rxn_1619

>  <mol_properties>  (16) 
{"0": {"label": "*4", "atom_type": "Cd"}, "1": {"label": "*3", "atom_type": "Cd"}, "5": {"label": "*2", "atom_type": "H0"}, "10": {"label": "*1", "atom_type": "Cs"}, "11": {"label": "*0", "atom_type": "Cd"}}

>  <type>  (16) 
unop_12

>  <geom_source>  (16) 
Heuristics

$$$$

     RDKit          3D

 26 25  0  0  0  0  0  0  0  0999 V2000
   -0.4316   -1.1865    0.2524 C   0  0  0  0  0  0  0  0  0  0  0  0
   -0.4440   -2.3786   -0.6965 C   0  0  0  0  0  0  0  0  0  0  0  0
   -2.3728    1.4771   -0.8368 C   0  0  0  0  0  0  0  0  0  0  0  0
    0.8775   -0.4525    0.1713 C   0  0  0  0  0  0  0  0  0  0  0  0
    1.0403    0.5986   -0.7452 C   0  0  0  0  0  3  0  0  0  0  0  0
    1.9628   -0.8429    0.9735 C   0  0  0  0  0  0  0  0  0  0  0  0
    2.2667    1.2639   -0.8420 C   0  0  0  0  0  0  0  0  0  0  0  0
    3.3387    0.8788   -0.0320 C   0  0  0  0  0  0  0  0  0  0  0  0
    3.1874   -0.1750    0.8737 C   0  0  0  0  0  0  0  0  0  0  0  0
   -2.9251    0.8436    1.4871 C   0  0  0  0  0  0  0  0  0  0  0  0
   -2.3784    0.5225    0.3140 C   0  0  0  0  0  0  0  0  0  0  0  0
   -0.6093   -1.5397    1.2915 H   0  0  0  0  0  0  0  0  0  0  0  0
   -1.5236   -0.2913   -0.0995 H   0  0  0  0  0  0  0  0  0  0  0  0
    0.3626   -3.0944   -0.4293 H   0  0  0  0  0  0  0  0  0  0  0  0
   -1.4223   -2.8977   -0.6229 H   0  0  0  0  0  0  0  0  0  0  0  0
   -0.3016   -2.0360   -1.7434 H   0  0  0  0  0  0  0  0  0  0  0  0
   -1.8221    2.4013   -0.5616 H   0  0  0  0  0  0  0  0  0  0  0  0
   -1.8692    1.0007   -1.7029 H   0  0  0  0  0  0  0  0  0  0  0  0
   -3.4146    1.7358   -1.1215 H   0  0  0  0  0  0  0  0  0  0  0  0
    0.2206    0.9009   -1.3850 H   0  0  0  0  0  0  0  0  0  0  0  0
    2.3868    2.0760   -1.5474 H   0  0  0  0  0  0  0  0  0  0  0  0
    1.8602   -1.6631    1.6733 H   0  0  0  0  0  0  0  0  0  0  0  0
    4.2874    1.3941   -0.1090 H   0  0  0  0  0  0  0  0  0  0  0  0
    4.0199   -0.4763    1.4962 H   0  0  0  0  0  0  0  0  0  0  0  0
   -3.3856    1.8148    1.6424 H   0  0  0  0  0  0  0  0  0  0  0  0
   -2.9109    0.1260    2.2998 H   0  0  0  0  0  0  0  0  0  0  0  0
  1  2  1  0
  1  4  2  3
  1 12  1  0
  2 14  1  0
  2 15  1  0
  2 16  1  0
  3 11  1  0
  3 17  1  0
  3 18  1  0
  3 19  1  0
  4  5  1  0
  4  6  1  0
  5  7  1  0
  5 20  1  0
  6  9  2  0
  6 22  1  0
  7  8  2  0
  7 21  1  0
  8  9  1  0
  8 23  1  0
  9 24  1  0
 10 11  2  3
 10 25  1  0
 10 26  1  0
 11 13  1  0
M  RAD  1   5   2
M  END
>  <reaction>  (17) 
rxn_1619

>  <mol_properties>  (17) 
{"0": {"label": "*4", "atom_type": "Cd"}, "1": {"label": "*3", "atom_type": "Cd"}, "5": {"label": "*2", "atom_type": "H0"}, "10": {"label": "*1", "atom_type": "Cs"}, "11": {"label": "*0", "atom_type": "Cd"}}

>  <type>  (17) 
unop_13

>  <geom_source>  (17) 
AutoTST

$$$$

     RDKit          3D

 26 25  0  0  0  0  0  0  0  0999 V2000
    1.1654    2.2183   -2.7814 C   0  0  0  0  0  0  0  0  0  0  0  0
    1.1654    2.2183   -1.4576 C   0  0  0  0  0  0  0  0  0  0  0  0
    1.1654    3.4405   -0.5971 C   0  0  0  0  0  0  0  0  0  0  0  0
    1.1654    1.2956   -3.3479 H   0  0  0  0  0  0  0  0  0  0  0  0
    1.1654    3.1439   -3.3474 H   0  0  0  0  0  0  0  0  0  0  0  0
    1.1654    1.0752   -0.8294 H   0  0  0  0  0  0  0  0  0  0  0  0
    0.2877    3.4576    0.0541 H   0  0  0  0  0  0  0  0  0  0  0  0
    1.1654    4.3510   -1.1977 H   0  0  0  0  0  0  0  0  0  0  0  0
    2.0431    3.4576    0.0541 H   0  0  0  0  0  0  0  0  0  0  0  0
    1.8865   -1.1208   -1.0478 C   0  0  0  0  0  0  0  0  0  0  0  0
    1.1654   -0.0739   -0.1979 C   0  0  0  0  0  0  0  0  0  0  0  0
   -0.0585   -0.6338    0.4779 C   0  0  0  0  0  0  0  0  0  0  0  0
    0.0293   -1.2296    1.7321 C   0  0  0  0  0  3  0  0  0  0  0  0
   -1.0866   -1.7868    2.3372 C   0  0  0  0  0  0  0  0  0  0  0  0
   -2.3145   -1.7572    1.6938 C   0  0  0  0  0  0  0  0  0  0  0  0
   -2.4163   -1.1658    0.4437 C   0  0  0  0  0  0  0  0  0  0  0  0
   -1.2968   -0.6102   -0.1561 C   0  0  0  0  0  0  0  0  0  0  0  0
    1.2268   -1.5080   -1.8265 H   0  0  0  0  0  0  0  0  0  0  0  0
    2.2051   -1.9650   -0.4334 H   0  0  0  0  0  0  0  0  0  0  0  0
    2.7693   -0.6956   -1.5283 H   0  0  0  0  0  0  0  0  0  0  0  0
    1.8519    0.3165    0.5571 H   0  0  0  0  0  0  0  0  0  0  0  0
    0.9857   -1.2538    2.2429 H   0  0  0  0  0  0  0  0  0  0  0  0
   -0.9977   -2.2425    3.3156 H   0  0  0  0  0  0  0  0  0  0  0  0
   -3.1880   -2.1891    2.1655 H   0  0  0  0  0  0  0  0  0  0  0  0
   -3.3718   -1.1336   -0.0650 H   0  0  0  0  0  0  0  0  0  0  0  0
   -1.3848   -0.1466   -1.1326 H   0  0  0  0  0  0  0  0  0  0  0  0
  1  2  2  3
  1  4  1  0
  1  5  1  0
  2  3  1  0
  2  6  1  0
  3  7  1  0
  3  8  1  0
  3  9  1  0
 10 11  1  0
 10 18  1  0
 10 19  1  0
 10 20  1  0
 11 12  2  3
 11 21  1  0
 12 13  1  0
 12 17  1  0
 13 14  1  0
 13 22  1  0
 14 15  2  0
 14 23  1  0
 15 16  1  0
 15 24  1  0
 16 17  2  0
 16 25  1  0
 17 26  1  0
M  RAD  1  13   2
M  END
>  <reaction>  (18) 
rxn_1619

>  <mol_properties>  (18) 
{"0": {"label": "*4", "atom_type": "Cd"}, "1": {"label": "*3", "atom_type": "Cd"}, "5": {"label": "*2", "atom_type": "H0"}, "10": {"label": "*1", "atom_type": "Cs"}, "11": {"label": "*0", "atom_type": "Cd"}}

>  <type>  (18) 
unop_14

>  <geom_source>  (18) 
gaussian_log

$$$$
