
     RDKit          3D

  6  5  0  0  0  0  0  0  0  0999 V2000
   -0.3669    0.0060    0.0609 C   0  0  0  0  0  0  0  0  0  0  0  0
    0.9818   -0.0507    0.4695 O   0  0  0  0  0  0  0  0  0  0  0  0
   -0.6066    0.9462   -0.4488 H   0  0  0  0  0  0  0  0  0  0  0  0
   -0.5221   -0.8115   -0.6420 H   0  0  0  0  0  0  0  0  0  0  0  0
   -1.0602   -0.1268    0.8992 H   0  0  0  0  0  0  0  0  0  0  0  0
    1.1451    0.6595    1.0897 H   0  0  0  0  0  0  0  0  0  0  0  0
  1  2  1  0
  1  3  1  0
  1  4  1  0
  1  5  1  0
  2  6  1  0
M  END
>  <reaction>  (1) 
rxn_390

>  <mol_properties>  (1) 
{"1": {"label": "donator", "atom_type": "O2s"}, "5": {"label": "d_hydrogen", "atom_type": "H0"}}

>  <type>  (1) 
r1h

$$$$

     RDKit          3D

 10  9  0  0  0  0  0  0  0  0999 V2000
    1.2930    0.1441    0.3288 C   0  0  0  0  0  0  0  0  0  0  0  0
   -0.0374   -0.1647    0.9100 C   0  0  0  0  0  3  0  0  0  0  0  0
   -1.2664    0.4569    0.3567 C   0  0  0  0  0  0  0  0  0  0  0  0
    1.4384    1.2242    0.2174 H   0  0  0  0  0  0  0  0  0  0  0  0
    2.1077   -0.2477    0.9385 H   0  0  0  0  0  0  0  0  0  0  0  0
    1.4057   -0.2836   -0.6789 H   0  0  0  0  0  0  0  0  0  0  0  0
   -0.1309   -0.9912    1.6030 H   0  0  0  0  0  0  0  0  0  0  0  0
   -1.5005    0.0716   -0.6471 H   0  0  0  0  0  0  0  0  0  0  0  0
   -2.1382    0.2713    0.9849 H   0  0  0  0  0  0  0  0  0  0  0  0
   -1.1497    1.5406    0.2456 H   0  0  0  0  0  0  0  0  0  0  0  0
  1  2  1  0
  1  4  1  0
  1  5  1  0
  1  6  1  0
  2  3  1  0
  2  7  1  0
  3  8  1  0
  3  9  1  0
  3 10  1  0
M  RAD  1   2   2
M  END
>  <reaction>  (2) 
rxn_390

>  <mol_properties>  (2) 
{"1": {"label": "acceptor", "atom_type": "Cs"}}

>  <type>  (2) 
r2

$$$$

     RDKit          3D

 11 10  0  0  0  0  0  0  0  0999 V2000
   -1.2710    0.1907   -0.2084 C   0  0  0  0  0  0  0  0  0  0  0  0
    0.0202   -0.6130   -0.2928 C   0  0  0  0  0  0  0  0  0  0  0  0
    0.1086   -1.6953    0.7756 C   0  0  0  0  0  0  0  0  0  0  0  0
   -1.3607    0.6851    0.7620 H   0  0  0  0  0  0  0  0  0  0  0  0
   -2.1429   -0.4567   -0.3299 H   0  0  0  0  0  0  0  0  0  0  0  0
   -1.3158    0.9602   -0.9809 H   0  0  0  0  0  0  0  0  0  0  0  0
    0.8757    0.0616   -0.1992 H   0  0  0  0  0  0  0  0  0  0  0  0
    0.0997   -1.0712   -1.2825 H   0  0  0  0  0  0  0  0  0  0  0  0
   -0.7198   -2.4022    0.6850 H   0  0  0  0  0  0  0  0  0  0  0  0
    1.0395   -2.2596    0.6989 H   0  0  0  0  0  0  0  0  0  0  0  0
    0.0624   -1.2603    1.7770 H   0  0  0  0  0  0  0  0  0  0  0  0
  1  2  1  0
  1  4  1  0
  1  5  1  0
  1  6  1  0
  2  3  1  0
  2  7  1  0
  2  8  1  0
  3  9  1  0
  3 10  1  0
  3 11  1  0
M  END
>  <reaction>  (3) 
rxn_390

>  <mol_properties>  (3) 
{"0": {"label": "a_hydrogen", "atom_type": "H0"}, "2": {"label": "acceptor", "atom_type": "Cs"}}

>  <type>  (3) 
r2h

$$$$

     RDKit          3D

 16 14  0  0  0  0  0  0  0  0999 V2000
    0.1616   -1.4808   -1.3652 C   0  0  0  0  0  0  0  0  0  0  0  0
    1.0443   -0.4128   -1.4579 O   0  0  0  0  0  1  0  0  0  0  0  0
   -0.8610   -1.2193   -1.6665 H   0  0  0  0  0  0  0  0  0  0  0  0
    0.5274   -2.2469   -2.0587 H   0  0  0  0  0  0  0  0  0  0  0  0
    0.1406   -1.9299   -0.3632 H   0  0  0  0  0  0  0  0  0  0  0  0
    0.6612    0.4595   -0.5841 H   0  0  0  0  0  0  0  0  0  0  0  0
    0.6137    0.5387    1.6155 C   0  0  0  0  0  0  0  0  0  0  0  0
    0.2005    1.1730    0.3116 C   0  0  0  0  0  0  0  0  0  0  0  0
   -1.2848    1.2788    0.0768 C   0  0  0  0  0  0  0  0  0  0  0  0
    0.1663   -0.4518    1.7285 H   0  0  0  0  0  0  0  0  0  0  0  0
    1.6966    0.4336    1.6831 H   0  0  0  0  0  0  0  0  0  0  0  0
    0.2792    1.1462    2.4630 H   0  0  0  0  0  0  0  0  0  0  0  0
    0.7244    2.1104    0.1140 H   0  0  0  0  0  0  0  0  0  0  0  0
   -1.7428    1.9536    0.8075 H   0  0  0  0  0  0  0  0  0  0  0  0
   -1.5064    1.6637   -0.9192 H   0  0  0  0  0  0  0  0  0  0  0  0
   -1.7704    0.3059    0.1847 H   0  0  0  0  0  0  0  0  0  0  0  0
  1  2  1  0
  1  3  1  0
  1  4  1  0
  1  5  1  0
  6  8  1  0
  7  8  1  0
  7 10  1  0
  7 11  1  0
  7 12  1  0
  8  9  1  0
  8 13  1  0
  9 14  1  0
  9 15  1  0
  9 16  1  0
M  RAD  1   2   2
M  END
>  <reaction>  (4) 
rxn_390

>  <mol_properties>  (4) 
{"0": {"label": "*4", "atom_type": "Cs"}, "1": {"label": "*3", "atom_type": "O2s"}, "5": {"label": "*2", "atom_type": "H0"}, "6": {"label": "*0", "atom_type": "Cs"}, "7": {"label": "*1", "atom_type": "Cs"}}

>  <type>  (4) 
ts

$$$$

     RDKit          3D

 16 14  0  0  0  0  0  0  0  0999 V2000
    0.1189   -1.6667   -1.6492 C   0  0  0  0  0  0  0  0  0  0  0  0
    0.1189   -1.6667   -0.2388 O   0  0  0  0  0  0  0  0  0  0  0  0
    1.0097   -1.1814   -2.0640 H   0  0  0  0  0  0  0  0  0  0  0  0
    0.1189   -2.7082   -1.9684 H   0  0  0  0  0  0  0  0  0  0  0  0
   -0.7719   -1.1814   -2.0640 H   0  0  0  0  0  0  0  0  0  0  0  0
    0.1189   -0.5791    0.1299 H   0  0  0  0  0  0  0  0  0  0  0  0
   -1.1251    0.9133    1.3942 C   0  0  0  0  0  0  0  0  0  0  0  0
    0.1189    0.6637    0.5512 C   0  0  0  0  0  3  0  0  0  0  0  0
    0.7518    1.9528    0.0431 C   0  0  0  0  0  0  0  0  0  0  0  0
   -1.8874    1.4435    0.8182 H   0  0  0  0  0  0  0  0  0  0  0  0
   -1.5636   -0.0210    1.7486 H   0  0  0  0  0  0  0  0  0  0  0  0
   -0.8883    1.5247    2.2684 H   0  0  0  0  0  0  0  0  0  0  0  0
    0.8521    0.1059    1.1405 H   0  0  0  0  0  0  0  0  0  0  0  0
    1.0477    2.5969    0.8747 H   0  0  0  0  0  0  0  0  0  0  0  0
    1.6406    1.7536   -0.5580 H   0  0  0  0  0  0  0  0  0  0  0  0
    0.0486    2.5158   -0.5755 H   0  0  0  0  0  0  0  0  0  0  0  0
  1  2  1  0
  1  3  1  0
  1  4  1  0
  1  5  1  0
  2  6  1  0
  7  8  1  0
  7 10  1  0
  7 11  1  0
  7 12  1  0
  8  9  1  0
  8 13  1  0
  9 14  1  0
  9 15  1  0
  9 16  1  0
M  RAD  1   8   2
M  END
>  <reaction>  (5) 
rxn_390

>  <mol_properties>  (5) 
{"0": {"label": "*4", "atom_type": "Cs"}, "1": {"label": "*3", "atom_type": "O2s"}, "5": {"label": "*2", "atom_type": "H0"}, "6": {"label": "*0", "atom_type": "Cs"}, "7": {"label": "*1", "atom_type": "Cs"}}

>  <type>  (5) 
unop_1

>  <geom_source>  (5) 
Heuristics

$$$$

     RDKit          3D

 16 14  0  0  0  0  0  0  0  0999 V2000
   -0.0999   -1.6729   -1.4910 C   0  0  0  0  0  0  0  0  0  0  0  0
   -0.0999   -1.6729   -0.0807 O   0  0  0  0  0  0  0  0  0  0  0  0
    0.7908   -1.1876   -1.9058 H   0  0  0  0  0  0  0  0  0  0  0  0
   -0.0999   -2.7143   -1.8102 H   0  0  0  0  0  0  0  0  0  0  0  0
   -0.9908   -1.1876   -1.9058 H   0  0  0  0  0  0  0  0  0  0  0  0
   -0.0999   -0.5853    0.2880 H   0  0  0  0  0  0  0  0  0  0  0  0
   -0.8182    1.5371   -0.3060 C   0  0  0  0  0  0  0  0  0  0  0  0
   -0.0999    0.6575    0.7093 C   0  0  0  0  0  3  0  0  0  0  0  0
    1.1366    1.3271    1.2951 C   0  0  0  0  0  0  0  0  0  0  0  0
   -0.1593    1.7880   -1.1408 H   0  0  0  0  0  0  0  0  0  0  0  0
   -1.7003    1.0407   -0.7139 H   0  0  0  0  0  0  0  0  0  0  0  0
   -1.1431    2.4752    0.1505 H   0  0  0  0  0  0  0  0  0  0  0  0
   -0.7895    0.3963    1.5169 H   0  0  0  0  0  0  0  0  0  0  0  0
    0.8732    2.2586    1.8020 H   0  0  0  0  0  0  0  0  0  0  0  0
    1.6369    0.6823    2.0195 H   0  0  0  0  0  0  0  0  0  0  0  0
    1.8571    1.5714    0.5107 H   0  0  0  0  0  0  0  0  0  0  0  0
  1  2  1  0
  1  3  1  0
  1  4  1  0
  1  5  1  0
  2  6  1  0
  7  8  1  0
  7 10  1  0
  7 11  1  0
  7 12  1  0
  8  9  1  0
  8 13  1  0
  9 14  1  0
  9 15  1  0
  9 16  1  0
M  RAD  1   8   2
M  END
>  <reaction>  (6) 
rxn_390

>  <mol_properties>  (6) 
{"0": {"label": "*4", "atom_type": "Cs"}, "1": {"label": "*3", "atom_type": "O2s"}, "5": {"label": "*2", "atom_type": "H0"}, "6": {"label": "*0", "atom_type": "Cs"}, "7": {"label": "*1", "atom_type": "Cs"}}

>  <type>  (6) 
unop_2

>  <geom_source>  (6) 
Heuristics

$$$$

     RDKit          3D

 16 14  0  0  0  0  0  0  0  0999 V2000
    0.1654   -1.6338   -1.6837 C   0  0  0  0  0  0  0  0  0  0  0  0
    0.1654   -1.6338   -0.2733 O   0  0  0  0  0  0  0  0  0  0  0  0
    1.0562   -1.1484   -2.0984 H   0  0  0  0  0  0  0  0  0  0  0  0
    0.1654   -2.6752   -2.0028 H   0  0  0  0  0  0  0  0  0  0  0  0
   -0.7254   -1.1484   -2.0984 H   0  0  0  0  0  0  0  0  0  0  0  0
    0.1654   -0.5461    0.0954 H   0  0  0  0  0  0  0  0  0  0  0  0
   -0.5529    0.7775    1.8577 C   0  0  0  0  0  0  0  0  0  0  0  0
    0.1654    0.6966    0.5167 C   0  0  0  0  0  3  0  0  0  0  0  0
    0.0313    1.9763   -0.2988 C   0  0  0  0  0  0  0  0  0  0  0  0
   -1.6207    0.9626    1.7183 H   0  0  0  0  0  0  0  0  0  0  0  0
   -0.4455   -0.1476    2.4266 H   0  0  0  0  0  0  0  0  0  0  0  0
   -0.1539    1.5928    2.4660 H   0  0  0  0  0  0  0  0  0  0  0  0
    1.2243    0.4805    0.6834 H   0  0  0  0  0  0  0  0  0  0  0  0
    0.4487    2.8294    0.2416 H   0  0  0  0  0  0  0  0  0  0  0  0
    0.5518    1.8991   -1.2548 H   0  0  0  0  0  0  0  0  0  0  0  0
   -1.0182    2.1993   -0.5061 H   0  0  0  0  0  0  0  0  0  0  0  0
  1  2  1  0
  1  3  1  0
  1  4  1  0
  1  5  1  0
  2  6  1  0
  7  8  1  0
  7 10  1  0
  7 11  1  0
  7 12  1  0
  8  9  1  0
  8 13  1  0
  9 14  1  0
  9 15  1  0
  9 16  1  0
M  RAD  1   8   2
M  END
>  <reaction>  (7) 
rxn_390

>  <mol_properties>  (7) 
{"0": {"label": "*4", "atom_type": "Cs"}, "1": {"label": "*3", "atom_type": "O2s"}, "5": {"label": "*2", "atom_type": "H0"}, "6": {"label": "*0", "atom_type": "Cs"}, "7": {"label": "*1", "atom_type": "Cs"}}

>  <type>  (7) 
unop_3

>  <geom_source>  (7) 
Heuristics

$$$$

     RDKit          3D

 16 14  0  0  0  0  0  0  0  0999 V2000
   -0.2977   -1.3707   -1.7484 C   0  0  0  0  0  0  0  0  0  0  0  0
   -0.2977   -1.3707   -0.3380 O   0  0  0  0  0  0  0  0  0  0  0  0
    0.5931   -0.8854   -2.1631 H   0  0  0  0  0  0  0  0  0  0  0  0
   -0.2977   -2.4122   -2.0675 H   0  0  0  0  0  0  0  0  0  0  0  0
   -1.1885   -0.8854   -2.1631 H   0  0  0  0  0  0  0  0  0  0  0  0
   -0.2977   -0.2831    0.0307 H   0  0  0  0  0  0  0  0  0  0  0  0
    0.9463    1.6705   -0.0654 C   0  0  0  0  0  0  0  0  0  0  0  0
   -0.2977    0.9597    0.4520 C   0  0  0  0  0  3  0  0  0  0  0  0
   -0.0762    0.3017    1.8080 C   0  0  0  0  0  0  0  0  0  0  0  0
    1.7782    0.9708   -0.1767 H   0  0  0  0  0  0  0  0  0  0  0  0
    0.7681    2.1350   -1.0367 H   0  0  0  0  0  0  0  0  0  0  0  0
    1.2650    2.4537    0.6267 H   0  0  0  0  0  0  0  0  0  0  0  0
   -1.1218    1.6748    0.5247 H   0  0  0  0  0  0  0  0  0  0  0  0
    0.2102    1.0417    2.5591 H   0  0  0  0  0  0  0  0  0  0  0  0
   -0.9776   -0.2018    2.1615 H   0  0  0  0  0  0  0  0  0  0  0  0
    0.7234   -0.4412    1.7557 H   0  0  0  0  0  0  0  0  0  0  0  0
  1  2  1  0
  1  3  1  0
  1  4  1  0
  1  5  1  0
  2  6  1  0
  7  8  1  0
  7 10  1  0
  7 11  1  0
  7 12  1  0
  8  9  1  0
  8 13  1  0
  9 14  1  0
  9 15  1  0
  9 16  1  0
M  RAD  1   8   2
M  END
>  <reaction>  (8) 
rxn_390

>  <mol_properties>  (8) 
{"0": {"label": "*4", "atom_type": "Cs"}, "1": {"label": "*3", "atom_type": "O2s"}, "5": {"label": "*2", "atom_type": "H0"}, "6": {"label": "*0", "atom_type": "Cs"}, "7": {"label": "*1", "atom_type": "Cs"}}

>  <type>  (8) 
unop_4

>  <geom_source>  (8) 
Heuristics

$$$$

     RDKit          3D

 16 14  0  0  0  0  0  0  0  0999 V2000
    0.2388   -1.5154   -1.7611 C   0  0  0  0  0  0  0  0  0  0  0  0
    0.2388   -1.5154   -0.3507 O   0  0  0  0  0  0  0  0  0  0  0  0
    1.1296   -1.0300   -2.1759 H   0  0  0  0  0  0  0  0  0  0  0  0
    0.2388   -2.5568   -2.0803 H   0  0  0  0  0  0  0  0  0  0  0  0
   -0.6520   -1.0300   -2.1759 H   0  0  0  0  0  0  0  0  0  0  0  0
    0.2388   -0.4278    0.0180 H   0  0  0  0  0  0  0  0  0  0  0  0
    0.2388    0.8340    1.9625 C   0  0  0  0  0  0  0  0  0  0  0  0
    0.2388    0.8150    0.4393 C   0  0  0  0  0  3  0  0  0  0  0  0
   -0.9535    1.5525   -0.1567 C   0  0  0  0  0  0  0  0  0  0  0  0
   -0.6644    0.3639    2.3590 H   0  0  0  0  0  0  0  0  0  0  0  0
    1.0995    0.3014    2.3703 H   0  0  0  0  0  0  0  0  0  0  0  0
    0.2696    1.8589    2.3403 H   0  0  0  0  0  0  0  0  0  0  0  0
    1.1655    1.2626    0.0696 H   0  0  0  0  0  0  0  0  0  0  0  0
   -0.9602    2.5999    0.1543 H   0  0  0  0  0  0  0  0  0  0  0  0
   -0.9360    1.5279   -1.2476 H   0  0  0  0  0  0  0  0  0  0  0  0
   -1.8943    1.1049    0.1730 H   0  0  0  0  0  0  0  0  0  0  0  0
  1  2  1  0
  1  3  1  0
  1  4  1  0
  1  5  1  0
  2  6  1  0
  7  8  1  0
  7 10  1  0
  7 11  1  0
  7 12  1  0
  8  9  1  0
  8 13  1  0
  9 14  1  0
  9 15  1  0
  9 16  1  0
M  RAD  1   8   2
M  END
>  <reaction>  (9) 
rxn_390

>  <mol_properties>  (9) 
{"0": {"label": "*4", "atom_type": "Cs"}, "1": {"label": "*3", "atom_type": "O2s"}, "5": {"label": "*2", "atom_type": "H0"}, "6": {"label": "*0", "atom_type": "Cs"}, "7": {"label": "*1", "atom_type": "Cs"}}

>  <type>  (9) 
unop_5

>  <geom_source>  (9) 
Heuristics

$$$$

     RDKit          3D

 16 14  0  0  0  0  0  0  0  0999 V2000
   -0.1892   -1.2974   -1.8571 C   0  0  0  0  0  0  0  0  0  0  0  0
   -0.1892   -1.2974   -0.4468 O   0  0  0  0  0  0  0  0  0  0  0  0
    0.7016   -0.8120   -2.2719 H   0  0  0  0  0  0  0  0  0  0  0  0
   -0.1892   -2.3388   -2.1763 H   0  0  0  0  0  0  0  0  0  0  0  0
   -1.0800   -0.8120   -2.2719 H   0  0  0  0  0  0  0  0  0  0  0  0
   -0.1892   -0.2097   -0.0781 H   0  0  0  0  0  0  0  0  0  0  0  0
    1.2472    1.5133    0.5060 C   0  0  0  0  0  0  0  0  0  0  0  0
   -0.1892    1.0330    0.3432 C   0  0  0  0  0  3  0  0  0  0  0  0
   -0.6859    0.2482    1.5507 C   0  0  0  0  0  0  0  0  0  0  0  0
    1.9275    0.6698    0.6465 H   0  0  0  0  0  0  0  0  0  0  0  0
    1.5846    2.0728   -0.3680 H   0  0  0  0  0  0  0  0  0  0  0  0
    1.3450    2.1641    1.3783 H   0  0  0  0  0  0  0  0  0  0  0  0
   -0.8435    1.8927    0.1737 H   0  0  0  0  0  0  0  0  0  0  0  0
   -0.6490    0.8591    2.4558 H   0  0  0  0  0  0  0  0  0  0  0  0
   -1.7156   -0.0870    1.4154 H   0  0  0  0  0  0  0  0  0  0  0  0
   -0.0665   -0.6352    1.7241 H   0  0  0  0  0  0  0  0  0  0  0  0
  1  2  1  0
  1  3  1  0
  1  4  1  0
  1  5  1  0
  2  6  1  0
  7  8  1  0
  7 10  1  0
  7 11  1  0
  7 12  1  0
  8  9  1  0
  8 13  1  0
  9 14  1  0
  9 15  1  0
  9 16  1  0
M  RAD  1   8   2
M  END
>  <reaction>  (10) 
rxn_390

>  <mol_properties>  (10) 
{"0": {"label": "*4", "atom_type": "Cs"}, "1": {"label": "*3", "atom_type": "O2s"}, "5": {"label": "*2", "atom_type": "H0"}, "6": {"label": "*0", "atom_type": "Cs"}, "7": {"label": "*1", "atom_type": "Cs"}}

>  <type>  (10) 
unop_6

>  <geom_source>  (10) 
Heuristics

$$$$

     RDKit          3D

 16 14  0  0  0  0  0  0  0  0999 V2000
   -0.0198   -1.2793   -1.9102 C   0  0  0  0  0  0  0  0  0  0  0  0
   -0.0198   -1.2793   -0.4998 O   0  0  0  0  0  0  0  0  0  0  0  0
    0.8710   -0.7939   -2.3249 H   0  0  0  0  0  0  0  0  0  0  0  0
   -0.0198   -2.3207   -2.2293 H   0  0  0  0  0  0  0  0  0  0  0  0
   -0.9106   -0.7939   -2.3249 H   0  0  0  0  0  0  0  0  0  0  0  0
   -0.0198   -0.1917   -0.1311 H   0  0  0  0  0  0  0  0  0  0  0  0
    1.2242    1.3007    1.1332 C   0  0  0  0  0  0  0  0  0  0  0  0
   -0.0198    1.0511    0.2902 C   0  0  0  0  0  3  0  0  0  0  0  0
   -1.1475    0.4056    1.0853 C   0  0  0  0  0  0  0  0  0  0  0  0
    1.6116    0.3654    1.5444 H   0  0  0  0  0  0  0  0  0  0  0  0
    2.0200    1.7631    0.5468 H   0  0  0  0  0  0  0  0  0  0  0  0
    1.0003    1.9622    1.9737 H   0  0  0  0  0  0  0  0  0  0  0  0
   -0.3683    1.9971   -0.1334 H   0  0  0  0  0  0  0  0  0  0  0  0
   -1.4462    1.0388    1.9242 H   0  0  0  0  0  0  0  0  0  0  0  0
   -2.0290    0.2349    0.4650 H   0  0  0  0  0  0  0  0  0  0  0  0
   -0.8348   -0.5580    1.4949 H   0  0  0  0  0  0  0  0  0  0  0  0
  1  2  1  0
  1  3  1  0
  1  4  1  0
  1  5  1  0
  2  6  1  0
  7  8  1  0
  7 10  1  0
  7 11  1  0
  7 12  1  0
  8  9  1  0
  8 13  1  0
  9 14  1  0
  9 15  1  0
  9 16  1  0
M  RAD  1   8   2
M  END
>  <reaction>  (11) 
rxn_390

>  <mol_properties>  (11) 
{"0": {"label": "*4", "atom_type": "Cs"}, "1": {"label": "*3", "atom_type": "O2s"}, "5": {"label": "*2", "atom_type": "H0"}, "6": {"label": "*0", "atom_type": "Cs"}, "7": {"label": "*1", "atom_type": "Cs"}}

>  <type>  (11) 
unop_7

>  <geom_source>  (11) 
Heuristics

$$$$

     RDKit          3D

 16 14  0  0  0  0  0  0  0  0999 V2000
    0.0893   -1.6847   -1.5963 C   0  0  0  0  0  0  0  0  0  0  0  0
    0.0893   -1.6847   -0.1859 O   0  0  0  0  0  0  0  0  0  0  0  0
    0.9801   -1.1993   -2.0110 H   0  0  0  0  0  0  0  0  0  0  0  0
    0.0893   -2.7261   -1.9154 H   0  0  0  0  0  0  0  0  0  0  0  0
   -0.8015   -1.1993   -2.0110 H   0  0  0  0  0  0  0  0  0  0  0  0
    0.0893   -0.5970    0.1828 H   0  0  0  0  0  0  0  0  0  0  0  0
   -1.3471    1.1260    0.7669 C   0  0  0  0  0  0  0  0  0  0  0  0
    0.0893    0.6457    0.6041 C   0  0  0  0  0  3  0  0  0  0  0  0
    1.0849    1.7948    0.5089 C   0  0  0  0  0  0  0  0  0  0  0  0
   -1.6495    1.7475   -0.0794 H   0  0  0  0  0  0  0  0  0  0  0  0
   -2.0447    0.2894    0.8333 H   0  0  0  0  0  0  0  0  0  0  0  0
   -1.4579    1.7267    1.6729 H   0  0  0  0  0  0  0  0  0  0  0  0
    0.3558    0.0022    1.4472 H   0  0  0  0  0  0  0  0  0  0  0  0
    1.0508    2.4167    1.4067 H   0  0  0  0  0  0  0  0  0  0  0  0
    2.1073    1.4312    0.3927 H   0  0  0  0  0  0  0  0  0  0  0  0
    0.8591    2.4374   -0.3456 H   0  0  0  0  0  0  0  0  0  0  0  0
  1  2  1  0
  1  3  1  0
  1  4  1  0
  1  5  1  0
  2  6  1  0
  7  8  1  0
  7 10  1  0
  7 11  1  0
  7 12  1  0
  8  9  1  0
  8 13  1  0
  9 14  1  0
  9 15  1  0
  9 16  1  0
M  RAD  1   8   2
M  END
>  <reaction>  (12) 
rxn_390

>  <mol_properties>  (12) 
{"0": {"label": "*4", "atom_type": "Cs"}, "1": {"label": "*3", "atom_type": "O2s"}, "5": {"label": "*2", "atom_type": "H0"}, "6": {"label": "*0", "atom_type": "Cs"}, "7": {"label": "*1", "atom_type": "Cs"}}

>  <type>  (12) 
unop_8

>  <geom_source>  (12) 
Heuristics

$$$$

     RDKit          3D

 16 14  0  0  0  0  0  0  0  0999 V2000
   -0.3178   -1.4810   -1.6203 C   0  0  0  0  0  0  0  0  0  0  0  0
   -0.3178   -1.4810   -0.2099 O   0  0  0  0  0  0  0  0  0  0  0  0
    0.5730   -0.9957   -2.0351 H   0  0  0  0  0  0  0  0  0  0  0  0
   -0.3178   -2.5225   -1.9395 H   0  0  0  0  0  0  0  0  0  0  0  0
   -1.2086   -0.9957   -2.0351 H   0  0  0  0  0  0  0  0  0  0  0  0
   -0.3178   -0.3934    0.1588 H   0  0  0  0  0  0  0  0  0  0  0  0
    0.4004    1.7290   -0.4353 C   0  0  0  0  0  0  0  0  0  0  0  0
   -0.3178    0.8494    0.5801 C   0  0  0  0  0  3  0  0  0  0  0  0
    0.5316    0.5608    1.8112 C   0  0  0  0  0  0  0  0  0  0  0  0
    1.3217    1.2540   -0.7812 H   0  0  0  0  0  0  0  0  0  0  0  0
   -0.2234    1.9243   -1.3091 H   0  0  0  0  0  0  0  0  0  0  0  0
    0.6714    2.6919    0.0045 H   0  0  0  0  0  0  0  0  0  0  0  0
   -1.2497    1.3330    0.8860 H   0  0  0  0  0  0  0  0  0  0  0  0
    0.8067    1.4869    2.3218 H   0  0  0  0  0  0  0  0  0  0  0  0
    0.0006   -0.0699    2.5262 H   0  0  0  0  0  0  0  0  0  0  0  0
    1.4571    0.0490    1.5361 H   0  0  0  0  0  0  0  0  0  0  0  0
  1  2  1  0
  1  3  1  0
  1  4  1  0
  1  5  1  0
  2  6  1  0
  7  8  1  0
  7 10  1  0
  7 11  1  0
  7 12  1  0
  8  9  1  0
  8 13  1  0
  9 14  1  0
  9 15  1  0
  9 16  1  0
M  RAD  1   8   2
M  END
>  <reaction>  (13) 
rxn_390

>  <mol_properties>  (13) 
{"0": {"label": "*4", "atom_type": "Cs"}, "1": {"label": "*3", "atom_type": "O2s"}, "5": {"label": "*2", "atom_type": "H0"}, "6": {"label": "*0", "atom_type": "Cs"}, "7": {"label": "*1", "atom_type": "Cs"}}

>  <type>  (13) 
unop_9

>  <geom_source>  (13) 
Heuristics

$$$$

     RDKit          3D

 16 14  0  0  0  0  0  0  0  0999 V2000
    0.0222   -1.6943   -1.5305 C   0  0  0  0  0  0  0  0  0  0  0  0
    0.0222   -1.6943   -0.1201 O   0  0  0  0  0  0  0  0  0  0  0  0
    0.9130   -1.2089   -1.9452 H   0  0  0  0  0  0  0  0  0  0  0  0
    0.0222   -2.7357   -1.8496 H   0  0  0  0  0  0  0  0  0  0  0  0
   -0.8686   -1.2089   -1.9452 H   0  0  0  0  0  0  0  0  0  0  0  0
    0.0222   -0.6066    0.2486 H   0  0  0  0  0  0  0  0  0  0  0  0
   -1.2218    1.3470    0.1525 C   0  0  0  0  0  0  0  0  0  0  0  0
    0.0222    0.6361    0.6699 C   0  0  0  0  0  3  0  0  0  0  0  0
    1.1764    1.5936    0.9377 C   0  0  0  0  0  0  0  0  0  0  0  0
   -1.0116    1.8710   -0.7830 H   0  0  0  0  0  0  0  0  0  0  0  0
   -2.0367    0.6453   -0.0332 H   0  0  0  0  0  0  0  0  0  0  0  0
   -1.5761    2.0883    0.8728 H   0  0  0  0  0  0  0  0  0  0  0  0
   -0.2229    0.0956    1.5884 H   0  0  0  0  0  0  0  0  0  0  0  0
    0.8976    2.3427    1.6828 H   0  0  0  0  0  0  0  0  0  0  0  0
    2.0575    1.0664    1.3073 H   0  0  0  0  0  0  0  0  0  0  0  0
    1.4621    2.1254    0.0269 H   0  0  0  0  0  0  0  0  0  0  0  0
  1  2  1  0
  1  3  1  0
  1  4  1  0
  1  5  1  0
  2  6  1  0
  7  8  1  0
  7 10  1  0
  7 11  1  0
  7 12  1  0
  8  9  1  0
  8 13  1  0
  9 14  1  0
  9 15  1  0
  9 16  1  0
M  RAD  1   8   2
M  END
>  <reaction>  (14) 
rxn_390

>  <mol_properties>  (14) 
{"0": {"label": "*4", "atom_type": "Cs"}, "1": {"label": "*3", "atom_type": "O2s"}, "5": {"label": "*2", "atom_type": "H0"}, "6": {"label": "*0", "atom_type": "Cs"}, "7": {"label": "*1", "atom_type": "Cs"}}

>  <type>  (14) 
unop_10

>  <geom_source>  (14) 
Heuristics

$$$$

     RDKit          3D

 16 14  0  0  0  0  0  0  0  0999 V2000
    0.1635   -1.3466   -1.8771 C   0  0  0  0  0  0  0  0  0  0  0  0
    0.1635   -1.3466   -0.4667 O   0  0  0  0  0  0  0  0  0  0  0  0
    1.0543   -0.8612   -2.2919 H   0  0  0  0  0  0  0  0  0  0  0  0
    0.1635   -2.3880   -2.1963 H   0  0  0  0  0  0  0  0  0  0  0  0
   -0.7273   -0.8612   -2.2919 H   0  0  0  0  0  0  0  0  0  0  0  0
    0.1635   -0.2589   -0.0980 H   0  0  0  0  0  0  0  0  0  0  0  0
    0.8817    1.0647    1.6642 C   0  0  0  0  0  0  0  0  0  0  0  0
    0.1635    0.9838    0.3233 C   0  0  0  0  0  3  0  0  0  0  0  0
   -1.3445    0.8295    0.4738 C   0  0  0  0  0  0  0  0  0  0  0  0
    0.7057    0.1635    2.2566 H   0  0  0  0  0  0  0  0  0  0  0  0
    1.9598    1.1749    1.5358 H   0  0  0  0  0  0  0  0  0  0  0  0
    0.5252    1.9171    2.2475 H   0  0  0  0  0  0  0  0  0  0  0  0
    0.3809    1.8823   -0.2609 H   0  0  0  0  0  0  0  0  0  0  0  0
   -1.7712    1.6745    1.0196 H   0  0  0  0  0  0  0  0  0  0  0  0
   -1.8408    0.7734   -0.4965 H   0  0  0  0  0  0  0  0  0  0  0  0
   -1.5907   -0.0791    1.0286 H   0  0  0  0  0  0  0  0  0  0  0  0
  1  2  1  0
  1  3  1  0
  1  4  1  0
  1  5  1  0
  2  6  1  0
  7  8  1  0
  7 10  1  0
  7 11  1  0
  7 12  1  0
  8  9  1  0
  8 13  1  0
  9 14  1  0
  9 15  1  0
  9 16  1  0
M  RAD  1   8   2
M  END
>  <reaction>  (15) 
rxn_390

>  <mol_properties>  (15) 
{"0": {"label": "*4", "atom_type": "Cs"}, "1": {"label": "*3", "atom_type": "O2s"}, "5": {"label": "*2", "atom_type": "H0"}, "6": {"label": "*0", "atom_type": "Cs"}, "7": {"label": "*1", "atom_type": "Cs"}}

>  <type>  (15) 
unop_11

>  <geom_source>  (15) 
Heuristics

$$$$

     RDKit          3D

 16 14  0  0  0  0  0  0  0  0999 V2000
   -0.2388   -1.5971   -1.5201 C   0  0  0  0  0  0  0  0  0  0  0  0
   -0.2388   -1.5971   -0.1098 O   0  0  0  0  0  0  0  0  0  0  0  0
    0.6520   -1.1117   -1.9349 H   0  0  0  0  0  0  0  0  0  0  0  0
   -0.2388   -2.6385   -1.8393 H   0  0  0  0  0  0  0  0  0  0  0  0
   -1.1296   -1.1117   -1.9349 H   0  0  0  0  0  0  0  0  0  0  0  0
   -0.2388   -0.5095    0.2589 H   0  0  0  0  0  0  0  0  0  0  0  0
   -0.2388    1.6747   -0.5174 C   0  0  0  0  0  0  0  0  0  0  0  0
   -0.2388    0.7333    0.6802 C   0  0  0  0  0  3  0  0  0  0  0  0
    0.9535    0.9563    1.6018 C   0  0  0  0  0  0  0  0  0  0  0  0
    0.6644    1.5426   -1.1181 H   0  0  0  0  0  0  0  0  0  0  0  0
   -1.0995    1.4999   -1.1651 H   0  0  0  0  0  0  0  0  0  0  0  0
   -0.2696    2.7181   -0.1941 H   0  0  0  0  0  0  0  0  0  0  0  0
   -1.1655    0.8639    1.2459 H   0  0  0  0  0  0  0  0  0  0  0  0
    0.9602    1.9770    1.9919 H   0  0  0  0  0  0  0  0  0  0  0  0
    0.9360    0.2734    2.4529 H   0  0  0  0  0  0  0  0  0  0  0  0
    1.8943    0.8016    1.0679 H   0  0  0  0  0  0  0  0  0  0  0  0
  1  2  1  0
  1  3  1  0
  1  4  1  0
  1  5  1  0
  2  6  1  0
  7  8  1  0
  7 10  1  0
  7 11  1  0
  7 12  1  0
  8  9  1  0
  8 13  1  0
  9 14  1  0
  9 15  1  0
  9 16  1  0
M  RAD  1   8   2
M  END
>  <reaction>  (16) 
rxn_390

>  <mol_properties>  (16) 
{"0": {"label": "*4", "atom_type": "Cs"}, "1": {"label": "*3", "atom_type": "O2s"}, "5": {"label": "*2", "atom_type": "H0"}, "6": {"label": "*0", "atom_type": "Cs"}, "7": {"label": "*1", "atom_type": "Cs"}}

>  <type>  (16) 
unop_12

>  <geom_source>  (16) 
Heuristics

$$$$

     RDKit          3D

 16 14  0  0  0  0  0  0  0  0999 V2000
    1.5396   -0.4380   -0.3942 O   0  0  0  0  0  0  0  0  0  0  0  0
   -0.7479    0.1776   -0.2646 C   0  0  0  0  0  3  0  0  0  0  0  0
   -1.3289    0.9400    0.9213 C   0  0  0  0  0  0  0  0  0  0  0  0
   -1.6272   -1.0079   -0.6472 C   0  0  0  0  0  0  0  0  0  0  0  0
    2.8261   -0.0251   -0.0517 C   0  0  0  0  0  0  0  0  0  0  0  0
   -0.6568    0.8638   -1.1341 H   0  0  0  0  0  0  0  0  0  0  0  0
    0.4227   -0.2488    0.0424 H   0  0  0  0  0  0  0  0  0  0  0  0
   -0.6639    1.7922    1.1740 H   0  0  0  0  0  0  0  0  0  0  0  0
   -2.3363    1.3354    0.6707 H   0  0  0  0  0  0  0  0  0  0  0  0
   -1.4042    0.2737    1.8067 H   0  0  0  0  0  0  0  0  0  0  0  0
   -1.1744   -1.5405   -1.5095 H   0  0  0  0  0  0  0  0  0  0  0  0
   -2.6419   -0.6595   -0.9357 H   0  0  0  0  0  0  0  0  0  0  0  0
   -1.7090   -1.7162    0.2044 H   0  0  0  0  0  0  0  0  0  0  0  0
    3.1135    0.8457   -0.6760 H   0  0  0  0  0  0  0  0  0  0  0  0
    3.5398   -0.8564   -0.2254 H   0  0  0  0  0  0  0  0  0  0  0  0
    2.8488    0.2641    1.0192 H   0  0  0  0  0  0  0  0  0  0  0  0
  1  5  1  0
  1  7  1  0
  2  3  1  0
  2  4  1  0
  2  6  1  0
  3  8  1  0
  3  9  1  0
  3 10  1  0
  4 11  1  0
  4 12  1  0
  4 13  1  0
  5 14  1  0
  5 15  1  0
  5 16  1  0
M  RAD  1   2   2
M  END
>  <reaction>  (17) 
rxn_390

>  <mol_properties>  (17) 
{"0": {"label": "*4", "atom_type": "Cs"}, "1": {"label": "*3", "atom_type": "O2s"}, "5": {"label": "*2", "atom_type": "H0"}, "6": {"label": "*0", "atom_type": "Cs"}, "7": {"label": "*1", "atom_type": "Cs"}}

>  <type>  (17) 
unop_13

>  <geom_source>  (17) 
AutoTST

$$$$
