
     RDKit          3D

 25 26  0  0  0  0  0  0  0  0999 V2000
    2.0298   -1.1515    0.0571 C   0  0  0  0  0  0  0  0  0  0  0  0
    2.2278    0.2445    0.6528 C   0  0  0  0  0  0  0  0  0  0  0  0
    1.2292    1.2625    0.0947 C   0  0  0  0  0  0  0  0  0  0  0  0
   -0.1869    0.7454    0.2762 C   0  0  0  0  0  0  0  0  0  0  0  0
   -1.3415    1.5501   -0.3122 C   0  0  0  0  0  0  0  0  0  0  0  0
   -2.5060    0.5338   -0.4178 C   0  0  0  0  0  0  0  0  0  0  0  0
   -1.8709   -0.8658   -0.2234 C   0  0  0  0  0  0  0  0  0  0  0  0
   -0.3715   -0.6265   -0.3693 C   0  0  0  0  0  0  0  0  0  0  0  0
    0.5898   -1.6500    0.2086 C   0  0  0  0  0  0  0  0  0  0  0  0
    2.2820   -1.1226   -1.0088 H   0  0  0  0  0  0  0  0  0  0  0  0
    2.7243   -1.8549    0.5221 H   0  0  0  0  0  0  0  0  0  0  0  0
    2.1030    0.1885    1.7400 H   0  0  0  0  0  0  0  0  0  0  0  0
    3.2514    0.5819    0.4743 H   0  0  0  0  0  0  0  0  0  0  0  0
    1.3611    2.2304    0.5855 H   0  0  0  0  0  0  0  0  0  0  0  0
    1.4198    1.4194   -0.9737 H   0  0  0  0  0  0  0  0  0  0  0  0
   -0.3675    0.6209    1.3539 H   0  0  0  0  0  0  0  0  0  0  0  0
   -1.5992    2.4249    0.2862 H   0  0  0  0  0  0  0  0  0  0  0  0
   -1.0595    1.9116   -1.3055 H   0  0  0  0  0  0  0  0  0  0  0  0
   -3.2666    0.7244    0.3399 H   0  0  0  0  0  0  0  0  0  0  0  0
   -3.0030    0.6112   -1.3853 H   0  0  0  0  0  0  0  0  0  0  0  0
   -2.2549   -1.6039   -0.9288 H   0  0  0  0  0  0  0  0  0  0  0  0
   -2.0796   -1.2429    0.7821 H   0  0  0  0  0  0  0  0  0  0  0  0
   -0.1432   -0.5121   -1.4391 H   0  0  0  0  0  0  0  0  0  0  0  0
    0.4720   -2.6209   -0.2799 H   0  0  0  0  0  0  0  0  0  0  0  0
    0.3601   -1.7986    1.2704 H   0  0  0  0  0  0  0  0  0  0  0  0
  1  2  1  0
  1  9  1  0
  1 10  1  0
  1 11  1  0
  2  3  1  0
  2 12  1  0
  2 13  1  0
  3  4  1  0
  3 14  1  0
  3 15  1  0
  4  5  1  0
  4  8  1  0
  4 16  1  0
  5  6  1  0
  5 17  1  0
  5 18  1  0
  6  7  1  0
  6 19  1  0
  6 20  1  0
  7  8  1  0
  7 21  1  0
  7 22  1  0
  8  9  1  0
  8 23  1  0
  9 24  1  0
  9 25  1  0
M  END
>  <reaction>  (1) 
rxn_607

>  <mol_properties>  (1) 
{"5": {"label": "donator", "atom_type": "Cs"}, "18": {"label": "d_hydrogen", "atom_type": "H0"}}

>  <type>  (1) 
r1h

$$$$

     RDKit          3D

 15 14  0  0  0  0  0  0  0  0999 V2000
    2.4381    0.5770   -0.2356 C   0  0  0  0  0  0  0  0  0  0  0  0
    1.4430   -0.3367   -0.1409 C   0  0  0  0  0  0  0  0  0  0  0  0
    0.0521   -0.0957   -0.0045 C   0  0  0  0  0  3  0  0  0  0  0  0
   -0.5167    1.2867    0.0548 C   0  0  0  0  0  0  0  0  0  0  0  0
   -0.8226   -1.2147    0.0778 C   0  0  0  0  0  0  0  0  0  0  0  0
   -2.1666   -1.1669    0.2092 C   0  0  0  0  0  0  0  0  0  0  0  0
    3.4666    0.2585   -0.3369 H   0  0  0  0  0  0  0  0  0  0  0  0
    2.2594    1.6438   -0.2152 H   0  0  0  0  0  0  0  0  0  0  0  0
    1.7306   -1.3845   -0.1719 H   0  0  0  0  0  0  0  0  0  0  0  0
   -1.2300    1.4469   -0.7583 H   0  0  0  0  0  0  0  0  0  0  0  0
    0.2481    2.0557   -0.0178 H   0  0  0  0  0  0  0  0  0  0  0  0
   -1.0592    1.4421    0.9914 H   0  0  0  0  0  0  0  0  0  0  0  0
   -0.3519   -2.1929    0.0292 H   0  0  0  0  0  0  0  0  0  0  0  0
   -2.7080   -0.2310    0.2646 H   0  0  0  0  0  0  0  0  0  0  0  0
   -2.7513   -2.0751    0.2638 H   0  0  0  0  0  0  0  0  0  0  0  0
  1  2  2  3
  1  7  1  0
  1  8  1  0
  2  3  1  0
  2  9  1  0
  3  4  1  0
  3  5  1  0
  4 10  1  0
  4 11  1  0
  4 12  1  0
  5  6  2  3
  5 13  1  0
  6 14  1  0
  6 15  1  0
M  RAD  1   3   2
M  END
>  <reaction>  (2) 
rxn_607

>  <mol_properties>  (2) 
{"2": {"label": "acceptor", "atom_type": "Cs"}}

>  <type>  (2) 
r2

$$$$

     RDKit          3D

 16 15  0  0  0  0  0  0  0  0999 V2000
    1.7961   -0.3807    1.6176 C   0  0  0  0  0  0  0  0  0  0  0  0
    0.8562   -0.8708    0.8256 C   0  0  0  0  0  0  0  0  0  0  0  0
    0.0895   -0.0826   -0.2048 C   0  0  0  0  0  0  0  0  0  0  0  0
   -1.4061   -0.1111    0.0982 C   0  0  0  0  0  0  0  0  0  0  0  0
    0.4476   -0.5902   -1.5797 C   0  0  0  0  0  0  0  0  0  0  0  0
   -0.3793   -1.1113   -2.4728 C   0  0  0  0  0  0  0  0  0  0  0  0
    2.3110   -1.0032    2.3386 H   0  0  0  0  0  0  0  0  0  0  0  0
    2.0846    0.6643    1.5737 H   0  0  0  0  0  0  0  0  0  0  0  0
    0.5921   -1.9241    0.8925 H   0  0  0  0  0  0  0  0  0  0  0  0
    0.4358    0.9557   -0.1462 H   0  0  0  0  0  0  0  0  0  0  0  0
   -1.5968    0.3080    1.0865 H   0  0  0  0  0  0  0  0  0  0  0  0
   -1.9674    0.4693   -0.6359 H   0  0  0  0  0  0  0  0  0  0  0  0
   -1.7902   -1.1338    0.0883 H   0  0  0  0  0  0  0  0  0  0  0  0
    1.5049   -0.5197   -1.8214 H   0  0  0  0  0  0  0  0  0  0  0  0
   -1.4421   -1.2131   -2.2889 H   0  0  0  0  0  0  0  0  0  0  0  0
   -0.0162   -1.4558   -3.4328 H   0  0  0  0  0  0  0  0  0  0  0  0
  1  2  2  3
  1  7  1  0
  1  8  1  0
  2  3  1  0
  2  9  1  0
  3  4  1  0
  3  5  1  0
  3 10  1  0
  4 11  1  0
  4 12  1  0
  4 13  1  0
  5  6  2  3
  5 14  1  0
  6 15  1  0
  6 16  1  0
M  END
>  <reaction>  (3) 
rxn_607

>  <mol_properties>  (3) 
{"2": {"label": "acceptor", "atom_type": "Cs"}, "15": {"label": "a_hydrogen", "atom_type": "H0"}}

>  <type>  (3) 
r2h

$$$$

     RDKit          3D

 40 40  0  0  0  0  0  0  0  0999 V2000
   -1.8759    1.7839    1.9750 C   0  0  0  0  0  0  0  0  0  0  0  0
   -0.6058    2.1199    1.7668 C   0  0  0  0  0  0  0  0  0  0  0  0
    0.0701    2.3496    0.4685 C   0  0  0  0  0  0  0  0  0  0  0  0
    0.9969    3.5506    0.4744 C   0  0  0  0  0  0  0  0  0  0  0  0
   -0.7680    2.1800   -0.7345 C   0  0  0  0  0  0  0  0  0  0  0  0
   -0.7608    2.9458   -1.8223 C   0  0  0  0  0  0  0  0  0  0  0  0
   -2.2460    1.6135    2.9778 H   0  0  0  0  0  0  0  0  0  0  0  0
   -2.5897    1.6823    1.1669 H   0  0  0  0  0  0  0  0  0  0  0  0
    0.0420    2.2307    2.6338 H   0  0  0  0  0  0  0  0  0  0  0  0
    1.6574    3.5403   -0.3946 H   0  0  0  0  0  0  0  0  0  0  0  0
    1.6215    3.5442    1.3693 H   0  0  0  0  0  0  0  0  0  0  0  0
    0.4342    4.4880    0.4639 H   0  0  0  0  0  0  0  0  0  0  0  0
   -1.4266    1.3154   -0.7239 H   0  0  0  0  0  0  0  0  0  0  0  0
   -0.1346    3.8254   -1.9072 H   0  0  0  0  0  0  0  0  0  0  0  0
   -1.3937    2.7140   -2.6693 H   0  0  0  0  0  0  0  0  0  0  0  0
   -0.8103   -3.3951   -1.3328 C   0  0  0  0  0  0  0  0  0  0  0  0
   -1.4282   -3.2295    0.0584 C   0  0  0  0  0  0  0  0  0  0  0  0
   -0.4296   -2.6818    1.0828 C   0  0  0  0  0  0  0  0  0  0  0  0
    0.1778   -1.3970    0.5529 C   0  0  1  0  0  0  0  0  0  0  0  0
    1.2633   -0.6856    1.3522 C   0  0  0  0  0  0  0  0  0  0  0  0
    1.8319    0.2696    0.3266 C   0  0  0  0  0  3  0  0  0  0  0  0
    1.5928   -0.2986   -1.0618 C   0  0  0  0  0  0  0  0  0  0  0  0
    0.8521   -1.6168   -0.8024 C   0  0  2  0  0  0  0  0  0  0  0  0
   -0.1435   -2.1114   -1.8364 C   0  0  0  0  0  0  0  0  0  0  0  0
   -0.0564   -4.1893   -1.2945 H   0  0  0  0  0  0  0  0  0  0  0  0
   -1.5746   -3.7264   -2.0395 H   0  0  0  0  0  0  0  0  0  0  0  0
   -2.2748   -2.5370   -0.0081 H   0  0  0  0  0  0  0  0  0  0  0  0
   -1.8342   -4.1849    0.3984 H   0  0  0  0  0  0  0  0  0  0  0  0
   -0.9259   -2.5150    2.0422 H   0  0  0  0  0  0  0  0  0  0  0  0
    0.3658   -3.4162    1.2567 H   0  0  0  0  0  0  0  0  0  0  0  0
   -0.6389   -0.6760    0.4055 H   0  0  0  0  0  0  0  0  0  0  0  0
    0.8831   -0.1814    2.2439 H   0  0  0  0  0  0  0  0  0  0  0  0
    2.0238   -1.4050    1.6851 H   0  0  0  0  0  0  0  0  0  0  0  0
    0.8936    1.3788    0.4077 H   0  0  0  0  0  0  0  0  0  0  0  0
    2.7752    0.7664    0.5361 H   0  0  0  0  0  0  0  0  0  0  0  0
    2.5213   -0.4421   -1.6193 H   0  0  0  0  0  0  0  0  0  0  0  0
    0.9727    0.3787   -1.6613 H   0  0  0  0  0  0  0  0  0  0  0  0
    1.6050   -2.4040   -0.6565 H   0  0  0  0  0  0  0  0  0  0  0  0
    0.3425   -2.2908   -2.7991 H   0  0  0  0  0  0  0  0  0  0  0  0
   -0.9018   -1.3371   -2.0029 H   0  0  0  0  0  0  0  0  0  0  0  0
  1  2  2  3
  1  7  1  0
  1  8  1  0
  2  3  1  0
  2  9  1  0
  3  4  1  0
  3  5  1  0
  3 34  1  0
  4 10  1  0
  4 11  1  0
  4 12  1  0
  5  6  2  3
  5 13  1  0
  6 14  1  0
  6 15  1  0
 16 17  1  0
 16 24  1  0
 16 25  1  0
 16 26  1  0
 17 18  1  0
 17 27  1  0
 17 28  1  0
 18 19  1  0
 18 29  1  0
 18 30  1  0
 19 20  1  0
 19 23  1  0
 19 31  1  6
 20 21  1  0
 20 32  1  0
 20 33  1  0
 21 22  1  0
 21 35  1  0
 22 23  1  0
 22 36  1  0
 22 37  1  0
 23 24  1  0
 23 38  1  1
 24 39  1  0
 24 40  1  0
M  RAD  1  21   2
M  END
>  <reaction>  (4) 
rxn_607

>  <mol_properties>  (4) 
{"1": {"label": "*0", "atom_type": "Cd"}, "2": {"label": "*1", "atom_type": "Cs"}, "19": {"label": "*4", "atom_type": "Cs"}, "20": {"label": "*3", "atom_type": "Cs"}, "33": {"label": "*2", "atom_type": "H0"}}

>  <type>  (4) 
ts

$$$$

     RDKit          3D

 40 40  0  0  0  0  0  0  0  0999 V2000
    2.4952    3.4651    0.5172 C   0  0  0  0  0  0  0  0  0  0  0  0
    1.1991    3.6349    0.3119 C   0  0  0  0  0  0  0  0  0  0  0  0
    0.1430    2.5766    0.4999 C   0  0  0  0  0  3  0  0  0  0  0  0
   -0.5943    2.3126   -0.8101 C   0  0  0  0  0  0  0  0  0  0  0  0
   -0.7578    2.9772    1.6420 C   0  0  0  0  0  0  0  0  0  0  0  0
   -2.0634    3.1894    1.5853 C   0  0  0  0  0  0  0  0  0  0  0  0
    3.2035    4.2696    0.3637 H   0  0  0  0  0  0  0  0  0  0  0  0
    2.8957    2.5120    0.8462 H   0  0  0  0  0  0  0  0  0  0  0  0
    0.8291    4.6044   -0.0152 H   0  0  0  0  0  0  0  0  0  0  0  0
   -1.3518    1.5369   -0.6857 H   0  0  0  0  0  0  0  0  0  0  0  0
    0.1085    1.9868   -1.5772 H   0  0  0  0  0  0  0  0  0  0  0  0
   -1.0899    3.2164   -1.1719 H   0  0  0  0  0  0  0  0  0  0  0  0
   -0.2446    3.1117    2.5906 H   0  0  0  0  0  0  0  0  0  0  0  0
   -2.6298    3.0768    0.6687 H   0  0  0  0  0  0  0  0  0  0  0  0
   -2.6179    3.4844    2.4671 H   0  0  0  0  0  0  0  0  0  0  0  0
   -1.0390   -3.9655   -1.1564 C   0  0  0  0  0  0  0  0  0  0  0  0
   -1.0390   -3.9655    0.3742 C   0  0  0  0  0  0  0  0  0  0  0  0
    0.1041   -3.1291    0.9562 C   0  0  0  0  0  0  0  0  0  0  0  0
    0.0645   -1.7281    0.3721 C   0  0  0  0  0  0  0  0  0  0  0  0
    1.1835   -0.7543    0.7276 C   0  0  0  0  0  0  0  0  0  0  0  0
    1.1336    0.3162   -0.3911 C   0  0  0  0  0  0  0  0  0  0  0  0
    0.2401   -0.2756   -1.5097 C   0  0  0  0  0  0  0  0  0  0  0  0
    0.1150   -1.7538   -1.1542 C   0  0  0  0  0  0  0  0  0  0  0  0
   -1.0390   -2.5491   -1.7384 C   0  0  0  0  0  0  0  0  0  0  0  0
   -0.1466   -4.4923   -1.5123 H   0  0  0  0  0  0  0  0  0  0  0  0
   -1.8999   -4.5266   -1.5271 H   0  0  0  0  0  0  0  0  0  0  0  0
   -1.9912   -3.5563    0.7302 H   0  0  0  0  0  0  0  0  0  0  0  0
   -0.9835   -4.9916    0.7449 H   0  0  0  0  0  0  0  0  0  0  0  0
    0.0368   -3.1032    2.0471 H   0  0  0  0  0  0  0  0  0  0  0  0
    1.0656   -3.5942    0.7082 H   0  0  0  0  0  0  0  0  0  0  0  0
   -0.8943   -1.2693    0.6546 H   0  0  0  0  0  0  0  0  0  0  0  0
    1.0747   -0.3264    1.7250 H   0  0  0  0  0  0  0  0  0  0  0  0
    2.1412   -1.2829    0.7071 H   0  0  0  0  0  0  0  0  0  0  0  0
    0.6396    1.4435    0.0532 H   0  0  0  0  0  0  0  0  0  0  0  0
    2.1348    0.5387   -0.7613 H   0  0  0  0  0  0  0  0  0  0  0  0
    0.6497   -0.1108   -2.5071 H   0  0  0  0  0  0  0  0  0  0  0  0
   -0.7520    0.1851   -1.4893 H   0  0  0  0  0  0  0  0  0  0  0  0
    1.0515   -2.2566   -1.4368 H   0  0  0  0  0  0  0  0  0  0  0  0
   -0.9784   -2.5880   -2.8292 H   0  0  0  0  0  0  0  0  0  0  0  0
   -1.9822   -2.0477   -1.4903 H   0  0  0  0  0  0  0  0  0  0  0  0
  1  2  2  3
  1  7  1  0
  1  8  1  0
  2  3  1  0
  2  9  1  0
  3  4  1  0
  3  5  1  0
  4 10  1  0
  4 11  1  0
  4 12  1  0
  5  6  2  3
  5 13  1  0
  6 14  1  0
  6 15  1  0
 16 17  1  0
 16 24  1  0
 16 25  1  0
 16 26  1  0
 17 18  1  0
 17 27  1  0
 17 28  1  0
 18 19  1  0
 18 29  1  0
 18 30  1  0
 19 20  1  0
 19 23  1  0
 19 31  1  0
 20 21  1  0
 20 32  1  0
 20 33  1  0
 21 22  1  0
 21 34  1  0
 21 35  1  0
 22 23  1  0
 22 36  1  0
 22 37  1  0
 23 24  1  0
 23 38  1  0
 24 39  1  0
 24 40  1  0
M  RAD  1   3   2
M  END
>  <reaction>  (5) 
rxn_607

>  <mol_properties>  (5) 
{"1": {"label": "*0", "atom_type": "Cd"}, "2": {"label": "*1", "atom_type": "Cs"}, "19": {"label": "*4", "atom_type": "Cs"}, "20": {"label": "*3", "atom_type": "Cs"}, "33": {"label": "*2", "atom_type": "H0"}}

>  <type>  (5) 
unop_1

>  <geom_source>  (5) 
Heuristics

$$$$

     RDKit          3D

 40 40  0  0  0  0  0  0  0  0999 V2000
    0.8841    1.7139    2.6633 C   0  0  0  0  0  0  0  0  0  0  0  0
    0.5442    2.7316    1.8889 C   0  0  0  0  0  0  0  0  0  0  0  0
    0.1924    2.6323    0.4271 C   0  0  0  0  0  3  0  0  0  0  0  0
    1.1502    3.4701   -0.4157 C   0  0  0  0  0  0  0  0  0  0  0  0
   -1.2614    2.9917    0.2448 C   0  0  0  0  0  0  0  0  0  0  0  0
   -1.7478    3.9816   -0.4876 C   0  0  0  0  0  0  0  0  0  0  0  0
    1.1252    1.8537    3.7096 H   0  0  0  0  0  0  0  0  0  0  0  0
    0.9345    0.7013    2.2770 H   0  0  0  0  0  0  0  0  0  0  0  0
    0.5003    3.7347    2.3079 H   0  0  0  0  0  0  0  0  0  0  0  0
    0.9107    3.3924   -1.4775 H   0  0  0  0  0  0  0  0  0  0  0  0
    2.1754    3.1296   -0.2687 H   0  0  0  0  0  0  0  0  0  0  0  0
    1.1036    4.5244   -0.1333 H   0  0  0  0  0  0  0  0  0  0  0  0
   -1.9512    2.3612    0.7998 H   0  0  0  0  0  0  0  0  0  0  0  0
   -1.1115    4.6469   -1.0588 H   0  0  0  0  0  0  0  0  0  0  0  0
   -2.8141    4.1604   -0.5437 H   0  0  0  0  0  0  0  0  0  0  0  0
   -0.9896   -3.9099   -1.2292 C   0  0  0  0  0  0  0  0  0  0  0  0
   -0.9896   -3.9099    0.3014 C   0  0  0  0  0  0  0  0  0  0  0  0
    0.1535   -3.0735    0.8834 C   0  0  0  0  0  0  0  0  0  0  0  0
    0.1139   -1.6725    0.2993 C   0  0  0  0  0  0  0  0  0  0  0  0
    1.2330   -0.6987    0.6547 C   0  0  0  0  0  0  0  0  0  0  0  0
    1.1830    0.3719   -0.4639 C   0  0  0  0  0  0  0  0  0  0  0  0
    0.2895   -0.2200   -1.5825 C   0  0  0  0  0  0  0  0  0  0  0  0
    0.1644   -1.6981   -1.2271 C   0  0  0  0  0  0  0  0  0  0  0  0
   -0.9896   -2.4934   -1.8112 C   0  0  0  0  0  0  0  0  0  0  0  0
   -0.0972   -4.4367   -1.5851 H   0  0  0  0  0  0  0  0  0  0  0  0
   -1.8505   -4.4710   -1.5999 H   0  0  0  0  0  0  0  0  0  0  0  0
   -1.9417   -3.5007    0.6573 H   0  0  0  0  0  0  0  0  0  0  0  0
   -0.9341   -4.9360    0.6721 H   0  0  0  0  0  0  0  0  0  0  0  0
    0.0863   -3.0475    1.9742 H   0  0  0  0  0  0  0  0  0  0  0  0
    1.1151   -3.5386    0.6354 H   0  0  0  0  0  0  0  0  0  0  0  0
   -0.8449   -1.2136    0.5818 H   0  0  0  0  0  0  0  0  0  0  0  0
    1.1241   -0.2708    1.6522 H   0  0  0  0  0  0  0  0  0  0  0  0
    2.1906   -1.2273    0.6343 H   0  0  0  0  0  0  0  0  0  0  0  0
    0.6890    1.4991   -0.0196 H   0  0  0  0  0  0  0  0  0  0  0  0
    2.1842    0.5943   -0.8342 H   0  0  0  0  0  0  0  0  0  0  0  0
    0.6992   -0.0551   -2.5799 H   0  0  0  0  0  0  0  0  0  0  0  0
   -0.7025    0.2407   -1.5621 H   0  0  0  0  0  0  0  0  0  0  0  0
    1.1009   -2.2010   -1.5096 H   0  0  0  0  0  0  0  0  0  0  0  0
   -0.9289   -2.5324   -2.9020 H   0  0  0  0  0  0  0  0  0  0  0  0
   -1.9328   -1.9921   -1.5631 H   0  0  0  0  0  0  0  0  0  0  0  0
  1  2  2  3
  1  7  1  0
  1  8  1  0
  2  3  1  0
  2  9  1  0
  3  4  1  0
  3  5  1  0
  4 10  1  0
  4 11  1  0
  4 12  1  0
  5  6  2  3
  5 13  1  0
  6 14  1  0
  6 15  1  0
 16 17  1  0
 16 24  1  0
 16 25  1  0
 16 26  1  0
 17 18  1  0
 17 27  1  0
 17 28  1  0
 18 19  1  0
 18 29  1  0
 18 30  1  0
 19 20  1  0
 19 23  1  0
 19 31  1  0
 20 21  1  0
 20 32  1  0
 20 33  1  0
 21 22  1  0
 21 34  1  0
 21 35  1  0
 22 23  1  0
 22 36  1  0
 22 37  1  0
 23 24  1  0
 23 38  1  0
 24 39  1  0
 24 40  1  0
M  RAD  1   3   2
M  END
>  <reaction>  (6) 
rxn_607

>  <mol_properties>  (6) 
{"1": {"label": "*0", "atom_type": "Cd"}, "2": {"label": "*1", "atom_type": "Cs"}, "19": {"label": "*4", "atom_type": "Cs"}, "20": {"label": "*3", "atom_type": "Cs"}, "33": {"label": "*2", "atom_type": "H0"}}

>  <type>  (6) 
unop_2

>  <geom_source>  (6) 
Heuristics

$$$$

     RDKit          3D

 40 40  0  0  0  0  0  0  0  0999 V2000
    1.9683    3.6439   -0.8595 C   0  0  0  0  0  0  0  0  0  0  0  0
    0.7685    3.6891   -0.3032 C   0  0  0  0  0  0  0  0  0  0  0  0
    0.1373    2.5769    0.4939 C   0  0  0  0  0  3  0  0  0  0  0  0
   -1.1651    2.1196   -0.1571 C   0  0  0  0  0  0  0  0  0  0  0  0
   -0.0158    3.0235    1.9269 C   0  0  0  0  0  0  0  0  0  0  0  0
   -1.1458    3.1257    2.6092 C   0  0  0  0  0  0  0  0  0  0  0  0
    2.3646    4.4808   -1.4206 H   0  0  0  0  0  0  0  0  0  0  0  0
    2.5986    2.7650   -0.7742 H   0  0  0  0  0  0  0  0  0  0  0  0
    0.1622    4.5868   -0.4048 H   0  0  0  0  0  0  0  0  0  0  0  0
   -1.6217    1.3044    0.4067 H   0  0  0  0  0  0  0  0  0  0  0  0
   -0.9750    1.7711   -1.1725 H   0  0  0  0  0  0  0  0  0  0  0  0
   -1.8858    2.9388   -0.2135 H   0  0  0  0  0  0  0  0  0  0  0  0
    0.9174    3.2969    2.4125 H   0  0  0  0  0  0  0  0  0  0  0  0
   -2.1075    2.8732    2.1791 H   0  0  0  0  0  0  0  0  0  0  0  0
   -1.1465    3.4673    3.6365 H   0  0  0  0  0  0  0  0  0  0  0  0
   -1.0447   -3.9652   -1.1623 C   0  0  0  0  0  0  0  0  0  0  0  0
   -1.0447   -3.9652    0.3683 C   0  0  0  0  0  0  0  0  0  0  0  0
    0.0984   -3.1288    0.9503 C   0  0  0  0  0  0  0  0  0  0  0  0
    0.0588   -1.7278    0.3661 C   0  0  0  0  0  0  0  0  0  0  0  0
    1.1779   -0.7540    0.7216 C   0  0  0  0  0  0  0  0  0  0  0  0
    1.1279    0.3165   -0.3970 C   0  0  0  0  0  0  0  0  0  0  0  0
    0.2344   -0.2753   -1.5157 C   0  0  0  0  0  0  0  0  0  0  0  0
    0.1093   -1.7534   -1.1602 C   0  0  0  0  0  0  0  0  0  0  0  0
   -1.0447   -2.5487   -1.7443 C   0  0  0  0  0  0  0  0  0  0  0  0
   -0.1523   -4.4920   -1.5183 H   0  0  0  0  0  0  0  0  0  0  0  0
   -1.9056   -4.5263   -1.5331 H   0  0  0  0  0  0  0  0  0  0  0  0
   -1.9968   -3.5560    0.7242 H   0  0  0  0  0  0  0  0  0  0  0  0
   -0.9892   -4.9913    0.7390 H   0  0  0  0  0  0  0  0  0  0  0  0
    0.0312   -3.1028    2.0411 H   0  0  0  0  0  0  0  0  0  0  0  0
    1.0599   -3.5939    0.7022 H   0  0  0  0  0  0  0  0  0  0  0  0
   -0.9000   -1.2690    0.6487 H   0  0  0  0  0  0  0  0  0  0  0  0
    1.0690   -0.3261    1.7190 H   0  0  0  0  0  0  0  0  0  0  0  0
    2.1355   -1.2826    0.7012 H   0  0  0  0  0  0  0  0  0  0  0  0
    0.6339    1.4438    0.0473 H   0  0  0  0  0  0  0  0  0  0  0  0
    2.1291    0.5390   -0.7673 H   0  0  0  0  0  0  0  0  0  0  0  0
    0.6440   -0.1104   -2.5131 H   0  0  0  0  0  0  0  0  0  0  0  0
   -0.7576    0.1854   -1.4952 H   0  0  0  0  0  0  0  0  0  0  0  0
    1.0458   -2.2563   -1.4428 H   0  0  0  0  0  0  0  0  0  0  0  0
   -0.9841   -2.5877   -2.8352 H   0  0  0  0  0  0  0  0  0  0  0  0
   -1.9879   -2.0474   -1.4963 H   0  0  0  0  0  0  0  0  0  0  0  0
  1  2  2  3
  1  7  1  0
  1  8  1  0
  2  3  1  0
  2  9  1  0
  3  4  1  0
  3  5  1  0
  4 10  1  0
  4 11  1  0
  4 12  1  0
  5  6  2  3
  5 13  1  0
  6 14  1  0
  6 15  1  0
 16 17  1  0
 16 24  1  0
 16 25  1  0
 16 26  1  0
 17 18  1  0
 17 27  1  0
 17 28  1  0
 18 19  1  0
 18 29  1  0
 18 30  1  0
 19 20  1  0
 19 23  1  0
 19 31  1  0
 20 21  1  0
 20 32  1  0
 20 33  1  0
 21 22  1  0
 21 34  1  0
 21 35  1  0
 22 23  1  0
 22 36  1  0
 22 37  1  0
 23 24  1  0
 23 38  1  0
 24 39  1  0
 24 40  1  0
M  RAD  1   3   2
M  END
>  <reaction>  (7) 
rxn_607

>  <mol_properties>  (7) 
{"1": {"label": "*0", "atom_type": "Cd"}, "2": {"label": "*1", "atom_type": "Cs"}, "19": {"label": "*4", "atom_type": "Cs"}, "20": {"label": "*3", "atom_type": "Cs"}, "33": {"label": "*2", "atom_type": "H0"}}

>  <type>  (7) 
unop_3

>  <geom_source>  (7) 
Heuristics

$$$$

     RDKit          3D

 40 40  0  0  0  0  0  0  0  0999 V2000
   -1.5505    1.2433    1.6197 C   0  0  0  0  0  0  0  0  0  0  0  0
   -1.1390    2.3954    1.1155 C   0  0  0  0  0  0  0  0  0  0  0  0
    0.2562    2.6798    0.6224 C   0  0  0  0  0  3  0  0  0  0  0  0
    0.8837    3.8252    1.4121 C   0  0  0  0  0  0  0  0  0  0  0  0
    0.2142    2.9115   -0.8678 C   0  0  0  0  0  0  0  0  0  0  0  0
    0.5831    4.0088   -1.5104 C   0  0  0  0  0  0  0  0  0  0  0  0
   -2.5702    1.1039    1.9562 H   0  0  0  0  0  0  0  0  0  0  0  0
   -0.8799    0.3958    1.7151 H   0  0  0  0  0  0  0  0  0  0  0  0
   -1.8374    3.2252    1.0307 H   0  0  0  0  0  0  0  0  0  0  0  0
    1.9000    4.0283    1.0703 H   0  0  0  0  0  0  0  0  0  0  0  0
    0.9214    3.5737    2.4723 H   0  0  0  0  0  0  0  0  0  0  0  0
    0.3000    4.7426    1.3059 H   0  0  0  0  0  0  0  0  0  0  0  0
   -0.1801    2.0756   -1.4397 H   0  0  0  0  0  0  0  0  0  0  0  0
    0.9786    4.8764   -0.9962 H   0  0  0  0  0  0  0  0  0  0  0  0
    0.5034    4.0758   -2.5880 H   0  0  0  0  0  0  0  0  0  0  0  0
   -0.9258   -3.8624   -1.0339 C   0  0  0  0  0  0  0  0  0  0  0  0
   -0.9258   -3.8624    0.4967 C   0  0  0  0  0  0  0  0  0  0  0  0
    0.2173   -3.0260    1.0787 C   0  0  0  0  0  0  0  0  0  0  0  0
    0.1777   -1.6250    0.4946 C   0  0  0  0  0  0  0  0  0  0  0  0
    1.2968   -0.6512    0.8501 C   0  0  0  0  0  0  0  0  0  0  0  0
    1.2468    0.4194   -0.2686 C   0  0  0  0  0  0  0  0  0  0  0  0
    0.3533   -0.1725   -1.3872 C   0  0  0  0  0  0  0  0  0  0  0  0
    0.2282   -1.6506   -1.0317 C   0  0  0  0  0  0  0  0  0  0  0  0
   -0.9258   -2.4459   -1.6158 C   0  0  0  0  0  0  0  0  0  0  0  0
   -0.0334   -4.3892   -1.3898 H   0  0  0  0  0  0  0  0  0  0  0  0
   -1.7867   -4.4234   -1.4046 H   0  0  0  0  0  0  0  0  0  0  0  0
   -1.8779   -3.4532    0.8527 H   0  0  0  0  0  0  0  0  0  0  0  0
   -0.8703   -4.8884    0.8675 H   0  0  0  0  0  0  0  0  0  0  0  0
    0.1501   -3.0000    2.1696 H   0  0  0  0  0  0  0  0  0  0  0  0
    1.1788   -3.4911    0.8307 H   0  0  0  0  0  0  0  0  0  0  0  0
   -0.7811   -1.1661    0.7772 H   0  0  0  0  0  0  0  0  0  0  0  0
    1.1879   -0.2233    1.8475 H   0  0  0  0  0  0  0  0  0  0  0  0
    2.2544   -1.1797    0.8296 H   0  0  0  0  0  0  0  0  0  0  0  0
    0.7528    1.5466    0.1758 H   0  0  0  0  0  0  0  0  0  0  0  0
    2.2480    0.6418   -0.6388 H   0  0  0  0  0  0  0  0  0  0  0  0
    0.7629   -0.0076   -2.3846 H   0  0  0  0  0  0  0  0  0  0  0  0
   -0.6387    0.2883   -1.3668 H   0  0  0  0  0  0  0  0  0  0  0  0
    1.1647   -2.1535   -1.3143 H   0  0  0  0  0  0  0  0  0  0  0  0
   -0.8652   -2.4849   -2.7067 H   0  0  0  0  0  0  0  0  0  0  0  0
   -1.8690   -1.9446   -1.3678 H   0  0  0  0  0  0  0  0  0  0  0  0
  1  2  2  3
  1  7  1  0
  1  8  1  0
  2  3  1  0
  2  9  1  0
  3  4  1  0
  3  5  1  0
  4 10  1  0
  4 11  1  0
  4 12  1  0
  5  6  2  3
  5 13  1  0
  6 14  1  0
  6 15  1  0
 16 17  1  0
 16 24  1  0
 16 25  1  0
 16 26  1  0
 17 18  1  0
 17 27  1  0
 17 28  1  0
 18 19  1  0
 18 29  1  0
 18 30  1  0
 19 20  1  0
 19 23  1  0
 19 31  1  0
 20 21  1  0
 20 32  1  0
 20 33  1  0
 21 22  1  0
 21 34  1  0
 21 35  1  0
 22 23  1  0
 22 36  1  0
 22 37  1  0
 23 24  1  0
 23 38  1  0
 24 39  1  0
 24 40  1  0
M  RAD  1   3   2
M  END
>  <reaction>  (8) 
rxn_607

>  <mol_properties>  (8) 
{"1": {"label": "*0", "atom_type": "Cd"}, "2": {"label": "*1", "atom_type": "Cs"}, "19": {"label": "*4", "atom_type": "Cs"}, "20": {"label": "*3", "atom_type": "Cs"}, "33": {"label": "*2", "atom_type": "H0"}}

>  <type>  (8) 
unop_4

>  <geom_source>  (8) 
Heuristics

$$$$

     RDKit          3D

 40 40  0  0  0  0  0  0  0  0999 V2000
    0.5215    3.2894   -1.8595 C   0  0  0  0  0  0  0  0  0  0  0  0
    0.0713    3.5449   -0.6418 C   0  0  0  0  0  0  0  0  0  0  0  0
    0.0796    2.5732    0.5099 C   0  0  0  0  0  3  0  0  0  0  0  0
   -1.3400    2.3159    1.0079 C   0  0  0  0  0  0  0  0  0  0  0  0
    1.0218    3.0788    1.5742 C   0  0  0  0  0  0  0  0  0  0  0  0
    0.7148    3.3827    2.8257 C   0  0  0  0  0  0  0  0  0  0  0  0
    0.4871    4.0345   -2.6444 H   0  0  0  0  0  0  0  0  0  0  0  0
    0.9411    2.3223   -2.1162 H   0  0  0  0  0  0  0  0  0  0  0  0
   -0.3410    4.5261   -0.4159 H   0  0  0  0  0  0  0  0  0  0  0  0
   -1.3440    1.6020    1.8333 H   0  0  0  0  0  0  0  0  0  0  0  0
   -1.9532    1.9126    0.2016 H   0  0  0  0  0  0  0  0  0  0  0  0
   -1.8087    3.2395    1.3554 H   0  0  0  0  0  0  0  0  0  0  0  0
    2.0472    3.2102    1.2383 H   0  0  0  0  0  0  0  0  0  0  0  0
   -0.2896    3.2782    3.2180 H   0  0  0  0  0  0  0  0  0  0  0  0
    1.4693    3.7487    3.5105 H   0  0  0  0  0  0  0  0  0  0  0  0
   -1.1025   -3.9689   -1.1464 C   0  0  0  0  0  0  0  0  0  0  0  0
   -1.1025   -3.9689    0.3842 C   0  0  0  0  0  0  0  0  0  0  0  0
    0.0406   -3.1325    0.9662 C   0  0  0  0  0  0  0  0  0  0  0  0
    0.0010   -1.7315    0.3821 C   0  0  0  0  0  0  0  0  0  0  0  0
    1.1201   -0.7578    0.7376 C   0  0  0  0  0  0  0  0  0  0  0  0
    1.0701    0.3128   -0.3811 C   0  0  0  0  0  0  0  0  0  0  0  0
    0.1766   -0.2791   -1.4997 C   0  0  0  0  0  0  0  0  0  0  0  0
    0.0516   -1.7572   -1.1442 C   0  0  0  0  0  0  0  0  0  0  0  0
   -1.1025   -2.5525   -1.7284 C   0  0  0  0  0  0  0  0  0  0  0  0
   -0.2100   -4.4957   -1.5023 H   0  0  0  0  0  0  0  0  0  0  0  0
   -1.9633   -4.5300   -1.5171 H   0  0  0  0  0  0  0  0  0  0  0  0
   -2.0546   -3.5598    0.7402 H   0  0  0  0  0  0  0  0  0  0  0  0
   -1.0469   -4.9950    0.7550 H   0  0  0  0  0  0  0  0  0  0  0  0
   -0.0266   -3.1066    2.0571 H   0  0  0  0  0  0  0  0  0  0  0  0
    1.0022   -3.5977    0.7182 H   0  0  0  0  0  0  0  0  0  0  0  0
   -0.9577   -1.2727    0.6647 H   0  0  0  0  0  0  0  0  0  0  0  0
    1.0113   -0.3298    1.7350 H   0  0  0  0  0  0  0  0  0  0  0  0
    2.0777   -1.2863    0.7171 H   0  0  0  0  0  0  0  0  0  0  0  0
    0.5761    1.4400    0.0633 H   0  0  0  0  0  0  0  0  0  0  0  0
    2.0713    0.5353   -0.7513 H   0  0  0  0  0  0  0  0  0  0  0  0
    0.5863   -0.1142   -2.4971 H   0  0  0  0  0  0  0  0  0  0  0  0
   -0.8154    0.1817   -1.4793 H   0  0  0  0  0  0  0  0  0  0  0  0
    0.9880   -2.2600   -1.4268 H   0  0  0  0  0  0  0  0  0  0  0  0
   -1.0418   -2.5915   -2.8192 H   0  0  0  0  0  0  0  0  0  0  0  0
   -2.0456   -2.0512   -1.4803 H   0  0  0  0  0  0  0  0  0  0  0  0
  1  2  2  3
  1  7  1  0
  1  8  1  0
  2  3  1  0
  2  9  1  0
  3  4  1  0
  3  5  1  0
  4 10  1  0
  4 11  1  0
  4 12  1  0
  5  6  2  3
  5 13  1  0
  6 14  1  0
  6 15  1  0
 16 17  1  0
 16 24  1  0
 16 25  1  0
 16 26  1  0
 17 18  1  0
 17 27  1  0
 17 28  1  0
 18 19  1  0
 18 29  1  0
 18 30  1  0
 19 20  1  0
 19 23  1  0
 19 31  1  0
 20 21  1  0
 20 32  1  0
 20 33  1  0
 21 22  1  0
 21 34  1  0
 21 35  1  0
 22 23  1  0
 22 36  1  0
 22 37  1  0
 23 24  1  0
 23 38  1  0
 24 39  1  0
 24 40  1  0
M  RAD  1   3   2
M  END
>  <reaction>  (9) 
rxn_607

>  <mol_properties>  (9) 
{"1": {"label": "*0", "atom_type": "Cd"}, "2": {"label": "*1", "atom_type": "Cs"}, "19": {"label": "*4", "atom_type": "Cs"}, "20": {"label": "*3", "atom_type": "Cs"}, "33": {"label": "*2", "atom_type": "H0"}}

>  <type>  (9) 
unop_5

>  <geom_source>  (9) 
Heuristics

$$$$

     RDKit          3D

 40 40  0  0  0  0  0  0  0  0999 V2000
   -2.0561    1.5222    0.6014 C   0  0  0  0  0  0  0  0  0  0  0  0
   -1.3023    2.6009    0.4632 C   0  0  0  0  0  0  0  0  0  0  0  0
    0.1894    2.6515    0.6704 C   0  0  0  0  0  3  0  0  0  0  0  0
    0.5462    3.6379    1.7790 C   0  0  0  0  0  0  0  0  0  0  0  0
    0.8604    2.9415   -0.6494 C   0  0  0  0  0  0  0  0  0  0  0  0
    1.6316    3.9789   -0.9359 C   0  0  0  0  0  0  0  0  0  0  0  0
   -3.1258    1.5534    0.4365 H   0  0  0  0  0  0  0  0  0  0  0  0
   -1.6291    0.5664    0.8864 H   0  0  0  0  0  0  0  0  0  0  0  0
   -1.7611    3.5439    0.1734 H   0  0  0  0  0  0  0  0  0  0  0  0
    1.6243    3.6702    1.9450 H   0  0  0  0  0  0  0  0  0  0  0  0
    0.0634    3.3450    2.7116 H   0  0  0  0  0  0  0  0  0  0  0  0
    0.2104    4.6474    1.5306 H   0  0  0  0  0  0  0  0  0  0  0  0
    0.6540    2.2102   -1.4266 H   0  0  0  0  0  0  0  0  0  0  0  0
    1.8696    4.7433   -0.2061 H   0  0  0  0  0  0  0  0  0  0  0  0
    2.0591    4.0985   -1.9233 H   0  0  0  0  0  0  0  0  0  0  0  0
   -0.9926   -3.8906   -0.9859 C   0  0  0  0  0  0  0  0  0  0  0  0
   -0.9926   -3.8906    0.5447 C   0  0  0  0  0  0  0  0  0  0  0  0
    0.1505   -3.0542    1.1267 C   0  0  0  0  0  0  0  0  0  0  0  0
    0.1109   -1.6533    0.5426 C   0  0  0  0  0  0  0  0  0  0  0  0
    1.2300   -0.6795    0.8981 C   0  0  0  0  0  0  0  0  0  0  0  0
    1.1800    0.3911   -0.2206 C   0  0  0  0  0  0  0  0  0  0  0  0
    0.2865   -0.2008   -1.3392 C   0  0  0  0  0  0  0  0  0  0  0  0
    0.1614   -1.6789   -0.9838 C   0  0  0  0  0  0  0  0  0  0  0  0
   -0.9926   -2.4742   -1.5679 C   0  0  0  0  0  0  0  0  0  0  0  0
   -0.1002   -4.4174   -1.3418 H   0  0  0  0  0  0  0  0  0  0  0  0
   -1.8535   -4.4517   -1.3566 H   0  0  0  0  0  0  0  0  0  0  0  0
   -1.9447   -3.4815    0.9006 H   0  0  0  0  0  0  0  0  0  0  0  0
   -0.9371   -4.9167    0.9154 H   0  0  0  0  0  0  0  0  0  0  0  0
    0.0833   -3.0283    2.2176 H   0  0  0  0  0  0  0  0  0  0  0  0
    1.1120   -3.5194    0.8787 H   0  0  0  0  0  0  0  0  0  0  0  0
   -0.8479   -1.1944    0.8251 H   0  0  0  0  0  0  0  0  0  0  0  0
    1.1211   -0.2515    1.8955 H   0  0  0  0  0  0  0  0  0  0  0  0
    2.1876   -1.2080    0.8776 H   0  0  0  0  0  0  0  0  0  0  0  0
    0.6860    1.5183    0.2237 H   0  0  0  0  0  0  0  0  0  0  0  0
    2.1812    0.6136   -0.5908 H   0  0  0  0  0  0  0  0  0  0  0  0
    0.6961   -0.0359   -2.3366 H   0  0  0  0  0  0  0  0  0  0  0  0
   -0.7055    0.2600   -1.3188 H   0  0  0  0  0  0  0  0  0  0  0  0
    1.0979   -2.1817   -1.2663 H   0  0  0  0  0  0  0  0  0  0  0  0
   -0.9320   -2.5132   -2.6587 H   0  0  0  0  0  0  0  0  0  0  0  0
   -1.9358   -1.9729   -1.3198 H   0  0  0  0  0  0  0  0  0  0  0  0
  1  2  2  3
  1  7  1  0
  1  8  1  0
  2  3  1  0
  2  9  1  0
  3  4  1  0
  3  5  1  0
  4 10  1  0
  4 11  1  0
  4 12  1  0
  5  6  2  3
  5 13  1  0
  6 14  1  0
  6 15  1  0
 16 17  1  0
 16 24  1  0
 16 25  1  0
 16 26  1  0
 17 18  1  0
 17 27  1  0
 17 28  1  0
 18 19  1  0
 18 29  1  0
 18 30  1  0
 19 20  1  0
 19 23  1  0
 19 31  1  0
 20 21  1  0
 20 32  1  0
 20 33  1  0
 21 22  1  0
 21 34  1  0
 21 35  1  0
 22 23  1  0
 22 36  1  0
 22 37  1  0
 23 24  1  0
 23 38  1  0
 24 39  1  0
 24 40  1  0
M  RAD  1   3   2
M  END
>  <reaction>  (10) 
rxn_607

>  <mol_properties>  (10) 
{"1": {"label": "*0", "atom_type": "Cd"}, "2": {"label": "*1", "atom_type": "Cs"}, "19": {"label": "*4", "atom_type": "Cs"}, "20": {"label": "*3", "atom_type": "Cs"}, "33": {"label": "*2", "atom_type": "H0"}}

>  <type>  (10) 
unop_6

>  <geom_source>  (10) 
Heuristics

$$$$

     RDKit          3D

 40 40  0  0  0  0  0  0  0  0999 V2000
   -1.9863    2.0151   -0.5907 C   0  0  0  0  0  0  0  0  0  0  0  0
   -1.1259    2.9173   -0.1472 C   0  0  0  0  0  0  0  0  0  0  0  0
    0.1080    2.6169    0.6639 C   0  0  0  0  0  3  0  0  0  0  0  0
    0.0462    3.3177    2.0184 C   0  0  0  0  0  0  0  0  0  0  0  0
    1.3295    2.9624   -0.1514 C   0  0  0  0  0  0  0  0  0  0  0  0
    2.2668    3.8444    0.1592 C   0  0  0  0  0  0  0  0  0  0  0  0
   -2.8556    2.2982   -1.1709 H   0  0  0  0  0  0  0  0  0  0  0  0
   -1.8522    0.9578   -0.3879 H   0  0  0  0  0  0  0  0  0  0  0  0
   -1.2876    3.9698   -0.3703 H   0  0  0  0  0  0  0  0  0  0  0  0
    0.9302    3.0938    2.6178 H   0  0  0  0  0  0  0  0  0  0  0  0
   -0.8353    2.9905    2.5703 H   0  0  0  0  0  0  0  0  0  0  0  0
   -0.0171    4.4017    1.8982 H   0  0  0  0  0  0  0  0  0  0  0  0
    1.4067    2.4235   -1.0922 H   0  0  0  0  0  0  0  0  0  0  0  0
    2.2429    4.4160    1.0792 H   0  0  0  0  0  0  0  0  0  0  0  0
    3.1029    4.0248   -0.5044 H   0  0  0  0  0  0  0  0  0  0  0  0
   -1.0740   -3.9252   -0.9923 C   0  0  0  0  0  0  0  0  0  0  0  0
   -1.0740   -3.9252    0.5383 C   0  0  0  0  0  0  0  0  0  0  0  0
    0.0691   -3.0888    1.1203 C   0  0  0  0  0  0  0  0  0  0  0  0
    0.0295   -1.6878    0.5362 C   0  0  0  0  0  0  0  0  0  0  0  0
    1.1485   -0.7141    0.8916 C   0  0  0  0  0  0  0  0  0  0  0  0
    1.0986    0.3565   -0.2270 C   0  0  0  0  0  0  0  0  0  0  0  0
    0.2051   -0.2353   -1.3456 C   0  0  0  0  0  0  0  0  0  0  0  0
    0.0800   -1.7135   -0.9902 C   0  0  0  0  0  0  0  0  0  0  0  0
   -1.0740   -2.5088   -1.5743 C   0  0  0  0  0  0  0  0  0  0  0  0
   -0.1816   -4.4520   -1.3482 H   0  0  0  0  0  0  0  0  0  0  0  0
   -1.9349   -4.4863   -1.3630 H   0  0  0  0  0  0  0  0  0  0  0  0
   -2.0262   -3.5161    0.8942 H   0  0  0  0  0  0  0  0  0  0  0  0
   -1.0185   -4.9513    0.9090 H   0  0  0  0  0  0  0  0  0  0  0  0
    0.0018   -3.0629    2.2111 H   0  0  0  0  0  0  0  0  0  0  0  0
    1.0306   -3.5540    0.8722 H   0  0  0  0  0  0  0  0  0  0  0  0
   -0.9293   -1.2290    0.8187 H   0  0  0  0  0  0  0  0  0  0  0  0
    1.0397   -0.2861    1.8890 H   0  0  0  0  0  0  0  0  0  0  0  0
    2.1062   -1.2426    0.8712 H   0  0  0  0  0  0  0  0  0  0  0  0
    0.6046    1.4838    0.2173 H   0  0  0  0  0  0  0  0  0  0  0  0
    2.0998    0.5790   -0.5973 H   0  0  0  0  0  0  0  0  0  0  0  0
    0.6147   -0.0705   -2.3431 H   0  0  0  0  0  0  0  0  0  0  0  0
   -0.7869    0.2254   -1.3252 H   0  0  0  0  0  0  0  0  0  0  0  0
    1.0165   -2.2163   -1.2727 H   0  0  0  0  0  0  0  0  0  0  0  0
   -1.0134   -2.5477   -2.6652 H   0  0  0  0  0  0  0  0  0  0  0  0
   -2.0172   -2.0075   -1.3263 H   0  0  0  0  0  0  0  0  0  0  0  0
  1  2  2  3
  1  7  1  0
  1  8  1  0
  2  3  1  0
  2  9  1  0
  3  4  1  0
  3  5  1  0
  4 10  1  0
  4 11  1  0
  4 12  1  0
  5  6  2  3
  5 13  1  0
  6 14  1  0
  6 15  1  0
 16 17  1  0
 16 24  1  0
 16 25  1  0
 16 26  1  0
 17 18  1  0
 17 27  1  0
 17 28  1  0
 18 19  1  0
 18 29  1  0
 18 30  1  0
 19 20  1  0
 19 23  1  0
 19 31  1  0
 20 21  1  0
 20 32  1  0
 20 33  1  0
 21 22  1  0
 21 34  1  0
 21 35  1  0
 22 23  1  0
 22 36  1  0
 22 37  1  0
 23 24  1  0
 23 38  1  0
 24 39  1  0
 24 40  1  0
M  RAD  1   3   2
M  END
>  <reaction>  (11) 
rxn_607

>  <mol_properties>  (11) 
{"1": {"label": "*0", "atom_type": "Cd"}, "2": {"label": "*1", "atom_type": "Cs"}, "19": {"label": "*4", "atom_type": "Cs"}, "20": {"label": "*3", "atom_type": "Cs"}, "33": {"label": "*2", "atom_type": "H0"}}

>  <type>  (11) 
unop_7

>  <geom_source>  (11) 
Heuristics

$$$$

     RDKit          3D

 40 40  0  0  0  0  0  0  0  0999 V2000
    2.3150    2.9352    1.6781 C   0  0  0  0  0  0  0  0  0  0  0  0
    1.2857    3.4050    0.9919 C   0  0  0  0  0  0  0  0  0  0  0  0
    0.1332    2.5804    0.4796 C   0  0  0  0  0  3  0  0  0  0  0  0
    0.0413    2.6692   -1.0413 C   0  0  0  0  0  0  0  0  0  0  0  0
   -1.1273    2.9968    1.1966 C   0  0  0  0  0  0  0  0  0  0  0  0
   -2.2268    3.4885    0.6467 C   0  0  0  0  0  0  0  0  0  0  0  0
    3.1125    3.5837    2.0186 H   0  0  0  0  0  0  0  0  0  0  0  0
    2.3977    1.8817    1.9237 H   0  0  0  0  0  0  0  0  0  0  0  0
    1.2312    4.4675    0.7644 H   0  0  0  0  0  0  0  0  0  0  0  0
   -0.7827    2.0632   -1.4216 H   0  0  0  0  0  0  0  0  0  0  0  0
    0.9671    2.3138   -1.4945 H   0  0  0  0  0  0  0  0  0  0  0  0
   -0.1167    3.7000   -1.3666 H   0  0  0  0  0  0  0  0  0  0  0  0
   -1.0864    2.8823    2.2767 H   0  0  0  0  0  0  0  0  0  0  0  0
   -2.3263    3.6310   -0.4226 H   0  0  0  0  0  0  0  0  0  0  0  0
   -3.0774    3.7661    1.2562 H   0  0  0  0  0  0  0  0  0  0  0  0
   -1.0489   -3.9617   -1.1766 C   0  0  0  0  0  0  0  0  0  0  0  0
   -1.0489   -3.9617    0.3540 C   0  0  0  0  0  0  0  0  0  0  0  0
    0.0943   -3.1253    0.9360 C   0  0  0  0  0  0  0  0  0  0  0  0
    0.0546   -1.7243    0.3519 C   0  0  0  0  0  0  0  0  0  0  0  0
    1.1737   -0.7505    0.7073 C   0  0  0  0  0  0  0  0  0  0  0  0
    1.1237    0.3200   -0.4113 C   0  0  0  0  0  0  0  0  0  0  0  0
    0.2303   -0.2718   -1.5299 C   0  0  0  0  0  0  0  0  0  0  0  0
    0.1052   -1.7499   -1.1745 C   0  0  0  0  0  0  0  0  0  0  0  0
   -1.0489   -2.5452   -1.7586 C   0  0  0  0  0  0  0  0  0  0  0  0
   -0.1564   -4.4885   -1.5325 H   0  0  0  0  0  0  0  0  0  0  0  0
   -1.9097   -4.5228   -1.5473 H   0  0  0  0  0  0  0  0  0  0  0  0
   -2.0010   -3.5525    0.7099 H   0  0  0  0  0  0  0  0  0  0  0  0
   -0.9933   -4.9878    0.7247 H   0  0  0  0  0  0  0  0  0  0  0  0
    0.0270   -3.0993    2.0268 H   0  0  0  0  0  0  0  0  0  0  0  0
    1.0558   -3.5904    0.6879 H   0  0  0  0  0  0  0  0  0  0  0  0
   -0.9041   -1.2655    0.6344 H   0  0  0  0  0  0  0  0  0  0  0  0
    1.0649   -0.3226    1.7047 H   0  0  0  0  0  0  0  0  0  0  0  0
    2.1313   -1.2791    0.6869 H   0  0  0  0  0  0  0  0  0  0  0  0
    0.6298    1.4473    0.0330 H   0  0  0  0  0  0  0  0  0  0  0  0
    2.1249    0.5425   -0.7816 H   0  0  0  0  0  0  0  0  0  0  0  0
    0.6399   -0.1069   -2.5274 H   0  0  0  0  0  0  0  0  0  0  0  0
   -0.7618    0.1889   -1.5095 H   0  0  0  0  0  0  0  0  0  0  0  0
    1.0416   -2.2528   -1.4570 H   0  0  0  0  0  0  0  0  0  0  0  0
   -0.9882   -2.5842   -2.8495 H   0  0  0  0  0  0  0  0  0  0  0  0
   -1.9920   -2.0439   -1.5106 H   0  0  0  0  0  0  0  0  0  0  0  0
  1  2  2  3
  1  7  1  0
  1  8  1  0
  2  3  1  0
  2  9  1  0
  3  4  1  0
  3  5  1  0
  4 10  1  0
  4 11  1  0
  4 12  1  0
  5  6  2  3
  5 13  1  0
  6 14  1  0
  6 15  1  0
 16 17  1  0
 16 24  1  0
 16 25  1  0
 16 26  1  0
 17 18  1  0
 17 27  1  0
 17 28  1  0
 18 19  1  0
 18 29  1  0
 18 30  1  0
 19 20  1  0
 19 23  1  0
 19 31  1  0
 20 21  1  0
 20 32  1  0
 20 33  1  0
 21 22  1  0
 21 34  1  0
 21 35  1  0
 22 23  1  0
 22 36  1  0
 22 37  1  0
 23 24  1  0
 23 38  1  0
 24 39  1  0
 24 40  1  0
M  RAD  1   3   2
M  END
>  <reaction>  (12) 
rxn_607

>  <mol_properties>  (12) 
{"1": {"label": "*0", "atom_type": "Cd"}, "2": {"label": "*1", "atom_type": "Cs"}, "19": {"label": "*4", "atom_type": "Cs"}, "20": {"label": "*3", "atom_type": "Cs"}, "33": {"label": "*2", "atom_type": "H0"}}

>  <type>  (12) 
unop_8

>  <geom_source>  (12) 
Heuristics

$$$$

     RDKit          3D

 40 40  0  0  0  0  0  0  0  0999 V2000
   -0.7504    1.1899    2.2753 C   0  0  0  0  0  0  0  0  0  0  0  0
   -0.6887    2.3500    1.6418 C   0  0  0  0  0  0  0  0  0  0  0  0
    0.2817    2.6882    0.5397 C   0  0  0  0  0  3  0  0  0  0  0  0
    1.1550    3.8753    0.9363 C   0  0  0  0  0  0  0  0  0  0  0  0
   -0.4831    2.8902   -0.7450 C   0  0  0  0  0  0  0  0  0  0  0  0
   -0.5227    3.9910   -1.4796 C   0  0  0  0  0  0  0  0  0  0  0  0
   -1.4743    1.0106    3.0603 H   0  0  0  0  0  0  0  0  0  0  0  0
   -0.0762    0.3756    2.0314 H   0  0  0  0  0  0  0  0  0  0  0  0
   -1.3813    3.1455    1.9083 H   0  0  0  0  0  0  0  0  0  0  0  0
    1.8704    4.1180    0.1488 H   0  0  0  0  0  0  0  0  0  0  0  0
    1.7102    3.6454    1.8461 H   0  0  0  0  0  0  0  0  0  0  0  0
    0.5484    4.7631    1.1294 H   0  0  0  0  0  0  0  0  0  0  0  0
   -1.0628    2.0269   -1.0612 H   0  0  0  0  0  0  0  0  0  0  0  0
    0.0286    4.8851   -1.2143 H   0  0  0  0  0  0  0  0  0  0  0  0
   -1.1140    4.0345   -2.3854 H   0  0  0  0  0  0  0  0  0  0  0  0
   -0.9004   -3.8539   -1.1166 C   0  0  0  0  0  0  0  0  0  0  0  0
   -0.9004   -3.8539    0.4140 C   0  0  0  0  0  0  0  0  0  0  0  0
    0.2428   -3.0175    0.9960 C   0  0  0  0  0  0  0  0  0  0  0  0
    0.2031   -1.6166    0.4119 C   0  0  0  0  0  0  0  0  0  0  0  0
    1.3222   -0.6428    0.7673 C   0  0  0  0  0  0  0  0  0  0  0  0
    1.2722    0.4278   -0.3513 C   0  0  0  0  0  0  0  0  0  0  0  0
    0.3788   -0.1641   -1.4699 C   0  0  0  0  0  0  0  0  0  0  0  0
    0.2537   -1.6422   -1.1145 C   0  0  0  0  0  0  0  0  0  0  0  0
   -0.9004   -2.4375   -1.6986 C   0  0  0  0  0  0  0  0  0  0  0  0
   -0.0079   -4.3807   -1.4725 H   0  0  0  0  0  0  0  0  0  0  0  0
   -1.7612   -4.4150   -1.4873 H   0  0  0  0  0  0  0  0  0  0  0  0
   -1.8525   -3.4448    0.7699 H   0  0  0  0  0  0  0  0  0  0  0  0
   -0.8448   -4.8800    0.7847 H   0  0  0  0  0  0  0  0  0  0  0  0
    0.1755   -2.9916    2.0869 H   0  0  0  0  0  0  0  0  0  0  0  0
    1.2043   -3.4827    0.7480 H   0  0  0  0  0  0  0  0  0  0  0  0
   -0.7556   -1.1577    0.6944 H   0  0  0  0  0  0  0  0  0  0  0  0
    1.2134   -0.2148    1.7648 H   0  0  0  0  0  0  0  0  0  0  0  0
    2.2798   -1.1713    0.7469 H   0  0  0  0  0  0  0  0  0  0  0  0
    0.7783    1.5550    0.0930 H   0  0  0  0  0  0  0  0  0  0  0  0
    2.2734    0.6503   -0.7215 H   0  0  0  0  0  0  0  0  0  0  0  0
    0.7884    0.0008   -2.4673 H   0  0  0  0  0  0  0  0  0  0  0  0
   -0.6133    0.2967   -1.4495 H   0  0  0  0  0  0  0  0  0  0  0  0
    1.1901   -2.1450   -1.3970 H   0  0  0  0  0  0  0  0  0  0  0  0
   -0.8397   -2.4765   -2.7894 H   0  0  0  0  0  0  0  0  0  0  0  0
   -1.8435   -1.9362   -1.4505 H   0  0  0  0  0  0  0  0  0  0  0  0
  1  2  2  3
  1  7  1  0
  1  8  1  0
  2  3  1  0
  2  9  1  0
  3  4  1  0
  3  5  1  0
  4 10  1  0
  4 11  1  0
  4 12  1  0
  5  6  2  3
  5 13  1  0
  6 14  1  0
  6 15  1  0
 16 17  1  0
 16 24  1  0
 16 25  1  0
 16 26  1  0
 17 18  1  0
 17 27  1  0
 17 28  1  0
 18 19  1  0
 18 29  1  0
 18 30  1  0
 19 20  1  0
 19 23  1  0
 19 31  1  0
 20 21  1  0
 20 32  1  0
 20 33  1  0
 21 22  1  0
 21 34  1  0
 21 35  1  0
 22 23  1  0
 22 36  1  0
 22 37  1  0
 23 24  1  0
 23 38  1  0
 24 39  1  0
 24 40  1  0
M  RAD  1   3   2
M  END
>  <reaction>  (13) 
rxn_607

>  <mol_properties>  (13) 
{"1": {"label": "*0", "atom_type": "Cd"}, "2": {"label": "*1", "atom_type": "Cs"}, "19": {"label": "*4", "atom_type": "Cs"}, "20": {"label": "*3", "atom_type": "Cs"}, "33": {"label": "*2", "atom_type": "H0"}}

>  <type>  (13) 
unop_9

>  <geom_source>  (13) 
Heuristics

$$$$

     RDKit          3D

 40 40  0  0  0  0  0  0  0  0999 V2000
    1.6875    2.2867    2.4058 C   0  0  0  0  0  0  0  0  0  0  0  0
    1.0402    3.0725    1.5606 C   0  0  0  0  0  0  0  0  0  0  0  0
    0.1455    2.5989    0.4445 C   0  0  0  0  0  3  0  0  0  0  0  0
    0.6692    3.0789   -0.9064 C   0  0  0  0  0  0  0  0  0  0  0  0
   -1.2732    3.0200    0.7382 C   0  0  0  0  0  0  0  0  0  0  0  0
   -2.0379    3.8039   -0.0060 C   0  0  0  0  0  0  0  0  0  0  0  0
    2.3161    2.6922    3.1887 H   0  0  0  0  0  0  0  0  0  0  0  0
    1.6126    1.2061    2.3442 H   0  0  0  0  0  0  0  0  0  0  0  0
    1.1342    4.1526    1.6512 H   0  0  0  0  0  0  0  0  0  0  0  0
    0.0343    2.7282   -1.7217 H   0  0  0  0  0  0  0  0  0  0  0  0
    1.6795    2.7039   -1.0718 H   0  0  0  0  0  0  0  0  0  0  0  0
    0.7056    4.1699   -0.9493 H   0  0  0  0  0  0  0  0  0  0  0  0
   -1.6701    2.6339    1.6734 H   0  0  0  0  0  0  0  0  0  0  0  0
   -1.6976    4.2235   -0.9450 H   0  0  0  0  0  0  0  0  0  0  0  0
   -3.0453    4.0535    0.3022 H   0  0  0  0  0  0  0  0  0  0  0  0
   -1.0366   -3.9432   -1.2118 C   0  0  0  0  0  0  0  0  0  0  0  0
   -1.0366   -3.9432    0.3188 C   0  0  0  0  0  0  0  0  0  0  0  0
    0.1065   -3.1068    0.9008 C   0  0  0  0  0  0  0  0  0  0  0  0
    0.0669   -1.7058    0.3167 C   0  0  0  0  0  0  0  0  0  0  0  0
    1.1860   -0.7320    0.6721 C   0  0  0  0  0  0  0  0  0  0  0  0
    1.1360    0.3385   -0.4465 C   0  0  0  0  0  0  0  0  0  0  0  0
    0.2425   -0.2533   -1.5651 C   0  0  0  0  0  0  0  0  0  0  0  0
    0.1175   -1.7315   -1.2097 C   0  0  0  0  0  0  0  0  0  0  0  0
   -1.0366   -2.5268   -1.7938 C   0  0  0  0  0  0  0  0  0  0  0  0
   -0.1442   -4.4700   -1.5677 H   0  0  0  0  0  0  0  0  0  0  0  0
   -1.8975   -4.5043   -1.5825 H   0  0  0  0  0  0  0  0  0  0  0  0
   -1.9887   -3.5340    0.6747 H   0  0  0  0  0  0  0  0  0  0  0  0
   -0.9811   -4.9693    0.6895 H   0  0  0  0  0  0  0  0  0  0  0  0
    0.0393   -3.0809    1.9916 H   0  0  0  0  0  0  0  0  0  0  0  0
    1.0681   -3.5719    0.6527 H   0  0  0  0  0  0  0  0  0  0  0  0
   -0.8919   -1.2470    0.5992 H   0  0  0  0  0  0  0  0  0  0  0  0
    1.0771   -0.3041    1.6695 H   0  0  0  0  0  0  0  0  0  0  0  0
    2.1436   -1.2606    0.6517 H   0  0  0  0  0  0  0  0  0  0  0  0
    0.6420    1.4658   -0.0022 H   0  0  0  0  0  0  0  0  0  0  0  0
    2.1372    0.5610   -0.8168 H   0  0  0  0  0  0  0  0  0  0  0  0
    0.6522   -0.0884   -2.5625 H   0  0  0  0  0  0  0  0  0  0  0  0
   -0.7495    0.2074   -1.5447 H   0  0  0  0  0  0  0  0  0  0  0  0
    1.0539   -2.2343   -1.4922 H   0  0  0  0  0  0  0  0  0  0  0  0
   -0.9759   -2.5657   -2.8846 H   0  0  0  0  0  0  0  0  0  0  0  0
   -1.9798   -2.0254   -1.5457 H   0  0  0  0  0  0  0  0  0  0  0  0
  1  2  2  3
  1  7  1  0
  1  8  1  0
  2  3  1  0
  2  9  1  0
  3  4  1  0
  3  5  1  0
  4 10  1  0
  4 11  1  0
  4 12  1  0
  5  6  2  3
  5 13  1  0
  6 14  1  0
  6 15  1  0
 16 17  1  0
 16 24  1  0
 16 25  1  0
 16 26  1  0
 17 18  1  0
 17 27  1  0
 17 28  1  0
 18 19  1  0
 18 29  1  0
 18 30  1  0
 19 20  1  0
 19 23  1  0
 19 31  1  0
 20 21  1  0
 20 32  1  0
 20 33  1  0
 21 22  1  0
 21 34  1  0
 21 35  1  0
 22 23  1  0
 22 36  1  0
 22 37  1  0
 23 24  1  0
 23 38  1  0
 24 39  1  0
 24 40  1  0
M  RAD  1   3   2
M  END
>  <reaction>  (14) 
rxn_607

>  <mol_properties>  (14) 
{"1": {"label": "*0", "atom_type": "Cd"}, "2": {"label": "*1", "atom_type": "Cs"}, "19": {"label": "*4", "atom_type": "Cs"}, "20": {"label": "*3", "atom_type": "Cs"}, "33": {"label": "*2", "atom_type": "H0"}}

>  <type>  (14) 
unop_10

>  <geom_source>  (14) 
Heuristics

$$$$

     RDKit          3D

 40 40  0  0  0  0  0  0  0  0999 V2000
   -1.1295    2.6429   -1.6213 C   0  0  0  0  0  0  0  0  0  0  0  0
   -0.6381    3.2613   -0.5597 C   0  0  0  0  0  0  0  0  0  0  0  0
    0.0528    2.5867    0.5971 C   0  0  0  0  0  3  0  0  0  0  0  0
   -0.6957    2.8517    1.9005 C   0  0  0  0  0  0  0  0  0  0  0  0
    1.5000    3.0121    0.6223 C   0  0  0  0  0  0  0  0  0  0  0  0
    2.1243    3.6422    1.6054 C   0  0  0  0  0  0  0  0  0  0  0  0
   -1.6152    3.1884   -2.4206 H   0  0  0  0  0  0  0  0  0  0  0  0
   -1.0643    1.5652   -1.7289 H   0  0  0  0  0  0  0  0  0  0  0  0
   -0.7172    4.3437   -0.4835 H   0  0  0  0  0  0  0  0  0  0  0  0
   -0.2094    2.3547    2.7416 H   0  0  0  0  0  0  0  0  0  0  0  0
   -1.7188    2.4819    1.8276 H   0  0  0  0  0  0  0  0  0  0  0  0
   -0.7409    3.9213    2.1180 H   0  0  0  0  0  0  0  0  0  0  0  0
    2.0521    2.7747   -0.2833 H   0  0  0  0  0  0  0  0  0  0  0  0
    1.6273    3.9105    2.5298 H   0  0  0  0  0  0  0  0  0  0  0  0
    3.1692    3.9119    1.5183 H   0  0  0  0  0  0  0  0  0  0  0  0
   -1.1292   -3.9554   -1.0591 C   0  0  0  0  0  0  0  0  0  0  0  0
   -1.1292   -3.9554    0.4715 C   0  0  0  0  0  0  0  0  0  0  0  0
    0.0139   -3.1190    1.0535 C   0  0  0  0  0  0  0  0  0  0  0  0
   -0.0257   -1.7181    0.4694 C   0  0  0  0  0  0  0  0  0  0  0  0
    1.0933   -0.7443    0.8248 C   0  0  0  0  0  0  0  0  0  0  0  0
    1.0434    0.3263   -0.2938 C   0  0  0  0  0  0  0  0  0  0  0  0
    0.1499   -0.2656   -1.4125 C   0  0  0  0  0  0  0  0  0  0  0  0
    0.0248   -1.7437   -1.0570 C   0  0  0  0  0  0  0  0  0  0  0  0
   -1.1292   -2.5390   -1.6411 C   0  0  0  0  0  0  0  0  0  0  0  0
   -0.2368   -4.4822   -1.4151 H   0  0  0  0  0  0  0  0  0  0  0  0
   -1.9901   -4.5165   -1.4298 H   0  0  0  0  0  0  0  0  0  0  0  0
   -2.0814   -3.5463    0.8274 H   0  0  0  0  0  0  0  0  0  0  0  0
   -1.0737   -4.9815    0.8422 H   0  0  0  0  0  0  0  0  0  0  0  0
   -0.0534   -3.0931    2.1443 H   0  0  0  0  0  0  0  0  0  0  0  0
    0.9754   -3.5842    0.8054 H   0  0  0  0  0  0  0  0  0  0  0  0
   -0.9845   -1.2592    0.7519 H   0  0  0  0  0  0  0  0  0  0  0  0
    0.9845   -0.3163    1.8222 H   0  0  0  0  0  0  0  0  0  0  0  0
    2.0509   -1.2728    0.8044 H   0  0  0  0  0  0  0  0  0  0  0  0
    0.5494    1.4535    0.1505 H   0  0  0  0  0  0  0  0  0  0  0  0
    2.0446    0.5488   -0.6641 H   0  0  0  0  0  0  0  0  0  0  0  0
    0.5595   -0.1007   -2.4099 H   0  0  0  0  0  0  0  0  0  0  0  0
   -0.8422    0.1952   -1.3920 H   0  0  0  0  0  0  0  0  0  0  0  0
    0.9613   -2.2465   -1.3395 H   0  0  0  0  0  0  0  0  0  0  0  0
   -1.0686   -2.5780   -2.7320 H   0  0  0  0  0  0  0  0  0  0  0  0
   -2.0724   -2.0377   -1.3931 H   0  0  0  0  0  0  0  0  0  0  0  0
  1  2  2  3
  1  7  1  0
  1  8  1  0
  2  3  1  0
  2  9  1  0
  3  4  1  0
  3  5  1  0
  4 10  1  0
  4 11  1  0
  4 12  1  0
  5  6  2  3
  5 13  1  0
  6 14  1  0
  6 15  1  0
 16 17  1  0
 16 24  1  0
 16 25  1  0
 16 26  1  0
 17 18  1  0
 17 27  1  0
 17 28  1  0
 18 19  1  0
 18 29  1  0
 18 30  1  0
 19 20  1  0
 19 23  1  0
 19 31  1  0
 20 21  1  0
 20 32  1  0
 20 33  1  0
 21 22  1  0
 21 34  1  0
 21 35  1  0
 22 23  1  0
 22 36  1  0
 22 37  1  0
 23 24  1  0
 23 38  1  0
 24 39  1  0
 24 40  1  0
M  RAD  1   3   2
M  END
>  <reaction>  (15) 
rxn_607

>  <mol_properties>  (15) 
{"1": {"label": "*0", "atom_type": "Cd"}, "2": {"label": "*1", "atom_type": "Cs"}, "19": {"label": "*4", "atom_type": "Cs"}, "20": {"label": "*3", "atom_type": "Cs"}, "33": {"label": "*2", "atom_type": "H0"}}

>  <type>  (15) 
unop_11

>  <geom_source>  (15) 
Heuristics

$$$$

     RDKit          3D

 40 40  0  0  0  0  0  0  0  0999 V2000
    0.0788    1.3420    2.5889 C   0  0  0  0  0  0  0  0  0  0  0  0
   -0.0778    2.4711    1.9169 C   0  0  0  0  0  0  0  0  0  0  0  0
    0.2531    2.6688    0.4601 C   0  0  0  0  0  3  0  0  0  0  0  0
    1.3077    3.7590    0.2904 C   0  0  0  0  0  0  0  0  0  0  0  0
   -1.0224    2.9235   -0.3045 C   0  0  0  0  0  0  0  0  0  0  0  0
   -1.3214    4.0026   -1.0109 C   0  0  0  0  0  0  0  0  0  0  0  0
   -0.1800    1.2661    3.6375 H   0  0  0  0  0  0  0  0  0  0  0  0
    0.4736    0.4505    2.1130 H   0  0  0  0  0  0  0  0  0  0  0  0
   -0.4792    3.3466    2.4228 H   0  0  0  0  0  0  0  0  0  0  0  0
    1.5633    3.8987   -0.7613 H   0  0  0  0  0  0  0  0  0  0  0  0
    2.2151    3.4908    0.8320 H   0  0  0  0  0  0  0  0  0  0  0  0
    0.9529    4.7145    0.6836 H   0  0  0  0  0  0  0  0  0  0  0  0
   -1.7548    2.1237   -0.2321 H   0  0  0  0  0  0  0  0  0  0  0  0
   -0.6359    4.8348   -1.1163 H   0  0  0  0  0  0  0  0  0  0  0  0
   -2.2745    4.0898   -1.5171 H   0  0  0  0  0  0  0  0  0  0  0  0
   -0.9290   -3.8733   -1.1961 C   0  0  0  0  0  0  0  0  0  0  0  0
   -0.9290   -3.8733    0.3345 C   0  0  0  0  0  0  0  0  0  0  0  0
    0.2142   -3.0369    0.9165 C   0  0  0  0  0  0  0  0  0  0  0  0
    0.1745   -1.6359    0.3324 C   0  0  0  0  0  0  0  0  0  0  0  0
    1.2936   -0.6621    0.6878 C   0  0  0  0  0  0  0  0  0  0  0  0
    1.2436    0.4084   -0.4308 C   0  0  0  0  0  0  0  0  0  0  0  0
    0.3501   -0.1834   -1.5494 C   0  0  0  0  0  0  0  0  0  0  0  0
    0.2251   -1.6615   -1.1940 C   0  0  0  0  0  0  0  0  0  0  0  0
   -0.9290   -2.4569   -1.7781 C   0  0  0  0  0  0  0  0  0  0  0  0
   -0.0365   -4.4001   -1.5520 H   0  0  0  0  0  0  0  0  0  0  0  0
   -1.7898   -4.4344   -1.5668 H   0  0  0  0  0  0  0  0  0  0  0  0
   -1.8811   -3.4641    0.6904 H   0  0  0  0  0  0  0  0  0  0  0  0
   -0.8734   -4.8994    0.7052 H   0  0  0  0  0  0  0  0  0  0  0  0
    0.1469   -3.0109    2.0073 H   0  0  0  0  0  0  0  0  0  0  0  0
    1.1757   -3.5020    0.6684 H   0  0  0  0  0  0  0  0  0  0  0  0
   -0.7842   -1.1771    0.6149 H   0  0  0  0  0  0  0  0  0  0  0  0
    1.1848   -0.2342    1.6852 H   0  0  0  0  0  0  0  0  0  0  0  0
    2.2512   -1.1907    0.6674 H   0  0  0  0  0  0  0  0  0  0  0  0
    0.7496    1.5357    0.0135 H   0  0  0  0  0  0  0  0  0  0  0  0
    2.2448    0.6309   -0.8011 H   0  0  0  0  0  0  0  0  0  0  0  0
    0.7598   -0.0185   -2.5469 H   0  0  0  0  0  0  0  0  0  0  0  0
   -0.6419    0.2773   -1.5290 H   0  0  0  0  0  0  0  0  0  0  0  0
    1.1615   -2.1644   -1.4765 H   0  0  0  0  0  0  0  0  0  0  0  0
   -0.8683   -2.4958   -2.8690 H   0  0  0  0  0  0  0  0  0  0  0  0
   -1.8721   -1.9555   -1.5301 H   0  0  0  0  0  0  0  0  0  0  0  0
  1  2  2  3
  1  7  1  0
  1  8  1  0
  2  3  1  0
  2  9  1  0
  3  4  1  0
  3  5  1  0
  4 10  1  0
  4 11  1  0
  4 12  1  0
  5  6  2  3
  5 13  1  0
  6 14  1  0
  6 15  1  0
 16 17  1  0
 16 24  1  0
 16 25  1  0
 16 26  1  0
 17 18  1  0
 17 27  1  0
 17 28  1  0
 18 19  1  0
 18 29  1  0
 18 30  1  0
 19 20  1  0
 19 23  1  0
 19 31  1  0
 20 21  1  0
 20 32  1  0
 20 33  1  0
 21 22  1  0
 21 34  1  0
 21 35  1  0
 22 23  1  0
 22 36  1  0
 22 37  1  0
 23 24  1  0
 23 38  1  0
 24 39  1  0
 24 40  1  0
M  RAD  1   3   2
M  END
>  <reaction>  (16) 
rxn_607

>  <mol_properties>  (16) 
{"1": {"label": "*0", "atom_type": "Cd"}, "2": {"label": "*1", "atom_type": "Cs"}, "19": {"label": "*4", "atom_type": "Cs"}, "20": {"label": "*3", "atom_type": "Cs"}, "33": {"label": "*2", "atom_type": "H0"}}

>  <type>  (16) 
unop_12

>  <geom_source>  (16) 
Heuristics

$$$$

     RDKit          3D

 40 40  0  0  0  0  0  0  0  0999 V2000
    1.9045    0.0105    0.7883 C   0  0  0  0  0  0  0  0  0  0  0  0
    1.9927   -0.0799   -0.7222 C   0  0  0  0  0  0  0  0  0  0  0  0
   -2.9300    0.0023   -0.2503 C   0  0  0  0  0  3  0  0  0  0  0  0
    3.0453   -0.7904    1.4470 C   0  0  0  0  0  0  0  0  0  0  0  0
    3.2299    0.6804   -1.2398 C   0  0  0  0  0  0  0  0  0  0  0  0
    4.3586   -0.7063    0.6243 C   0  0  0  0  0  0  0  0  0  0  0  0
    4.4330    0.5538   -0.2675 C   0  0  0  0  0  0  0  0  0  0  0  0
    0.4880   -0.4480    1.1007 C   0  0  0  0  0  0  0  0  0  0  0  0
    0.6394    0.4251   -1.2011 C   0  0  0  0  0  0  0  0  0  0  0  0
   -3.0035   -0.1699   -1.7704 C   0  0  0  0  0  0  0  0  0  0  0  0
   -0.3438    0.0169   -0.0994 C   0  0  0  0  0  0  0  0  0  0  0  0
   -3.3426    1.3975    0.1574 C   0  0  0  0  0  0  0  0  0  0  0  0
   -3.7620   -1.0411    0.4557 C   0  0  0  0  0  0  0  0  0  0  0  0
   -4.5839    1.8656   -0.0191 C   0  0  0  0  0  0  0  0  0  0  0  0
   -3.6327   -1.2583    1.7674 C   0  0  0  0  0  0  0  0  0  0  0  0
    1.9960    1.0794    1.0968 H   0  0  0  0  0  0  0  0  0  0  0  0
    2.0836   -1.1520   -1.0196 H   0  0  0  0  0  0  0  0  0  0  0  0
   -1.6367   -0.1755    0.1082 H   0  0  0  0  0  0  0  0  0  0  0  0
    2.7614   -1.8601    1.5532 H   0  0  0  0  0  0  0  0  0  0  0  0
    3.2196   -0.3877    2.4685 H   0  0  0  0  0  0  0  0  0  0  0  0
    5.2297   -0.7231    1.3142 H   0  0  0  0  0  0  0  0  0  0  0  0
    4.4374   -1.6028   -0.0292 H   0  0  0  0  0  0  0  0  0  0  0  0
    5.3797    0.5398   -0.8493 H   0  0  0  0  0  0  0  0  0  0  0  0
    4.4639    1.4485    0.3926 H   0  0  0  0  0  0  0  0  0  0  0  0
    2.9968    1.7588   -1.3769 H   0  0  0  0  0  0  0  0  0  0  0  0
    3.5101    0.2697   -2.2341 H   0  0  0  0  0  0  0  0  0  0  0  0
    0.1133    0.0138    2.0386 H   0  0  0  0  0  0  0  0  0  0  0  0
    0.4386   -1.5563    1.1832 H   0  0  0  0  0  0  0  0  0  0  0  0
    0.6341    1.5331   -1.2855 H   0  0  0  0  0  0  0  0  0  0  0  0
    0.3656   -0.0242   -2.1802 H   0  0  0  0  0  0  0  0  0  0  0  0
   -2.6201   -1.1729   -2.0543 H   0  0  0  0  0  0  0  0  0  0  0  0
   -4.0483   -0.0706   -2.1353 H   0  0  0  0  0  0  0  0  0  0  0  0
   -2.3726    0.5962   -2.2694 H   0  0  0  0  0  0  0  0  0  0  0  0
   -1.0155   -0.7983   -0.4466 H   0  0  0  0  0  0  0  0  0  0  0  0
   -2.6000    2.0411    0.6187 H   0  0  0  0  0  0  0  0  0  0  0  0
   -4.4751   -1.6386   -0.1061 H   0  0  0  0  0  0  0  0  0  0  0  0
   -5.3572    1.2498   -0.4678 H   0  0  0  0  0  0  0  0  0  0  0  0
   -4.8324    2.8745    0.2932 H   0  0  0  0  0  0  0  0  0  0  0  0
   -2.9275   -0.6846    2.3614 H   0  0  0  0  0  0  0  0  0  0  0  0
   -4.2373   -2.0162    2.2548 H   0  0  0  0  0  0  0  0  0  0  0  0
  1  4  1  0
  1  8  1  0
  1  2  1  0
  1 16  1  0
  2  5  1  0
  2  9  1  0
  2 17  1  0
  3 10  1  0
  3 12  1  0
  3 13  1  0
  4  6  1  0
  4 19  1  0
  4 20  1  0
  5  7  1  0
  5 25  1  0
  5 26  1  0
  6  7  1  0
  6 21  1  0
  6 22  1  0
  7 23  1  0
  7 24  1  0
  8 11  1  0
  8 27  1  0
  8 28  1  0
  9 11  1  0
  9 29  1  0
  9 30  1  0
 10 31  1  0
 10 32  1  0
 10 33  1  0
 11 18  1  0
 11 34  1  0
 12 14  2  3
 12 35  1  0
 13 15  2  3
 13 36  1  0
 14 37  1  0
 14 38  1  0
 15 39  1  0
 15 40  1  0
M  RAD  1   3   2
M  END
>  <reaction>  (17) 
rxn_607

>  <mol_properties>  (17) 
{"1": {"label": "*0", "atom_type": "Cd"}, "2": {"label": "*1", "atom_type": "Cs"}, "19": {"label": "*4", "atom_type": "Cs"}, "20": {"label": "*3", "atom_type": "Cs"}, "33": {"label": "*2", "atom_type": "H0"}}

>  <type>  (17) 
unop_13

>  <geom_source>  (17) 
AutoTST

$$$$

     RDKit          3D

 40 40  0  0  0  0  0  0  0  0999 V2000
    0.8841    1.7139    2.6633 C   0  0  0  0  0  0  0  0  0  0  0  0
    0.5442    2.7316    1.8889 C   0  0  0  0  0  0  0  0  0  0  0  0
    0.1925    2.6322    0.4271 C   0  0  0  0  0  3  0  0  0  0  0  0
    1.1502    3.4701   -0.4157 C   0  0  0  0  0  0  0  0  0  0  0  0
   -1.2614    2.9917    0.2448 C   0  0  0  0  0  0  0  0  0  0  0  0
   -1.7478    3.9816   -0.4876 C   0  0  0  0  0  0  0  0  0  0  0  0
    1.1252    1.8537    3.7096 H   0  0  0  0  0  0  0  0  0  0  0  0
    0.9345    0.7013    2.2770 H   0  0  0  0  0  0  0  0  0  0  0  0
    0.5003    3.7347    2.3079 H   0  0  0  0  0  0  0  0  0  0  0  0
    0.9107    3.3924   -1.4775 H   0  0  0  0  0  0  0  0  0  0  0  0
    2.1754    3.1296   -0.2687 H   0  0  0  0  0  0  0  0  0  0  0  0
    1.1036    4.5244   -0.1333 H   0  0  0  0  0  0  0  0  0  0  0  0
   -1.9512    2.3611    0.7998 H   0  0  0  0  0  0  0  0  0  0  0  0
   -1.1115    4.6469   -1.0588 H   0  0  0  0  0  0  0  0  0  0  0  0
   -2.8141    4.1604   -0.5437 H   0  0  0  0  0  0  0  0  0  0  0  0
   -0.9896   -3.9099   -1.2292 C   0  0  0  0  0  0  0  0  0  0  0  0
   -0.9896   -3.9099    0.3014 C   0  0  0  0  0  0  0  0  0  0  0  0
    0.1535   -3.0735    0.8834 C   0  0  0  0  0  0  0  0  0  0  0  0
    0.1139   -1.6725    0.2993 C   0  0  0  0  0  0  0  0  0  0  0  0
    1.2330   -0.6987    0.6547 C   0  0  0  0  0  0  0  0  0  0  0  0
    1.1830    0.3719   -0.4639 C   0  0  0  0  0  0  0  0  0  0  0  0
    0.2895   -0.2200   -1.5825 C   0  0  0  0  0  0  0  0  0  0  0  0
    0.1645   -1.6981   -1.2271 C   0  0  0  0  0  0  0  0  0  0  0  0
   -0.9896   -2.4934   -1.8112 C   0  0  0  0  0  0  0  0  0  0  0  0
   -0.0972   -4.4367   -1.5851 H   0  0  0  0  0  0  0  0  0  0  0  0
   -1.8505   -4.4710   -1.5999 H   0  0  0  0  0  0  0  0  0  0  0  0
   -1.9417   -3.5007    0.6573 H   0  0  0  0  0  0  0  0  0  0  0  0
   -0.9341   -4.9360    0.6721 H   0  0  0  0  0  0  0  0  0  0  0  0
    0.0863   -3.0475    1.9742 H   0  0  0  0  0  0  0  0  0  0  0  0
    1.1151   -3.5386    0.6353 H   0  0  0  0  0  0  0  0  0  0  0  0
   -0.8449   -1.2136    0.5818 H   0  0  0  0  0  0  0  0  0  0  0  0
    1.1241   -0.2708    1.6522 H   0  0  0  0  0  0  0  0  0  0  0  0
    2.1906   -1.2272    0.6343 H   0  0  0  0  0  0  0  0  0  0  0  0
    0.6890    1.4991   -0.0196 H   0  0  0  0  0  0  0  0  0  0  0  0
    2.1842    0.5943   -0.8341 H   0  0  0  0  0  0  0  0  0  0  0  0
    0.6992   -0.0551   -2.5799 H   0  0  0  0  0  0  0  0  0  0  0  0
   -0.7025    0.2407   -1.5621 H   0  0  0  0  0  0  0  0  0  0  0  0
    1.1009   -2.2010   -1.5096 H   0  0  0  0  0  0  0  0  0  0  0  0
   -0.9290   -2.5324   -2.9020 H   0  0  0  0  0  0  0  0  0  0  0  0
   -1.9328   -1.9921   -1.5631 H   0  0  0  0  0  0  0  0  0  0  0  0
  1  2  2  3
  1  7  1  0
  1  8  1  0
  2  3  1  0
  2  9  1  0
  3  4  1  0
  3  5  1  0
  4 10  1  0
  4 11  1  0
  4 12  1  0
  5  6  2  3
  5 13  1  0
  6 14  1  0
  6 15  1  0
 16 17  1  0
 16 24  1  0
 16 25  1  0
 16 26  1  0
 17 18  1  0
 17 27  1  0
 17 28  1  0
 18 19  1  0
 18 29  1  0
 18 30  1  0
 19 20  1  0
 19 23  1  0
 19 31  1  0
 20 21  1  0
 20 32  1  0
 20 33  1  0
 21 22  1  0
 21 34  1  0
 21 35  1  0
 22 23  1  0
 22 36  1  0
 22 37  1  0
 23 24  1  0
 23 38  1  0
 24 39  1  0
 24 40  1  0
M  RAD  1   3   2
M  END
>  <reaction>  (18) 
rxn_607

>  <mol_properties>  (18) 
{"1": {"label": "*0", "atom_type": "Cd"}, "2": {"label": "*1", "atom_type": "Cs"}, "19": {"label": "*4", "atom_type": "Cs"}, "20": {"label": "*3", "atom_type": "Cs"}, "33": {"label": "*2", "atom_type": "H0"}}

>  <type>  (18) 
unop_14

>  <geom_source>  (18) 
gaussian_log

$$$$
