
     RDKit          3D

  9  8  0  0  0  0  0  0  0  0999 V2000
   -2.1022   -0.6873    0.3932 C   0  0  0  0  0  0  0  0  0  0  0  0
   -1.2072   -0.1086   -0.1482 C   0  0  0  0  0  0  0  0  0  0  0  0
   -0.1242    0.6105   -0.8193 C   0  0  0  0  0  0  0  0  0  0  0  0
    1.2067    0.1106   -0.4741 C   0  0  0  0  0  0  0  0  0  0  0  0
    2.3005   -0.2875   -0.2012 C   0  0  0  0  0  0  0  0  0  0  0  0
   -2.8942   -1.2059    0.8778 H   0  0  0  0  0  0  0  0  0  0  0  0
   -0.1862    1.6723   -0.5649 H   0  0  0  0  0  0  0  0  0  0  0  0
   -0.2641    0.5418   -1.9017 H   0  0  0  0  0  0  0  0  0  0  0  0
    3.2709   -0.6459    0.0455 H   0  0  0  0  0  0  0  0  0  0  0  0
  1  2  3  0
  1  6  1  0
  2  3  1  0
  3  4  1  0
  3  7  1  0
  3  8  1  0
  4  5  3  0
  5  9  1  0
M  END
>  <reaction>  (1) 
rxn_1377

>  <mol_properties>  (1) 
{"2": {"label": "donator", "atom_type": "Cs"}, "6": {"label": "d_hydrogen", "atom_type": "H0"}}

>  <type>  (1) 
r1h

$$$$

     RDKit          3D

  7  6  0  0  0  0  0  0  0  0999 V2000
    1.8092   -0.3013   -0.2242 S   0  0  0  0  0  0  0  0  0  0  0  0
    0.1552   -0.6967   -0.1137 C   0  0  0  0  0  0  0  0  0  0  0  0
   -0.8921    0.1788    0.1148 C   0  0  0  0  0  0  0  0  0  0  0  0
   -0.7548    1.8245    0.3328 S   0  0  0  0  0  1  0  0  0  0  0  0
    1.6168    1.0210   -0.0187 H   0  0  0  0  0  0  0  0  0  0  0  0
   -0.0550   -1.7522   -0.2412 H   0  0  0  0  0  0  0  0  0  0  0  0
   -1.8791   -0.2740    0.1502 H   0  0  0  0  0  0  0  0  0  0  0  0
  1  2  1  0
  1  5  1  0
  2  3  2  3
  2  6  1  0
  3  4  1  0
  3  7  1  0
M  RAD  1   4   2
M  END
>  <reaction>  (2) 
rxn_1377

>  <mol_properties>  (2) 
{"1": {"label": "acceptor", "atom_type": "Cs"}}

>  <type>  (2) 
r2

$$$$

     RDKit          3D

  8  7  0  0  0  0  0  0  0  0999 V2000
    1.7301   -0.0562    0.5281 S   0  0  0  0  0  0  0  0  0  0  0  0
    0.1858    0.6127   -0.1669 C   0  0  0  0  0  0  0  0  0  0  0  0
   -0.9621   -0.2567    0.2171 C   0  0  0  0  0  0  0  0  0  0  0  0
   -1.8663   -1.1002   -0.8086 S   0  0  0  0  0  0  0  0  0  0  0  0
    1.7025   -1.2092   -0.1540 H   0  0  0  0  0  0  0  0  0  0  0  0
    0.2619    0.7246   -1.2458 H   0  0  0  0  0  0  0  0  0  0  0  0
    0.0809    1.5982    0.2929 H   0  0  0  0  0  0  0  0  0  0  0  0
   -1.1456   -0.3126    1.2907 H   0  0  0  0  0  0  0  0  0  0  0  0
  1  2  1  0
  1  5  1  0
  2  3  1  0
  2  6  1  0
  2  7  1  0
  3  4  2  0
  3  8  1  0
M  END
>  <reaction>  (3) 
rxn_1377

>  <mol_properties>  (3) 
{"0": {"label": "a_hydrogen", "atom_type": "H0"}, "2": {"label": "acceptor", "atom_type": "Cs"}}

>  <type>  (3) 
r2h

$$$$

     RDKit          3D

 16 14  0  0  0  0  0  0  0  0999 V2000
   -2.4785    0.8064   -2.2725 C   0  0  0  0  0  0  0  0  0  0  0  0
   -1.8689   -0.0421   -1.6802 C   0  0  0  0  0  0  0  0  0  0  0  0
   -1.0773   -0.9865   -0.9680 C   0  0  0  0  0  3  0  0  0  0  0  0
   -1.5258   -1.4436    0.2981 C   0  0  0  0  0  0  0  0  0  0  0  0
   -1.8401   -1.7974    1.4029 C   0  0  0  0  0  0  0  0  0  0  0  0
   -3.0437    1.5386   -2.7976 H   0  0  0  0  0  0  0  0  0  0  0  0
    0.0553   -0.2179   -0.5975 H   0  0  0  0  0  0  0  0  0  0  0  0
   -0.5783   -1.7353   -1.5800 H   0  0  0  0  0  0  0  0  0  0  0  0
   -2.1358   -2.1169    2.3733 H   0  0  0  0  0  0  0  0  0  0  0  0
    2.0011   -0.6734    0.8492 S   0  0  0  0  0  0  0  0  0  0  0  0
    1.1064    0.4410   -0.1801 C   0  0  0  0  0  0  0  0  0  0  0  0
    0.4537    1.6181    0.3557 C   0  0  0  0  0  0  0  0  0  0  0  0
    0.0711    1.9036    1.9076 S   0  0  0  0  0  0  0  0  0  0  0  0
    1.3767   -0.3009    1.9823 H   0  0  0  0  0  0  0  0  0  0  0  0
    1.6106    0.5992   -1.1315 H   0  0  0  0  0  0  0  0  0  0  0  0
    0.1288    2.3201   -0.4110 H   0  0  0  0  0  0  0  0  0  0  0  0
  1  2  3  0
  1  6  1  0
  2  3  1  0
  3  4  1  0
  3  8  1  0
  4  5  3  0
  5  9  1  0
  7 11  1  0
 10 11  1  0
 10 14  1  0
 11 12  1  0
 11 15  1  0
 12 13  2  0
 12 16  1  0
M  RAD  1   3   2
M  END
>  <reaction>  (4) 
rxn_1377

>  <mol_properties>  (4) 
{"1": {"label": "*4", "atom_type": "Ct"}, "2": {"label": "*3", "atom_type": "Cs"}, "6": {"label": "*2", "atom_type": "H0"}, "10": {"label": "*1", "atom_type": "Cs"}, "11": {"label": "*0", "atom_type": "CS"}}

>  <type>  (4) 
ts

$$$$

     RDKit          3D

 16 14  0  0  0  0  0  0  0  0999 V2000
   -1.0144   -1.5832   -2.7474 C   0  0  0  0  0  0  0  0  0  0  0  0
   -1.0144   -1.5832   -1.5519 C   0  0  0  0  0  0  0  0  0  0  0  0
   -1.0144   -1.5832   -0.0889 C   0  0  0  0  0  3  0  0  0  0  0  0
   -2.3285   -1.3076    0.4923 C   0  0  0  0  0  0  0  0  0  0  0  0
   -3.4022   -1.0824    0.9672 C   0  0  0  0  0  0  0  0  0  0  0  0
   -1.0144   -1.5832   -3.8108 H   0  0  0  0  0  0  0  0  0  0  0  0
   -0.1563   -0.6888    0.3422 H   0  0  0  0  0  0  0  0  0  0  0  0
   -0.6591   -2.5530    0.2703 H   0  0  0  0  0  0  0  0  0  0  0  0
   -4.3574   -0.8820    1.3897 H   0  0  0  0  0  0  0  0  0  0  0  0
   -0.1340    1.4619    1.7876 S   0  0  0  0  0  0  0  0  0  0  0  0
    0.6970    0.2005    0.7708 C   0  0  0  0  0  0  0  0  0  0  0  0
    2.0413    0.6898    0.3534 C   0  0  0  0  0  0  0  0  0  0  0  0
    2.4894    0.9813   -1.1617 S   0  0  0  0  0  0  0  0  0  0  0  0
   -0.1971    2.3953    0.8283 H   0  0  0  0  0  0  0  0  0  0  0  0
    0.8001   -0.6627    1.4326 H   0  0  0  0  0  0  0  0  0  0  0  0
    2.7298    0.8746    1.1787 H   0  0  0  0  0  0  0  0  0  0  0  0
  1  2  3  0
  1  6  1  0
  2  3  1  0
  3  4  1  0
  3  8  1  0
  4  5  3  0
  5  9  1  0
  7 11  1  0
 10 11  1  0
 10 14  1  0
 11 12  1  0
 11 15  1  0
 12 13  2  0
 12 16  1  0
M  RAD  1   3   2
M  END
>  <reaction>  (5) 
rxn_1377

>  <mol_properties>  (5) 
{"1": {"label": "*4", "atom_type": "Ct"}, "2": {"label": "*3", "atom_type": "Cs"}, "6": {"label": "*2", "atom_type": "H0"}, "10": {"label": "*1", "atom_type": "Cs"}, "11": {"label": "*0", "atom_type": "CS"}}

>  <type>  (5) 
unop_1

>  <geom_source>  (5) 
Heuristics

$$$$

     RDKit          3D

 16 14  0  0  0  0  0  0  0  0999 V2000
   -1.2910   -1.0334   -2.8413 C   0  0  0  0  0  0  0  0  0  0  0  0
   -1.2910   -1.0334   -1.6458 C   0  0  0  0  0  0  0  0  0  0  0  0
   -1.2910   -1.0334   -0.1828 C   0  0  0  0  0  3  0  0  0  0  0  0
   -2.6051   -0.7578    0.3984 C   0  0  0  0  0  0  0  0  0  0  0  0
   -3.6788   -0.5326    0.8733 C   0  0  0  0  0  0  0  0  0  0  0  0
   -1.2910   -1.0334   -3.9048 H   0  0  0  0  0  0  0  0  0  0  0  0
   -0.4329   -0.1391    0.2483 H   0  0  0  0  0  0  0  0  0  0  0  0
   -0.9357   -2.0033    0.1764 H   0  0  0  0  0  0  0  0  0  0  0  0
   -4.6340   -0.3323    1.2957 H   0  0  0  0  0  0  0  0  0  0  0  0
    0.5669    2.1313   -0.5008 S   0  0  0  0  0  0  0  0  0  0  0  0
    0.4204    0.7503    0.6768 C   0  0  0  0  0  0  0  0  0  0  0  0
    1.7550    0.4379    1.2616 C   0  0  0  0  0  0  0  0  0  0  0  0
    2.5543   -0.9406    1.0565 S   0  0  0  0  0  0  0  0  0  0  0  0
    1.3739    1.4961   -1.3614 H   0  0  0  0  0  0  0  0  0  0  0  0
   -0.2527    1.1209    1.4536 H   0  0  0  0  0  0  0  0  0  0  0  0
    2.1932    1.2496    1.8434 H   0  0  0  0  0  0  0  0  0  0  0  0
  1  2  3  0
  1  6  1  0
  2  3  1  0
  3  4  1  0
  3  8  1  0
  4  5  3  0
  5  9  1  0
  7 11  1  0
 10 11  1  0
 10 14  1  0
 11 12  1  0
 11 15  1  0
 12 13  2  0
 12 16  1  0
M  RAD  1   3   2
M  END
>  <reaction>  (6) 
rxn_1377

>  <mol_properties>  (6) 
{"1": {"label": "*4", "atom_type": "Ct"}, "2": {"label": "*3", "atom_type": "Cs"}, "6": {"label": "*2", "atom_type": "H0"}, "10": {"label": "*1", "atom_type": "Cs"}, "11": {"label": "*0", "atom_type": "CS"}}

>  <type>  (6) 
unop_2

>  <geom_source>  (6) 
Heuristics

$$$$

     RDKit          3D

 16 14  0  0  0  0  0  0  0  0999 V2000
   -0.7548   -1.6925   -2.8052 C   0  0  0  0  0  0  0  0  0  0  0  0
   -0.7548   -1.6925   -1.6097 C   0  0  0  0  0  0  0  0  0  0  0  0
   -0.7548   -1.6925   -0.1467 C   0  0  0  0  0  3  0  0  0  0  0  0
   -2.0688   -1.4169    0.4344 C   0  0  0  0  0  0  0  0  0  0  0  0
   -3.1426   -1.1917    0.9093 C   0  0  0  0  0  0  0  0  0  0  0  0
   -0.7548   -1.6925   -3.8687 H   0  0  0  0  0  0  0  0  0  0  0  0
    0.1034   -0.7981    0.2843 H   0  0  0  0  0  0  0  0  0  0  0  0
   -0.3994   -2.6624    0.2125 H   0  0  0  0  0  0  0  0  0  0  0  0
   -4.0978   -0.9914    1.3318 H   0  0  0  0  0  0  0  0  0  0  0  0
    0.4333    0.7740    2.3177 S   0  0  0  0  0  0  0  0  0  0  0  0
    0.9566    0.0912    0.7129 C   0  0  0  0  0  0  0  0  0  0  0  0
    1.7849    1.0911   -0.0185 C   0  0  0  0  0  0  0  0  0  0  0  0
    1.3803    1.7865   -1.4092 S   0  0  0  0  0  0  0  0  0  0  0  0
   -0.2944    1.7788    1.8114 H   0  0  0  0  0  0  0  0  0  0  0  0
    1.5612   -0.7821    0.9691 H   0  0  0  0  0  0  0  0  0  0  0  0
    2.7158    1.3584    0.4830 H   0  0  0  0  0  0  0  0  0  0  0  0
  1  2  3  0
  1  6  1  0
  2  3  1  0
  3  4  1  0
  3  8  1  0
  4  5  3  0
  5  9  1  0
  7 11  1  0
 10 11  1  0
 10 14  1  0
 11 12  1  0
 11 15  1  0
 12 13  2  0
 12 16  1  0
M  RAD  1   3   2
M  END
>  <reaction>  (7) 
rxn_1377

>  <mol_properties>  (7) 
{"1": {"label": "*4", "atom_type": "Ct"}, "2": {"label": "*3", "atom_type": "Cs"}, "6": {"label": "*2", "atom_type": "H0"}, "10": {"label": "*1", "atom_type": "Cs"}, "11": {"label": "*0", "atom_type": "CS"}}

>  <type>  (7) 
unop_3

>  <geom_source>  (7) 
Heuristics

$$$$

     RDKit          3D

 16 14  0  0  0  0  0  0  0  0999 V2000
   -0.7806   -0.6122   -3.2934 C   0  0  0  0  0  0  0  0  0  0  0  0
   -0.7806   -0.6122   -2.0979 C   0  0  0  0  0  0  0  0  0  0  0  0
   -0.7806   -0.6122   -0.6349 C   0  0  0  0  0  3  0  0  0  0  0  0
   -2.0946   -0.3366   -0.0537 C   0  0  0  0  0  0  0  0  0  0  0  0
   -3.1684   -0.1114    0.4212 C   0  0  0  0  0  0  0  0  0  0  0  0
   -0.7806   -0.6122   -4.3568 H   0  0  0  0  0  0  0  0  0  0  0  0
    0.0775    0.2822   -0.2038 H   0  0  0  0  0  0  0  0  0  0  0  0
   -0.4253   -1.5820   -0.2757 H   0  0  0  0  0  0  0  0  0  0  0  0
   -4.1236    0.0890    0.8437 H   0  0  0  0  0  0  0  0  0  0  0  0
    2.6122    0.7966   -0.3648 S   0  0  0  0  0  0  0  0  0  0  0  0
    0.9308    1.1716    0.2248 C   0  0  0  0  0  0  0  0  0  0  0  0
    0.7103    0.5483    1.5603 C   0  0  0  0  0  0  0  0  0  0  0  0
   -0.3569   -0.6108    1.8745 S   0  0  0  0  0  0  0  0  0  0  0  0
    2.4432   -0.5309   -0.4341 H   0  0  0  0  0  0  0  0  0  0  0  0
    0.9051    2.2606    0.3096 H   0  0  0  0  0  0  0  0  0  0  0  0
    1.3670    0.9229    2.3464 H   0  0  0  0  0  0  0  0  0  0  0  0
  1  2  3  0
  1  6  1  0
  2  3  1  0
  3  4  1  0
  3  8  1  0
  4  5  3  0
  5  9  1  0
  7 11  1  0
 10 11  1  0
 10 14  1  0
 11 12  1  0
 11 15  1  0
 12 13  2  0
 12 16  1  0
M  RAD  1   3   2
M  END
>  <reaction>  (8) 
rxn_1377

>  <mol_properties>  (8) 
{"1": {"label": "*4", "atom_type": "Ct"}, "2": {"label": "*3", "atom_type": "Cs"}, "6": {"label": "*2", "atom_type": "H0"}, "10": {"label": "*1", "atom_type": "Cs"}, "11": {"label": "*0", "atom_type": "CS"}}

>  <type>  (8) 
unop_4

>  <geom_source>  (8) 
Heuristics

$$$$

     RDKit          3D

 16 14  0  0  0  0  0  0  0  0999 V2000
   -0.3543   -1.5998   -3.0238 C   0  0  0  0  0  0  0  0  0  0  0  0
   -0.3543   -1.5998   -1.8283 C   0  0  0  0  0  0  0  0  0  0  0  0
   -0.3543   -1.5998   -0.3653 C   0  0  0  0  0  3  0  0  0  0  0  0
   -1.6684   -1.3242    0.2158 C   0  0  0  0  0  0  0  0  0  0  0  0
   -2.7421   -1.0990    0.6907 C   0  0  0  0  0  0  0  0  0  0  0  0
   -0.3543   -1.5998   -4.0873 H   0  0  0  0  0  0  0  0  0  0  0  0
    0.5038   -0.7054    0.0657 H   0  0  0  0  0  0  0  0  0  0  0  0
    0.0010   -2.5697   -0.0062 H   0  0  0  0  0  0  0  0  0  0  0  0
   -3.6973   -0.8987    1.1132 H   0  0  0  0  0  0  0  0  0  0  0  0
    1.3955    0.2240    2.3143 S   0  0  0  0  0  0  0  0  0  0  0  0
    1.3571    0.1839    0.4943 C   0  0  0  0  0  0  0  0  0  0  0  0
    1.0509    1.5421   -0.0371 C   0  0  0  0  0  0  0  0  0  0  0  0
   -0.2678    1.9343   -0.8668 S   0  0  0  0  0  0  0  0  0  0  0  0
    0.1096    0.5651    2.4737 H   0  0  0  0  0  0  0  0  0  0  0  0
    2.3673   -0.1141    0.2039 H   0  0  0  0  0  0  0  0  0  0  0  0
    1.7971    2.2996    0.2052 H   0  0  0  0  0  0  0  0  0  0  0  0
  1  2  3  0
  1  6  1  0
  2  3  1  0
  3  4  1  0
  3  8  1  0
  4  5  3  0
  5  9  1  0
  7 11  1  0
 10 11  1  0
 10 14  1  0
 11 12  1  0
 11 15  1  0
 12 13  2  0
 12 16  1  0
M  RAD  1   3   2
M  END
>  <reaction>  (9) 
rxn_1377

>  <mol_properties>  (9) 
{"1": {"label": "*4", "atom_type": "Ct"}, "2": {"label": "*3", "atom_type": "Cs"}, "6": {"label": "*2", "atom_type": "H0"}, "10": {"label": "*1", "atom_type": "Cs"}, "11": {"label": "*0", "atom_type": "CS"}}

>  <type>  (9) 
unop_5

>  <geom_source>  (9) 
Heuristics

$$$$

     RDKit          3D

 16 15  0  0  0  0  0  0  0  0999 V2000
   -0.5417   -0.7030   -3.3762 C   0  0  0  0  0  3  0  0  0  0  0  0
   -0.5417   -0.7030   -2.1807 C   0  0  0  0  0  0  0  0  0  0  0  0
   -0.5417   -0.7030   -0.7177 C   0  0  0  0  0  0  0  0  0  0  0  0
   -1.8557   -0.4274   -0.1366 C   0  0  0  0  0  0  0  0  0  0  0  0
   -2.9295   -0.2022    0.3383 C   0  0  0  0  0  3  0  0  0  0  0  0
   -0.5417   -0.7030   -4.4397 H   0  0  0  0  0  0  0  0  0  0  0  0
    0.3164    0.1914   -0.2867 H   0  0  0  0  0  0  0  0  0  0  0  0
   -0.1863   -1.6728   -0.3585 H   0  0  0  0  0  0  0  0  0  0  0  0
   -3.8847   -0.0018    0.7608 H   0  0  0  0  0  0  0  0  0  0  0  0
    2.8222    0.3465    0.3555 S   0  0  0  0  0  0  0  0  0  0  0  0
    1.1697    1.0808    0.1419 C   0  0  0  0  0  0  0  0  0  0  0  0
    0.3457    0.8395    1.3599 C   0  0  0  0  0  3  0  0  0  0  0  0
   -0.9912   -0.0502    1.4101 S   0  0  0  0  0  0  0  0  0  0  0  0
    2.4001   -0.9215    0.4528 H   0  0  0  0  0  0  0  0  0  0  0  0
    1.3571    2.1504    0.0209 H   0  0  0  0  0  0  0  0  0  0  0  0
    0.7364    1.3017    2.2672 H   0  0  0  0  0  0  0  0  0  0  0  0
  1  2  2  0
  1  6  1  0
  2  3  2  0
  3  4  1  0
  3  8  1  0
  4  5  2  3
  4 13  1  0
  5  9  1  0
  7 11  1  0
 10 11  1  0
 10 14  1  0
 11 12  1  0
 11 15  1  0
 12 13  1  0
 12 16  1  0
M  CHG  2   1   1   5  -1
M  RAD  1  12   2
M  END
>  <reaction>  (10) 
rxn_1377

>  <mol_properties>  (10) 
{"1": {"label": "*4", "atom_type": "Ct"}, "2": {"label": "*3", "atom_type": "Cs"}, "6": {"label": "*2", "atom_type": "H0"}, "10": {"label": "*1", "atom_type": "Cs"}, "11": {"label": "*0", "atom_type": "CS"}}

>  <type>  (10) 
unop_6

>  <geom_source>  (10) 
Heuristics

$$$$

     RDKit          3D

 16 15  0  0  0  0  0  0  0  0999 V2000
   -0.3328   -0.8937   -3.3856 C   0  0  0  0  0  3  0  0  0  0  0  0
   -0.3328   -0.8937   -2.1901 C   0  0  0  0  0  0  0  0  0  0  0  0
   -0.3328   -0.8937   -0.7271 C   0  0  0  0  0  0  0  0  0  0  0  0
   -1.6469   -0.6181   -0.1459 C   0  0  0  0  0  0  0  0  0  0  0  0
   -2.7206   -0.3929    0.3290 C   0  0  0  0  0  3  0  0  0  0  0  0
   -0.3328   -0.8937   -4.4491 H   0  0  0  0  0  0  0  0  0  0  0  0
    0.5253    0.0007   -0.2961 H   0  0  0  0  0  0  0  0  0  0  0  0
    0.0225   -1.8636   -0.3679 H   0  0  0  0  0  0  0  0  0  0  0  0
   -3.6758   -0.1925    0.7514 H   0  0  0  0  0  0  0  0  0  0  0  0
    2.6732    0.1119    1.1493 S   0  0  0  0  0  0  0  0  0  0  0  0
    1.3786    0.8900    0.1325 C   0  0  0  0  0  0  0  0  0  0  0  0
    0.1800    1.1779    0.9699 C   0  0  0  0  0  3  0  0  0  0  0  0
   -1.2660    0.5049    0.7764 S   0  0  0  0  0  0  0  0  0  0  0  0
    1.9727   -0.9906    1.4478 H   0  0  0  0  0  0  0  0  0  0  0  0
    1.8262    1.8237   -0.2163 H   0  0  0  0  0  0  0  0  0  0  0  0
    0.3558    1.8865    1.7800 H   0  0  0  0  0  0  0  0  0  0  0  0
  1  2  2  0
  1  6  1  0
  2  3  2  0
  3  4  1  0
  3  8  1  0
  4  5  2  3
  4 13  1  0
  5  9  1  0
  7 11  1  0
 10 11  1  0
 10 14  1  0
 11 12  1  0
 11 15  1  0
 12 13  1  0
 12 16  1  0
M  CHG  2   1   1   5  -1
M  RAD  1  12   2
M  END
>  <reaction>  (11) 
rxn_1377

>  <mol_properties>  (11) 
{"1": {"label": "*4", "atom_type": "Ct"}, "2": {"label": "*3", "atom_type": "Cs"}, "6": {"label": "*2", "atom_type": "H0"}, "10": {"label": "*1", "atom_type": "Cs"}, "11": {"label": "*0", "atom_type": "CS"}}

>  <type>  (11) 
unop_7

>  <geom_source>  (11) 
Heuristics

$$$$

     RDKit          3D

 16 14  0  0  0  0  0  0  0  0999 V2000
   -1.1614   -1.4402   -2.7435 C   0  0  0  0  0  0  0  0  0  0  0  0
   -1.1614   -1.4402   -1.5480 C   0  0  0  0  0  0  0  0  0  0  0  0
   -1.1614   -1.4402   -0.0850 C   0  0  0  0  0  3  0  0  0  0  0  0
   -2.4755   -1.1646    0.4962 C   0  0  0  0  0  0  0  0  0  0  0  0
   -3.5492   -0.9394    0.9711 C   0  0  0  0  0  0  0  0  0  0  0  0
   -1.1614   -1.4402   -3.8070 H   0  0  0  0  0  0  0  0  0  0  0  0
   -0.3033   -0.5458    0.3460 H   0  0  0  0  0  0  0  0  0  0  0  0
   -0.8061   -2.4101    0.2742 H   0  0  0  0  0  0  0  0  0  0  0  0
   -4.5044   -0.7391    1.3935 H   0  0  0  0  0  0  0  0  0  0  0  0
   -0.2521    1.9642    0.9882 S   0  0  0  0  0  0  0  0  0  0  0  0
    0.5500    0.3435    0.7746 C   0  0  0  0  0  0  0  0  0  0  0  0
    2.0307    0.5093    0.7487 C   0  0  0  0  0  0  0  0  0  0  0  0
    2.9747    0.1891   -0.5113 S   0  0  0  0  0  0  0  0  0  0  0  0
    0.1903    2.4916   -0.1614 H   0  0  0  0  0  0  0  0  0  0  0  0
    0.2515   -0.2298    1.6556 H   0  0  0  0  0  0  0  0  0  0  0  0
    2.4559    0.9067    1.6710 H   0  0  0  0  0  0  0  0  0  0  0  0
  1  2  3  0
  1  6  1  0
  2  3  1  0
  3  4  1  0
  3  8  1  0
  4  5  3  0
  5  9  1  0
  7 11  1  0
 10 11  1  0
 10 14  1  0
 11 12  1  0
 11 15  1  0
 12 13  2  0
 12 16  1  0
M  RAD  1   3   2
M  END
>  <reaction>  (12) 
rxn_1377

>  <mol_properties>  (12) 
{"1": {"label": "*4", "atom_type": "Ct"}, "2": {"label": "*3", "atom_type": "Cs"}, "6": {"label": "*2", "atom_type": "H0"}, "10": {"label": "*1", "atom_type": "Cs"}, "11": {"label": "*0", "atom_type": "CS"}}

>  <type>  (12) 
unop_8

>  <geom_source>  (12) 
Heuristics

$$$$

     RDKit          3D

 16 14  0  0  0  0  0  0  0  0999 V2000
   -1.0249   -0.6358   -3.1515 C   0  0  0  0  0  0  0  0  0  0  0  0
   -1.0249   -0.6358   -1.9560 C   0  0  0  0  0  0  0  0  0  0  0  0
   -1.0249   -0.6358   -0.4930 C   0  0  0  0  0  3  0  0  0  0  0  0
   -2.3389   -0.3602    0.0882 C   0  0  0  0  0  0  0  0  0  0  0  0
   -3.4127   -0.1350    0.5631 C   0  0  0  0  0  0  0  0  0  0  0  0
   -1.0249   -0.6358   -4.2150 H   0  0  0  0  0  0  0  0  0  0  0  0
   -0.1668    0.2586   -0.0620 H   0  0  0  0  0  0  0  0  0  0  0  0
   -0.6696   -1.6056   -0.1338 H   0  0  0  0  0  0  0  0  0  0  0  0
   -4.3679    0.0654    0.9855 H   0  0  0  0  0  0  0  0  0  0  0  0
    2.0603    1.3515   -0.8110 S   0  0  0  0  0  0  0  0  0  0  0  0
    0.6865    1.1479    0.3666 C   0  0  0  0  0  0  0  0  0  0  0  0
    1.1503    0.3874    1.5612 C   0  0  0  0  0  0  0  0  0  0  0  0
    0.6153   -1.0631    1.9985 S   0  0  0  0  0  0  0  0  0  0  0  0
    2.2253    0.0453   -1.0602 H   0  0  0  0  0  0  0  0  0  0  0  0
    0.4152    2.1671    0.6522 H   0  0  0  0  0  0  0  0  0  0  0  0
    1.9331    0.8840    2.1357 H   0  0  0  0  0  0  0  0  0  0  0  0
  1  2  3  0
  1  6  1  0
  2  3  1  0
  3  4  1  0
  3  8  1  0
  4  5  3  0
  5  9  1  0
  7 11  1  0
 10 11  1  0
 10 14  1  0
 11 12  1  0
 11 15  1  0
 12 13  2  0
 12 16  1  0
M  RAD  1   3   2
M  END
>  <reaction>  (13) 
rxn_1377

>  <mol_properties>  (13) 
{"1": {"label": "*4", "atom_type": "Ct"}, "2": {"label": "*3", "atom_type": "Cs"}, "6": {"label": "*2", "atom_type": "H0"}, "10": {"label": "*1", "atom_type": "Cs"}, "11": {"label": "*0", "atom_type": "CS"}}

>  <type>  (13) 
unop_9

>  <geom_source>  (13) 
Heuristics

$$$$

     RDKit          3D

 16 14  0  0  0  0  0  0  0  0999 V2000
   -1.2561   -1.2621   -2.7679 C   0  0  0  0  0  0  0  0  0  0  0  0
   -1.2561   -1.2621   -1.5724 C   0  0  0  0  0  0  0  0  0  0  0  0
   -1.2561   -1.2621   -0.1094 C   0  0  0  0  0  3  0  0  0  0  0  0
   -2.5701   -0.9865    0.4718 C   0  0  0  0  0  0  0  0  0  0  0  0
   -3.6439   -0.7613    0.9467 C   0  0  0  0  0  0  0  0  0  0  0  0
   -1.2561   -1.2621   -3.8314 H   0  0  0  0  0  0  0  0  0  0  0  0
   -0.3980   -0.3677    0.3217 H   0  0  0  0  0  0  0  0  0  0  0  0
   -0.9008   -2.2319    0.2498 H   0  0  0  0  0  0  0  0  0  0  0  0
   -4.5991   -0.5609    1.3691 H   0  0  0  0  0  0  0  0  0  0  0  0
    0.0111    2.1861    0.1606 S   0  0  0  0  0  0  0  0  0  0  0  0
    0.4553    0.5217    0.7503 C   0  0  0  0  0  0  0  0  0  0  0  0
    1.9133    0.4626    1.0527 C   0  0  0  0  0  0  0  0  0  0  0  0
    2.9813   -0.4548    0.2788 S   0  0  0  0  0  0  0  0  0  0  0  0
    0.7684    2.1498   -0.9441 H   0  0  0  0  0  0  0  0  0  0  0  0
   -0.1242    0.3904    1.6672 H   0  0  0  0  0  0  0  0  0  0  0  0
    2.2354    1.1318    1.8513 H   0  0  0  0  0  0  0  0  0  0  0  0
  1  2  3  0
  1  6  1  0
  2  3  1  0
  3  4  1  0
  3  8  1  0
  4  5  3  0
  5  9  1  0
  7 11  1  0
 10 11  1  0
 10 14  1  0
 11 12  1  0
 11 15  1  0
 12 13  2  0
 12 16  1  0
M  RAD  1   3   2
M  END
>  <reaction>  (14) 
rxn_1377

>  <mol_properties>  (14) 
{"1": {"label": "*4", "atom_type": "Ct"}, "2": {"label": "*3", "atom_type": "Cs"}, "6": {"label": "*2", "atom_type": "H0"}, "10": {"label": "*1", "atom_type": "Cs"}, "11": {"label": "*0", "atom_type": "CS"}}

>  <type>  (14) 
unop_10

>  <geom_source>  (14) 
Heuristics

$$$$

     RDKit          3D

 16 15  0  0  0  0  0  0  0  0999 V2000
   -0.2039   -1.2095   -3.2858 C   0  0  0  0  0  3  0  0  0  0  0  0
   -0.2039   -1.2095   -2.0903 C   0  0  0  0  0  0  0  0  0  0  0  0
   -0.2039   -1.2095   -0.6273 C   0  0  0  0  0  0  0  0  0  0  0  0
   -1.5180   -0.9339   -0.0461 C   0  0  0  0  0  0  0  0  0  0  0  0
   -2.5917   -0.7087    0.4288 C   0  0  0  0  0  3  0  0  0  0  0  0
   -0.2039   -1.2095   -4.3492 H   0  0  0  0  0  0  0  0  0  0  0  0
    0.6542   -0.3151   -0.1962 H   0  0  0  0  0  0  0  0  0  0  0  0
    0.1514   -2.1794   -0.2681 H   0  0  0  0  0  0  0  0  0  0  0  0
   -3.5469   -0.5084    0.8513 H   0  0  0  0  0  0  0  0  0  0  0  0
    2.2114    0.0796    1.8371 S   0  0  0  0  0  0  0  0  0  0  0  0
    1.5075    0.5742    0.2324 C   0  0  0  0  0  0  0  0  0  0  0  0
    0.3511    1.4897    0.4457 C   0  0  0  0  0  3  0  0  0  0  0  0
   -1.1715    1.1632    0.0501 S   0  0  0  0  0  0  0  0  0  0  0  0
    1.1191   -0.5593    2.2779 H   0  0  0  0  0  0  0  0  0  0  0  0
    2.3184    1.1047   -0.2724 H   0  0  0  0  0  0  0  0  0  0  0  0
    0.6054    2.4302    0.9357 H   0  0  0  0  0  0  0  0  0  0  0  0
  1  2  2  0
  1  6  1  0
  2  3  2  0
  3  4  1  0
  3  8  1  0
  4  5  2  3
  4 13  1  0
  5  9  1  0
  7 11  1  0
 10 11  1  0
 10 14  1  0
 11 12  1  0
 11 15  1  0
 12 13  1  0
 12 16  1  0
M  CHG  2   1   1   5  -1
M  RAD  1  12   2
M  END
>  <reaction>  (15) 
rxn_1377

>  <mol_properties>  (15) 
{"1": {"label": "*4", "atom_type": "Ct"}, "2": {"label": "*3", "atom_type": "Cs"}, "6": {"label": "*2", "atom_type": "H0"}, "10": {"label": "*1", "atom_type": "Cs"}, "11": {"label": "*0", "atom_type": "CS"}}

>  <type>  (15) 
unop_11

>  <geom_source>  (15) 
Heuristics

$$$$

     RDKit          3D

 16 14  0  0  0  0  0  0  0  0999 V2000
   -1.2172   -0.7927   -2.9808 C   0  0  0  0  0  0  0  0  0  0  0  0
   -1.2172   -0.7927   -1.7853 C   0  0  0  0  0  0  0  0  0  0  0  0
   -1.2172   -0.7927   -0.3223 C   0  0  0  0  0  3  0  0  0  0  0  0
   -2.5312   -0.5171    0.2589 C   0  0  0  0  0  0  0  0  0  0  0  0
   -3.6049   -0.2919    0.7338 C   0  0  0  0  0  0  0  0  0  0  0  0
   -1.2172   -0.7927   -4.0443 H   0  0  0  0  0  0  0  0  0  0  0  0
   -0.3590    0.1016    0.1088 H   0  0  0  0  0  0  0  0  0  0  0  0
   -0.8618   -1.7626    0.0369 H   0  0  0  0  0  0  0  0  0  0  0  0
   -4.5601   -0.0916    1.1562 H   0  0  0  0  0  0  0  0  0  0  0  0
    1.3062    1.8373   -0.8555 S   0  0  0  0  0  0  0  0  0  0  0  0
    0.4942    0.9910    0.5374 C   0  0  0  0  0  0  0  0  0  0  0  0
    1.5209    0.3838    1.4306 C   0  0  0  0  0  0  0  0  0  0  0  0
    1.7050   -1.1910    1.6905 S   0  0  0  0  0  0  0  0  0  0  0  0
    1.8649    0.7382   -1.3802 H   0  0  0  0  0  0  0  0  0  0  0  0
   -0.0425    1.7826    1.0656 H   0  0  0  0  0  0  0  0  0  0  0  0
    2.1922    1.1037    1.9003 H   0  0  0  0  0  0  0  0  0  0  0  0
  1  2  3  0
  1  6  1  0
  2  3  1  0
  3  4  1  0
  3  8  1  0
  4  5  3  0
  5  9  1  0
  7 11  1  0
 10 11  1  0
 10 14  1  0
 11 12  1  0
 11 15  1  0
 12 13  2  0
 12 16  1  0
M  RAD  1   3   2
M  END
>  <reaction>  (16) 
rxn_1377

>  <mol_properties>  (16) 
{"1": {"label": "*4", "atom_type": "Ct"}, "2": {"label": "*3", "atom_type": "Cs"}, "6": {"label": "*2", "atom_type": "H0"}, "10": {"label": "*1", "atom_type": "Cs"}, "11": {"label": "*0", "atom_type": "CS"}}

>  <type>  (16) 
unop_12

>  <geom_source>  (16) 
Heuristics

$$$$

     RDKit          3D

 16 14  0  0  0  0  0  0  0  0999 V2000
    2.3822   -1.0451    1.5237 S   0  0  0  0  0  0  0  0  0  0  0  0
    3.6131    0.5667   -1.2046 S   0  0  0  0  0  0  0  0  0  0  0  0
    1.5737   -0.3165    0.0648 C   0  0  0  0  0  0  0  0  0  0  0  0
    2.3932    0.8128   -0.4851 C   0  0  0  0  0  0  0  0  0  0  0  0
   -0.9934    0.1104    0.4495 C   0  0  0  0  0  3  0  0  0  0  0  0
   -1.7601    1.3192    0.1417 C   0  0  0  0  0  0  0  0  0  0  0  0
   -1.5474   -1.0278   -0.2865 C   0  0  0  0  0  0  0  0  0  0  0  0
   -2.3901    2.3158   -0.1106 C   0  0  0  0  0  0  0  0  0  0  0  0
   -2.0020   -1.9661   -0.8919 C   0  0  0  0  0  0  0  0  0  0  0  0
    1.4144   -1.0990   -0.7086 H   0  0  0  0  0  0  0  0  0  0  0  0
    0.3716    0.1594    0.4384 H   0  0  0  0  0  0  0  0  0  0  0  0
    2.0016    1.8232   -0.4376 H   0  0  0  0  0  0  0  0  0  0  0  0
   -1.0444   -0.0930    1.5391 H   0  0  0  0  0  0  0  0  0  0  0  0
    1.3321   -1.9609    1.7233 H   0  0  0  0  0  0  0  0  0  0  0  0
   -2.9433    3.1904   -0.3322 H   0  0  0  0  0  0  0  0  0  0  0  0
   -2.4012   -2.7897   -1.4233 H   0  0  0  0  0  0  0  0  0  0  0  0
  1  3  1  0
  1 14  1  0
  2  4  2  0
  3  4  1  0
  3 10  1  0
  3 11  1  0
  4 12  1  0
  5  6  1  0
  5  7  1  0
  5 13  1  0
  6  8  3  0
  7  9  3  0
  8 15  1  0
  9 16  1  0
M  RAD  1   5   2
M  END
>  <reaction>  (17) 
rxn_1377

>  <mol_properties>  (17) 
{"1": {"label": "*4", "atom_type": "Ct"}, "2": {"label": "*3", "atom_type": "Cs"}, "6": {"label": "*2", "atom_type": "H0"}, "10": {"label": "*1", "atom_type": "Cs"}, "11": {"label": "*0", "atom_type": "CS"}}

>  <type>  (17) 
unop_13

>  <geom_source>  (17) 
AutoTST

$$$$
