
     RDKit          3D

 10  9  0  0  0  0  0  0  0  0999 V2000
    1.8334    0.0847   -0.1062 C   0  0  0  0  0  0  0  0  0  0  0  0
    0.5993   -0.4071   -0.0750 C   0  0  0  0  0  0  0  0  0  0  0  0
   -0.5993    0.4071    0.0750 C   0  0  0  0  0  0  0  0  0  0  0  0
   -1.8334   -0.0847    0.1062 C   0  0  0  0  0  0  0  0  0  0  0  0
    2.0179    1.1498   -0.0189 H   0  0  0  0  0  0  0  0  0  0  0  0
    2.6972   -0.5572   -0.2194 H   0  0  0  0  0  0  0  0  0  0  0  0
    0.4465   -1.4793   -0.1649 H   0  0  0  0  0  0  0  0  0  0  0  0
   -0.4465    1.4793    0.1649 H   0  0  0  0  0  0  0  0  0  0  0  0
   -2.0179   -1.1498    0.0189 H   0  0  0  0  0  0  0  0  0  0  0  0
   -2.6972    0.5572    0.2194 H   0  0  0  0  0  0  0  0  0  0  0  0
  1  2  2  3
  1  5  1  0
  1  6  1  0
  2  3  1  0
  2  7  1  0
  3  4  2  3
  3  8  1  0
  4  9  1  0
  4 10  1  0
M  END
>  <reaction>  (1) 
rxn_1671

>  <mol_properties>  (1) 
{"2": {"label": "donator", "atom_type": "Cd"}, "7": {"label": "d_hydrogen", "atom_type": "H0"}}

>  <type>  (1) 
r1h

$$$$

     RDKit          3D

  6  5  0  0  0  0  0  0  0  0999 V2000
   -0.7309   -0.0987    0.0327 C   0  0  0  0  0  0  0  0  0  0  0  0
    0.6208    0.0065   -0.0096 C   0  0  0  0  0  0  0  0  0  0  0  0
    1.6572   -1.2972    0.2837 S   0  0  0  0  0  1  0  0  0  0  0  0
   -1.3651    0.7588   -0.1608 H   0  0  0  0  0  0  0  0  0  0  0  0
   -1.2044   -1.0453    0.2616 H   0  0  0  0  0  0  0  0  0  0  0  0
    1.0609    0.9725   -0.2426 H   0  0  0  0  0  0  0  0  0  0  0  0
  1  2  2  3
  1  4  1  0
  1  5  1  0
  2  3  1  0
  2  6  1  0
M  RAD  1   3   2
M  END
>  <reaction>  (2) 
rxn_1671

>  <mol_properties>  (2) 
{"0": {"label": "acceptor", "atom_type": "Cs"}}

>  <type>  (2) 
r2

$$$$

     RDKit          3D

  7  6  0  0  0  0  0  0  0  0999 V2000
   -0.6782    0.0507    0.0301 C   0  0  0  0  0  0  0  0  0  0  0  0
    0.8092    0.0996    0.0213 C   0  0  0  0  0  0  0  0  0  0  0  0
    1.7473    0.7521    1.1507 S   0  0  0  0  0  0  0  0  0  0  0  0
   -1.0667    0.5456   -0.8653 H   0  0  0  0  0  0  0  0  0  0  0  0
   -1.0112   -0.9904   -0.0239 H   0  0  0  0  0  0  0  0  0  0  0  0
   -1.0920    0.5225    0.9188 H   0  0  0  0  0  0  0  0  0  0  0  0
    1.2740   -0.3620   -0.8520 H   0  0  0  0  0  0  0  0  0  0  0  0
  1  2  1  0
  1  4  1  0
  1  5  1  0
  1  6  1  0
  2  3  2  0
  2  7  1  0
M  END
>  <reaction>  (3) 
rxn_1671

>  <mol_properties>  (3) 
{"0": {"label": "a_hydrogen", "atom_type": "H0"}, "1": {"label": "acceptor", "atom_type": "Cs"}}

>  <type>  (3) 
r2h

$$$$

     RDKit          3D

 16 14  0  0  0  0  0  0  0  0999 V2000
    0.6045   -2.2872   -0.3857 C   0  0  0  0  0  0  0  0  0  0  0  0
    0.3991   -2.3150    0.9271 C   0  0  0  0  0  0  0  0  0  0  0  0
    0.0846   -1.1676    1.7397 C   0  0  0  0  0  3  0  0  0  0  0  0
   -0.2078   -0.9988    3.0096 C   0  0  0  0  0  0  0  0  0  0  0  0
    0.5408   -1.3682   -0.9573 H   0  0  0  0  0  0  0  0  0  0  0  0
    0.8351   -3.1938   -0.9291 H   0  0  0  0  0  0  0  0  0  0  0  0
    0.4663   -3.2611    1.4645 H   0  0  0  0  0  0  0  0  0  0  0  0
    0.0957    0.1303    0.9621 H   0  0  0  0  0  0  0  0  0  0  0  0
   -0.2640   -1.8457    3.6914 H   0  0  0  0  0  0  0  0  0  0  0  0
   -0.4064   -0.0188    3.4282 H   0  0  0  0  0  0  0  0  0  0  0  0
    0.2325    1.2152    0.4101 C   0  0  0  0  0  0  0  0  0  0  0  0
   -0.8920    1.3791   -0.4981 C   0  0  0  0  0  0  0  0  0  0  0  0
   -0.8954    1.0138   -2.0775 S   0  0  0  0  0  0  0  0  0  0  0  0
    0.2378    1.9105    1.2491 H   0  0  0  0  0  0  0  0  0  0  0  0
    1.1990    1.1363   -0.0817 H   0  0  0  0  0  0  0  0  0  0  0  0
   -1.8140    1.7395   -0.0405 H   0  0  0  0  0  0  0  0  0  0  0  0
  1  2  2  3
  1  5  1  0
  1  6  1  0
  2  3  1  0
  2  7  1  0
  3  4  2  3
  4  9  1  0
  4 10  1  0
  8 11  1  0
 11 12  1  0
 11 14  1  0
 11 15  1  0
 12 13  2  0
 12 16  1  0
M  RAD  1   3   2
M  END
>  <reaction>  (4) 
rxn_1671

>  <mol_properties>  (4) 
{"1": {"label": "*4", "atom_type": "Cd"}, "2": {"label": "*3", "atom_type": "Cd"}, "7": {"label": "*2", "atom_type": "H0"}, "10": {"label": "*1", "atom_type": "Cs"}, "11": {"label": "*0", "atom_type": "CS"}}

>  <type>  (4) 
ts

$$$$

     RDKit          3D

 16 14  0  0  0  0  0  0  0  0999 V2000
    0.6566   -2.7637   -1.1895 C   0  0  0  0  0  0  0  0  0  0  0  0
    0.6566   -2.7637    0.1393 C   0  0  0  0  0  0  0  0  0  0  0  0
    0.6566   -1.5564    0.9546 C   0  0  0  0  0  0  0  0  0  0  0  0
    0.6566   -1.5564    2.2835 C   0  0  0  0  0  0  0  0  0  0  0  0
    0.6566   -1.8371   -1.7530 H   0  0  0  0  0  0  0  0  0  0  0  0
    0.6566   -3.6853   -1.7567 H   0  0  0  0  0  0  0  0  0  0  0  0
    0.6566   -3.7087    0.6760 H   0  0  0  0  0  0  0  0  0  0  0  0
    0.6566   -0.4225    0.3107 H   0  0  0  0  0  0  0  0  0  0  0  0
    0.6566   -2.4830    2.8470 H   0  0  0  0  0  0  0  0  0  0  0  0
    0.6566   -0.6349    2.8507 H   0  0  0  0  0  0  0  0  0  0  0  0
    0.6566    0.7195   -0.3378 C   0  0  0  0  0  0  0  0  0  0  0  0
   -0.5577    1.4994    0.0255 C   0  0  0  0  0  0  0  0  0  0  0  0
   -1.1928    2.7167   -0.8089 S   0  0  0  0  0  1  0  0  0  0  0  0
    1.3935    0.7915    0.4681 H   0  0  0  0  0  0  0  0  0  0  0  0
    1.0965    1.0690   -1.2694 H   0  0  0  0  0  0  0  0  0  0  0  0
   -1.0375    1.1866    0.9549 H   0  0  0  0  0  0  0  0  0  0  0  0
  1  2  2  3
  1  5  1  0
  1  6  1  0
  2  3  1  0
  2  7  1  0
  3  4  2  3
  3  8  1  0
  4  9  1  0
  4 10  1  0
 11 12  2  3
 11 14  1  0
 11 15  1  0
 12 13  1  0
 12 16  1  0
M  RAD  1  13   2
M  END
>  <reaction>  (5) 
rxn_1671

>  <mol_properties>  (5) 
{"1": {"label": "*4", "atom_type": "Cd"}, "2": {"label": "*3", "atom_type": "Cd"}, "7": {"label": "*2", "atom_type": "H0"}, "10": {"label": "*1", "atom_type": "Cs"}, "11": {"label": "*0", "atom_type": "CS"}}

>  <type>  (5) 
unop_1

>  <geom_source>  (5) 
Heuristics

$$$$

     RDKit          3D

 16 14  0  0  0  0  0  0  0  0999 V2000
    0.1612   -2.2275   -0.3640 C   0  0  0  0  0  0  0  0  0  0  0  0
    0.1612   -2.2275    0.9649 C   0  0  0  0  0  0  0  0  0  0  0  0
    0.1612   -1.0202    1.7802 C   0  0  0  0  0  0  0  0  0  0  0  0
    0.1612   -1.0202    3.1091 C   0  0  0  0  0  0  0  0  0  0  0  0
    0.1612   -1.3009   -0.9275 H   0  0  0  0  0  0  0  0  0  0  0  0
    0.1612   -3.1490   -0.9312 H   0  0  0  0  0  0  0  0  0  0  0  0
    0.1612   -3.1724    1.5015 H   0  0  0  0  0  0  0  0  0  0  0  0
    0.1612    0.1138    1.1362 H   0  0  0  0  0  0  0  0  0  0  0  0
    0.1612   -1.9468    3.6725 H   0  0  0  0  0  0  0  0  0  0  0  0
    0.1612   -0.0986    3.6762 H   0  0  0  0  0  0  0  0  0  0  0  0
    0.1612    1.2557    0.4877 C   0  0  0  0  0  0  0  0  0  0  0  0
   -0.5399    1.0898   -0.8144 C   0  0  0  0  0  0  0  0  0  0  0  0
   -0.1015    1.7313   -2.2207 S   0  0  0  0  0  1  0  0  0  0  0  0
   -0.5250    1.6908    1.2209 H   0  0  0  0  0  0  0  0  0  0  0  0
    1.0439    1.8846    0.3932 H   0  0  0  0  0  0  0  0  0  0  0  0
   -1.4345    0.4655   -0.7727 H   0  0  0  0  0  0  0  0  0  0  0  0
  1  2  2  3
  1  5  1  0
  1  6  1  0
  2  3  1  0
  2  7  1  0
  3  4  2  3
  3  8  1  0
  4  9  1  0
  4 10  1  0
 11 12  2  3
 11 14  1  0
 11 15  1  0
 12 13  1  0
 12 16  1  0
M  RAD  1  13   2
M  END
>  <reaction>  (6) 
rxn_1671

>  <mol_properties>  (6) 
{"1": {"label": "*4", "atom_type": "Cd"}, "2": {"label": "*3", "atom_type": "Cd"}, "7": {"label": "*2", "atom_type": "H0"}, "10": {"label": "*1", "atom_type": "Cs"}, "11": {"label": "*0", "atom_type": "CS"}}

>  <type>  (6) 
unop_2

>  <geom_source>  (6) 
Heuristics

$$$$

     RDKit          3D

 16 14  0  0  0  0  0  0  0  0999 V2000
    0.5039   -2.8744   -1.4380 C   0  0  0  0  0  0  0  0  0  0  0  0
    0.5039   -2.8744   -0.1091 C   0  0  0  0  0  0  0  0  0  0  0  0
    0.5039   -1.6671    0.7062 C   0  0  0  0  0  0  0  0  0  0  0  0
    0.5039   -1.6671    2.0351 C   0  0  0  0  0  0  0  0  0  0  0  0
    0.5039   -1.9478   -2.0014 H   0  0  0  0  0  0  0  0  0  0  0  0
    0.5039   -3.7959   -2.0051 H   0  0  0  0  0  0  0  0  0  0  0  0
    0.5039   -3.8193    0.4275 H   0  0  0  0  0  0  0  0  0  0  0  0
    0.5039   -0.5331    0.0623 H   0  0  0  0  0  0  0  0  0  0  0  0
    0.5039   -2.5937    2.5986 H   0  0  0  0  0  0  0  0  0  0  0  0
    0.5039   -0.7455    2.6023 H   0  0  0  0  0  0  0  0  0  0  0  0
    0.5039    0.6088   -0.5862 C   0  0  0  0  0  0  0  0  0  0  0  0
   -0.1972    1.6421    0.2234 C   0  0  0  0  0  0  0  0  0  0  0  0
   -1.0250    2.8968   -0.3441 S   0  0  0  0  0  1  0  0  0  0  0  0
    1.5649    0.5908   -0.3186 H   0  0  0  0  0  0  0  0  0  0  0  0
    0.3978    0.7921   -1.6534 H   0  0  0  0  0  0  0  0  0  0  0  0
   -0.1204    1.5026    1.3033 H   0  0  0  0  0  0  0  0  0  0  0  0
  1  2  2  3
  1  5  1  0
  1  6  1  0
  2  3  1  0
  2  7  1  0
  3  4  2  3
  3  8  1  0
  4  9  1  0
  4 10  1  0
 11 12  2  3
 11 14  1  0
 11 15  1  0
 12 13  1  0
 12 16  1  0
M  RAD  1  13   2
M  END
>  <reaction>  (7) 
rxn_1671

>  <mol_properties>  (7) 
{"1": {"label": "*4", "atom_type": "Cd"}, "2": {"label": "*3", "atom_type": "Cd"}, "7": {"label": "*2", "atom_type": "H0"}, "10": {"label": "*1", "atom_type": "Cs"}, "11": {"label": "*0", "atom_type": "CS"}}

>  <type>  (7) 
unop_3

>  <geom_source>  (7) 
Heuristics

$$$$

     RDKit          3D

 16 14  0  0  0  0  0  0  0  0999 V2000
   -0.8787   -2.3211   -1.0491 C   0  0  0  0  0  0  0  0  0  0  0  0
   -0.8787   -2.3211    0.2797 C   0  0  0  0  0  0  0  0  0  0  0  0
   -0.8787   -1.1138    1.0950 C   0  0  0  0  0  0  0  0  0  0  0  0
   -0.8787   -1.1138    2.4239 C   0  0  0  0  0  0  0  0  0  0  0  0
   -0.8787   -1.3945   -1.6126 H   0  0  0  0  0  0  0  0  0  0  0  0
   -0.8787   -3.2427   -1.6163 H   0  0  0  0  0  0  0  0  0  0  0  0
   -0.8787   -3.2661    0.8164 H   0  0  0  0  0  0  0  0  0  0  0  0
   -0.8787    0.0201    0.4511 H   0  0  0  0  0  0  0  0  0  0  0  0
   -0.8787   -2.0404    2.9874 H   0  0  0  0  0  0  0  0  0  0  0  0
   -0.8787   -0.1923    2.9911 H   0  0  0  0  0  0  0  0  0  0  0  0
   -0.8787    1.1621   -0.1974 C   0  0  0  0  0  0  0  0  0  0  0  0
    0.3355    1.2496   -1.0533 C   0  0  0  0  0  0  0  0  0  0  0  0
    1.7585    1.8623   -0.6279 S   0  0  0  0  0  1  0  0  0  0  0  0
   -1.7049    1.6958   -0.6772 H   0  0  0  0  0  0  0  0  0  0  0  0
   -0.7034    1.5732    0.7945 H   0  0  0  0  0  0  0  0  0  0  0  0
    0.2109    0.8492   -2.0612 H   0  0  0  0  0  0  0  0  0  0  0  0
  1  2  2  3
  1  5  1  0
  1  6  1  0
  2  3  1  0
  2  7  1  0
  3  4  2  3
  3  8  1  0
  4  9  1  0
  4 10  1  0
 11 12  2  3
 11 14  1  0
 11 15  1  0
 12 13  1  0
 12 16  1  0
M  RAD  1  13   2
M  END
>  <reaction>  (8) 
rxn_1671

>  <mol_properties>  (8) 
{"1": {"label": "*4", "atom_type": "Cd"}, "2": {"label": "*3", "atom_type": "Cd"}, "7": {"label": "*2", "atom_type": "H0"}, "10": {"label": "*1", "atom_type": "Cs"}, "11": {"label": "*0", "atom_type": "CS"}}

>  <type>  (8) 
unop_4

>  <geom_source>  (8) 
Heuristics

$$$$

     RDKit          3D

 16 14  0  0  0  0  0  0  0  0999 V2000
    0.3029   -2.8868   -1.6861 C   0  0  0  0  0  0  0  0  0  0  0  0
    0.3029   -2.8868   -0.3572 C   0  0  0  0  0  0  0  0  0  0  0  0
    0.3029   -1.6795    0.4581 C   0  0  0  0  0  0  0  0  0  0  0  0
    0.3029   -1.6795    1.7870 C   0  0  0  0  0  0  0  0  0  0  0  0
    0.3029   -1.9602   -2.2495 H   0  0  0  0  0  0  0  0  0  0  0  0
    0.3029   -3.8083   -2.2533 H   0  0  0  0  0  0  0  0  0  0  0  0
    0.3029   -3.8317    0.1794 H   0  0  0  0  0  0  0  0  0  0  0  0
    0.3029   -0.5455   -0.1858 H   0  0  0  0  0  0  0  0  0  0  0  0
    0.3029   -2.6061    2.3504 H   0  0  0  0  0  0  0  0  0  0  0  0
    0.3029   -0.7579    2.3542 H   0  0  0  0  0  0  0  0  0  0  0  0
    0.3029    0.5964   -0.8343 C   0  0  0  0  0  0  0  0  0  0  0  0
    0.3029    1.7225    0.1386 C   0  0  0  0  0  0  0  0  0  0  0  0
   -0.7966    2.8892    0.2451 S   0  0  0  0  0  1  0  0  0  0  0  0
    1.2267    0.6182   -1.4206 H   0  0  0  0  0  0  0  0  0  0  0  0
   -0.5557    0.6396   -1.5011 H   0  0  0  0  0  0  0  0  0  0  0  0
    1.1463    1.7243    0.8317 H   0  0  0  0  0  0  0  0  0  0  0  0
  1  2  2  3
  1  5  1  0
  1  6  1  0
  2  3  1  0
  2  7  1  0
  3  4  2  3
  3  8  1  0
  4  9  1  0
  4 10  1  0
 11 12  2  3
 11 14  1  0
 11 15  1  0
 12 13  1  0
 12 16  1  0
M  RAD  1  13   2
M  END
>  <reaction>  (9) 
rxn_1671

>  <mol_properties>  (9) 
{"1": {"label": "*4", "atom_type": "Cd"}, "2": {"label": "*3", "atom_type": "Cd"}, "7": {"label": "*2", "atom_type": "H0"}, "10": {"label": "*1", "atom_type": "Cs"}, "11": {"label": "*0", "atom_type": "CS"}}

>  <type>  (9) 
unop_5

>  <geom_source>  (9) 
Heuristics

$$$$

     RDKit          3D

 16 14  0  0  0  0  0  0  0  0999 V2000
   -0.8215   -2.5055   -1.4615 C   0  0  0  0  0  0  0  0  0  0  0  0
   -0.8215   -2.5055   -0.1326 C   0  0  0  0  0  0  0  0  0  0  0  0
   -0.8215   -1.2982    0.6827 C   0  0  0  0  0  0  0  0  0  0  0  0
   -0.8215   -1.2982    2.0116 C   0  0  0  0  0  0  0  0  0  0  0  0
   -0.8215   -1.5789   -2.0250 H   0  0  0  0  0  0  0  0  0  0  0  0
   -0.8215   -3.4271   -2.0287 H   0  0  0  0  0  0  0  0  0  0  0  0
   -0.8215   -3.4505    0.4040 H   0  0  0  0  0  0  0  0  0  0  0  0
   -0.8215   -0.1643    0.0387 H   0  0  0  0  0  0  0  0  0  0  0  0
   -0.8215   -2.2248    2.5750 H   0  0  0  0  0  0  0  0  0  0  0  0
   -0.8215   -0.3767    2.5787 H   0  0  0  0  0  0  0  0  0  0  0  0
   -0.8215    0.9777   -0.6098 C   0  0  0  0  0  0  0  0  0  0  0  0
    0.5806    1.4114   -0.8561 C   0  0  0  0  0  0  0  0  0  0  0  0
    1.5318    2.1914    0.1775 S   0  0  0  0  0  1  0  0  0  0  0  0
   -1.4810    1.4256   -1.3595 H   0  0  0  0  0  0  0  0  0  0  0  0
   -1.1594    1.2526    0.3872 H   0  0  0  0  0  0  0  0  0  0  0  0
    0.9675    1.1584   -1.8450 H   0  0  0  0  0  0  0  0  0  0  0  0
  1  2  2  3
  1  5  1  0
  1  6  1  0
  2  3  1  0
  2  7  1  0
  3  4  2  3
  3  8  1  0
  4  9  1  0
  4 10  1  0
 11 12  2  3
 11 14  1  0
 11 15  1  0
 12 13  1  0
 12 16  1  0
M  RAD  1  13   2
M  END
>  <reaction>  (10) 
rxn_1671

>  <mol_properties>  (10) 
{"1": {"label": "*4", "atom_type": "Cd"}, "2": {"label": "*3", "atom_type": "Cd"}, "7": {"label": "*2", "atom_type": "H0"}, "10": {"label": "*1", "atom_type": "Cs"}, "11": {"label": "*0", "atom_type": "CS"}}

>  <type>  (10) 
unop_6

>  <geom_source>  (10) 
Heuristics

$$$$

     RDKit          3D

 16 14  0  0  0  0  0  0  0  0999 V2000
   -0.5318   -2.6844   -1.7769 C   0  0  0  0  0  0  0  0  0  0  0  0
   -0.5318   -2.6844   -0.4481 C   0  0  0  0  0  0  0  0  0  0  0  0
   -0.5318   -1.4770    0.3672 C   0  0  0  0  0  0  0  0  0  0  0  0
   -0.5318   -1.4770    1.6961 C   0  0  0  0  0  0  0  0  0  0  0  0
   -0.5318   -1.7578   -2.3404 H   0  0  0  0  0  0  0  0  0  0  0  0
   -0.5318   -3.6059   -2.3441 H   0  0  0  0  0  0  0  0  0  0  0  0
   -0.5318   -3.6293    0.0885 H   0  0  0  0  0  0  0  0  0  0  0  0
   -0.5318   -0.3431   -0.2767 H   0  0  0  0  0  0  0  0  0  0  0  0
   -0.5318   -2.4036    2.2596 H   0  0  0  0  0  0  0  0  0  0  0  0
   -0.5318   -0.5555    2.2633 H   0  0  0  0  0  0  0  0  0  0  0  0
   -0.5318    0.7989   -0.9252 C   0  0  0  0  0  0  0  0  0  0  0  0
    0.6825    1.5787   -0.5619 C   0  0  0  0  0  0  0  0  0  0  0  0
    0.8646    2.5079    0.7361 S   0  0  0  0  0  1  0  0  0  0  0  0
   -0.8881    1.1130   -1.9111 H   0  0  0  0  0  0  0  0  0  0  0  0
   -1.3255    0.9233   -0.1916 H   0  0  0  0  0  0  0  0  0  0  0  0
    1.5097    1.4871   -1.2683 H   0  0  0  0  0  0  0  0  0  0  0  0
  1  2  2  3
  1  5  1  0
  1  6  1  0
  2  3  1  0
  2  7  1  0
  3  4  2  3
  3  8  1  0
  4  9  1  0
  4 10  1  0
 11 12  2  3
 11 14  1  0
 11 15  1  0
 12 13  1  0
 12 16  1  0
M  RAD  1  13   2
M  END
>  <reaction>  (11) 
rxn_1671

>  <mol_properties>  (11) 
{"1": {"label": "*4", "atom_type": "Cd"}, "2": {"label": "*3", "atom_type": "Cd"}, "7": {"label": "*2", "atom_type": "H0"}, "10": {"label": "*1", "atom_type": "Cs"}, "11": {"label": "*0", "atom_type": "CS"}}

>  <type>  (11) 
unop_7

>  <geom_source>  (11) 
Heuristics

$$$$

     RDKit          3D

 16 14  0  0  0  0  0  0  0  0999 V2000
    0.6939   -2.5848   -0.8747 C   0  0  0  0  0  0  0  0  0  0  0  0
    0.6939   -2.5848    0.4542 C   0  0  0  0  0  0  0  0  0  0  0  0
    0.6939   -1.3775    1.2695 C   0  0  0  0  0  0  0  0  0  0  0  0
    0.6939   -1.3775    2.5984 C   0  0  0  0  0  0  0  0  0  0  0  0
    0.6939   -1.6582   -1.4382 H   0  0  0  0  0  0  0  0  0  0  0  0
    0.6939   -3.5064   -1.4419 H   0  0  0  0  0  0  0  0  0  0  0  0
    0.6939   -3.5298    0.9908 H   0  0  0  0  0  0  0  0  0  0  0  0
    0.6939   -0.2436    0.6255 H   0  0  0  0  0  0  0  0  0  0  0  0
    0.6939   -2.3041    3.1618 H   0  0  0  0  0  0  0  0  0  0  0  0
    0.6939   -0.4560    3.1655 H   0  0  0  0  0  0  0  0  0  0  0  0
    0.6939    0.8984   -0.0230 C   0  0  0  0  0  0  0  0  0  0  0  0
   -0.7082    1.3321   -0.2693 C   0  0  0  0  0  0  0  0  0  0  0  0
   -1.1962    2.4000   -1.3660 S   0  0  0  0  0  1  0  0  0  0  0  0
    0.9642    1.1044    1.0173 H   0  0  0  0  0  0  0  0  0  0  0  0
    1.3936    1.3981   -0.6896 H   0  0  0  0  0  0  0  0  0  0  0  0
   -1.4505    0.8582    0.3759 H   0  0  0  0  0  0  0  0  0  0  0  0
  1  2  2  3
  1  5  1  0
  1  6  1  0
  2  3  1  0
  2  7  1  0
  3  4  2  3
  3  8  1  0
  4  9  1  0
  4 10  1  0
 11 12  2  3
 11 14  1  0
 11 15  1  0
 12 13  1  0
 12 16  1  0
M  RAD  1  13   2
M  END
>  <reaction>  (12) 
rxn_1671

>  <mol_properties>  (12) 
{"1": {"label": "*4", "atom_type": "Cd"}, "2": {"label": "*3", "atom_type": "Cd"}, "7": {"label": "*2", "atom_type": "H0"}, "10": {"label": "*1", "atom_type": "Cs"}, "11": {"label": "*0", "atom_type": "CS"}}

>  <type>  (12) 
unop_8

>  <geom_source>  (12) 
Heuristics

$$$$

     RDKit          3D

 16 14  0  0  0  0  0  0  0  0999 V2000
   -0.6913   -2.1883   -0.6544 C   0  0  0  0  0  0  0  0  0  0  0  0
   -0.6913   -2.1883    0.6745 C   0  0  0  0  0  0  0  0  0  0  0  0
   -0.6913   -0.9809    1.4898 C   0  0  0  0  0  0  0  0  0  0  0  0
   -0.6913   -0.9809    2.8186 C   0  0  0  0  0  0  0  0  0  0  0  0
   -0.6913   -1.2616   -1.2179 H   0  0  0  0  0  0  0  0  0  0  0  0
   -0.6913   -3.1098   -1.2216 H   0  0  0  0  0  0  0  0  0  0  0  0
   -0.6913   -3.1332    1.2111 H   0  0  0  0  0  0  0  0  0  0  0  0
   -0.6913    0.1530    0.8458 H   0  0  0  0  0  0  0  0  0  0  0  0
   -0.6913   -1.9075    3.3821 H   0  0  0  0  0  0  0  0  0  0  0  0
   -0.6913   -0.0594    3.3858 H   0  0  0  0  0  0  0  0  0  0  0  0
   -0.6913    1.2950    0.1973 C   0  0  0  0  0  0  0  0  0  0  0  0
    0.0097    1.1290   -1.1048 C   0  0  0  0  0  0  0  0  0  0  0  0
    1.4958    1.6281   -1.4569 S   0  0  0  0  0  1  0  0  0  0  0  0
   -1.6222    1.8498    0.0446 H   0  0  0  0  0  0  0  0  0  0  0  0
   -0.0712    1.8126    0.9261 H   0  0  0  0  0  0  0  0  0  0  0  0
   -0.5719    0.6141   -1.8718 H   0  0  0  0  0  0  0  0  0  0  0  0
  1  2  2  3
  1  5  1  0
  1  6  1  0
  2  3  1  0
  2  7  1  0
  3  4  2  3
  3  8  1  0
  4  9  1  0
  4 10  1  0
 11 12  2  3
 11 14  1  0
 11 15  1  0
 12 13  1  0
 12 16  1  0
M  RAD  1  13   2
M  END
>  <reaction>  (13) 
rxn_1671

>  <mol_properties>  (13) 
{"1": {"label": "*4", "atom_type": "Cd"}, "2": {"label": "*3", "atom_type": "Cd"}, "7": {"label": "*2", "atom_type": "H0"}, "10": {"label": "*1", "atom_type": "Cs"}, "11": {"label": "*0", "atom_type": "CS"}}

>  <type>  (13) 
unop_9

>  <geom_source>  (13) 
Heuristics

$$$$

     RDKit          3D

 16 14  0  0  0  0  0  0  0  0999 V2000
    0.5286   -2.3873   -0.5593 C   0  0  0  0  0  0  0  0  0  0  0  0
    0.5286   -2.3873    0.7696 C   0  0  0  0  0  0  0  0  0  0  0  0
    0.5286   -1.1800    1.5849 C   0  0  0  0  0  0  0  0  0  0  0  0
    0.5286   -1.1800    2.9138 C   0  0  0  0  0  0  0  0  0  0  0  0
    0.5286   -1.4607   -1.1227 H   0  0  0  0  0  0  0  0  0  0  0  0
    0.5286   -3.3089   -1.1264 H   0  0  0  0  0  0  0  0  0  0  0  0
    0.5286   -3.3323    1.3062 H   0  0  0  0  0  0  0  0  0  0  0  0
    0.5286   -0.0461    0.9410 H   0  0  0  0  0  0  0  0  0  0  0  0
    0.5286   -2.1066    3.4772 H   0  0  0  0  0  0  0  0  0  0  0  0
    0.5286   -0.2585    3.4810 H   0  0  0  0  0  0  0  0  0  0  0  0
    0.5286    1.0959    0.2925 C   0  0  0  0  0  0  0  0  0  0  0  0
   -0.6856    1.1834   -0.5634 C   0  0  0  0  0  0  0  0  0  0  0  0
   -0.8378    2.0364   -1.9164 S   0  0  0  0  0  1  0  0  0  0  0  0
    0.2870    1.4277    1.3069 H   0  0  0  0  0  0  0  0  0  0  0  0
    1.3458    1.6946   -0.1044 H   0  0  0  0  0  0  0  0  0  0  0  0
   -1.5359    0.5987   -0.2072 H   0  0  0  0  0  0  0  0  0  0  0  0
  1  2  2  3
  1  5  1  0
  1  6  1  0
  2  3  1  0
  2  7  1  0
  3  4  2  3
  3  8  1  0
  4  9  1  0
  4 10  1  0
 11 12  2  3
 11 14  1  0
 11 15  1  0
 12 13  1  0
 12 16  1  0
M  RAD  1  13   2
M  END
>  <reaction>  (14) 
rxn_1671

>  <mol_properties>  (14) 
{"1": {"label": "*4", "atom_type": "Cd"}, "2": {"label": "*3", "atom_type": "Cd"}, "7": {"label": "*2", "atom_type": "H0"}, "10": {"label": "*1", "atom_type": "Cs"}, "11": {"label": "*0", "atom_type": "CS"}}

>  <type>  (14) 
unop_10

>  <geom_source>  (14) 
Heuristics

$$$$

     RDKit          3D

 16 14  0  0  0  0  0  0  0  0999 V2000
   -0.0874   -2.8155   -1.8738 C   0  0  0  0  0  0  0  0  0  0  0  0
   -0.0874   -2.8155   -0.5449 C   0  0  0  0  0  0  0  0  0  0  0  0
   -0.0874   -1.6082    0.2704 C   0  0  0  0  0  0  0  0  0  0  0  0
   -0.0874   -1.6082    1.5993 C   0  0  0  0  0  0  0  0  0  0  0  0
   -0.0874   -1.8889   -2.4373 H   0  0  0  0  0  0  0  0  0  0  0  0
   -0.0874   -3.7370   -2.4410 H   0  0  0  0  0  0  0  0  0  0  0  0
   -0.0874   -3.7604   -0.0083 H   0  0  0  0  0  0  0  0  0  0  0  0
   -0.0874   -0.4742   -0.3736 H   0  0  0  0  0  0  0  0  0  0  0  0
   -0.0874   -2.5348    2.1627 H   0  0  0  0  0  0  0  0  0  0  0  0
   -0.0874   -0.6866    2.1664 H   0  0  0  0  0  0  0  0  0  0  0  0
   -0.0874    0.6677   -1.0221 C   0  0  0  0  0  0  0  0  0  0  0  0
    0.6137    1.7010   -0.2125 C   0  0  0  0  0  0  0  0  0  0  0  0
   -0.0706    2.7419    0.8023 S   0  0  0  0  0  1  0  0  0  0  0  0
    0.1221    0.8294   -2.0840 H   0  0  0  0  0  0  0  0  0  0  0  0
   -1.1621    0.6841   -0.8536 H   0  0  0  0  0  0  0  0  0  0  0  0
    1.6969    1.7255   -0.3462 H   0  0  0  0  0  0  0  0  0  0  0  0
  1  2  2  3
  1  5  1  0
  1  6  1  0
  2  3  1  0
  2  7  1  0
  3  4  2  3
  3  8  1  0
  4  9  1  0
  4 10  1  0
 11 12  2  3
 11 14  1  0
 11 15  1  0
 12 13  1  0
 12 16  1  0
M  RAD  1  13   2
M  END
>  <reaction>  (15) 
rxn_1671

>  <mol_properties>  (15) 
{"1": {"label": "*4", "atom_type": "Cd"}, "2": {"label": "*3", "atom_type": "Cd"}, "7": {"label": "*2", "atom_type": "H0"}, "10": {"label": "*1", "atom_type": "Cs"}, "11": {"label": "*0", "atom_type": "CS"}}

>  <type>  (15) 
unop_11

>  <geom_source>  (15) 
Heuristics

$$$$

     RDKit          3D

 16 14  0  0  0  0  0  0  0  0999 V2000
   -0.3029   -2.1530   -0.3939 C   0  0  0  0  0  0  0  0  0  0  0  0
   -0.3029   -2.1530    0.9350 C   0  0  0  0  0  0  0  0  0  0  0  0
   -0.3029   -0.9457    1.7503 C   0  0  0  0  0  0  0  0  0  0  0  0
   -0.3029   -0.9457    3.0792 C   0  0  0  0  0  0  0  0  0  0  0  0
   -0.3029   -1.2264   -0.9574 H   0  0  0  0  0  0  0  0  0  0  0  0
   -0.3029   -3.0745   -0.9611 H   0  0  0  0  0  0  0  0  0  0  0  0
   -0.3029   -3.0979    1.4716 H   0  0  0  0  0  0  0  0  0  0  0  0
   -0.3029    0.1883    1.1063 H   0  0  0  0  0  0  0  0  0  0  0  0
   -0.3029   -1.8723    3.6426 H   0  0  0  0  0  0  0  0  0  0  0  0
   -0.3029   -0.0241    3.6463 H   0  0  0  0  0  0  0  0  0  0  0  0
   -0.3029    1.3302    0.4578 C   0  0  0  0  0  0  0  0  0  0  0  0
   -0.3029    1.0715   -1.0077 C   0  0  0  0  0  0  0  0  0  0  0  0
    0.7966    1.5778   -2.0642 S   0  0  0  0  0  1  0  0  0  0  0  0
   -1.2267    1.8449    0.7394 H   0  0  0  0  0  0  0  0  0  0  0  0
    0.5557    1.9250    0.7624 H   0  0  0  0  0  0  0  0  0  0  0  0
   -1.1463    0.4772   -1.3643 H   0  0  0  0  0  0  0  0  0  0  0  0
  1  2  2  3
  1  5  1  0
  1  6  1  0
  2  3  1  0
  2  7  1  0
  3  4  2  3
  3  8  1  0
  4  9  1  0
  4 10  1  0
 11 12  2  3
 11 14  1  0
 11 15  1  0
 12 13  1  0
 12 16  1  0
M  RAD  1  13   2
M  END
>  <reaction>  (16) 
rxn_1671

>  <mol_properties>  (16) 
{"1": {"label": "*4", "atom_type": "Cd"}, "2": {"label": "*3", "atom_type": "Cd"}, "7": {"label": "*2", "atom_type": "H0"}, "10": {"label": "*1", "atom_type": "Cs"}, "11": {"label": "*0", "atom_type": "CS"}}

>  <type>  (16) 
unop_12

>  <geom_source>  (16) 
Heuristics

$$$$

     RDKit          3D

 16 14  0  0  0  0  0  0  0  0999 V2000
    2.8878    1.7970    0.6038 S   0  0  0  0  0  1  0  0  0  0  0  0
    1.7870   -0.4943    0.5019 C   0  0  0  0  0  0  0  0  0  0  0  0
   -1.3981    0.9576   -0.0180 C   0  0  0  0  0  0  0  0  0  0  0  0
    2.9237    0.4244    0.1865 C   0  0  0  0  0  0  0  0  0  0  0  0
   -2.7269    0.9466    0.0964 C   0  0  0  0  0  0  0  0  0  0  0  0
   -1.0431   -1.3965   -0.7958 C   0  0  0  0  0  0  0  0  0  0  0  0
   -0.5819   -0.1939   -0.4555 C   0  0  0  0  0  0  0  0  0  0  0  0
    1.9812   -1.4934    0.0588 H   0  0  0  0  0  0  0  0  0  0  0  0
    1.6780   -0.6069    1.6018 H   0  0  0  0  0  0  0  0  0  0  0  0
    0.5920    0.0179   -0.0384 H   0  0  0  0  0  0  0  0  0  0  0  0
    3.7725    0.0606   -0.3833 H   0  0  0  0  0  0  0  0  0  0  0  0
   -0.8707    1.8711    0.2248 H   0  0  0  0  0  0  0  0  0  0  0  0
   -3.3233    0.0745   -0.1271 H   0  0  0  0  0  0  0  0  0  0  0  0
   -3.2417    1.8400    0.4254 H   0  0  0  0  0  0  0  0  0  0  0  0
   -2.0943   -1.6435   -0.7808 H   0  0  0  0  0  0  0  0  0  0  0  0
   -0.3421   -2.1612   -1.1005 H   0  0  0  0  0  0  0  0  0  0  0  0
  1  4  1  0
  2  4  2  3
  2  8  1  0
  2  9  1  0
  3  5  2  3
  3  7  1  0
  3 12  1  0
  4 11  1  0
  5 13  1  0
  5 14  1  0
  6  7  2  3
  6 15  1  0
  6 16  1  0
  7 10  1  0
M  RAD  1   1   2
M  END
>  <reaction>  (17) 
rxn_1671

>  <mol_properties>  (17) 
{"1": {"label": "*4", "atom_type": "Cd"}, "2": {"label": "*3", "atom_type": "Cd"}, "7": {"label": "*2", "atom_type": "H0"}, "10": {"label": "*1", "atom_type": "Cs"}, "11": {"label": "*0", "atom_type": "CS"}}

>  <type>  (17) 
unop_13

>  <geom_source>  (17) 
AutoTST

$$$$
