
     RDKit          3D

 12 11  0  0  0  0  0  0  0  0999 V2000
    2.1696    0.6854    1.1310 C   0  0  0  0  0  0  0  0  0  0  0  0
    1.2518    0.4145    0.4134 C   0  0  0  0  0  0  0  0  0  0  0  0
    0.1391    0.0443   -0.4683 C   0  0  0  0  0  0  0  0  0  0  0  0
   -0.2054   -1.4492   -0.3339 C   0  0  0  0  0  0  0  0  0  0  0  0
   -1.0375    0.8853   -0.2222 C   0  0  0  0  0  0  0  0  0  0  0  0
   -2.0160    1.5463   -0.0311 C   0  0  0  0  0  0  0  0  0  0  0  0
    2.9819    0.9356    1.7702 H   0  0  0  0  0  0  0  0  0  0  0  0
    0.4629    0.2285   -1.4981 H   0  0  0  0  0  0  0  0  0  0  0  0
   -0.5327   -1.6703    0.6812 H   0  0  0  0  0  0  0  0  0  0  0  0
    0.6727   -2.0535   -0.5593 H   0  0  0  0  0  0  0  0  0  0  0  0
   -1.0064   -1.7081   -1.0256 H   0  0  0  0  0  0  0  0  0  0  0  0
   -2.8802    2.1413    0.1426 H   0  0  0  0  0  0  0  0  0  0  0  0
  1  2  3  0
  1  7  1  0
  2  3  1  0
  3  4  1  0
  3  5  1  0
  3  8  1  0
  4  9  1  0
  4 10  1  0
  4 11  1  0
  5  6  3  0
  6 12  1  0
M  END
>  <reaction>  (1) 
rxn_1404

>  <mol_properties>  (1) 
{"2": {"label": "donator", "atom_type": "Cs"}, "7": {"label": "d_hydrogen", "atom_type": "H0"}}

>  <type>  (1) 
r1h

$$$$

     RDKit          3D

 17 17  0  0  0  0  0  0  0  0999 V2000
    2.7069    0.2860   -0.1817 C   0  0  0  0  0  0  0  0  0  0  0  0
    1.6304   -0.7245    0.0085 C   0  0  0  0  0  0  0  0  0  0  0  0
    1.4786   -1.8800   -0.7837 C   0  0  0  0  0  0  0  0  0  0  0  0
    0.4231   -2.7891   -0.5312 C   0  0  0  0  0  3  0  0  0  0  0  0
    0.2582   -3.9235   -1.2940 C   0  0  0  0  0  0  0  0  0  0  0  0
    1.1348   -4.2030   -2.3401 C   0  0  0  0  0  0  0  0  0  0  0  0
    2.1804   -3.3260   -2.6093 C   0  0  0  0  0  0  0  0  0  0  0  0
    2.3549   -2.1866   -1.8513 C   0  0  0  0  0  0  0  0  0  0  0  0
    2.6698    0.7343   -1.1808 H   0  0  0  0  0  0  0  0  0  0  0  0
    3.7029   -0.1584   -0.0766 H   0  0  0  0  0  0  0  0  0  0  0  0
    2.6250    1.0917    0.5463 H   0  0  0  0  0  0  0  0  0  0  0  0
    0.9136   -0.5677    0.8059 H   0  0  0  0  0  0  0  0  0  0  0  0
   -0.2629   -2.5783    0.2811 H   0  0  0  0  0  0  0  0  0  0  0  0
   -0.5582   -4.6017   -1.0785 H   0  0  0  0  0  0  0  0  0  0  0  0
    1.0033   -5.0952   -2.9384 H   0  0  0  0  0  0  0  0  0  0  0  0
    2.8650   -3.5382   -3.4214 H   0  0  0  0  0  0  0  0  0  0  0  0
    3.1750   -1.5169   -2.0772 H   0  0  0  0  0  0  0  0  0  0  0  0
  1  2  1  0
  1  9  1  0
  1 10  1  0
  1 11  1  0
  2  3  2  3
  2 12  1  0
  3  4  1  0
  3  8  1  0
  4  5  1  0
  4 13  1  0
  5  6  2  0
  5 14  1  0
  6  7  1  0
  6 15  1  0
  7  8  2  0
  7 16  1  0
  8 17  1  0
M  RAD  1   4   2
M  END
>  <reaction>  (2) 
rxn_1404

>  <mol_properties>  (2) 
{"1": {"label": "acceptor", "atom_type": "Cs"}}

>  <type>  (2) 
r2

$$$$

     RDKit          3D

 18 18  0  0  0  0  0  0  0  0999 V2000
   -2.4852    0.3210   -0.3966 C   0  0  0  0  0  0  0  0  0  0  0  0
   -1.5917   -0.2708    0.6941 C   0  0  0  0  0  0  0  0  0  0  0  0
   -0.1292   -0.1692    0.3493 C   0  0  0  0  0  0  0  0  0  0  0  0
    0.6099    0.9558    0.7015 C   0  0  0  0  0  0  0  0  0  0  0  0
    1.9447    1.0728    0.3458 C   0  0  0  0  0  0  0  0  0  0  0  0
    2.5646    0.0613   -0.3720 C   0  0  0  0  0  0  0  0  0  0  0  0
    1.8399   -1.0657   -0.7287 C   0  0  0  0  0  0  0  0  0  0  0  0
    0.5055   -1.1769   -0.3700 C   0  0  0  0  0  0  0  0  0  0  0  0
   -2.3325   -0.1971   -1.3452 H   0  0  0  0  0  0  0  0  0  0  0  0
   -2.2554    1.3763   -0.5546 H   0  0  0  0  0  0  0  0  0  0  0  0
   -3.5397    0.2376   -0.1280 H   0  0  0  0  0  0  0  0  0  0  0  0
   -1.7801    0.2462    1.6380 H   0  0  0  0  0  0  0  0  0  0  0  0
   -1.8568   -1.3190    0.8516 H   0  0  0  0  0  0  0  0  0  0  0  0
    0.1327    1.7497    1.2656 H   0  0  0  0  0  0  0  0  0  0  0  0
    2.5033    1.9550    0.6330 H   0  0  0  0  0  0  0  0  0  0  0  0
    3.6077    0.1491   -0.6484 H   0  0  0  0  0  0  0  0  0  0  0  0
    2.3163   -1.8632   -1.2854 H   0  0  0  0  0  0  0  0  0  0  0  0
   -0.0540   -2.0629   -0.6500 H   0  0  0  0  0  0  0  0  0  0  0  0
  1  2  1  0
  1  9  1  0
  1 10  1  0
  1 11  1  0
  2  3  1  0
  2 12  1  0
  2 13  1  0
  3  4  2  0
  3  8  1  0
  4  5  1  0
  4 14  1  0
  5  6  2  0
  5 15  1  0
  6  7  1  0
  6 16  1  0
  7  8  2  0
  7 17  1  0
  8 18  1  0
M  END
>  <reaction>  (3) 
rxn_1404

>  <mol_properties>  (3) 
{"0": {"label": "a_hydrogen", "atom_type": "H0"}, "2": {"label": "acceptor", "atom_type": "Cs"}}

>  <type>  (3) 
r2h

$$$$

     RDKit          3D

 29 28  0  0  0  0  0  0  0  0999 V2000
   -1.1870    3.4869   -0.6214 C   0  0  0  0  0  0  0  0  0  0  0  0
   -1.3923    2.3117   -0.7540 C   0  0  0  0  0  0  0  0  0  0  0  0
   -1.5616    0.8898   -0.8822 C   0  0  0  0  0  0  0  0  0  0  0  0
   -1.9874    0.1716    0.3912 C   0  0  0  0  0  0  0  0  0  0  0  0
   -2.2267    0.4601   -2.0821 C   0  0  0  0  0  0  0  0  0  0  0  0
   -2.7469    0.0524   -3.0842 C   0  0  0  0  0  0  0  0  0  0  0  0
   -1.0310    4.5327   -0.5099 H   0  0  0  0  0  0  0  0  0  0  0  0
   -0.3176    0.4616   -1.0347 H   0  0  0  0  0  0  0  0  0  0  0  0
   -3.0109    0.4378    0.6607 H   0  0  0  0  0  0  0  0  0  0  0  0
   -1.3246    0.4455    1.2118 H   0  0  0  0  0  0  0  0  0  0  0  0
   -1.9360   -0.9073    0.2441 H   0  0  0  0  0  0  0  0  0  0  0  0
   -3.2214   -0.2934   -3.9706 H   0  0  0  0  0  0  0  0  0  0  0  0
    0.8346   -1.2426   -1.9675 C   0  0  0  0  0  0  0  0  0  0  0  0
    0.9712   -0.0142   -1.1133 C   0  0  0  0  0  0  0  0  0  0  0  0
    1.3736   -0.1139    0.2887 C   0  0  0  0  0  0  0  0  0  0  0  0
    1.6895    1.0529    0.9977 C   0  0  0  0  0  3  0  0  0  0  0  0
    1.9989    1.0081    2.3436 C   0  0  0  0  0  0  0  0  0  0  0  0
    2.0049   -0.2056    3.0196 C   0  0  0  0  0  0  0  0  0  0  0  0
    1.7005   -1.3710    2.3316 C   0  0  0  0  0  0  0  0  0  0  0  0
    1.3855   -1.3277    0.9839 C   0  0  0  0  0  0  0  0  0  0  0  0
    0.1276   -1.9568   -1.5401 H   0  0  0  0  0  0  0  0  0  0  0  0
    1.7948   -1.7556   -2.0830 H   0  0  0  0  0  0  0  0  0  0  0  0
    0.4697   -0.9774   -2.9592 H   0  0  0  0  0  0  0  0  0  0  0  0
    1.3932    0.8491   -1.6256 H   0  0  0  0  0  0  0  0  0  0  0  0
    1.6730    2.0034    0.4770 H   0  0  0  0  0  0  0  0  0  0  0  0
    2.2365    1.9234    2.8712 H   0  0  0  0  0  0  0  0  0  0  0  0
    2.2483   -0.2420    4.0737 H   0  0  0  0  0  0  0  0  0  0  0  0
    1.7084   -2.3223    2.8492 H   0  0  0  0  0  0  0  0  0  0  0  0
    1.1505   -2.2483    0.4652 H   0  0  0  0  0  0  0  0  0  0  0  0
  1  2  3  0
  1  7  1  0
  2  3  1  0
  3  4  1  0
  3  5  1  0
  3  8  1  0
  4  9  1  0
  4 10  1  0
  4 11  1  0
  5  6  3  0
  6 12  1  0
 13 14  1  0
 13 21  1  0
 13 22  1  0
 13 23  1  0
 14 15  2  3
 14 24  1  0
 15 16  1  0
 15 20  1  0
 16 17  1  0
 16 25  1  0
 17 18  2  0
 17 26  1  0
 18 19  1  0
 18 27  1  0
 19 20  2  0
 19 28  1  0
 20 29  1  0
M  RAD  1  16   2
M  END
>  <reaction>  (4) 
rxn_1404

>  <mol_properties>  (4) 
{"1": {"label": "*0", "atom_type": "Ct"}, "2": {"label": "*1", "atom_type": "Cs"}, "7": {"label": "*2", "atom_type": "H0"}, "13": {"label": "*3", "atom_type": "Cd"}, "14": {"label": "*4", "atom_type": "Cd"}}

>  <type>  (4) 
ts

$$$$

     RDKit          3D

 29 28  0  0  0  0  0  0  0  0999 V2000
   -2.3182    0.5458   -2.6424 C   0  0  0  0  0  0  0  0  0  0  0  0
   -2.3182    0.5458   -1.4462 C   0  0  0  0  0  0  0  0  0  0  0  0
   -2.3182    0.5859    0.0203 C   0  0  0  0  0  3  0  0  0  0  0  0
   -2.9563    1.8851    0.5423 C   0  0  0  0  0  0  0  0  0  0  0  0
   -2.9801   -0.5953    0.5851 C   0  0  0  0  0  0  0  0  0  0  0  0
   -3.5283   -1.5406    1.0716 C   0  0  0  0  0  0  0  0  0  0  0  0
   -2.3182    0.5458   -3.7059 H   0  0  0  0  0  0  0  0  0  0  0  0
   -1.0646    0.5587    0.4134 H   0  0  0  0  0  0  0  0  0  0  0  0
   -3.9995    1.9424    0.2346 H   0  0  0  0  0  0  0  0  0  0  0  0
   -2.4237    2.7466    0.1407 H   0  0  0  0  0  0  0  0  0  0  0  0
   -2.9091    1.9096    1.6305 H   0  0  0  0  0  0  0  0  0  0  0  0
   -4.0157   -2.3810    1.5041 H   0  0  0  0  0  0  0  0  0  0  0  0
    0.4936    1.7942    1.6114 C   0  0  0  0  0  0  0  0  0  0  0  0
    0.1861    0.5315    0.8057 C   0  0  0  0  0  0  0  0  0  0  0  0
    1.4354   -0.1342    0.2915 C   0  0  0  0  0  0  0  0  0  0  0  0
    2.1032   -1.0851    1.0568 C   0  0  0  0  0  0  0  0  0  0  0  0
    3.2784   -1.6663    0.6064 C   0  0  0  0  0  0  0  0  0  0  0  0
    3.8074   -1.3035   -0.6229 C   0  0  0  0  0  0  0  0  0  0  0  0
    3.1516   -0.3576   -1.3961 C   0  0  0  0  0  0  0  0  0  0  0  0
    1.9767    0.2200   -0.9403 C   0  0  0  0  0  0  0  0  0  0  0  0
    1.0285    2.5229    0.9995 H   0  0  0  0  0  0  0  0  0  0  0  0
    1.1219    1.5600    2.4728 H   0  0  0  0  0  0  0  0  0  0  0  0
   -0.4237    2.2609    1.9746 H   0  0  0  0  0  0  0  0  0  0  0  0
   -0.3703   -0.1713    1.4303 H   0  0  0  0  0  0  0  0  0  0  0  0
    1.6939   -1.3763    2.0180 H   0  0  0  0  0  0  0  0  0  0  0  0
    3.7808   -2.4074    1.2157 H   0  0  0  0  0  0  0  0  0  0  0  0
    4.7235   -1.7582   -0.9781 H   0  0  0  0  0  0  0  0  0  0  0  0
    3.5543   -0.0708   -2.3597 H   0  0  0  0  0  0  0  0  0  0  0  0
    1.4677    0.9568   -1.5521 H   0  0  0  0  0  0  0  0  0  0  0  0
  1  2  3  0
  1  7  1  0
  2  3  1  0
  3  4  1  0
  3  5  1  0
  4  9  1  0
  4 10  1  0
  4 11  1  0
  5  6  3  0
  6 12  1  0
  8 14  1  0
 13 14  1  0
 13 21  1  0
 13 22  1  0
 13 23  1  0
 14 15  1  0
 14 24  1  0
 15 16  2  0
 15 20  1  0
 16 17  1  0
 16 25  1  0
 17 18  2  0
 17 26  1  0
 18 19  1  0
 18 27  1  0
 19 20  2  0
 19 28  1  0
 20 29  1  0
M  RAD  1   3   2
M  END
>  <reaction>  (5) 
rxn_1404

>  <mol_properties>  (5) 
{"1": {"label": "*0", "atom_type": "Ct"}, "2": {"label": "*1", "atom_type": "Cs"}, "7": {"label": "*2", "atom_type": "H0"}, "13": {"label": "*3", "atom_type": "Cd"}, "14": {"label": "*4", "atom_type": "Cd"}}

>  <type>  (5) 
unop_1

>  <geom_source>  (5) 
Heuristics

$$$$

     RDKit          3D

 29 28  0  0  0  0  0  0  0  0999 V2000
   -1.8779    1.0635   -3.3657 C   0  0  0  0  0  0  0  0  0  0  0  0
   -1.8779    1.0635   -2.1695 C   0  0  0  0  0  0  0  0  0  0  0  0
   -1.8779    1.1036   -0.7030 C   0  0  0  0  0  3  0  0  0  0  0  0
   -2.5160    2.4028   -0.1810 C   0  0  0  0  0  0  0  0  0  0  0  0
   -2.5398   -0.0777   -0.1382 C   0  0  0  0  0  0  0  0  0  0  0  0
   -3.0880   -1.0229    0.3483 C   0  0  0  0  0  0  0  0  0  0  0  0
   -1.8779    1.0635   -4.4291 H   0  0  0  0  0  0  0  0  0  0  0  0
   -0.6243    1.0763   -0.3098 H   0  0  0  0  0  0  0  0  0  0  0  0
   -3.5592    2.4601   -0.4887 H   0  0  0  0  0  0  0  0  0  0  0  0
   -1.9833    3.2642   -0.5826 H   0  0  0  0  0  0  0  0  0  0  0  0
   -2.4688    2.4272    0.9073 H   0  0  0  0  0  0  0  0  0  0  0  0
   -3.5754   -1.8634    0.7808 H   0  0  0  0  0  0  0  0  0  0  0  0
    1.5057    1.7153   -0.9765 C   0  0  0  0  0  0  0  0  0  0  0  0
    0.6264    1.0492    0.0824 C   0  0  0  0  0  0  0  0  0  0  0  0
    1.2718   -0.1793    0.6678 C   0  0  0  0  0  0  0  0  0  0  0  0
    2.1064   -0.0864    1.7770 C   0  0  0  0  0  0  0  0  0  0  0  0
    2.7384   -1.2084    2.2905 C   0  0  0  0  0  0  0  0  0  0  0  0
    2.5448   -2.4476    1.6994 C   0  0  0  0  0  0  0  0  0  0  0  0
    1.7148   -2.5545    0.5938 C   0  0  0  0  0  0  0  0  0  0  0  0
    1.0856   -1.4289    0.0849 C   0  0  0  0  0  0  0  0  0  0  0  0
    1.7110    1.0264   -1.7980 H   0  0  0  0  0  0  0  0  0  0  0  0
    2.4641    2.0168   -0.5496 H   0  0  0  0  0  0  0  0  0  0  0  0
    1.0208    2.6023   -1.3877 H   0  0  0  0  0  0  0  0  0  0  0  0
    0.4143    1.7645    0.8806 H   0  0  0  0  0  0  0  0  0  0  0  0
    2.2603    0.8790    2.2467 H   0  0  0  0  0  0  0  0  0  0  0  0
    3.3812   -1.1152    3.1571 H   0  0  0  0  0  0  0  0  0  0  0  0
    3.0349   -3.3257    2.1003 H   0  0  0  0  0  0  0  0  0  0  0  0
    1.5536   -3.5187    0.1276 H   0  0  0  0  0  0  0  0  0  0  0  0
    0.4354   -1.5209   -0.7782 H   0  0  0  0  0  0  0  0  0  0  0  0
  1  2  3  0
  1  7  1  0
  2  3  1  0
  3  4  1  0
  3  5  1  0
  4  9  1  0
  4 10  1  0
  4 11  1  0
  5  6  3  0
  6 12  1  0
  8 14  1  0
 13 14  1  0
 13 21  1  0
 13 22  1  0
 13 23  1  0
 14 15  1  0
 14 24  1  0
 15 16  2  0
 15 20  1  0
 16 17  1  0
 16 25  1  0
 17 18  2  0
 17 26  1  0
 18 19  1  0
 18 27  1  0
 19 20  2  0
 19 28  1  0
 20 29  1  0
M  RAD  1   3   2
M  END
>  <reaction>  (6) 
rxn_1404

>  <mol_properties>  (6) 
{"1": {"label": "*0", "atom_type": "Ct"}, "2": {"label": "*1", "atom_type": "Cs"}, "7": {"label": "*2", "atom_type": "H0"}, "13": {"label": "*3", "atom_type": "Cd"}, "14": {"label": "*4", "atom_type": "Cd"}}

>  <type>  (6) 
unop_2

>  <geom_source>  (6) 
Heuristics

$$$$

     RDKit          3D

 29 28  0  0  0  0  0  0  0  0999 V2000
   -2.3051   -0.0214   -2.4288 C   0  0  0  0  0  0  0  0  0  0  0  0
   -2.3051   -0.0214   -1.2326 C   0  0  0  0  0  0  0  0  0  0  0  0
   -2.3051    0.0187    0.2339 C   0  0  0  0  0  3  0  0  0  0  0  0
   -2.9431    1.3179    0.7559 C   0  0  0  0  0  0  0  0  0  0  0  0
   -2.9669   -1.1626    0.7987 C   0  0  0  0  0  0  0  0  0  0  0  0
   -3.5151   -2.1078    1.2852 C   0  0  0  0  0  0  0  0  0  0  0  0
   -2.3051   -0.0214   -3.4922 H   0  0  0  0  0  0  0  0  0  0  0  0
   -1.0515   -0.0086    0.6271 H   0  0  0  0  0  0  0  0  0  0  0  0
   -3.9863    1.3752    0.4482 H   0  0  0  0  0  0  0  0  0  0  0  0
   -2.4105    2.1793    0.3543 H   0  0  0  0  0  0  0  0  0  0  0  0
   -2.8959    1.3423    1.8442 H   0  0  0  0  0  0  0  0  0  0  0  0
   -4.0026   -2.9483    1.7177 H   0  0  0  0  0  0  0  0  0  0  0  0
    0.3333    0.7181    2.3430 C   0  0  0  0  0  0  0  0  0  0  0  0
    0.1993   -0.0357    1.0193 C   0  0  0  0  0  0  0  0  0  0  0  0
    1.4516    0.0483    0.1869 C   0  0  0  0  0  0  0  0  0  0  0  0
    2.4685   -0.8900    0.3321 C   0  0  0  0  0  0  0  0  0  0  0  0
    3.6419   -0.7896   -0.3995 C   0  0  0  0  0  0  0  0  0  0  0  0
    3.8177    0.2566   -1.2924 C   0  0  0  0  0  0  0  0  0  0  0  0
    2.8117    1.1982   -1.4475 C   0  0  0  0  0  0  0  0  0  0  0  0
    1.6407    1.0924   -0.7131 C   0  0  0  0  0  0  0  0  0  0  0  0
    0.5429    1.7748    2.1668 H   0  0  0  0  0  0  0  0  0  0  0  0
    1.1536    0.3122    2.9379 H   0  0  0  0  0  0  0  0  0  0  0  0
   -0.5834    0.6450    2.9306 H   0  0  0  0  0  0  0  0  0  0  0  0
   -0.0346   -1.0839    1.2204 H   0  0  0  0  0  0  0  0  0  0  0  0
    2.3370   -1.7128    1.0263 H   0  0  0  0  0  0  0  0  0  0  0  0
    4.4198   -1.5326   -0.2745 H   0  0  0  0  0  0  0  0  0  0  0  0
    4.7318    0.3354   -1.8669 H   0  0  0  0  0  0  0  0  0  0  0  0
    2.9376    2.0165   -2.1456 H   0  0  0  0  0  0  0  0  0  0  0  0
    0.8571    1.8310   -0.8421 H   0  0  0  0  0  0  0  0  0  0  0  0
  1  2  3  0
  1  7  1  0
  2  3  1  0
  3  4  1  0
  3  5  1  0
  4  9  1  0
  4 10  1  0
  4 11  1  0
  5  6  3  0
  6 12  1  0
  8 14  1  0
 13 14  1  0
 13 21  1  0
 13 22  1  0
 13 23  1  0
 14 15  1  0
 14 24  1  0
 15 16  2  0
 15 20  1  0
 16 17  1  0
 16 25  1  0
 17 18  2  0
 17 26  1  0
 18 19  1  0
 18 27  1  0
 19 20  2  0
 19 28  1  0
 20 29  1  0
M  RAD  1   3   2
M  END
>  <reaction>  (7) 
rxn_1404

>  <mol_properties>  (7) 
{"1": {"label": "*0", "atom_type": "Ct"}, "2": {"label": "*1", "atom_type": "Cs"}, "7": {"label": "*2", "atom_type": "H0"}, "13": {"label": "*3", "atom_type": "Cd"}, "14": {"label": "*4", "atom_type": "Cd"}}

>  <type>  (7) 
unop_3

>  <geom_source>  (7) 
Heuristics

$$$$

     RDKit          3D

 29 28  0  0  0  0  0  0  0  0999 V2000
   -0.8085    0.3882   -4.0565 C   0  0  0  0  0  0  0  0  0  0  0  0
   -0.8085    0.3882   -2.8603 C   0  0  0  0  0  0  0  0  0  0  0  0
   -0.8085    0.4282   -1.3938 C   0  0  0  0  0  3  0  0  0  0  0  0
   -1.4465    1.7275   -0.8718 C   0  0  0  0  0  0  0  0  0  0  0  0
   -1.4703   -0.7530   -0.8290 C   0  0  0  0  0  0  0  0  0  0  0  0
   -2.0186   -1.6983   -0.3425 C   0  0  0  0  0  0  0  0  0  0  0  0
   -0.8085    0.3882   -5.1199 H   0  0  0  0  0  0  0  0  0  0  0  0
    0.4451    0.4010   -1.0006 H   0  0  0  0  0  0  0  0  0  0  0  0
   -2.4898    1.7847   -1.1795 H   0  0  0  0  0  0  0  0  0  0  0  0
   -0.9139    2.5889   -1.2734 H   0  0  0  0  0  0  0  0  0  0  0  0
   -1.3993    1.7519    0.2165 H   0  0  0  0  0  0  0  0  0  0  0  0
   -2.5060   -2.5387    0.0900 H   0  0  0  0  0  0  0  0  0  0  0  0
    2.3580   -0.9100   -1.1100 C   0  0  0  0  0  0  0  0  0  0  0  0
    1.6959    0.3738   -0.6084 C   0  0  0  0  0  0  0  0  0  0  0  0
    1.0684    0.1978    0.7494 C   0  0  0  0  0  0  0  0  0  0  0  0
    1.8045    0.4194    1.9091 C   0  0  0  0  0  0  0  0  0  0  0  0
    1.2438    0.2142    3.1603 C   0  0  0  0  0  0  0  0  0  0  0  0
   -0.0688   -0.2185    3.2720 C   0  0  0  0  0  0  0  0  0  0  0  0
   -0.8140   -0.4423    2.1242 C   0  0  0  0  0  0  0  0  0  0  0  0
   -0.2477   -0.2353    0.8759 C   0  0  0  0  0  0  0  0  0  0  0  0
    1.6278   -1.7178   -1.1855 H   0  0  0  0  0  0  0  0  0  0  0  0
    3.1419   -1.2348   -0.4232 H   0  0  0  0  0  0  0  0  0  0  0  0
    2.8062   -0.7616   -2.0940 H   0  0  0  0  0  0  0  0  0  0  0  0
    2.4396    1.1730   -0.5650 H   0  0  0  0  0  0  0  0  0  0  0  0
    2.8308    0.7609    1.8298 H   0  0  0  0  0  0  0  0  0  0  0  0
    1.8326    0.3961    4.0508 H   0  0  0  0  0  0  0  0  0  0  0  0
   -0.5098   -0.3766    4.2480 H   0  0  0  0  0  0  0  0  0  0  0  0
   -1.8414   -0.7761    2.2010 H   0  0  0  0  0  0  0  0  0  0  0  0
   -0.8378   -0.4095   -0.0173 H   0  0  0  0  0  0  0  0  0  0  0  0
  1  2  3  0
  1  7  1  0
  2  3  1  0
  3  4  1  0
  3  5  1  0
  4  9  1  0
  4 10  1  0
  4 11  1  0
  5  6  3  0
  6 12  1  0
  8 14  1  0
 13 14  1  0
 13 21  1  0
 13 22  1  0
 13 23  1  0
 14 15  1  0
 14 24  1  0
 15 16  2  0
 15 20  1  0
 16 17  1  0
 16 25  1  0
 17 18  2  0
 17 26  1  0
 18 19  1  0
 18 27  1  0
 19 20  2  0
 19 28  1  0
 20 29  1  0
M  RAD  1   3   2
M  END
>  <reaction>  (8) 
rxn_1404

>  <mol_properties>  (8) 
{"1": {"label": "*0", "atom_type": "Ct"}, "2": {"label": "*1", "atom_type": "Cs"}, "7": {"label": "*2", "atom_type": "H0"}, "13": {"label": "*3", "atom_type": "Cd"}, "14": {"label": "*4", "atom_type": "Cd"}}

>  <type>  (8) 
unop_4

>  <geom_source>  (8) 
Heuristics

$$$$

     RDKit          3D

 29 28  0  0  0  0  0  0  0  0999 V2000
   -1.8833   -0.8298   -2.6164 C   0  0  0  0  0  0  0  0  0  0  0  0
   -1.8833   -0.8298   -1.4202 C   0  0  0  0  0  0  0  0  0  0  0  0
   -1.8833   -0.7898    0.0464 C   0  0  0  0  0  3  0  0  0  0  0  0
   -2.5213    0.5095    0.5684 C   0  0  0  0  0  0  0  0  0  0  0  0
   -2.5451   -1.9710    0.6111 C   0  0  0  0  0  0  0  0  0  0  0  0
   -3.0934   -2.9163    1.0976 C   0  0  0  0  0  0  0  0  0  0  0  0
   -1.8833   -0.8298   -3.6798 H   0  0  0  0  0  0  0  0  0  0  0  0
   -0.6297   -0.8170    0.4395 H   0  0  0  0  0  0  0  0  0  0  0  0
   -3.5646    0.5667    0.2606 H   0  0  0  0  0  0  0  0  0  0  0  0
   -1.9887    1.3709    0.1667 H   0  0  0  0  0  0  0  0  0  0  0  0
   -2.4741    0.5339    1.6566 H   0  0  0  0  0  0  0  0  0  0  0  0
   -3.5808   -3.7567    1.5301 H   0  0  0  0  0  0  0  0  0  0  0  0
    0.6756   -0.8041    2.3594 C   0  0  0  0  0  0  0  0  0  0  0  0
    0.6211   -0.8442    0.8317 C   0  0  0  0  0  0  0  0  0  0  0  0
    1.3688    0.3031    0.2050 C   0  0  0  0  0  0  0  0  0  0  0  0
    2.7245    0.1951   -0.0886 C   0  0  0  0  0  0  0  0  0  0  0  0
    3.4263    1.2645   -0.6231 C   0  0  0  0  0  0  0  0  0  0  0  0
    2.7799    2.4654   -0.8736 C   0  0  0  0  0  0  0  0  0  0  0  0
    1.4287    2.5864   -0.5865 C   0  0  0  0  0  0  0  0  0  0  0  0
    0.7324    1.5133   -0.0520 C   0  0  0  0  0  0  0  0  0  0  0  0
    0.2383    0.1216    2.7379 H   0  0  0  0  0  0  0  0  0  0  0  0
    1.7080   -0.8509    2.7109 H   0  0  0  0  0  0  0  0  0  0  0  0
    0.1286   -1.6428    2.7936 H   0  0  0  0  0  0  0  0  0  0  0  0
    1.0407   -1.7890    0.4781 H   0  0  0  0  0  0  0  0  0  0  0  0
    3.2362   -0.7420    0.1017 H   0  0  0  0  0  0  0  0  0  0  0  0
    4.4803    1.1587   -0.8480 H   0  0  0  0  0  0  0  0  0  0  0  0
    3.3251    3.3010   -1.2937 H   0  0  0  0  0  0  0  0  0  0  0  0
    0.9138    3.5187   -0.7826 H   0  0  0  0  0  0  0  0  0  0  0  0
   -0.3250    1.6146    0.1670 H   0  0  0  0  0  0  0  0  0  0  0  0
  1  2  3  0
  1  7  1  0
  2  3  1  0
  3  4  1  0
  3  5  1  0
  4  9  1  0
  4 10  1  0
  4 11  1  0
  5  6  3  0
  6 12  1  0
  8 14  1  0
 13 14  1  0
 13 21  1  0
 13 22  1  0
 13 23  1  0
 14 15  1  0
 14 24  1  0
 15 16  2  0
 15 20  1  0
 16 17  1  0
 16 25  1  0
 17 18  2  0
 17 26  1  0
 18 19  1  0
 18 27  1  0
 19 20  2  0
 19 28  1  0
 20 29  1  0
M  RAD  1   3   2
M  END
>  <reaction>  (9) 
rxn_1404

>  <mol_properties>  (9) 
{"1": {"label": "*0", "atom_type": "Ct"}, "2": {"label": "*1", "atom_type": "Cs"}, "7": {"label": "*2", "atom_type": "H0"}, "13": {"label": "*3", "atom_type": "Cd"}, "14": {"label": "*4", "atom_type": "Cd"}}

>  <type>  (9) 
unop_5

>  <geom_source>  (9) 
Heuristics

$$$$

     RDKit          3D

 29 27  0  0  0  0  0  0  0  0999 V2000
   -0.6964   -0.1814   -3.9942 C   0  0  0  0  0  3  0  0  0  0  0  0
   -0.6964   -0.1814   -2.7980 C   0  0  0  0  0  0  0  0  0  0  0  0
   -0.6964   -0.1413   -1.3314 C   0  0  0  0  0  3  0  0  0  0  0  0
   -1.3344    1.1579   -0.8094 C   0  0  0  0  0  3  0  0  0  0  0  0
   -1.3582   -1.3226   -0.7667 C   0  0  0  0  0  0  0  0  0  0  0  0
   -1.9065   -2.2679   -0.2802 C   0  0  0  0  0  0  0  0  0  0  0  0
   -0.6964   -0.1814   -5.0576 H   0  0  0  0  0  0  0  0  0  0  0  0
    0.5572   -0.1686   -0.9383 H   0  0  0  0  0  0  0  0  0  0  0  0
   -2.3777    1.2151   -1.1172 H   0  0  0  0  0  0  0  0  0  0  0  0
   -0.8018    2.0193   -1.2111 H   0  0  0  0  0  0  0  0  0  0  0  0
   -1.2872    1.1823    0.2788 H   0  0  0  0  0  0  0  0  0  0  0  0
   -2.3939   -3.1083    0.1523 H   0  0  0  0  0  0  0  0  0  0  0  0
    2.2491   -1.6473   -0.3546 C   0  0  0  0  0  0  0  0  0  0  0  0
    1.8080   -0.1958   -0.5461 C   0  0  0  0  0  0  0  0  0  0  0  0
    1.0710    0.3383    0.6539 C   0  0  0  0  0  0  0  0  0  0  0  0
    1.7578    0.9460    1.7001 C   0  0  0  0  0  0  0  0  0  0  0  0
    1.0878    1.3976    2.8266 C   0  0  0  0  0  0  0  0  0  0  0  0
   -0.2871    1.2474    2.9252 C   0  0  0  0  0  0  0  0  0  0  0  0
   -0.9841    0.6443    1.8893 C   0  0  0  0  0  0  0  0  0  0  0  0
   -0.3084    0.1948    0.7653 C   0  0  0  0  0  0  0  0  0  0  0  0
    1.3870   -2.2940   -0.1814 H   0  0  0  0  0  0  0  0  0  0  0  0
    2.9114   -1.7397    0.5082 H   0  0  0  0  0  0  0  0  0  0  0  0
    2.7807   -2.0150   -1.2340 H   0  0  0  0  0  0  0  0  0  0  0  0
    2.6839    0.4271   -0.7424 H   0  0  0  0  0  0  0  0  0  0  0  0
    2.8329    1.0698    1.6289 H   0  0  0  0  0  0  0  0  0  0  0  0
    1.6406    1.8714    3.6284 H   0  0  0  0  0  0  0  0  0  0  0  0
   -0.8130    1.6019    3.8026 H   0  0  0  0  0  0  0  0  0  0  0  0
   -2.0587    0.5264    1.9548 H   0  0  0  0  0  0  0  0  0  0  0  0
   -0.8608   -0.2732   -0.0422 H   0  0  0  0  0  0  0  0  0  0  0  0
  1  2  2  0
  1  7  1  0
  2  3  2  0
  3  5  1  0
  4  9  1  0
  4 10  1  0
  4 11  1  0
  5  6  3  0
  6 12  1  0
  8 14  1  0
 13 14  1  0
 13 21  1  0
 13 22  1  0
 13 23  1  0
 14 15  1  0
 14 24  1  0
 15 16  2  0
 15 20  1  0
 16 17  1  0
 16 25  1  0
 17 18  2  0
 17 26  1  0
 18 19  1  0
 18 27  1  0
 19 20  2  0
 19 28  1  0
 20 29  1  0
M  CHG  2   1   1   3  -1
M  RAD  1   4   2
M  END
>  <reaction>  (10) 
rxn_1404

>  <mol_properties>  (10) 
{"1": {"label": "*0", "atom_type": "Ct"}, "2": {"label": "*1", "atom_type": "Cs"}, "7": {"label": "*2", "atom_type": "H0"}, "13": {"label": "*3", "atom_type": "Cd"}, "14": {"label": "*4", "atom_type": "Cd"}}

>  <type>  (10) 
unop_6

>  <geom_source>  (10) 
Heuristics

$$$$

     RDKit          3D

 29 27  0  0  0  0  0  0  0  0999 V2000
   -0.7960   -0.7078   -3.7121 C   0  0  0  0  0  3  0  0  0  0  0  0
   -0.7960   -0.7078   -2.5159 C   0  0  0  0  0  0  0  0  0  0  0  0
   -0.7960   -0.6677   -1.0494 C   0  0  0  0  0  3  0  0  0  0  0  0
   -1.4341    0.6315   -0.5274 C   0  0  0  0  0  3  0  0  0  0  0  0
   -1.4579   -1.8490   -0.4846 C   0  0  0  0  0  0  0  0  0  0  0  0
   -2.0061   -2.7943    0.0019 C   0  0  0  0  0  0  0  0  0  0  0  0
   -0.7960   -0.7078   -4.7755 H   0  0  0  0  0  0  0  0  0  0  0  0
    0.4576   -0.6950   -0.6562 H   0  0  0  0  0  0  0  0  0  0  0  0
   -2.4773    0.6887   -0.8351 H   0  0  0  0  0  0  0  0  0  0  0  0
   -0.9014    1.4929   -0.9290 H   0  0  0  0  0  0  0  0  0  0  0  0
   -1.3869    0.6559    0.5609 H   0  0  0  0  0  0  0  0  0  0  0  0
   -2.4935   -3.6347    0.4344 H   0  0  0  0  0  0  0  0  0  0  0  0
    1.9402   -1.9553    0.6100 C   0  0  0  0  0  0  0  0  0  0  0  0
    1.7083   -0.7222   -0.2640 C   0  0  0  0  0  0  0  0  0  0  0  0
    1.1167    0.4238    0.5138 C   0  0  0  0  0  0  0  0  0  0  0  0
    1.9352    1.3439    1.1613 C   0  0  0  0  0  0  0  0  0  0  0  0
    1.3941    2.3732    1.9159 C   0  0  0  0  0  0  0  0  0  0  0  0
    0.0184    2.4993    2.0357 C   0  0  0  0  0  0  0  0  0  0  0  0
   -0.8089    1.5896    1.3947 C   0  0  0  0  0  0  0  0  0  0  0  0
   -0.2618    0.5624    0.6415 C   0  0  0  0  0  0  0  0  0  0  0  0
    1.0018   -2.3019    1.0468 H   0  0  0  0  0  0  0  0  0  0  0  0
    2.6226   -1.7253    1.4303 H   0  0  0  0  0  0  0  0  0  0  0  0
    2.3688   -2.7734    0.0284 H   0  0  0  0  0  0  0  0  0  0  0  0
    2.6557   -0.4094   -0.7094 H   0  0  0  0  0  0  0  0  0  0  0  0
    3.0121    1.2536    1.0698 H   0  0  0  0  0  0  0  0  0  0  0  0
    2.0486    3.0813    2.4091 H   0  0  0  0  0  0  0  0  0  0  0  0
   -0.4066    3.3040    2.6220 H   0  0  0  0  0  0  0  0  0  0  0  0
   -1.8847    1.6822    1.4784 H   0  0  0  0  0  0  0  0  0  0  0  0
   -0.9154   -0.1434    0.1406 H   0  0  0  0  0  0  0  0  0  0  0  0
  1  2  2  0
  1  7  1  0
  2  3  2  0
  3  5  1  0
  4  9  1  0
  4 10  1  0
  4 11  1  0
  5  6  3  0
  6 12  1  0
  8 14  1  0
 13 14  1  0
 13 21  1  0
 13 22  1  0
 13 23  1  0
 14 15  1  0
 14 24  1  0
 15 16  2  0
 15 20  1  0
 16 17  1  0
 16 25  1  0
 17 18  2  0
 17 26  1  0
 18 19  1  0
 18 27  1  0
 19 20  2  0
 19 28  1  0
 20 29  1  0
M  CHG  2   1   1   3  -1
M  RAD  1   4   2
M  END
>  <reaction>  (11) 
rxn_1404

>  <mol_properties>  (11) 
{"1": {"label": "*0", "atom_type": "Ct"}, "2": {"label": "*1", "atom_type": "Cs"}, "7": {"label": "*2", "atom_type": "H0"}, "13": {"label": "*3", "atom_type": "Cd"}, "14": {"label": "*4", "atom_type": "Cd"}}

>  <type>  (11) 
unop_7

>  <geom_source>  (11) 
Heuristics

$$$$

     RDKit          3D

 29 28  0  0  0  0  0  0  0  0999 V2000
   -2.2260    0.8125   -2.9177 C   0  0  0  0  0  0  0  0  0  0  0  0
   -2.2260    0.8125   -1.7215 C   0  0  0  0  0  0  0  0  0  0  0  0
   -2.2260    0.8525   -0.2550 C   0  0  0  0  0  3  0  0  0  0  0  0
   -2.8641    2.1518    0.2670 C   0  0  0  0  0  0  0  0  0  0  0  0
   -2.8879   -0.3287    0.3098 C   0  0  0  0  0  0  0  0  0  0  0  0
   -3.4361   -1.2740    0.7963 C   0  0  0  0  0  0  0  0  0  0  0  0
   -2.2260    0.8125   -3.9811 H   0  0  0  0  0  0  0  0  0  0  0  0
   -0.9724    0.8253    0.1382 H   0  0  0  0  0  0  0  0  0  0  0  0
   -3.9073    2.2090   -0.0407 H   0  0  0  0  0  0  0  0  0  0  0  0
   -2.3314    3.0132   -0.1346 H   0  0  0  0  0  0  0  0  0  0  0  0
   -2.8169    2.1762    1.3552 H   0  0  0  0  0  0  0  0  0  0  0  0
   -3.9235   -2.1144    1.2288 H   0  0  0  0  0  0  0  0  0  0  0  0
    0.8068    2.2286    0.6431 C   0  0  0  0  0  0  0  0  0  0  0  0
    0.2783    0.7981    0.5304 C   0  0  0  0  0  0  0  0  0  0  0  0
    1.3898   -0.2134    0.4315 C   0  0  0  0  0  0  0  0  0  0  0  0
    1.9472   -0.7743    1.5762 C   0  0  0  0  0  0  0  0  0  0  0  0
    3.0010   -1.6711    1.4910 C   0  0  0  0  0  0  0  0  0  0  0  0
    3.5169   -2.0226    0.2529 C   0  0  0  0  0  0  0  0  0  0  0  0
    2.9701   -1.4716   -0.8961 C   0  0  0  0  0  0  0  0  0  0  0  0
    1.9164   -0.5755   -0.8043 C   0  0  0  0  0  0  0  0  0  0  0  0
    1.4124    2.4869   -0.2276 H   0  0  0  0  0  0  0  0  0  0  0  0
    1.4351    2.3402    1.5287 H   0  0  0  0  0  0  0  0  0  0  0  0
   -0.0132    2.9453    0.7136 H   0  0  0  0  0  0  0  0  0  0  0  0
   -0.3441    0.5715    1.3993 H   0  0  0  0  0  0  0  0  0  0  0  0
    1.5470   -0.5066    2.5480 H   0  0  0  0  0  0  0  0  0  0  0  0
    3.4182   -2.0993    2.3940 H   0  0  0  0  0  0  0  0  0  0  0  0
    4.3379   -2.7249    0.1836 H   0  0  0  0  0  0  0  0  0  0  0  0
    3.3631   -1.7433   -1.8680 H   0  0  0  0  0  0  0  0  0  0  0  0
    1.4919   -0.1511   -1.7076 H   0  0  0  0  0  0  0  0  0  0  0  0
  1  2  3  0
  1  7  1  0
  2  3  1  0
  3  4  1  0
  3  5  1  0
  4  9  1  0
  4 10  1  0
  4 11  1  0
  5  6  3  0
  6 12  1  0
  8 14  1  0
 13 14  1  0
 13 21  1  0
 13 22  1  0
 13 23  1  0
 14 15  1  0
 14 24  1  0
 15 16  2  0
 15 20  1  0
 16 17  1  0
 16 25  1  0
 17 18  2  0
 17 26  1  0
 18 19  1  0
 18 27  1  0
 19 20  2  0
 19 28  1  0
 20 29  1  0
M  RAD  1   3   2
M  END
>  <reaction>  (12) 
rxn_1404

>  <mol_properties>  (12) 
{"1": {"label": "*0", "atom_type": "Ct"}, "2": {"label": "*1", "atom_type": "Cs"}, "7": {"label": "*2", "atom_type": "H0"}, "13": {"label": "*3", "atom_type": "Cd"}, "14": {"label": "*4", "atom_type": "Cd"}}

>  <type>  (12) 
unop_8

>  <geom_source>  (12) 
Heuristics

$$$$

     RDKit          3D

 29 28  0  0  0  0  0  0  0  0999 V2000
   -1.1110    0.8604   -3.9071 C   0  0  0  0  0  0  0  0  0  0  0  0
   -1.1110    0.8604   -2.7109 C   0  0  0  0  0  0  0  0  0  0  0  0
   -1.1110    0.9005   -1.2444 C   0  0  0  0  0  3  0  0  0  0  0  0
   -1.7490    2.1997   -0.7224 C   0  0  0  0  0  0  0  0  0  0  0  0
   -1.7729   -0.2808   -0.6796 C   0  0  0  0  0  0  0  0  0  0  0  0
   -2.3211   -1.2261   -0.1931 C   0  0  0  0  0  0  0  0  0  0  0  0
   -1.1110    0.8604   -4.9706 H   0  0  0  0  0  0  0  0  0  0  0  0
    0.1426    0.8732   -0.8513 H   0  0  0  0  0  0  0  0  0  0  0  0
   -2.7923    2.2569   -1.0302 H   0  0  0  0  0  0  0  0  0  0  0  0
   -1.2164    3.0611   -1.1241 H   0  0  0  0  0  0  0  0  0  0  0  0
   -1.7019    2.2241    0.3658 H   0  0  0  0  0  0  0  0  0  0  0  0
   -2.8085   -2.0665    0.2394 H   0  0  0  0  0  0  0  0  0  0  0  0
    2.2290    0.0712   -1.4786 C   0  0  0  0  0  0  0  0  0  0  0  0
    1.3934    0.8460   -0.4590 C   0  0  0  0  0  0  0  0  0  0  0  0
    1.1120    0.0367    0.7795 C   0  0  0  0  0  0  0  0  0  0  0  0
    1.9910    0.0546    1.8579 C   0  0  0  0  0  0  0  0  0  0  0  0
    1.7587   -0.7244    2.9809 C   0  0  0  0  0  0  0  0  0  0  0  0
    0.6378   -1.5382    3.0433 C   0  0  0  0  0  0  0  0  0  0  0  0
   -0.2469   -1.5650    1.9759 C   0  0  0  0  0  0  0  0  0  0  0  0
   -0.0091   -0.7837    0.8557 C   0  0  0  0  0  0  0  0  0  0  0  0
    1.7136   -0.8397   -1.7889 H   0  0  0  0  0  0  0  0  0  0  0  0
    3.1892   -0.2212   -1.0495 H   0  0  0  0  0  0  0  0  0  0  0  0
    2.4216    0.6743   -2.3675 H   0  0  0  0  0  0  0  0  0  0  0  0
    1.9172    1.7642   -0.1828 H   0  0  0  0  0  0  0  0  0  0  0  0
    2.8683    0.6910    1.8176 H   0  0  0  0  0  0  0  0  0  0  0  0
    2.4533   -0.6931    3.8112 H   0  0  0  0  0  0  0  0  0  0  0  0
    0.4527   -2.1452    3.9204 H   0  0  0  0  0  0  0  0  0  0  0  0
   -1.1276   -2.1940    2.0169 H   0  0  0  0  0  0  0  0  0  0  0  0
   -0.7073   -0.8076    0.0261 H   0  0  0  0  0  0  0  0  0  0  0  0
  1  2  3  0
  1  7  1  0
  2  3  1  0
  3  4  1  0
  3  5  1  0
  4  9  1  0
  4 10  1  0
  4 11  1  0
  5  6  3  0
  6 12  1  0
  8 14  1  0
 13 14  1  0
 13 21  1  0
 13 22  1  0
 13 23  1  0
 14 15  1  0
 14 24  1  0
 15 16  2  0
 15 20  1  0
 16 17  1  0
 16 25  1  0
 17 18  2  0
 17 26  1  0
 18 19  1  0
 18 27  1  0
 19 20  2  0
 19 28  1  0
 20 29  1  0
M  RAD  1   3   2
M  END
>  <reaction>  (13) 
rxn_1404

>  <mol_properties>  (13) 
{"1": {"label": "*0", "atom_type": "Ct"}, "2": {"label": "*1", "atom_type": "Cs"}, "7": {"label": "*2", "atom_type": "H0"}, "13": {"label": "*3", "atom_type": "Cd"}, "14": {"label": "*4", "atom_type": "Cd"}}

>  <type>  (13) 
unop_9

>  <geom_source>  (13) 
Heuristics

$$$$

     RDKit          3D

 29 28  0  0  0  0  0  0  0  0999 V2000
   -2.0944    0.9526   -3.1499 C   0  0  0  0  0  0  0  0  0  0  0  0
   -2.0944    0.9526   -1.9537 C   0  0  0  0  0  0  0  0  0  0  0  0
   -2.0944    0.9927   -0.4872 C   0  0  0  0  0  3  0  0  0  0  0  0
   -2.7325    2.2919    0.0348 C   0  0  0  0  0  0  0  0  0  0  0  0
   -2.7563   -0.1885    0.0776 C   0  0  0  0  0  0  0  0  0  0  0  0
   -3.3045   -1.1338    0.5641 C   0  0  0  0  0  0  0  0  0  0  0  0
   -2.0944    0.9526   -4.2133 H   0  0  0  0  0  0  0  0  0  0  0  0
   -0.8408    0.9655   -0.0940 H   0  0  0  0  0  0  0  0  0  0  0  0
   -3.7757    2.3492   -0.2729 H   0  0  0  0  0  0  0  0  0  0  0  0
   -2.1999    3.1534   -0.3668 H   0  0  0  0  0  0  0  0  0  0  0  0
   -2.6853    2.3164    1.1230 H   0  0  0  0  0  0  0  0  0  0  0  0
   -3.7919   -1.9742    0.9966 H   0  0  0  0  0  0  0  0  0  0  0  0
    1.1477    2.1504   -0.2716 C   0  0  0  0  0  0  0  0  0  0  0  0
    0.4099    0.9383    0.2982 C   0  0  0  0  0  0  0  0  0  0  0  0
    1.3361   -0.2196    0.5625 C   0  0  0  0  0  0  0  0  0  0  0  0
    1.9829   -0.3500    1.7874 C   0  0  0  0  0  0  0  0  0  0  0  0
    2.8713   -1.3889    2.0182 C   0  0  0  0  0  0  0  0  0  0  0  0
    3.1284   -2.3187    1.0221 C   0  0  0  0  0  0  0  0  0  0  0  0
    2.4898   -2.2010   -0.2031 C   0  0  0  0  0  0  0  0  0  0  0  0
    1.6025   -1.1598   -0.4278 C   0  0  0  0  0  0  0  0  0  0  0  0
    1.6376    1.8973   -1.2137 H   0  0  0  0  0  0  0  0  0  0  0  0
    1.9183    2.4948    0.4206 H   0  0  0  0  0  0  0  0  0  0  0  0
    0.4598    2.9774   -0.4559 H   0  0  0  0  0  0  0  0  0  0  0  0
   -0.0922    1.2221    1.2261 H   0  0  0  0  0  0  0  0  0  0  0  0
    1.7846    0.3716    2.5724 H   0  0  0  0  0  0  0  0  0  0  0  0
    3.3616   -1.4747    2.9800 H   0  0  0  0  0  0  0  0  0  0  0  0
    3.8195   -3.1326    1.2010 H   0  0  0  0  0  0  0  0  0  0  0  0
    2.6805   -2.9247   -0.9859 H   0  0  0  0  0  0  0  0  0  0  0  0
    1.1045   -1.0762   -1.3876 H   0  0  0  0  0  0  0  0  0  0  0  0
  1  2  3  0
  1  7  1  0
  2  3  1  0
  3  4  1  0
  3  5  1  0
  4  9  1  0
  4 10  1  0
  4 11  1  0
  5  6  3  0
  6 12  1  0
  8 14  1  0
 13 14  1  0
 13 21  1  0
 13 22  1  0
 13 23  1  0
 14 15  1  0
 14 24  1  0
 15 16  2  0
 15 20  1  0
 16 17  1  0
 16 25  1  0
 17 18  2  0
 17 26  1  0
 18 19  1  0
 18 27  1  0
 19 20  2  0
 19 28  1  0
 20 29  1  0
M  RAD  1   3   2
M  END
>  <reaction>  (14) 
rxn_1404

>  <mol_properties>  (14) 
{"1": {"label": "*0", "atom_type": "Ct"}, "2": {"label": "*1", "atom_type": "Cs"}, "7": {"label": "*2", "atom_type": "H0"}, "13": {"label": "*3", "atom_type": "Cd"}, "14": {"label": "*4", "atom_type": "Cd"}}

>  <type>  (14) 
unop_10

>  <geom_source>  (14) 
Heuristics

$$$$

     RDKit          3D

 29 27  0  0  0  0  0  0  0  0999 V2000
   -1.1797   -1.0499   -3.2189 C   0  0  0  0  0  3  0  0  0  0  0  0
   -1.1797   -1.0499   -2.0228 C   0  0  0  0  0  0  0  0  0  0  0  0
   -1.1797   -1.0098   -0.5562 C   0  0  0  0  0  3  0  0  0  0  0  0
   -1.8178    0.2894   -0.0342 C   0  0  0  0  0  0  0  0  0  0  0  0
   -1.8416   -2.1910    0.0086 C   0  0  0  0  0  0  0  0  0  0  0  0
   -2.3898   -3.1363    0.4950 C   0  0  0  0  0  0  0  0  0  0  0  0
   -1.1797   -1.0499   -4.2824 H   0  0  0  0  0  0  0  0  0  0  0  0
    0.0739   -1.0370   -0.1631 H   0  0  0  0  0  0  0  0  0  0  0  0
   -2.8610    0.3467   -0.3420 H   0  0  0  0  0  0  0  0  0  0  0  0
   -1.2852    1.1508   -0.4359 H   0  0  0  0  0  0  0  0  0  0  0  0
   -1.7706    0.3139    1.0540 H   0  0  0  0  0  0  0  0  0  0  0  0
   -2.8772   -3.9767    0.9276 H   0  0  0  0  0  0  0  0  0  0  0  0
    1.4150   -1.7514    1.5922 C   0  0  0  0  0  0  0  0  0  0  0  0
    1.3246   -1.0642    0.2292 C   0  0  0  0  0  0  0  0  0  0  0  0
    1.2144    0.4327    0.3524 C   0  0  0  0  0  0  0  0  0  0  0  0
    2.3537    1.2299    0.4008 C   0  0  0  0  0  0  0  0  0  0  0  0
    2.2572    2.6036    0.5603 C   0  0  0  0  0  0  0  0  0  0  0  0
    1.0130    3.2050    0.6747 C   0  0  0  0  0  0  0  0  0  0  0  0
   -0.1306    2.4224    0.6272 C   0  0  0  0  0  0  0  0  0  0  0  0
   -0.0276    1.0491    0.4675 C   0  0  0  0  0  3  0  0  0  0  0  0
    0.5311   -1.5335    2.1946 H   0  0  0  0  0  0  0  0  0  0  0  0
    2.2880   -1.4001    2.1454 H   0  0  0  0  0  0  0  0  0  0  0  0
    1.4941   -2.8342    1.4811 H   0  0  0  0  0  0  0  0  0  0  0  0
    2.2067   -1.3169   -0.3641 H   0  0  0  0  0  0  0  0  0  0  0  0
    3.3302    0.7671    0.3089 H   0  0  0  0  0  0  0  0  0  0  0  0
    3.1561    3.2067    0.5917 H   0  0  0  0  0  0  0  0  0  0  0  0
    0.9350    4.2779    0.7963 H   0  0  0  0  0  0  0  0  0  0  0  0
   -1.1071    2.8831    0.7111 H   0  0  0  0  0  0  0  0  0  0  0  0
   -0.9267    0.4439    0.4282 H   0  0  0  0  0  0  0  0  0  0  0  0
  1  2  2  0
  1  7  1  0
  2  3  2  0
  3  5  1  0
  4  9  1  0
  4 10  1  0
  4 11  1  0
  4 29  1  0
  5  6  3  0
  6 12  1  0
  8 14  1  0
 13 14  1  0
 13 21  1  0
 13 22  1  0
 13 23  1  0
 14 15  1  0
 14 24  1  0
 15 16  2  0
 15 20  1  0
 16 17  1  0
 16 25  1  0
 17 18  2  0
 17 26  1  0
 18 19  1  0
 18 27  1  0
 19 20  2  0
 19 28  1  0
M  CHG  2   1   1   3  -1
M  RAD  1  20   2
M  END
>  <reaction>  (15) 
rxn_1404

>  <mol_properties>  (15) 
{"1": {"label": "*0", "atom_type": "Ct"}, "2": {"label": "*1", "atom_type": "Cs"}, "7": {"label": "*2", "atom_type": "H0"}, "13": {"label": "*3", "atom_type": "Cd"}, "14": {"label": "*4", "atom_type": "Cd"}}

>  <type>  (15) 
unop_11

>  <geom_source>  (15) 
Heuristics

$$$$

     RDKit          3D

 29 28  0  0  0  0  0  0  0  0999 V2000
   -1.5236    1.0854   -3.6305 C   0  0  0  0  0  0  0  0  0  0  0  0
   -1.5236    1.0854   -2.4343 C   0  0  0  0  0  0  0  0  0  0  0  0
   -1.5236    1.1255   -0.9678 C   0  0  0  0  0  3  0  0  0  0  0  0
   -2.1617    2.4247   -0.4458 C   0  0  0  0  0  0  0  0  0  0  0  0
   -2.1855   -0.0557   -0.4030 C   0  0  0  0  0  0  0  0  0  0  0  0
   -2.7337   -1.0010    0.0835 C   0  0  0  0  0  0  0  0  0  0  0  0
   -1.5236    1.0854   -4.6939 H   0  0  0  0  0  0  0  0  0  0  0  0
   -0.2700    1.0983   -0.5746 H   0  0  0  0  0  0  0  0  0  0  0  0
   -3.2049    2.4820   -0.7535 H   0  0  0  0  0  0  0  0  0  0  0  0
   -1.6290    3.2861   -0.8474 H   0  0  0  0  0  0  0  0  0  0  0  0
   -2.1145    2.4492    0.6425 H   0  0  0  0  0  0  0  0  0  0  0  0
   -3.2211   -1.8414    0.5160 H   0  0  0  0  0  0  0  0  0  0  0  0
    1.8959    1.0099   -1.4059 C   0  0  0  0  0  0  0  0  0  0  0  0
    0.9807    1.0711   -0.1824 C   0  0  0  0  0  0  0  0  0  0  0  0
    1.1908   -0.0971    0.7448 C   0  0  0  0  0  0  0  0  0  0  0  0
    2.1394   -0.0391    1.7609 C   0  0  0  0  0  0  0  0  0  0  0  0
    2.3675   -1.1288    2.5871 C   0  0  0  0  0  0  0  0  0  0  0  0
    1.6469   -2.2999    2.4088 C   0  0  0  0  0  0  0  0  0  0  0  0
    0.6979   -2.3709    1.4004 C   0  0  0  0  0  0  0  0  0  0  0  0
    0.4743   -1.2779    0.5775 C   0  0  0  0  0  0  0  0  0  0  0  0
    1.7166    0.0976   -1.9778 H   0  0  0  0  0  0  0  0  0  0  0  0
    2.9451    1.0115   -1.1047 H   0  0  0  0  0  0  0  0  0  0  0  0
    1.7283    1.8641   -2.0642 H   0  0  0  0  0  0  0  0  0  0  0  0
    1.1604    2.0028    0.3593 H   0  0  0  0  0  0  0  0  0  0  0  0
    2.7047    0.8745    1.9085 H   0  0  0  0  0  0  0  0  0  0  0  0
    3.1078   -1.0619    3.3747 H   0  0  0  0  0  0  0  0  0  0  0  0
    1.8212   -3.1512    3.0546 H   0  0  0  0  0  0  0  0  0  0  0  0
    0.1267   -3.2796    1.2560 H   0  0  0  0  0  0  0  0  0  0  0  0
   -0.2719   -1.3399   -0.2071 H   0  0  0  0  0  0  0  0  0  0  0  0
  1  2  3  0
  1  7  1  0
  2  3  1  0
  3  4  1  0
  3  5  1  0
  4  9  1  0
  4 10  1  0
  4 11  1  0
  5  6  3  0
  6 12  1  0
  8 14  1  0
 13 14  1  0
 13 21  1  0
 13 22  1  0
 13 23  1  0
 14 15  1  0
 14 24  1  0
 15 16  2  0
 15 20  1  0
 16 17  1  0
 16 25  1  0
 17 18  2  0
 17 26  1  0
 18 19  1  0
 18 27  1  0
 19 20  2  0
 19 28  1  0
 20 29  1  0
M  RAD  1   3   2
M  END
>  <reaction>  (16) 
rxn_1404

>  <mol_properties>  (16) 
{"1": {"label": "*0", "atom_type": "Ct"}, "2": {"label": "*1", "atom_type": "Cs"}, "7": {"label": "*2", "atom_type": "H0"}, "13": {"label": "*3", "atom_type": "Cd"}, "14": {"label": "*4", "atom_type": "Cd"}}

>  <type>  (16) 
unop_12

>  <geom_source>  (16) 
Heuristics

$$$$

     RDKit          3D

 29 28  0  0  0  0  0  0  0  0999 V2000
   -0.1257   -1.0522   -0.5984 C   0  0  0  0  0  0  0  0  0  0  0  0
   -0.1312   -2.4769   -0.0573 C   0  0  0  0  0  0  0  0  0  0  0  0
    1.8060    1.9892   -0.0316 C   0  0  0  0  0  0  0  0  0  0  0  0
   -1.3121   -0.2824   -0.0879 C   0  0  0  0  0  0  0  0  0  0  0  0
    1.9631    0.5080   -0.3631 C   0  0  0  0  0  0  0  0  0  0  0  0
   -1.2227    0.4355    1.1155 C   0  0  0  0  0  3  0  0  0  0  0  0
   -2.5332   -0.3162   -0.7818 C   0  0  0  0  0  0  0  0  0  0  0  0
   -2.3343    1.1280    1.6061 C   0  0  0  0  0  0  0  0  0  0  0  0
   -3.5427    1.1007    0.9040 C   0  0  0  0  0  0  0  0  0  0  0  0
   -3.6425    0.3776   -0.2879 C   0  0  0  0  0  0  0  0  0  0  0  0
    2.7464    0.3310   -1.5919 C   0  0  0  0  0  0  0  0  0  0  0  0
    2.6115   -0.2059    0.7435 C   0  0  0  0  0  0  0  0  0  0  0  0
    3.3885    0.1857   -2.6022 C   0  0  0  0  0  0  0  0  0  0  0  0
    3.1426   -0.7927    1.6534 C   0  0  0  0  0  0  0  0  0  0  0  0
   -0.1364   -1.0800   -1.7098 H   0  0  0  0  0  0  0  0  0  0  0  0
    1.0299   -0.4355   -0.2149 H   0  0  0  0  0  0  0  0  0  0  0  0
   -0.0860   -2.4655    1.0525 H   0  0  0  0  0  0  0  0  0  0  0  0
   -1.0492   -3.0110   -0.3835 H   0  0  0  0  0  0  0  0  0  0  0  0
    0.7556   -3.0216   -0.4432 H   0  0  0  0  0  0  0  0  0  0  0  0
    1.1883    2.1079    0.8840 H   0  0  0  0  0  0  0  0  0  0  0  0
    2.7968    2.4660    0.1352 H   0  0  0  0  0  0  0  0  0  0  0  0
    1.2895    2.5102   -0.8658 H   0  0  0  0  0  0  0  0  0  0  0  0
   -0.2950    0.4574    1.6740 H   0  0  0  0  0  0  0  0  0  0  0  0
   -2.2600    1.6831    2.5322 H   0  0  0  0  0  0  0  0  0  0  0  0
   -2.6255   -0.8796   -1.7022 H   0  0  0  0  0  0  0  0  0  0  0  0
   -4.4024    1.6362    1.2856 H   0  0  0  0  0  0  0  0  0  0  0  0
   -4.5804    0.3521   -0.8277 H   0  0  0  0  0  0  0  0  0  0  0  0
    3.9521    0.0584   -3.4888 H   0  0  0  0  0  0  0  0  0  0  0  0
    3.6088   -1.3075    2.4519 H   0  0  0  0  0  0  0  0  0  0  0  0
  1  2  1  0
  1  4  2  3
  1 15  1  0
  2 17  1  0
  2 18  1  0
  2 19  1  0
  3  5  1  0
  3 20  1  0
  3 21  1  0
  3 22  1  0
  4  6  1  0
  4  7  1  0
  5 11  1  0
  5 12  1  0
  5 16  1  0
  6  8  1  0
  6 23  1  0
  7 10  2  0
  7 25  1  0
  8  9  2  0
  8 24  1  0
  9 10  1  0
  9 26  1  0
 10 27  1  0
 11 13  3  0
 12 14  3  0
 13 28  1  0
 14 29  1  0
M  RAD  1   6   2
M  END
>  <reaction>  (17) 
rxn_1404

>  <mol_properties>  (17) 
{"1": {"label": "*0", "atom_type": "Ct"}, "2": {"label": "*1", "atom_type": "Cs"}, "7": {"label": "*2", "atom_type": "H0"}, "13": {"label": "*3", "atom_type": "Cd"}, "14": {"label": "*4", "atom_type": "Cd"}}

>  <type>  (17) 
unop_13

>  <geom_source>  (17) 
AutoTST

$$$$

     RDKit          3D

 29 28  0  0  0  0  0  0  0  0999 V2000
   -1.8779    1.0635   -3.3657 C   0  0  0  0  0  0  0  0  0  0  0  0
   -1.8779    1.0635   -2.1695 C   0  0  0  0  0  0  0  0  0  0  0  0
   -1.8779    1.1036   -0.7030 C   0  0  0  0  0  3  0  0  0  0  0  0
   -2.5160    2.4028   -0.1810 C   0  0  0  0  0  0  0  0  0  0  0  0
   -2.5398   -0.0776   -0.1382 C   0  0  0  0  0  0  0  0  0  0  0  0
   -3.0880   -1.0229    0.3483 C   0  0  0  0  0  0  0  0  0  0  0  0
   -1.8779    1.0635   -4.4291 H   0  0  0  0  0  0  0  0  0  0  0  0
   -0.6243    1.0763   -0.3098 H   0  0  0  0  0  0  0  0  0  0  0  0
   -3.5592    2.4601   -0.4887 H   0  0  0  0  0  0  0  0  0  0  0  0
   -1.9833    3.2642   -0.5826 H   0  0  0  0  0  0  0  0  0  0  0  0
   -2.4688    2.4272    0.9073 H   0  0  0  0  0  0  0  0  0  0  0  0
   -3.5754   -1.8634    0.7808 H   0  0  0  0  0  0  0  0  0  0  0  0
    1.5057    1.7153   -0.9765 C   0  0  0  0  0  0  0  0  0  0  0  0
    0.6264    1.0492    0.0824 C   0  0  0  0  0  0  0  0  0  0  0  0
    1.2718   -0.1793    0.6678 C   0  0  0  0  0  0  0  0  0  0  0  0
    2.1064   -0.0864    1.7770 C   0  0  0  0  0  0  0  0  0  0  0  0
    2.7384   -1.2084    2.2905 C   0  0  0  0  0  0  0  0  0  0  0  0
    2.5448   -2.4476    1.6994 C   0  0  0  0  0  0  0  0  0  0  0  0
    1.7148   -2.5545    0.5938 C   0  0  0  0  0  0  0  0  0  0  0  0
    1.0856   -1.4289    0.0849 C   0  0  0  0  0  0  0  0  0  0  0  0
    1.7110    1.0264   -1.7980 H   0  0  0  0  0  0  0  0  0  0  0  0
    2.4641    2.0168   -0.5496 H   0  0  0  0  0  0  0  0  0  0  0  0
    1.0208    2.6023   -1.3877 H   0  0  0  0  0  0  0  0  0  0  0  0
    0.4143    1.7645    0.8806 H   0  0  0  0  0  0  0  0  0  0  0  0
    2.2603    0.8790    2.2467 H   0  0  0  0  0  0  0  0  0  0  0  0
    3.3812   -1.1152    3.1571 H   0  0  0  0  0  0  0  0  0  0  0  0
    3.0349   -3.3257    2.1003 H   0  0  0  0  0  0  0  0  0  0  0  0
    1.5536   -3.5187    0.1277 H   0  0  0  0  0  0  0  0  0  0  0  0
    0.4354   -1.5209   -0.7782 H   0  0  0  0  0  0  0  0  0  0  0  0
  1  2  3  0
  1  7  1  0
  2  3  1  0
  3  4  1  0
  3  5  1  0
  4  9  1  0
  4 10  1  0
  4 11  1  0
  5  6  3  0
  6 12  1  0
  8 14  1  0
 13 14  1  0
 13 21  1  0
 13 22  1  0
 13 23  1  0
 14 15  1  0
 14 24  1  0
 15 16  2  0
 15 20  1  0
 16 17  1  0
 16 25  1  0
 17 18  2  0
 17 26  1  0
 18 19  1  0
 18 27  1  0
 19 20  2  0
 19 28  1  0
 20 29  1  0
M  RAD  1   3   2
M  END
>  <reaction>  (18) 
rxn_1404

>  <mol_properties>  (18) 
{"1": {"label": "*0", "atom_type": "Ct"}, "2": {"label": "*1", "atom_type": "Cs"}, "7": {"label": "*2", "atom_type": "H0"}, "13": {"label": "*3", "atom_type": "Cd"}, "14": {"label": "*4", "atom_type": "Cd"}}

>  <type>  (18) 
unop_14

>  <geom_source>  (18) 
gaussian_log

$$$$
