
     RDKit          3D

 10  9  0  0  0  0  0  0  0  0999 V2000
    2.2738    0.0217   -0.0992 C   0  0  0  0  0  0  0  0  0  0  0  0
    1.1083    0.2960   -0.0695 C   0  0  0  0  0  0  0  0  0  0  0  0
   -0.3173    0.6046   -0.0227 C   0  0  0  0  0  0  0  0  0  0  0  0
   -1.1561   -0.5495    0.5292 C   0  0  0  0  0  0  0  0  0  0  0  0
    3.3097   -0.2166   -0.1277 H   0  0  0  0  0  0  0  0  0  0  0  0
   -0.6542    0.8617   -1.0302 H   0  0  0  0  0  0  0  0  0  0  0  0
   -0.4633    1.4978    0.5900 H   0  0  0  0  0  0  0  0  0  0  0  0
   -0.8485   -0.7997    1.5447 H   0  0  0  0  0  0  0  0  0  0  0  0
   -2.2115   -0.2752    0.5459 H   0  0  0  0  0  0  0  0  0  0  0  0
   -1.0409   -1.4407   -0.0879 H   0  0  0  0  0  0  0  0  0  0  0  0
  1  2  3  0
  1  5  1  0
  2  3  1  0
  3  4  1  0
  3  6  1  0
  3  7  1  0
  4  8  1  0
  4  9  1  0
  4 10  1  0
M  END
>  <reaction>  (1) 
rxn_1284

>  <mol_properties>  (1) 
{"2": {"label": "donator", "atom_type": "Cs"}, "5": {"label": "d_hydrogen", "atom_type": "H0"}}

>  <type>  (1) 
r1h

$$$$

     RDKit          3D

 12 11  0  0  0  0  0  0  0  0999 V2000
    2.7049    0.9350   -0.4404 S   0  0  0  0  0  1  0  0  0  0  0  0
    1.0313    1.0813   -0.4080 C   0  0  0  0  0  0  0  0  0  0  0  0
    0.1364    0.1019   -0.0473 C   0  0  0  0  0  0  0  0  0  0  0  0
    0.5360   -1.2679    0.3784 C   0  0  0  0  0  0  0  0  0  0  0  0
   -1.3304    0.3842   -0.0689 C   0  0  0  0  0  0  0  0  0  0  0  0
    0.6069    2.0398   -0.6990 H   0  0  0  0  0  0  0  0  0  0  0  0
    0.1578   -1.4699    1.3849 H   0  0  0  0  0  0  0  0  0  0  0  0
    0.0783   -2.0109   -0.2814 H   0  0  0  0  0  0  0  0  0  0  0  0
    1.6154   -1.3973    0.3689 H   0  0  0  0  0  0  0  0  0  0  0  0
   -1.8406   -0.3126   -0.7406 H   0  0  0  0  0  0  0  0  0  0  0  0
   -1.5514    1.4016   -0.3887 H   0  0  0  0  0  0  0  0  0  0  0  0
   -1.7610    0.2281    0.9247 H   0  0  0  0  0  0  0  0  0  0  0  0
  1  2  1  0
  2  3  2  3
  2  6  1  0
  3  4  1  0
  3  5  1  0
  4  7  1  0
  4  8  1  0
  4  9  1  0
  5 10  1  0
  5 11  1  0
  5 12  1  0
M  RAD  1   1   2
M  END
>  <reaction>  (2) 
rxn_1284

>  <mol_properties>  (2) 
{"2": {"label": "acceptor", "atom_type": "Cs"}}

>  <type>  (2) 
r2

$$$$

     RDKit          3D

 13 12  0  0  0  0  0  0  0  0999 V2000
    2.7452   -1.1134   -0.3601 S   0  0  0  0  0  0  0  0  0  0  0  0
    1.4120   -0.4899    0.2856 C   0  0  0  0  0  0  0  0  0  0  0  0
    0.1714   -0.0257   -0.4180 C   0  0  0  0  0  0  0  0  0  0  0  0
   -0.0717    1.4493   -0.0658 C   0  0  0  0  0  0  0  0  0  0  0  0
    0.1609   -0.2576   -1.9191 C   0  0  0  0  0  0  0  0  0  0  0  0
    1.3665   -0.3550    1.3690 H   0  0  0  0  0  0  0  0  0  0  0  0
   -0.6453   -0.6023    0.0382 H   0  0  0  0  0  0  0  0  0  0  0  0
    0.7161    2.0755   -0.4895 H   0  0  0  0  0  0  0  0  0  0  0  0
   -0.0915    1.6095    1.0136 H   0  0  0  0  0  0  0  0  0  0  0  0
   -1.0268    1.7797   -0.4755 H   0  0  0  0  0  0  0  0  0  0  0  0
    0.3131   -1.3093   -2.1616 H   0  0  0  0  0  0  0  0  0  0  0  0
    0.9567    0.3095   -2.4051 H   0  0  0  0  0  0  0  0  0  0  0  0
   -0.7945    0.0619   -2.3384 H   0  0  0  0  0  0  0  0  0  0  0  0
  1  2  2  0
  2  3  1  0
  2  6  1  0
  3  4  1  0
  3  5  1  0
  3  7  1  0
  4  8  1  0
  4  9  1  0
  4 10  1  0
  5 11  1  0
  5 12  1  0
  5 13  1  0
M  END
>  <reaction>  (3) 
rxn_1284

>  <mol_properties>  (3) 
{"0": {"label": "a_hydrogen", "atom_type": "H0"}, "3": {"label": "acceptor", "atom_type": "Cs"}}

>  <type>  (3) 
r2h

$$$$

     RDKit          3D

 22 20  0  0  0  0  0  0  0  0999 V2000
   -3.0125   -1.2845   -1.5099 C   0  0  0  0  0  0  0  0  0  0  0  0
   -2.4694   -0.3819   -0.9237 C   0  0  0  0  0  0  0  0  0  0  0  0
   -1.7800    0.6370   -0.2336 C   0  0  0  0  0  3  0  0  0  0  0  0
   -1.1120    1.7362   -1.0140 C   0  0  0  0  0  0  0  0  0  0  0  0
   -3.5109   -2.0680   -2.0284 H   0  0  0  0  0  0  0  0  0  0  0  0
   -0.6269   -0.0205    0.3347 H   0  0  0  0  0  0  0  0  0  0  0  0
   -2.2310    0.9340    0.7109 H   0  0  0  0  0  0  0  0  0  0  0  0
   -1.8496    2.4529   -1.3847 H   0  0  0  0  0  0  0  0  0  0  0  0
   -0.4101    2.2782   -0.3776 H   0  0  0  0  0  0  0  0  0  0  0  0
   -0.5737    1.3338   -1.8725 H   0  0  0  0  0  0  0  0  0  0  0  0
    1.1650    1.1546    2.7315 S   0  0  0  0  0  0  0  0  0  0  0  0
    1.1858    0.4031    1.2875 C   0  0  0  0  0  0  0  0  0  0  0  0
    0.3254   -0.6802    0.8415 C   0  0  0  0  0  0  0  0  0  0  0  0
    0.8382   -1.4745   -0.3432 C   0  0  0  0  0  0  0  0  0  0  0  0
   -0.3890   -1.5047    1.8869 C   0  0  0  0  0  0  0  0  0  0  0  0
    1.8732    0.7703    0.5229 H   0  0  0  0  0  0  0  0  0  0  0  0
    1.5696   -2.2192   -0.0181 H   0  0  0  0  0  0  0  0  0  0  0  0
    0.0172   -2.0023   -0.8316 H   0  0  0  0  0  0  0  0  0  0  0  0
    1.3169   -0.8293   -1.0821 H   0  0  0  0  0  0  0  0  0  0  0  0
   -1.1811   -2.0944    1.4221 H   0  0  0  0  0  0  0  0  0  0  0  0
   -0.8199   -0.8731    2.6623 H   0  0  0  0  0  0  0  0  0  0  0  0
    0.3115   -2.1918    2.3687 H   0  0  0  0  0  0  0  0  0  0  0  0
  1  2  3  0
  1  5  1  0
  2  3  1  0
  3  4  1  0
  3  7  1  0
  4  8  1  0
  4  9  1  0
  4 10  1  0
  6 13  1  0
 11 12  2  0
 12 13  1  0
 12 16  1  0
 13 14  1  0
 13 15  1  0
 14 17  1  0
 14 18  1  0
 14 19  1  0
 15 20  1  0
 15 21  1  0
 15 22  1  0
M  RAD  1   3   2
M  END
>  <reaction>  (4) 
rxn_1284

>  <mol_properties>  (4) 
{"1": {"label": "*4", "atom_type": "Ct"}, "2": {"label": "*3", "atom_type": "Cs"}, "5": {"label": "*2", "atom_type": "H0"}, "11": {"label": "*0", "atom_type": "CS"}, "12": {"label": "*1", "atom_type": "Cs"}}

>  <type>  (4) 
ts

$$$$

     RDKit          3D

 22 20  0  0  0  0  0  0  0  0999 V2000
   -1.4988    0.4121   -3.5046 C   0  0  0  0  0  0  0  0  0  0  0  0
   -1.4988    0.4121   -2.3069 C   0  0  0  0  0  0  0  0  0  0  0  0
   -1.4988    0.4403   -0.8478 C   0  0  0  0  0  0  0  0  0  0  0  0
   -1.4988    1.8617   -0.2822 C   0  0  0  0  0  0  0  0  0  0  0  0
   -1.4988    0.4121   -4.5679 H   0  0  0  0  0  0  0  0  0  0  0  0
   -0.4482   -0.2138   -0.4137 H   0  0  0  0  0  0  0  0  0  0  0  0
   -2.3743   -0.1048   -0.4860 H   0  0  0  0  0  0  0  0  0  0  0  0
   -2.3810    2.4095   -0.6136 H   0  0  0  0  0  0  0  0  0  0  0  0
   -1.4988    1.8344    0.8081 H   0  0  0  0  0  0  0  0  0  0  0  0
   -0.6166    2.4095   -0.6136 H   0  0  0  0  0  0  0  0  0  0  0  0
    1.2214    0.5276    2.3630 S   0  0  0  0  0  1  0  0  0  0  0  0
    1.3902    0.1345    0.8138 C   0  0  0  0  0  0  0  0  0  0  0  0
    0.6082   -0.8715    0.0227 C   0  0  0  0  0  0  0  0  0  0  0  0
    1.5829   -1.9065   -0.5582 C   0  0  0  0  0  0  0  0  0  0  0  0
   -0.5343   -1.5313    0.7757 C   0  0  0  0  0  0  0  0  0  0  0  0
    2.1710    0.6267    0.2289 H   0  0  0  0  0  0  0  0  0  0  0  0
    2.0303   -2.4981    0.2431 H   0  0  0  0  0  0  0  0  0  0  0  0
    1.0535   -2.5852   -1.2277 H   0  0  0  0  0  0  0  0  0  0  0  0
    2.3878   -1.4321   -1.1224 H   0  0  0  0  0  0  0  0  0  0  0  0
   -1.0766   -2.2067    0.1120 H   0  0  0  0  0  0  0  0  0  0  0  0
   -1.2334   -0.7926    1.1674 H   0  0  0  0  0  0  0  0  0  0  0  0
   -0.1590   -2.1089    1.6222 H   0  0  0  0  0  0  0  0  0  0  0  0
  1  2  3  0
  1  5  1  0
  2  3  1  0
  3  4  1  0
  3  6  1  0
  3  7  1  0
  4  8  1  0
  4  9  1  0
  4 10  1  0
 11 12  1  0
 12 13  2  3
 12 16  1  0
 13 14  1  0
 13 15  1  0
 14 17  1  0
 14 18  1  0
 14 19  1  0
 15 20  1  0
 15 21  1  0
 15 22  1  0
M  RAD  1  11   2
M  END
>  <reaction>  (5) 
rxn_1284

>  <mol_properties>  (5) 
{"1": {"label": "*4", "atom_type": "Ct"}, "2": {"label": "*3", "atom_type": "Cs"}, "5": {"label": "*2", "atom_type": "H0"}, "11": {"label": "*0", "atom_type": "CS"}, "12": {"label": "*1", "atom_type": "Cs"}}

>  <type>  (5) 
unop_1

>  <geom_source>  (5) 
Heuristics

$$$$

     RDKit          3D

 22 20  0  0  0  0  0  0  0  0999 V2000
   -1.9372    0.4333   -2.7249 C   0  0  0  0  0  0  0  0  0  0  0  0
   -1.9372    0.4333   -1.5272 C   0  0  0  0  0  0  0  0  0  0  0  0
   -1.9372    0.4615   -0.0680 C   0  0  0  0  0  0  0  0  0  0  0  0
   -1.9372    1.8829    0.4976 C   0  0  0  0  0  0  0  0  0  0  0  0
   -1.9372    0.4333   -3.7882 H   0  0  0  0  0  0  0  0  0  0  0  0
   -0.8866   -0.1926    0.3660 H   0  0  0  0  0  0  0  0  0  0  0  0
   -2.8127   -0.0835    0.2937 H   0  0  0  0  0  0  0  0  0  0  0  0
   -2.8194    2.4308    0.1661 H   0  0  0  0  0  0  0  0  0  0  0  0
   -1.9372    1.8556    1.5878 H   0  0  0  0  0  0  0  0  0  0  0  0
   -1.0549    2.4308    0.1661 H   0  0  0  0  0  0  0  0  0  0  0  0
    2.5039    0.2805   -0.2385 S   0  0  0  0  0  1  0  0  0  0  0  0
    1.2069   -0.6682   -0.2656 C   0  0  0  0  0  0  0  0  0  0  0  0
    0.1698   -0.8503    0.8025 C   0  0  0  0  0  0  0  0  0  0  0  0
    0.1144   -2.3363    1.1867 C   0  0  0  0  0  0  0  0  0  0  0  0
    0.3395    0.0424    2.0197 C   0  0  0  0  0  0  0  0  0  0  0  0
    1.0274   -1.2877   -1.1476 H   0  0  0  0  0  0  0  0  0  0  0  0
    1.0439   -2.6371    1.6742 H   0  0  0  0  0  0  0  0  0  0  0  0
   -0.7074   -2.5131    1.8816 H   0  0  0  0  0  0  0  0  0  0  0  0
   -0.0354   -2.9745    0.3141 H   0  0  0  0  0  0  0  0  0  0  0  0
   -0.4829   -0.1204    2.7182 H   0  0  0  0  0  0  0  0  0  0  0  0
    0.3570    1.0963    1.7424 H   0  0  0  0  0  0  0  0  0  0  0  0
    1.2765   -0.1770    2.5345 H   0  0  0  0  0  0  0  0  0  0  0  0
  1  2  3  0
  1  5  1  0
  2  3  1  0
  3  4  1  0
  3  6  1  0
  3  7  1  0
  4  8  1  0
  4  9  1  0
  4 10  1  0
 11 12  1  0
 12 13  2  3
 12 16  1  0
 13 14  1  0
 13 15  1  0
 14 17  1  0
 14 18  1  0
 14 19  1  0
 15 20  1  0
 15 21  1  0
 15 22  1  0
M  RAD  1  11   2
M  END
>  <reaction>  (6) 
rxn_1284

>  <mol_properties>  (6) 
{"1": {"label": "*4", "atom_type": "Ct"}, "2": {"label": "*3", "atom_type": "Cs"}, "5": {"label": "*2", "atom_type": "H0"}, "11": {"label": "*0", "atom_type": "CS"}, "12": {"label": "*1", "atom_type": "Cs"}}

>  <type>  (6) 
unop_2

>  <geom_source>  (6) 
Heuristics

$$$$

     RDKit          3D

 22 20  0  0  0  0  0  0  0  0999 V2000
   -1.3782    0.6993   -3.5655 C   0  0  0  0  0  0  0  0  0  0  0  0
   -1.3782    0.6993   -2.3678 C   0  0  0  0  0  0  0  0  0  0  0  0
   -1.3782    0.7276   -0.9087 C   0  0  0  0  0  0  0  0  0  0  0  0
   -1.3782    2.1489   -0.3431 C   0  0  0  0  0  0  0  0  0  0  0  0
   -1.3782    0.6993   -4.6288 H   0  0  0  0  0  0  0  0  0  0  0  0
   -0.3276    0.0734   -0.4746 H   0  0  0  0  0  0  0  0  0  0  0  0
   -2.2538    0.1825   -0.5470 H   0  0  0  0  0  0  0  0  0  0  0  0
   -2.2604    2.6968   -0.6745 H   0  0  0  0  0  0  0  0  0  0  0  0
   -1.3782    2.1216    0.7472 H   0  0  0  0  0  0  0  0  0  0  0  0
   -0.4960    2.6968   -0.6745 H   0  0  0  0  0  0  0  0  0  0  0  0
    0.7083   -0.4021    2.7505 S   0  0  0  0  0  1  0  0  0  0  0  0
    1.0837    0.0738    1.2620 C   0  0  0  0  0  0  0  0  0  0  0  0
    0.7287   -0.5843   -0.0382 C   0  0  0  0  0  0  0  0  0  0  0  0
    2.0243   -0.8992   -0.8005 C   0  0  0  0  0  0  0  0  0  0  0  0
   -0.1660   -1.8057    0.0847 C   0  0  0  0  0  0  0  0  0  0  0  0
    1.6853    0.9771    1.1352 H   0  0  0  0  0  0  0  0  0  0  0  0
    2.5994   -1.6624   -0.2724 H   0  0  0  0  0  0  0  0  0  0  0  0
    1.7905   -1.2772   -1.7964 H   0  0  0  0  0  0  0  0  0  0  0  0
    2.6533   -0.0143   -0.9122 H   0  0  0  0  0  0  0  0  0  0  0  0
   -0.4133   -2.1872   -0.9073 H   0  0  0  0  0  0  0  0  0  0  0  0
   -1.0926   -1.5706    0.6081 H   0  0  0  0  0  0  0  0  0  0  0  0
    0.3342   -2.5987    0.6433 H   0  0  0  0  0  0  0  0  0  0  0  0
  1  2  3  0
  1  5  1  0
  2  3  1  0
  3  4  1  0
  3  6  1  0
  3  7  1  0
  4  8  1  0
  4  9  1  0
  4 10  1  0
 11 12  1  0
 12 13  2  3
 12 16  1  0
 13 14  1  0
 13 15  1  0
 14 17  1  0
 14 18  1  0
 14 19  1  0
 15 20  1  0
 15 21  1  0
 15 22  1  0
M  RAD  1  11   2
M  END
>  <reaction>  (7) 
rxn_1284

>  <mol_properties>  (7) 
{"1": {"label": "*4", "atom_type": "Ct"}, "2": {"label": "*3", "atom_type": "Cs"}, "5": {"label": "*2", "atom_type": "H0"}, "11": {"label": "*0", "atom_type": "CS"}, "12": {"label": "*1", "atom_type": "Cs"}}

>  <type>  (7) 
unop_3

>  <geom_source>  (7) 
Heuristics

$$$$

     RDKit          3D

 22 20  0  0  0  0  0  0  0  0999 V2000
   -1.5683    1.2643   -2.8164 C   0  0  0  0  0  0  0  0  0  0  0  0
   -1.5683    1.2643   -1.6186 C   0  0  0  0  0  0  0  0  0  0  0  0
   -1.5683    1.2926   -0.1595 C   0  0  0  0  0  0  0  0  0  0  0  0
   -1.5682    2.7139    0.4061 C   0  0  0  0  0  0  0  0  0  0  0  0
   -1.5683    1.2643   -3.8797 H   0  0  0  0  0  0  0  0  0  0  0  0
   -0.5177    0.6385    0.2746 H   0  0  0  0  0  0  0  0  0  0  0  0
   -2.4438    0.7475    0.2022 H   0  0  0  0  0  0  0  0  0  0  0  0
   -2.4505    3.2618    0.0746 H   0  0  0  0  0  0  0  0  0  0  0  0
   -1.5682    2.6867    1.4964 H   0  0  0  0  0  0  0  0  0  0  0  0
   -0.6860    3.2618    0.0746 H   0  0  0  0  0  0  0  0  0  0  0  0
    1.5186   -2.5039   -0.1119 S   0  0  0  0  0  1  0  0  0  0  0  0
    0.3759   -1.4108    0.1758 C   0  0  0  0  0  0  0  0  0  0  0  0
    0.5387   -0.0193    0.7110 C   0  0  0  0  0  0  0  0  0  0  0  0
   -0.2966    0.1162    1.9927 C   0  0  0  0  0  0  0  0  0  0  0  0
    1.9767    0.4215    0.9242 C   0  0  0  0  0  0  0  0  0  0  0  0
   -0.6665   -1.6781   -0.0138 H   0  0  0  0  0  0  0  0  0  0  0  0
    0.1154   -0.5150    2.7827 H   0  0  0  0  0  0  0  0  0  0  0  0
   -0.2835    1.1496    2.3409 H   0  0  0  0  0  0  0  0  0  0  0  0
   -1.3360   -0.1745    1.8308 H   0  0  0  0  0  0  0  0  0  0  0  0
    2.0017    1.4579    1.2647 H   0  0  0  0  0  0  0  0  0  0  0  0
    2.5585    0.3428    0.0060 H   0  0  0  0  0  0  0  0  0  0  0  0
    2.4656   -0.1996    1.6767 H   0  0  0  0  0  0  0  0  0  0  0  0
  1  2  3  0
  1  5  1  0
  2  3  1  0
  3  4  1  0
  3  6  1  0
  3  7  1  0
  4  8  1  0
  4  9  1  0
  4 10  1  0
 11 12  1  0
 12 13  2  3
 12 16  1  0
 13 14  1  0
 13 15  1  0
 14 17  1  0
 14 18  1  0
 14 19  1  0
 15 20  1  0
 15 21  1  0
 15 22  1  0
M  RAD  1  11   2
M  END
>  <reaction>  (8) 
rxn_1284

>  <mol_properties>  (8) 
{"1": {"label": "*4", "atom_type": "Ct"}, "2": {"label": "*3", "atom_type": "Cs"}, "5": {"label": "*2", "atom_type": "H0"}, "11": {"label": "*0", "atom_type": "CS"}, "12": {"label": "*1", "atom_type": "Cs"}}

>  <type>  (8) 
unop_4

>  <geom_source>  (8) 
Heuristics

$$$$

     RDKit          3D

 22 20  0  0  0  0  0  0  0  0999 V2000
   -1.4035    0.9462   -3.4900 C   0  0  0  0  0  0  0  0  0  0  0  0
   -1.4035    0.9462   -2.2923 C   0  0  0  0  0  0  0  0  0  0  0  0
   -1.4035    0.9744   -0.8331 C   0  0  0  0  0  0  0  0  0  0  0  0
   -1.4035    2.3958   -0.2675 C   0  0  0  0  0  0  0  0  0  0  0  0
   -1.4035    0.9462   -4.5533 H   0  0  0  0  0  0  0  0  0  0  0  0
   -0.3529    0.3203   -0.3991 H   0  0  0  0  0  0  0  0  0  0  0  0
   -2.2790    0.4293   -0.4714 H   0  0  0  0  0  0  0  0  0  0  0  0
   -2.2857    2.9436   -0.5990 H   0  0  0  0  0  0  0  0  0  0  0  0
   -1.4035    2.3685    0.8227 H   0  0  0  0  0  0  0  0  0  0  0  0
   -0.5212    2.9436   -0.5990 H   0  0  0  0  0  0  0  0  0  0  0  0
    0.5926   -1.4627    2.5931 S   0  0  0  0  0  1  0  0  0  0  0  0
    0.6193   -0.2554    1.5326 C   0  0  0  0  0  0  0  0  0  0  0  0
    0.7035   -0.3374    0.0374 C   0  0  0  0  0  0  0  0  0  0  0  0
    1.9407    0.4436   -0.4297 C   0  0  0  0  0  0  0  0  0  0  0  0
    0.6769   -1.7463   -0.5300 C   0  0  0  0  0  0  0  0  0  0  0  0
    0.5896    0.7715    1.9047 H   0  0  0  0  0  0  0  0  0  0  0  0
    2.8527   -0.0524   -0.0913 H   0  0  0  0  0  0  0  0  0  0  0  0
    1.9637    0.4924   -1.5189 H   0  0  0  0  0  0  0  0  0  0  0  0
    1.9442    1.4645   -0.0438 H   0  0  0  0  0  0  0  0  0  0  0  0
    0.6909   -1.7087   -1.6204 H   0  0  0  0  0  0  0  0  0  0  0  0
   -0.2137   -2.2879   -0.2118 H   0  0  0  0  0  0  0  0  0  0  0  0
    1.5449   -2.3164   -0.1943 H   0  0  0  0  0  0  0  0  0  0  0  0
  1  2  3  0
  1  5  1  0
  2  3  1  0
  3  4  1  0
  3  6  1  0
  3  7  1  0
  4  8  1  0
  4  9  1  0
  4 10  1  0
 11 12  1  0
 12 13  2  3
 12 16  1  0
 13 14  1  0
 13 15  1  0
 14 17  1  0
 14 18  1  0
 14 19  1  0
 15 20  1  0
 15 21  1  0
 15 22  1  0
M  RAD  1  11   2
M  END
>  <reaction>  (9) 
rxn_1284

>  <mol_properties>  (9) 
{"1": {"label": "*4", "atom_type": "Ct"}, "2": {"label": "*3", "atom_type": "Cs"}, "5": {"label": "*2", "atom_type": "H0"}, "11": {"label": "*0", "atom_type": "CS"}, "12": {"label": "*1", "atom_type": "Cs"}}

>  <type>  (9) 
unop_5

>  <geom_source>  (9) 
Heuristics

$$$$

     RDKit          3D

 22 20  0  0  0  0  0  0  0  0999 V2000
   -1.4548    1.2784   -3.0727 C   0  0  0  0  0  0  0  0  0  0  0  0
   -1.4548    1.2784   -1.8750 C   0  0  0  0  0  0  0  0  0  0  0  0
   -1.4548    1.3066   -0.4158 C   0  0  0  0  0  0  0  0  0  0  0  0
   -1.4547    2.7280    0.1498 C   0  0  0  0  0  0  0  0  0  0  0  0
   -1.4548    1.2784   -4.1360 H   0  0  0  0  0  0  0  0  0  0  0  0
   -0.4042    0.6525    0.0183 H   0  0  0  0  0  0  0  0  0  0  0  0
   -2.3303    0.7615   -0.0541 H   0  0  0  0  0  0  0  0  0  0  0  0
   -2.3370    3.2759   -0.1817 H   0  0  0  0  0  0  0  0  0  0  0  0
   -1.4547    2.7007    1.2401 H   0  0  0  0  0  0  0  0  0  0  0  0
   -0.5725    3.2758   -0.1817 H   0  0  0  0  0  0  0  0  0  0  0  0
    1.0839   -2.7544    0.7116 S   0  0  0  0  0  1  0  0  0  0  0  0
    0.1890   -1.4236    0.6063 C   0  0  0  0  0  0  0  0  0  0  0  0
    0.6522   -0.0052    0.4547 C   0  0  0  0  0  0  0  0  0  0  0  0
    0.0993    0.8211    1.6253 C   0  0  0  0  0  0  0  0  0  0  0  0
    2.1538    0.1659    0.3014 C   0  0  0  0  0  0  0  0  0  0  0  0
   -0.8983   -1.5158    0.6632 H   0  0  0  0  0  0  0  0  0  0  0  0
    0.5533    0.4994    2.5648 H   0  0  0  0  0  0  0  0  0  0  0  0
    0.3295    1.8772    1.4800 H   0  0  0  0  0  0  0  0  0  0  0  0
   -0.9834    0.7189    1.7168 H   0  0  0  0  0  0  0  0  0  0  0  0
    2.3945    1.2189    0.1467 H   0  0  0  0  0  0  0  0  0  0  0  0
    2.5365   -0.4063   -0.5435 H   0  0  0  0  0  0  0  0  0  0  0  0
    2.6770   -0.1788    1.1950 H   0  0  0  0  0  0  0  0  0  0  0  0
  1  2  3  0
  1  5  1  0
  2  3  1  0
  3  4  1  0
  3  6  1  0
  3  7  1  0
  4  8  1  0
  4  9  1  0
  4 10  1  0
 11 12  1  0
 12 13  2  3
 12 16  1  0
 13 14  1  0
 13 15  1  0
 14 17  1  0
 14 18  1  0
 14 19  1  0
 15 20  1  0
 15 21  1  0
 15 22  1  0
M  RAD  1  11   2
M  END
>  <reaction>  (10) 
rxn_1284

>  <mol_properties>  (10) 
{"1": {"label": "*4", "atom_type": "Ct"}, "2": {"label": "*3", "atom_type": "Cs"}, "5": {"label": "*2", "atom_type": "H0"}, "11": {"label": "*0", "atom_type": "CS"}, "12": {"label": "*1", "atom_type": "Cs"}}

>  <type>  (10) 
unop_6

>  <geom_source>  (10) 
Heuristics

$$$$

     RDKit          3D

 22 20  0  0  0  0  0  0  0  0999 V2000
   -1.4285    1.1807   -3.2839 C   0  0  0  0  0  0  0  0  0  0  0  0
   -1.4285    1.1807   -2.0862 C   0  0  0  0  0  0  0  0  0  0  0  0
   -1.4285    1.2090   -0.6270 C   0  0  0  0  0  0  0  0  0  0  0  0
   -1.4285    2.6303   -0.0614 C   0  0  0  0  0  0  0  0  0  0  0  0
   -1.4285    1.1807   -4.3472 H   0  0  0  0  0  0  0  0  0  0  0  0
   -0.3779    0.5548   -0.1930 H   0  0  0  0  0  0  0  0  0  0  0  0
   -2.3040    0.6639   -0.2653 H   0  0  0  0  0  0  0  0  0  0  0  0
   -2.3107    3.1782   -0.3929 H   0  0  0  0  0  0  0  0  0  0  0  0
   -1.4285    2.6030    1.0289 H   0  0  0  0  0  0  0  0  0  0  0  0
   -0.5462    3.1782   -0.3929 H   0  0  0  0  0  0  0  0  0  0  0  0
    0.8474   -2.5830    1.5205 S   0  0  0  0  0  1  0  0  0  0  0  0
    0.1219   -1.2197    1.0756 C   0  0  0  0  0  0  0  0  0  0  0  0
    0.6785   -0.1029    0.2435 C   0  0  0  0  0  0  0  0  0  0  0  0
    0.6020    1.1999    1.0533 C   0  0  0  0  0  0  0  0  0  0  0  0
    2.0739   -0.3462   -0.3053 C   0  0  0  0  0  0  0  0  0  0  0  0
   -0.9011   -1.0349    1.4121 H   0  0  0  0  0  0  0  0  0  0  0  0
    1.2769    1.1541    1.9104 H   0  0  0  0  0  0  0  0  0  0  0  0
    0.8980    2.0454    0.4315 H   0  0  0  0  0  0  0  0  0  0  0  0
   -0.4075    1.3874    1.4235 H   0  0  0  0  0  0  0  0  0  0  0  0
    2.3767    0.4908   -0.9366 H   0  0  0  0  0  0  0  0  0  0  0  0
    2.1164   -1.2610   -0.8962 H   0  0  0  0  0  0  0  0  0  0  0  0
    2.7979   -0.4453    0.5052 H   0  0  0  0  0  0  0  0  0  0  0  0
  1  2  3  0
  1  5  1  0
  2  3  1  0
  3  4  1  0
  3  6  1  0
  3  7  1  0
  4  8  1  0
  4  9  1  0
  4 10  1  0
 11 12  1  0
 12 13  2  3
 12 16  1  0
 13 14  1  0
 13 15  1  0
 14 17  1  0
 14 18  1  0
 14 19  1  0
 15 20  1  0
 15 21  1  0
 15 22  1  0
M  RAD  1  11   2
M  END
>  <reaction>  (11) 
rxn_1284

>  <mol_properties>  (11) 
{"1": {"label": "*4", "atom_type": "Ct"}, "2": {"label": "*3", "atom_type": "Cs"}, "5": {"label": "*2", "atom_type": "H0"}, "11": {"label": "*0", "atom_type": "CS"}, "12": {"label": "*1", "atom_type": "Cs"}}

>  <type>  (11) 
unop_7

>  <geom_source>  (11) 
Heuristics

$$$$

     RDKit          3D

 22 20  0  0  0  0  0  0  0  0999 V2000
   -1.6860    0.2390   -3.2937 C   0  0  0  0  0  0  0  0  0  0  0  0
   -1.6860    0.2390   -2.0960 C   0  0  0  0  0  0  0  0  0  0  0  0
   -1.6860    0.2672   -0.6369 C   0  0  0  0  0  0  0  0  0  0  0  0
   -1.6860    1.6886   -0.0713 C   0  0  0  0  0  0  0  0  0  0  0  0
   -1.6860    0.2390   -4.3570 H   0  0  0  0  0  0  0  0  0  0  0  0
   -0.6354   -0.3869   -0.2028 H   0  0  0  0  0  0  0  0  0  0  0  0
   -2.5615   -0.2778   -0.2752 H   0  0  0  0  0  0  0  0  0  0  0  0
   -2.5682    2.2365   -0.4027 H   0  0  0  0  0  0  0  0  0  0  0  0
   -1.6860    1.6613    1.0190 H   0  0  0  0  0  0  0  0  0  0  0  0
   -0.8037    2.2365   -0.4027 H   0  0  0  0  0  0  0  0  0  0  0  0
    1.8142    0.9806    1.5634 S   0  0  0  0  0  1  0  0  0  0  0  0
    1.5035   -0.0117    0.3378 C   0  0  0  0  0  0  0  0  0  0  0  0
    0.4210   -1.0446    0.2336 C   0  0  0  0  0  0  0  0  0  0  0  0
    1.0693   -2.4130   -0.0233 C   0  0  0  0  0  0  0  0  0  0  0  0
   -0.5407   -1.0863    1.4087 C   0  0  0  0  0  0  0  0  0  0  0  0
    2.1463    0.0263   -0.5449 H   0  0  0  0  0  0  0  0  0  0  0  0
    1.6461   -2.7293    0.8482 H   0  0  0  0  0  0  0  0  0  0  0  0
    0.2999   -3.1623   -0.2127 H   0  0  0  0  0  0  0  0  0  0  0  0
    1.7387   -2.3882   -0.8849 H   0  0  0  0  0  0  0  0  0  0  0  0
   -1.3203   -1.8275    1.2256 H   0  0  0  0  0  0  0  0  0  0  0  0
   -1.0129   -0.1177    1.5725 H   0  0  0  0  0  0  0  0  0  0  0  0
   -0.0185   -1.3564    2.3282 H   0  0  0  0  0  0  0  0  0  0  0  0
  1  2  3  0
  1  5  1  0
  2  3  1  0
  3  4  1  0
  3  6  1  0
  3  7  1  0
  4  8  1  0
  4  9  1  0
  4 10  1  0
 11 12  1  0
 12 13  2  3
 12 16  1  0
 13 14  1  0
 13 15  1  0
 14 17  1  0
 14 18  1  0
 14 19  1  0
 15 20  1  0
 15 21  1  0
 15 22  1  0
M  RAD  1  11   2
M  END
>  <reaction>  (12) 
rxn_1284

>  <mol_properties>  (12) 
{"1": {"label": "*4", "atom_type": "Ct"}, "2": {"label": "*3", "atom_type": "Cs"}, "5": {"label": "*2", "atom_type": "H0"}, "11": {"label": "*0", "atom_type": "CS"}, "12": {"label": "*1", "atom_type": "Cs"}}

>  <type>  (12) 
unop_8

>  <geom_source>  (12) 
Heuristics

$$$$

     RDKit          3D

 22 20  0  0  0  0  0  0  0  0999 V2000
   -1.7450    1.0831   -2.6137 C   0  0  0  0  0  0  0  0  0  0  0  0
   -1.7450    1.0831   -1.4160 C   0  0  0  0  0  0  0  0  0  0  0  0
   -1.7450    1.1113    0.0431 C   0  0  0  0  0  0  0  0  0  0  0  0
   -1.7450    2.5327    0.6087 C   0  0  0  0  0  0  0  0  0  0  0  0
   -1.7450    1.0831   -3.6770 H   0  0  0  0  0  0  0  0  0  0  0  0
   -0.6944    0.4572    0.4772 H   0  0  0  0  0  0  0  0  0  0  0  0
   -2.6205    0.5663    0.4048 H   0  0  0  0  0  0  0  0  0  0  0  0
   -2.6272    3.0806    0.2773 H   0  0  0  0  0  0  0  0  0  0  0  0
   -1.7450    2.5054    1.6990 H   0  0  0  0  0  0  0  0  0  0  0  0
   -0.8628    3.0806    0.2773 H   0  0  0  0  0  0  0  0  0  0  0  0
    2.0452   -1.7690   -0.6729 S   0  0  0  0  0  1  0  0  0  0  0  0
    0.6262   -1.2440   -0.1307 C   0  0  0  0  0  0  0  0  0  0  0  0
    0.3620   -0.2005    0.9136 C   0  0  0  0  0  0  0  0  0  0  0  0
   -0.4785   -0.8283    2.0354 C   0  0  0  0  0  0  0  0  0  0  0  0
    1.6005    0.4924    1.4554 C   0  0  0  0  0  0  0  0  0  0  0  0
   -0.2872   -1.6866   -0.5354 H   0  0  0  0  0  0  0  0  0  0  0  0
    0.1022   -1.5851    2.5665 H   0  0  0  0  0  0  0  0  0  0  0  0
   -0.7775   -0.0630    2.7525 H   0  0  0  0  0  0  0  0  0  0  0  0
   -1.3822   -1.3016    1.6473 H   0  0  0  0  0  0  0  0  0  0  0  0
    1.3120    1.2666    2.1682 H   0  0  0  0  0  0  0  0  0  0  0  0
    2.1813    0.9535    0.6567 H   0  0  0  0  0  0  0  0  0  0  0  0
    2.2516   -0.2195    1.9656 H   0  0  0  0  0  0  0  0  0  0  0  0
  1  2  3  0
  1  5  1  0
  2  3  1  0
  3  4  1  0
  3  6  1  0
  3  7  1  0
  4  8  1  0
  4  9  1  0
  4 10  1  0
 11 12  1  0
 12 13  2  3
 12 16  1  0
 13 14  1  0
 13 15  1  0
 14 17  1  0
 14 18  1  0
 14 19  1  0
 15 20  1  0
 15 21  1  0
 15 22  1  0
M  RAD  1  11   2
M  END
>  <reaction>  (13) 
rxn_1284

>  <mol_properties>  (13) 
{"1": {"label": "*4", "atom_type": "Ct"}, "2": {"label": "*3", "atom_type": "Cs"}, "5": {"label": "*2", "atom_type": "H0"}, "11": {"label": "*0", "atom_type": "CS"}, "12": {"label": "*1", "atom_type": "Cs"}}

>  <type>  (13) 
unop_9

>  <geom_source>  (13) 
Heuristics

$$$$

     RDKit          3D

 22 20  0  0  0  0  0  0  0  0999 V2000
   -1.8519    0.2422   -3.0018 C   0  0  0  0  0  0  0  0  0  0  0  0
   -1.8519    0.2422   -1.8041 C   0  0  0  0  0  0  0  0  0  0  0  0
   -1.8519    0.2704   -0.3449 C   0  0  0  0  0  0  0  0  0  0  0  0
   -1.8519    1.6918    0.2207 C   0  0  0  0  0  0  0  0  0  0  0  0
   -1.8519    0.2422   -4.0651 H   0  0  0  0  0  0  0  0  0  0  0  0
   -0.8013   -0.3837    0.0891 H   0  0  0  0  0  0  0  0  0  0  0  0
   -2.7274   -0.2746    0.0168 H   0  0  0  0  0  0  0  0  0  0  0  0
   -2.7341    2.2397   -0.1108 H   0  0  0  0  0  0  0  0  0  0  0  0
   -1.8519    1.6645    1.3110 H   0  0  0  0  0  0  0  0  0  0  0  0
   -0.9697    2.2397   -0.1108 H   0  0  0  0  0  0  0  0  0  0  0  0
    2.2751    0.8882    0.6086 S   0  0  0  0  0  1  0  0  0  0  0  0
    1.4309   -0.3101   -0.0507 C   0  0  0  0  0  0  0  0  0  0  0  0
    0.2551   -1.0414    0.5256 C   0  0  0  0  0  0  0  0  0  0  0  0
    0.5892   -2.5391    0.5883 C   0  0  0  0  0  0  0  0  0  0  0  0
   -0.2344   -0.5149    1.8638 C   0  0  0  0  0  0  0  0  0  0  0  0
    1.7256   -0.6805   -1.0355 H   0  0  0  0  0  0  0  0  0  0  0  0
    1.3868   -2.7200    1.3118 H   0  0  0  0  0  0  0  0  0  0  0  0
   -0.2886   -3.1060    0.9002 H   0  0  0  0  0  0  0  0  0  0  0  0
    0.9142   -2.9221   -0.3807 H   0  0  0  0  0  0  0  0  0  0  0  0
   -1.1185   -1.0700    2.1813 H   0  0  0  0  0  0  0  0  0  0  0  0
   -0.4896    0.5432    1.8071 H   0  0  0  0  0  0  0  0  0  0  0  0
    0.5351   -0.6262    2.6296 H   0  0  0  0  0  0  0  0  0  0  0  0
  1  2  3  0
  1  5  1  0
  2  3  1  0
  3  4  1  0
  3  6  1  0
  3  7  1  0
  4  8  1  0
  4  9  1  0
  4 10  1  0
 11 12  1  0
 12 13  2  3
 12 16  1  0
 13 14  1  0
 13 15  1  0
 14 17  1  0
 14 18  1  0
 14 19  1  0
 15 20  1  0
 15 21  1  0
 15 22  1  0
M  RAD  1  11   2
M  END
>  <reaction>  (14) 
rxn_1284

>  <mol_properties>  (14) 
{"1": {"label": "*4", "atom_type": "Ct"}, "2": {"label": "*3", "atom_type": "Cs"}, "5": {"label": "*2", "atom_type": "H0"}, "11": {"label": "*0", "atom_type": "CS"}, "12": {"label": "*1", "atom_type": "Cs"}}

>  <type>  (14) 
unop_10

>  <geom_source>  (14) 
Heuristics

$$$$

     RDKit          3D

 22 20  0  0  0  0  0  0  0  0999 V2000
   -1.4445    1.0623   -3.4047 C   0  0  0  0  0  0  0  0  0  0  0  0
   -1.4445    1.0623   -2.2070 C   0  0  0  0  0  0  0  0  0  0  0  0
   -1.4445    1.0905   -0.7479 C   0  0  0  0  0  0  0  0  0  0  0  0
   -1.4445    2.5119   -0.1823 C   0  0  0  0  0  0  0  0  0  0  0  0
   -1.4445    1.0623   -4.4680 H   0  0  0  0  0  0  0  0  0  0  0  0
   -0.3939    0.4364   -0.3138 H   0  0  0  0  0  0  0  0  0  0  0  0
   -2.3200    0.5455   -0.3862 H   0  0  0  0  0  0  0  0  0  0  0  0
   -2.3267    3.0598   -0.5137 H   0  0  0  0  0  0  0  0  0  0  0  0
   -1.4445    2.4846    0.9080 H   0  0  0  0  0  0  0  0  0  0  0  0
   -0.5622    3.0598   -0.5137 H   0  0  0  0  0  0  0  0  0  0  0  0
    0.7353   -2.1525    2.1414 S   0  0  0  0  0  1  0  0  0  0  0  0
    0.2446   -0.7889    1.4465 C   0  0  0  0  0  0  0  0  0  0  0  0
    0.6625   -0.2213    0.1226 C   0  0  0  0  0  0  0  0  0  0  0  0
    1.2429    1.1824    0.3499 C   0  0  0  0  0  0  0  0  0  0  0  0
    1.6050   -1.0992   -0.6826 C   0  0  0  0  0  0  0  0  0  0  0  0
   -0.4719   -0.1571    1.9770 H   0  0  0  0  0  0  0  0  0  0  0  0
    2.1772    1.1203    0.9117 H   0  0  0  0  0  0  0  0  0  0  0  0
    1.4524    1.6606   -0.6076 H   0  0  0  0  0  0  0  0  0  0  0  0
    0.5529    1.8206    0.9046 H   0  0  0  0  0  0  0  0  0  0  0  0
    1.8145   -0.6337   -1.6470 H   0  0  0  0  0  0  0  0  0  0  0  0
    1.1783   -2.0867   -0.8582 H   0  0  0  0  0  0  0  0  0  0  0  0
    2.5504   -1.2393   -0.1557 H   0  0  0  0  0  0  0  0  0  0  0  0
  1  2  3  0
  1  5  1  0
  2  3  1  0
  3  4  1  0
  3  6  1  0
  3  7  1  0
  4  8  1  0
  4  9  1  0
  4 10  1  0
 11 12  1  0
 12 13  2  3
 12 16  1  0
 13 14  1  0
 13 15  1  0
 14 17  1  0
 14 18  1  0
 14 19  1  0
 15 20  1  0
 15 21  1  0
 15 22  1  0
M  RAD  1  11   2
M  END
>  <reaction>  (15) 
rxn_1284

>  <mol_properties>  (15) 
{"1": {"label": "*4", "atom_type": "Ct"}, "2": {"label": "*3", "atom_type": "Cs"}, "5": {"label": "*2", "atom_type": "H0"}, "11": {"label": "*0", "atom_type": "CS"}, "12": {"label": "*1", "atom_type": "Cs"}}

>  <type>  (15) 
unop_11

>  <geom_source>  (15) 
Heuristics

$$$$

     RDKit          3D

 22 20  0  0  0  0  0  0  0  0999 V2000
   -1.8984    0.7608   -2.5714 C   0  0  0  0  0  0  0  0  0  0  0  0
   -1.8984    0.7608   -1.3737 C   0  0  0  0  0  0  0  0  0  0  0  0
   -1.8984    0.7890    0.0854 C   0  0  0  0  0  0  0  0  0  0  0  0
   -1.8984    2.2104    0.6510 C   0  0  0  0  0  0  0  0  0  0  0  0
   -1.8984    0.7608   -3.6347 H   0  0  0  0  0  0  0  0  0  0  0  0
   -0.8478    0.1349    0.5195 H   0  0  0  0  0  0  0  0  0  0  0  0
   -2.7739    0.2439    0.4471 H   0  0  0  0  0  0  0  0  0  0  0  0
   -2.7806    2.7582    0.3196 H   0  0  0  0  0  0  0  0  0  0  0  0
   -1.8984    2.1831    1.7413 H   0  0  0  0  0  0  0  0  0  0  0  0
   -1.0162    2.7582    0.3196 H   0  0  0  0  0  0  0  0  0  0  0  0
    2.4315   -0.7125   -0.7272 S   0  0  0  0  0  1  0  0  0  0  0  0
    0.9120   -0.9904   -0.2834 C   0  0  0  0  0  0  0  0  0  0  0  0
    0.2086   -0.5228    0.9559 C   0  0  0  0  0  0  0  0  0  0  0  0
   -0.3125   -1.7497    1.7189 C   0  0  0  0  0  0  0  0  0  0  0  0
    1.0260    0.3936    1.8500 C   0  0  0  0  0  0  0  0  0  0  0  0
    0.2803   -1.6056   -0.9288 H   0  0  0  0  0  0  0  0  0  0  0  0
    0.5218   -2.3409    2.1019 H   0  0  0  0  0  0  0  0  0  0  0  0
   -0.9225   -1.4330    2.5655 H   0  0  0  0  0  0  0  0  0  0  0  0
   -0.9227   -2.3929    1.0823 H   0  0  0  0  0  0  0  0  0  0  0  0
    0.4217    0.7236    2.6966 H   0  0  0  0  0  0  0  0  0  0  0  0
    1.3750    1.2725    1.3081 H   0  0  0  0  0  0  0  0  0  0  0  0
    1.9055   -0.1243    2.2363 H   0  0  0  0  0  0  0  0  0  0  0  0
  1  2  3  0
  1  5  1  0
  2  3  1  0
  3  4  1  0
  3  6  1  0
  3  7  1  0
  4  8  1  0
  4  9  1  0
  4 10  1  0
 11 12  1  0
 12 13  2  3
 12 16  1  0
 13 14  1  0
 13 15  1  0
 14 17  1  0
 14 18  1  0
 14 19  1  0
 15 20  1  0
 15 21  1  0
 15 22  1  0
M  RAD  1  11   2
M  END
>  <reaction>  (16) 
rxn_1284

>  <mol_properties>  (16) 
{"1": {"label": "*4", "atom_type": "Ct"}, "2": {"label": "*3", "atom_type": "Cs"}, "5": {"label": "*2", "atom_type": "H0"}, "11": {"label": "*0", "atom_type": "CS"}, "12": {"label": "*1", "atom_type": "Cs"}}

>  <type>  (16) 
unop_12

>  <geom_source>  (16) 
Heuristics

$$$$

     RDKit          3D

 22 20  0  0  0  0  0  0  0  0999 V2000
   -3.5496    1.0645    0.2917 S   0  0  0  0  0  0  0  0  0  0  0  0
   -1.1640    0.0608    0.1721 C   0  0  0  0  0  0  0  0  0  0  0  0
   -1.3453   -0.7287   -1.1299 C   0  0  0  0  0  0  0  0  0  0  0  0
   -1.2720   -0.8555    1.3970 C   0  0  0  0  0  0  0  0  0  0  0  0
    2.0083   -0.0869   -1.5017 C   0  0  0  0  0  0  0  0  0  0  0  0
    1.3308    0.6470   -0.3537 C   0  0  0  0  0  3  0  0  0  0  0  0
   -2.1194    1.2321    0.2586 C   0  0  0  0  0  0  0  0  0  0  0  0
    2.0829    0.4690    0.8932 C   0  0  0  0  0  0  0  0  0  0  0  0
    2.7002    0.3231    1.9184 C   0  0  0  0  0  0  0  0  0  0  0  0
    0.0558    0.5532    0.1615 H   0  0  0  0  0  0  0  0  0  0  0  0
   -0.5587   -1.5084   -1.2116 H   0  0  0  0  0  0  0  0  0  0  0  0
   -1.2511   -0.0480   -2.0026 H   0  0  0  0  0  0  0  0  0  0  0  0
   -2.3406   -1.2217   -1.1608 H   0  0  0  0  0  0  0  0  0  0  0  0
   -2.2653   -1.3520    1.4360 H   0  0  0  0  0  0  0  0  0  0  0  0
   -0.4843   -1.6372    1.3547 H   0  0  0  0  0  0  0  0  0  0  0  0
   -1.1256   -0.2652    2.3264 H   0  0  0  0  0  0  0  0  0  0  0  0
    1.4141    0.0549   -2.4283 H   0  0  0  0  0  0  0  0  0  0  0  0
    3.0321    0.3122   -1.6676 H   0  0  0  0  0  0  0  0  0  0  0  0
    2.0654   -1.1741   -1.2808 H   0  0  0  0  0  0  0  0  0  0  0  0
    1.2544    1.7298   -0.5878 H   0  0  0  0  0  0  0  0  0  0  0  0
   -1.7103    2.2361    0.2971 H   0  0  0  0  0  0  0  0  0  0  0  0
    3.2423    0.1949    2.8182 H   0  0  0  0  0  0  0  0  0  0  0  0
  1  7  2  0
  2  3  1  0
  2  4  1  0
  2  7  1  0
  2 10  1  0
  3 11  1  0
  3 12  1  0
  3 13  1  0
  4 14  1  0
  4 15  1  0
  4 16  1  0
  5  6  1  0
  5 17  1  0
  5 18  1  0
  5 19  1  0
  6  8  1  0
  6 20  1  0
  7 21  1  0
  8  9  3  0
  9 22  1  0
M  RAD  1   6   2
M  END
>  <reaction>  (17) 
rxn_1284

>  <mol_properties>  (17) 
{"1": {"label": "*4", "atom_type": "Ct"}, "2": {"label": "*3", "atom_type": "Cs"}, "5": {"label": "*2", "atom_type": "H0"}, "11": {"label": "*0", "atom_type": "CS"}, "12": {"label": "*1", "atom_type": "Cs"}}

>  <type>  (17) 
unop_13

>  <geom_source>  (17) 
AutoTST

$$$$

     RDKit          3D

 22 20  0  0  0  0  0  0  0  0999 V2000
   -1.9372    0.4333   -2.7249 C   0  0  0  0  0  0  0  0  0  0  0  0
   -1.9372    0.4333   -1.5272 C   0  0  0  0  0  0  0  0  0  0  0  0
   -1.9372    0.4615   -0.0680 C   0  0  0  0  0  0  0  0  0  0  0  0
   -1.9372    1.8829    0.4976 C   0  0  0  0  0  0  0  0  0  0  0  0
   -1.9372    0.4333   -3.7882 H   0  0  0  0  0  0  0  0  0  0  0  0
   -0.8866   -0.1926    0.3660 H   0  0  0  0  0  0  0  0  0  0  0  0
   -2.8127   -0.0835    0.2937 H   0  0  0  0  0  0  0  0  0  0  0  0
   -2.8194    2.4308    0.1661 H   0  0  0  0  0  0  0  0  0  0  0  0
   -1.9372    1.8556    1.5878 H   0  0  0  0  0  0  0  0  0  0  0  0
   -1.0549    2.4308    0.1661 H   0  0  0  0  0  0  0  0  0  0  0  0
    2.5039    0.2805   -0.2385 S   0  0  0  0  0  1  0  0  0  0  0  0
    1.2069   -0.6682   -0.2656 C   0  0  0  0  0  0  0  0  0  0  0  0
    0.1698   -0.8503    0.8025 C   0  0  0  0  0  0  0  0  0  0  0  0
    0.1144   -2.3363    1.1867 C   0  0  0  0  0  0  0  0  0  0  0  0
    0.3395    0.0424    2.0197 C   0  0  0  0  0  0  0  0  0  0  0  0
    1.0274   -1.2877   -1.1476 H   0  0  0  0  0  0  0  0  0  0  0  0
    1.0439   -2.6371    1.6742 H   0  0  0  0  0  0  0  0  0  0  0  0
   -0.7074   -2.5131    1.8816 H   0  0  0  0  0  0  0  0  0  0  0  0
   -0.0354   -2.9745    0.3141 H   0  0  0  0  0  0  0  0  0  0  0  0
   -0.4829   -0.1204    2.7182 H   0  0  0  0  0  0  0  0  0  0  0  0
    0.3570    1.0963    1.7424 H   0  0  0  0  0  0  0  0  0  0  0  0
    1.2765   -0.1770    2.5345 H   0  0  0  0  0  0  0  0  0  0  0  0
  1  2  3  0
  1  5  1  0
  2  3  1  0
  3  4  1  0
  3  6  1  0
  3  7  1  0
  4  8  1  0
  4  9  1  0
  4 10  1  0
 11 12  1  0
 12 13  2  3
 12 16  1  0
 13 14  1  0
 13 15  1  0
 14 17  1  0
 14 18  1  0
 14 19  1  0
 15 20  1  0
 15 21  1  0
 15 22  1  0
M  RAD  1  11   2
M  END
>  <reaction>  (18) 
rxn_1284

>  <mol_properties>  (18) 
{"1": {"label": "*4", "atom_type": "Ct"}, "2": {"label": "*3", "atom_type": "Cs"}, "5": {"label": "*2", "atom_type": "H0"}, "11": {"label": "*0", "atom_type": "CS"}, "12": {"label": "*1", "atom_type": "Cs"}}

>  <type>  (18) 
unop_14

>  <geom_source>  (18) 
gaussian_log

$$$$
