
     RDKit          3D

 14 13  0  0  0  0  0  0  0  0999 V2000
   -0.7647   -1.2352   -0.0349 C   0  0  0  0  0  0  0  0  0  0  0  0
    0.0570   -0.0126    0.3624 C   0  0  0  0  0  0  0  0  0  0  0  0
    1.4161   -0.0194   -0.3307 C   0  0  0  0  0  0  0  0  0  0  0  0
   -0.7023    1.2765    0.0630 C   0  0  0  0  0  0  0  0  0  0  0  0
   -0.2387   -2.1618    0.2041 H   0  0  0  0  0  0  0  0  0  0  0  0
   -0.9624   -1.2316   -1.1108 H   0  0  0  0  0  0  0  0  0  0  0  0
   -1.7273   -1.2512    0.4805 H   0  0  0  0  0  0  0  0  0  0  0  0
    0.2295   -0.0590    1.4432 H   0  0  0  0  0  0  0  0  0  0  0  0
    1.2933    0.0260   -1.4168 H   0  0  0  0  0  0  0  0  0  0  0  0
    2.0207    0.8381   -0.0278 H   0  0  0  0  0  0  0  0  0  0  0  0
    1.9766   -0.9269   -0.0966 H   0  0  0  0  0  0  0  0  0  0  0  0
   -1.6638    1.3002    0.5800 H   0  0  0  0  0  0  0  0  0  0  0  0
   -0.8979    1.3663   -1.0096 H   0  0  0  0  0  0  0  0  0  0  0  0
   -0.1313    2.1545    0.3721 H   0  0  0  0  0  0  0  0  0  0  0  0
  1  2  1  0
  1  5  1  0
  1  6  1  0
  1  7  1  0
  2  3  1  0
  2  4  1  0
  2  8  1  0
  3  9  1  0
  3 10  1  0
  3 11  1  0
  4 12  1  0
  4 13  1  0
  4 14  1  0
M  END
>  <reaction>  (1) 
rxn_298

>  <mol_properties>  (1) 
{"1": {"label": "donator", "atom_type": "Cs"}, "7": {"label": "d_hydrogen", "atom_type": "H0"}}

>  <type>  (1) 
r1h

$$$$

     RDKit          3D

  3  2  0  0  0  0  0  0  0  0999 V2000
    0.9943   -0.1797    0.0000 O   0  0  0  0  0  1  0  0  0  0  0  0
   -0.1595    0.4394    0.0000 O   0  0  0  0  0  0  0  0  0  0  0  0
   -0.8348   -0.2597    0.0000 H   0  0  0  0  0  0  0  0  0  0  0  0
  1  2  1  0
  2  3  1  0
M  RAD  1   1   2
M  END
>  <reaction>  (2) 
rxn_298

>  <mol_properties>  (2) 
{"0": {"label": "acceptor", "atom_type": "O2s"}}

>  <type>  (2) 
r2

$$$$

     RDKit          3D

  4  3  0  0  0  0  0  0  0  0999 V2000
    0.5949   -0.3853    0.2659 O   0  0  0  0  0  0  0  0  0  0  0  0
   -0.5918    0.4028    0.2462 O   0  0  0  0  0  0  0  0  0  0  0  0
    1.1865    0.1539   -0.2689 H   0  0  0  0  0  0  0  0  0  0  0  0
   -1.1896   -0.1714   -0.2432 H   0  0  0  0  0  0  0  0  0  0  0  0
  1  2  1  0
  1  3  1  0
  2  4  1  0
M  END
>  <reaction>  (3) 
rxn_298

>  <mol_properties>  (3) 
{"0": {"label": "acceptor", "atom_type": "O2s"}, "3": {"label": "a_hydrogen", "atom_type": "H0"}}

>  <type>  (3) 
r2h

$$$$

     RDKit          3D

 17 15  0  0  0  0  0  0  0  0999 V2000
    1.5276   -0.6106    0.3918 O   0  0  0  0  0  0  0  0  0  0  0  0
    1.3194   -0.5610    1.7621 O   0  0  0  0  0  0  0  0  0  0  0  0
    1.0257   -1.4555    1.9709 H   0  0  0  0  0  0  0  0  0  0  0  0
   -0.5920    0.1549   -1.9924 C   0  0  0  0  0  0  0  0  0  0  0  0
   -0.6488    0.2997   -0.4924 C   0  0  0  0  0  3  0  0  0  0  0  0
   -0.6230    1.7190    0.0151 C   0  0  0  0  0  0  0  0  0  0  0  0
   -1.6513   -0.5919    0.1952 C   0  0  0  0  0  0  0  0  0  0  0  0
    0.2404    0.7195   -2.4152 H   0  0  0  0  0  0  0  0  0  0  0  0
   -1.5155    0.5377   -2.4436 H   0  0  0  0  0  0  0  0  0  0  0  0
   -0.4873   -0.8899   -2.2896 H   0  0  0  0  0  0  0  0  0  0  0  0
    0.4999   -0.1730   -0.0836 H   0  0  0  0  0  0  0  0  0  0  0  0
   -1.5698    2.2216   -0.2172 H   0  0  0  0  0  0  0  0  0  0  0  0
   -0.4864    1.7461    1.0973 H   0  0  0  0  0  0  0  0  0  0  0  0
    0.1822    2.2915   -0.4471 H   0  0  0  0  0  0  0  0  0  0  0  0
   -1.5484   -1.6304   -0.1251 H   0  0  0  0  0  0  0  0  0  0  0  0
   -2.6725   -0.2707   -0.0426 H   0  0  0  0  0  0  0  0  0  0  0  0
   -1.5392   -0.5461    1.2803 H   0  0  0  0  0  0  0  0  0  0  0  0
  1  2  1  0
  1 11  1  0
  2  3  1  0
  4  5  1  0
  4  8  1  0
  4  9  1  0
  4 10  1  0
  5  6  1  0
  5  7  1  0
  6 12  1  0
  6 13  1  0
  6 14  1  0
  7 15  1  0
  7 16  1  0
  7 17  1  0
M  RAD  1   5   2
M  END
>  <reaction>  (4) 
rxn_298

>  <mol_properties>  (4) 
{"0": {"label": "*1", "atom_type": "O2s"}, "1": {"label": "*0", "atom_type": "O2s"}, "3": {"label": "*4", "atom_type": "Cs"}, "4": {"label": "*3", "atom_type": "Cs"}, "10": {"label": "*2", "atom_type": "H0"}}

>  <type>  (4) 
ts

$$$$

     RDKit          3D

 17 15  0  0  0  0  0  0  0  0999 V2000
    1.4075   -1.0032    0.4068 O   0  0  0  0  0  0  0  0  0  0  0  0
    2.0195    0.0420    1.1569 O   0  0  0  0  0  0  0  0  0  0  0  0
    1.4761    0.0450    1.9515 H   0  0  0  0  0  0  0  0  0  0  0  0
   -0.6661    0.1022   -1.8790 C   0  0  0  0  0  0  0  0  0  0  0  0
   -0.6661    0.1022   -0.3533 C   0  0  0  0  0  3  0  0  0  0  0  0
   -0.6661    1.5269    0.1927 C   0  0  0  0  0  0  0  0  0  0  0  0
   -1.8489   -0.6918    0.1927 C   0  0  0  0  0  0  0  0  0  0  0  0
    0.1947    0.6444   -2.2761 H   0  0  0  0  0  0  0  0  0  0  0  0
   -1.5700    0.5842   -2.2628 H   0  0  0  0  0  0  0  0  0  0  0  0
   -0.6367   -0.9146   -2.2761 H   0  0  0  0  0  0  0  0  0  0  0  0
    0.4376   -0.4862    0.0513 H   0  0  0  0  0  0  0  0  0  0  0  0
   -1.5701    2.0577   -0.1199 H   0  0  0  0  0  0  0  0  0  0  0  0
   -0.6365    1.5337    1.2843 H   0  0  0  0  0  0  0  0  0  0  0  0
    0.1946    2.0917   -0.1716 H   0  0  0  0  0  0  0  0  0  0  0  0
   -1.8381   -1.7213   -0.1715 H   0  0  0  0  0  0  0  0  0  0  0  0
   -2.7935   -0.2372   -0.1199 H   0  0  0  0  0  0  0  0  0  0  0  0
   -1.8381   -0.7201    1.2843 H   0  0  0  0  0  0  0  0  0  0  0  0
  1  2  1  0
  1 11  1  0
  2  3  1  0
  4  5  1  0
  4  8  1  0
  4  9  1  0
  4 10  1  0
  5  6  1  0
  5  7  1  0
  6 12  1  0
  6 13  1  0
  6 14  1  0
  7 15  1  0
  7 16  1  0
  7 17  1  0
M  RAD  1   5   2
M  END
>  <reaction>  (5) 
rxn_298

>  <mol_properties>  (5) 
{"0": {"label": "*1", "atom_type": "O2s"}, "1": {"label": "*0", "atom_type": "O2s"}, "3": {"label": "*4", "atom_type": "Cs"}, "4": {"label": "*3", "atom_type": "Cs"}, "10": {"label": "*2", "atom_type": "H0"}}

>  <type>  (5) 
unop_1

>  <geom_source>  (5) 
Heuristics

$$$$

     RDKit          3D

 17 15  0  0  0  0  0  0  0  0999 V2000
    1.3450   -0.8762    0.7510 O   0  0  0  0  0  0  0  0  0  0  0  0
    2.2349   -0.5587   -0.3153 O   0  0  0  0  0  0  0  0  0  0  0  0
    2.6471    0.2447    0.0180 H   0  0  0  0  0  0  0  0  0  0  0  0
   -0.7285    0.2292   -1.5348 C   0  0  0  0  0  0  0  0  0  0  0  0
   -0.7285    0.2292   -0.0091 C   0  0  0  0  0  3  0  0  0  0  0  0
   -0.7285    1.6539    0.5369 C   0  0  0  0  0  0  0  0  0  0  0  0
   -1.9114   -0.5648    0.5369 C   0  0  0  0  0  0  0  0  0  0  0  0
    0.1322    0.7714   -1.9319 H   0  0  0  0  0  0  0  0  0  0  0  0
   -1.6325    0.7113   -1.9186 H   0  0  0  0  0  0  0  0  0  0  0  0
   -0.6992   -0.7876   -1.9319 H   0  0  0  0  0  0  0  0  0  0  0  0
    0.3752   -0.3592    0.3955 H   0  0  0  0  0  0  0  0  0  0  0  0
   -1.6325    2.1847    0.2243 H   0  0  0  0  0  0  0  0  0  0  0  0
   -0.6990    1.6608    1.6285 H   0  0  0  0  0  0  0  0  0  0  0  0
    0.1321    2.2187    0.1726 H   0  0  0  0  0  0  0  0  0  0  0  0
   -1.9006   -1.5943    0.1727 H   0  0  0  0  0  0  0  0  0  0  0  0
   -2.8560   -0.1102    0.2243 H   0  0  0  0  0  0  0  0  0  0  0  0
   -1.9006   -0.5931    1.6285 H   0  0  0  0  0  0  0  0  0  0  0  0
  1  2  1  0
  1 11  1  0
  2  3  1  0
  4  5  1  0
  4  8  1  0
  4  9  1  0
  4 10  1  0
  5  6  1  0
  5  7  1  0
  6 12  1  0
  6 13  1  0
  6 14  1  0
  7 15  1  0
  7 16  1  0
  7 17  1  0
M  RAD  1   5   2
M  END
>  <reaction>  (6) 
rxn_298

>  <mol_properties>  (6) 
{"0": {"label": "*1", "atom_type": "O2s"}, "1": {"label": "*0", "atom_type": "O2s"}, "3": {"label": "*4", "atom_type": "Cs"}, "4": {"label": "*3", "atom_type": "Cs"}, "10": {"label": "*2", "atom_type": "H0"}}

>  <type>  (6) 
unop_2

>  <geom_source>  (6) 
Heuristics

$$$$

     RDKit          3D

 17 15  0  0  0  0  0  0  0  0999 V2000
    1.4781   -0.9268    0.3181 O   0  0  0  0  0  0  0  0  0  0  0  0
    1.7105   -0.2589    1.5548 O   0  0  0  0  0  0  0  0  0  0  0  0
    1.1866   -0.7953    2.1585 H   0  0  0  0  0  0  0  0  0  0  0  0
   -0.5954    0.1786   -1.9678 C   0  0  0  0  0  0  0  0  0  0  0  0
   -0.5954    0.1786   -0.4421 C   0  0  0  0  0  3  0  0  0  0  0  0
   -0.5954    1.6033    0.1040 C   0  0  0  0  0  0  0  0  0  0  0  0
   -1.7783   -0.6154    0.1040 C   0  0  0  0  0  0  0  0  0  0  0  0
    0.2653    0.7208   -2.3648 H   0  0  0  0  0  0  0  0  0  0  0  0
   -1.4994    0.6607   -2.3516 H   0  0  0  0  0  0  0  0  0  0  0  0
   -0.5661   -0.8382   -2.3648 H   0  0  0  0  0  0  0  0  0  0  0  0
    0.5082   -0.4098   -0.0375 H   0  0  0  0  0  0  0  0  0  0  0  0
   -1.4994    2.1341   -0.2087 H   0  0  0  0  0  0  0  0  0  0  0  0
   -0.5659    1.6102    1.1956 H   0  0  0  0  0  0  0  0  0  0  0  0
    0.2652    2.1681   -0.2604 H   0  0  0  0  0  0  0  0  0  0  0  0
   -1.7675   -1.6449   -0.2602 H   0  0  0  0  0  0  0  0  0  0  0  0
   -2.7229   -0.1608   -0.2087 H   0  0  0  0  0  0  0  0  0  0  0  0
   -1.7675   -0.6437    1.1956 H   0  0  0  0  0  0  0  0  0  0  0  0
  1  2  1  0
  1 11  1  0
  2  3  1  0
  4  5  1  0
  4  8  1  0
  4  9  1  0
  4 10  1  0
  5  6  1  0
  5  7  1  0
  6 12  1  0
  6 13  1  0
  6 14  1  0
  7 15  1  0
  7 16  1  0
  7 17  1  0
M  RAD  1   5   2
M  END
>  <reaction>  (7) 
rxn_298

>  <mol_properties>  (7) 
{"0": {"label": "*1", "atom_type": "O2s"}, "1": {"label": "*0", "atom_type": "O2s"}, "3": {"label": "*4", "atom_type": "Cs"}, "4": {"label": "*3", "atom_type": "Cs"}, "10": {"label": "*2", "atom_type": "H0"}}

>  <type>  (7) 
unop_3

>  <geom_source>  (7) 
Heuristics

$$$$

     RDKit          3D

 17 15  0  0  0  0  0  0  0  0999 V2000
    1.5330   -0.5639    0.6655 O   0  0  0  0  0  0  0  0  0  0  0  0
    1.3859   -1.8570    0.0859 O   0  0  0  0  0  0  0  0  0  0  0  0
    2.3050   -2.0999   -0.0654 H   0  0  0  0  0  0  0  0  0  0  0  0
   -0.5405    0.5415   -1.6203 C   0  0  0  0  0  0  0  0  0  0  0  0
   -0.5405    0.5415   -0.0946 C   0  0  0  0  0  3  0  0  0  0  0  0
   -0.5405    1.9661    0.4514 C   0  0  0  0  0  0  0  0  0  0  0  0
   -1.7234   -0.2526    0.4514 C   0  0  0  0  0  0  0  0  0  0  0  0
    0.3202    1.0837   -2.0174 H   0  0  0  0  0  0  0  0  0  0  0  0
   -1.4445    1.0235   -2.0041 H   0  0  0  0  0  0  0  0  0  0  0  0
   -0.5112   -0.4754   -2.0174 H   0  0  0  0  0  0  0  0  0  0  0  0
    0.5631   -0.0469    0.3100 H   0  0  0  0  0  0  0  0  0  0  0  0
   -1.4445    2.4970    0.1388 H   0  0  0  0  0  0  0  0  0  0  0  0
   -0.5110    1.9730    1.5430 H   0  0  0  0  0  0  0  0  0  0  0  0
    0.3201    2.5309    0.0871 H   0  0  0  0  0  0  0  0  0  0  0  0
   -1.7126   -1.2820    0.0872 H   0  0  0  0  0  0  0  0  0  0  0  0
   -2.6680    0.2021    0.1388 H   0  0  0  0  0  0  0  0  0  0  0  0
   -1.7126   -0.2808    1.5430 H   0  0  0  0  0  0  0  0  0  0  0  0
  1  2  1  0
  1 11  1  0
  2  3  1  0
  4  5  1  0
  4  8  1  0
  4  9  1  0
  4 10  1  0
  5  6  1  0
  5  7  1  0
  6 12  1  0
  6 13  1  0
  6 14  1  0
  7 15  1  0
  7 16  1  0
  7 17  1  0
M  RAD  1   5   2
M  END
>  <reaction>  (8) 
rxn_298

>  <mol_properties>  (8) 
{"0": {"label": "*1", "atom_type": "O2s"}, "1": {"label": "*0", "atom_type": "O2s"}, "3": {"label": "*4", "atom_type": "Cs"}, "4": {"label": "*3", "atom_type": "Cs"}, "10": {"label": "*2", "atom_type": "H0"}}

>  <type>  (8) 
unop_4

>  <geom_source>  (8) 
Heuristics

$$$$

     RDKit          3D

 17 15  0  0  0  0  0  0  0  0999 V2000
    1.5441   -0.8124    0.2889 O   0  0  0  0  0  0  0  0  0  0  0  0
    1.3970   -0.7339    1.7038 O   0  0  0  0  0  0  0  0  0  0  0  0
    1.3130   -1.6646    1.9350 H   0  0  0  0  0  0  0  0  0  0  0  0
   -0.5294    0.2930   -1.9969 C   0  0  0  0  0  0  0  0  0  0  0  0
   -0.5294    0.2930   -0.4712 C   0  0  0  0  0  3  0  0  0  0  0  0
   -0.5294    1.7177    0.0748 C   0  0  0  0  0  0  0  0  0  0  0  0
   -1.7123   -0.5010    0.0749 C   0  0  0  0  0  0  0  0  0  0  0  0
    0.3313    0.8352   -2.3940 H   0  0  0  0  0  0  0  0  0  0  0  0
   -1.4334    0.7751   -2.3807 H   0  0  0  0  0  0  0  0  0  0  0  0
   -0.5001   -0.7238   -2.3940 H   0  0  0  0  0  0  0  0  0  0  0  0
    0.5742   -0.2953   -0.0666 H   0  0  0  0  0  0  0  0  0  0  0  0
   -1.4334    2.2485   -0.2378 H   0  0  0  0  0  0  0  0  0  0  0  0
   -0.4999    1.7246    1.1664 H   0  0  0  0  0  0  0  0  0  0  0  0
    0.3312    2.2825   -0.2895 H   0  0  0  0  0  0  0  0  0  0  0  0
   -1.7015   -1.5305   -0.2894 H   0  0  0  0  0  0  0  0  0  0  0  0
   -2.6569   -0.0464   -0.2378 H   0  0  0  0  0  0  0  0  0  0  0  0
   -1.7015   -0.5293    1.1665 H   0  0  0  0  0  0  0  0  0  0  0  0
  1  2  1  0
  1 11  1  0
  2  3  1  0
  4  5  1  0
  4  8  1  0
  4  9  1  0
  4 10  1  0
  5  6  1  0
  5  7  1  0
  6 12  1  0
  6 13  1  0
  6 14  1  0
  7 15  1  0
  7 16  1  0
  7 17  1  0
M  RAD  1   5   2
M  END
>  <reaction>  (9) 
rxn_298

>  <mol_properties>  (9) 
{"0": {"label": "*1", "atom_type": "O2s"}, "1": {"label": "*0", "atom_type": "O2s"}, "3": {"label": "*4", "atom_type": "Cs"}, "4": {"label": "*3", "atom_type": "Cs"}, "10": {"label": "*2", "atom_type": "H0"}}

>  <type>  (9) 
unop_5

>  <geom_source>  (9) 
Heuristics

$$$$

     RDKit          3D

 17 15  0  0  0  0  0  0  0  0999 V2000
    1.5858   -0.5495    0.5408 O   0  0  0  0  0  0  0  0  0  0  0  0
    1.1608   -1.9067    0.6260 O   0  0  0  0  0  0  0  0  0  0  0  0
    1.9980   -2.3714    0.5275 H   0  0  0  0  0  0  0  0  0  0  0  0
   -0.4878    0.5559   -1.7450 C   0  0  0  0  0  0  0  0  0  0  0  0
   -0.4878    0.5559   -0.2193 C   0  0  0  0  0  3  0  0  0  0  0  0
   -0.4878    1.9805    0.3267 C   0  0  0  0  0  0  0  0  0  0  0  0
   -1.6706   -0.2382    0.3267 C   0  0  0  0  0  0  0  0  0  0  0  0
    0.3730    1.0981   -2.1421 H   0  0  0  0  0  0  0  0  0  0  0  0
   -1.3917    1.0379   -2.1288 H   0  0  0  0  0  0  0  0  0  0  0  0
   -0.4584   -0.4610   -2.1421 H   0  0  0  0  0  0  0  0  0  0  0  0
    0.6159   -0.0325    0.1853 H   0  0  0  0  0  0  0  0  0  0  0  0
   -1.3918    2.5114    0.0141 H   0  0  0  0  0  0  0  0  0  0  0  0
   -0.4582    1.9874    1.4183 H   0  0  0  0  0  0  0  0  0  0  0  0
    0.3729    2.5454   -0.0376 H   0  0  0  0  0  0  0  0  0  0  0  0
   -1.6598   -1.2676   -0.0375 H   0  0  0  0  0  0  0  0  0  0  0  0
   -2.6152    0.2165    0.0141 H   0  0  0  0  0  0  0  0  0  0  0  0
   -1.6598   -0.2664    1.4183 H   0  0  0  0  0  0  0  0  0  0  0  0
  1  2  1  0
  1 11  1  0
  2  3  1  0
  4  5  1  0
  4  8  1  0
  4  9  1  0
  4 10  1  0
  5  6  1  0
  5  7  1  0
  6 12  1  0
  6 13  1  0
  6 14  1  0
  7 15  1  0
  7 16  1  0
  7 17  1  0
M  RAD  1   5   2
M  END
>  <reaction>  (10) 
rxn_298

>  <mol_properties>  (10) 
{"0": {"label": "*1", "atom_type": "O2s"}, "1": {"label": "*0", "atom_type": "O2s"}, "3": {"label": "*4", "atom_type": "Cs"}, "4": {"label": "*3", "atom_type": "Cs"}, "10": {"label": "*2", "atom_type": "H0"}}

>  <type>  (10) 
unop_6

>  <geom_source>  (10) 
Heuristics

$$$$

     RDKit          3D

 17 15  0  0  0  0  0  0  0  0999 V2000
    1.6060   -0.5974    0.4163 O   0  0  0  0  0  0  0  0  0  0  0  0
    1.0793   -1.6881    1.1664 O   0  0  0  0  0  0  0  0  0  0  0  0
    1.7999   -2.3233    1.1039 H   0  0  0  0  0  0  0  0  0  0  0  0
   -0.4675    0.5080   -1.8695 C   0  0  0  0  0  0  0  0  0  0  0  0
   -0.4675    0.5080   -0.3438 C   0  0  0  0  0  3  0  0  0  0  0  0
   -0.4675    1.9327    0.2022 C   0  0  0  0  0  0  0  0  0  0  0  0
   -1.6503   -0.2860    0.2022 C   0  0  0  0  0  0  0  0  0  0  0  0
    0.3933    1.0502   -2.2666 H   0  0  0  0  0  0  0  0  0  0  0  0
   -1.3714    0.9901   -2.2533 H   0  0  0  0  0  0  0  0  0  0  0  0
   -0.4381   -0.5088   -2.2666 H   0  0  0  0  0  0  0  0  0  0  0  0
    0.6362   -0.0803    0.0608 H   0  0  0  0  0  0  0  0  0  0  0  0
   -1.3715    2.4635   -0.1104 H   0  0  0  0  0  0  0  0  0  0  0  0
   -0.4379    1.9396    1.2938 H   0  0  0  0  0  0  0  0  0  0  0  0
    0.3932    2.4975   -0.1621 H   0  0  0  0  0  0  0  0  0  0  0  0
   -1.6395   -1.3155   -0.1620 H   0  0  0  0  0  0  0  0  0  0  0  0
   -2.5949    0.1686   -0.1104 H   0  0  0  0  0  0  0  0  0  0  0  0
   -1.6395   -0.3143    1.2938 H   0  0  0  0  0  0  0  0  0  0  0  0
  1  2  1  0
  1 11  1  0
  2  3  1  0
  4  5  1  0
  4  8  1  0
  4  9  1  0
  4 10  1  0
  5  6  1  0
  5  7  1  0
  6 12  1  0
  6 13  1  0
  6 14  1  0
  7 15  1  0
  7 16  1  0
  7 17  1  0
M  RAD  1   5   2
M  END
>  <reaction>  (11) 
rxn_298

>  <mol_properties>  (11) 
{"0": {"label": "*1", "atom_type": "O2s"}, "1": {"label": "*0", "atom_type": "O2s"}, "3": {"label": "*4", "atom_type": "Cs"}, "4": {"label": "*3", "atom_type": "Cs"}, "10": {"label": "*2", "atom_type": "H0"}}

>  <type>  (11) 
unop_7

>  <geom_source>  (11) 
Heuristics

$$$$

     RDKit          3D

 17 15  0  0  0  0  0  0  0  0999 V2000
    1.3532   -1.0201    0.5310 O   0  0  0  0  0  0  0  0  0  0  0  0
    2.2431    0.0892    0.6163 O   0  0  0  0  0  0  0  0  0  0  0  0
    1.9110    0.5355    1.4019 H   0  0  0  0  0  0  0  0  0  0  0  0
   -0.7203    0.0854   -1.7548 C   0  0  0  0  0  0  0  0  0  0  0  0
   -0.7203    0.0854   -0.2291 C   0  0  0  0  0  3  0  0  0  0  0  0
   -0.7203    1.5100    0.3169 C   0  0  0  0  0  0  0  0  0  0  0  0
   -1.9031   -0.7087    0.3170 C   0  0  0  0  0  0  0  0  0  0  0  0
    0.1405    0.6275   -2.1519 H   0  0  0  0  0  0  0  0  0  0  0  0
   -1.6242    0.5674   -2.1386 H   0  0  0  0  0  0  0  0  0  0  0  0
   -0.6909   -0.9315   -2.1519 H   0  0  0  0  0  0  0  0  0  0  0  0
    0.3834   -0.5030    0.1755 H   0  0  0  0  0  0  0  0  0  0  0  0
   -1.6243    2.0408    0.0043 H   0  0  0  0  0  0  0  0  0  0  0  0
   -0.6907    1.5169    1.4085 H   0  0  0  0  0  0  0  0  0  0  0  0
    0.1404    2.0748   -0.0474 H   0  0  0  0  0  0  0  0  0  0  0  0
   -1.8923   -1.7381   -0.0473 H   0  0  0  0  0  0  0  0  0  0  0  0
   -2.8477   -0.2541    0.0043 H   0  0  0  0  0  0  0  0  0  0  0  0
   -1.8923   -0.7369    1.4086 H   0  0  0  0  0  0  0  0  0  0  0  0
  1  2  1  0
  1 11  1  0
  2  3  1  0
  4  5  1  0
  4  8  1  0
  4  9  1  0
  4 10  1  0
  5  6  1  0
  5  7  1  0
  6 12  1  0
  6 13  1  0
  6 14  1  0
  7 15  1  0
  7 16  1  0
  7 17  1  0
M  RAD  1   5   2
M  END
>  <reaction>  (12) 
rxn_298

>  <mol_properties>  (12) 
{"0": {"label": "*1", "atom_type": "O2s"}, "1": {"label": "*0", "atom_type": "O2s"}, "3": {"label": "*4", "atom_type": "Cs"}, "4": {"label": "*3", "atom_type": "Cs"}, "10": {"label": "*2", "atom_type": "H0"}}

>  <type>  (12) 
unop_8

>  <geom_source>  (12) 
Heuristics

$$$$

     RDKit          3D

 17 15  0  0  0  0  0  0  0  0999 V2000
    1.4619   -0.6384    0.7563 O   0  0  0  0  0  0  0  0  0  0  0  0
    1.6943   -1.5541   -0.3100 O   0  0  0  0  0  0  0  0  0  0  0  0
    2.6384   -1.4356   -0.4559 H   0  0  0  0  0  0  0  0  0  0  0  0
   -0.6117    0.4670   -1.5295 C   0  0  0  0  0  0  0  0  0  0  0  0
   -0.6117    0.4670   -0.0038 C   0  0  0  0  0  3  0  0  0  0  0  0
   -0.6117    1.8917    0.5422 C   0  0  0  0  0  0  0  0  0  0  0  0
   -1.7945   -0.3270    0.5422 C   0  0  0  0  0  0  0  0  0  0  0  0
    0.2491    1.0092   -1.9266 H   0  0  0  0  0  0  0  0  0  0  0  0
   -1.5156    0.9491   -1.9133 H   0  0  0  0  0  0  0  0  0  0  0  0
   -0.5823   -0.5498   -1.9266 H   0  0  0  0  0  0  0  0  0  0  0  0
    0.4920   -0.1213    0.4008 H   0  0  0  0  0  0  0  0  0  0  0  0
   -1.5157    2.4225    0.2296 H   0  0  0  0  0  0  0  0  0  0  0  0
   -0.5821    1.8986    1.6338 H   0  0  0  0  0  0  0  0  0  0  0  0
    0.2490    2.4565    0.1779 H   0  0  0  0  0  0  0  0  0  0  0  0
   -1.7837   -1.3565    0.1780 H   0  0  0  0  0  0  0  0  0  0  0  0
   -2.7391    0.1276    0.2296 H   0  0  0  0  0  0  0  0  0  0  0  0
   -1.7837   -0.3553    1.6338 H   0  0  0  0  0  0  0  0  0  0  0  0
  1  2  1  0
  1 11  1  0
  2  3  1  0
  4  5  1  0
  4  8  1  0
  4  9  1  0
  4 10  1  0
  5  6  1  0
  5  7  1  0
  6 12  1  0
  6 13  1  0
  6 14  1  0
  7 15  1  0
  7 16  1  0
  7 17  1  0
M  RAD  1   5   2
M  END
>  <reaction>  (13) 
rxn_298

>  <mol_properties>  (13) 
{"0": {"label": "*1", "atom_type": "O2s"}, "1": {"label": "*0", "atom_type": "O2s"}, "3": {"label": "*4", "atom_type": "Cs"}, "4": {"label": "*3", "atom_type": "Cs"}, "10": {"label": "*2", "atom_type": "H0"}}

>  <type>  (13) 
unop_9

>  <geom_source>  (13) 
Heuristics

$$$$

     RDKit          3D

 17 15  0  0  0  0  0  0  0  0999 V2000
    1.3306   -0.9736    0.6570 O   0  0  0  0  0  0  0  0  0  0  0  0
    2.3221   -0.1307    0.0774 O   0  0  0  0  0  0  0  0  0  0  0  0
    2.3246    0.6075    0.6952 H   0  0  0  0  0  0  0  0  0  0  0  0
   -0.7430    0.1319   -1.6288 C   0  0  0  0  0  0  0  0  0  0  0  0
   -0.7430    0.1319   -0.1031 C   0  0  0  0  0  3  0  0  0  0  0  0
   -0.7430    1.5565    0.4429 C   0  0  0  0  0  0  0  0  0  0  0  0
   -1.9258   -0.6622    0.4429 C   0  0  0  0  0  0  0  0  0  0  0  0
    0.1178    0.6740   -2.0259 H   0  0  0  0  0  0  0  0  0  0  0  0
   -1.6469    0.6139   -2.0126 H   0  0  0  0  0  0  0  0  0  0  0  0
   -0.7136   -0.8850   -2.0259 H   0  0  0  0  0  0  0  0  0  0  0  0
    0.3607   -0.4565    0.3015 H   0  0  0  0  0  0  0  0  0  0  0  0
   -1.6470    2.0873    0.1303 H   0  0  0  0  0  0  0  0  0  0  0  0
   -0.7134    1.5634    1.5345 H   0  0  0  0  0  0  0  0  0  0  0  0
    0.1177    2.1213    0.0786 H   0  0  0  0  0  0  0  0  0  0  0  0
   -1.9150   -1.6916    0.0787 H   0  0  0  0  0  0  0  0  0  0  0  0
   -2.8704   -0.2076    0.1303 H   0  0  0  0  0  0  0  0  0  0  0  0
   -1.9150   -0.6904    1.5345 H   0  0  0  0  0  0  0  0  0  0  0  0
  1  2  1  0
  1 11  1  0
  2  3  1  0
  4  5  1  0
  4  8  1  0
  4  9  1  0
  4 10  1  0
  5  6  1  0
  5  7  1  0
  6 12  1  0
  6 13  1  0
  6 14  1  0
  7 15  1  0
  7 16  1  0
  7 17  1  0
M  RAD  1   5   2
M  END
>  <reaction>  (14) 
rxn_298

>  <mol_properties>  (14) 
{"0": {"label": "*1", "atom_type": "O2s"}, "1": {"label": "*0", "atom_type": "O2s"}, "3": {"label": "*4", "atom_type": "Cs"}, "4": {"label": "*3", "atom_type": "Cs"}, "10": {"label": "*2", "atom_type": "H0"}}

>  <type>  (14) 
unop_10

>  <geom_source>  (14) 
Heuristics

$$$$

     RDKit          3D

 17 15  0  0  0  0  0  0  0  0999 V2000
    1.5899   -0.6932    0.3249 O   0  0  0  0  0  0  0  0  0  0  0  0
    1.1649   -1.2584    1.5616 O   0  0  0  0  0  0  0  0  0  0  0  0
    1.6279   -2.1023    1.5505 H   0  0  0  0  0  0  0  0  0  0  0  0
   -0.4836    0.4123   -1.9610 C   0  0  0  0  0  0  0  0  0  0  0  0
   -0.4836    0.4123   -0.4353 C   0  0  0  0  0  3  0  0  0  0  0  0
   -0.4836    1.8369    0.1108 C   0  0  0  0  0  0  0  0  0  0  0  0
   -1.6664   -0.3818    0.1108 C   0  0  0  0  0  0  0  0  0  0  0  0
    0.3771    0.9544   -2.3580 H   0  0  0  0  0  0  0  0  0  0  0  0
   -1.3876    0.8943   -2.3448 H   0  0  0  0  0  0  0  0  0  0  0  0
   -0.4542   -0.6046   -2.3580 H   0  0  0  0  0  0  0  0  0  0  0  0
    0.6201   -0.1761   -0.0307 H   0  0  0  0  0  0  0  0  0  0  0  0
   -1.3876    2.3677   -0.2019 H   0  0  0  0  0  0  0  0  0  0  0  0
   -0.4541    1.8438    1.2024 H   0  0  0  0  0  0  0  0  0  0  0  0
    0.3771    2.4017   -0.2536 H   0  0  0  0  0  0  0  0  0  0  0  0
   -1.6557   -1.4113   -0.2534 H   0  0  0  0  0  0  0  0  0  0  0  0
   -2.6110    0.0728   -0.2019 H   0  0  0  0  0  0  0  0  0  0  0  0
   -1.6557   -0.4100    1.2024 H   0  0  0  0  0  0  0  0  0  0  0  0
  1  2  1  0
  1 11  1  0
  2  3  1  0
  4  5  1  0
  4  8  1  0
  4  9  1  0
  4 10  1  0
  5  6  1  0
  5  7  1  0
  6 12  1  0
  6 13  1  0
  6 14  1  0
  7 15  1  0
  7 16  1  0
  7 17  1  0
M  RAD  1   5   2
M  END
>  <reaction>  (15) 
rxn_298

>  <mol_properties>  (15) 
{"0": {"label": "*1", "atom_type": "O2s"}, "1": {"label": "*0", "atom_type": "O2s"}, "3": {"label": "*4", "atom_type": "Cs"}, "4": {"label": "*3", "atom_type": "Cs"}, "10": {"label": "*2", "atom_type": "H0"}}

>  <type>  (15) 
unop_11

>  <geom_source>  (15) 
Heuristics

$$$$

     RDKit          3D

 17 15  0  0  0  0  0  0  0  0999 V2000
    1.3928   -0.7533    0.7877 O   0  0  0  0  0  0  0  0  0  0  0  0
    2.0048   -1.0796   -0.4568 O   0  0  0  0  0  0  0  0  0  0  0  0
    2.7893   -0.5224   -0.4311 H   0  0  0  0  0  0  0  0  0  0  0  0
   -0.6808    0.3521   -1.4982 C   0  0  0  0  0  0  0  0  0  0  0  0
   -0.6808    0.3521    0.0275 C   0  0  0  0  0  3  0  0  0  0  0  0
   -0.6808    1.7768    0.5736 C   0  0  0  0  0  0  0  0  0  0  0  0
   -1.8636   -0.4419    0.5736 C   0  0  0  0  0  0  0  0  0  0  0  0
    0.1800    0.8943   -1.8952 H   0  0  0  0  0  0  0  0  0  0  0  0
   -1.5847    0.8342   -1.8820 H   0  0  0  0  0  0  0  0  0  0  0  0
   -0.6514   -0.6647   -1.8952 H   0  0  0  0  0  0  0  0  0  0  0  0
    0.4229   -0.2363    0.4321 H   0  0  0  0  0  0  0  0  0  0  0  0
   -1.5848    2.3076    0.2609 H   0  0  0  0  0  0  0  0  0  0  0  0
   -0.6512    1.7837    1.6652 H   0  0  0  0  0  0  0  0  0  0  0  0
    0.1799    2.3416    0.2092 H   0  0  0  0  0  0  0  0  0  0  0  0
   -1.8528   -1.4714    0.2094 H   0  0  0  0  0  0  0  0  0  0  0  0
   -2.8082    0.0127    0.2609 H   0  0  0  0  0  0  0  0  0  0  0  0
   -1.8528   -0.4702    1.6652 H   0  0  0  0  0  0  0  0  0  0  0  0
  1  2  1  0
  1 11  1  0
  2  3  1  0
  4  5  1  0
  4  8  1  0
  4  9  1  0
  4 10  1  0
  5  6  1  0
  5  7  1  0
  6 12  1  0
  6 13  1  0
  6 14  1  0
  7 15  1  0
  7 16  1  0
  7 17  1  0
M  RAD  1   5   2
M  END
>  <reaction>  (16) 
rxn_298

>  <mol_properties>  (16) 
{"0": {"label": "*1", "atom_type": "O2s"}, "1": {"label": "*0", "atom_type": "O2s"}, "3": {"label": "*4", "atom_type": "Cs"}, "4": {"label": "*3", "atom_type": "Cs"}, "10": {"label": "*2", "atom_type": "H0"}}

>  <type>  (16) 
unop_12

>  <geom_source>  (16) 
Heuristics

$$$$

     RDKit          3D

 17 15  0  0  0  0  0  0  0  0999 V2000
    2.9571    0.0266   -0.8074 O   0  0  0  0  0  0  0  0  0  0  0  0
    2.0908    0.7081   -0.0879 O   0  0  0  0  0  1  0  0  0  0  0  0
   -0.2892    0.0870    1.4996 C   0  0  0  0  0  0  0  0  0  0  0  0
   -0.7753   -1.3227   -0.5403 C   0  0  0  0  0  0  0  0  0  0  0  0
   -0.9688    1.1935   -0.6680 C   0  0  0  0  0  0  0  0  0  0  0  0
   -0.2348    0.0137   -0.0276 C   0  0  0  0  0  0  0  0  0  0  0  0
    0.2949   -0.7484    1.9400 H   0  0  0  0  0  0  0  0  0  0  0  0
   -1.3393    0.0244    1.8580 H   0  0  0  0  0  0  0  0  0  0  0  0
    0.1573    1.0417    1.8491 H   0  0  0  0  0  0  0  0  0  0  0  0
   -0.1919   -2.1601   -0.1030 H   0  0  0  0  0  0  0  0  0  0  0  0
   -0.6754   -1.3729   -1.6451 H   0  0  0  0  0  0  0  0  0  0  0  0
   -1.8456   -1.4437   -0.2666 H   0  0  0  0  0  0  0  0  0  0  0  0
   -0.8691    1.1469   -1.7729 H   0  0  0  0  0  0  0  0  0  0  0  0
   -0.5233    2.1498   -0.3216 H   0  0  0  0  0  0  0  0  0  0  0  0
   -2.0471    1.1768   -0.3995 H   0  0  0  0  0  0  0  0  0  0  0  0
    3.3214   -0.6513   -0.1836 H   0  0  0  0  0  0  0  0  0  0  0  0
    0.9384    0.1307   -0.3231 H   0  0  0  0  0  0  0  0  0  0  0  0
  1  2  1  0
  1 16  1  0
  3  6  1  0
  3  7  1  0
  3  8  1  0
  3  9  1  0
  4  6  1  0
  4 10  1  0
  4 11  1  0
  4 12  1  0
  5  6  1  0
  5 13  1  0
  5 14  1  0
  5 15  1  0
  6 17  1  0
M  RAD  1   2   2
M  END
>  <reaction>  (17) 
rxn_298

>  <mol_properties>  (17) 
{"0": {"label": "*1", "atom_type": "O2s"}, "1": {"label": "*0", "atom_type": "O2s"}, "3": {"label": "*4", "atom_type": "Cs"}, "4": {"label": "*3", "atom_type": "Cs"}, "10": {"label": "*2", "atom_type": "H0"}}

>  <type>  (17) 
unop_13

>  <geom_source>  (17) 
AutoTST

$$$$
