
     RDKit          3D

 15 15  0  0  0  0  0  0  0  0999 V2000
    2.2031   -0.2111   -0.1693 C   0  0  0  0  0  0  0  0  0  0  0  0
    0.7140   -0.0314   -0.0623 C   0  0  0  0  0  0  0  0  0  0  0  0
   -0.0114    0.5491   -1.0982 C   0  0  0  0  0  0  0  0  0  0  0  0
   -1.3882    0.6886   -1.0150 C   0  0  0  0  0  0  0  0  0  0  0  0
   -2.0661    0.2493    0.1118 C   0  0  0  0  0  0  0  0  0  0  0  0
   -1.3551   -0.3278    1.1528 C   0  0  0  0  0  0  0  0  0  0  0  0
    0.0216   -0.4648    1.0642 C   0  0  0  0  0  0  0  0  0  0  0  0
    2.6776   -0.1836    0.8122 H   0  0  0  0  0  0  0  0  0  0  0  0
    2.4446   -1.1749   -0.6249 H   0  0  0  0  0  0  0  0  0  0  0  0
    2.6532    0.5664   -0.7875 H   0  0  0  0  0  0  0  0  0  0  0  0
    0.5104    0.8989   -1.9819 H   0  0  0  0  0  0  0  0  0  0  0  0
   -1.9328    1.1452   -1.8322 H   0  0  0  0  0  0  0  0  0  0  0  0
   -3.1409    0.3597    0.1800 H   0  0  0  0  0  0  0  0  0  0  0  0
   -1.8736   -0.6702    2.0398 H   0  0  0  0  0  0  0  0  0  0  0  0
    0.5695   -0.9141    1.8849 H   0  0  0  0  0  0  0  0  0  0  0  0
  1  2  1  0
  1  8  1  0
  1  9  1  0
  1 10  1  0
  2  3  2  0
  2  7  1  0
  3  4  1  0
  3 11  1  0
  4  5  2  0
  4 12  1  0
  5  6  1  0
  5 13  1  0
  6  7  2  0
  6 14  1  0
  7 15  1  0
M  END
>  <reaction>  (1) 
rxn_1452

>  <mol_properties>  (1) 
{"0": {"label": "donator", "atom_type": "Cs"}, "7": {"label": "d_hydrogen", "atom_type": "H0"}}

>  <type>  (1) 
r1h

$$$$

     RDKit          3D

  9  8  0  0  0  0  0  0  0  0999 V2000
    1.8963   -0.1405   -0.2150 C   0  0  0  0  0  0  0  0  0  0  0  0
    0.6340    0.1486   -0.2254 C   0  0  0  0  0  3  0  0  0  0  0  0
   -0.6770    0.4501   -0.2373 C   0  0  0  0  0  0  0  0  0  0  0  0
   -1.6600   -0.2303    0.4662 C   0  0  0  0  0  0  0  0  0  0  0  0
    2.3274   -0.8354   -0.9313 H   0  0  0  0  0  0  0  0  0  0  0  0
    2.5751    0.2988    0.5117 H   0  0  0  0  0  0  0  0  0  0  0  0
   -0.9723    1.2966   -0.8520 H   0  0  0  0  0  0  0  0  0  0  0  0
   -2.6934    0.0777    0.4015 H   0  0  0  0  0  0  0  0  0  0  0  0
   -1.4140   -1.0782    1.0904 H   0  0  0  0  0  0  0  0  0  0  0  0
  1  2  2  3
  1  5  1  0
  1  6  1  0
  2  3  1  0
  3  4  2  3
  3  7  1  0
  4  8  1  0
  4  9  1  0
M  RAD  1   2   2
M  END
>  <reaction>  (2) 
rxn_1452

>  <mol_properties>  (2) 
{"1": {"label": "acceptor", "atom_type": "Cd"}}

>  <type>  (2) 
r2

$$$$

     RDKit          3D

 10  9  0  0  0  0  0  0  0  0999 V2000
    1.8334    0.0847   -0.1062 C   0  0  0  0  0  0  0  0  0  0  0  0
    0.5993   -0.4071   -0.0750 C   0  0  0  0  0  0  0  0  0  0  0  0
   -0.5993    0.4071    0.0750 C   0  0  0  0  0  0  0  0  0  0  0  0
   -1.8334   -0.0847    0.1062 C   0  0  0  0  0  0  0  0  0  0  0  0
    2.0179    1.1498   -0.0189 H   0  0  0  0  0  0  0  0  0  0  0  0
    2.6972   -0.5572   -0.2194 H   0  0  0  0  0  0  0  0  0  0  0  0
    0.4465   -1.4793   -0.1649 H   0  0  0  0  0  0  0  0  0  0  0  0
   -0.4465    1.4793    0.1649 H   0  0  0  0  0  0  0  0  0  0  0  0
   -2.0179   -1.1498    0.0189 H   0  0  0  0  0  0  0  0  0  0  0  0
   -2.6972    0.5572    0.2194 H   0  0  0  0  0  0  0  0  0  0  0  0
  1  2  2  3
  1  5  1  0
  1  6  1  0
  2  3  1  0
  2  7  1  0
  3  4  2  3
  3  8  1  0
  4  9  1  0
  4 10  1  0
M  END
>  <reaction>  (3) 
rxn_1452

>  <mol_properties>  (3) 
{"1": {"label": "acceptor", "atom_type": "Cd"}, "9": {"label": "a_hydrogen", "atom_type": "H0"}}

>  <type>  (3) 
r2h

$$$$

     RDKit          3D

 24 23  0  0  0  0  0  0  0  0999 V2000
   -1.7176   -1.3781    0.8159 C   0  0  0  0  0  0  0  0  0  0  0  0
   -1.0043   -0.9532    1.8383 C   0  0  0  0  0  3  0  0  0  0  0  0
   -1.1278   -1.1939    3.2565 C   0  0  0  0  0  0  0  0  0  0  0  0
   -0.3180   -0.6866    4.1807 C   0  0  0  0  0  0  0  0  0  0  0  0
   -1.4754   -1.0908   -0.2021 H   0  0  0  0  0  0  0  0  0  0  0  0
   -2.5765   -2.0334    0.9542 H   0  0  0  0  0  0  0  0  0  0  0  0
   -1.9511   -1.8401    3.5623 H   0  0  0  0  0  0  0  0  0  0  0  0
   -0.4585   -0.9015    5.2317 H   0  0  0  0  0  0  0  0  0  0  0  0
    0.5093   -0.0411    3.9104 H   0  0  0  0  0  0  0  0  0  0  0  0
    0.9942    0.6309    0.9492 C   0  0  0  0  0  0  0  0  0  0  0  0
    0.7912    0.6324   -0.5108 C   0  0  0  0  0  0  0  0  0  0  0  0
   -0.0519    1.5663   -1.1161 C   0  0  0  0  0  0  0  0  0  0  0  0
   -0.3000    1.5249   -2.4777 C   0  0  0  0  0  0  0  0  0  0  0  0
    0.2881    0.5455   -3.2654 C   0  0  0  0  0  0  0  0  0  0  0  0
    1.1283   -0.3897   -2.6782 C   0  0  0  0  0  0  0  0  0  0  0  0
    1.3754   -0.3470   -1.3165 C   0  0  0  0  0  0  0  0  0  0  0  0
    0.0930   -0.0927    1.4386 H   0  0  0  0  0  0  0  0  0  0  0  0
    1.9180    0.1578    1.2767 H   0  0  0  0  0  0  0  0  0  0  0  0
    0.8444    1.5970    1.4274 H   0  0  0  0  0  0  0  0  0  0  0  0
   -0.5194    2.3308   -0.5061 H   0  0  0  0  0  0  0  0  0  0  0  0
   -0.9554    2.2606   -2.9271 H   0  0  0  0  0  0  0  0  0  0  0  0
    0.0950    0.5130   -4.3300 H   0  0  0  0  0  0  0  0  0  0  0  0
    1.5937   -1.1565   -3.2850 H   0  0  0  0  0  0  0  0  0  0  0  0
    2.0283   -1.0844   -0.8638 H   0  0  0  0  0  0  0  0  0  0  0  0
  1  2  2  3
  1  5  1  0
  1  6  1  0
  2  3  1  0
  3  4  2  3
  3  7  1  0
  4  8  1  0
  4  9  1  0
 10 11  1  0
 10 17  1  0
 10 18  1  0
 10 19  1  0
 11 12  2  0
 11 16  1  0
 12 13  1  0
 12 20  1  0
 13 14  2  0
 13 21  1  0
 14 15  1  0
 14 22  1  0
 15 16  2  0
 15 23  1  0
 16 24  1  0
M  RAD  1   2   2
M  END
>  <reaction>  (4) 
rxn_1452

>  <mol_properties>  (4) 
{"1": {"label": "*3", "atom_type": "Cd"}, "2": {"label": "*4", "atom_type": "Cd"}, "9": {"label": "*1", "atom_type": "Cs"}, "10": {"label": "*0", "atom_type": "Cd"}, "16": {"label": "*2", "atom_type": "H0"}}

>  <type>  (4) 
ts

$$$$

     RDKit          3D

 24 23  0  0  0  0  0  0  0  0999 V2000
   -2.1702   -0.8580    2.2584 C   0  0  0  0  0  0  0  0  0  0  0  0
   -0.9102   -1.1860    1.9924 C   0  0  0  0  0  0  0  0  0  0  0  0
   -0.0979   -2.0528    2.8357 C   0  0  0  0  0  0  0  0  0  0  0  0
    1.1620   -2.3809    2.5697 C   0  0  0  0  0  0  0  0  0  0  0  0
   -2.7379   -0.2100    1.6036 H   0  0  0  0  0  0  0  0  0  0  0  0
   -2.6743   -1.2298    3.1437 H   0  0  0  0  0  0  0  0  0  0  0  0
   -0.5760   -2.4413    3.7309 H   0  0  0  0  0  0  0  0  0  0  0  0
    1.7298   -3.0289    3.2244 H   0  0  0  0  0  0  0  0  0  0  0  0
    1.6662   -2.0091    1.6844 H   0  0  0  0  0  0  0  0  0  0  0  0
    0.2675    0.9437    1.0419 C   0  0  0  0  0  0  0  0  0  0  0  0
    0.2675    0.9437   -0.4618 C   0  0  0  0  0  0  0  0  0  0  0  0
    0.2675    2.1380   -1.1759 C   0  0  0  0  0  3  0  0  0  0  0  0
    0.2979    2.1413   -2.5619 C   0  0  0  0  0  0  0  0  0  0  0  0
    0.3275    0.9443   -3.2609 C   0  0  0  0  0  0  0  0  0  0  0  0
    0.3243   -0.2531   -2.5619 C   0  0  0  0  0  0  0  0  0  0  0  0
    0.2938   -0.2504   -1.1759 C   0  0  0  0  0  0  0  0  0  0  0  0
   -0.3224   -0.1231    1.5180 H   0  0  0  0  0  0  0  0  0  0  0  0
    1.2897    0.9549    1.4286 H   0  0  0  0  0  0  0  0  0  0  0  0
   -0.2435    1.8216    1.4386 H   0  0  0  0  0  0  0  0  0  0  0  0
    0.2409    3.0791   -0.6381 H   0  0  0  0  0  0  0  0  0  0  0  0
    0.2953    3.0825   -3.0976 H   0  0  0  0  0  0  0  0  0  0  0  0
    0.3486    0.9446   -4.3433 H   0  0  0  0  0  0  0  0  0  0  0  0
    0.3424   -1.1941   -3.0976 H   0  0  0  0  0  0  0  0  0  0  0  0
    0.2880   -1.1918   -0.6381 H   0  0  0  0  0  0  0  0  0  0  0  0
  1  2  2  3
  1  5  1  0
  1  6  1  0
  2  3  1  0
  2 17  1  0
  3  4  2  3
  3  7  1  0
  4  8  1  0
  4  9  1  0
 10 11  2  3
 10 18  1  0
 10 19  1  0
 11 12  1  0
 11 16  1  0
 12 13  1  0
 12 20  1  0
 13 14  2  0
 13 21  1  0
 14 15  1  0
 14 22  1  0
 15 16  2  0
 15 23  1  0
 16 24  1  0
M  RAD  1  12   2
M  END
>  <reaction>  (5) 
rxn_1452

>  <mol_properties>  (5) 
{"1": {"label": "*3", "atom_type": "Cd"}, "2": {"label": "*4", "atom_type": "Cd"}, "9": {"label": "*1", "atom_type": "Cs"}, "10": {"label": "*0", "atom_type": "Cd"}, "16": {"label": "*2", "atom_type": "H0"}}

>  <type>  (5) 
unop_1

>  <geom_source>  (5) 
Heuristics

$$$$

     RDKit          3D

 24 23  0  0  0  0  0  0  0  0999 V2000
   -1.0874   -1.1175    3.5962 C   0  0  0  0  0  0  0  0  0  0  0  0
   -0.7757   -1.1195    2.3044 C   0  0  0  0  0  0  0  0  0  0  0  0
   -0.6954   -2.3228    1.4870 C   0  0  0  0  0  0  0  0  0  0  0  0
   -0.3838   -2.3248    0.1952 C   0  0  0  0  0  0  0  0  0  0  0  0
   -1.1358   -0.1991    4.1665 H   0  0  0  0  0  0  0  0  0  0  0  0
   -1.3046   -2.0391    4.1249 H   0  0  0  0  0  0  0  0  0  0  0  0
   -0.9080   -3.2627    1.9892 H   0  0  0  0  0  0  0  0  0  0  0  0
   -0.3354   -3.2432   -0.3751 H   0  0  0  0  0  0  0  0  0  0  0  0
   -0.1666   -1.4032   -0.3335 H   0  0  0  0  0  0  0  0  0  0  0  0
    0.4019    1.0101    1.3539 C   0  0  0  0  0  0  0  0  0  0  0  0
    0.4019    1.0101   -0.1498 C   0  0  0  0  0  0  0  0  0  0  0  0
    0.4019    2.2045   -0.8639 C   0  0  0  0  0  3  0  0  0  0  0  0
    0.4324    2.2078   -2.2499 C   0  0  0  0  0  0  0  0  0  0  0  0
    0.4619    1.0108   -2.9489 C   0  0  0  0  0  0  0  0  0  0  0  0
    0.4588   -0.1866   -2.2499 C   0  0  0  0  0  0  0  0  0  0  0  0
    0.4283   -0.1839   -0.8639 C   0  0  0  0  0  0  0  0  0  0  0  0
   -0.1879   -0.0566    1.8300 H   0  0  0  0  0  0  0  0  0  0  0  0
    1.4242    1.0214    1.7407 H   0  0  0  0  0  0  0  0  0  0  0  0
   -0.1091    1.8880    1.7506 H   0  0  0  0  0  0  0  0  0  0  0  0
    0.3753    3.1456   -0.3261 H   0  0  0  0  0  0  0  0  0  0  0  0
    0.4297    3.1490   -2.7856 H   0  0  0  0  0  0  0  0  0  0  0  0
    0.4831    1.0110   -4.0313 H   0  0  0  0  0  0  0  0  0  0  0  0
    0.4769   -1.1276   -2.7856 H   0  0  0  0  0  0  0  0  0  0  0  0
    0.4224   -1.1253   -0.3261 H   0  0  0  0  0  0  0  0  0  0  0  0
  1  2  2  3
  1  5  1  0
  1  6  1  0
  2  3  1  0
  2 17  1  0
  3  4  2  3
  3  7  1  0
  4  8  1  0
  4  9  1  0
 10 11  2  3
 10 18  1  0
 10 19  1  0
 11 12  1  0
 11 16  1  0
 12 13  1  0
 12 20  1  0
 13 14  2  0
 13 21  1  0
 14 15  1  0
 14 22  1  0
 15 16  2  0
 15 23  1  0
 16 24  1  0
M  RAD  1  12   2
M  END
>  <reaction>  (6) 
rxn_1452

>  <mol_properties>  (6) 
{"1": {"label": "*3", "atom_type": "Cd"}, "2": {"label": "*4", "atom_type": "Cd"}, "9": {"label": "*1", "atom_type": "Cs"}, "10": {"label": "*0", "atom_type": "Cd"}, "16": {"label": "*2", "atom_type": "H0"}}

>  <type>  (6) 
unop_2

>  <geom_source>  (6) 
Heuristics

$$$$

     RDKit          3D

 24 23  0  0  0  0  0  0  0  0999 V2000
   -2.1055   -1.3593    1.4993 C   0  0  0  0  0  0  0  0  0  0  0  0
   -0.8462   -1.2568    1.9112 C   0  0  0  0  0  0  0  0  0  0  0  0
   -0.3679   -1.7404    3.1995 C   0  0  0  0  0  0  0  0  0  0  0  0
    0.8914   -1.6380    3.6114 C   0  0  0  0  0  0  0  0  0  0  0  0
   -2.4183   -0.9859    0.5331 H   0  0  0  0  0  0  0  0  0  0  0  0
   -2.8653   -1.8220    2.1195 H   0  0  0  0  0  0  0  0  0  0  0  0
   -1.1067   -2.2094    3.8438 H   0  0  0  0  0  0  0  0  0  0  0  0
    1.2043   -2.0113    4.5777 H   0  0  0  0  0  0  0  0  0  0  0  0
    1.6512   -1.1752    2.9912 H   0  0  0  0  0  0  0  0  0  0  0  0
    0.3315    0.8728    0.9608 C   0  0  0  0  0  0  0  0  0  0  0  0
    0.3315    0.8728   -0.5430 C   0  0  0  0  0  0  0  0  0  0  0  0
    0.3315    2.0672   -1.2570 C   0  0  0  0  0  3  0  0  0  0  0  0
    0.3619    2.0705   -2.6430 C   0  0  0  0  0  0  0  0  0  0  0  0
    0.3915    0.8735   -3.3420 C   0  0  0  0  0  0  0  0  0  0  0  0
    0.3883   -0.3239   -2.6430 C   0  0  0  0  0  0  0  0  0  0  0  0
    0.3578   -0.3212   -1.2570 C   0  0  0  0  0  0  0  0  0  0  0  0
   -0.2584   -0.1939    1.4368 H   0  0  0  0  0  0  0  0  0  0  0  0
    1.3537    0.8841    1.3475 H   0  0  0  0  0  0  0  0  0  0  0  0
   -0.1795    1.7507    1.3575 H   0  0  0  0  0  0  0  0  0  0  0  0
    0.3049    3.0083   -0.7192 H   0  0  0  0  0  0  0  0  0  0  0  0
    0.3593    3.0117   -3.1787 H   0  0  0  0  0  0  0  0  0  0  0  0
    0.4126    0.8737   -4.4244 H   0  0  0  0  0  0  0  0  0  0  0  0
    0.4064   -1.2649   -3.1787 H   0  0  0  0  0  0  0  0  0  0  0  0
    0.3520   -1.2626   -0.7192 H   0  0  0  0  0  0  0  0  0  0  0  0
  1  2  2  3
  1  5  1  0
  1  6  1  0
  2  3  1  0
  2 17  1  0
  3  4  2  3
  3  7  1  0
  4  8  1  0
  4  9  1  0
 10 11  2  3
 10 18  1  0
 10 19  1  0
 11 12  1  0
 11 16  1  0
 12 13  1  0
 12 20  1  0
 13 14  2  0
 13 21  1  0
 14 15  1  0
 14 22  1  0
 15 16  2  0
 15 23  1  0
 16 24  1  0
M  RAD  1  12   2
M  END
>  <reaction>  (7) 
rxn_1452

>  <mol_properties>  (7) 
{"1": {"label": "*3", "atom_type": "Cd"}, "2": {"label": "*4", "atom_type": "Cd"}, "9": {"label": "*1", "atom_type": "Cs"}, "10": {"label": "*0", "atom_type": "Cd"}, "16": {"label": "*2", "atom_type": "H0"}}

>  <type>  (7) 
unop_3

>  <geom_source>  (7) 
Heuristics

$$$$

     RDKit          3D

 24 23  0  0  0  0  0  0  0  0999 V2000
    0.0224   -1.7046    3.3778 C   0  0  0  0  0  0  0  0  0  0  0  0
   -0.4979   -1.3116    2.2199 C   0  0  0  0  0  0  0  0  0  0  0  0
   -1.8937   -1.5000    1.8475 C   0  0  0  0  0  0  0  0  0  0  0  0
   -2.4140   -1.1070    0.6896 C   0  0  0  0  0  0  0  0  0  0  0  0
    1.0662   -1.5445    3.6140 H   0  0  0  0  0  0  0  0  0  0  0  0
   -0.5832   -2.2009    4.1281 H   0  0  0  0  0  0  0  0  0  0  0  0
   -2.5261   -1.9949    2.5796 H   0  0  0  0  0  0  0  0  0  0  0  0
   -3.4578   -1.2671    0.4534 H   0  0  0  0  0  0  0  0  0  0  0  0
   -1.8084   -0.6107   -0.0607 H   0  0  0  0  0  0  0  0  0  0  0  0
    0.6798    0.8180    1.2694 C   0  0  0  0  0  0  0  0  0  0  0  0
    0.6798    0.8180   -0.2343 C   0  0  0  0  0  0  0  0  0  0  0  0
    0.6798    2.0124   -0.9483 C   0  0  0  0  0  3  0  0  0  0  0  0
    0.7102    2.0157   -2.3343 C   0  0  0  0  0  0  0  0  0  0  0  0
    0.7398    0.8187   -3.0334 C   0  0  0  0  0  0  0  0  0  0  0  0
    0.7366   -0.3787   -2.3343 C   0  0  0  0  0  0  0  0  0  0  0  0
    0.7061   -0.3760   -0.9483 C   0  0  0  0  0  0  0  0  0  0  0  0
    0.0899   -0.2487    1.7455 H   0  0  0  0  0  0  0  0  0  0  0  0
    1.7020    0.8293    1.6562 H   0  0  0  0  0  0  0  0  0  0  0  0
    0.1687    1.6959    1.6662 H   0  0  0  0  0  0  0  0  0  0  0  0
    0.6532    2.9535   -0.4105 H   0  0  0  0  0  0  0  0  0  0  0  0
    0.7076    2.9569   -2.8701 H   0  0  0  0  0  0  0  0  0  0  0  0
    0.7609    0.8189   -4.1157 H   0  0  0  0  0  0  0  0  0  0  0  0
    0.7547   -1.3197   -2.8701 H   0  0  0  0  0  0  0  0  0  0  0  0
    0.7003   -1.3174   -0.4105 H   0  0  0  0  0  0  0  0  0  0  0  0
  1  2  2  3
  1  5  1  0
  1  6  1  0
  2  3  1  0
  2 17  1  0
  3  4  2  3
  3  7  1  0
  4  8  1  0
  4  9  1  0
 10 11  2  3
 10 18  1  0
 10 19  1  0
 11 12  1  0
 11 16  1  0
 12 13  1  0
 12 20  1  0
 13 14  2  0
 13 21  1  0
 14 15  1  0
 14 22  1  0
 15 16  2  0
 15 23  1  0
 16 24  1  0
M  RAD  1  12   2
M  END
>  <reaction>  (8) 
rxn_1452

>  <mol_properties>  (8) 
{"1": {"label": "*3", "atom_type": "Cd"}, "2": {"label": "*4", "atom_type": "Cd"}, "9": {"label": "*1", "atom_type": "Cs"}, "10": {"label": "*0", "atom_type": "Cd"}, "16": {"label": "*2", "atom_type": "H0"}}

>  <type>  (8) 
unop_4

>  <geom_source>  (8) 
Heuristics

$$$$

     RDKit          3D

 24 23  0  0  0  0  0  0  0  0999 V2000
   -1.2465   -2.2259    1.0450 C   0  0  0  0  0  0  0  0  0  0  0  0
   -0.7473   -1.3231    1.8826 C   0  0  0  0  0  0  0  0  0  0  0  0
   -0.8093   -1.4352    3.3338 C   0  0  0  0  0  0  0  0  0  0  0  0
   -0.3101   -0.5324    4.1714 C   0  0  0  0  0  0  0  0  0  0  0  0
   -1.1785   -2.1029   -0.0280 H   0  0  0  0  0  0  0  0  0  0  0  0
   -1.7409   -3.1198    1.4092 H   0  0  0  0  0  0  0  0  0  0  0  0
   -1.2991   -2.3210    3.7291 H   0  0  0  0  0  0  0  0  0  0  0  0
   -0.3781   -0.6554    5.2444 H   0  0  0  0  0  0  0  0  0  0  0  0
    0.1843    0.3615    3.8073 H   0  0  0  0  0  0  0  0  0  0  0  0
    0.4304    0.8066    0.9322 C   0  0  0  0  0  0  0  0  0  0  0  0
    0.4304    0.8066   -0.5716 C   0  0  0  0  0  0  0  0  0  0  0  0
    0.4304    2.0009   -1.2856 C   0  0  0  0  0  3  0  0  0  0  0  0
    0.4608    2.0042   -2.6716 C   0  0  0  0  0  0  0  0  0  0  0  0
    0.4904    0.8072   -3.3706 C   0  0  0  0  0  0  0  0  0  0  0  0
    0.4872   -0.3902   -2.6716 C   0  0  0  0  0  0  0  0  0  0  0  0
    0.4567   -0.3875   -1.2856 C   0  0  0  0  0  0  0  0  0  0  0  0
   -0.1595   -0.2602    1.4082 H   0  0  0  0  0  0  0  0  0  0  0  0
    1.4526    0.8178    1.3189 H   0  0  0  0  0  0  0  0  0  0  0  0
   -0.0806    1.6844    1.3289 H   0  0  0  0  0  0  0  0  0  0  0  0
    0.4038    2.9420   -0.7478 H   0  0  0  0  0  0  0  0  0  0  0  0
    0.4582    2.9454   -3.2073 H   0  0  0  0  0  0  0  0  0  0  0  0
    0.5115    0.8074   -4.4530 H   0  0  0  0  0  0  0  0  0  0  0  0
    0.5053   -1.3312   -3.2073 H   0  0  0  0  0  0  0  0  0  0  0  0
    0.4509   -1.3289   -0.7478 H   0  0  0  0  0  0  0  0  0  0  0  0
  1  2  2  3
  1  5  1  0
  1  6  1  0
  2  3  1  0
  2 17  1  0
  3  4  2  3
  3  7  1  0
  4  8  1  0
  4  9  1  0
 10 11  2  3
 10 18  1  0
 10 19  1  0
 11 12  1  0
 11 16  1  0
 12 13  1  0
 12 20  1  0
 13 14  2  0
 13 21  1  0
 14 15  1  0
 14 22  1  0
 15 16  2  0
 15 23  1  0
 16 24  1  0
M  RAD  1  12   2
M  END
>  <reaction>  (9) 
rxn_1452

>  <mol_properties>  (9) 
{"1": {"label": "*3", "atom_type": "Cd"}, "2": {"label": "*4", "atom_type": "Cd"}, "9": {"label": "*1", "atom_type": "Cs"}, "10": {"label": "*0", "atom_type": "Cd"}, "16": {"label": "*2", "atom_type": "H0"}}

>  <type>  (9) 
unop_5

>  <geom_source>  (9) 
Heuristics

$$$$

     RDKit          3D

 24 23  0  0  0  0  0  0  0  0999 V2000
    0.3529   -1.9822    2.9250 C   0  0  0  0  0  0  0  0  0  0  0  0
   -0.4926   -1.3663    2.1055 C   0  0  0  0  0  0  0  0  0  0  0  0
   -1.9265   -1.2623    2.3409 C   0  0  0  0  0  0  0  0  0  0  0  0
   -2.7720   -0.6464    1.5214 C   0  0  0  0  0  0  0  0  0  0  0  0
    1.4123   -2.0361    2.7113 H   0  0  0  0  0  0  0  0  0  0  0  0
    0.0090   -2.4536    3.8392 H   0  0  0  0  0  0  0  0  0  0  0  0
   -2.3014   -1.7254    3.2497 H   0  0  0  0  0  0  0  0  0  0  0  0
   -3.8314   -0.5926    1.7351 H   0  0  0  0  0  0  0  0  0  0  0  0
   -2.4281   -0.1750    0.6072 H   0  0  0  0  0  0  0  0  0  0  0  0
    0.6851    0.7634    1.1550 C   0  0  0  0  0  0  0  0  0  0  0  0
    0.6851    0.7634   -0.3487 C   0  0  0  0  0  0  0  0  0  0  0  0
    0.6851    1.9577   -1.0628 C   0  0  0  0  0  3  0  0  0  0  0  0
    0.7155    1.9610   -2.4488 C   0  0  0  0  0  0  0  0  0  0  0  0
    0.7451    0.7640   -3.1478 C   0  0  0  0  0  0  0  0  0  0  0  0
    0.7419   -0.4333   -2.4488 C   0  0  0  0  0  0  0  0  0  0  0  0
    0.7114   -0.4307   -1.0628 C   0  0  0  0  0  0  0  0  0  0  0  0
    0.0952   -0.3033    1.6311 H   0  0  0  0  0  0  0  0  0  0  0  0
    1.7073    0.7746    1.5418 H   0  0  0  0  0  0  0  0  0  0  0  0
    0.1741    1.6413    1.5517 H   0  0  0  0  0  0  0  0  0  0  0  0
    0.6585    2.8988   -0.5250 H   0  0  0  0  0  0  0  0  0  0  0  0
    0.7129    2.9023   -2.9845 H   0  0  0  0  0  0  0  0  0  0  0  0
    0.7662    0.7643   -4.2302 H   0  0  0  0  0  0  0  0  0  0  0  0
    0.7600   -1.3744   -2.9845 H   0  0  0  0  0  0  0  0  0  0  0  0
    0.7056   -1.3721   -0.5250 H   0  0  0  0  0  0  0  0  0  0  0  0
  1  2  2  3
  1  5  1  0
  1  6  1  0
  2  3  1  0
  2 17  1  0
  3  4  2  3
  3  7  1  0
  4  8  1  0
  4  9  1  0
 10 11  2  3
 10 18  1  0
 10 19  1  0
 11 12  1  0
 11 16  1  0
 12 13  1  0
 12 20  1  0
 13 14  2  0
 13 21  1  0
 14 15  1  0
 14 22  1  0
 15 16  2  0
 15 23  1  0
 16 24  1  0
M  RAD  1  12   2
M  END
>  <reaction>  (10) 
rxn_1452

>  <mol_properties>  (10) 
{"1": {"label": "*3", "atom_type": "Cd"}, "2": {"label": "*4", "atom_type": "Cd"}, "9": {"label": "*1", "atom_type": "Cs"}, "10": {"label": "*0", "atom_type": "Cd"}, "16": {"label": "*2", "atom_type": "H0"}}

>  <type>  (10) 
unop_6

>  <geom_source>  (10) 
Heuristics

$$$$

     RDKit          3D

 24 23  0  0  0  0  0  0  0  0999 V2000
    0.4031   -2.2810    2.2584 C   0  0  0  0  0  0  0  0  0  0  0  0
   -0.5446   -1.3882    1.9924 C   0  0  0  0  0  0  0  0  0  0  0  0
   -1.7106   -1.1611    2.8357 C   0  0  0  0  0  0  0  0  0  0  0  0
   -2.6583   -0.2683    2.5697 C   0  0  0  0  0  0  0  0  0  0  0  0
    1.2538   -2.4173    1.6036 H   0  0  0  0  0  0  0  0  0  0  0  0
    0.3563   -2.9056    3.1437 H   0  0  0  0  0  0  0  0  0  0  0  0
   -1.7854   -1.7725    3.7309 H   0  0  0  0  0  0  0  0  0  0  0  0
   -3.5090   -0.1320    3.2244 H   0  0  0  0  0  0  0  0  0  0  0  0
   -2.6114    0.3563    1.6844 H   0  0  0  0  0  0  0  0  0  0  0  0
    0.6331    0.7415    1.0419 C   0  0  0  0  0  0  0  0  0  0  0  0
    0.6331    0.7415   -0.4618 C   0  0  0  0  0  0  0  0  0  0  0  0
    0.6331    1.9358   -1.1759 C   0  0  0  0  0  3  0  0  0  0  0  0
    0.6636    1.9391   -2.5619 C   0  0  0  0  0  0  0  0  0  0  0  0
    0.6931    0.7421   -3.2609 C   0  0  0  0  0  0  0  0  0  0  0  0
    0.6900   -0.4552   -2.5619 C   0  0  0  0  0  0  0  0  0  0  0  0
    0.6594   -0.4526   -1.1759 C   0  0  0  0  0  0  0  0  0  0  0  0
    0.0432   -0.3252    1.5180 H   0  0  0  0  0  0  0  0  0  0  0  0
    1.6553    0.7527    1.4286 H   0  0  0  0  0  0  0  0  0  0  0  0
    0.1221    1.6194    1.4386 H   0  0  0  0  0  0  0  0  0  0  0  0
    0.6065    2.8769   -0.6381 H   0  0  0  0  0  0  0  0  0  0  0  0
    0.6609    2.8804   -3.0976 H   0  0  0  0  0  0  0  0  0  0  0  0
    0.7142    0.7424   -4.3433 H   0  0  0  0  0  0  0  0  0  0  0  0
    0.7081   -1.3963   -3.0976 H   0  0  0  0  0  0  0  0  0  0  0  0
    0.6536   -1.3940   -0.6381 H   0  0  0  0  0  0  0  0  0  0  0  0
  1  2  2  3
  1  5  1  0
  1  6  1  0
  2  3  1  0
  2 17  1  0
  3  4  2  3
  3  7  1  0
  4  8  1  0
  4  9  1  0
 10 11  2  3
 10 18  1  0
 10 19  1  0
 11 12  1  0
 11 16  1  0
 12 13  1  0
 12 20  1  0
 13 14  2  0
 13 21  1  0
 14 15  1  0
 14 22  1  0
 15 16  2  0
 15 23  1  0
 16 24  1  0
M  RAD  1  12   2
M  END
>  <reaction>  (11) 
rxn_1452

>  <mol_properties>  (11) 
{"1": {"label": "*3", "atom_type": "Cd"}, "2": {"label": "*4", "atom_type": "Cd"}, "9": {"label": "*1", "atom_type": "Cs"}, "10": {"label": "*0", "atom_type": "Cd"}, "16": {"label": "*2", "atom_type": "H0"}}

>  <type>  (11) 
unop_7

>  <geom_source>  (11) 
Heuristics

$$$$

     RDKit          3D

 24 23  0  0  0  0  0  0  0  0999 V2000
   -1.8905   -0.7417    2.9250 C   0  0  0  0  0  0  0  0  0  0  0  0
   -0.9193   -1.1303    2.1055 C   0  0  0  0  0  0  0  0  0  0  0  0
   -0.0689   -2.2896    2.3409 C   0  0  0  0  0  0  0  0  0  0  0  0
    0.9023   -2.6782    1.5214 C   0  0  0  0  0  0  0  0  0  0  0  0
   -2.4993    0.1270    2.7113 H   0  0  0  0  0  0  0  0  0  0  0  0
   -2.1069   -1.2836    3.8392 H   0  0  0  0  0  0  0  0  0  0  0  0
   -0.2618   -2.8533    3.2497 H   0  0  0  0  0  0  0  0  0  0  0  0
    1.5111   -3.5469    1.7351 H   0  0  0  0  0  0  0  0  0  0  0  0
    1.1187   -2.1363    0.6072 H   0  0  0  0  0  0  0  0  0  0  0  0
    0.2584    0.9993    1.1550 C   0  0  0  0  0  0  0  0  0  0  0  0
    0.2584    0.9993   -0.3487 C   0  0  0  0  0  0  0  0  0  0  0  0
    0.2584    2.1936   -1.0628 C   0  0  0  0  0  3  0  0  0  0  0  0
    0.2888    2.1970   -2.4488 C   0  0  0  0  0  0  0  0  0  0  0  0
    0.3184    1.0000   -3.1478 C   0  0  0  0  0  0  0  0  0  0  0  0
    0.3153   -0.1974   -2.4488 C   0  0  0  0  0  0  0  0  0  0  0  0
    0.2847   -0.1947   -1.0628 C   0  0  0  0  0  0  0  0  0  0  0  0
   -0.3315   -0.0674    1.6311 H   0  0  0  0  0  0  0  0  0  0  0  0
    1.2806    1.0106    1.5418 H   0  0  0  0  0  0  0  0  0  0  0  0
   -0.2526    1.8772    1.5517 H   0  0  0  0  0  0  0  0  0  0  0  0
    0.2318    3.1347   -0.5250 H   0  0  0  0  0  0  0  0  0  0  0  0
    0.2862    3.1382   -2.9845 H   0  0  0  0  0  0  0  0  0  0  0  0
    0.3395    1.0002   -4.2302 H   0  0  0  0  0  0  0  0  0  0  0  0
    0.3334   -1.1384   -2.9845 H   0  0  0  0  0  0  0  0  0  0  0  0
    0.2789   -1.1362   -0.5250 H   0  0  0  0  0  0  0  0  0  0  0  0
  1  2  2  3
  1  5  1  0
  1  6  1  0
  2  3  1  0
  2 17  1  0
  3  4  2  3
  3  7  1  0
  4  8  1  0
  4  9  1  0
 10 11  2  3
 10 18  1  0
 10 19  1  0
 11 12  1  0
 11 16  1  0
 12 13  1  0
 12 20  1  0
 13 14  2  0
 13 21  1  0
 14 15  1  0
 14 22  1  0
 15 16  2  0
 15 23  1  0
 16 24  1  0
M  RAD  1  12   2
M  END
>  <reaction>  (12) 
rxn_1452

>  <mol_properties>  (12) 
{"1": {"label": "*3", "atom_type": "Cd"}, "2": {"label": "*4", "atom_type": "Cd"}, "9": {"label": "*1", "atom_type": "Cs"}, "10": {"label": "*0", "atom_type": "Cd"}, "16": {"label": "*2", "atom_type": "H0"}}

>  <type>  (12) 
unop_8

>  <geom_source>  (12) 
Heuristics

$$$$

     RDKit          3D

 24 23  0  0  0  0  0  0  0  0999 V2000
   -0.3923   -1.5018    3.5962 C   0  0  0  0  0  0  0  0  0  0  0  0
   -0.5597   -1.2390    2.3044 C   0  0  0  0  0  0  0  0  0  0  0  0
   -1.6216   -1.8106    1.4870 C   0  0  0  0  0  0  0  0  0  0  0  0
   -1.7890   -1.5478    0.1952 C   0  0  0  0  0  0  0  0  0  0  0  0
    0.4112   -1.0546    4.1665 H   0  0  0  0  0  0  0  0  0  0  0  0
   -1.0574   -2.1758    4.1249 H   0  0  0  0  0  0  0  0  0  0  0  0
   -2.3046   -2.4904    1.9892 H   0  0  0  0  0  0  0  0  0  0  0  0
   -2.5925   -1.9950   -0.3751 H   0  0  0  0  0  0  0  0  0  0  0  0
   -1.1239   -0.8738   -0.3335 H   0  0  0  0  0  0  0  0  0  0  0  0
    0.6179    0.8907    1.3539 C   0  0  0  0  0  0  0  0  0  0  0  0
    0.6179    0.8907   -0.1498 C   0  0  0  0  0  0  0  0  0  0  0  0
    0.6179    2.0850   -0.8639 C   0  0  0  0  0  3  0  0  0  0  0  0
    0.6484    2.0884   -2.2499 C   0  0  0  0  0  0  0  0  0  0  0  0
    0.6779    0.8914   -2.9489 C   0  0  0  0  0  0  0  0  0  0  0  0
    0.6748   -0.3060   -2.2499 C   0  0  0  0  0  0  0  0  0  0  0  0
    0.6443   -0.3033   -0.8639 C   0  0  0  0  0  0  0  0  0  0  0  0
    0.0280   -0.1760    1.8300 H   0  0  0  0  0  0  0  0  0  0  0  0
    1.6401    0.9020    1.7407 H   0  0  0  0  0  0  0  0  0  0  0  0
    0.1069    1.7686    1.7506 H   0  0  0  0  0  0  0  0  0  0  0  0
    0.5913    3.0261   -0.3261 H   0  0  0  0  0  0  0  0  0  0  0  0
    0.6457    3.0296   -2.7856 H   0  0  0  0  0  0  0  0  0  0  0  0
    0.6991    0.8916   -4.0313 H   0  0  0  0  0  0  0  0  0  0  0  0
    0.6929   -1.2470   -2.7856 H   0  0  0  0  0  0  0  0  0  0  0  0
    0.6384   -1.2448   -0.3261 H   0  0  0  0  0  0  0  0  0  0  0  0
  1  2  2  3
  1  5  1  0
  1  6  1  0
  2  3  1  0
  2 17  1  0
  3  4  2  3
  3  7  1  0
  4  8  1  0
  4  9  1  0
 10 11  2  3
 10 18  1  0
 10 19  1  0
 11 12  1  0
 11 16  1  0
 12 13  1  0
 12 20  1  0
 13 14  2  0
 13 21  1  0
 14 15  1  0
 14 22  1  0
 15 16  2  0
 15 23  1  0
 16 24  1  0
M  RAD  1  12   2
M  END
>  <reaction>  (13) 
rxn_1452

>  <mol_properties>  (13) 
{"1": {"label": "*3", "atom_type": "Cd"}, "2": {"label": "*4", "atom_type": "Cd"}, "9": {"label": "*1", "atom_type": "Cs"}, "10": {"label": "*0", "atom_type": "Cd"}, "16": {"label": "*2", "atom_type": "H0"}}

>  <type>  (13) 
unop_9

>  <geom_source>  (13) 
Heuristics

$$$$

     RDKit          3D

 24 23  0  0  0  0  0  0  0  0999 V2000
   -1.4797   -0.8740    3.3778 C   0  0  0  0  0  0  0  0  0  0  0  0
   -0.8702   -1.1058    2.2199 C   0  0  0  0  0  0  0  0  0  0  0  0
   -0.2877   -2.3881    1.8475 C   0  0  0  0  0  0  0  0  0  0  0  0
    0.3218   -2.6199    0.6896 C   0  0  0  0  0  0  0  0  0  0  0  0
   -1.8990    0.0952    3.6140 H   0  0  0  0  0  0  0  0  0  0  0  0
   -1.5780   -1.6508    4.1281 H   0  0  0  0  0  0  0  0  0  0  0  0
   -0.3706   -3.1869    2.5796 H   0  0  0  0  0  0  0  0  0  0  0  0
    0.7412   -3.5891    0.4534 H   0  0  0  0  0  0  0  0  0  0  0  0
    0.4202   -1.8431   -0.0607 H   0  0  0  0  0  0  0  0  0  0  0  0
    0.3075    1.0239    1.2694 C   0  0  0  0  0  0  0  0  0  0  0  0
    0.3075    1.0239   -0.2343 C   0  0  0  0  0  0  0  0  0  0  0  0
    0.3075    2.2182   -0.9483 C   0  0  0  0  0  3  0  0  0  0  0  0
    0.3380    2.2216   -2.3343 C   0  0  0  0  0  0  0  0  0  0  0  0
    0.3675    1.0246   -3.0334 C   0  0  0  0  0  0  0  0  0  0  0  0
    0.3644   -0.1728   -2.3343 C   0  0  0  0  0  0  0  0  0  0  0  0
    0.3339   -0.1701   -0.9483 C   0  0  0  0  0  0  0  0  0  0  0  0
   -0.2824   -0.0428    1.7455 H   0  0  0  0  0  0  0  0  0  0  0  0
    1.3297    1.0351    1.6562 H   0  0  0  0  0  0  0  0  0  0  0  0
   -0.2035    1.9018    1.6662 H   0  0  0  0  0  0  0  0  0  0  0  0
    0.2809    3.1593   -0.4105 H   0  0  0  0  0  0  0  0  0  0  0  0
    0.3353    3.1628   -2.8701 H   0  0  0  0  0  0  0  0  0  0  0  0
    0.3887    1.0248   -4.1157 H   0  0  0  0  0  0  0  0  0  0  0  0
    0.3825   -1.1139   -2.8701 H   0  0  0  0  0  0  0  0  0  0  0  0
    0.3280   -1.1116   -0.4105 H   0  0  0  0  0  0  0  0  0  0  0  0
  1  2  2  3
  1  5  1  0
  1  6  1  0
  2  3  1  0
  2 17  1  0
  3  4  2  3
  3  7  1  0
  4  8  1  0
  4  9  1  0
 10 11  2  3
 10 18  1  0
 10 19  1  0
 11 12  1  0
 11 16  1  0
 12 13  1  0
 12 20  1  0
 13 14  2  0
 13 21  1  0
 14 15  1  0
 14 22  1  0
 15 16  2  0
 15 23  1  0
 16 24  1  0
M  RAD  1  12   2
M  END
>  <reaction>  (14) 
rxn_1452

>  <mol_properties>  (14) 
{"1": {"label": "*3", "atom_type": "Cd"}, "2": {"label": "*4", "atom_type": "Cd"}, "9": {"label": "*1", "atom_type": "Cs"}, "10": {"label": "*0", "atom_type": "Cd"}, "16": {"label": "*2", "atom_type": "H0"}}

>  <type>  (14) 
unop_10

>  <geom_source>  (14) 
Heuristics

$$$$

     RDKit          3D

 24 23  0  0  0  0  0  0  0  0999 V2000
   -0.0558   -2.4927    1.4993 C   0  0  0  0  0  0  0  0  0  0  0  0
   -0.6386   -1.3716    1.9112 C   0  0  0  0  0  0  0  0  0  0  0  0
   -1.3024   -1.2236    3.1995 C   0  0  0  0  0  0  0  0  0  0  0  0
   -1.8852   -0.1026    3.6114 C   0  0  0  0  0  0  0  0  0  0  0  0
    0.4267   -2.5592    0.5331 H   0  0  0  0  0  0  0  0  0  0  0  0
   -0.0439   -3.3822    2.1195 H   0  0  0  0  0  0  0  0  0  0  0  0
   -1.3069   -2.0987    3.8438 H   0  0  0  0  0  0  0  0  0  0  0  0
   -2.3677   -0.0361    4.5777 H   0  0  0  0  0  0  0  0  0  0  0  0
   -1.8972    0.7870    2.9912 H   0  0  0  0  0  0  0  0  0  0  0  0
    0.5391    0.7580    0.9608 C   0  0  0  0  0  0  0  0  0  0  0  0
    0.5391    0.7580   -0.5430 C   0  0  0  0  0  0  0  0  0  0  0  0
    0.5391    1.9524   -1.2570 C   0  0  0  0  0  3  0  0  0  0  0  0
    0.5695    1.9557   -2.6430 C   0  0  0  0  0  0  0  0  0  0  0  0
    0.5991    0.7587   -3.3420 C   0  0  0  0  0  0  0  0  0  0  0  0
    0.5960   -0.4387   -2.6430 C   0  0  0  0  0  0  0  0  0  0  0  0
    0.5654   -0.4360   -1.2570 C   0  0  0  0  0  0  0  0  0  0  0  0
   -0.0508   -0.3087    1.4368 H   0  0  0  0  0  0  0  0  0  0  0  0
    1.5613    0.7693    1.3475 H   0  0  0  0  0  0  0  0  0  0  0  0
    0.0281    1.6359    1.3575 H   0  0  0  0  0  0  0  0  0  0  0  0
    0.5125    2.8935   -0.7192 H   0  0  0  0  0  0  0  0  0  0  0  0
    0.5669    2.8969   -3.1787 H   0  0  0  0  0  0  0  0  0  0  0  0
    0.6202    0.7589   -4.4244 H   0  0  0  0  0  0  0  0  0  0  0  0
    0.6141   -1.3797   -3.1787 H   0  0  0  0  0  0  0  0  0  0  0  0
    0.5596   -1.3775   -0.7192 H   0  0  0  0  0  0  0  0  0  0  0  0
  1  2  2  3
  1  5  1  0
  1  6  1  0
  2  3  1  0
  2 17  1  0
  3  4  2  3
  3  7  1  0
  4  8  1  0
  4  9  1  0
 10 11  2  3
 10 18  1  0
 10 19  1  0
 11 12  1  0
 11 16  1  0
 12 13  1  0
 12 20  1  0
 13 14  2  0
 13 21  1  0
 14 15  1  0
 14 22  1  0
 15 16  2  0
 15 23  1  0
 16 24  1  0
M  RAD  1  12   2
M  END
>  <reaction>  (15) 
rxn_1452

>  <mol_properties>  (15) 
{"1": {"label": "*3", "atom_type": "Cd"}, "2": {"label": "*4", "atom_type": "Cd"}, "9": {"label": "*1", "atom_type": "Cs"}, "10": {"label": "*0", "atom_type": "Cd"}, "16": {"label": "*2", "atom_type": "H0"}}

>  <type>  (15) 
unop_11

>  <geom_source>  (15) 
Heuristics

$$$$

     RDKit          3D

 24 23  0  0  0  0  0  0  0  0999 V2000
   -0.7541   -1.3354    3.6505 C   0  0  0  0  0  0  0  0  0  0  0  0
   -0.6617   -1.1684    2.3354 C   0  0  0  0  0  0  0  0  0  0  0  0
   -1.1832   -2.1115    1.3552 C   0  0  0  0  0  0  0  0  0  0  0  0
   -1.0909   -1.9444    0.0401 C   0  0  0  0  0  0  0  0  0  0  0  0
   -0.3522   -0.6086    4.3442 H   0  0  0  0  0  0  0  0  0  0  0  0
   -1.2370   -2.2087    4.0751 H   0  0  0  0  0  0  0  0  0  0  0  0
   -1.6731   -2.9973    1.7505 H   0  0  0  0  0  0  0  0  0  0  0  0
   -1.4928   -2.6712   -0.6536 H   0  0  0  0  0  0  0  0  0  0  0  0
   -0.6080   -1.0711   -0.3844 H   0  0  0  0  0  0  0  0  0  0  0  0
    0.5160    0.9613    1.3850 C   0  0  0  0  0  0  0  0  0  0  0  0
    0.5160    0.9613   -0.1188 C   0  0  0  0  0  0  0  0  0  0  0  0
    0.5160    2.1556   -0.8328 C   0  0  0  0  0  3  0  0  0  0  0  0
    0.5464    2.1590   -2.2188 C   0  0  0  0  0  0  0  0  0  0  0  0
    0.5759    0.9620   -2.9178 C   0  0  0  0  0  0  0  0  0  0  0  0
    0.5728   -0.2354   -2.2188 C   0  0  0  0  0  0  0  0  0  0  0  0
    0.5423   -0.2327   -0.8328 C   0  0  0  0  0  0  0  0  0  0  0  0
   -0.0739   -0.1054    1.8611 H   0  0  0  0  0  0  0  0  0  0  0  0
    1.5382    0.9726    1.7717 H   0  0  0  0  0  0  0  0  0  0  0  0
    0.0049    1.8392    1.7817 H   0  0  0  0  0  0  0  0  0  0  0  0
    0.4893    3.0967   -0.2950 H   0  0  0  0  0  0  0  0  0  0  0  0
    0.5438    3.1002   -2.7545 H   0  0  0  0  0  0  0  0  0  0  0  0
    0.5971    0.9622   -4.0002 H   0  0  0  0  0  0  0  0  0  0  0  0
    0.5909   -1.1764   -2.7545 H   0  0  0  0  0  0  0  0  0  0  0  0
    0.5364   -1.1742   -0.2950 H   0  0  0  0  0  0  0  0  0  0  0  0
  1  2  2  3
  1  5  1  0
  1  6  1  0
  2  3  1  0
  2 17  1  0
  3  4  2  3
  3  7  1  0
  4  8  1  0
  4  9  1  0
 10 11  2  3
 10 18  1  0
 10 19  1  0
 11 12  1  0
 11 16  1  0
 12 13  1  0
 12 20  1  0
 13 14  2  0
 13 21  1  0
 14 15  1  0
 14 22  1  0
 15 16  2  0
 15 23  1  0
 16 24  1  0
M  RAD  1  12   2
M  END
>  <reaction>  (16) 
rxn_1452

>  <mol_properties>  (16) 
{"1": {"label": "*3", "atom_type": "Cd"}, "2": {"label": "*4", "atom_type": "Cd"}, "9": {"label": "*1", "atom_type": "Cs"}, "10": {"label": "*0", "atom_type": "Cd"}, "16": {"label": "*2", "atom_type": "H0"}}

>  <type>  (16) 
unop_12

>  <geom_source>  (16) 
Heuristics

$$$$

     RDKit          3D

 24 23  0  0  0  0  0  0  0  0999 V2000
    1.1097   -0.8616   -0.3681 C   0  0  0  0  0  0  0  0  0  0  0  0
    1.8597    0.1135   -1.0427 C   0  0  0  0  0  3  0  0  0  0  0  0
    1.4468   -1.2115    0.9464 C   0  0  0  0  0  0  0  0  0  0  0  0
    2.9392    0.7330   -0.4044 C   0  0  0  0  0  0  0  0  0  0  0  0
    3.2726    0.3813    0.9073 C   0  0  0  0  0  0  0  0  0  0  0  0
    2.5269   -0.5902    1.5822 C   0  0  0  0  0  0  0  0  0  0  0  0
   -1.8621    0.8988    0.6390 C   0  0  0  0  0  0  0  0  0  0  0  0
   -2.1285   -0.2169   -0.2955 C   0  0  0  0  0  0  0  0  0  0  0  0
   -0.0443   -1.5284   -1.0409 C   0  0  0  0  0  0  0  0  0  0  0  0
   -2.6893    1.9209    0.8656 C   0  0  0  0  0  0  0  0  0  0  0  0
   -3.2301   -0.3493   -1.0353 C   0  0  0  0  0  0  0  0  0  0  0  0
   -0.9224    0.8769    1.1760 H   0  0  0  0  0  0  0  0  0  0  0  0
   -1.2435   -1.1057   -0.3951 H   0  0  0  0  0  0  0  0  0  0  0  0
    1.6083    0.3919   -2.0588 H   0  0  0  0  0  0  0  0  0  0  0  0
    3.5169    1.4850   -0.9260 H   0  0  0  0  0  0  0  0  0  0  0  0
    0.8749   -1.9629    1.4770 H   0  0  0  0  0  0  0  0  0  0  0  0
    4.1081    0.8612    1.4003 H   0  0  0  0  0  0  0  0  0  0  0  0
    2.7858   -0.8617    2.5974 H   0  0  0  0  0  0  0  0  0  0  0  0
   -2.4040    2.6913    1.5704 H   0  0  0  0  0  0  0  0  0  0  0  0
   -3.6449    2.0200    0.3731 H   0  0  0  0  0  0  0  0  0  0  0  0
   -4.0397    0.3646   -1.0132 H   0  0  0  0  0  0  0  0  0  0  0  0
   -3.3285   -1.2051   -1.6898 H   0  0  0  0  0  0  0  0  0  0  0  0
    0.3011   -2.0688   -1.9473 H   0  0  0  0  0  0  0  0  0  0  0  0
   -0.8129   -0.7764   -1.3176 H   0  0  0  0  0  0  0  0  0  0  0  0
  1  9  2  3
  1  2  1  0
  1  3  1  0
  2  4  1  0
  2 14  1  0
  3  6  2  0
  3 16  1  0
  4  5  2  0
  4 15  1  0
  5  6  1  0
  5 17  1  0
  6 18  1  0
  7 10  2  3
  7  8  1  0
  7 12  1  0
  8 11  2  3
  8 13  1  0
  9 23  1  0
  9 24  1  0
 10 19  1  0
 10 20  1  0
 11 21  1  0
 11 22  1  0
M  RAD  1   2   2
M  END
>  <reaction>  (17) 
rxn_1452

>  <mol_properties>  (17) 
{"1": {"label": "*3", "atom_type": "Cd"}, "2": {"label": "*4", "atom_type": "Cd"}, "9": {"label": "*1", "atom_type": "Cs"}, "10": {"label": "*0", "atom_type": "Cd"}, "16": {"label": "*2", "atom_type": "H0"}}

>  <type>  (17) 
unop_13

>  <geom_source>  (17) 
AutoTST

$$$$

     RDKit          3D

 24 23  0  0  0  0  0  0  0  0999 V2000
   -1.0874   -1.1175    3.5962 C   0  0  0  0  0  0  0  0  0  0  0  0
   -0.7757   -1.1195    2.3044 C   0  0  0  0  0  0  0  0  0  0  0  0
   -0.6954   -2.3228    1.4870 C   0  0  0  0  0  0  0  0  0  0  0  0
   -0.3838   -2.3249    0.1952 C   0  0  0  0  0  0  0  0  0  0  0  0
   -1.1358   -0.1991    4.1665 H   0  0  0  0  0  0  0  0  0  0  0  0
   -1.3046   -2.0391    4.1249 H   0  0  0  0  0  0  0  0  0  0  0  0
   -0.9080   -3.2627    1.9892 H   0  0  0  0  0  0  0  0  0  0  0  0
   -0.3354   -3.2432   -0.3751 H   0  0  0  0  0  0  0  0  0  0  0  0
   -0.1666   -1.4032   -0.3335 H   0  0  0  0  0  0  0  0  0  0  0  0
    0.4019    1.0101    1.3539 C   0  0  0  0  0  0  0  0  0  0  0  0
    0.4019    1.0101   -0.1498 C   0  0  0  0  0  0  0  0  0  0  0  0
    0.4019    2.2045   -0.8639 C   0  0  0  0  0  3  0  0  0  0  0  0
    0.4324    2.2078   -2.2499 C   0  0  0  0  0  0  0  0  0  0  0  0
    0.4619    1.0108   -2.9489 C   0  0  0  0  0  0  0  0  0  0  0  0
    0.4588   -0.1866   -2.2499 C   0  0  0  0  0  0  0  0  0  0  0  0
    0.4283   -0.1839   -0.8639 C   0  0  0  0  0  0  0  0  0  0  0  0
   -0.1879   -0.0566    1.8300 H   0  0  0  0  0  0  0  0  0  0  0  0
    1.4242    1.0214    1.7407 H   0  0  0  0  0  0  0  0  0  0  0  0
   -0.1091    1.8880    1.7506 H   0  0  0  0  0  0  0  0  0  0  0  0
    0.3753    3.1456   -0.3261 H   0  0  0  0  0  0  0  0  0  0  0  0
    0.4298    3.1490   -2.7856 H   0  0  0  0  0  0  0  0  0  0  0  0
    0.4831    1.0110   -4.0313 H   0  0  0  0  0  0  0  0  0  0  0  0
    0.4769   -1.1276   -2.7856 H   0  0  0  0  0  0  0  0  0  0  0  0
    0.4224   -1.1253   -0.3261 H   0  0  0  0  0  0  0  0  0  0  0  0
  1  2  2  3
  1  5  1  0
  1  6  1  0
  2  3  1  0
  2 17  1  0
  3  4  2  3
  3  7  1  0
  4  8  1  0
  4  9  1  0
 10 11  2  3
 10 18  1  0
 10 19  1  0
 11 12  1  0
 11 16  1  0
 12 13  1  0
 12 20  1  0
 13 14  2  0
 13 21  1  0
 14 15  1  0
 14 22  1  0
 15 16  2  0
 15 23  1  0
 16 24  1  0
M  RAD  1  12   2
M  END
>  <reaction>  (18) 
rxn_1452

>  <mol_properties>  (18) 
{"1": {"label": "*3", "atom_type": "Cd"}, "2": {"label": "*4", "atom_type": "Cd"}, "9": {"label": "*1", "atom_type": "Cs"}, "10": {"label": "*0", "atom_type": "Cd"}, "16": {"label": "*2", "atom_type": "H0"}}

>  <type>  (18) 
unop_14

>  <geom_source>  (18) 
gaussian_log

$$$$
