
     RDKit          3D

 13 12  0  0  0  0  0  0  0  0999 V2000
    2.2975   -0.6134    0.7685 C   0  0  0  0  0  0  0  0  0  0  0  0
    1.1676   -0.5248    0.3802 C   0  0  0  0  0  0  0  0  0  0  0  0
   -0.2109   -0.3926   -0.0948 C   0  0  0  0  0  0  0  0  0  0  0  0
   -0.2501    0.2584   -1.4808 C   0  0  0  0  0  0  0  0  0  0  0  0
   -1.0633    0.3831    0.9141 C   0  0  0  0  0  0  0  0  0  0  0  0
    3.2999   -0.6974    1.1133 H   0  0  0  0  0  0  0  0  0  0  0  0
   -0.6209   -1.4038   -0.1814 H   0  0  0  0  0  0  0  0  0  0  0  0
    0.3402   -0.3102   -2.1992 H   0  0  0  0  0  0  0  0  0  0  0  0
    0.1511    1.2724   -1.4369 H   0  0  0  0  0  0  0  0  0  0  0  0
   -1.2791    0.3109   -1.8407 H   0  0  0  0  0  0  0  0  0  0  0  0
   -0.6861    1.4008    1.0287 H   0  0  0  0  0  0  0  0  0  0  0  0
   -1.0492   -0.0971    1.8924 H   0  0  0  0  0  0  0  0  0  0  0  0
   -2.0971    0.4363    0.5680 H   0  0  0  0  0  0  0  0  0  0  0  0
  1  2  3  0
  1  6  1  0
  2  3  1  0
  3  4  1  0
  3  5  1  0
  3  7  1  0
  4  8  1  0
  4  9  1  0
  4 10  1  0
  5 11  1  0
  5 12  1  0
  5 13  1  0
M  END
>  <reaction>  (1) 
rxn_1301

>  <mol_properties>  (1) 
{"2": {"label": "donator", "atom_type": "Cs"}, "6": {"label": "d_hydrogen", "atom_type": "H0"}}

>  <type>  (1) 
r1h

$$$$

     RDKit          3D

  1  0  0  0  0  0  0  0  0  0999 V2000
    0.0000    0.0000    0.0000 H   0  0  0  0  0 15  0  0  0  0  0  0
M  END
>  <reaction>  (2) 
rxn_1301

>  <mol_properties>  (2) 
{"0": {"label": "acceptor", "atom_type": "H0"}}

>  <type>  (2) 
r2

$$$$

     RDKit          3D

  2  1  0  0  0  0  0  0  0  0999 V2000
    0.0000    0.0000    0.3721 H   0  0  0  0  0  0  0  0  0  0  0  0
    0.0000    0.0000   -0.3721 H   0  0  0  0  0  0  0  0  0  0  0  0
  1  2  1  0
M  END
>  <reaction>  (3) 
rxn_1301

>  <mol_properties>  (3) 
{"0": {"label": "acceptor", "atom_type": "H0"}, "1": {"label": "a_hydrogen", "atom_type": "H0"}}

>  <type>  (3) 
r2h

$$$$

     RDKit          3D

 14 12  0  0  0  0  0  0  0  0999 V2000
   -0.0000   -2.3553    1.3008 H   0  0  0  0  0 15  0  0  0  0  0  0
   -0.0000   -0.2984   -2.1732 C   0  0  0  0  0  0  0  0  0  0  0  0
   -0.0000   -0.2393   -0.9752 C   0  0  0  0  0  0  0  0  0  0  0  0
   -0.0000   -0.1842    0.4702 C   0  0  0  0  0  0  0  0  0  0  0  0
   -1.2738    0.4164    1.0473 C   0  0  0  0  0  0  0  0  0  0  0  0
    1.2738    0.4164    1.0473 C   0  0  0  0  0  0  0  0  0  0  0  0
   -0.0000   -0.3480   -3.2355 H   0  0  0  0  0  0  0  0  0  0  0  0
   -0.0000   -1.3291    0.8367 H   0  0  0  0  0  0  0  0  0  0  0  0
   -2.1576   -0.0850    0.6542 H   0  0  0  0  0  0  0  0  0  0  0  0
   -1.3409    1.4767    0.7935 H   0  0  0  0  0  0  0  0  0  0  0  0
   -1.2724    0.3222    2.1344 H   0  0  0  0  0  0  0  0  0  0  0  0
    1.3409    1.4767    0.7935 H   0  0  0  0  0  0  0  0  0  0  0  0
    2.1576   -0.0851    0.6542 H   0  0  0  0  0  0  0  0  0  0  0  0
    1.2724    0.3221    2.1344 H   0  0  0  0  0  0  0  0  0  0  0  0
  2  3  3  0
  2  7  1  0
  3  4  1  0
  4  5  1  0
  4  6  1  0
  4  8  1  0
  5  9  1  0
  5 10  1  0
  5 11  1  0
  6 12  1  0
  6 13  1  0
  6 14  1  0
M  END
>  <reaction>  (4) 
rxn_1301

>  <mol_properties>  (4) 
{"0": {"label": "*1", "atom_type": "H0"}, "2": {"label": "*4", "atom_type": "Ct"}, "3": {"label": "*3", "atom_type": "Cs"}, "7": {"label": "*2", "atom_type": "H0"}}

>  <type>  (4) 
ts

$$$$

     RDKit          3D

 14 12  0  0  0  0  0  0  0  0999 V2000
   -0.0000   -2.3493    1.1960 H   0  0  0  0  0 15  0  0  0  0  0  0
   -0.0000   -0.2758   -2.1511 C   0  0  0  0  0  0  0  0  0  0  0  0
   -0.0000   -0.2758   -0.9530 C   0  0  0  0  0  0  0  0  0  0  0  0
   -0.0000   -0.2518    0.5108 C   0  0  0  0  0  0  0  0  0  0  0  0
   -1.2661    0.4246    1.0452 C   0  0  0  0  0  0  0  0  0  0  0  0
    1.2661    0.4246    1.0452 C   0  0  0  0  0  0  0  0  0  0  0  0
   -0.0000   -0.2758   -3.2144 H   0  0  0  0  0  0  0  0  0  0  0  0
   -0.0000   -1.5005    0.9187 H   0  0  0  0  0  0  0  0  0  0  0  0
   -2.1632   -0.0747    0.6793 H   0  0  0  0  0  0  0  0  0  0  0  0
   -1.3035    1.4681    0.7277 H   0  0  0  0  0  0  0  0  0  0  0  0
   -1.2734    0.3966    2.1362 H   0  0  0  0  0  0  0  0  0  0  0  0
    1.3035    1.4681    0.7277 H   0  0  0  0  0  0  0  0  0  0  0  0
    2.1632   -0.0747    0.6793 H   0  0  0  0  0  0  0  0  0  0  0  0
    1.2735    0.3966    2.1362 H   0  0  0  0  0  0  0  0  0  0  0  0
  2  3  3  0
  2  7  1  0
  3  4  1  0
  4  5  1  0
  4  6  1  0
  4  8  1  0
  5  9  1  0
  5 10  1  0
  5 11  1  0
  6 12  1  0
  6 13  1  0
  6 14  1  0
M  END
>  <reaction>  (5) 
rxn_1301

>  <mol_properties>  (5) 
{"0": {"label": "*1", "atom_type": "H0"}, "2": {"label": "*4", "atom_type": "Ct"}, "3": {"label": "*3", "atom_type": "Cs"}, "7": {"label": "*2", "atom_type": "H0"}}

>  <type>  (5) 
unop_1

>  <geom_source>  (5) 
Heuristics

$$$$

     RDKit          3D

 14 12  0  0  0  0  0  0  0  0999 V2000
   -1.2557    0.9838   -0.1226 C   0  0  0  0  0  0  0  0  0  0  0  0
   -0.3023   -1.2940   -0.6579 C   0  0  0  0  0  0  0  0  0  0  0  0
   -0.2178   -0.0719    0.2552 C   0  0  0  0  0  0  0  0  0  0  0  0
    1.1362    0.5014    0.2274 C   0  0  0  0  0  0  0  0  0  0  0  0
    2.2464    0.9712    0.2054 C   0  0  0  0  0  0  0  0  0  0  0  0
   -1.1968    1.8417    0.5806 H   0  0  0  0  0  0  0  0  0  0  0  0
   -2.2761    0.5512   -0.0543 H   0  0  0  0  0  0  0  0  0  0  0  0
   -1.0862    1.3505   -1.1583 H   0  0  0  0  0  0  0  0  0  0  0  0
    0.4360   -2.0591   -0.3360 H   0  0  0  0  0  0  0  0  0  0  0  0
   -1.3155   -1.7439   -0.5936 H   0  0  0  0  0  0  0  0  0  0  0  0
   -0.0971   -1.0125   -1.7136 H   0  0  0  0  0  0  0  0  0  0  0  0
    3.2208    1.3837    0.1860 H   0  0  0  0  0  0  0  0  0  0  0  0
    0.6412   -1.0909    1.9970 H   0  0  0  0  0 15  0  0  0  0  0  0
    0.0671   -0.3111    1.1847 H   0  0  0  0  0  0  0  0  0  0  0  0
  1  3  1  0
  1  6  1  0
  1  7  1  0
  1  8  1  0
  2  3  1  0
  2  9  1  0
  2 10  1  0
  2 11  1  0
  3  4  1  0
  3 14  1  0
  4  5  3  0
  5 12  1  0
M  END
>  <reaction>  (6) 
rxn_1301

>  <mol_properties>  (6) 
{"0": {"label": "*1", "atom_type": "H0"}, "2": {"label": "*4", "atom_type": "Ct"}, "3": {"label": "*3", "atom_type": "Cs"}, "7": {"label": "*2", "atom_type": "H0"}}

>  <type>  (6) 
unop_2

>  <geom_source>  (6) 
AutoTST

$$$$
