
     RDKit          3D

 14 13  0  0  0  0  0  0  0  0999 V2000
   -0.7647   -1.2352   -0.0349 C   0  0  0  0  0  0  0  0  0  0  0  0
    0.0570   -0.0126    0.3624 C   0  0  0  0  0  0  0  0  0  0  0  0
    1.4161   -0.0194   -0.3307 C   0  0  0  0  0  0  0  0  0  0  0  0
   -0.7022    1.2765    0.0629 C   0  0  0  0  0  0  0  0  0  0  0  0
   -0.2387   -2.1619    0.2040 H   0  0  0  0  0  0  0  0  0  0  0  0
   -0.9624   -1.2316   -1.1108 H   0  0  0  0  0  0  0  0  0  0  0  0
   -1.7273   -1.2512    0.4806 H   0  0  0  0  0  0  0  0  0  0  0  0
    0.2295   -0.0589    1.4432 H   0  0  0  0  0  0  0  0  0  0  0  0
    1.2933    0.0260   -1.4168 H   0  0  0  0  0  0  0  0  0  0  0  0
    2.0206    0.8381   -0.0278 H   0  0  0  0  0  0  0  0  0  0  0  0
    1.9767   -0.9269   -0.0967 H   0  0  0  0  0  0  0  0  0  0  0  0
   -1.6638    1.3002    0.5799 H   0  0  0  0  0  0  0  0  0  0  0  0
   -0.8978    1.3664   -1.0096 H   0  0  0  0  0  0  0  0  0  0  0  0
   -0.1313    2.1545    0.3721 H   0  0  0  0  0  0  0  0  0  0  0  0
  1  2  1  0
  1  5  1  0
  1  6  1  0
  1  7  1  0
  2  3  1  0
  2  4  1  0
  2  8  1  0
  3  9  1  0
  3 10  1  0
  3 11  1  0
  4 12  1  0
  4 13  1  0
  4 14  1  0
M  END
>  <reaction>  (1) 
rxn_985

>  <mol_properties>  (1) 
{"1": {"label": "donator", "atom_type": "Cs"}, "7": {"label": "d_hydrogen", "atom_type": "H0"}}

>  <type>  (1) 
r1h

$$$$

     RDKit          3D

 10  9  0  0  0  0  0  0  0  0999 V2000
   -1.3354   -0.2069    0.0525 C   0  0  0  0  0  0  0  0  0  0  0  0
    0.0851    0.2624    0.0266 C   0  0  0  0  0  0  0  0  0  0  0  0
    0.4841    1.3876    0.7359 C   0  0  0  0  0  0  0  0  0  0  0  0
    2.0191    2.0303    0.8057 S   0  0  0  0  0  1  0  0  0  0  0  0
    1.1566   -0.6823   -0.9297 S   0  0  0  0  0  0  0  0  0  0  0  0
   -1.7589   -0.2174   -0.9545 H   0  0  0  0  0  0  0  0  0  0  0  0
   -1.4004   -1.2253    0.4427 H   0  0  0  0  0  0  0  0  0  0  0  0
   -1.9442    0.4442    0.6783 H   0  0  0  0  0  0  0  0  0  0  0  0
   -0.3073    1.8814    1.2951 H   0  0  0  0  0  0  0  0  0  0  0  0
    2.2383    0.0827   -0.6554 H   0  0  0  0  0  0  0  0  0  0  0  0
  1  2  1  0
  1  6  1  0
  1  7  1  0
  1  8  1  0
  2  3  2  3
  2  5  1  0
  3  4  1  0
  3  9  1  0
  5 10  1  0
M  RAD  1   4   2
M  END
>  <reaction>  (2) 
rxn_985

>  <mol_properties>  (2) 
{"1": {"label": "acceptor", "atom_type": "Cs"}}

>  <type>  (2) 
r2

$$$$

     RDKit          3D

 11 10  0  0  0  0  0  0  0  0999 V2000
   -1.0997   -0.5860   -0.1182 C   0  0  0  0  0  0  0  0  0  0  0  0
    0.0827    0.2961    0.2270 C   0  0  0  0  0  0  0  0  0  0  0  0
    0.1622    1.6171   -0.4774 C   0  0  0  0  0  0  0  0  0  0  0  0
   -0.9879    2.3087   -1.3633 S   0  0  0  0  0  0  0  0  0  0  0  0
    0.2176    0.6619    2.0187 S   0  0  0  0  0  0  0  0  0  0  0  0
   -1.1052   -0.8107   -1.1861 H   0  0  0  0  0  0  0  0  0  0  0  0
   -2.0402   -0.0893    0.1198 H   0  0  0  0  0  0  0  0  0  0  0  0
   -1.0438   -1.5182    0.4423 H   0  0  0  0  0  0  0  0  0  0  0  0
    1.0207   -0.2324    0.0280 H   0  0  0  0  0  0  0  0  0  0  0  0
    1.1091    2.1333   -0.3182 H   0  0  0  0  0  0  0  0  0  0  0  0
   -0.9205    1.3661    2.0994 H   0  0  0  0  0  0  0  0  0  0  0  0
  1  2  1  0
  1  6  1  0
  1  7  1  0
  1  8  1  0
  2  3  1  0
  2  5  1  0
  2  9  1  0
  3  4  2  0
  3 10  1  0
  5 11  1  0
M  END
>  <reaction>  (3) 
rxn_985

>  <mol_properties>  (3) 
{"1": {"label": "acceptor", "atom_type": "Cs"}, "10": {"label": "a_hydrogen", "atom_type": "H0"}}

>  <type>  (3) 
r2h

$$$$

     RDKit          3D

 24 22  0  0  0  0  0  0  0  0999 V2000
    0.8559   -1.2198   -0.9639 C   0  0  0  0  0  0  0  0  0  0  0  0
    0.7269   -0.0113   -0.0655 C   0  0  0  0  0  0  0  0  0  0  0  0
    0.4762   -0.2182    1.3521 C   0  0  0  0  0  0  0  0  0  0  0  0
   -0.0533   -1.5884    2.0542 S   0  0  0  0  0  0  0  0  0  0  0  0
    1.9068    1.3206   -0.4050 S   0  0  0  0  0  0  0  0  0  0  0  0
    1.7900   -1.7489   -0.7621 H   0  0  0  0  0  0  0  0  0  0  0  0
    0.0370   -1.9161   -0.7844 H   0  0  0  0  0  0  0  0  0  0  0  0
    0.8533   -0.9142   -2.0099 H   0  0  0  0  0  0  0  0  0  0  0  0
    0.6269    0.6704    1.9644 H   0  0  0  0  0  0  0  0  0  0  0  0
    2.9995    0.6921    0.0538 H   0  0  0  0  0  0  0  0  0  0  0  0
   -1.2126    1.7994   -2.2325 C   0  0  0  0  0  0  0  0  0  0  0  0
   -1.5840    1.1119   -0.9510 C   0  0  0  0  0  3  0  0  0  0  0  0
   -1.9121    2.0023    0.2121 C   0  0  0  0  0  0  0  0  0  0  0  0
   -2.4276   -0.1234   -1.0809 C   0  0  0  0  0  0  0  0  0  0  0  0
   -0.4857    2.5961   -2.0674 H   0  0  0  0  0  0  0  0  0  0  0  0
   -2.1020    2.2537   -2.6880 H   0  0  0  0  0  0  0  0  0  0  0  0
   -0.7977    1.0976   -2.9580 H   0  0  0  0  0  0  0  0  0  0  0  0
   -0.3351    0.5518   -0.4659 H   0  0  0  0  0  0  0  0  0  0  0  0
   -2.8823    2.4897    0.0570 H   0  0  0  0  0  0  0  0  0  0  0  0
   -1.9796    1.4312    1.1408 H   0  0  0  0  0  0  0  0  0  0  0  0
   -1.1638    2.7868    0.3396 H   0  0  0  0  0  0  0  0  0  0  0  0
   -2.0669   -0.7743   -1.8785 H   0  0  0  0  0  0  0  0  0  0  0  0
   -3.4635    0.1495   -1.3191 H   0  0  0  0  0  0  0  0  0  0  0  0
   -2.4442   -0.6928   -0.1494 H   0  0  0  0  0  0  0  0  0  0  0  0
  1  2  1  0
  1  6  1  0
  1  7  1  0
  1  8  1  0
  2  3  1  0
  2  5  1  0
  2 18  1  0
  3  4  2  0
  3  9  1  0
  5 10  1  0
 11 12  1  0
 11 15  1  0
 11 16  1  0
 11 17  1  0
 12 13  1  0
 12 14  1  0
 13 19  1  0
 13 20  1  0
 13 21  1  0
 14 22  1  0
 14 23  1  0
 14 24  1  0
M  RAD  1  12   2
M  END
>  <reaction>  (4) 
rxn_985

>  <mol_properties>  (4) 
{"1": {"label": "*1", "atom_type": "Cs"}, "2": {"label": "*0", "atom_type": "CS"}, "10": {"label": "*4", "atom_type": "Cs"}, "11": {"label": "*3", "atom_type": "Cs"}, "17": {"label": "*2", "atom_type": "H0"}}

>  <type>  (4) 
ts

$$$$

     RDKit          3D

 24 22  0  0  0  0  0  0  0  0999 V2000
    1.4509    0.9543    0.9833 C   0  0  0  0  0  0  0  0  0  0  0  0
    0.6245   -0.0002    0.1457 C   0  0  0  0  0  0  0  0  0  0  0  0
    1.3401   -1.1922   -0.4151 C   0  0  0  0  0  0  0  0  0  0  0  0
    2.8136   -1.7044   -0.0251 S   0  0  0  0  0  0  0  0  0  0  0  0
   -0.8459   -0.6524    1.0257 S   0  0  0  0  0  0  0  0  0  0  0  0
    1.8689    0.4486    1.8536 H   0  0  0  0  0  0  0  0  0  0  0  0
    2.2835    1.3478    0.3978 H   0  0  0  0  0  0  0  0  0  0  0  0
    0.8307    1.7826    1.3232 H   0  0  0  0  0  0  0  0  0  0  0  0
    0.7453   -1.7500   -1.1386 H   0  0  0  0  0  0  0  0  0  0  0  0
   -0.1577   -1.3328    1.9538 H   0  0  0  0  0  0  0  0  0  0  0  0
   -1.5823    1.1763   -2.1891 C   0  0  0  0  0  0  0  0  0  0  0  0
   -1.5823    1.1763   -0.6633 C   0  0  0  0  0  3  0  0  0  0  0  0
   -1.5823    2.6010   -0.1173 C   0  0  0  0  0  0  0  0  0  0  0  0
   -2.7651    0.3823   -0.1173 C   0  0  0  0  0  0  0  0  0  0  0  0
   -0.7216    1.7186   -2.5861 H   0  0  0  0  0  0  0  0  0  0  0  0
   -2.4862    1.6583   -2.5728 H   0  0  0  0  0  0  0  0  0  0  0  0
   -1.5529    0.1595   -2.5861 H   0  0  0  0  0  0  0  0  0  0  0  0
   -0.4786    0.5879   -0.2587 H   0  0  0  0  0  0  0  0  0  0  0  0
   -2.4863    3.1318   -0.4299 H   0  0  0  0  0  0  0  0  0  0  0  0
   -1.5527    2.6078    0.9743 H   0  0  0  0  0  0  0  0  0  0  0  0
   -0.7216    3.1658   -0.4816 H   0  0  0  0  0  0  0  0  0  0  0  0
   -2.7544   -0.6471   -0.4816 H   0  0  0  0  0  0  0  0  0  0  0  0
   -3.7097    0.8370   -0.4299 H   0  0  0  0  0  0  0  0  0  0  0  0
   -2.7543    0.3540    0.9743 H   0  0  0  0  0  0  0  0  0  0  0  0
  1  2  1  0
  1  6  1  0
  1  7  1  0
  1  8  1  0
  2  3  1  0
  2  5  1  0
  2 18  1  0
  3  4  2  0
  3  9  1  0
  5 10  1  0
 11 12  1  0
 11 15  1  0
 11 16  1  0
 11 17  1  0
 12 13  1  0
 12 14  1  0
 13 19  1  0
 13 20  1  0
 13 21  1  0
 14 22  1  0
 14 23  1  0
 14 24  1  0
M  RAD  1  12   2
M  END
>  <reaction>  (5) 
rxn_985

>  <mol_properties>  (5) 
{"1": {"label": "*1", "atom_type": "Cs"}, "2": {"label": "*0", "atom_type": "CS"}, "10": {"label": "*4", "atom_type": "Cs"}, "11": {"label": "*3", "atom_type": "Cs"}, "17": {"label": "*2", "atom_type": "H0"}}

>  <type>  (5) 
unop_1

>  <geom_source>  (5) 
Heuristics

$$$$

     RDKit          3D

 24 22  0  0  0  0  0  0  0  0999 V2000
    1.6930    0.0785   -1.0290 C   0  0  0  0  0  0  0  0  0  0  0  0
    0.5839   -0.1356   -0.0192 C   0  0  0  0  0  0  0  0  0  0  0  0
    0.5072   -1.4919    0.6151 C   0  0  0  0  0  0  0  0  0  0  0  0
    1.6111   -2.6583    0.5348 S   0  0  0  0  0  0  0  0  0  0  0  0
    0.6128    1.0737    1.3587 S   0  0  0  0  0  0  0  0  0  0  0  0
    2.6713   -0.0681   -0.5717 H   0  0  0  0  0  0  0  0  0  0  0  0
    1.6009   -0.6354   -1.8493 H   0  0  0  0  0  0  0  0  0  0  0  0
    1.6408    1.0902   -1.4290 H   0  0  0  0  0  0  0  0  0  0  0  0
   -0.3991   -1.6416    1.2021 H   0  0  0  0  0  0  0  0  0  0  0  0
    1.7845    0.6690    1.8698 H   0  0  0  0  0  0  0  0  0  0  0  0
   -1.6228    1.0408   -2.3540 C   0  0  0  0  0  0  0  0  0  0  0  0
   -1.6228    1.0408   -0.8282 C   0  0  0  0  0  3  0  0  0  0  0  0
   -1.6228    2.4655   -0.2822 C   0  0  0  0  0  0  0  0  0  0  0  0
   -2.8057    0.2468   -0.2822 C   0  0  0  0  0  0  0  0  0  0  0  0
   -0.7621    1.5831   -2.7510 H   0  0  0  0  0  0  0  0  0  0  0  0
   -2.5268    1.5228   -2.7377 H   0  0  0  0  0  0  0  0  0  0  0  0
   -1.5934    0.0240   -2.7510 H   0  0  0  0  0  0  0  0  0  0  0  0
   -0.5192    0.4524   -0.4236 H   0  0  0  0  0  0  0  0  0  0  0  0
   -2.5269    2.9963   -0.5948 H   0  0  0  0  0  0  0  0  0  0  0  0
   -1.5933    2.4723    0.8094 H   0  0  0  0  0  0  0  0  0  0  0  0
   -0.7622    3.0303   -0.6465 H   0  0  0  0  0  0  0  0  0  0  0  0
   -2.7950   -0.7826   -0.6465 H   0  0  0  0  0  0  0  0  0  0  0  0
   -3.7503    0.7015   -0.5948 H   0  0  0  0  0  0  0  0  0  0  0  0
   -2.7948    0.2185    0.8094 H   0  0  0  0  0  0  0  0  0  0  0  0
  1  2  1  0
  1  6  1  0
  1  7  1  0
  1  8  1  0
  2  3  1  0
  2  5  1  0
  2 18  1  0
  3  4  2  0
  3  9  1  0
  5 10  1  0
 11 12  1  0
 11 15  1  0
 11 16  1  0
 11 17  1  0
 12 13  1  0
 12 14  1  0
 13 19  1  0
 13 20  1  0
 13 21  1  0
 14 22  1  0
 14 23  1  0
 14 24  1  0
M  RAD  1  12   2
M  END
>  <reaction>  (6) 
rxn_985

>  <mol_properties>  (6) 
{"1": {"label": "*1", "atom_type": "Cs"}, "2": {"label": "*0", "atom_type": "CS"}, "10": {"label": "*4", "atom_type": "Cs"}, "11": {"label": "*3", "atom_type": "Cs"}, "17": {"label": "*2", "atom_type": "H0"}}

>  <type>  (6) 
unop_2

>  <geom_source>  (6) 
Heuristics

$$$$

     RDKit          3D

 24 22  0  0  0  0  0  0  0  0999 V2000
    0.9355    0.5106    1.6735 C   0  0  0  0  0  0  0  0  0  0  0  0
    0.4952   -0.0600    0.3408 C   0  0  0  0  0  0  0  0  0  0  0  0
    1.5780   -0.5764   -0.5583 C   0  0  0  0  0  0  0  0  0  0  0  0
    3.1187   -0.8230   -0.1697 S   0  0  0  0  0  0  0  0  0  0  0  0
   -0.7287   -1.4161    0.5000 S   0  0  0  0  0  0  0  0  0  0  0  0
    1.4531   -0.2415    2.2686 H   0  0  0  0  0  0  0  0  0  0  0  0
    1.6247    1.3427    1.5196 H   0  0  0  0  0  0  0  0  0  0  0  0
    0.0689    0.8635    2.2309 H   0  0  0  0  0  0  0  0  0  0  0  0
    1.2253   -0.8195   -1.5608 H   0  0  0  0  0  0  0  0  0  0  0  0
    0.0979   -2.2730    1.1167 H   0  0  0  0  0  0  0  0  0  0  0  0
   -1.7116    1.1165   -1.9939 C   0  0  0  0  0  0  0  0  0  0  0  0
   -1.7116    1.1165   -0.4682 C   0  0  0  0  0  3  0  0  0  0  0  0
   -1.7116    2.5411    0.0778 C   0  0  0  0  0  0  0  0  0  0  0  0
   -2.8944    0.3224    0.0778 C   0  0  0  0  0  0  0  0  0  0  0  0
   -0.8509    1.6587   -2.3910 H   0  0  0  0  0  0  0  0  0  0  0  0
   -2.6156    1.5984   -2.3777 H   0  0  0  0  0  0  0  0  0  0  0  0
   -1.6822    0.0996   -2.3910 H   0  0  0  0  0  0  0  0  0  0  0  0
   -0.6079    0.5281   -0.0636 H   0  0  0  0  0  0  0  0  0  0  0  0
   -2.6156    3.0719   -0.2347 H   0  0  0  0  0  0  0  0  0  0  0  0
   -1.6820    2.5479    1.1694 H   0  0  0  0  0  0  0  0  0  0  0  0
   -0.8510    3.1060   -0.2865 H   0  0  0  0  0  0  0  0  0  0  0  0
   -2.8837   -0.7070   -0.2864 H   0  0  0  0  0  0  0  0  0  0  0  0
   -3.8390    0.7771   -0.2348 H   0  0  0  0  0  0  0  0  0  0  0  0
   -2.8836    0.2941    1.1694 H   0  0  0  0  0  0  0  0  0  0  0  0
  1  2  1  0
  1  6  1  0
  1  7  1  0
  1  8  1  0
  2  3  1  0
  2  5  1  0
  2 18  1  0
  3  4  2  0
  3  9  1  0
  5 10  1  0
 11 12  1  0
 11 15  1  0
 11 16  1  0
 11 17  1  0
 12 13  1  0
 12 14  1  0
 13 19  1  0
 13 20  1  0
 13 21  1  0
 14 22  1  0
 14 23  1  0
 14 24  1  0
M  RAD  1  12   2
M  END
>  <reaction>  (7) 
rxn_985

>  <mol_properties>  (7) 
{"1": {"label": "*1", "atom_type": "Cs"}, "2": {"label": "*0", "atom_type": "CS"}, "10": {"label": "*4", "atom_type": "Cs"}, "11": {"label": "*3", "atom_type": "Cs"}, "17": {"label": "*2", "atom_type": "H0"}}

>  <type>  (7) 
unop_3

>  <geom_source>  (7) 
Heuristics

$$$$

     RDKit          3D

 24 22  0  0  0  0  0  0  0  0999 V2000
    0.8641   -1.7596   -0.7401 C   0  0  0  0  0  0  0  0  0  0  0  0
    0.8099   -0.3357   -0.2253 C   0  0  0  0  0  0  0  0  0  0  0  0
    0.1705   -0.1311    1.1152 C   0  0  0  0  0  0  0  0  0  0  0  0
   -0.2355   -1.2708    2.1744 S   0  0  0  0  0  0  0  0  0  0  0  0
    2.4557    0.4676   -0.1361 S   0  0  0  0  0  0  0  0  0  0  0  0
    1.4315   -2.3983   -0.0633 H   0  0  0  0  0  0  0  0  0  0  0  0
   -0.1431   -2.1725   -0.8180 H   0  0  0  0  0  0  0  0  0  0  0  0
    1.3358   -1.7820   -1.7215 H   0  0  0  0  0  0  0  0  0  0  0  0
    0.0102    0.9191    1.3596 H   0  0  0  0  0  0  0  0  0  0  0  0
    2.9518   -0.3443    0.8086 H   0  0  0  0  0  0  0  0  0  0  0  0
   -1.3969    0.8408   -2.5600 C   0  0  0  0  0  0  0  0  0  0  0  0
   -1.3969    0.8408   -1.0343 C   0  0  0  0  0  3  0  0  0  0  0  0
   -1.3969    2.2654   -0.4883 C   0  0  0  0  0  0  0  0  0  0  0  0
   -2.5798    0.0467   -0.4883 C   0  0  0  0  0  0  0  0  0  0  0  0
   -0.5362    1.3830   -2.9571 H   0  0  0  0  0  0  0  0  0  0  0  0
   -2.3009    1.3227   -2.9438 H   0  0  0  0  0  0  0  0  0  0  0  0
   -1.3675   -0.1761   -2.9571 H   0  0  0  0  0  0  0  0  0  0  0  0
   -0.2933    0.2524   -0.6297 H   0  0  0  0  0  0  0  0  0  0  0  0
   -2.3010    2.7962   -0.8009 H   0  0  0  0  0  0  0  0  0  0  0  0
   -1.3674    2.2722    0.6033 H   0  0  0  0  0  0  0  0  0  0  0  0
   -0.5363    2.8303   -0.8526 H   0  0  0  0  0  0  0  0  0  0  0  0
   -2.5690   -0.9827   -0.8526 H   0  0  0  0  0  0  0  0  0  0  0  0
   -3.5244    0.5014   -0.8009 H   0  0  0  0  0  0  0  0  0  0  0  0
   -2.5689    0.0184    0.6033 H   0  0  0  0  0  0  0  0  0  0  0  0
  1  2  1  0
  1  6  1  0
  1  7  1  0
  1  8  1  0
  2  3  1  0
  2  5  1  0
  2 18  1  0
  3  4  2  0
  3  9  1  0
  5 10  1  0
 11 12  1  0
 11 15  1  0
 11 16  1  0
 11 17  1  0
 12 13  1  0
 12 14  1  0
 13 19  1  0
 13 20  1  0
 13 21  1  0
 14 22  1  0
 14 23  1  0
 14 24  1  0
M  RAD  1  12   2
M  END
>  <reaction>  (8) 
rxn_985

>  <mol_properties>  (8) 
{"1": {"label": "*1", "atom_type": "Cs"}, "2": {"label": "*0", "atom_type": "CS"}, "10": {"label": "*4", "atom_type": "Cs"}, "11": {"label": "*3", "atom_type": "Cs"}, "17": {"label": "*2", "atom_type": "H0"}}

>  <type>  (8) 
unop_4

>  <geom_source>  (8) 
Heuristics

$$$$

     RDKit          3D

 24 22  0  0  0  0  0  0  0  0999 V2000
    0.3796   -0.4427    1.9157 C   0  0  0  0  0  0  0  0  0  0  0  0
    0.3254   -0.4138    0.4019 C   0  0  0  0  0  0  0  0  0  0  0  0
    1.4672    0.2606   -0.2974 C   0  0  0  0  0  0  0  0  0  0  0  0
    2.8573    0.7322    0.3591 S   0  0  0  0  0  0  0  0  0  0  0  0
    0.1746   -2.0786   -0.3515 S   0  0  0  0  0  0  0  0  0  0  0  0
    1.2672   -0.9701    2.2647 H   0  0  0  0  0  0  0  0  0  0  0  0
    0.4210    0.5731    2.3123 H   0  0  0  0  0  0  0  0  0  0  0  0
   -0.5036   -0.9438    2.3095 H   0  0  0  0  0  0  0  0  0  0  0  0
    1.2970    0.3979   -1.3654 H   0  0  0  0  0  0  0  0  0  0  0  0
    1.3723   -2.5215    0.0573 H   0  0  0  0  0  0  0  0  0  0  0  0
   -1.8814    0.7627   -1.9329 C   0  0  0  0  0  0  0  0  0  0  0  0
   -1.8814    0.7627   -0.4072 C   0  0  0  0  0  3  0  0  0  0  0  0
   -1.8814    2.1874    0.1389 C   0  0  0  0  0  0  0  0  0  0  0  0
   -3.0643   -0.0313    0.1389 C   0  0  0  0  0  0  0  0  0  0  0  0
   -1.0207    1.3049   -2.3299 H   0  0  0  0  0  0  0  0  0  0  0  0
   -2.7854    1.2447   -2.3166 H   0  0  0  0  0  0  0  0  0  0  0  0
   -1.8520   -0.2542   -2.3299 H   0  0  0  0  0  0  0  0  0  0  0  0
   -0.7777    0.1743   -0.0026 H   0  0  0  0  0  0  0  0  0  0  0  0
   -2.7854    2.7182   -0.1737 H   0  0  0  0  0  0  0  0  0  0  0  0
   -1.8518    2.1942    1.2305 H   0  0  0  0  0  0  0  0  0  0  0  0
   -1.0208    2.7522   -0.2254 H   0  0  0  0  0  0  0  0  0  0  0  0
   -3.0535   -1.0608   -0.2254 H   0  0  0  0  0  0  0  0  0  0  0  0
   -4.0089    0.4234   -0.1737 H   0  0  0  0  0  0  0  0  0  0  0  0
   -3.0534   -0.0597    1.2305 H   0  0  0  0  0  0  0  0  0  0  0  0
  1  2  1  0
  1  6  1  0
  1  7  1  0
  1  8  1  0
  2  3  1  0
  2  5  1  0
  2 18  1  0
  3  4  2  0
  3  9  1  0
  5 10  1  0
 11 12  1  0
 11 15  1  0
 11 16  1  0
 11 17  1  0
 12 13  1  0
 12 14  1  0
 13 19  1  0
 13 20  1  0
 13 21  1  0
 14 22  1  0
 14 23  1  0
 14 24  1  0
M  RAD  1  12   2
M  END
>  <reaction>  (9) 
rxn_985

>  <mol_properties>  (9) 
{"1": {"label": "*1", "atom_type": "Cs"}, "2": {"label": "*0", "atom_type": "CS"}, "10": {"label": "*4", "atom_type": "Cs"}, "11": {"label": "*3", "atom_type": "Cs"}, "17": {"label": "*2", "atom_type": "H0"}}

>  <type>  (9) 
unop_5

>  <geom_source>  (9) 
Heuristics

$$$$

     RDKit          3D

 24 22  0  0  0  0  0  0  0  0999 V2000
    0.5267   -2.0576   -0.0631 C   0  0  0  0  0  0  0  0  0  0  0  0
    0.7551   -0.5686   -0.2246 C   0  0  0  0  0  0  0  0  0  0  0  0
    0.3465    0.3012    0.9261 C   0  0  0  0  0  0  0  0  0  0  0  0
   -0.0709   -0.1838    2.4013 S   0  0  0  0  0  0  0  0  0  0  0  0
    2.4974   -0.1373   -0.5994 S   0  0  0  0  0  0  0  0  0  0  0  0
    1.0829   -2.4480    0.7890 H   0  0  0  0  0  0  0  0  0  0  0  0
   -0.5312   -2.2615    0.1107 H   0  0  0  0  0  0  0  0  0  0  0  0
    0.8482   -2.5822   -0.9618 H   0  0  0  0  0  0  0  0  0  0  0  0
    0.3782    1.3657    0.6933 H   0  0  0  0  0  0  0  0  0  0  0  0
    2.9957   -0.5545    0.5734 H   0  0  0  0  0  0  0  0  0  0  0  0
   -1.4517    0.6079   -2.5593 C   0  0  0  0  0  0  0  0  0  0  0  0
   -1.4517    0.6079   -1.0336 C   0  0  0  0  0  3  0  0  0  0  0  0
   -1.4517    2.0326   -0.4875 C   0  0  0  0  0  0  0  0  0  0  0  0
   -2.6346   -0.1862   -0.4875 C   0  0  0  0  0  0  0  0  0  0  0  0
   -0.5910    1.1501   -2.9564 H   0  0  0  0  0  0  0  0  0  0  0  0
   -2.3557    1.0899   -2.9431 H   0  0  0  0  0  0  0  0  0  0  0  0
   -1.4223   -0.4090   -2.9563 H   0  0  0  0  0  0  0  0  0  0  0  0
   -0.3480    0.0195   -0.6290 H   0  0  0  0  0  0  0  0  0  0  0  0
   -2.3557    2.5634   -0.8001 H   0  0  0  0  0  0  0  0  0  0  0  0
   -1.4221    2.0394    0.6041 H   0  0  0  0  0  0  0  0  0  0  0  0
   -0.5911    2.5974   -0.8518 H   0  0  0  0  0  0  0  0  0  0  0  0
   -2.6238   -1.2156   -0.8518 H   0  0  0  0  0  0  0  0  0  0  0  0
   -3.5792    0.2685   -0.8001 H   0  0  0  0  0  0  0  0  0  0  0  0
   -2.6237   -0.2145    0.6041 H   0  0  0  0  0  0  0  0  0  0  0  0
  1  2  1  0
  1  6  1  0
  1  7  1  0
  1  8  1  0
  2  3  1  0
  2  5  1  0
  2 18  1  0
  3  4  2  0
  3  9  1  0
  5 10  1  0
 11 12  1  0
 11 15  1  0
 11 16  1  0
 11 17  1  0
 12 13  1  0
 12 14  1  0
 13 19  1  0
 13 20  1  0
 13 21  1  0
 14 22  1  0
 14 23  1  0
 14 24  1  0
M  RAD  1  12   2
M  END
>  <reaction>  (10) 
rxn_985

>  <mol_properties>  (10) 
{"1": {"label": "*1", "atom_type": "Cs"}, "2": {"label": "*0", "atom_type": "CS"}, "10": {"label": "*4", "atom_type": "Cs"}, "11": {"label": "*3", "atom_type": "Cs"}, "17": {"label": "*2", "atom_type": "H0"}}

>  <type>  (10) 
unop_6

>  <geom_source>  (10) 
Heuristics

$$$$

     RDKit          3D

 24 22  0  0  0  0  0  0  0  0999 V2000
    0.2783   -1.9710    0.7460 C   0  0  0  0  0  0  0  0  0  0  0  0
    0.6101   -0.7529   -0.0916 C   0  0  0  0  0  0  0  0  0  0  0  0
    0.6003    0.5695    0.6146 C   0  0  0  0  0  0  0  0  0  0  0  0
    0.5253    0.8149    2.2019 S   0  0  0  0  0  0  0  0  0  0  0  0
    2.2340   -0.8716   -0.9347 S   0  0  0  0  0  0  0  0  0  0  0  0
    0.9901   -2.0891    1.5629 H   0  0  0  0  0  0  0  0  0  0  0  0
   -0.7155   -1.8689    1.1853 H   0  0  0  0  0  0  0  0  0  0  0  0
    0.3041   -2.8662    0.1262 H   0  0  0  0  0  0  0  0  0  0  0  0
    0.6812    1.4197   -0.0630 H   0  0  0  0  0  0  0  0  0  0  0  0
    2.9692   -0.8728    0.1865 H   0  0  0  0  0  0  0  0  0  0  0  0
   -1.5967    0.4236   -2.4263 C   0  0  0  0  0  0  0  0  0  0  0  0
   -1.5967    0.4236   -0.9006 C   0  0  0  0  0  3  0  0  0  0  0  0
   -1.5967    1.8482   -0.3546 C   0  0  0  0  0  0  0  0  0  0  0  0
   -2.7795   -0.3705   -0.3546 C   0  0  0  0  0  0  0  0  0  0  0  0
   -0.7360    0.9658   -2.8234 H   0  0  0  0  0  0  0  0  0  0  0  0
   -2.5007    0.9055   -2.8101 H   0  0  0  0  0  0  0  0  0  0  0  0
   -1.5673   -0.5933   -2.8234 H   0  0  0  0  0  0  0  0  0  0  0  0
   -0.4930   -0.1648   -0.4960 H   0  0  0  0  0  0  0  0  0  0  0  0
   -2.5007    2.3790   -0.6672 H   0  0  0  0  0  0  0  0  0  0  0  0
   -1.5671    1.8550    0.7370 H   0  0  0  0  0  0  0  0  0  0  0  0
   -0.7360    2.4131   -0.7189 H   0  0  0  0  0  0  0  0  0  0  0  0
   -2.7688   -1.3999   -0.7189 H   0  0  0  0  0  0  0  0  0  0  0  0
   -3.7241    0.0842   -0.6672 H   0  0  0  0  0  0  0  0  0  0  0  0
   -2.7687   -0.3988    0.7370 H   0  0  0  0  0  0  0  0  0  0  0  0
  1  2  1  0
  1  6  1  0
  1  7  1  0
  1  8  1  0
  2  3  1  0
  2  5  1  0
  2 18  1  0
  3  4  2  0
  3  9  1  0
  5 10  1  0
 11 12  1  0
 11 15  1  0
 11 16  1  0
 11 17  1  0
 12 13  1  0
 12 14  1  0
 13 19  1  0
 13 20  1  0
 13 21  1  0
 14 22  1  0
 14 23  1  0
 14 24  1  0
M  RAD  1  12   2
M  END
>  <reaction>  (11) 
rxn_985

>  <mol_properties>  (11) 
{"1": {"label": "*1", "atom_type": "Cs"}, "2": {"label": "*0", "atom_type": "CS"}, "10": {"label": "*4", "atom_type": "Cs"}, "11": {"label": "*3", "atom_type": "Cs"}, "17": {"label": "*2", "atom_type": "H0"}}

>  <type>  (11) 
unop_7

>  <geom_source>  (11) 
Heuristics

$$$$

     RDKit          3D

 24 22  0  0  0  0  0  0  0  0999 V2000
    1.7456    0.9511    0.1731 C   0  0  0  0  0  0  0  0  0  0  0  0
    0.6365   -0.0685    0.0117 C   0  0  0  0  0  0  0  0  0  0  0  0
    1.0557   -1.5036   -0.0989 C   0  0  0  0  0  0  0  0  0  0  0  0
    2.5197   -2.1055    0.1843 S   0  0  0  0  0  0  0  0  0  0  0  0
   -0.6126   -0.0014    1.3523 S   0  0  0  0  0  0  0  0  0  0  0  0
    2.3218    0.7613    1.0785 H   0  0  0  0  0  0  0  0  0  0  0  0
    2.4326    0.9000   -0.6732 H   0  0  0  0  0  0  0  0  0  0  0  0
    1.3232    1.9534    0.2298 H   0  0  0  0  0  0  0  0  0  0  0  0
    0.2393   -2.1701   -0.3775 H   0  0  0  0  0  0  0  0  0  0  0  0
    0.2203   -0.3793    2.3327 H   0  0  0  0  0  0  0  0  0  0  0  0
   -1.5703    1.1080   -2.3231 C   0  0  0  0  0  0  0  0  0  0  0  0
   -1.5703    1.1080   -0.7974 C   0  0  0  0  0  3  0  0  0  0  0  0
   -1.5703    2.5326   -0.2513 C   0  0  0  0  0  0  0  0  0  0  0  0
   -2.7531    0.3139   -0.2513 C   0  0  0  0  0  0  0  0  0  0  0  0
   -0.7096    1.6502   -2.7201 H   0  0  0  0  0  0  0  0  0  0  0  0
   -2.4742    1.5900   -2.7068 H   0  0  0  0  0  0  0  0  0  0  0  0
   -1.5409    0.0911   -2.7201 H   0  0  0  0  0  0  0  0  0  0  0  0
   -0.4666    0.5196   -0.3928 H   0  0  0  0  0  0  0  0  0  0  0  0
   -2.4743    3.0635   -0.5639 H   0  0  0  0  0  0  0  0  0  0  0  0
   -1.5407    2.5395    0.8403 H   0  0  0  0  0  0  0  0  0  0  0  0
   -0.7096    3.0975   -0.6156 H   0  0  0  0  0  0  0  0  0  0  0  0
   -2.7424   -0.7155   -0.6156 H   0  0  0  0  0  0  0  0  0  0  0  0
   -3.6977    0.7686   -0.5639 H   0  0  0  0  0  0  0  0  0  0  0  0
   -2.7423    0.2856    0.8403 H   0  0  0  0  0  0  0  0  0  0  0  0
  1  2  1  0
  1  6  1  0
  1  7  1  0
  1  8  1  0
  2  3  1  0
  2  5  1  0
  2 18  1  0
  3  4  2  0
  3  9  1  0
  5 10  1  0
 11 12  1  0
 11 15  1  0
 11 16  1  0
 11 17  1  0
 12 13  1  0
 12 14  1  0
 13 19  1  0
 13 20  1  0
 13 21  1  0
 14 22  1  0
 14 23  1  0
 14 24  1  0
M  RAD  1  12   2
M  END
>  <reaction>  (12) 
rxn_985

>  <mol_properties>  (12) 
{"1": {"label": "*1", "atom_type": "Cs"}, "2": {"label": "*0", "atom_type": "CS"}, "10": {"label": "*4", "atom_type": "Cs"}, "11": {"label": "*3", "atom_type": "Cs"}, "17": {"label": "*2", "atom_type": "H0"}}

>  <type>  (12) 
unop_8

>  <geom_source>  (12) 
Heuristics

$$$$

     RDKit          3D

 24 22  0  0  0  0  0  0  0  0999 V2000
    1.2011   -1.1999   -1.1453 C   0  0  0  0  0  0  0  0  0  0  0  0
    0.7607   -0.1597   -0.1355 C   0  0  0  0  0  0  0  0  0  0  0  0
    0.1212   -0.6723    1.1198 C   0  0  0  0  0  0  0  0  0  0  0  0
    0.0768   -2.1977    1.6264 S   0  0  0  0  0  0  0  0  0  0  0  0
    2.1160    0.9542    0.3978 S   0  0  0  0  0  0  0  0  0  0  0  0
    1.9408   -1.8742   -0.7142 H   0  0  0  0  0  0  0  0  0  0  0  0
    0.3490   -1.8031   -1.4633 H   0  0  0  0  0  0  0  0  0  0  0  0
    1.6370   -0.7113   -2.0157 H   0  0  0  0  0  0  0  0  0  0  0  0
   -0.3221    0.1153    1.7294 H   0  0  0  0  0  0  0  0  0  0  0  0
    2.8423    0.0038    1.0036 H   0  0  0  0  0  0  0  0  0  0  0  0
   -1.4460    1.0168   -2.4703 C   0  0  0  0  0  0  0  0  0  0  0  0
   -1.4460    1.0168   -0.9445 C   0  0  0  0  0  3  0  0  0  0  0  0
   -1.4460    2.4414   -0.3985 C   0  0  0  0  0  0  0  0  0  0  0  0
   -2.6289    0.2227   -0.3985 C   0  0  0  0  0  0  0  0  0  0  0  0
   -0.5853    1.5590   -2.8673 H   0  0  0  0  0  0  0  0  0  0  0  0
   -2.3500    1.4987   -2.8540 H   0  0  0  0  0  0  0  0  0  0  0  0
   -1.4166   -0.0001   -2.8673 H   0  0  0  0  0  0  0  0  0  0  0  0
   -0.3424    0.4284   -0.5399 H   0  0  0  0  0  0  0  0  0  0  0  0
   -2.3501    2.9722   -0.7111 H   0  0  0  0  0  0  0  0  0  0  0  0
   -1.4165    2.4482    0.6931 H   0  0  0  0  0  0  0  0  0  0  0  0
   -0.5854    3.0063   -0.7628 H   0  0  0  0  0  0  0  0  0  0  0  0
   -2.6182   -0.8067   -0.7628 H   0  0  0  0  0  0  0  0  0  0  0  0
   -3.5735    0.6774   -0.7111 H   0  0  0  0  0  0  0  0  0  0  0  0
   -2.6180    0.1944    0.6931 H   0  0  0  0  0  0  0  0  0  0  0  0
  1  2  1  0
  1  6  1  0
  1  7  1  0
  1  8  1  0
  2  3  1  0
  2  5  1  0
  2 18  1  0
  3  4  2  0
  3  9  1  0
  5 10  1  0
 11 12  1  0
 11 15  1  0
 11 16  1  0
 11 17  1  0
 12 13  1  0
 12 14  1  0
 13 19  1  0
 13 20  1  0
 13 21  1  0
 14 22  1  0
 14 23  1  0
 14 24  1  0
M  RAD  1  12   2
M  END
>  <reaction>  (13) 
rxn_985

>  <mol_properties>  (13) 
{"1": {"label": "*1", "atom_type": "Cs"}, "2": {"label": "*0", "atom_type": "CS"}, "10": {"label": "*4", "atom_type": "Cs"}, "11": {"label": "*3", "atom_type": "Cs"}, "17": {"label": "*2", "atom_type": "H0"}}

>  <type>  (13) 
unop_9

>  <geom_source>  (13) 
Heuristics

$$$$

     RDKit          3D

 24 22  0  0  0  0  0  0  0  0999 V2000
    1.8092    0.6146   -0.5434 C   0  0  0  0  0  0  0  0  0  0  0  0
    0.5967   -0.1340   -0.0286 C   0  0  0  0  0  0  0  0  0  0  0  0
    0.7828   -1.5930    0.2618 C   0  0  0  0  0  0  0  0  0  0  0  0
    2.1759   -2.3933    0.3286 S   0  0  0  0  0  0  0  0  0  0  0  0
   -0.1217    0.6030    1.4888 S   0  0  0  0  0  0  0  0  0  0  0  0
    2.6256    0.5787    0.1776 H   0  0  0  0  0  0  0  0  0  0  0  0
    2.1667    0.1637   -1.4707 H   0  0  0  0  0  0  0  0  0  0  0  0
    1.5512    1.6563   -0.7295 H   0  0  0  0  0  0  0  0  0  0  0  0
   -0.1527   -2.1133    0.4681 H   0  0  0  0  0  0  0  0  0  0  0  0
    0.9376    0.3576    2.2734 H   0  0  0  0  0  0  0  0  0  0  0  0
   -1.6101    1.0425   -2.3634 C   0  0  0  0  0  0  0  0  0  0  0  0
   -1.6101    1.0425   -0.8377 C   0  0  0  0  0  3  0  0  0  0  0  0
   -1.6101    2.4672   -0.2916 C   0  0  0  0  0  0  0  0  0  0  0  0
   -2.7929    0.2485   -0.2916 C   0  0  0  0  0  0  0  0  0  0  0  0
   -0.7493    1.5847   -2.7604 H   0  0  0  0  0  0  0  0  0  0  0  0
   -2.5140    1.5245   -2.7472 H   0  0  0  0  0  0  0  0  0  0  0  0
   -1.5806    0.0256   -2.7604 H   0  0  0  0  0  0  0  0  0  0  0  0
   -0.5064    0.4541   -0.4331 H   0  0  0  0  0  0  0  0  0  0  0  0
   -2.5141    2.9980   -0.6042 H   0  0  0  0  0  0  0  0  0  0  0  0
   -1.5805    2.4740    0.8000 H   0  0  0  0  0  0  0  0  0  0  0  0
   -0.7494    3.0320   -0.6559 H   0  0  0  0  0  0  0  0  0  0  0  0
   -2.7822   -0.7810   -0.6559 H   0  0  0  0  0  0  0  0  0  0  0  0
   -3.7375    0.7031   -0.6042 H   0  0  0  0  0  0  0  0  0  0  0  0
   -2.7820    0.2201    0.8000 H   0  0  0  0  0  0  0  0  0  0  0  0
  1  2  1  0
  1  6  1  0
  1  7  1  0
  1  8  1  0
  2  3  1  0
  2  5  1  0
  2 18  1  0
  3  4  2  0
  3  9  1  0
  5 10  1  0
 11 12  1  0
 11 15  1  0
 11 16  1  0
 11 17  1  0
 12 13  1  0
 12 14  1  0
 13 19  1  0
 13 20  1  0
 13 21  1  0
 14 22  1  0
 14 23  1  0
 14 24  1  0
M  RAD  1  12   2
M  END
>  <reaction>  (14) 
rxn_985

>  <mol_properties>  (14) 
{"1": {"label": "*1", "atom_type": "Cs"}, "2": {"label": "*0", "atom_type": "CS"}, "10": {"label": "*4", "atom_type": "Cs"}, "11": {"label": "*3", "atom_type": "Cs"}, "17": {"label": "*2", "atom_type": "H0"}}

>  <type>  (14) 
unop_10

>  <geom_source>  (14) 
Heuristics

$$$$

     RDKit          3D

 24 22  0  0  0  0  0  0  0  0999 V2000
    0.1864   -1.4363    1.4963 C   0  0  0  0  0  0  0  0  0  0  0  0
    0.4147   -0.7526    0.1637 C   0  0  0  0  0  0  0  0  0  0  0  0
    0.9722    0.6383    0.2103 C   0  0  0  0  0  0  0  0  0  0  0  0
    1.5870    1.3887    1.4927 S   0  0  0  0  0  0  0  0  0  0  0  0
    1.5042   -1.7038   -0.9634 S   0  0  0  0  0  0  0  0  0  0  0  0
    1.1194   -1.5314    2.0515 H   0  0  0  0  0  0  0  0  0  0  0  0
   -0.5043   -0.8528    2.1075 H   0  0  0  0  0  0  0  0  0  0  0  0
   -0.2300   -2.4301    1.3374 H   0  0  0  0  0  0  0  0  0  0  0  0
    0.9603    1.1392   -0.7579 H   0  0  0  0  0  0  0  0  0  0  0  0
    2.6040   -1.6071   -0.2025 H   0  0  0  0  0  0  0  0  0  0  0  0
   -1.7920    0.4238   -2.1710 C   0  0  0  0  0  0  0  0  0  0  0  0
   -1.7920    0.4238   -0.6453 C   0  0  0  0  0  3  0  0  0  0  0  0
   -1.7920    1.8485   -0.0993 C   0  0  0  0  0  0  0  0  0  0  0  0
   -2.9749   -0.3702   -0.0993 C   0  0  0  0  0  0  0  0  0  0  0  0
   -0.9313    0.9661   -2.5681 H   0  0  0  0  0  0  0  0  0  0  0  0
   -2.6960    0.9058   -2.5548 H   0  0  0  0  0  0  0  0  0  0  0  0
   -1.7626   -0.5930   -2.5681 H   0  0  0  0  0  0  0  0  0  0  0  0
   -0.6884   -0.1645   -0.2407 H   0  0  0  0  0  0  0  0  0  0  0  0
   -2.6961    2.3793   -0.4119 H   0  0  0  0  0  0  0  0  0  0  0  0
   -1.7625    1.8553    0.9923 H   0  0  0  0  0  0  0  0  0  0  0  0
   -0.9314    2.4134   -0.4636 H   0  0  0  0  0  0  0  0  0  0  0  0
   -2.9641   -1.3996   -0.4636 H   0  0  0  0  0  0  0  0  0  0  0  0
   -3.9195    0.0845   -0.4119 H   0  0  0  0  0  0  0  0  0  0  0  0
   -2.9640   -0.3985    0.9923 H   0  0  0  0  0  0  0  0  0  0  0  0
  1  2  1  0
  1  6  1  0
  1  7  1  0
  1  8  1  0
  2  3  1  0
  2  5  1  0
  2 18  1  0
  3  4  2  0
  3  9  1  0
  5 10  1  0
 11 12  1  0
 11 15  1  0
 11 16  1  0
 11 17  1  0
 12 13  1  0
 12 14  1  0
 13 19  1  0
 13 20  1  0
 13 21  1  0
 14 22  1  0
 14 23  1  0
 14 24  1  0
M  RAD  1  12   2
M  END
>  <reaction>  (15) 
rxn_985

>  <mol_properties>  (15) 
{"1": {"label": "*1", "atom_type": "Cs"}, "2": {"label": "*0", "atom_type": "CS"}, "10": {"label": "*4", "atom_type": "Cs"}, "11": {"label": "*3", "atom_type": "Cs"}, "17": {"label": "*2", "atom_type": "H0"}}

>  <type>  (15) 
unop_11

>  <geom_source>  (15) 
Heuristics

$$$$

     RDKit          3D

 24 22  0  0  0  0  0  0  0  0999 V2000
    1.4785   -0.5479   -1.2345 C   0  0  0  0  0  0  0  0  0  0  0  0
    0.6520   -0.1073   -0.0435 C   0  0  0  0  0  0  0  0  0  0  0  0
    0.2517   -1.1770    0.9276 C   0  0  0  0  0  0  0  0  0  0  0  0
    0.8062   -2.6853    0.9840 S   0  0  0  0  0  0  0  0  0  0  0  0
    1.4522    1.2114    0.9479 S   0  0  0  0  0  0  0  0  0  0  0  0
    2.4190   -0.9951   -0.9133 H   0  0  0  0  0  0  0  0  0  0  0  0
    0.9369   -1.2970   -1.8145 H   0  0  0  0  0  0  0  0  0  0  0  0
    1.6966    0.3078   -1.8721 H   0  0  0  0  0  0  0  0  0  0  0  0
   -0.4733   -0.8371    1.6674 H   0  0  0  0  0  0  0  0  0  0  0  0
    2.4872    0.4639    1.3576 H   0  0  0  0  0  0  0  0  0  0  0  0
   -1.5548    1.0692   -2.3783 C   0  0  0  0  0  0  0  0  0  0  0  0
   -1.5548    1.0692   -0.8526 C   0  0  0  0  0  3  0  0  0  0  0  0
   -1.5548    2.4938   -0.3065 C   0  0  0  0  0  0  0  0  0  0  0  0
   -2.7376    0.2751   -0.3065 C   0  0  0  0  0  0  0  0  0  0  0  0
   -0.6940    1.6114   -2.7753 H   0  0  0  0  0  0  0  0  0  0  0  0
   -2.4587    1.5512   -2.7620 H   0  0  0  0  0  0  0  0  0  0  0  0
   -1.5253    0.0523   -2.7753 H   0  0  0  0  0  0  0  0  0  0  0  0
   -0.4511    0.4808   -0.4479 H   0  0  0  0  0  0  0  0  0  0  0  0
   -2.4588    3.0247   -0.6191 H   0  0  0  0  0  0  0  0  0  0  0  0
   -1.5252    2.5006    0.7851 H   0  0  0  0  0  0  0  0  0  0  0  0
   -0.6941    3.0587   -0.6708 H   0  0  0  0  0  0  0  0  0  0  0  0
   -2.7269   -0.7543   -0.6708 H   0  0  0  0  0  0  0  0  0  0  0  0
   -3.6822    0.7298   -0.6191 H   0  0  0  0  0  0  0  0  0  0  0  0
   -2.7267    0.2468    0.7851 H   0  0  0  0  0  0  0  0  0  0  0  0
  1  2  1  0
  1  6  1  0
  1  7  1  0
  1  8  1  0
  2  3  1  0
  2  5  1  0
  2 18  1  0
  3  4  2  0
  3  9  1  0
  5 10  1  0
 11 12  1  0
 11 15  1  0
 11 16  1  0
 11 17  1  0
 12 13  1  0
 12 14  1  0
 13 19  1  0
 13 20  1  0
 13 21  1  0
 14 22  1  0
 14 23  1  0
 14 24  1  0
M  RAD  1  12   2
M  END
>  <reaction>  (16) 
rxn_985

>  <mol_properties>  (16) 
{"1": {"label": "*1", "atom_type": "Cs"}, "2": {"label": "*0", "atom_type": "CS"}, "10": {"label": "*4", "atom_type": "Cs"}, "11": {"label": "*3", "atom_type": "Cs"}, "17": {"label": "*2", "atom_type": "H0"}}

>  <type>  (16) 
unop_12

>  <geom_source>  (16) 
Heuristics

$$$$

     RDKit          3D

 24 22  0  0  0  0  0  0  0  0999 V2000
    1.3359    1.7374   -1.1465 S   0  0  0  0  0  0  0  0  0  0  0  0
    1.5098    1.1526    2.1976 S   0  0  0  0  0  0  0  0  0  0  0  0
    1.4181    0.1931   -0.1737 C   0  0  0  0  0  0  0  0  0  0  0  0
    2.1084   -0.8969   -0.9920 C   0  0  0  0  0  0  0  0  0  0  0  0
   -1.3065   -0.4767    1.5399 C   0  0  0  0  0  0  0  0  0  0  0  0
   -1.7886    1.3616   -0.1253 C   0  0  0  0  0  0  0  0  0  0  0  0
   -1.7167   -1.0465   -0.8874 C   0  0  0  0  0  0  0  0  0  0  0  0
   -1.1527   -0.0132    0.0900 C   0  0  0  0  0  3  0  0  0  0  0  0
    2.1394    0.4277    1.1287 C   0  0  0  0  0  0  0  0  0  0  0  0
    0.1792   -0.2115    0.0766 H   0  0  0  0  0  0  0  0  0  0  0  0
    1.5517   -1.0665   -1.9377 H   0  0  0  0  0  0  0  0  0  0  0  0
    2.1217   -1.8489   -0.4199 H   0  0  0  0  0  0  0  0  0  0  0  0
    3.1529   -0.6061   -1.2355 H   0  0  0  0  0  0  0  0  0  0  0  0
   -0.8424    0.2634    2.2254 H   0  0  0  0  0  0  0  0  0  0  0  0
   -2.3800   -0.5920    1.8029 H   0  0  0  0  0  0  0  0  0  0  0  0
   -0.7912   -1.4498    1.6832 H   0  0  0  0  0  0  0  0  0  0  0  0
   -1.6170    1.6990   -1.1691 H   0  0  0  0  0  0  0  0  0  0  0  0
   -1.3252    2.1044    0.5577 H   0  0  0  0  0  0  0  0  0  0  0  0
   -2.8822    1.3225    0.0687 H   0  0  0  0  0  0  0  0  0  0  0  0
   -2.8072   -1.1854   -0.7250 H   0  0  0  0  0  0  0  0  0  0  0  0
   -1.2020   -2.0204   -0.7477 H   0  0  0  0  0  0  0  0  0  0  0  0
   -1.5450   -0.7125   -1.9324 H   0  0  0  0  0  0  0  0  0  0  0  0
    3.1048   -0.0351    1.3112 H   0  0  0  0  0  0  0  0  0  0  0  0
    2.7346    1.8999   -1.1896 H   0  0  0  0  0  0  0  0  0  0  0  0
  1  3  1  0
  1 24  1  0
  2  9  2  0
  3  4  1  0
  3  9  1  0
  3 10  1  0
  4 11  1  0
  4 12  1  0
  4 13  1  0
  5  8  1  0
  5 14  1  0
  5 15  1  0
  5 16  1  0
  6  8  1  0
  6 17  1  0
  6 18  1  0
  6 19  1  0
  7  8  1  0
  7 20  1  0
  7 21  1  0
  7 22  1  0
  9 23  1  0
M  RAD  1   8   2
M  END
>  <reaction>  (17) 
rxn_985

>  <mol_properties>  (17) 
{"1": {"label": "*1", "atom_type": "Cs"}, "2": {"label": "*0", "atom_type": "CS"}, "10": {"label": "*4", "atom_type": "Cs"}, "11": {"label": "*3", "atom_type": "Cs"}, "17": {"label": "*2", "atom_type": "H0"}}

>  <type>  (17) 
unop_13

>  <geom_source>  (17) 
AutoTST

$$$$

     RDKit          3D

 24 22  0  0  0  0  0  0  0  0999 V2000
    1.6930    0.0785   -1.0290 C   0  0  0  0  0  0  0  0  0  0  0  0
    0.5839   -0.1356   -0.0192 C   0  0  0  0  0  0  0  0  0  0  0  0
    0.5072   -1.4919    0.6151 C   0  0  0  0  0  0  0  0  0  0  0  0
    1.6112   -2.6583    0.5349 S   0  0  0  0  0  0  0  0  0  0  0  0
    0.6128    1.0737    1.3587 S   0  0  0  0  0  0  0  0  0  0  0  0
    2.6713   -0.0680   -0.5717 H   0  0  0  0  0  0  0  0  0  0  0  0
    1.6009   -0.6354   -1.8493 H   0  0  0  0  0  0  0  0  0  0  0  0
    1.6408    1.0902   -1.4290 H   0  0  0  0  0  0  0  0  0  0  0  0
   -0.3991   -1.6416    1.2021 H   0  0  0  0  0  0  0  0  0  0  0  0
    1.7845    0.6690    1.8698 H   0  0  0  0  0  0  0  0  0  0  0  0
   -1.6228    1.0408   -2.3540 C   0  0  0  0  0  0  0  0  0  0  0  0
   -1.6228    1.0408   -0.8283 C   0  0  0  0  0  3  0  0  0  0  0  0
   -1.6228    2.4655   -0.2822 C   0  0  0  0  0  0  0  0  0  0  0  0
   -2.8057    0.2468   -0.2822 C   0  0  0  0  0  0  0  0  0  0  0  0
   -0.7621    1.5831   -2.7510 H   0  0  0  0  0  0  0  0  0  0  0  0
   -2.5268    1.5228   -2.7377 H   0  0  0  0  0  0  0  0  0  0  0  0
   -1.5934    0.0240   -2.7510 H   0  0  0  0  0  0  0  0  0  0  0  0
   -0.5192    0.4525   -0.4236 H   0  0  0  0  0  0  0  0  0  0  0  0
   -2.5269    2.9963   -0.5948 H   0  0  0  0  0  0  0  0  0  0  0  0
   -1.5933    2.4723    0.8094 H   0  0  0  0  0  0  0  0  0  0  0  0
   -0.7622    3.0303   -0.6465 H   0  0  0  0  0  0  0  0  0  0  0  0
   -2.7950   -0.7826   -0.6465 H   0  0  0  0  0  0  0  0  0  0  0  0
   -3.7503    0.7015   -0.5948 H   0  0  0  0  0  0  0  0  0  0  0  0
   -2.7948    0.2185    0.8094 H   0  0  0  0  0  0  0  0  0  0  0  0
  1  2  1  0
  1  6  1  0
  1  7  1  0
  1  8  1  0
  2  3  1  0
  2  5  1  0
  2 18  1  0
  3  4  2  0
  3  9  1  0
  5 10  1  0
 11 12  1  0
 11 15  1  0
 11 16  1  0
 11 17  1  0
 12 13  1  0
 12 14  1  0
 13 19  1  0
 13 20  1  0
 13 21  1  0
 14 22  1  0
 14 23  1  0
 14 24  1  0
M  RAD  1  12   2
M  END
>  <reaction>  (18) 
rxn_985

>  <mol_properties>  (18) 
{"1": {"label": "*1", "atom_type": "Cs"}, "2": {"label": "*0", "atom_type": "CS"}, "10": {"label": "*4", "atom_type": "Cs"}, "11": {"label": "*3", "atom_type": "Cs"}, "17": {"label": "*2", "atom_type": "H0"}}

>  <type>  (18) 
unop_14

>  <geom_source>  (18) 
gaussian_log

$$$$
