
     RDKit          3D

 10  9  0  0  0  0  0  0  0  0999 V2000
    2.2738    0.0217   -0.0992 C   0  0  0  0  0  0  0  0  0  0  0  0
    1.1083    0.2960   -0.0695 C   0  0  0  0  0  0  0  0  0  0  0  0
   -0.3173    0.6046   -0.0227 C   0  0  0  0  0  0  0  0  0  0  0  0
   -1.1561   -0.5495    0.5292 C   0  0  0  0  0  0  0  0  0  0  0  0
    3.3097   -0.2166   -0.1277 H   0  0  0  0  0  0  0  0  0  0  0  0
   -0.6542    0.8617   -1.0302 H   0  0  0  0  0  0  0  0  0  0  0  0
   -0.4633    1.4978    0.5900 H   0  0  0  0  0  0  0  0  0  0  0  0
   -0.8485   -0.7997    1.5447 H   0  0  0  0  0  0  0  0  0  0  0  0
   -2.2115   -0.2752    0.5459 H   0  0  0  0  0  0  0  0  0  0  0  0
   -1.0409   -1.4407   -0.0879 H   0  0  0  0  0  0  0  0  0  0  0  0
  1  2  3  0
  1  5  1  0
  2  3  1  0
  3  4  1  0
  3  6  1  0
  3  7  1  0
  4  8  1  0
  4  9  1  0
  4 10  1  0
M  END
>  <reaction>  (1) 
rxn_1280

>  <mol_properties>  (1) 
{"2": {"label": "donator", "atom_type": "Cs"}, "5": {"label": "d_hydrogen", "atom_type": "H0"}}

>  <type>  (1) 
r1h

$$$$

     RDKit          3D

  8  7  0  0  0  0  0  0  0  0999 V2000
   -1.0607    0.1793   -0.1423 C   0  0  0  0  0  0  0  0  0  0  0  0
    0.2796    0.0327    0.4820 C   0  0  0  0  0  3  0  0  0  0  0  0
    0.8817   -1.4663    1.0791 S   0  0  0  0  0  0  0  0  0  0  0  0
   -1.3043    1.2328   -0.2850 H   0  0  0  0  0  0  0  0  0  0  0  0
   -1.8444   -0.2641    0.4799 H   0  0  0  0  0  0  0  0  0  0  0  0
   -1.1164   -0.3100   -1.1237 H   0  0  0  0  0  0  0  0  0  0  0  0
    1.0449    0.7826    0.3391 H   0  0  0  0  0  0  0  0  0  0  0  0
   -0.2993   -2.0726    1.2718 H   0  0  0  0  0  0  0  0  0  0  0  0
  1  2  1  0
  1  4  1  0
  1  5  1  0
  1  6  1  0
  2  3  1  0
  2  7  1  0
  3  8  1  0
M  RAD  1   2   2
M  END
>  <reaction>  (2) 
rxn_1280

>  <mol_properties>  (2) 
{"1": {"label": "acceptor", "atom_type": "Cs"}}

>  <type>  (2) 
r2

$$$$

     RDKit          3D

  9  8  0  0  0  0  0  0  0  0999 V2000
   -0.8818   -0.3578    0.1297 C   0  0  0  0  0  0  0  0  0  0  0  0
    0.6153   -0.3021   -0.1188 C   0  0  0  0  0  0  0  0  0  0  0  0
    1.5354   -1.7170    0.5545 S   0  0  0  0  0  0  0  0  0  0  0  0
   -1.1018   -0.3317    1.1984 H   0  0  0  0  0  0  0  0  0  0  0  0
   -1.3114   -1.2723   -0.2799 H   0  0  0  0  0  0  0  0  0  0  0  0
   -1.3767    0.4976   -0.3363 H   0  0  0  0  0  0  0  0  0  0  0  0
    1.0467    0.6194    0.2718 H   0  0  0  0  0  0  0  0  0  0  0  0
    0.8295   -0.3275   -1.1882 H   0  0  0  0  0  0  0  0  0  0  0  0
    1.2306   -1.5077    1.8423 H   0  0  0  0  0  0  0  0  0  0  0  0
  1  2  1  0
  1  4  1  0
  1  5  1  0
  1  6  1  0
  2  3  1  0
  2  7  1  0
  2  8  1  0
  3  9  1  0
M  END
>  <reaction>  (3) 
rxn_1280

>  <mol_properties>  (3) 
{"0": {"label": "a_hydrogen", "atom_type": "H0"}, "2": {"label": "acceptor", "atom_type": "Cs"}}

>  <type>  (3) 
r2h

$$$$

     RDKit          3D

 18 16  0  0  0  0  0  0  0  0999 V2000
   -1.3332    0.1619   -2.5416 C   0  0  0  0  0  0  0  0  0  0  0  0
   -1.3449    0.5329   -1.3965 C   0  0  0  0  0  0  0  0  0  0  0  0
   -1.2773    0.9458   -0.0328 C   0  0  0  0  0  0  0  0  0  0  0  0
   -0.9810    2.4078    0.2244 C   0  0  0  0  0  0  0  0  0  0  0  0
   -1.3551   -0.1526   -3.5571 H   0  0  0  0  0  0  0  0  0  0  0  0
   -0.2435    0.2699    0.4584 H   0  0  0  0  0  0  0  0  0  0  0  0
   -2.0917    0.5428    0.5686 H   0  0  0  0  0  0  0  0  0  0  0  0
   -1.8150    3.0428   -0.0844 H   0  0  0  0  0  0  0  0  0  0  0  0
   -0.8024    2.5782    1.2872 H   0  0  0  0  0  0  0  0  0  0  0  0
   -0.0975    2.7271   -0.3300 H   0  0  0  0  0  0  0  0  0  0  0  0
    1.9546    0.2145   -0.0617 C   0  0  0  0  0  0  0  0  0  0  0  0
    0.8872   -0.4177    0.7902 C   0  0  0  0  0  3  0  0  0  0  0  0
    0.5039   -2.1237    0.5113 S   0  0  0  0  0  0  0  0  0  0  0  0
    2.0886    1.2627    0.2131 H   0  0  0  0  0  0  0  0  0  0  0  0
    1.6758    0.1746   -1.1173 H   0  0  0  0  0  0  0  0  0  0  0  0
    2.9139   -0.2964    0.0547 H   0  0  0  0  0  0  0  0  0  0  0  0
    0.9984   -0.2571    1.8611 H   0  0  0  0  0  0  0  0  0  0  0  0
    0.2972   -2.0173   -0.8102 H   0  0  0  0  0  0  0  0  0  0  0  0
  1  2  3  0
  1  5  1  0
  2  3  1  0
  3  4  1  0
  3  6  1  0
  3  7  1  0
  4  8  1  0
  4  9  1  0
  4 10  1  0
 11 12  1  0
 11 14  1  0
 11 15  1  0
 11 16  1  0
 12 13  1  0
 12 17  1  0
 13 18  1  0
M  RAD  1  12   2
M  END
>  <reaction>  (4) 
rxn_1280

>  <mol_properties>  (4) 
{"1": {"label": "*0", "atom_type": "Ct"}, "2": {"label": "*1", "atom_type": "Cs"}, "5": {"label": "*2", "atom_type": "H0"}, "11": {"label": "*3", "atom_type": "Cs"}, "12": {"label": "*4", "atom_type": "S2s"}}

>  <type>  (4) 
ts

$$$$

     RDKit          3D

 18 16  0  0  0  0  0  0  0  0999 V2000
   -1.4654    0.8013   -2.6902 C   0  0  0  0  0  0  0  0  0  0  0  0
   -1.4654    0.8013   -1.4925 C   0  0  0  0  0  0  0  0  0  0  0  0
   -1.4654    0.8296   -0.0334 C   0  0  0  0  0  3  0  0  0  0  0  0
   -1.4654    2.2509    0.5322 C   0  0  0  0  0  0  0  0  0  0  0  0
   -1.4654    0.8013   -3.7535 H   0  0  0  0  0  0  0  0  0  0  0  0
   -0.4148    0.1755    0.4007 H   0  0  0  0  0  0  0  0  0  0  0  0
   -2.3409    0.2845    0.3283 H   0  0  0  0  0  0  0  0  0  0  0  0
   -2.3476    2.7988    0.2008 H   0  0  0  0  0  0  0  0  0  0  0  0
   -1.4654    2.2237    1.6225 H   0  0  0  0  0  0  0  0  0  0  0  0
   -0.5831    2.7988    0.2008 H   0  0  0  0  0  0  0  0  0  0  0  0
    1.5353    0.4194    1.6634 C   0  0  0  0  0  0  0  0  0  0  0  0
    0.6328   -0.4768    0.8335 C   0  0  0  0  0  0  0  0  0  0  0  0
    1.4230   -2.0130    0.2699 S   0  0  0  0  0  0  0  0  0  0  0  0
    0.9868    1.3010    2.0036 H   0  0  0  0  0  0  0  0  0  0  0  0
    2.3910    0.7615    1.0785 H   0  0  0  0  0  0  0  0  0  0  0  0
    1.9154   -0.1110    2.5368 H   0  0  0  0  0  0  0  0  0  0  0  0
   -0.2210   -0.8149    1.4224 H   0  0  0  0  0  0  0  0  0  0  0  0
    2.3803   -1.4381   -0.4705 H   0  0  0  0  0  0  0  0  0  0  0  0
  1  2  3  0
  1  5  1  0
  2  3  1  0
  3  4  1  0
  3  7  1  0
  4  8  1  0
  4  9  1  0
  4 10  1  0
  6 12  1  0
 11 12  1  0
 11 14  1  0
 11 15  1  0
 11 16  1  0
 12 13  1  0
 12 17  1  0
 13 18  1  0
M  RAD  1   3   2
M  END
>  <reaction>  (5) 
rxn_1280

>  <mol_properties>  (5) 
{"1": {"label": "*0", "atom_type": "Ct"}, "2": {"label": "*1", "atom_type": "Cs"}, "5": {"label": "*2", "atom_type": "H0"}, "11": {"label": "*3", "atom_type": "Cs"}, "12": {"label": "*4", "atom_type": "S2s"}}

>  <type>  (5) 
unop_1

>  <geom_source>  (5) 
Heuristics

$$$$

     RDKit          3D

 18 16  0  0  0  0  0  0  0  0999 V2000
   -1.2252    0.9378   -2.8332 C   0  0  0  0  0  0  0  0  0  0  0  0
   -1.2252    0.9378   -1.6355 C   0  0  0  0  0  0  0  0  0  0  0  0
   -1.2252    0.9660   -0.1764 C   0  0  0  0  0  3  0  0  0  0  0  0
   -1.2252    2.3874    0.3892 C   0  0  0  0  0  0  0  0  0  0  0  0
   -1.2252    0.9378   -3.8966 H   0  0  0  0  0  0  0  0  0  0  0  0
   -0.1746    0.3119    0.2577 H   0  0  0  0  0  0  0  0  0  0  0  0
   -2.1007    0.4209    0.1853 H   0  0  0  0  0  0  0  0  0  0  0  0
   -2.1074    2.9352    0.0578 H   0  0  0  0  0  0  0  0  0  0  0  0
   -1.2252    2.3601    1.4795 H   0  0  0  0  0  0  0  0  0  0  0  0
   -0.3429    2.9352    0.0578 H   0  0  0  0  0  0  0  0  0  0  0  0
    2.0246   -0.2489   -0.2953 C   0  0  0  0  0  0  0  0  0  0  0  0
    0.8730   -0.3404    0.6905 C   0  0  0  0  0  0  0  0  0  0  0  0
    0.7118   -1.9594    1.4995 S   0  0  0  0  0  0  0  0  0  0  0  0
    2.0898    0.7592   -0.7115 H   0  0  0  0  0  0  0  0  0  0  0  0
    1.8860   -0.9457   -1.1239 H   0  0  0  0  0  0  0  0  0  0  0  0
    2.9723   -0.4861    0.1887 H   0  0  0  0  0  0  0  0  0  0  0  0
    1.0161    0.3587    1.5158 H   0  0  0  0  0  0  0  0  0  0  0  0
    0.4810   -2.6713    0.3882 H   0  0  0  0  0  0  0  0  0  0  0  0
  1  2  3  0
  1  5  1  0
  2  3  1  0
  3  4  1  0
  3  7  1  0
  4  8  1  0
  4  9  1  0
  4 10  1  0
  6 12  1  0
 11 12  1  0
 11 14  1  0
 11 15  1  0
 11 16  1  0
 12 13  1  0
 12 17  1  0
 13 18  1  0
M  RAD  1   3   2
M  END
>  <reaction>  (6) 
rxn_1280

>  <mol_properties>  (6) 
{"1": {"label": "*0", "atom_type": "Ct"}, "2": {"label": "*1", "atom_type": "Cs"}, "5": {"label": "*2", "atom_type": "H0"}, "11": {"label": "*3", "atom_type": "Cs"}, "12": {"label": "*4", "atom_type": "S2s"}}

>  <type>  (6) 
unop_2

>  <geom_source>  (6) 
Heuristics

$$$$

     RDKit          3D

 18 16  0  0  0  0  0  0  0  0999 V2000
   -1.5532    0.6332   -2.6357 C   0  0  0  0  0  0  0  0  0  0  0  0
   -1.5532    0.6332   -1.4380 C   0  0  0  0  0  0  0  0  0  0  0  0
   -1.5532    0.6614    0.0212 C   0  0  0  0  0  3  0  0  0  0  0  0
   -1.5532    2.0828    0.5868 C   0  0  0  0  0  0  0  0  0  0  0  0
   -1.5532    0.6332   -3.6990 H   0  0  0  0  0  0  0  0  0  0  0  0
   -0.5026    0.0073    0.4552 H   0  0  0  0  0  0  0  0  0  0  0  0
   -2.4287    0.1164    0.3829 H   0  0  0  0  0  0  0  0  0  0  0  0
   -2.4354    2.6307    0.2553 H   0  0  0  0  0  0  0  0  0  0  0  0
   -1.5532    2.0555    1.6771 H   0  0  0  0  0  0  0  0  0  0  0  0
   -0.6709    2.6307    0.2553 H   0  0  0  0  0  0  0  0  0  0  0  0
    1.0304   -0.0886    2.2152 C   0  0  0  0  0  0  0  0  0  0  0  0
    0.5450   -0.6449    0.8881 C   0  0  0  0  0  0  0  0  0  0  0  0
    1.8435   -1.4337   -0.1087 S   0  0  0  0  0  0  0  0  0  0  0  0
    0.1947    0.3315    2.7799 H   0  0  0  0  0  0  0  0  0  0  0  0
    1.7641    0.7047    2.0614 H   0  0  0  0  0  0  0  0  0  0  0  0
    1.4987   -0.8678    2.8170 H   0  0  0  0  0  0  0  0  0  0  0  0
   -0.1886   -1.4365    1.0475 H   0  0  0  0  0  0  0  0  0  0  0  0
    2.6067   -0.3441   -0.2684 H   0  0  0  0  0  0  0  0  0  0  0  0
  1  2  3  0
  1  5  1  0
  2  3  1  0
  3  4  1  0
  3  7  1  0
  4  8  1  0
  4  9  1  0
  4 10  1  0
  6 12  1  0
 11 12  1  0
 11 14  1  0
 11 15  1  0
 11 16  1  0
 12 13  1  0
 12 17  1  0
 13 18  1  0
M  RAD  1   3   2
M  END
>  <reaction>  (7) 
rxn_1280

>  <mol_properties>  (7) 
{"1": {"label": "*0", "atom_type": "Ct"}, "2": {"label": "*1", "atom_type": "Cs"}, "5": {"label": "*2", "atom_type": "H0"}, "11": {"label": "*3", "atom_type": "Cs"}, "12": {"label": "*4", "atom_type": "S2s"}}

>  <type>  (7) 
unop_3

>  <geom_source>  (7) 
Heuristics

$$$$

     RDKit          3D

 18 16  0  0  0  0  0  0  0  0999 V2000
   -0.8894    0.6075   -3.1391 C   0  0  0  0  0  0  0  0  0  0  0  0
   -0.8894    0.6075   -1.9413 C   0  0  0  0  0  0  0  0  0  0  0  0
   -0.8894    0.6357   -0.4822 C   0  0  0  0  0  3  0  0  0  0  0  0
   -0.8893    2.0571    0.0834 C   0  0  0  0  0  0  0  0  0  0  0  0
   -0.8894    0.6075   -4.2024 H   0  0  0  0  0  0  0  0  0  0  0  0
    0.1612   -0.0184   -0.0481 H   0  0  0  0  0  0  0  0  0  0  0  0
   -1.7649    0.0907   -0.1205 H   0  0  0  0  0  0  0  0  0  0  0  0
   -1.7716    2.6050   -0.2481 H   0  0  0  0  0  0  0  0  0  0  0  0
   -0.8893    2.0298    1.1737 H   0  0  0  0  0  0  0  0  0  0  0  0
   -0.0071    2.6050   -0.2481 H   0  0  0  0  0  0  0  0  0  0  0  0
    1.1885   -2.1161   -0.0807 C   0  0  0  0  0  0  0  0  0  0  0  0
    1.2089   -0.6706    0.3847 C   0  0  0  0  0  0  0  0  0  0  0  0
    0.4408   -0.4001    2.0091 S   0  0  0  0  0  0  0  0  0  0  0  0
    1.7018   -2.2139   -1.0402 H   0  0  0  0  0  0  0  0  0  0  0  0
    0.1643   -2.4705   -0.2103 H   0  0  0  0  0  0  0  0  0  0  0  0
    1.6802   -2.7660    0.6434 H   0  0  0  0  0  0  0  0  0  0  0  0
    2.2346   -0.3213    0.5116 H   0  0  0  0  0  0  0  0  0  0  0  0
   -0.7917   -0.8034    1.6724 H   0  0  0  0  0  0  0  0  0  0  0  0
  1  2  3  0
  1  5  1  0
  2  3  1  0
  3  4  1  0
  3  7  1  0
  4  8  1  0
  4  9  1  0
  4 10  1  0
  6 12  1  0
 11 12  1  0
 11 14  1  0
 11 15  1  0
 11 16  1  0
 12 13  1  0
 12 17  1  0
 13 18  1  0
M  RAD  1   3   2
M  END
>  <reaction>  (8) 
rxn_1280

>  <mol_properties>  (8) 
{"1": {"label": "*0", "atom_type": "Ct"}, "2": {"label": "*1", "atom_type": "Cs"}, "5": {"label": "*2", "atom_type": "H0"}, "11": {"label": "*3", "atom_type": "Cs"}, "12": {"label": "*4", "atom_type": "S2s"}}

>  <type>  (8) 
unop_4

>  <geom_source>  (8) 
Heuristics

$$$$

     RDKit          3D

 18 16  0  0  0  0  0  0  0  0999 V2000
   -1.5466    0.2919   -2.7199 C   0  0  0  0  0  0  0  0  0  0  0  0
   -1.5466    0.2919   -1.5222 C   0  0  0  0  0  0  0  0  0  0  0  0
   -1.5466    0.3201   -0.0631 C   0  0  0  0  0  3  0  0  0  0  0  0
   -1.5466    1.7415    0.5026 C   0  0  0  0  0  0  0  0  0  0  0  0
   -1.5466    0.2919   -3.7832 H   0  0  0  0  0  0  0  0  0  0  0  0
   -0.4960   -0.3340    0.3710 H   0  0  0  0  0  0  0  0  0  0  0  0
   -2.4221   -0.2249    0.2987 H   0  0  0  0  0  0  0  0  0  0  0  0
   -2.4288    2.2894    0.1711 H   0  0  0  0  0  0  0  0  0  0  0  0
   -1.5466    1.7142    1.5928 H   0  0  0  0  0  0  0  0  0  0  0  0
   -0.6643    2.2894    0.1711 H   0  0  0  0  0  0  0  0  0  0  0  0
    0.6081   -0.9925    2.3214 C   0  0  0  0  0  0  0  0  0  0  0  0
    0.5516   -0.9862    0.8038 C   0  0  0  0  0  0  0  0  0  0  0  0
    2.0385   -0.3123    0.0058 S   0  0  0  0  0  0  0  0  0  0  0  0
   -0.2956   -1.4476    2.7337 H   0  0  0  0  0  0  0  0  0  0  0  0
    0.6813    0.0234    2.7139 H   0  0  0  0  0  0  0  0  0  0  0  0
    1.4724   -1.5536    2.6774 H   0  0  0  0  0  0  0  0  0  0  0  0
    0.4775   -2.0036    0.4170 H   0  0  0  0  0  0  0  0  0  0  0  0
    1.9492    0.9225    0.5181 H   0  0  0  0  0  0  0  0  0  0  0  0
  1  2  3  0
  1  5  1  0
  2  3  1  0
  3  4  1  0
  3  7  1  0
  4  8  1  0
  4  9  1  0
  4 10  1  0
  6 12  1  0
 11 12  1  0
 11 14  1  0
 11 15  1  0
 11 16  1  0
 12 13  1  0
 12 17  1  0
 13 18  1  0
M  RAD  1   3   2
M  END
>  <reaction>  (9) 
rxn_1280

>  <mol_properties>  (9) 
{"1": {"label": "*0", "atom_type": "Ct"}, "2": {"label": "*1", "atom_type": "Cs"}, "5": {"label": "*2", "atom_type": "H0"}, "11": {"label": "*3", "atom_type": "Cs"}, "12": {"label": "*4", "atom_type": "S2s"}}

>  <type>  (9) 
unop_5

>  <geom_source>  (9) 
Heuristics

$$$$

     RDKit          3D

 18 16  0  0  0  0  0  0  0  0999 V2000
   -0.9418    0.3852   -3.1696 C   0  0  0  0  0  0  0  0  0  0  0  0
   -0.9418    0.3852   -1.9719 C   0  0  0  0  0  0  0  0  0  0  0  0
   -0.9418    0.4134   -0.5127 C   0  0  0  0  0  3  0  0  0  0  0  0
   -0.9418    1.8348    0.0529 C   0  0  0  0  0  0  0  0  0  0  0  0
   -0.9418    0.3852   -4.2329 H   0  0  0  0  0  0  0  0  0  0  0  0
    0.1088   -0.2407   -0.0787 H   0  0  0  0  0  0  0  0  0  0  0  0
   -1.8173   -0.1316   -0.1510 H   0  0  0  0  0  0  0  0  0  0  0  0
   -1.8240    2.3827   -0.2786 H   0  0  0  0  0  0  0  0  0  0  0  0
   -0.9418    1.8075    1.1432 H   0  0  0  0  0  0  0  0  0  0  0  0
   -0.0595    2.3827   -0.2786 H   0  0  0  0  0  0  0  0  0  0  0  0
    0.8427   -2.3646    0.5595 C   0  0  0  0  0  0  0  0  0  0  0  0
    1.1564   -0.8929    0.3542 C   0  0  0  0  0  0  0  0  0  0  0  0
    0.7129    0.1669    1.7620 S   0  0  0  0  0  0  0  0  0  0  0  0
    1.1722   -2.9477   -0.3037 H   0  0  0  0  0  0  0  0  0  0  0  0
   -0.2305   -2.5220    0.6811 H   0  0  0  0  0  0  0  0  0  0  0  0
    1.3419   -2.7495    1.4491 H   0  0  0  0  0  0  0  0  0  0  0  0
    2.2299   -0.7414    0.2322 H   0  0  0  0  0  0  0  0  0  0  0  0
   -0.6045   -0.0755    1.7358 H   0  0  0  0  0  0  0  0  0  0  0  0
  1  2  3  0
  1  5  1  0
  2  3  1  0
  3  4  1  0
  3  7  1  0
  4  8  1  0
  4  9  1  0
  4 10  1  0
  6 12  1  0
 11 12  1  0
 11 14  1  0
 11 15  1  0
 11 16  1  0
 12 13  1  0
 12 17  1  0
 13 18  1  0
M  RAD  1   3   2
M  END
>  <reaction>  (10) 
rxn_1280

>  <mol_properties>  (10) 
{"1": {"label": "*0", "atom_type": "Ct"}, "2": {"label": "*1", "atom_type": "Cs"}, "5": {"label": "*2", "atom_type": "H0"}, "11": {"label": "*3", "atom_type": "Cs"}, "12": {"label": "*4", "atom_type": "S2s"}}

>  <type>  (10) 
unop_6

>  <geom_source>  (10) 
Heuristics

$$$$

     RDKit          3D

 18 16  0  0  0  0  0  0  0  0999 V2000
   -1.0801    0.1941   -3.1116 C   0  0  0  0  0  0  0  0  0  0  0  0
   -1.0801    0.1941   -1.9138 C   0  0  0  0  0  0  0  0  0  0  0  0
   -1.0801    0.2223   -0.4547 C   0  0  0  0  0  3  0  0  0  0  0  0
   -1.0801    1.6437    0.1109 C   0  0  0  0  0  0  0  0  0  0  0  0
   -1.0801    0.1941   -4.1749 H   0  0  0  0  0  0  0  0  0  0  0  0
   -0.0295   -0.4318   -0.0206 H   0  0  0  0  0  0  0  0  0  0  0  0
   -1.9556   -0.3228   -0.0930 H   0  0  0  0  0  0  0  0  0  0  0  0
   -1.9623    2.1916   -0.2206 H   0  0  0  0  0  0  0  0  0  0  0  0
   -1.0801    1.6164    1.2012 H   0  0  0  0  0  0  0  0  0  0  0  0
   -0.1978    2.1915   -0.2206 H   0  0  0  0  0  0  0  0  0  0  0  0
    0.6132   -2.2611    1.2821 C   0  0  0  0  0  0  0  0  0  0  0  0
    1.0181   -1.0841    0.4122 C   0  0  0  0  0  0  0  0  0  0  0  0
    1.1022    0.5014    1.2960 S   0  0  0  0  0  0  0  0  0  0  0  0
    0.6239   -3.1857    0.7001 H   0  0  0  0  0  0  0  0  0  0  0  0
   -0.3948   -2.1257    1.6784 H   0  0  0  0  0  0  0  0  0  0  0  0
    1.2939   -2.3748    2.1262 H   0  0  0  0  0  0  0  0  0  0  0  0
    2.0256   -1.2250    0.0181 H   0  0  0  0  0  0  0  0  0  0  0  0
   -0.1892    0.5566    1.6485 H   0  0  0  0  0  0  0  0  0  0  0  0
  1  2  3  0
  1  5  1  0
  2  3  1  0
  3  4  1  0
  3  7  1  0
  4  8  1  0
  4  9  1  0
  4 10  1  0
  6 12  1  0
 11 12  1  0
 11 14  1  0
 11 15  1  0
 11 16  1  0
 12 13  1  0
 12 17  1  0
 13 18  1  0
M  RAD  1   3   2
M  END
>  <reaction>  (11) 
rxn_1280

>  <mol_properties>  (11) 
{"1": {"label": "*0", "atom_type": "Ct"}, "2": {"label": "*1", "atom_type": "Cs"}, "5": {"label": "*2", "atom_type": "H0"}, "11": {"label": "*3", "atom_type": "Cs"}, "12": {"label": "*4", "atom_type": "S2s"}}

>  <type>  (11) 
unop_7

>  <geom_source>  (11) 
Heuristics

$$$$

     RDKit          3D

 18 16  0  0  0  0  0  0  0  0999 V2000
   -1.3997    0.8649   -2.7502 C   0  0  0  0  0  0  0  0  0  0  0  0
   -1.3997    0.8649   -1.5525 C   0  0  0  0  0  0  0  0  0  0  0  0
   -1.3997    0.8931   -0.0933 C   0  0  0  0  0  3  0  0  0  0  0  0
   -1.3997    2.3145    0.4723 C   0  0  0  0  0  0  0  0  0  0  0  0
   -1.3997    0.8649   -3.8135 H   0  0  0  0  0  0  0  0  0  0  0  0
   -0.3491    0.2390    0.3407 H   0  0  0  0  0  0  0  0  0  0  0  0
   -2.2752    0.3481    0.2684 H   0  0  0  0  0  0  0  0  0  0  0  0
   -2.2819    2.8624    0.1408 H   0  0  0  0  0  0  0  0  0  0  0  0
   -1.3997    2.2872    1.5626 H   0  0  0  0  0  0  0  0  0  0  0  0
   -0.5174    2.8624    0.1408 H   0  0  0  0  0  0  0  0  0  0  0  0
    1.8944    0.5092    0.9326 C   0  0  0  0  0  0  0  0  0  0  0  0
    0.6985   -0.4132    0.7736 C   0  0  0  0  0  0  0  0  0  0  0  0
    1.1197   -2.1806    0.7436 S   0  0  0  0  0  0  0  0  0  0  0  0
    1.5673    1.5503    0.9856 H   0  0  0  0  0  0  0  0  0  0  0  0
    2.5765    0.4143    0.0858 H   0  0  0  0  0  0  0  0  0  0  0  0
    2.4506    0.2739    1.8404 H   0  0  0  0  0  0  0  0  0  0  0  0
    0.0198   -0.3137    1.6219 H   0  0  0  0  0  0  0  0  0  0  0  0
    1.8787   -2.1454   -0.3599 H   0  0  0  0  0  0  0  0  0  0  0  0
  1  2  3  0
  1  5  1  0
  2  3  1  0
  3  4  1  0
  3  7  1  0
  4  8  1  0
  4  9  1  0
  4 10  1  0
  6 12  1  0
 11 12  1  0
 11 14  1  0
 11 15  1  0
 11 16  1  0
 12 13  1  0
 12 17  1  0
 13 18  1  0
M  RAD  1   3   2
M  END
>  <reaction>  (12) 
rxn_1280

>  <mol_properties>  (12) 
{"1": {"label": "*0", "atom_type": "Ct"}, "2": {"label": "*1", "atom_type": "Cs"}, "5": {"label": "*2", "atom_type": "H0"}, "11": {"label": "*3", "atom_type": "Cs"}, "12": {"label": "*4", "atom_type": "S2s"}}

>  <type>  (12) 
unop_8

>  <geom_source>  (12) 
Heuristics

$$$$

     RDKit          3D

 18 16  0  0  0  0  0  0  0  0999 V2000
   -0.9360    0.8067   -3.0403 C   0  0  0  0  0  0  0  0  0  0  0  0
   -0.9360    0.8067   -1.8426 C   0  0  0  0  0  0  0  0  0  0  0  0
   -0.9360    0.8349   -0.3834 C   0  0  0  0  0  3  0  0  0  0  0  0
   -0.9360    2.2563    0.1822 C   0  0  0  0  0  0  0  0  0  0  0  0
   -0.9360    0.8067   -4.1036 H   0  0  0  0  0  0  0  0  0  0  0  0
    0.1146    0.1808    0.0506 H   0  0  0  0  0  0  0  0  0  0  0  0
   -1.8115    0.2899   -0.0217 H   0  0  0  0  0  0  0  0  0  0  0  0
   -1.8182    2.8042   -0.1493 H   0  0  0  0  0  0  0  0  0  0  0  0
   -0.9360    2.2290    1.2724 H   0  0  0  0  0  0  0  0  0  0  0  0
   -0.0538    2.8042   -0.1493 H   0  0  0  0  0  0  0  0  0  0  0  0
    1.5589   -1.5770   -0.4792 C   0  0  0  0  0  0  0  0  0  0  0  0
    1.1622   -0.4714    0.4834 C   0  0  0  0  0  0  0  0  0  0  0  0
    0.3566   -1.0597    2.0022 S   0  0  0  0  0  0  0  0  0  0  0  0
    2.0740   -1.1587   -1.3473 H   0  0  0  0  0  0  0  0  0  0  0  0
    0.6806   -2.1166   -0.8379 H   0  0  0  0  0  0  0  0  0  0  0  0
    2.2212   -2.2958    0.0038 H   0  0  0  0  0  0  0  0  0  0  0  0
    2.0434    0.0652    0.8380 H   0  0  0  0  0  0  0  0  0  0  0  0
   -0.7080   -1.6195    1.4121 H   0  0  0  0  0  0  0  0  0  0  0  0
  1  2  3  0
  1  5  1  0
  2  3  1  0
  3  4  1  0
  3  7  1  0
  4  8  1  0
  4  9  1  0
  4 10  1  0
  6 12  1  0
 11 12  1  0
 11 14  1  0
 11 15  1  0
 11 16  1  0
 12 13  1  0
 12 17  1  0
 13 18  1  0
M  RAD  1   3   2
M  END
>  <reaction>  (13) 
rxn_1280

>  <mol_properties>  (13) 
{"1": {"label": "*0", "atom_type": "Ct"}, "2": {"label": "*1", "atom_type": "Cs"}, "5": {"label": "*2", "atom_type": "H0"}, "11": {"label": "*3", "atom_type": "Cs"}, "12": {"label": "*4", "atom_type": "S2s"}}

>  <type>  (13) 
unop_9

>  <geom_source>  (13) 
Heuristics

$$$$

     RDKit          3D

 18 16  0  0  0  0  0  0  0  0999 V2000
   -1.3329    0.9042   -2.7893 C   0  0  0  0  0  0  0  0  0  0  0  0
   -1.3329    0.9042   -1.5916 C   0  0  0  0  0  0  0  0  0  0  0  0
   -1.3329    0.9324   -0.1324 C   0  0  0  0  0  3  0  0  0  0  0  0
   -1.3329    2.3538    0.4332 C   0  0  0  0  0  0  0  0  0  0  0  0
   -1.3329    0.9042   -3.8526 H   0  0  0  0  0  0  0  0  0  0  0  0
   -0.2823    0.2783    0.3016 H   0  0  0  0  0  0  0  0  0  0  0  0
   -2.2085    0.3873    0.2293 H   0  0  0  0  0  0  0  0  0  0  0  0
   -2.2152    2.9017    0.1017 H   0  0  0  0  0  0  0  0  0  0  0  0
   -1.3329    2.3265    1.5235 H   0  0  0  0  0  0  0  0  0  0  0  0
   -0.4507    2.9016    0.1017 H   0  0  0  0  0  0  0  0  0  0  0  0
    2.0524    0.2539    0.2289 C   0  0  0  0  0  0  0  0  0  0  0  0
    0.7653   -0.3740    0.7345 C   0  0  0  0  0  0  0  0  0  0  0  0
    0.9123   -2.1343    1.1604 S   0  0  0  0  0  0  0  0  0  0  0  0
    1.9047    1.3185    0.0328 H   0  0  0  0  0  0  0  0  0  0  0  0
    2.3779   -0.2167   -0.7005 H   0  0  0  0  0  0  0  0  0  0  0  0
    2.8535    0.1439    0.9602 H   0  0  0  0  0  0  0  0  0  0  0  0
    0.4440    0.1006    1.6628 H   0  0  0  0  0  0  0  0  0  0  0  0
    1.2372   -2.5687   -0.0646 H   0  0  0  0  0  0  0  0  0  0  0  0
  1  2  3  0
  1  5  1  0
  2  3  1  0
  3  4  1  0
  3  7  1  0
  4  8  1  0
  4  9  1  0
  4 10  1  0
  6 12  1  0
 11 12  1  0
 11 14  1  0
 11 15  1  0
 11 16  1  0
 12 13  1  0
 12 17  1  0
 13 18  1  0
M  RAD  1   3   2
M  END
>  <reaction>  (14) 
rxn_1280

>  <mol_properties>  (14) 
{"1": {"label": "*0", "atom_type": "Ct"}, "2": {"label": "*1", "atom_type": "Cs"}, "5": {"label": "*2", "atom_type": "H0"}, "11": {"label": "*3", "atom_type": "Cs"}, "12": {"label": "*4", "atom_type": "S2s"}}

>  <type>  (14) 
unop_10

>  <geom_source>  (14) 
Heuristics

$$$$

     RDKit          3D

 18 16  0  0  0  0  0  0  0  0999 V2000
   -1.3048    0.1076   -2.9524 C   0  0  0  0  0  0  0  0  0  0  0  0
   -1.3048    0.1076   -1.7547 C   0  0  0  0  0  0  0  0  0  0  0  0
   -1.3048    0.1358   -0.2955 C   0  0  0  0  0  3  0  0  0  0  0  0
   -1.3048    1.5572    0.2701 C   0  0  0  0  0  0  0  0  0  0  0  0
   -1.3048    0.1076   -4.0157 H   0  0  0  0  0  0  0  0  0  0  0  0
   -0.2542   -0.5183    0.1385 H   0  0  0  0  0  0  0  0  0  0  0  0
   -2.1803   -0.4092    0.0662 H   0  0  0  0  0  0  0  0  0  0  0  0
   -2.1870    2.1051   -0.0614 H   0  0  0  0  0  0  0  0  0  0  0  0
   -1.3048    1.5299    1.3604 H   0  0  0  0  0  0  0  0  0  0  0  0
   -0.4225    2.1050   -0.0614 H   0  0  0  0  0  0  0  0  0  0  0  0
    0.5240   -1.8112    1.9216 C   0  0  0  0  0  0  0  0  0  0  0  0
    0.7934   -1.1705    0.5714 C   0  0  0  0  0  0  0  0  0  0  0  0
    1.5967    0.4566    0.6659 S   0  0  0  0  0  0  0  0  0  0  0  0
    0.0807   -2.8013    1.7911 H   0  0  0  0  0  0  0  0  0  0  0  0
   -0.1702   -1.2075    2.5091 H   0  0  0  0  0  0  0  0  0  0  0  0
    1.4457   -1.9167    2.4943 H   0  0  0  0  0  0  0  0  0  0  0  0
    1.4867   -1.7783   -0.0118 H   0  0  0  0  0  0  0  0  0  0  0  0
    0.6162    1.0805    1.3326 H   0  0  0  0  0  0  0  0  0  0  0  0
  1  2  3  0
  1  5  1  0
  2  3  1  0
  3  4  1  0
  3  7  1  0
  4  8  1  0
  4  9  1  0
  4 10  1  0
  6 12  1  0
 11 12  1  0
 11 14  1  0
 11 15  1  0
 11 16  1  0
 12 13  1  0
 12 17  1  0
 13 18  1  0
M  RAD  1   3   2
M  END
>  <reaction>  (15) 
rxn_1280

>  <mol_properties>  (15) 
{"1": {"label": "*0", "atom_type": "Ct"}, "2": {"label": "*1", "atom_type": "Cs"}, "5": {"label": "*2", "atom_type": "H0"}, "11": {"label": "*3", "atom_type": "Cs"}, "12": {"label": "*4", "atom_type": "S2s"}}

>  <type>  (15) 
unop_11

>  <geom_source>  (15) 
Heuristics

$$$$

     RDKit          3D

 18 16  0  0  0  0  0  0  0  0999 V2000
   -1.0712    0.9230   -2.9195 C   0  0  0  0  0  0  0  0  0  0  0  0
   -1.0712    0.9230   -1.7218 C   0  0  0  0  0  0  0  0  0  0  0  0
   -1.0712    0.9512   -0.2626 C   0  0  0  0  0  3  0  0  0  0  0  0
   -1.0712    2.3726    0.3030 C   0  0  0  0  0  0  0  0  0  0  0  0
   -1.0712    0.9230   -3.9828 H   0  0  0  0  0  0  0  0  0  0  0  0
   -0.0206    0.2971    0.1714 H   0  0  0  0  0  0  0  0  0  0  0  0
   -1.9467    0.4061    0.0991 H   0  0  0  0  0  0  0  0  0  0  0  0
   -1.9534    2.9204   -0.0285 H   0  0  0  0  0  0  0  0  0  0  0  0
   -1.0712    2.3453    1.3933 H   0  0  0  0  0  0  0  0  0  0  0  0
   -0.1890    2.9204   -0.0285 H   0  0  0  0  0  0  0  0  0  0  0  0
    1.8527   -0.8982   -0.5489 C   0  0  0  0  0  0  0  0  0  0  0  0
    1.0270   -0.3552    0.6043 C   0  0  0  0  0  0  0  0  0  0  0  0
    0.4867   -1.6185    1.7934 S   0  0  0  0  0  0  0  0  0  0  0  0
    2.1789   -0.0835   -1.1998 H   0  0  0  0  0  0  0  0  0  0  0  0
    1.2698   -1.5967   -1.1519 H   0  0  0  0  0  0  0  0  0  0  0  0
    2.7348   -1.4243   -0.1833 H   0  0  0  0  0  0  0  0  0  0  0  0
    1.6138    0.3430    1.2029 H   0  0  0  0  0  0  0  0  0  0  0  0
   -0.2536   -2.3367    0.9383 H   0  0  0  0  0  0  0  0  0  0  0  0
  1  2  3  0
  1  5  1  0
  2  3  1  0
  3  4  1  0
  3  7  1  0
  4  8  1  0
  4  9  1  0
  4 10  1  0
  6 12  1  0
 11 12  1  0
 11 14  1  0
 11 15  1  0
 11 16  1  0
 12 13  1  0
 12 17  1  0
 13 18  1  0
M  RAD  1   3   2
M  END
>  <reaction>  (16) 
rxn_1280

>  <mol_properties>  (16) 
{"1": {"label": "*0", "atom_type": "Ct"}, "2": {"label": "*1", "atom_type": "Cs"}, "5": {"label": "*2", "atom_type": "H0"}, "11": {"label": "*3", "atom_type": "Cs"}, "12": {"label": "*4", "atom_type": "S2s"}}

>  <type>  (16) 
unop_12

>  <geom_source>  (16) 
Heuristics

$$$$

     RDKit          3D

 18 16  0  0  0  0  0  0  0  0999 V2000
    2.0633   -1.3997    1.5788 S   0  0  0  0  0  0  0  0  0  0  0  0
    1.3757   -0.1228    0.4824 C   0  0  0  0  0  0  0  0  0  0  0  0
    2.2745    0.0699   -0.7284 C   0  0  0  0  0  0  0  0  0  0  0  0
   -2.1762   -0.9590    0.1524 C   0  0  0  0  0  0  0  0  0  0  0  0
   -1.0449   -0.2114   -0.5382 C   0  0  0  0  0  3  0  0  0  0  0  0
   -1.2108    1.2382   -0.3867 C   0  0  0  0  0  0  0  0  0  0  0  0
   -1.3463    2.4297   -0.2625 C   0  0  0  0  0  0  0  0  0  0  0  0
    1.2914    0.8334    1.0411 H   0  0  0  0  0  0  0  0  0  0  0  0
    0.1510   -0.5022    0.0735 H   0  0  0  0  0  0  0  0  0  0  0  0
    3.2875    0.3923   -0.4067 H   0  0  0  0  0  0  0  0  0  0  0  0
    1.8421    0.8493   -1.3899 H   0  0  0  0  0  0  0  0  0  0  0  0
    2.3529   -0.8797   -1.2985 H   0  0  0  0  0  0  0  0  0  0  0  0
   -2.0205   -2.0512    0.0319 H   0  0  0  0  0  0  0  0  0  0  0  0
   -2.1869   -0.7205    1.2373 H   0  0  0  0  0  0  0  0  0  0  0  0
   -3.1547   -0.6845   -0.2974 H   0  0  0  0  0  0  0  0  0  0  0  0
   -1.0225   -0.4699   -1.6179 H   0  0  0  0  0  0  0  0  0  0  0  0
    0.9896   -1.2876    2.4822 H   0  0  0  0  0  0  0  0  0  0  0  0
   -1.4654    3.4756   -0.1533 H   0  0  0  0  0  0  0  0  0  0  0  0
  1  2  1  0
  1 17  1  0
  2  3  1  0
  2  8  1  0
  2  9  1  0
  3 10  1  0
  3 11  1  0
  3 12  1  0
  4  5  1  0
  4 13  1  0
  4 14  1  0
  4 15  1  0
  5  6  1  0
  5 16  1  0
  6  7  3  0
  7 18  1  0
M  RAD  1   5   2
M  END
>  <reaction>  (17) 
rxn_1280

>  <mol_properties>  (17) 
{"1": {"label": "*0", "atom_type": "Ct"}, "2": {"label": "*1", "atom_type": "Cs"}, "5": {"label": "*2", "atom_type": "H0"}, "11": {"label": "*3", "atom_type": "Cs"}, "12": {"label": "*4", "atom_type": "S2s"}}

>  <type>  (17) 
unop_13

>  <geom_source>  (17) 
AutoTST

$$$$
