
     RDKit          3D

 12 11  0  0  0  0  0  0  0  0999 V2000
    1.2394   -0.3763   -0.3020 C   0  0  0  0  0  0  0  0  0  0  0  0
    0.1007    0.3023    0.4464 C   0  0  0  0  0  0  0  0  0  0  0  0
   -0.1187    2.0399   -0.0725 S   0  0  0  0  0  0  0  0  0  0  0  0
   -1.1974   -0.4877    0.3552 C   0  0  0  0  0  0  0  0  0  0  0  0
    2.1681    0.1849   -0.2048 H   0  0  0  0  0  0  0  0  0  0  0  0
    1.0031   -0.4606   -1.3656 H   0  0  0  0  0  0  0  0  0  0  0  0
    1.3994   -1.3856    0.0860 H   0  0  0  0  0  0  0  0  0  0  0  0
    0.3796    0.4050    1.4981 H   0  0  0  0  0  0  0  0  0  0  0  0
   -0.4500    1.7779   -1.3452 H   0  0  0  0  0  0  0  0  0  0  0  0
   -1.0545   -1.4978    0.7479 H   0  0  0  0  0  0  0  0  0  0  0  0
   -1.5206   -0.5759   -0.6849 H   0  0  0  0  0  0  0  0  0  0  0  0
   -1.9957   -0.0054    0.9183 H   0  0  0  0  0  0  0  0  0  0  0  0
  1  2  1  0
  1  5  1  0
  1  6  1  0
  1  7  1  0
  2  4  1  0
  2  3  1  0
  2  8  1  0
  3  9  1  0
  4 10  1  0
  4 11  1  0
  4 12  1  0
M  END
>  <reaction>  (1) 
rxn_1907

>  <mol_properties>  (1) 
{"1": {"label": "donator", "atom_type": "Cs"}, "7": {"label": "d_hydrogen", "atom_type": "H0"}}

>  <type>  (1) 
r1h

$$$$

     RDKit          3D

  4  3  0  0  0  0  0  0  0  0999 V2000
    0.0000    0.0000    0.0000 C   0  0  0  0  0  3  0  0  0  0  0  0
    1.0638   -0.1747    0.0540 H   0  0  0  0  0  0  0  0  0  0  0  0
   -0.6833   -0.8351   -0.0280 H   0  0  0  0  0  0  0  0  0  0  0  0
   -0.3805    1.0098   -0.0260 H   0  0  0  0  0  0  0  0  0  0  0  0
  1  2  1  0
  1  3  1  0
  1  4  1  0
M  RAD  1   1   2
M  END
>  <reaction>  (2) 
rxn_1907

>  <mol_properties>  (2) 
{"0": {"label": "acceptor", "atom_type": "Cs"}}

>  <type>  (2) 
r2

$$$$

     RDKit          3D

  5  4  0  0  0  0  0  0  0  0999 V2000
    0.0000    0.0000    0.0000 C   0  0  0  0  0  0  0  0  0  0  0  0
   -0.6486   -0.7720   -0.4113 H   0  0  0  0  0  0  0  0  0  0  0  0
   -0.3482    0.9787   -0.3267 H   0  0  0  0  0  0  0  0  0  0  0  0
   -0.0223   -0.0487    1.0876 H   0  0  0  0  0  0  0  0  0  0  0  0
    1.0191   -0.1580   -0.3496 H   0  0  0  0  0  0  0  0  0  0  0  0
  1  2  1  0
  1  3  1  0
  1  4  1  0
  1  5  1  0
M  END
>  <reaction>  (3) 
rxn_1907

>  <mol_properties>  (3) 
{"0": {"label": "a_hydrogen", "atom_type": "H0"}, "1": {"label": "acceptor", "atom_type": "Cs"}}

>  <type>  (3) 
r2h

$$$$

     RDKit          3D

 16 14  0  0  0  0  0  0  0  0999 V2000
   -0.3409    0.5403   -1.7337 C   0  0  0  0  0  0  0  0  0  0  0  0
   -0.0516    0.3337   -0.2663 C   0  0  0  0  0  0  0  0  0  0  0  0
    1.2435   -0.8753    0.0733 S   0  0  0  0  0  0  0  0  0  0  0  0
    0.0575    1.6057    0.5399 C   0  0  0  0  0  0  0  0  0  0  0  0
   -0.5070   -0.4096   -2.2415 H   0  0  0  0  0  0  0  0  0  0  0  0
    0.4963    1.0446   -2.2277 H   0  0  0  0  0  0  0  0  0  0  0  0
   -1.2280    1.1662   -1.8619 H   0  0  0  0  0  0  0  0  0  0  0  0
   -1.0837   -0.2794    0.2019 H   0  0  0  0  0  0  0  0  0  0  0  0
    2.2691   -0.1726   -0.4357 H   0  0  0  0  0  0  0  0  0  0  0  0
   -0.8323    2.2244    0.3963 H   0  0  0  0  0  0  0  0  0  0  0  0
    0.9259    2.1932    0.2234 H   0  0  0  0  0  0  0  0  0  0  0  0
    0.1667    1.3919    1.6029 H   0  0  0  0  0  0  0  0  0  0  0  0
   -2.2438   -0.8948    0.6936 C   0  0  0  0  0  3  0  0  0  0  0  0
   -2.3176   -1.8109    0.1163 H   0  0  0  0  0  0  0  0  0  0  0  0
   -3.0326   -0.1759    0.4949 H   0  0  0  0  0  0  0  0  0  0  0  0
   -2.0318   -1.0467    1.7471 H   0  0  0  0  0  0  0  0  0  0  0  0
  1  2  1  0
  1  5  1  0
  1  6  1  0
  1  7  1  0
  2  4  1  0
  2  3  1  0
  2  8  1  0
  3  9  1  0
  4 10  1  0
  4 11  1  0
  4 12  1  0
 13 14  1  0
 13 15  1  0
 13 16  1  0
M  RAD  1  13   2
M  END
>  <reaction>  (4) 
rxn_1907

>  <mol_properties>  (4) 
{"1": {"label": "*1", "atom_type": "Cs"}, "2": {"label": "*0", "atom_type": "S2s"}, "7": {"label": "*2", "atom_type": "H0"}, "12": {"label": "*3", "atom_type": "Cs"}, "13": {"label": "*4", "atom_type": "H0"}}

>  <type>  (4) 
ts

$$$$

     RDKit          3D

 16 14  0  0  0  0  0  0  0  0999 V2000
   -0.1313    0.3326   -1.7554 C   0  0  0  0  0  0  0  0  0  0  0  0
   -0.1313    0.3326   -0.2331 C   0  0  0  0  0  3  0  0  0  0  0  0
    1.2237   -0.6838    0.4505 S   0  0  0  0  0  0  0  0  0  0  0  0
   -0.1313    1.7426    0.3410 C   0  0  0  0  0  0  0  0  0  0  0  0
   -0.1599   -0.6816   -2.1521 H   0  0  0  0  0  0  0  0  0  0  0  0
    0.7671    0.8224   -2.1390 H   0  0  0  0  0  0  0  0  0  0  0  0
   -0.9983    0.8801   -2.1342 H   0  0  0  0  0  0  0  0  0  0  0  0
   -1.1992   -0.2992    0.1919 H   0  0  0  0  0  0  0  0  0  0  0  0
    2.2299    0.0517   -0.0441 H   0  0  0  0  0  0  0  0  0  0  0  0
   -0.9983    2.2999   -0.0232 H   0  0  0  0  0  0  0  0  0  0  0  0
    0.7671    2.2825    0.0320 H   0  0  0  0  0  0  0  0  0  0  0  0
   -0.1599    1.7275    1.4299 H   0  0  0  0  0  0  0  0  0  0  0  0
   -2.2632   -0.9288    0.6153 C   0  0  0  0  0  0  0  0  0  0  0  0
   -1.9628   -1.7841    1.2185 H   0  0  0  0  0  0  0  0  0  0  0  0
   -3.2803   -1.0773    0.2560 H   0  0  0  0  0  0  0  0  0  0  0  0
   -2.1863   -0.1407    1.3628 H   0  0  0  0  0  0  0  0  0  0  0  0
  1  2  1  0
  1  5  1  0
  1  6  1  0
  1  7  1  0
  2  4  1  0
  2  3  1  0
  3  9  1  0
  4 10  1  0
  4 11  1  0
  4 12  1  0
  8 13  1  0
 13 14  1  0
 13 15  1  0
 13 16  1  0
M  RAD  1   2   2
M  END
>  <reaction>  (5) 
rxn_1907

>  <mol_properties>  (5) 
{"1": {"label": "*1", "atom_type": "Cs"}, "2": {"label": "*0", "atom_type": "S2s"}, "7": {"label": "*2", "atom_type": "H0"}, "12": {"label": "*3", "atom_type": "Cs"}, "13": {"label": "*4", "atom_type": "H0"}}

>  <type>  (5) 
unop_1

>  <geom_source>  (5) 
Heuristics

$$$$

     RDKit          3D

 16 14  0  0  0  0  0  0  0  0999 V2000
   -0.1329    0.3323   -1.7498 C   0  0  0  0  0  0  0  0  0  0  0  0
   -0.1329    0.3323   -0.2275 C   0  0  0  0  0  3  0  0  0  0  0  0
    1.2221   -0.6842    0.4561 S   0  0  0  0  0  0  0  0  0  0  0  0
   -0.1329    1.7422    0.3465 C   0  0  0  0  0  0  0  0  0  0  0  0
   -0.1615   -0.6820   -2.1465 H   0  0  0  0  0  0  0  0  0  0  0  0
    0.7655    0.8220   -2.1334 H   0  0  0  0  0  0  0  0  0  0  0  0
   -0.9999    0.8797   -2.1286 H   0  0  0  0  0  0  0  0  0  0  0  0
   -1.2008   -0.2996    0.1975 H   0  0  0  0  0  0  0  0  0  0  0  0
    2.2284    0.0513   -0.0386 H   0  0  0  0  0  0  0  0  0  0  0  0
   -0.9999    2.2995   -0.0176 H   0  0  0  0  0  0  0  0  0  0  0  0
    0.7655    2.2822    0.0376 H   0  0  0  0  0  0  0  0  0  0  0  0
   -0.1615    1.7271    1.4355 H   0  0  0  0  0  0  0  0  0  0  0  0
   -2.2647   -0.9292    0.6209 C   0  0  0  0  0  0  0  0  0  0  0  0
   -2.5468   -1.6925   -0.1026 H   0  0  0  0  0  0  0  0  0  0  0  0
   -3.1587   -0.4226    0.9812 H   0  0  0  0  0  0  0  0  0  0  0  0
   -1.5881   -0.8532    1.4707 H   0  0  0  0  0  0  0  0  0  0  0  0
  1  2  1  0
  1  5  1  0
  1  6  1  0
  1  7  1  0
  2  4  1  0
  2  3  1  0
  3  9  1  0
  4 10  1  0
  4 11  1  0
  4 12  1  0
  8 13  1  0
 13 14  1  0
 13 15  1  0
 13 16  1  0
M  RAD  1   2   2
M  END
>  <reaction>  (6) 
rxn_1907

>  <mol_properties>  (6) 
{"1": {"label": "*1", "atom_type": "Cs"}, "2": {"label": "*0", "atom_type": "S2s"}, "7": {"label": "*2", "atom_type": "H0"}, "12": {"label": "*3", "atom_type": "Cs"}, "13": {"label": "*4", "atom_type": "H0"}}

>  <type>  (6) 
unop_2

>  <geom_source>  (6) 
Heuristics

$$$$

     RDKit          3D

 16 14  0  0  0  0  0  0  0  0999 V2000
   -0.1286    0.3324   -1.7547 C   0  0  0  0  0  0  0  0  0  0  0  0
   -0.1286    0.3324   -0.2323 C   0  0  0  0  0  3  0  0  0  0  0  0
    1.2265   -0.6840    0.4513 S   0  0  0  0  0  0  0  0  0  0  0  0
   -0.1286    1.7424    0.3417 C   0  0  0  0  0  0  0  0  0  0  0  0
   -0.1572   -0.6818   -2.1513 H   0  0  0  0  0  0  0  0  0  0  0  0
    0.7699    0.8222   -2.1383 H   0  0  0  0  0  0  0  0  0  0  0  0
   -0.9955    0.8798   -2.1335 H   0  0  0  0  0  0  0  0  0  0  0  0
   -1.1965   -0.2994    0.1927 H   0  0  0  0  0  0  0  0  0  0  0  0
    2.2327    0.0515   -0.0434 H   0  0  0  0  0  0  0  0  0  0  0  0
   -0.9955    2.2997   -0.0225 H   0  0  0  0  0  0  0  0  0  0  0  0
    0.7699    2.2823    0.0328 H   0  0  0  0  0  0  0  0  0  0  0  0
   -0.1572    1.7273    1.4307 H   0  0  0  0  0  0  0  0  0  0  0  0
   -2.2604   -0.9290    0.6161 C   0  0  0  0  0  0  0  0  0  0  0  0
   -2.0466   -1.3989    1.5748 H   0  0  0  0  0  0  0  0  0  0  0  0
   -2.9789   -1.5354    0.0668 H   0  0  0  0  0  0  0  0  0  0  0  0
   -2.6466   -0.0496    1.1291 H   0  0  0  0  0  0  0  0  0  0  0  0
  1  2  1  0
  1  5  1  0
  1  6  1  0
  1  7  1  0
  2  4  1  0
  2  3  1  0
  3  9  1  0
  4 10  1  0
  4 11  1  0
  4 12  1  0
  8 13  1  0
 13 14  1  0
 13 15  1  0
 13 16  1  0
M  RAD  1   2   2
M  END
>  <reaction>  (7) 
rxn_1907

>  <mol_properties>  (7) 
{"1": {"label": "*1", "atom_type": "Cs"}, "2": {"label": "*0", "atom_type": "S2s"}, "7": {"label": "*2", "atom_type": "H0"}, "12": {"label": "*3", "atom_type": "Cs"}, "13": {"label": "*4", "atom_type": "H0"}}

>  <type>  (7) 
unop_3

>  <geom_source>  (7) 
Heuristics

$$$$

     RDKit          3D

 16 14  0  0  0  0  0  0  0  0999 V2000
   -0.1332    0.3316   -1.7525 C   0  0  0  0  0  0  0  0  0  0  0  0
   -0.1332    0.3316   -0.2301 C   0  0  0  0  0  3  0  0  0  0  0  0
    1.2218   -0.6848    0.4535 S   0  0  0  0  0  0  0  0  0  0  0  0
   -0.1332    1.7416    0.3439 C   0  0  0  0  0  0  0  0  0  0  0  0
   -0.1618   -0.6826   -2.1491 H   0  0  0  0  0  0  0  0  0  0  0  0
    0.7652    0.8214   -2.1361 H   0  0  0  0  0  0  0  0  0  0  0  0
   -1.0002    0.8791   -2.1313 H   0  0  0  0  0  0  0  0  0  0  0  0
   -1.2011   -0.3002    0.1949 H   0  0  0  0  0  0  0  0  0  0  0  0
    2.2280    0.0507   -0.0412 H   0  0  0  0  0  0  0  0  0  0  0  0
   -1.0002    2.2989   -0.0202 H   0  0  0  0  0  0  0  0  0  0  0  0
    0.7652    2.2816    0.0350 H   0  0  0  0  0  0  0  0  0  0  0  0
   -0.1618    1.7265    1.4329 H   0  0  0  0  0  0  0  0  0  0  0  0
   -2.2651   -0.9298    0.6183 C   0  0  0  0  0  0  0  0  0  0  0  0
   -3.1565   -0.4242    0.2503 H   0  0  0  0  0  0  0  0  0  0  0  0
   -1.9632   -0.4887    1.5670 H   0  0  0  0  0  0  0  0  0  0  0  0
   -2.1434   -2.0025    0.7603 H   0  0  0  0  0  0  0  0  0  0  0  0
  1  2  1  0
  1  5  1  0
  1  6  1  0
  1  7  1  0
  2  4  1  0
  2  3  1  0
  3  9  1  0
  4 10  1  0
  4 11  1  0
  4 12  1  0
  8 13  1  0
 13 14  1  0
 13 15  1  0
 13 16  1  0
M  RAD  1   2   2
M  END
>  <reaction>  (8) 
rxn_1907

>  <mol_properties>  (8) 
{"1": {"label": "*1", "atom_type": "Cs"}, "2": {"label": "*0", "atom_type": "S2s"}, "7": {"label": "*2", "atom_type": "H0"}, "12": {"label": "*3", "atom_type": "Cs"}, "13": {"label": "*4", "atom_type": "H0"}}

>  <type>  (8) 
unop_4

>  <geom_source>  (8) 
Heuristics

$$$$

     RDKit          3D

 16 14  0  0  0  0  0  0  0  0999 V2000
   -0.1279    0.3359   -1.7531 C   0  0  0  0  0  0  0  0  0  0  0  0
   -0.1279    0.3359   -0.2308 C   0  0  0  0  0  3  0  0  0  0  0  0
    1.2271   -0.6805    0.4528 S   0  0  0  0  0  0  0  0  0  0  0  0
   -0.1279    1.7459    0.3432 C   0  0  0  0  0  0  0  0  0  0  0  0
   -0.1565   -0.6783   -2.1498 H   0  0  0  0  0  0  0  0  0  0  0  0
    0.7705    0.8256   -2.1367 H   0  0  0  0  0  0  0  0  0  0  0  0
   -0.9949    0.8833   -2.1319 H   0  0  0  0  0  0  0  0  0  0  0  0
   -1.1958   -0.2960    0.1942 H   0  0  0  0  0  0  0  0  0  0  0  0
    2.2334    0.0550   -0.0419 H   0  0  0  0  0  0  0  0  0  0  0  0
   -0.9949    2.3031   -0.0209 H   0  0  0  0  0  0  0  0  0  0  0  0
    0.7705    2.2858    0.0343 H   0  0  0  0  0  0  0  0  0  0  0  0
   -0.1565    1.7308    1.4322 H   0  0  0  0  0  0  0  0  0  0  0  0
   -2.2597   -0.9255    0.6176 C   0  0  0  0  0  0  0  0  0  0  0  0
   -2.2689   -0.9310    1.7065 H   0  0  0  0  0  0  0  0  0  0  0  0
   -2.2456   -1.9503    0.2496 H   0  0  0  0  0  0  0  0  0  0  0  0
   -3.2156   -0.4078    0.6814 H   0  0  0  0  0  0  0  0  0  0  0  0
  1  2  1  0
  1  5  1  0
  1  6  1  0
  1  7  1  0
  2  4  1  0
  2  3  1  0
  3  9  1  0
  4 10  1  0
  4 11  1  0
  4 12  1  0
  8 13  1  0
 13 14  1  0
 13 15  1  0
 13 16  1  0
M  RAD  1   2   2
M  END
>  <reaction>  (9) 
rxn_1907

>  <mol_properties>  (9) 
{"1": {"label": "*1", "atom_type": "Cs"}, "2": {"label": "*0", "atom_type": "S2s"}, "7": {"label": "*2", "atom_type": "H0"}, "12": {"label": "*3", "atom_type": "Cs"}, "13": {"label": "*4", "atom_type": "H0"}}

>  <type>  (9) 
unop_5

>  <geom_source>  (9) 
Heuristics

$$$$

     RDKit          3D

 16 14  0  0  0  0  0  0  0  0999 V2000
   -0.1327    0.3332   -1.7542 C   0  0  0  0  0  0  0  0  0  0  0  0
   -0.1327    0.3332   -0.2318 C   0  0  0  0  0  3  0  0  0  0  0  0
    1.2223   -0.6832    0.4518 S   0  0  0  0  0  0  0  0  0  0  0  0
   -0.1327    1.7432    0.3422 C   0  0  0  0  0  0  0  0  0  0  0  0
   -0.1613   -0.6811   -2.1508 H   0  0  0  0  0  0  0  0  0  0  0  0
    0.7657    0.8229   -2.1378 H   0  0  0  0  0  0  0  0  0  0  0  0
   -0.9997    0.8806   -2.1330 H   0  0  0  0  0  0  0  0  0  0  0  0
   -1.2006   -0.2987    0.1932 H   0  0  0  0  0  0  0  0  0  0  0  0
    2.2285    0.0523   -0.0429 H   0  0  0  0  0  0  0  0  0  0  0  0
   -0.9997    2.3004   -0.0220 H   0  0  0  0  0  0  0  0  0  0  0  0
    0.7657    2.2831    0.0333 H   0  0  0  0  0  0  0  0  0  0  0  0
   -0.1613    1.7281    1.4312 H   0  0  0  0  0  0  0  0  0  0  0  0
   -2.2646   -0.9282    0.6166 C   0  0  0  0  0  0  0  0  0  0  0  0
   -3.0829   -0.2195    0.7342 H   0  0  0  0  0  0  0  0  0  0  0  0
   -1.6123   -0.8773    1.4871 H   0  0  0  0  0  0  0  0  0  0  0  0
   -2.6117   -1.9543    0.5056 H   0  0  0  0  0  0  0  0  0  0  0  0
  1  2  1  0
  1  5  1  0
  1  6  1  0
  1  7  1  0
  2  4  1  0
  2  3  1  0
  3  9  1  0
  4 10  1  0
  4 11  1  0
  4 12  1  0
  8 13  1  0
 13 14  1  0
 13 15  1  0
 13 16  1  0
M  RAD  1   2   2
M  END
>  <reaction>  (10) 
rxn_1907

>  <mol_properties>  (10) 
{"1": {"label": "*1", "atom_type": "Cs"}, "2": {"label": "*0", "atom_type": "S2s"}, "7": {"label": "*2", "atom_type": "H0"}, "12": {"label": "*3", "atom_type": "Cs"}, "13": {"label": "*4", "atom_type": "H0"}}

>  <type>  (10) 
unop_6

>  <geom_source>  (10) 
Heuristics

$$$$

     RDKit          3D

 16 14  0  0  0  0  0  0  0  0999 V2000
   -0.1324    0.3355   -1.7551 C   0  0  0  0  0  0  0  0  0  0  0  0
   -0.1324    0.3355   -0.2327 C   0  0  0  0  0  3  0  0  0  0  0  0
    1.2226   -0.6810    0.4509 S   0  0  0  0  0  0  0  0  0  0  0  0
   -0.1324    1.7454    0.3413 C   0  0  0  0  0  0  0  0  0  0  0  0
   -0.1610   -0.6788   -2.1517 H   0  0  0  0  0  0  0  0  0  0  0  0
    0.7660    0.8252   -2.1387 H   0  0  0  0  0  0  0  0  0  0  0  0
   -0.9994    0.8829   -2.1339 H   0  0  0  0  0  0  0  0  0  0  0  0
   -1.2003   -0.2964    0.1922 H   0  0  0  0  0  0  0  0  0  0  0  0
    2.2289    0.0545   -0.0438 H   0  0  0  0  0  0  0  0  0  0  0  0
   -0.9994    2.3027   -0.0229 H   0  0  0  0  0  0  0  0  0  0  0  0
    0.7660    2.2854    0.0324 H   0  0  0  0  0  0  0  0  0  0  0  0
   -0.1610    1.7303    1.4303 H   0  0  0  0  0  0  0  0  0  0  0  0
   -2.2642   -0.9260    0.6156 C   0  0  0  0  0  0  0  0  0  0  0  0
   -2.8694   -0.2509    1.2189 H   0  0  0  0  0  0  0  0  0  0  0  0
   -1.4512   -1.3236    1.2211 H   0  0  0  0  0  0  0  0  0  0  0  0
   -3.0155   -1.6740    0.3673 H   0  0  0  0  0  0  0  0  0  0  0  0
  1  2  1  0
  1  5  1  0
  1  6  1  0
  1  7  1  0
  2  4  1  0
  2  3  1  0
  3  9  1  0
  4 10  1  0
  4 11  1  0
  4 12  1  0
  8 13  1  0
 13 14  1  0
 13 15  1  0
 13 16  1  0
M  RAD  1   2   2
M  END
>  <reaction>  (11) 
rxn_1907

>  <mol_properties>  (11) 
{"1": {"label": "*1", "atom_type": "Cs"}, "2": {"label": "*0", "atom_type": "S2s"}, "7": {"label": "*2", "atom_type": "H0"}, "12": {"label": "*3", "atom_type": "Cs"}, "13": {"label": "*4", "atom_type": "H0"}}

>  <type>  (11) 
unop_7

>  <geom_source>  (11) 
Heuristics

$$$$

     RDKit          3D

 16 14  0  0  0  0  0  0  0  0999 V2000
   -0.1329    0.3339   -1.7540 C   0  0  0  0  0  0  0  0  0  0  0  0
   -0.1329    0.3339   -0.2317 C   0  0  0  0  0  3  0  0  0  0  0  0
    1.2221   -0.6826    0.4519 S   0  0  0  0  0  0  0  0  0  0  0  0
   -0.1329    1.7438    0.3424 C   0  0  0  0  0  0  0  0  0  0  0  0
   -0.1615   -0.6804   -2.1507 H   0  0  0  0  0  0  0  0  0  0  0  0
    0.7655    0.8236   -2.1376 H   0  0  0  0  0  0  0  0  0  0  0  0
   -0.9999    0.8813   -2.1328 H   0  0  0  0  0  0  0  0  0  0  0  0
   -1.2008   -0.2980    0.1933 H   0  0  0  0  0  0  0  0  0  0  0  0
    2.2284    0.0529   -0.0427 H   0  0  0  0  0  0  0  0  0  0  0  0
   -0.9999    2.3011   -0.0218 H   0  0  0  0  0  0  0  0  0  0  0  0
    0.7655    2.2838    0.0334 H   0  0  0  0  0  0  0  0  0  0  0  0
   -0.1615    1.7288    1.4313 H   0  0  0  0  0  0  0  0  0  0  0  0
   -2.2647   -0.9275    0.6167 C   0  0  0  0  0  0  0  0  0  0  0  0
   -2.0374   -1.9860    0.7343 H   0  0  0  0  0  0  0  0  0  0  0  0
   -3.3416   -0.7957    0.5234 H   0  0  0  0  0  0  0  0  0  0  0  0
   -1.9156   -0.3283    1.4562 H   0  0  0  0  0  0  0  0  0  0  0  0
  1  2  1  0
  1  5  1  0
  1  6  1  0
  1  7  1  0
  2  4  1  0
  2  3  1  0
  3  9  1  0
  4 10  1  0
  4 11  1  0
  4 12  1  0
  8 13  1  0
 13 14  1  0
 13 15  1  0
 13 16  1  0
M  RAD  1   2   2
M  END
>  <reaction>  (12) 
rxn_1907

>  <mol_properties>  (12) 
{"1": {"label": "*1", "atom_type": "Cs"}, "2": {"label": "*0", "atom_type": "S2s"}, "7": {"label": "*2", "atom_type": "H0"}, "12": {"label": "*3", "atom_type": "Cs"}, "13": {"label": "*4", "atom_type": "H0"}}

>  <type>  (12) 
unop_8

>  <geom_source>  (12) 
Heuristics

$$$$

     RDKit          3D

 16 14  0  0  0  0  0  0  0  0999 V2000
   -0.1336    0.3306   -1.7508 C   0  0  0  0  0  0  0  0  0  0  0  0
   -0.1336    0.3306   -0.2285 C   0  0  0  0  0  3  0  0  0  0  0  0
    1.2214   -0.6858    0.4551 S   0  0  0  0  0  0  0  0  0  0  0  0
   -0.1336    1.7406    0.3456 C   0  0  0  0  0  0  0  0  0  0  0  0
   -0.1622   -0.6836   -2.1475 H   0  0  0  0  0  0  0  0  0  0  0  0
    0.7648    0.8203   -2.1344 H   0  0  0  0  0  0  0  0  0  0  0  0
   -1.0006    0.8780   -2.1296 H   0  0  0  0  0  0  0  0  0  0  0  0
   -1.2015   -0.3013    0.1965 H   0  0  0  0  0  0  0  0  0  0  0  0
    2.2276    0.0497   -0.0395 H   0  0  0  0  0  0  0  0  0  0  0  0
   -1.0006    2.2978   -0.0186 H   0  0  0  0  0  0  0  0  0  0  0  0
    0.7648    2.2805    0.0366 H   0  0  0  0  0  0  0  0  0  0  0  0
   -0.1622    1.7255    1.4345 H   0  0  0  0  0  0  0  0  0  0  0  0
   -2.2655   -0.9308    0.6199 C   0  0  0  0  0  0  0  0  0  0  0  0
   -3.0703   -0.8106   -0.1036 H   0  0  0  0  0  0  0  0  0  0  0  0
   -2.4267   -0.2544    1.4579 H   0  0  0  0  0  0  0  0  0  0  0  0
   -1.7309   -1.7597    1.0813 H   0  0  0  0  0  0  0  0  0  0  0  0
  1  2  1  0
  1  5  1  0
  1  6  1  0
  1  7  1  0
  2  4  1  0
  2  3  1  0
  3  9  1  0
  4 10  1  0
  4 11  1  0
  4 12  1  0
  8 13  1  0
 13 14  1  0
 13 15  1  0
 13 16  1  0
M  RAD  1   2   2
M  END
>  <reaction>  (13) 
rxn_1907

>  <mol_properties>  (13) 
{"1": {"label": "*1", "atom_type": "Cs"}, "2": {"label": "*0", "atom_type": "S2s"}, "7": {"label": "*2", "atom_type": "H0"}, "12": {"label": "*3", "atom_type": "Cs"}, "13": {"label": "*4", "atom_type": "H0"}}

>  <type>  (13) 
unop_9

>  <geom_source>  (13) 
Heuristics

$$$$

     RDKit          3D

 16 14  0  0  0  0  0  0  0  0999 V2000
   -0.1331    0.3338   -1.7516 C   0  0  0  0  0  0  0  0  0  0  0  0
   -0.1331    0.3338   -0.2293 C   0  0  0  0  0  3  0  0  0  0  0  0
    1.2220   -0.6826    0.4544 S   0  0  0  0  0  0  0  0  0  0  0  0
   -0.1331    1.7438    0.3448 C   0  0  0  0  0  0  0  0  0  0  0  0
   -0.1617   -0.6804   -2.1483 H   0  0  0  0  0  0  0  0  0  0  0  0
    0.7654    0.8236   -2.1352 H   0  0  0  0  0  0  0  0  0  0  0  0
   -1.0000    0.8813   -2.1304 H   0  0  0  0  0  0  0  0  0  0  0  0
   -1.2010   -0.2980    0.1957 H   0  0  0  0  0  0  0  0  0  0  0  0
    2.2282    0.0529   -0.0403 H   0  0  0  0  0  0  0  0  0  0  0  0
   -1.0000    2.3011   -0.0194 H   0  0  0  0  0  0  0  0  0  0  0  0
    0.7654    2.2837    0.0359 H   0  0  0  0  0  0  0  0  0  0  0  0
   -0.1617    1.7287    1.4337 H   0  0  0  0  0  0  0  0  0  0  0  0
   -2.2649   -0.9276    0.6191 C   0  0  0  0  0  0  0  0  0  0  0  0
   -2.2508   -1.9523    0.2511 H   0  0  0  0  0  0  0  0  0  0  0  0
   -3.2958   -0.6076    0.7628 H   0  0  0  0  0  0  0  0  0  0  0  0
   -1.7327   -0.5467    1.4895 H   0  0  0  0  0  0  0  0  0  0  0  0
  1  2  1  0
  1  5  1  0
  1  6  1  0
  1  7  1  0
  2  4  1  0
  2  3  1  0
  3  9  1  0
  4 10  1  0
  4 11  1  0
  4 12  1  0
  8 13  1  0
 13 14  1  0
 13 15  1  0
 13 16  1  0
M  RAD  1   2   2
M  END
>  <reaction>  (14) 
rxn_1907

>  <mol_properties>  (14) 
{"1": {"label": "*1", "atom_type": "Cs"}, "2": {"label": "*0", "atom_type": "S2s"}, "7": {"label": "*2", "atom_type": "H0"}, "12": {"label": "*3", "atom_type": "Cs"}, "13": {"label": "*4", "atom_type": "H0"}}

>  <type>  (14) 
unop_10

>  <geom_source>  (14) 
Heuristics

$$$$

     RDKit          3D

 16 14  0  0  0  0  0  0  0  0999 V2000
   -0.1309    0.3376   -1.7543 C   0  0  0  0  0  0  0  0  0  0  0  0
   -0.1309    0.3376   -0.2319 C   0  0  0  0  0  3  0  0  0  0  0  0
    1.2241   -0.6789    0.4517 S   0  0  0  0  0  0  0  0  0  0  0  0
   -0.1309    1.7475    0.3421 C   0  0  0  0  0  0  0  0  0  0  0  0
   -0.1595   -0.6767   -2.1509 H   0  0  0  0  0  0  0  0  0  0  0  0
    0.7675    0.8273   -2.1379 H   0  0  0  0  0  0  0  0  0  0  0  0
   -0.9979    0.8850   -2.1331 H   0  0  0  0  0  0  0  0  0  0  0  0
   -1.1988   -0.2943    0.1930 H   0  0  0  0  0  0  0  0  0  0  0  0
    2.2303    0.0566   -0.0430 H   0  0  0  0  0  0  0  0  0  0  0  0
   -0.9979    2.3048   -0.0221 H   0  0  0  0  0  0  0  0  0  0  0  0
    0.7675    2.2875    0.0332 H   0  0  0  0  0  0  0  0  0  0  0  0
   -0.1595    1.7325    1.4310 H   0  0  0  0  0  0  0  0  0  0  0  0
   -2.2628   -0.9238    0.6164 C   0  0  0  0  0  0  0  0  0  0  0  0
   -2.5718   -0.5102    1.5752 H   0  0  0  0  0  0  0  0  0  0  0  0
   -1.5926   -1.7657    0.7834 H   0  0  0  0  0  0  0  0  0  0  0  0
   -3.2994   -1.1576    0.3790 H   0  0  0  0  0  0  0  0  0  0  0  0
  1  2  1  0
  1  5  1  0
  1  6  1  0
  1  7  1  0
  2  4  1  0
  2  3  1  0
  3  9  1  0
  4 10  1  0
  4 11  1  0
  4 12  1  0
  8 13  1  0
 13 14  1  0
 13 15  1  0
 13 16  1  0
M  RAD  1   2   2
M  END
>  <reaction>  (15) 
rxn_1907

>  <mol_properties>  (15) 
{"1": {"label": "*1", "atom_type": "Cs"}, "2": {"label": "*0", "atom_type": "S2s"}, "7": {"label": "*2", "atom_type": "H0"}, "12": {"label": "*3", "atom_type": "Cs"}, "13": {"label": "*4", "atom_type": "H0"}}

>  <type>  (15) 
unop_11

>  <geom_source>  (15) 
Heuristics

$$$$

     RDKit          3D

 16 14  0  0  0  0  0  0  0  0999 V2000
   -0.1333    0.3307   -1.7497 C   0  0  0  0  0  0  0  0  0  0  0  0
   -0.1333    0.3307   -0.2274 C   0  0  0  0  0  3  0  0  0  0  0  0
    1.2217   -0.6858    0.4562 S   0  0  0  0  0  0  0  0  0  0  0  0
   -0.1333    1.7406    0.3467 C   0  0  0  0  0  0  0  0  0  0  0  0
   -0.1619   -0.6836   -2.1464 H   0  0  0  0  0  0  0  0  0  0  0  0
    0.7651    0.8204   -2.1333 H   0  0  0  0  0  0  0  0  0  0  0  0
   -1.0003    0.8781   -2.1285 H   0  0  0  0  0  0  0  0  0  0  0  0
   -1.2012   -0.3012    0.1976 H   0  0  0  0  0  0  0  0  0  0  0  0
    2.2280    0.0497   -0.0384 H   0  0  0  0  0  0  0  0  0  0  0  0
   -1.0003    2.2979   -0.0175 H   0  0  0  0  0  0  0  0  0  0  0  0
    0.7651    2.2806    0.0377 H   0  0  0  0  0  0  0  0  0  0  0  0
   -0.1619    1.7255    1.4356 H   0  0  0  0  0  0  0  0  0  0  0  0
   -2.2651   -0.9307    0.6210 C   0  0  0  0  0  0  0  0  0  0  0  0
   -2.8469   -1.2750   -0.2326 H   0  0  0  0  0  0  0  0  0  0  0  0
   -2.8703   -0.2557    1.2243 H   0  0  0  0  0  0  0  0  0  0  0  0
   -1.5418   -1.2991    1.3469 H   0  0  0  0  0  0  0  0  0  0  0  0
  1  2  1  0
  1  5  1  0
  1  6  1  0
  1  7  1  0
  2  4  1  0
  2  3  1  0
  3  9  1  0
  4 10  1  0
  4 11  1  0
  4 12  1  0
  8 13  1  0
 13 14  1  0
 13 15  1  0
 13 16  1  0
M  RAD  1   2   2
M  END
>  <reaction>  (16) 
rxn_1907

>  <mol_properties>  (16) 
{"1": {"label": "*1", "atom_type": "Cs"}, "2": {"label": "*0", "atom_type": "S2s"}, "7": {"label": "*2", "atom_type": "H0"}, "12": {"label": "*3", "atom_type": "Cs"}, "13": {"label": "*4", "atom_type": "H0"}}

>  <type>  (16) 
unop_12

>  <geom_source>  (16) 
Heuristics

$$$$

     RDKit          3D

 16 14  0  0  0  0  0  0  0  0999 V2000
    1.0353    1.1300   -0.4257 S   0  0  0  0  0  0  0  0  0  0  0  0
   -1.4454    0.2089   -1.1744 C   0  0  0  0  0  0  0  0  0  0  0  0
   -1.0733    0.6454    1.2820 C   0  0  0  0  0  0  0  0  0  0  0  0
    1.8066   -1.1500   -0.1450 C   0  0  0  0  0  0  0  0  0  0  0  0
   -0.4484    0.1526   -0.0210 C   0  0  0  0  0  3  0  0  0  0  0  0
   -2.3302   -0.4205   -0.9422 H   0  0  0  0  0  0  0  0  0  0  0  0
   -1.7775    1.2540   -1.3540 H   0  0  0  0  0  0  0  0  0  0  0  0
   -0.9711   -0.1847   -2.0978 H   0  0  0  0  0  0  0  0  0  0  0  0
   -1.9597    0.0265    1.5353 H   0  0  0  0  0  0  0  0  0  0  0  0
   -1.3845    1.7079    1.1888 H   0  0  0  0  0  0  0  0  0  0  0  0
   -0.3388    0.5539    2.1092 H   0  0  0  0  0  0  0  0  0  0  0  0
    1.8219   -1.9265   -0.9372 H   0  0  0  0  0  0  0  0  0  0  0  0
    2.7547   -0.5745   -0.1730 H   0  0  0  0  0  0  0  0  0  0  0  0
    1.6978   -1.6354    0.8466 H   0  0  0  0  0  0  0  0  0  0  0  0
    0.8434   -0.3760   -0.3384 H   0  0  0  0  0  0  0  0  0  0  0  0
    1.7692    0.5884    0.6466 H   0  0  0  0  0  0  0  0  0  0  0  0
  1  5  1  0
  1 16  1  0
  2  5  1  0
  2  6  1  0
  2  7  1  0
  2  8  1  0
  3  5  1  0
  3  9  1  0
  3 10  1  0
  3 11  1  0
  4 12  1  0
  4 13  1  0
  4 14  1  0
  4 15  1  0
M  RAD  1   5   2
M  END
>  <reaction>  (17) 
rxn_1907

>  <mol_properties>  (17) 
{"1": {"label": "*1", "atom_type": "Cs"}, "2": {"label": "*0", "atom_type": "S2s"}, "7": {"label": "*2", "atom_type": "H0"}, "12": {"label": "*3", "atom_type": "Cs"}, "13": {"label": "*4", "atom_type": "H0"}}

>  <type>  (17) 
unop_13

>  <geom_source>  (17) 
AutoTST

$$$$
