
     RDKit          3D

 10  9  0  0  0  0  0  0  0  0999 V2000
   -1.1508    0.0666    0.2839 C   0  0  0  0  0  0  0  0  0  0  0  0
    0.1022   -0.3749   -0.4771 C   0  0  0  0  0  0  0  0  0  0  0  0
    1.3428    0.1620    0.1542 C   0  0  0  0  0  0  0  0  0  0  0  0
    2.5613   -0.6971    0.7526 S   0  0  0  0  0  0  0  0  0  0  0  0
   -1.2137    1.1546    0.3481 H   0  0  0  0  0  0  0  0  0  0  0  0
   -2.0472   -0.2935   -0.2212 H   0  0  0  0  0  0  0  0  0  0  0  0
   -1.1467   -0.3334    1.2987 H   0  0  0  0  0  0  0  0  0  0  0  0
    0.1602   -1.4616   -0.5369 H   0  0  0  0  0  0  0  0  0  0  0  0
    0.0536    0.0174   -1.4997 H   0  0  0  0  0  0  0  0  0  0  0  0
    1.3824    1.2528    0.2110 H   0  0  0  0  0  0  0  0  0  0  0  0
  1  2  1  0
  1  5  1  0
  1  6  1  0
  1  7  1  0
  2  3  1  0
  2  8  1  0
  2  9  1  0
  3  4  2  0
  3 10  1  0
M  END
>  <reaction>  (1) 
rxn_2006

>  <mol_properties>  (1) 
{"1": {"label": "donator", "atom_type": "Cs"}, "7": {"label": "d_hydrogen", "atom_type": "H0"}}

>  <type>  (1) 
r1h

$$$$

     RDKit          3D

  9  8  0  0  0  0  0  0  0  0999 V2000
    2.3038   -0.0269    0.1590 C   0  0  0  0  0  0  0  0  0  0  0  0
    1.1426    0.1377   -0.1648 C   0  0  0  0  0  0  0  0  0  0  0  0
   -0.1694    0.3175   -0.5203 C   0  0  0  0  0  3  0  0  0  0  0  0
   -1.3163   -0.1910    0.2856 C   0  0  0  0  0  0  0  0  0  0  0  0
    3.3199   -0.1683    0.4378 H   0  0  0  0  0  0  0  0  0  0  0  0
   -0.3786    0.8584   -1.4360 H   0  0  0  0  0  0  0  0  0  0  0  0
   -1.9694    0.6309    0.5951 H   0  0  0  0  0  0  0  0  0  0  0  0
   -1.9325   -0.8770   -0.3039 H   0  0  0  0  0  0  0  0  0  0  0  0
   -0.9753   -0.7144    1.1774 H   0  0  0  0  0  0  0  0  0  0  0  0
  1  2  3  0
  1  5  1  0
  2  3  1  0
  3  4  1  0
  3  6  1  0
  4  7  1  0
  4  8  1  0
  4  9  1  0
M  RAD  1   3   2
M  END
>  <reaction>  (2) 
rxn_2006

>  <mol_properties>  (2) 
{"2": {"label": "acceptor", "atom_type": "Cs"}}

>  <type>  (2) 
r2

$$$$

     RDKit          3D

 10  9  0  0  0  0  0  0  0  0999 V2000
    2.2738    0.0217   -0.0992 C   0  0  0  0  0  0  0  0  0  0  0  0
    1.1083    0.2960   -0.0695 C   0  0  0  0  0  0  0  0  0  0  0  0
   -0.3173    0.6046   -0.0227 C   0  0  0  0  0  0  0  0  0  0  0  0
   -1.1561   -0.5495    0.5292 C   0  0  0  0  0  0  0  0  0  0  0  0
    3.3097   -0.2166   -0.1277 H   0  0  0  0  0  0  0  0  0  0  0  0
   -0.6542    0.8617   -1.0302 H   0  0  0  0  0  0  0  0  0  0  0  0
   -0.4633    1.4978    0.5900 H   0  0  0  0  0  0  0  0  0  0  0  0
   -0.8485   -0.7997    1.5447 H   0  0  0  0  0  0  0  0  0  0  0  0
   -2.2115   -0.2752    0.5459 H   0  0  0  0  0  0  0  0  0  0  0  0
   -1.0409   -1.4407   -0.0879 H   0  0  0  0  0  0  0  0  0  0  0  0
  1  2  3  0
  1  5  1  0
  2  3  1  0
  3  4  1  0
  3  6  1  0
  3  7  1  0
  4  8  1  0
  4  9  1  0
  4 10  1  0
M  END
>  <reaction>  (3) 
rxn_2006

>  <mol_properties>  (3) 
{"2": {"label": "acceptor", "atom_type": "Cs"}, "9": {"label": "a_hydrogen", "atom_type": "H0"}}

>  <type>  (3) 
r2h

$$$$

     RDKit          3D

 19 17  0  0  0  0  0  0  0  0999 V2000
   -0.4825   -1.1508    2.5501 C   0  0  0  0  0  0  0  0  0  0  0  0
   -0.6257   -1.4128    1.3840 C   0  0  0  0  0  0  0  0  0  0  0  0
   -0.7365   -1.6319   -0.0098 C   0  0  0  0  0  3  0  0  0  0  0  0
   -1.8968   -1.0034   -0.7371 C   0  0  0  0  0  0  0  0  0  0  0  0
   -0.3779   -0.9369    3.5867 H   0  0  0  0  0  0  0  0  0  0  0  0
   -0.4554   -2.6313   -0.3346 H   0  0  0  0  0  0  0  0  0  0  0  0
   -1.8122   -1.1682   -1.8108 H   0  0  0  0  0  0  0  0  0  0  0  0
   -2.8428   -1.4344   -0.3986 H   0  0  0  0  0  0  0  0  0  0  0  0
   -1.9307    0.0709   -0.5500 H   0  0  0  0  0  0  0  0  0  0  0  0
    0.9298   -0.0684   -2.4804 C   0  0  0  0  0  0  0  0  0  0  0  0
    1.2965   -0.1613   -1.0219 C   0  0  0  0  0  0  0  0  0  0  0  0
    1.2633    1.0135   -0.1826 C   0  0  0  0  0  0  0  0  0  0  0  0
    0.4739    2.4075   -0.4907 S   0  0  0  0  0  0  0  0  0  0  0  0
    1.7113    0.4537   -3.0373 H   0  0  0  0  0  0  0  0  0  0  0  0
    0.8132   -1.0636   -2.9120 H   0  0  0  0  0  0  0  0  0  0  0  0
    0.0050    0.4909   -2.6167 H   0  0  0  0  0  0  0  0  0  0  0  0
    0.3712   -0.8862   -0.4903 H   0  0  0  0  0  0  0  0  0  0  0  0
    2.1520   -0.8045   -0.8114 H   0  0  0  0  0  0  0  0  0  0  0  0
    1.7801    0.9070    0.7705 H   0  0  0  0  0  0  0  0  0  0  0  0
  1  2  3  0
  1  5  1  0
  2  3  1  0
  3  4  1  0
  3  6  1  0
  4  7  1  0
  4  8  1  0
  4  9  1  0
 10 11  1  0
 10 14  1  0
 10 15  1  0
 10 16  1  0
 11 12  1  0
 11 17  1  0
 11 18  1  0
 12 13  2  0
 12 19  1  0
M  RAD  1   3   2
M  END
>  <reaction>  (4) 
rxn_2006

>  <mol_properties>  (4) 
{"1": {"label": "*4", "atom_type": "Ct"}, "2": {"label": "*3", "atom_type": "Cs"}, "10": {"label": "*1", "atom_type": "Cs"}, "11": {"label": "*0", "atom_type": "CS"}, "16": {"label": "*2", "atom_type": "H0"}}

>  <type>  (4) 
ts

$$$$

     RDKit          3D

 19 17  0  0  0  0  0  0  0  0999 V2000
   -0.1597   -3.2731    1.4715 C   0  0  0  0  0  0  0  0  0  0  0  0
   -0.5610   -2.3766    0.7862 C   0  0  0  0  0  0  0  0  0  0  0  0
   -1.0474   -1.2666   -0.0269 C   0  0  0  0  0  3  0  0  0  0  0  0
   -1.1078    0.0525    0.7455 C   0  0  0  0  0  0  0  0  0  0  0  0
    0.1966   -4.0691    2.0800 H   0  0  0  0  0  0  0  0  0  0  0  0
   -2.0392   -1.5200   -0.4098 H   0  0  0  0  0  0  0  0  0  0  0  0
   -1.4756    0.8514    0.1007 H   0  0  0  0  0  0  0  0  0  0  0  0
   -1.7743   -0.0325    1.6040 H   0  0  0  0  0  0  0  0  0  0  0  0
   -0.1196    0.3317    1.1114 H   0  0  0  0  0  0  0  0  0  0  0  0
    1.0108    0.0540   -2.4966 C   0  0  0  0  0  0  0  0  0  0  0  0
    1.0108    0.0540   -0.9655 C   0  0  0  0  0  0  0  0  0  0  0  0
    1.0108    1.4422   -0.4188 C   0  0  0  0  0  0  0  0  0  0  0  0
   -0.1088    2.0979    0.5287 S   0  0  0  0  0  0  0  0  0  0  0  0
    1.8660    0.6042   -2.8937 H   0  0  0  0  0  0  0  0  0  0  0  0
    1.0616   -0.9669   -2.8753 H   0  0  0  0  0  0  0  0  0  0  0  0
    0.1013    0.5164   -2.8823 H   0  0  0  0  0  0  0  0  0  0  0  0
   -0.0169   -0.6054   -0.4969 H   0  0  0  0  0  0  0  0  0  0  0  0
    1.9211   -0.4427   -0.6101 H   0  0  0  0  0  0  0  0  0  0  0  0
    1.8662    2.0475   -0.7292 H   0  0  0  0  0  0  0  0  0  0  0  0
  1  2  3  0
  1  5  1  0
  2  3  1  0
  3  4  1  0
  3  6  1  0
  4  7  1  0
  4  8  1  0
  4  9  1  0
 10 11  1  0
 10 14  1  0
 10 15  1  0
 10 16  1  0
 11 12  1  0
 11 17  1  0
 11 18  1  0
 12 13  2  0
 12 19  1  0
M  RAD  1   3   2
M  END
>  <reaction>  (5) 
rxn_2006

>  <mol_properties>  (5) 
{"1": {"label": "*4", "atom_type": "Ct"}, "2": {"label": "*3", "atom_type": "Cs"}, "10": {"label": "*1", "atom_type": "Cs"}, "11": {"label": "*0", "atom_type": "CS"}, "16": {"label": "*2", "atom_type": "H0"}}

>  <type>  (5) 
unop_1

>  <geom_source>  (5) 
Heuristics

$$$$

     RDKit          3D

 19 17  0  0  0  0  0  0  0  0999 V2000
   -1.5450   -2.9828   -1.2981 C   0  0  0  0  0  0  0  0  0  0  0  0
   -1.2625   -2.1058   -0.5329 C   0  0  0  0  0  0  0  0  0  0  0  0
   -0.9062   -1.0562    0.4165 C   0  0  0  0  0  3  0  0  0  0  0  0
   -0.1706   -1.5931    1.6456 C   0  0  0  0  0  0  0  0  0  0  0  0
   -1.7959   -3.7614   -1.9774 H   0  0  0  0  0  0  0  0  0  0  0  0
   -1.8175   -0.5374    0.7246 H   0  0  0  0  0  0  0  0  0  0  0  0
    0.0751   -0.7765    2.3255 H   0  0  0  0  0  0  0  0  0  0  0  0
   -0.7882   -2.3142    2.1813 H   0  0  0  0  0  0  0  0  0  0  0  0
    0.7549   -2.0907    1.3553 H   0  0  0  0  0  0  0  0  0  0  0  0
    1.1519    0.2644   -2.0532 C   0  0  0  0  0  0  0  0  0  0  0  0
    1.1519    0.2644   -0.5221 C   0  0  0  0  0  0  0  0  0  0  0  0
    1.1519    1.6526    0.0246 C   0  0  0  0  0  0  0  0  0  0  0  0
    0.0324    2.3082    0.9721 S   0  0  0  0  0  0  0  0  0  0  0  0
    2.0071    0.8145   -2.4503 H   0  0  0  0  0  0  0  0  0  0  0  0
    1.2028   -0.7565   -2.4319 H   0  0  0  0  0  0  0  0  0  0  0  0
    0.2424    0.7268   -2.4389 H   0  0  0  0  0  0  0  0  0  0  0  0
    0.1243   -0.3950   -0.0535 H   0  0  0  0  0  0  0  0  0  0  0  0
    2.0623   -0.2323   -0.1667 H   0  0  0  0  0  0  0  0  0  0  0  0
    2.0074    2.2578   -0.2858 H   0  0  0  0  0  0  0  0  0  0  0  0
  1  2  3  0
  1  5  1  0
  2  3  1  0
  3  4  1  0
  3  6  1  0
  4  7  1  0
  4  8  1  0
  4  9  1  0
 10 11  1  0
 10 14  1  0
 10 15  1  0
 10 16  1  0
 11 12  1  0
 11 17  1  0
 11 18  1  0
 12 13  2  0
 12 19  1  0
M  RAD  1   3   2
M  END
>  <reaction>  (6) 
rxn_2006

>  <mol_properties>  (6) 
{"1": {"label": "*4", "atom_type": "Ct"}, "2": {"label": "*3", "atom_type": "Cs"}, "10": {"label": "*1", "atom_type": "Cs"}, "11": {"label": "*0", "atom_type": "CS"}, "16": {"label": "*2", "atom_type": "H0"}}

>  <type>  (6) 
unop_2

>  <geom_source>  (6) 
Heuristics

$$$$

     RDKit          3D

 19 17  0  0  0  0  0  0  0  0999 V2000
   -0.2779   -2.4668    2.2690 C   0  0  0  0  0  0  0  0  0  0  0  0
   -0.5689   -2.0039    1.2033 C   0  0  0  0  0  0  0  0  0  0  0  0
   -0.9346   -1.4176   -0.0821 C   0  0  0  0  0  3  0  0  0  0  0  0
   -1.6367   -0.0659    0.0610 C   0  0  0  0  0  0  0  0  0  0  0  0
   -0.0195   -2.8777    3.2150 H   0  0  0  0  0  0  0  0  0  0  0  0
   -1.5808   -2.1185   -0.6166 H   0  0  0  0  0  0  0  0  0  0  0  0
   -1.8907    0.3336   -0.9215 H   0  0  0  0  0  0  0  0  0  0  0  0
   -2.5545   -0.1666    0.6404 H   0  0  0  0  0  0  0  0  0  0  0  0
   -0.9930    0.6520    0.5695 H   0  0  0  0  0  0  0  0  0  0  0  0
    1.1235   -0.0970   -2.5518 C   0  0  0  0  0  0  0  0  0  0  0  0
    1.1235   -0.0970   -1.0207 C   0  0  0  0  0  0  0  0  0  0  0  0
    1.1235    1.2912   -0.4740 C   0  0  0  0  0  0  0  0  0  0  0  0
    0.0040    1.9469    0.4735 S   0  0  0  0  0  0  0  0  0  0  0  0
    1.9787    0.4532   -2.9489 H   0  0  0  0  0  0  0  0  0  0  0  0
    1.1744   -1.1179   -2.9305 H   0  0  0  0  0  0  0  0  0  0  0  0
    0.2141    0.3654   -2.9374 H   0  0  0  0  0  0  0  0  0  0  0  0
    0.0959   -0.7564   -0.5521 H   0  0  0  0  0  0  0  0  0  0  0  0
    2.0339   -0.5937   -0.6653 H   0  0  0  0  0  0  0  0  0  0  0  0
    1.9790    1.8964   -0.7844 H   0  0  0  0  0  0  0  0  0  0  0  0
  1  2  3  0
  1  5  1  0
  2  3  1  0
  3  4  1  0
  3  6  1  0
  4  7  1  0
  4  8  1  0
  4  9  1  0
 10 11  1  0
 10 14  1  0
 10 15  1  0
 10 16  1  0
 11 12  1  0
 11 17  1  0
 11 18  1  0
 12 13  2  0
 12 19  1  0
M  RAD  1   3   2
M  END
>  <reaction>  (7) 
rxn_2006

>  <mol_properties>  (7) 
{"1": {"label": "*4", "atom_type": "Ct"}, "2": {"label": "*3", "atom_type": "Cs"}, "10": {"label": "*1", "atom_type": "Cs"}, "11": {"label": "*0", "atom_type": "CS"}, "16": {"label": "*2", "atom_type": "H0"}}

>  <type>  (7) 
unop_3

>  <geom_source>  (7) 
Heuristics

$$$$

     RDKit          3D

 19 17  0  0  0  0  0  0  0  0999 V2000
   -2.7887   -0.2814   -0.4750 C   0  0  0  0  0  0  0  0  0  0  0  0
   -1.7739   -0.7841   -0.0855 C   0  0  0  0  0  0  0  0  0  0  0  0
   -0.5507   -1.4214    0.3917 C   0  0  0  0  0  3  0  0  0  0  0  0
   -0.7391   -2.9070    0.7041 C   0  0  0  0  0  0  0  0  0  0  0  0
   -3.6897    0.1650   -0.8209 H   0  0  0  0  0  0  0  0  0  0  0  0
   -0.2050   -0.8937    1.2841 H   0  0  0  0  0  0  0  0  0  0  0  0
    0.1976   -3.3407    1.0562 H   0  0  0  0  0  0  0  0  0  0  0  0
   -1.4958   -3.0466    1.4763 H   0  0  0  0  0  0  0  0  0  0  0  0
   -1.0588   -3.4514   -0.1846 H   0  0  0  0  0  0  0  0  0  0  0  0
    1.5075   -0.1008   -2.0780 C   0  0  0  0  0  0  0  0  0  0  0  0
    1.5075   -0.1008   -0.5470 C   0  0  0  0  0  0  0  0  0  0  0  0
    1.5075    1.2873   -0.0003 C   0  0  0  0  0  0  0  0  0  0  0  0
    0.3879    1.9430    0.9473 S   0  0  0  0  0  0  0  0  0  0  0  0
    2.3627    0.4493   -2.4751 H   0  0  0  0  0  0  0  0  0  0  0  0
    1.5583   -1.1217   -2.4567 H   0  0  0  0  0  0  0  0  0  0  0  0
    0.5980    0.3615   -2.4637 H   0  0  0  0  0  0  0  0  0  0  0  0
    0.4798   -0.7602   -0.0783 H   0  0  0  0  0  0  0  0  0  0  0  0
    2.4178   -0.5975   -0.1915 H   0  0  0  0  0  0  0  0  0  0  0  0
    2.3629    1.8926   -0.3106 H   0  0  0  0  0  0  0  0  0  0  0  0
  1  2  3  0
  1  5  1  0
  2  3  1  0
  3  4  1  0
  3  6  1  0
  4  7  1  0
  4  8  1  0
  4  9  1  0
 10 11  1  0
 10 14  1  0
 10 15  1  0
 10 16  1  0
 11 12  1  0
 11 17  1  0
 11 18  1  0
 12 13  2  0
 12 19  1  0
M  RAD  1   3   2
M  END
>  <reaction>  (8) 
rxn_2006

>  <mol_properties>  (8) 
{"1": {"label": "*4", "atom_type": "Ct"}, "2": {"label": "*3", "atom_type": "Cs"}, "10": {"label": "*1", "atom_type": "Cs"}, "11": {"label": "*0", "atom_type": "CS"}, "16": {"label": "*2", "atom_type": "H0"}}

>  <type>  (8) 
unop_4

>  <geom_source>  (8) 
Heuristics

$$$$

     RDKit          3D

 19 17  0  0  0  0  0  0  0  0999 V2000
   -0.7074   -1.4294    2.6109 C   0  0  0  0  0  0  0  0  0  0  0  0
   -0.7262   -1.4647    1.4139 C   0  0  0  0  0  0  0  0  0  0  0  0
   -0.7746   -1.4958   -0.0444 C   0  0  0  0  0  3  0  0  0  0  0  0
   -2.0710   -0.9102   -0.6073 C   0  0  0  0  0  0  0  0  0  0  0  0
   -0.6908   -1.3981    3.6736 H   0  0  0  0  0  0  0  0  0  0  0  0
   -0.6573   -2.5300   -0.3777 H   0  0  0  0  0  0  0  0  0  0  0  0
   -2.0633   -0.9540   -1.6970 H   0  0  0  0  0  0  0  0  0  0  0  0
   -2.9356   -1.4670   -0.2457 H   0  0  0  0  0  0  0  0  0  0  0  0
   -2.1885    0.1304   -0.3045 H   0  0  0  0  0  0  0  0  0  0  0  0
    1.2835   -0.1752   -2.5141 C   0  0  0  0  0  0  0  0  0  0  0  0
    1.2835   -0.1752   -0.9830 C   0  0  0  0  0  0  0  0  0  0  0  0
    1.2835    1.2129   -0.4363 C   0  0  0  0  0  0  0  0  0  0  0  0
    0.1640    1.8686    0.5112 S   0  0  0  0  0  0  0  0  0  0  0  0
    2.1388    0.3749   -2.9112 H   0  0  0  0  0  0  0  0  0  0  0  0
    1.3344   -1.1962   -2.8928 H   0  0  0  0  0  0  0  0  0  0  0  0
    0.3741    0.2871   -2.8998 H   0  0  0  0  0  0  0  0  0  0  0  0
    0.2559   -0.8346   -0.5144 H   0  0  0  0  0  0  0  0  0  0  0  0
    2.1939   -0.6719   -0.6276 H   0  0  0  0  0  0  0  0  0  0  0  0
    2.1390    1.8182   -0.7467 H   0  0  0  0  0  0  0  0  0  0  0  0
  1  2  3  0
  1  5  1  0
  2  3  1  0
  3  4  1  0
  3  6  1  0
  4  7  1  0
  4  8  1  0
  4  9  1  0
 10 11  1  0
 10 14  1  0
 10 15  1  0
 10 16  1  0
 11 12  1  0
 11 17  1  0
 11 18  1  0
 12 13  2  0
 12 19  1  0
M  RAD  1   3   2
M  END
>  <reaction>  (9) 
rxn_2006

>  <mol_properties>  (9) 
{"1": {"label": "*4", "atom_type": "Ct"}, "2": {"label": "*3", "atom_type": "Cs"}, "10": {"label": "*1", "atom_type": "Cs"}, "11": {"label": "*0", "atom_type": "CS"}, "16": {"label": "*2", "atom_type": "H0"}}

>  <type>  (9) 
unop_5

>  <geom_source>  (9) 
Heuristics

$$$$

     RDKit          3D

 19 17  0  0  0  0  0  0  0  0999 V2000
   -2.5964    0.1650    0.5579 C   0  0  0  0  0  0  0  0  0  0  0  0
   -1.6670   -0.5776    0.4196 C   0  0  0  0  0  0  0  0  0  0  0  0
   -0.5522   -1.5045    0.2516 C   0  0  0  0  0  3  0  0  0  0  0  0
   -0.9984   -2.9671    0.2089 C   0  0  0  0  0  0  0  0  0  0  0  0
   -3.4215    0.8243    0.6807 H   0  0  0  0  0  0  0  0  0  0  0  0
    0.1556   -1.3545    1.0707 H   0  0  0  0  0  0  0  0  0  0  0  0
   -0.1354   -3.6218    0.0826 H   0  0  0  0  0  0  0  0  0  0  0  0
   -1.5084   -3.2427    1.1321 H   0  0  0  0  0  0  0  0  0  0  0  0
   -1.6852   -3.1376   -0.6203 H   0  0  0  0  0  0  0  0  0  0  0  0
    1.5059   -0.1839   -2.2181 C   0  0  0  0  0  0  0  0  0  0  0  0
    1.5059   -0.1839   -0.6870 C   0  0  0  0  0  0  0  0  0  0  0  0
    1.5059    1.2042   -0.1403 C   0  0  0  0  0  0  0  0  0  0  0  0
    0.3864    1.8599    0.8072 S   0  0  0  0  0  0  0  0  0  0  0  0
    2.3611    0.3662   -2.6152 H   0  0  0  0  0  0  0  0  0  0  0  0
    1.5568   -1.2048   -2.5967 H   0  0  0  0  0  0  0  0  0  0  0  0
    0.5965    0.2784   -2.6037 H   0  0  0  0  0  0  0  0  0  0  0  0
    0.4783   -0.8433   -0.2183 H   0  0  0  0  0  0  0  0  0  0  0  0
    2.4163   -0.6806   -0.3316 H   0  0  0  0  0  0  0  0  0  0  0  0
    2.3614    1.8095   -0.4506 H   0  0  0  0  0  0  0  0  0  0  0  0
  1  2  3  0
  1  5  1  0
  2  3  1  0
  3  4  1  0
  3  6  1  0
  4  7  1  0
  4  8  1  0
  4  9  1  0
 10 11  1  0
 10 14  1  0
 10 15  1  0
 10 16  1  0
 11 12  1  0
 11 17  1  0
 11 18  1  0
 12 13  2  0
 12 19  1  0
M  RAD  1   3   2
M  END
>  <reaction>  (10) 
rxn_2006

>  <mol_properties>  (10) 
{"1": {"label": "*4", "atom_type": "Ct"}, "2": {"label": "*3", "atom_type": "Cs"}, "10": {"label": "*1", "atom_type": "Cs"}, "11": {"label": "*0", "atom_type": "CS"}, "16": {"label": "*2", "atom_type": "H0"}}

>  <type>  (10) 
unop_6

>  <geom_source>  (10) 
Heuristics

$$$$

     RDKit          3D

 19 17  0  0  0  0  0  0  0  0999 V2000
   -2.0870    0.1102    1.5980 C   0  0  0  0  0  0  0  0  0  0  0  0
   -1.4073   -0.6178    0.9328 C   0  0  0  0  0  0  0  0  0  0  0  0
   -0.6010   -1.5226    0.1196 C   0  0  0  0  0  3  0  0  0  0  0  0
   -1.3743   -2.7632   -0.3311 C   0  0  0  0  0  0  0  0  0  0  0  0
   -2.6905    0.7565    2.1886 H   0  0  0  0  0  0  0  0  0  0  0  0
    0.2796   -1.8206    0.6942 H   0  0  0  0  0  0  0  0  0  0  0  0
   -0.7345   -3.4087   -0.9340 H   0  0  0  0  0  0  0  0  0  0  0  0
   -1.7265   -3.3327    0.5291 H   0  0  0  0  0  0  0  0  0  0  0  0
   -2.2418   -2.4821   -0.9284 H   0  0  0  0  0  0  0  0  0  0  0  0
    1.4572   -0.2020   -2.3501 C   0  0  0  0  0  0  0  0  0  0  0  0
    1.4572   -0.2020   -0.8190 C   0  0  0  0  0  0  0  0  0  0  0  0
    1.4572    1.1862   -0.2723 C   0  0  0  0  0  0  0  0  0  0  0  0
    0.3376    1.8419    0.6752 S   0  0  0  0  0  0  0  0  0  0  0  0
    2.3124    0.3482   -2.7472 H   0  0  0  0  0  0  0  0  0  0  0  0
    1.5080   -1.2229   -2.7287 H   0  0  0  0  0  0  0  0  0  0  0  0
    0.5477    0.2604   -2.7357 H   0  0  0  0  0  0  0  0  0  0  0  0
    0.4295   -0.8614   -0.3504 H   0  0  0  0  0  0  0  0  0  0  0  0
    2.3675   -0.6987   -0.4636 H   0  0  0  0  0  0  0  0  0  0  0  0
    2.3126    1.7914   -0.5827 H   0  0  0  0  0  0  0  0  0  0  0  0
  1  2  3  0
  1  5  1  0
  2  3  1  0
  3  4  1  0
  3  6  1  0
  4  7  1  0
  4  8  1  0
  4  9  1  0
 10 11  1  0
 10 14  1  0
 10 15  1  0
 10 16  1  0
 11 12  1  0
 11 17  1  0
 11 18  1  0
 12 13  2  0
 12 19  1  0
M  RAD  1   3   2
M  END
>  <reaction>  (11) 
rxn_2006

>  <mol_properties>  (11) 
{"1": {"label": "*4", "atom_type": "Ct"}, "2": {"label": "*3", "atom_type": "Cs"}, "10": {"label": "*1", "atom_type": "Cs"}, "11": {"label": "*0", "atom_type": "CS"}, "16": {"label": "*2", "atom_type": "H0"}}

>  <type>  (11) 
unop_7

>  <geom_source>  (11) 
Heuristics

$$$$

     RDKit          3D

 19 17  0  0  0  0  0  0  0  0999 V2000
   -0.3784   -3.6726    0.4311 C   0  0  0  0  0  0  0  0  0  0  0  0
   -0.6978   -2.5293    0.2726 C   0  0  0  0  0  0  0  0  0  0  0  0
   -1.0758   -1.1297    0.1046 C   0  0  0  0  0  3  0  0  0  0  0  0
   -0.6579   -0.2563    1.2890 C   0  0  0  0  0  0  0  0  0  0  0  0
   -0.0947   -4.6877    0.5717 H   0  0  0  0  0  0  0  0  0  0  0  0
   -2.1580   -1.0728   -0.0369 H   0  0  0  0  0  0  0  0  0  0  0  0
   -0.9597    0.7781    1.1207 H   0  0  0  0  0  0  0  0  0  0  0  0
   -1.1238   -0.6060    2.2105 H   0  0  0  0  0  0  0  0  0  0  0  0
    0.4232   -0.2824    1.4261 H   0  0  0  0  0  0  0  0  0  0  0  0
    0.9824    0.1909   -2.3651 C   0  0  0  0  0  0  0  0  0  0  0  0
    0.9824    0.1909   -0.8340 C   0  0  0  0  0  0  0  0  0  0  0  0
    0.9824    1.5791   -0.2873 C   0  0  0  0  0  0  0  0  0  0  0  0
   -0.1371    2.2348    0.6602 S   0  0  0  0  0  0  0  0  0  0  0  0
    1.8376    0.7411   -2.7622 H   0  0  0  0  0  0  0  0  0  0  0  0
    1.0332   -0.8300   -2.7437 H   0  0  0  0  0  0  0  0  0  0  0  0
    0.0729    0.6533   -2.7507 H   0  0  0  0  0  0  0  0  0  0  0  0
   -0.0453   -0.4685   -0.3653 H   0  0  0  0  0  0  0  0  0  0  0  0
    1.8927   -0.3058   -0.4786 H   0  0  0  0  0  0  0  0  0  0  0  0
    1.8378    2.1843   -0.5976 H   0  0  0  0  0  0  0  0  0  0  0  0
  1  2  3  0
  1  5  1  0
  2  3  1  0
  3  4  1  0
  3  6  1  0
  4  7  1  0
  4  8  1  0
  4  9  1  0
 10 11  1  0
 10 14  1  0
 10 15  1  0
 10 16  1  0
 11 12  1  0
 11 17  1  0
 11 18  1  0
 12 13  2  0
 12 19  1  0
M  RAD  1   3   2
M  END
>  <reaction>  (12) 
rxn_2006

>  <mol_properties>  (12) 
{"1": {"label": "*4", "atom_type": "Ct"}, "2": {"label": "*3", "atom_type": "Cs"}, "10": {"label": "*1", "atom_type": "Cs"}, "11": {"label": "*0", "atom_type": "CS"}, "16": {"label": "*2", "atom_type": "H0"}}

>  <type>  (12) 
unop_8

>  <geom_source>  (12) 
Heuristics

$$$$

     RDKit          3D

 19 17  0  0  0  0  0  0  0  0999 V2000
   -2.6318   -1.0994   -1.2349 C   0  0  0  0  0  0  0  0  0  0  0  0
   -1.7216   -1.1704   -0.4597 C   0  0  0  0  0  0  0  0  0  0  0  0
   -0.6190   -1.2841    0.4897 C   0  0  0  0  0  3  0  0  0  0  0  0
   -0.5098   -2.6793    1.1075 C   0  0  0  0  0  0  0  0  0  0  0  0
   -3.4399   -1.0363   -1.9231 H   0  0  0  0  0  0  0  0  0  0  0  0
   -0.7548   -0.5377    1.2764 H   0  0  0  0  0  0  0  0  0  0  0  0
    0.3249   -2.7178    1.8083 H   0  0  0  0  0  0  0  0  0  0  0  0
   -1.4231   -2.9369    1.6441 H   0  0  0  0  0  0  0  0  0  0  0  0
   -0.3476   -3.4320    0.3358 H   0  0  0  0  0  0  0  0  0  0  0  0
    1.4392    0.0365   -1.9800 C   0  0  0  0  0  0  0  0  0  0  0  0
    1.4392    0.0365   -0.4489 C   0  0  0  0  0  0  0  0  0  0  0  0
    1.4392    1.4247    0.0978 C   0  0  0  0  0  0  0  0  0  0  0  0
    0.3196    2.0804    1.0453 S   0  0  0  0  0  0  0  0  0  0  0  0
    2.2944    0.5867   -2.3771 H   0  0  0  0  0  0  0  0  0  0  0  0
    1.4900   -0.9844   -2.3586 H   0  0  0  0  0  0  0  0  0  0  0  0
    0.5297    0.4989   -2.3656 H   0  0  0  0  0  0  0  0  0  0  0  0
    0.4115   -0.6229    0.0198 H   0  0  0  0  0  0  0  0  0  0  0  0
    2.3495   -0.4602   -0.0935 H   0  0  0  0  0  0  0  0  0  0  0  0
    2.2946    2.0299   -0.2125 H   0  0  0  0  0  0  0  0  0  0  0  0
  1  2  3  0
  1  5  1  0
  2  3  1  0
  3  4  1  0
  3  6  1  0
  4  7  1  0
  4  8  1  0
  4  9  1  0
 10 11  1  0
 10 14  1  0
 10 15  1  0
 10 16  1  0
 11 12  1  0
 11 17  1  0
 11 18  1  0
 12 13  2  0
 12 19  1  0
M  RAD  1   3   2
M  END
>  <reaction>  (13) 
rxn_2006

>  <mol_properties>  (13) 
{"1": {"label": "*4", "atom_type": "Ct"}, "2": {"label": "*3", "atom_type": "Cs"}, "10": {"label": "*1", "atom_type": "Cs"}, "11": {"label": "*0", "atom_type": "CS"}, "16": {"label": "*2", "atom_type": "H0"}}

>  <type>  (13) 
unop_9

>  <geom_source>  (13) 
Heuristics

$$$$

     RDKit          3D

 19 17  0  0  0  0  0  0  0  0999 V2000
   -0.8855   -3.5666   -0.5813 C   0  0  0  0  0  0  0  0  0  0  0  0
   -0.9547   -2.4305   -0.2086 C   0  0  0  0  0  0  0  0  0  0  0  0
   -1.0242   -1.0530    0.2685 C   0  0  0  0  0  3  0  0  0  0  0  0
   -0.3146   -0.8532    1.6089 C   0  0  0  0  0  0  0  0  0  0  0  0
   -0.8241   -4.5753   -0.9121 H   0  0  0  0  0  0  0  0  0  0  0  0
   -2.0747   -0.7644    0.3562 H   0  0  0  0  0  0  0  0  0  0  0  0
   -0.3918    0.1875    1.9258 H   0  0  0  0  0  0  0  0  0  0  0  0
   -0.7600   -1.4825    2.3796 H   0  0  0  0  0  0  0  0  0  0  0  0
    0.7413   -1.1123    1.5297 H   0  0  0  0  0  0  0  0  0  0  0  0
    1.0340    0.2676   -2.2012 C   0  0  0  0  0  0  0  0  0  0  0  0
    1.0340    0.2676   -0.6701 C   0  0  0  0  0  0  0  0  0  0  0  0
    1.0340    1.6558   -0.1234 C   0  0  0  0  0  0  0  0  0  0  0  0
   -0.0855    2.3115    0.8241 S   0  0  0  0  0  0  0  0  0  0  0  0
    1.8892    0.8177   -2.5983 H   0  0  0  0  0  0  0  0  0  0  0  0
    1.0848   -0.7533   -2.5798 H   0  0  0  0  0  0  0  0  0  0  0  0
    0.1245    0.7300   -2.5868 H   0  0  0  0  0  0  0  0  0  0  0  0
    0.0063   -0.3918   -0.2014 H   0  0  0  0  0  0  0  0  0  0  0  0
    1.9443   -0.2291   -0.3147 H   0  0  0  0  0  0  0  0  0  0  0  0
    1.8894    2.2610   -0.4338 H   0  0  0  0  0  0  0  0  0  0  0  0
  1  2  3  0
  1  5  1  0
  2  3  1  0
  3  4  1  0
  3  6  1  0
  4  7  1  0
  4  8  1  0
  4  9  1  0
 10 11  1  0
 10 14  1  0
 10 15  1  0
 10 16  1  0
 11 12  1  0
 11 17  1  0
 11 18  1  0
 12 13  2  0
 12 19  1  0
M  RAD  1   3   2
M  END
>  <reaction>  (14) 
rxn_2006

>  <mol_properties>  (14) 
{"1": {"label": "*4", "atom_type": "Ct"}, "2": {"label": "*3", "atom_type": "Cs"}, "10": {"label": "*1", "atom_type": "Cs"}, "11": {"label": "*0", "atom_type": "CS"}, "16": {"label": "*2", "atom_type": "H0"}}

>  <type>  (14) 
unop_10

>  <geom_source>  (14) 
Heuristics

$$$$

     RDKit          3D

 19 17  0  0  0  0  0  0  0  0999 V2000
   -1.3850   -0.4617    2.3621 C   0  0  0  0  0  0  0  0  0  0  0  0
   -1.0507   -0.9291    1.3113 C   0  0  0  0  0  0  0  0  0  0  0  0
   -0.6701   -1.5060    0.0258 C   0  0  0  0  0  3  0  0  0  0  0  0
   -1.8582   -2.1010   -0.7322 C   0  0  0  0  0  0  0  0  0  0  0  0
   -1.6818   -0.0468    3.2950 H   0  0  0  0  0  0  0  0  0  0  0  0
    0.0864   -2.2760    0.1968 H   0  0  0  0  0  0  0  0  0  0  0  0
   -1.5280   -2.5192   -1.6837 H   0  0  0  0  0  0  0  0  0  0  0  0
   -2.3291   -2.8942   -0.1514 H   0  0  0  0  0  0  0  0  0  0  0  0
   -2.6099   -1.3375   -0.9331 H   0  0  0  0  0  0  0  0  0  0  0  0
    1.3881   -0.1854   -2.4439 C   0  0  0  0  0  0  0  0  0  0  0  0
    1.3881   -0.1854   -0.9128 C   0  0  0  0  0  0  0  0  0  0  0  0
    1.3881    1.2028   -0.3661 C   0  0  0  0  0  0  0  0  0  0  0  0
    0.2686    1.8585    0.5814 S   0  0  0  0  0  0  0  0  0  0  0  0
    2.2433    0.3648   -2.8410 H   0  0  0  0  0  0  0  0  0  0  0  0
    1.4389   -1.2063   -2.8225 H   0  0  0  0  0  0  0  0  0  0  0  0
    0.4786    0.2770   -2.8295 H   0  0  0  0  0  0  0  0  0  0  0  0
    0.3604   -0.8448   -0.4441 H   0  0  0  0  0  0  0  0  0  0  0  0
    2.2985   -0.6821   -0.5574 H   0  0  0  0  0  0  0  0  0  0  0  0
    2.2436    1.8080   -0.6764 H   0  0  0  0  0  0  0  0  0  0  0  0
  1  2  3  0
  1  5  1  0
  2  3  1  0
  3  4  1  0
  3  6  1  0
  4  7  1  0
  4  8  1  0
  4  9  1  0
 10 11  1  0
 10 14  1  0
 10 15  1  0
 10 16  1  0
 11 12  1  0
 11 17  1  0
 11 18  1  0
 12 13  2  0
 12 19  1  0
M  RAD  1   3   2
M  END
>  <reaction>  (15) 
rxn_2006

>  <mol_properties>  (15) 
{"1": {"label": "*4", "atom_type": "Ct"}, "2": {"label": "*3", "atom_type": "Cs"}, "10": {"label": "*1", "atom_type": "Cs"}, "11": {"label": "*0", "atom_type": "CS"}, "16": {"label": "*2", "atom_type": "H0"}}

>  <type>  (15) 
unop_11

>  <geom_source>  (15) 
Heuristics

$$$$

     RDKit          3D

 19 17  0  0  0  0  0  0  0  0999 V2000
   -2.1797   -2.0810   -1.5342 C   0  0  0  0  0  0  0  0  0  0  0  0
   -1.5380   -1.6460   -0.6213 C   0  0  0  0  0  0  0  0  0  0  0  0
   -0.7528   -1.1422    0.5010 C   0  0  0  0  0  3  0  0  0  0  0  0
   -0.2763   -2.2538    1.4378 C   0  0  0  0  0  0  0  0  0  0  0  0
   -2.7494   -2.4672   -2.3447 H   0  0  0  0  0  0  0  0  0  0  0  0
   -1.3570   -0.4203    1.0563 H   0  0  0  0  0  0  0  0  0  0  0  0
    0.3045   -1.8325    2.2592 H   0  0  0  0  0  0  0  0  0  0  0  0
   -1.1241   -2.7957    1.8571 H   0  0  0  0  0  0  0  0  0  0  0  0
    0.3501   -2.9679    0.9030 H   0  0  0  0  0  0  0  0  0  0  0  0
    1.3054    0.1784   -1.9687 C   0  0  0  0  0  0  0  0  0  0  0  0
    1.3054    0.1784   -0.4376 C   0  0  0  0  0  0  0  0  0  0  0  0
    1.3054    1.5665    0.1091 C   0  0  0  0  0  0  0  0  0  0  0  0
    0.1859    2.2222    1.0566 S   0  0  0  0  0  0  0  0  0  0  0  0
    2.1606    0.7285   -2.3658 H   0  0  0  0  0  0  0  0  0  0  0  0
    1.3563   -0.8426   -2.3473 H   0  0  0  0  0  0  0  0  0  0  0  0
    0.3959    0.6407   -2.3543 H   0  0  0  0  0  0  0  0  0  0  0  0
    0.2778   -0.4810    0.0311 H   0  0  0  0  0  0  0  0  0  0  0  0
    2.2158   -0.3183   -0.0822 H   0  0  0  0  0  0  0  0  0  0  0  0
    2.1609    2.1718   -0.2012 H   0  0  0  0  0  0  0  0  0  0  0  0
  1  2  3  0
  1  5  1  0
  2  3  1  0
  3  4  1  0
  3  6  1  0
  4  7  1  0
  4  8  1  0
  4  9  1  0
 10 11  1  0
 10 14  1  0
 10 15  1  0
 10 16  1  0
 11 12  1  0
 11 17  1  0
 11 18  1  0
 12 13  2  0
 12 19  1  0
M  RAD  1   3   2
M  END
>  <reaction>  (16) 
rxn_2006

>  <mol_properties>  (16) 
{"1": {"label": "*4", "atom_type": "Ct"}, "2": {"label": "*3", "atom_type": "Cs"}, "10": {"label": "*1", "atom_type": "Cs"}, "11": {"label": "*0", "atom_type": "CS"}, "16": {"label": "*2", "atom_type": "H0"}}

>  <type>  (16) 
unop_12

>  <geom_source>  (16) 
Heuristics

$$$$

     RDKit          3D

 19 17  0  0  0  0  0  0  0  0999 V2000
   -1.0625    0.7276    2.4587 S   0  0  0  0  0  1  0  0  0  0  0  0
    1.1836   -0.2128   -0.4155 C   0  0  0  0  0  0  0  0  0  0  0  0
    2.2010   -1.0531    0.3441 C   0  0  0  0  0  0  0  0  0  0  0  0
   -2.1281    0.0212   -0.9693 C   0  0  0  0  0  0  0  0  0  0  0  0
   -1.3567   -0.4732    0.2463 C   0  0  0  0  0  0  0  0  0  0  0  0
   -1.9260    0.0903    1.5083 C   0  0  0  0  0  0  0  0  0  0  0  0
    1.6374    1.1784   -0.5184 C   0  0  0  0  0  0  0  0  0  0  0  0
    2.0093    2.3220   -0.6033 C   0  0  0  0  0  0  0  0  0  0  0  0
    1.0447   -0.6269   -1.4365 H   0  0  0  0  0  0  0  0  0  0  0  0
    0.0001   -0.2452    0.2355 H   0  0  0  0  0  0  0  0  0  0  0  0
    1.8366   -2.0994    0.4123 H   0  0  0  0  0  0  0  0  0  0  0  0
    2.3353   -0.6569    1.3734 H   0  0  0  0  0  0  0  0  0  0  0  0
    3.1789   -1.0495   -0.1838 H   0  0  0  0  0  0  0  0  0  0  0  0
   -2.0862    1.1298   -1.0226 H   0  0  0  0  0  0  0  0  0  0  0  0
   -1.6690   -0.3961   -1.8894 H   0  0  0  0  0  0  0  0  0  0  0  0
   -3.1881   -0.3076   -0.9155 H   0  0  0  0  0  0  0  0  0  0  0  0
   -1.3815   -1.5831    0.2878 H   0  0  0  0  0  0  0  0  0  0  0  0
   -2.9647   -0.0916    1.7656 H   0  0  0  0  0  0  0  0  0  0  0  0
    2.3359    3.3259   -0.6777 H   0  0  0  0  0  0  0  0  0  0  0  0
  1  6  1  0
  2  3  1  0
  2  7  1  0
  2  9  1  0
  2 10  1  0
  3 11  1  0
  3 12  1  0
  3 13  1  0
  4  5  1  0
  4 14  1  0
  4 15  1  0
  4 16  1  0
  5  6  2  3
  5 17  1  0
  6 18  1  0
  7  8  3  0
  8 19  1  0
M  RAD  1   1   2
M  END
>  <reaction>  (17) 
rxn_2006

>  <mol_properties>  (17) 
{"1": {"label": "*4", "atom_type": "Ct"}, "2": {"label": "*3", "atom_type": "Cs"}, "10": {"label": "*1", "atom_type": "Cs"}, "11": {"label": "*0", "atom_type": "CS"}, "16": {"label": "*2", "atom_type": "H0"}}

>  <type>  (17) 
unop_13

>  <geom_source>  (17) 
AutoTST

$$$$
