
     RDKit          3D

 12 11  0  0  0  0  0  0  0  0999 V2000
    1.2394   -0.3763   -0.3020 C   0  0  0  0  0  0  0  0  0  0  0  0
    0.1007    0.3024    0.4464 C   0  0  0  0  0  0  0  0  0  0  0  0
   -0.1187    2.0399   -0.0725 S   0  0  0  0  0  0  0  0  0  0  0  0
   -1.1974   -0.4877    0.3552 C   0  0  0  0  0  0  0  0  0  0  0  0
    2.1681    0.1850   -0.2048 H   0  0  0  0  0  0  0  0  0  0  0  0
    1.0030   -0.4604   -1.3656 H   0  0  0  0  0  0  0  0  0  0  0  0
    1.3993   -1.3856    0.0859 H   0  0  0  0  0  0  0  0  0  0  0  0
    0.3797    0.4050    1.4982 H   0  0  0  0  0  0  0  0  0  0  0  0
   -0.4500    1.7774   -1.3452 H   0  0  0  0  0  0  0  0  0  0  0  0
   -1.0545   -1.4977    0.7478 H   0  0  0  0  0  0  0  0  0  0  0  0
   -1.5206   -0.5758   -0.6849 H   0  0  0  0  0  0  0  0  0  0  0  0
   -1.9957   -0.0054    0.9183 H   0  0  0  0  0  0  0  0  0  0  0  0
  1  2  1  0
  1  5  1  0
  1  6  1  0
  1  7  1  0
  2  4  1  0
  2  3  1  0
  2  8  1  0
  3  9  1  0
  4 10  1  0
  4 11  1  0
  4 12  1  0
M  END
>  <reaction>  (1) 
rxn_1931

>  <mol_properties>  (1) 
{"1": {"label": "donator", "atom_type": "Cs"}, "7": {"label": "d_hydrogen", "atom_type": "H0"}}

>  <type>  (1) 
r1h

$$$$

     RDKit          3D

  8  7  0  0  0  0  0  0  0  0999 V2000
   -1.0607    0.1793   -0.1423 C   0  0  0  0  0  0  0  0  0  0  0  0
    0.2796    0.0327    0.4820 C   0  0  0  0  0  3  0  0  0  0  0  0
    0.8817   -1.4663    1.0791 S   0  0  0  0  0  0  0  0  0  0  0  0
   -1.3043    1.2328   -0.2850 H   0  0  0  0  0  0  0  0  0  0  0  0
   -1.8444   -0.2641    0.4799 H   0  0  0  0  0  0  0  0  0  0  0  0
   -1.1164   -0.3100   -1.1237 H   0  0  0  0  0  0  0  0  0  0  0  0
    1.0449    0.7826    0.3391 H   0  0  0  0  0  0  0  0  0  0  0  0
   -0.2993   -2.0726    1.2718 H   0  0  0  0  0  0  0  0  0  0  0  0
  1  2  1  0
  1  4  1  0
  1  5  1  0
  1  6  1  0
  2  3  1  0
  2  7  1  0
  3  8  1  0
M  RAD  1   2   2
M  END
>  <reaction>  (2) 
rxn_1931

>  <mol_properties>  (2) 
{"1": {"label": "acceptor", "atom_type": "Cs"}}

>  <type>  (2) 
r2

$$$$

     RDKit          3D

  9  8  0  0  0  0  0  0  0  0999 V2000
   -0.8818   -0.3578    0.1297 C   0  0  0  0  0  0  0  0  0  0  0  0
    0.6153   -0.3021   -0.1188 C   0  0  0  0  0  0  0  0  0  0  0  0
    1.5354   -1.7170    0.5545 S   0  0  0  0  0  0  0  0  0  0  0  0
   -1.1018   -0.3317    1.1984 H   0  0  0  0  0  0  0  0  0  0  0  0
   -1.3114   -1.2723   -0.2799 H   0  0  0  0  0  0  0  0  0  0  0  0
   -1.3767    0.4976   -0.3363 H   0  0  0  0  0  0  0  0  0  0  0  0
    1.0467    0.6194    0.2718 H   0  0  0  0  0  0  0  0  0  0  0  0
    0.8295   -0.3275   -1.1882 H   0  0  0  0  0  0  0  0  0  0  0  0
    1.2306   -1.5077    1.8423 H   0  0  0  0  0  0  0  0  0  0  0  0
  1  2  1  0
  1  4  1  0
  1  5  1  0
  1  6  1  0
  2  3  1  0
  2  7  1  0
  2  8  1  0
  3  9  1  0
M  END
>  <reaction>  (3) 
rxn_1931

>  <mol_properties>  (3) 
{"1": {"label": "acceptor", "atom_type": "Cs"}, "8": {"label": "a_hydrogen", "atom_type": "H0"}}

>  <type>  (3) 
r2h

$$$$

     RDKit          3D

 20 18  0  0  0  0  0  0  0  0999 V2000
   -1.1933   -0.4605    1.8386 C   0  0  0  0  0  0  0  0  0  0  0  0
   -1.2751   -0.4042    0.3362 C   0  0  0  0  0  3  0  0  0  0  0  0
   -1.2519   -1.9501   -0.5404 S   0  0  0  0  0  0  0  0  0  0  0  0
   -1.2255    0.5477    2.2569 H   0  0  0  0  0  0  0  0  0  0  0  0
   -0.2558   -0.9251    2.1540 H   0  0  0  0  0  0  0  0  0  0  0  0
   -2.0167   -1.0367    2.2696 H   0  0  0  0  0  0  0  0  0  0  0  0
   -2.1045    0.1864   -0.0505 H   0  0  0  0  0  0  0  0  0  0  0  0
   -0.1821   -2.4648    0.0839 H   0  0  0  0  0  0  0  0  0  0  0  0
    0.6997    1.3159   -1.8431 C   0  0  0  0  0  0  0  0  0  0  0  0
    0.9468    0.9130   -0.4110 C   0  0  0  0  0  0  0  0  0  0  0  0
    2.2667   -0.2759   -0.1740 S   0  0  0  0  0  0  0  0  0  0  0  0
    1.0887    2.0606    0.5606 C   0  0  0  0  0  0  0  0  0  0  0  0
    0.4743    0.4472   -2.4645 H   0  0  0  0  0  0  0  0  0  0  0  0
    1.5689    1.8261   -2.2695 H   0  0  0  0  0  0  0  0  0  0  0  0
   -0.1538    1.9967   -1.8950 H   0  0  0  0  0  0  0  0  0  0  0  0
   -0.1658    0.2779   -0.0540 H   0  0  0  0  0  0  0  0  0  0  0  0
    1.9391   -1.0854   -1.1902 H   0  0  0  0  0  0  0  0  0  0  0  0
    0.1927    2.6843    0.5264 H   0  0  0  0  0  0  0  0  0  0  0  0
    1.9460    2.6941    0.3108 H   0  0  0  0  0  0  0  0  0  0  0  0
    1.2167    1.7071    1.5852 H   0  0  0  0  0  0  0  0  0  0  0  0
  1  2  1  0
  1  4  1  0
  1  5  1  0
  1  6  1  0
  2  3  1  0
  2  7  1  0
  3  8  1  0
  9 10  1  0
  9 13  1  0
  9 14  1  0
  9 15  1  0
 10 12  1  0
 10 11  1  0
 10 16  1  0
 11 17  1  0
 12 18  1  0
 12 19  1  0
 12 20  1  0
M  RAD  1   2   2
M  END
>  <reaction>  (4) 
rxn_1931

>  <mol_properties>  (4) 
{"1": {"label": "*3", "atom_type": "Cs"}, "2": {"label": "*4", "atom_type": "S2s"}, "9": {"label": "*1", "atom_type": "Cs"}, "10": {"label": "*0", "atom_type": "S2s"}, "15": {"label": "*2", "atom_type": "H0"}}

>  <type>  (4) 
ts

$$$$

     RDKit          3D

 20 18  0  0  0  0  0  0  0  0999 V2000
   -0.7663   -1.6803    1.3094 C   0  0  0  0  0  0  0  0  0  0  0  0
   -1.1395   -0.4769    0.4615 C   0  0  0  0  0  0  0  0  0  0  0  0
   -2.8586   -0.4848   -0.1274 S   0  0  0  0  0  0  0  0  0  0  0  0
    0.2633   -1.5911    1.6639 H   0  0  0  0  0  0  0  0  0  0  0  0
   -0.8439   -2.6038    0.7328 H   0  0  0  0  0  0  0  0  0  0  0  0
   -1.4245   -1.7674    2.1742 H   0  0  0  0  0  0  0  0  0  0  0  0
   -1.0593    0.4432    1.0421 H   0  0  0  0  0  0  0  0  0  0  0  0
   -2.7732   -1.6066   -0.8550 H   0  0  0  0  0  0  0  0  0  0  0  0
    0.9931    0.7850   -1.9097 C   0  0  0  0  0  0  0  0  0  0  0  0
    0.9931    0.7850   -0.3873 C   0  0  0  0  0  3  0  0  0  0  0  0
    2.3483   -0.2313    0.2962 S   0  0  0  0  0  0  0  0  0  0  0  0
    0.9931    2.1950    0.1867 C   0  0  0  0  0  0  0  0  0  0  0  0
    0.9646   -0.2293   -2.3063 H   0  0  0  0  0  0  0  0  0  0  0  0
    1.8915    1.2747   -2.2932 H   0  0  0  0  0  0  0  0  0  0  0  0
    0.1262    1.3324   -2.2885 H   0  0  0  0  0  0  0  0  0  0  0  0
   -0.0748    0.1531    0.0377 H   0  0  0  0  0  0  0  0  0  0  0  0
    3.3542    0.5045   -0.1987 H   0  0  0  0  0  0  0  0  0  0  0  0
    0.1262    2.7523   -0.1775 H   0  0  0  0  0  0  0  0  0  0  0  0
    1.8915    2.7349   -0.1223 H   0  0  0  0  0  0  0  0  0  0  0  0
    0.9646    2.1800    1.2756 H   0  0  0  0  0  0  0  0  0  0  0  0
  1  2  1  0
  1  4  1  0
  1  5  1  0
  1  6  1  0
  2  3  1  0
  2  7  1  0
  2 16  1  0
  3  8  1  0
  9 10  1  0
  9 13  1  0
  9 14  1  0
  9 15  1  0
 10 12  1  0
 10 11  1  0
 11 17  1  0
 12 18  1  0
 12 19  1  0
 12 20  1  0
M  RAD  1  10   2
M  END
>  <reaction>  (5) 
rxn_1931

>  <mol_properties>  (5) 
{"1": {"label": "*3", "atom_type": "Cs"}, "2": {"label": "*4", "atom_type": "S2s"}, "9": {"label": "*1", "atom_type": "Cs"}, "10": {"label": "*0", "atom_type": "S2s"}, "15": {"label": "*2", "atom_type": "H0"}}

>  <type>  (5) 
unop_1

>  <geom_source>  (5) 
Heuristics

$$$$

     RDKit          3D

 20 18  0  0  0  0  0  0  0  0999 V2000
   -1.5576   -1.7864   -0.6372 C   0  0  0  0  0  0  0  0  0  0  0  0
   -1.1279   -0.7099    0.3439 C   0  0  0  0  0  0  0  0  0  0  0  0
   -2.5066    0.1807    1.1237 S   0  0  0  0  0  0  0  0  0  0  0  0
   -0.6844   -2.3087   -1.0353 H   0  0  0  0  0  0  0  0  0  0  0  0
   -2.1022   -1.3537   -1.4784 H   0  0  0  0  0  0  0  0  0  0  0  0
   -2.2083   -2.5164   -0.1551 H   0  0  0  0  0  0  0  0  0  0  0  0
   -0.5834   -1.1476    1.1819 H   0  0  0  0  0  0  0  0  0  0  0  0
   -3.0182    0.6994   -0.0007 H   0  0  0  0  0  0  0  0  0  0  0  0
    1.0047    0.5520   -2.0272 C   0  0  0  0  0  0  0  0  0  0  0  0
    1.0047    0.5520   -0.5048 C   0  0  0  0  0  3  0  0  0  0  0  0
    2.3599   -0.4643    0.1787 S   0  0  0  0  0  0  0  0  0  0  0  0
    1.0047    1.9620    0.0692 C   0  0  0  0  0  0  0  0  0  0  0  0
    0.9762   -0.4622   -2.4238 H   0  0  0  0  0  0  0  0  0  0  0  0
    1.9032    1.0418   -2.4107 H   0  0  0  0  0  0  0  0  0  0  0  0
    0.1378    1.0995   -2.4060 H   0  0  0  0  0  0  0  0  0  0  0  0
   -0.0631   -0.0799   -0.0798 H   0  0  0  0  0  0  0  0  0  0  0  0
    3.3658    0.2716   -0.3162 H   0  0  0  0  0  0  0  0  0  0  0  0
    0.1378    2.5193   -0.2950 H   0  0  0  0  0  0  0  0  0  0  0  0
    1.9032    2.5019   -0.2398 H   0  0  0  0  0  0  0  0  0  0  0  0
    0.9762    1.9470    1.1581 H   0  0  0  0  0  0  0  0  0  0  0  0
  1  2  1  0
  1  4  1  0
  1  5  1  0
  1  6  1  0
  2  3  1  0
  2  7  1  0
  2 16  1  0
  3  8  1  0
  9 10  1  0
  9 13  1  0
  9 14  1  0
  9 15  1  0
 10 12  1  0
 10 11  1  0
 11 17  1  0
 12 18  1  0
 12 19  1  0
 12 20  1  0
M  RAD  1  10   2
M  END
>  <reaction>  (6) 
rxn_1931

>  <mol_properties>  (6) 
{"1": {"label": "*3", "atom_type": "Cs"}, "2": {"label": "*4", "atom_type": "S2s"}, "9": {"label": "*1", "atom_type": "Cs"}, "10": {"label": "*0", "atom_type": "S2s"}, "15": {"label": "*2", "atom_type": "H0"}}

>  <type>  (6) 
unop_2

>  <geom_source>  (6) 
Heuristics

$$$$

     RDKit          3D

 20 18  0  0  0  0  0  0  0  0999 V2000
   -0.9782   -1.0185    1.8426 C   0  0  0  0  0  0  0  0  0  0  0  0
   -1.2321   -0.3465    0.5046 C   0  0  0  0  0  0  0  0  0  0  0  0
   -2.5119   -1.1522   -0.5028 S   0  0  0  0  0  0  0  0  0  0  0  0
   -0.2314   -0.4608    2.4126 H   0  0  0  0  0  0  0  0  0  0  0  0
   -0.6051   -2.0349    1.7048 H   0  0  0  0  0  0  0  0  0  0  0  0
   -1.8941   -1.0734    2.4316 H   0  0  0  0  0  0  0  0  0  0  0  0
   -1.6039    0.6691    0.6481 H   0  0  0  0  0  0  0  0  0  0  0  0
   -1.8885   -2.3300   -0.6412 H   0  0  0  0  0  0  0  0  0  0  0  0
    0.9005    0.9154   -1.8666 C   0  0  0  0  0  0  0  0  0  0  0  0
    0.9005    0.9154   -0.3442 C   0  0  0  0  0  3  0  0  0  0  0  0
    2.2557   -0.1009    0.3394 S   0  0  0  0  0  0  0  0  0  0  0  0
    0.9005    2.3254    0.2298 C   0  0  0  0  0  0  0  0  0  0  0  0
    0.8720   -0.0988   -2.2632 H   0  0  0  0  0  0  0  0  0  0  0  0
    1.7989    1.4052   -2.2501 H   0  0  0  0  0  0  0  0  0  0  0  0
    0.0336    1.4629   -2.2454 H   0  0  0  0  0  0  0  0  0  0  0  0
   -0.1674    0.2836    0.0808 H   0  0  0  0  0  0  0  0  0  0  0  0
    3.2616    0.6350   -0.1556 H   0  0  0  0  0  0  0  0  0  0  0  0
    0.0336    2.8827   -0.1344 H   0  0  0  0  0  0  0  0  0  0  0  0
    1.7989    2.8653   -0.0792 H   0  0  0  0  0  0  0  0  0  0  0  0
    0.8720    2.3104    1.3187 H   0  0  0  0  0  0  0  0  0  0  0  0
  1  2  1  0
  1  4  1  0
  1  5  1  0
  1  6  1  0
  2  3  1  0
  2  7  1  0
  2 16  1  0
  3  8  1  0
  9 10  1  0
  9 13  1  0
  9 14  1  0
  9 15  1  0
 10 12  1  0
 10 11  1  0
 11 17  1  0
 12 18  1  0
 12 19  1  0
 12 20  1  0
M  RAD  1  10   2
M  END
>  <reaction>  (7) 
rxn_1931

>  <mol_properties>  (7) 
{"1": {"label": "*3", "atom_type": "Cs"}, "2": {"label": "*4", "atom_type": "S2s"}, "9": {"label": "*1", "atom_type": "Cs"}, "10": {"label": "*0", "atom_type": "S2s"}, "15": {"label": "*2", "atom_type": "H0"}}

>  <type>  (7) 
unop_3

>  <geom_source>  (7) 
Heuristics

$$$$

     RDKit          3D

 20 18  0  0  0  0  0  0  0  0999 V2000
   -2.7693   -0.1640   -0.4081 C   0  0  0  0  0  0  0  0  0  0  0  0
   -1.4995   -0.8369    0.0830 C   0  0  0  0  0  0  0  0  0  0  0  0
   -0.9322   -0.2602    1.7101 S   0  0  0  0  0  0  0  0  0  0  0  0
   -3.0766   -0.5860   -1.3679 H   0  0  0  0  0  0  0  0  0  0  0  0
   -2.6153    0.9076   -0.5464 H   0  0  0  0  0  0  0  0  0  0  0  0
   -3.5826   -0.2975    0.3057 H   0  0  0  0  0  0  0  0  0  0  0  0
   -1.6587   -1.9076    0.2186 H   0  0  0  0  0  0  0  0  0  0  0  0
   -0.7235    1.0170    1.3632 H   0  0  0  0  0  0  0  0  0  0  0  0
    0.6332    0.4250   -2.2881 C   0  0  0  0  0  0  0  0  0  0  0  0
    0.6332    0.4250   -0.7658 C   0  0  0  0  0  3  0  0  0  0  0  0
    1.9883   -0.5913   -0.0822 S   0  0  0  0  0  0  0  0  0  0  0  0
    0.6332    1.8350   -0.1918 C   0  0  0  0  0  0  0  0  0  0  0  0
    0.6046   -0.5892   -2.6848 H   0  0  0  0  0  0  0  0  0  0  0  0
    1.5316    0.9148   -2.6717 H   0  0  0  0  0  0  0  0  0  0  0  0
   -0.2338    0.9725   -2.6670 H   0  0  0  0  0  0  0  0  0  0  0  0
   -0.4347   -0.2068   -0.3408 H   0  0  0  0  0  0  0  0  0  0  0  0
    2.9942    0.1446   -0.5771 H   0  0  0  0  0  0  0  0  0  0  0  0
   -0.2338    2.3923   -0.5560 H   0  0  0  0  0  0  0  0  0  0  0  0
    1.5316    2.3749   -0.5007 H   0  0  0  0  0  0  0  0  0  0  0  0
    0.6046    1.8200    0.8972 H   0  0  0  0  0  0  0  0  0  0  0  0
  1  2  1  0
  1  4  1  0
  1  5  1  0
  1  6  1  0
  2  3  1  0
  2  7  1  0
  2 16  1  0
  3  8  1  0
  9 10  1  0
  9 13  1  0
  9 14  1  0
  9 15  1  0
 10 12  1  0
 10 11  1  0
 11 17  1  0
 12 18  1  0
 12 19  1  0
 12 20  1  0
M  RAD  1  10   2
M  END
>  <reaction>  (8) 
rxn_1931

>  <mol_properties>  (8) 
{"1": {"label": "*3", "atom_type": "Cs"}, "2": {"label": "*4", "atom_type": "S2s"}, "9": {"label": "*1", "atom_type": "Cs"}, "10": {"label": "*0", "atom_type": "S2s"}, "15": {"label": "*2", "atom_type": "H0"}}

>  <type>  (8) 
unop_4

>  <geom_source>  (8) 
Heuristics

$$$$

     RDKit          3D

 20 18  0  0  0  0  0  0  0  0999 V2000
   -1.5421   -0.2531    1.9462 C   0  0  0  0  0  0  0  0  0  0  0  0
   -1.4886   -0.2214    0.4288 C   0  0  0  0  0  0  0  0  0  0  0  0
   -1.5559   -1.8601   -0.3535 S   0  0  0  0  0  0  0  0  0  0  0  0
   -1.5407    0.7629    2.3480 H   0  0  0  0  0  0  0  0  0  0  0  0
   -0.6776   -0.7777    2.3568 H   0  0  0  0  0  0  0  0  0  0  0  0
   -2.4411   -0.7624    2.2942 H   0  0  0  0  0  0  0  0  0  0  0  0
   -2.3542    0.3048    0.0237 H   0  0  0  0  0  0  0  0  0  0  0  0
   -0.4242   -2.3388    0.1805 H   0  0  0  0  0  0  0  0  0  0  0  0
    0.6441    1.0405   -1.9423 C   0  0  0  0  0  0  0  0  0  0  0  0
    0.6441    1.0405   -0.4200 C   0  0  0  0  0  3  0  0  0  0  0  0
    1.9992    0.0242    0.2636 S   0  0  0  0  0  0  0  0  0  0  0  0
    0.6441    2.4505    0.1540 C   0  0  0  0  0  0  0  0  0  0  0  0
    0.6156    0.0263   -2.3390 H   0  0  0  0  0  0  0  0  0  0  0  0
    1.5425    1.5303   -2.3259 H   0  0  0  0  0  0  0  0  0  0  0  0
   -0.2228    1.5879   -2.3212 H   0  0  0  0  0  0  0  0  0  0  0  0
   -0.4238    0.4086    0.0050 H   0  0  0  0  0  0  0  0  0  0  0  0
    3.0051    0.7600   -0.2314 H   0  0  0  0  0  0  0  0  0  0  0  0
   -0.2228    3.0078   -0.2102 H   0  0  0  0  0  0  0  0  0  0  0  0
    1.5425    2.9904   -0.1550 H   0  0  0  0  0  0  0  0  0  0  0  0
    0.6156    2.4355    1.2429 H   0  0  0  0  0  0  0  0  0  0  0  0
  1  2  1  0
  1  4  1  0
  1  5  1  0
  1  6  1  0
  2  3  1  0
  2  7  1  0
  2 16  1  0
  3  8  1  0
  9 10  1  0
  9 13  1  0
  9 14  1  0
  9 15  1  0
 10 12  1  0
 10 11  1  0
 11 17  1  0
 12 18  1  0
 12 19  1  0
 12 20  1  0
M  RAD  1  10   2
M  END
>  <reaction>  (9) 
rxn_1931

>  <mol_properties>  (9) 
{"1": {"label": "*3", "atom_type": "Cs"}, "2": {"label": "*4", "atom_type": "S2s"}, "9": {"label": "*1", "atom_type": "Cs"}, "10": {"label": "*0", "atom_type": "S2s"}, "15": {"label": "*2", "atom_type": "H0"}}

>  <type>  (9) 
unop_5

>  <geom_source>  (9) 
Heuristics

$$$$

     RDKit          3D

 20 18  0  0  0  0  0  0  0  0999 V2000
   -2.8141    0.2400    0.2324 C   0  0  0  0  0  0  0  0  0  0  0  0
   -1.6451   -0.7128    0.0540 C   0  0  0  0  0  0  0  0  0  0  0  0
   -0.5205   -0.7873    1.4793 S   0  0  0  0  0  0  0  0  0  0  0  0
   -3.4707    0.2040   -0.6402 H   0  0  0  0  0  0  0  0  0  0  0  0
   -2.4662    1.2680    0.3485 H   0  0  0  0  0  0  0  0  0  0  0  0
   -3.3975   -0.0194    1.1162 H   0  0  0  0  0  0  0  0  0  0  0  0
   -1.9984   -1.7384   -0.0626 H   0  0  0  0  0  0  0  0  0  0  0  0
   -0.1344    0.4952    1.4455 H   0  0  0  0  0  0  0  0  0  0  0  0
    0.4876    0.5491   -2.3171 C   0  0  0  0  0  0  0  0  0  0  0  0
    0.4876    0.5491   -0.7948 C   0  0  0  0  0  3  0  0  0  0  0  0
    1.8427   -0.4672   -0.1112 S   0  0  0  0  0  0  0  0  0  0  0  0
    0.4876    1.9591   -0.2208 C   0  0  0  0  0  0  0  0  0  0  0  0
    0.4590   -0.4652   -2.7138 H   0  0  0  0  0  0  0  0  0  0  0  0
    1.3860    1.0388   -2.7007 H   0  0  0  0  0  0  0  0  0  0  0  0
   -0.3794    1.0965   -2.6960 H   0  0  0  0  0  0  0  0  0  0  0  0
   -0.5803   -0.0828   -0.3698 H   0  0  0  0  0  0  0  0  0  0  0  0
    2.8486    0.2686   -0.6062 H   0  0  0  0  0  0  0  0  0  0  0  0
   -0.3794    2.5164   -0.5850 H   0  0  0  0  0  0  0  0  0  0  0  0
    1.3860    2.4990   -0.5298 H   0  0  0  0  0  0  0  0  0  0  0  0
    0.4590    1.9441    0.8681 H   0  0  0  0  0  0  0  0  0  0  0  0
  1  2  1  0
  1  4  1  0
  1  5  1  0
  1  6  1  0
  2  3  1  0
  2  7  1  0
  2 16  1  0
  3  8  1  0
  9 10  1  0
  9 13  1  0
  9 14  1  0
  9 15  1  0
 10 12  1  0
 10 11  1  0
 11 17  1  0
 12 18  1  0
 12 19  1  0
 12 20  1  0
M  RAD  1  10   2
M  END
>  <reaction>  (10) 
rxn_1931

>  <mol_properties>  (10) 
{"1": {"label": "*3", "atom_type": "Cs"}, "2": {"label": "*4", "atom_type": "S2s"}, "9": {"label": "*1", "atom_type": "Cs"}, "10": {"label": "*0", "atom_type": "S2s"}, "15": {"label": "*2", "atom_type": "H0"}}

>  <type>  (10) 
unop_6

>  <geom_source>  (10) 
Heuristics

$$$$

     RDKit          3D

 20 18  0  0  0  0  0  0  0  0999 V2000
   -2.6107    0.3706    0.9474 C   0  0  0  0  0  0  0  0  0  0  0  0
   -1.7356   -0.5358    0.0995 C   0  0  0  0  0  0  0  0  0  0  0  0
   -0.3764   -1.3249    1.0116 S   0  0  0  0  0  0  0  0  0  0  0  0
   -3.4296    0.7769    0.3490 H   0  0  0  0  0  0  0  0  0  0  0  0
   -2.0359    1.2097    1.3435 H   0  0  0  0  0  0  0  0  0  0  0  0
   -3.0349   -0.1744    1.7910 H   0  0  0  0  0  0  0  0  0  0  0  0
   -2.3150   -1.3719   -0.2945 H   0  0  0  0  0  0  0  0  0  0  0  0
    0.2570   -0.1974    1.3619 H   0  0  0  0  0  0  0  0  0  0  0  0
    0.3971    0.7261   -2.2716 C   0  0  0  0  0  0  0  0  0  0  0  0
    0.3971    0.7261   -0.7492 C   0  0  0  0  0  3  0  0  0  0  0  0
    1.7522   -0.2901   -0.0657 S   0  0  0  0  0  0  0  0  0  0  0  0
    0.3971    2.1361   -0.1753 C   0  0  0  0  0  0  0  0  0  0  0  0
    0.3686   -0.2881   -2.6683 H   0  0  0  0  0  0  0  0  0  0  0  0
    1.2955    1.2159   -2.6552 H   0  0  0  0  0  0  0  0  0  0  0  0
   -0.4698    1.2736   -2.6504 H   0  0  0  0  0  0  0  0  0  0  0  0
   -0.6708    0.0943   -0.3242 H   0  0  0  0  0  0  0  0  0  0  0  0
    2.7581    0.4457   -0.5606 H   0  0  0  0  0  0  0  0  0  0  0  0
   -0.4698    2.6934   -0.5394 H   0  0  0  0  0  0  0  0  0  0  0  0
    1.2955    2.6760   -0.4842 H   0  0  0  0  0  0  0  0  0  0  0  0
    0.3686    2.1211    0.9137 H   0  0  0  0  0  0  0  0  0  0  0  0
  1  2  1  0
  1  4  1  0
  1  5  1  0
  1  6  1  0
  2  3  1  0
  2  7  1  0
  2 16  1  0
  3  8  1  0
  9 10  1  0
  9 13  1  0
  9 14  1  0
  9 15  1  0
 10 12  1  0
 10 11  1  0
 11 17  1  0
 12 18  1  0
 12 19  1  0
 12 20  1  0
M  RAD  1  10   2
M  END
>  <reaction>  (11) 
rxn_1931

>  <mol_properties>  (11) 
{"1": {"label": "*3", "atom_type": "Cs"}, "2": {"label": "*4", "atom_type": "S2s"}, "9": {"label": "*1", "atom_type": "Cs"}, "10": {"label": "*0", "atom_type": "S2s"}, "15": {"label": "*2", "atom_type": "H0"}}

>  <type>  (11) 
unop_7

>  <geom_source>  (11) 
Heuristics

$$$$

     RDKit          3D

 20 18  0  0  0  0  0  0  0  0999 V2000
   -0.8440   -2.0342    0.5906 C   0  0  0  0  0  0  0  0  0  0  0  0
   -1.1165   -0.5509    0.4122 C   0  0  0  0  0  0  0  0  0  0  0  0
   -2.8806   -0.1195    0.3519 S   0  0  0  0  0  0  0  0  0  0  0  0
    0.2307   -2.2177    0.6613 H   0  0  0  0  0  0  0  0  0  0  0  0
   -1.2273   -2.6065   -0.2561 H   0  0  0  0  0  0  0  0  0  0  0  0
   -1.3205   -2.4123    1.4954 H   0  0  0  0  0  0  0  0  0  0  0  0
   -0.7306    0.0163    1.2605 H   0  0  0  0  0  0  0  0  0  0  0  0
   -3.1796   -0.8223   -0.7489 H   0  0  0  0  0  0  0  0  0  0  0  0
    1.0162    0.7110   -1.9589 C   0  0  0  0  0  0  0  0  0  0  0  0
    1.0162    0.7110   -0.4365 C   0  0  0  0  0  3  0  0  0  0  0  0
    2.3713   -0.3053    0.2470 S   0  0  0  0  0  0  0  0  0  0  0  0
    1.0162    2.1210    0.1374 C   0  0  0  0  0  0  0  0  0  0  0  0
    0.9876   -0.3032   -2.3556 H   0  0  0  0  0  0  0  0  0  0  0  0
    1.9146    1.2008   -2.3425 H   0  0  0  0  0  0  0  0  0  0  0  0
    0.1492    1.2585   -2.3377 H   0  0  0  0  0  0  0  0  0  0  0  0
   -0.0517    0.0791   -0.0115 H   0  0  0  0  0  0  0  0  0  0  0  0
    3.3772    0.4305   -0.2479 H   0  0  0  0  0  0  0  0  0  0  0  0
    0.1492    2.6783   -0.2268 H   0  0  0  0  0  0  0  0  0  0  0  0
    1.9146    2.6609   -0.1715 H   0  0  0  0  0  0  0  0  0  0  0  0
    0.9876    2.1060    1.2264 H   0  0  0  0  0  0  0  0  0  0  0  0
  1  2  1  0
  1  4  1  0
  1  5  1  0
  1  6  1  0
  2  3  1  0
  2  7  1  0
  2 16  1  0
  3  8  1  0
  9 10  1  0
  9 13  1  0
  9 14  1  0
  9 15  1  0
 10 12  1  0
 10 11  1  0
 11 17  1  0
 12 18  1  0
 12 19  1  0
 12 20  1  0
M  RAD  1  10   2
M  END
>  <reaction>  (12) 
rxn_1931

>  <mol_properties>  (12) 
{"1": {"label": "*3", "atom_type": "Cs"}, "2": {"label": "*4", "atom_type": "S2s"}, "9": {"label": "*1", "atom_type": "Cs"}, "10": {"label": "*0", "atom_type": "S2s"}, "15": {"label": "*2", "atom_type": "H0"}}

>  <type>  (12) 
unop_8

>  <geom_source>  (12) 
Heuristics

$$$$

     RDKit          3D

 20 18  0  0  0  0  0  0  0  0999 V2000
   -2.4845   -0.7359   -0.8124 C   0  0  0  0  0  0  0  0  0  0  0  0
   -1.3341   -0.8775    0.1688 C   0  0  0  0  0  0  0  0  0  0  0  0
   -1.5120    0.1235    1.6749 S   0  0  0  0  0  0  0  0  0  0  0  0
   -2.3347   -1.3940   -1.6716 H   0  0  0  0  0  0  0  0  0  0  0  0
   -2.5585    0.2881   -1.1828 H   0  0  0  0  0  0  0  0  0  0  0  0
   -3.4334   -0.9922   -0.3406 H   0  0  0  0  0  0  0  0  0  0  0  0
   -1.2641   -1.9028    0.5350 H   0  0  0  0  0  0  0  0  0  0  0  0
   -1.5155    1.3200    1.0722 H   0  0  0  0  0  0  0  0  0  0  0  0
    0.7986    0.3844   -2.2023 C   0  0  0  0  0  0  0  0  0  0  0  0
    0.7986    0.3844   -0.6800 C   0  0  0  0  0  3  0  0  0  0  0  0
    2.1537   -0.6318    0.0036 S   0  0  0  0  0  0  0  0  0  0  0  0
    0.7986    1.7944   -0.1060 C   0  0  0  0  0  0  0  0  0  0  0  0
    0.7701   -0.6298   -2.5990 H   0  0  0  0  0  0  0  0  0  0  0  0
    1.6970    0.8742   -2.5859 H   0  0  0  0  0  0  0  0  0  0  0  0
   -0.0683    0.9319   -2.5812 H   0  0  0  0  0  0  0  0  0  0  0  0
   -0.2693   -0.2474   -0.2550 H   0  0  0  0  0  0  0  0  0  0  0  0
    3.1596    0.1040   -0.4913 H   0  0  0  0  0  0  0  0  0  0  0  0
   -0.0683    2.3517   -0.4702 H   0  0  0  0  0  0  0  0  0  0  0  0
    1.6970    2.3344   -0.4150 H   0  0  0  0  0  0  0  0  0  0  0  0
    0.7701    1.7794    0.9830 H   0  0  0  0  0  0  0  0  0  0  0  0
  1  2  1  0
  1  4  1  0
  1  5  1  0
  1  6  1  0
  2  3  1  0
  2  7  1  0
  2 16  1  0
  3  8  1  0
  9 10  1  0
  9 13  1  0
  9 14  1  0
  9 15  1  0
 10 12  1  0
 10 11  1  0
 11 17  1  0
 12 18  1  0
 12 19  1  0
 12 20  1  0
M  RAD  1  10   2
M  END
>  <reaction>  (13) 
rxn_1931

>  <mol_properties>  (13) 
{"1": {"label": "*3", "atom_type": "Cs"}, "2": {"label": "*4", "atom_type": "S2s"}, "9": {"label": "*1", "atom_type": "Cs"}, "10": {"label": "*0", "atom_type": "S2s"}, "15": {"label": "*2", "atom_type": "H0"}}

>  <type>  (13) 
unop_9

>  <geom_source>  (13) 
Heuristics

$$$$

     RDKit          3D

 20 18  0  0  0  0  0  0  0  0999 V2000
   -1.1337   -2.0531   -0.1110 C   0  0  0  0  0  0  0  0  0  0  0  0
   -1.1123   -0.6161    0.3801 C   0  0  0  0  0  0  0  0  0  0  0  0
   -2.7517    0.0607    0.7751 S   0  0  0  0  0  0  0  0  0  0  0  0
   -0.1163   -2.4095   -0.2885 H   0  0  0  0  0  0  0  0  0  0  0  0
   -1.6873   -2.1376   -1.0478 H   0  0  0  0  0  0  0  0  0  0  0  0
   -1.6080   -2.7081    0.6202 H   0  0  0  0  0  0  0  0  0  0  0  0
   -0.5571   -0.5372    1.3159 H   0  0  0  0  0  0  0  0  0  0  0  0
   -3.2684   -0.0428   -0.4567 H   0  0  0  0  0  0  0  0  0  0  0  0
    1.0204    0.6458   -1.9910 C   0  0  0  0  0  0  0  0  0  0  0  0
    1.0204    0.6458   -0.4686 C   0  0  0  0  0  3  0  0  0  0  0  0
    2.3755   -0.3705    0.2149 S   0  0  0  0  0  0  0  0  0  0  0  0
    1.0204    2.0558    0.1053 C   0  0  0  0  0  0  0  0  0  0  0  0
    0.9919   -0.3685   -2.3877 H   0  0  0  0  0  0  0  0  0  0  0  0
    1.9188    1.1355   -2.3746 H   0  0  0  0  0  0  0  0  0  0  0  0
    0.1535    1.1932   -2.3698 H   0  0  0  0  0  0  0  0  0  0  0  0
   -0.0475    0.0139   -0.0436 H   0  0  0  0  0  0  0  0  0  0  0  0
    3.3814    0.3653   -0.2800 H   0  0  0  0  0  0  0  0  0  0  0  0
    0.1535    2.6131   -0.2588 H   0  0  0  0  0  0  0  0  0  0  0  0
    1.9188    2.5957   -0.2036 H   0  0  0  0  0  0  0  0  0  0  0  0
    0.9919    2.0408    1.1943 H   0  0  0  0  0  0  0  0  0  0  0  0
  1  2  1  0
  1  4  1  0
  1  5  1  0
  1  6  1  0
  2  3  1  0
  2  7  1  0
  2 16  1  0
  3  8  1  0
  9 10  1  0
  9 13  1  0
  9 14  1  0
  9 15  1  0
 10 12  1  0
 10 11  1  0
 11 17  1  0
 12 18  1  0
 12 19  1  0
 12 20  1  0
M  RAD  1  10   2
M  END
>  <reaction>  (14) 
rxn_1931

>  <mol_properties>  (14) 
{"1": {"label": "*3", "atom_type": "Cs"}, "2": {"label": "*4", "atom_type": "S2s"}, "9": {"label": "*1", "atom_type": "Cs"}, "10": {"label": "*0", "atom_type": "S2s"}, "15": {"label": "*2", "atom_type": "H0"}}

>  <type>  (14) 
unop_10

>  <geom_source>  (14) 
Heuristics

$$$$

     RDKit          3D

 20 18  0  0  0  0  0  0  0  0999 V2000
   -2.1828    0.2126    1.5694 C   0  0  0  0  0  0  0  0  0  0  0  0
   -1.7160   -0.3334    0.2314 C   0  0  0  0  0  0  0  0  0  0  0  0
   -0.6364   -1.7896    0.3568 S   0  0  0  0  0  0  0  0  0  0  0  0
   -2.8595    1.0574    1.4202 H   0  0  0  0  0  0  0  0  0  0  0  0
   -1.3376    0.5608    2.1657 H   0  0  0  0  0  0  0  0  0  0  0  0
   -2.7058   -0.5535    2.1424 H   0  0  0  0  0  0  0  0  0  0  0  0
   -2.5646   -0.6790   -0.3608 H   0  0  0  0  0  0  0  0  0  0  0  0
    0.3563   -1.1951    1.0320 H   0  0  0  0  0  0  0  0  0  0  0  0
    0.4167    0.9285   -2.1397 C   0  0  0  0  0  0  0  0  0  0  0  0
    0.4167    0.9285   -0.6174 C   0  0  0  0  0  3  0  0  0  0  0  0
    1.7718   -0.0878    0.0662 S   0  0  0  0  0  0  0  0  0  0  0  0
    0.4167    2.3385   -0.0434 C   0  0  0  0  0  0  0  0  0  0  0  0
    0.3881   -0.0857   -2.5364 H   0  0  0  0  0  0  0  0  0  0  0  0
    1.3151    1.4182   -2.5233 H   0  0  0  0  0  0  0  0  0  0  0  0
   -0.4503    1.4759   -2.5186 H   0  0  0  0  0  0  0  0  0  0  0  0
   -0.6512    0.2966   -0.1924 H   0  0  0  0  0  0  0  0  0  0  0  0
    2.7777    0.6480   -0.4287 H   0  0  0  0  0  0  0  0  0  0  0  0
   -0.4503    2.8958   -0.4076 H   0  0  0  0  0  0  0  0  0  0  0  0
    1.3151    2.8784   -0.3524 H   0  0  0  0  0  0  0  0  0  0  0  0
    0.3881    2.3235    1.0456 H   0  0  0  0  0  0  0  0  0  0  0  0
  1  2  1  0
  1  4  1  0
  1  5  1  0
  1  6  1  0
  2  3  1  0
  2  7  1  0
  2 16  1  0
  3  8  1  0
  9 10  1  0
  9 13  1  0
  9 14  1  0
  9 15  1  0
 10 12  1  0
 10 11  1  0
 11 17  1  0
 12 18  1  0
 12 19  1  0
 12 20  1  0
M  RAD  1  10   2
M  END
>  <reaction>  (15) 
rxn_1931

>  <mol_properties>  (15) 
{"1": {"label": "*3", "atom_type": "Cs"}, "2": {"label": "*4", "atom_type": "S2s"}, "9": {"label": "*1", "atom_type": "Cs"}, "10": {"label": "*0", "atom_type": "S2s"}, "15": {"label": "*2", "atom_type": "H0"}}

>  <type>  (15) 
unop_11

>  <geom_source>  (15) 
Heuristics

$$$$

     RDKit          3D

 20 18  0  0  0  0  0  0  0  0999 V2000
   -2.0399   -1.3188   -0.8889 C   0  0  0  0  0  0  0  0  0  0  0  0
   -1.1969   -0.8200    0.2717 C   0  0  0  0  0  0  0  0  0  0  0  0
   -2.0917    0.2495    1.4368 S   0  0  0  0  0  0  0  0  0  0  0  0
   -1.4545   -1.9875   -1.5244 H   0  0  0  0  0  0  0  0  0  0  0  0
   -2.3865   -0.4876   -1.5057 H   0  0  0  0  0  0  0  0  0  0  0  0
   -2.9160   -1.8598   -0.5305 H   0  0  0  0  0  0  0  0  0  0  0  0
   -0.8524   -1.6545    0.8841 H   0  0  0  0  0  0  0  0  0  0  0  0
   -2.3802    1.2271    0.5673 H   0  0  0  0  0  0  0  0  0  0  0  0
    0.9357    0.4420   -2.0995 C   0  0  0  0  0  0  0  0  0  0  0  0
    0.9357    0.4420   -0.5771 C   0  0  0  0  0  3  0  0  0  0  0  0
    2.2909   -0.5743    0.1064 S   0  0  0  0  0  0  0  0  0  0  0  0
    0.9357    1.8519   -0.0031 C   0  0  0  0  0  0  0  0  0  0  0  0
    0.9072   -0.5723   -2.4961 H   0  0  0  0  0  0  0  0  0  0  0  0
    1.8342    0.9317   -2.4830 H   0  0  0  0  0  0  0  0  0  0  0  0
    0.0688    0.9894   -2.4783 H   0  0  0  0  0  0  0  0  0  0  0  0
   -0.1321   -0.1899   -0.1521 H   0  0  0  0  0  0  0  0  0  0  0  0
    3.2968    0.1615   -0.3885 H   0  0  0  0  0  0  0  0  0  0  0  0
    0.0688    2.4092   -0.3673 H   0  0  0  0  0  0  0  0  0  0  0  0
    1.8342    2.3919   -0.3121 H   0  0  0  0  0  0  0  0  0  0  0  0
    0.9072    1.8369    1.0858 H   0  0  0  0  0  0  0  0  0  0  0  0
  1  2  1  0
  1  4  1  0
  1  5  1  0
  1  6  1  0
  2  3  1  0
  2  7  1  0
  2 16  1  0
  3  8  1  0
  9 10  1  0
  9 13  1  0
  9 14  1  0
  9 15  1  0
 10 12  1  0
 10 11  1  0
 11 17  1  0
 12 18  1  0
 12 19  1  0
 12 20  1  0
M  RAD  1  10   2
M  END
>  <reaction>  (16) 
rxn_1931

>  <mol_properties>  (16) 
{"1": {"label": "*3", "atom_type": "Cs"}, "2": {"label": "*4", "atom_type": "S2s"}, "9": {"label": "*1", "atom_type": "Cs"}, "10": {"label": "*0", "atom_type": "S2s"}, "15": {"label": "*2", "atom_type": "H0"}}

>  <type>  (16) 
unop_12

>  <geom_source>  (16) 
Heuristics

$$$$

     RDKit          3D

 20 18  0  0  0  0  0  0  0  0999 V2000
    1.9447   -0.5759    1.8628 S   0  0  0  0  0  0  0  0  0  0  0  0
   -1.6939   -1.5641   -1.0318 S   0  0  0  0  0  0  0  0  0  0  0  0
    1.3950   -0.6418    0.1299 C   0  0  0  0  0  3  0  0  0  0  0  0
    2.4339   -0.0103   -0.7843 C   0  0  0  0  0  0  0  0  0  0  0  0
   -1.6945   -0.0003    1.2379 C   0  0  0  0  0  0  0  0  0  0  0  0
   -1.4797    1.1771   -0.9825 C   0  0  0  0  0  0  0  0  0  0  0  0
   -1.1160   -0.0642   -0.1736 C   0  0  0  0  0  0  0  0  0  0  0  0
    1.2420   -1.7028   -0.1597 H   0  0  0  0  0  0  0  0  0  0  0  0
    0.2135    0.0241    0.0056 H   0  0  0  0  0  0  0  0  0  0  0  0
    3.4021   -0.5468   -0.6928 H   0  0  0  0  0  0  0  0  0  0  0  0
    2.0866   -0.0721   -1.8367 H   0  0  0  0  0  0  0  0  0  0  0  0
    2.5774    1.0581   -0.5186 H   0  0  0  0  0  0  0  0  0  0  0  0
   -2.8045    0.0371    1.2039 H   0  0  0  0  0  0  0  0  0  0  0  0
   -1.3793   -0.8952    1.8141 H   0  0  0  0  0  0  0  0  0  0  0  0
   -1.3150    0.9015    1.7629 H   0  0  0  0  0  0  0  0  0  0  0  0
   -1.0905    2.0864   -0.4778 H   0  0  0  0  0  0  0  0  0  0  0  0
   -1.0187    1.1145   -1.9905 H   0  0  0  0  0  0  0  0  0  0  0  0
   -2.5821    1.2637   -1.0922 H   0  0  0  0  0  0  0  0  0  0  0  0
    1.8128    0.8243    1.9293 H   0  0  0  0  0  0  0  0  0  0  0  0
   -0.9335   -2.4134   -0.2059 H   0  0  0  0  0  0  0  0  0  0  0  0
  1  3  1  0
  1 19  1  0
  2  7  1  0
  2 20  1  0
  3  4  1  0
  3  8  1  0
  4 10  1  0
  4 11  1  0
  4 12  1  0
  5  7  1  0
  5 13  1  0
  5 14  1  0
  5 15  1  0
  6  7  1  0
  6 16  1  0
  6 17  1  0
  6 18  1  0
  7  9  1  0
M  RAD  1   3   2
M  END
>  <reaction>  (17) 
rxn_1931

>  <mol_properties>  (17) 
{"1": {"label": "*3", "atom_type": "Cs"}, "2": {"label": "*4", "atom_type": "S2s"}, "9": {"label": "*1", "atom_type": "Cs"}, "10": {"label": "*0", "atom_type": "S2s"}, "15": {"label": "*2", "atom_type": "H0"}}

>  <type>  (17) 
unop_13

>  <geom_source>  (17) 
AutoTST

$$$$
