
     RDKit          3D

  7  6  0  0  0  0  0  0  0  0999 V2000
    1.6964   -0.0938    0.0583 C   0  0  0  0  0  0  0  0  0  0  0  0
    0.5019   -0.0278    0.0173 C   0  0  0  0  0  0  0  0  0  0  0  0
   -0.9505    0.0525   -0.0327 C   0  0  0  0  0  0  0  0  0  0  0  0
    2.7574   -0.1524    0.0947 H   0  0  0  0  0  0  0  0  0  0  0  0
   -1.2692    0.9972   -0.4754 H   0  0  0  0  0  0  0  0  0  0  0  0
   -1.3749   -0.0147    0.9700 H   0  0  0  0  0  0  0  0  0  0  0  0
   -1.3610   -0.7611   -0.6323 H   0  0  0  0  0  0  0  0  0  0  0  0
  1  2  3  0
  1  4  1  0
  2  3  1  0
  3  5  1  0
  3  6  1  0
  3  7  1  0
M  END
>  <reaction>  (1) 
rxn_1248

>  <mol_properties>  (1) 
{"2": {"label": "donator", "atom_type": "Cs"}, "4": {"label": "d_hydrogen", "atom_type": "H0"}}

>  <type>  (1) 
r1h

$$$$

     RDKit          3D

  7  6  0  0  0  0  0  0  0  0999 V2000
   -2.0652    0.3855   -0.2963 S   0  0  0  0  0  0  0  0  0  0  0  0
   -0.7169   -0.5853    0.1792 C   0  0  0  0  0  3  0  0  0  0  0  0
    0.5987   -0.2168    0.0254 C   0  0  0  0  0  0  0  0  0  0  0  0
    1.7547    0.1211   -0.1163 C   0  0  0  0  0  0  0  0  0  0  0  0
   -1.3643    1.4227   -0.7731 H   0  0  0  0  0  0  0  0  0  0  0  0
   -0.9781   -1.5363    0.6220 H   0  0  0  0  0  0  0  0  0  0  0  0
    2.7711    0.4089   -0.2366 H   0  0  0  0  0  0  0  0  0  0  0  0
  1  2  1  0
  1  5  1  0
  2  3  1  0
  2  6  1  0
  3  4  3  0
  4  7  1  0
M  RAD  1   2   2
M  END
>  <reaction>  (2) 
rxn_1248

>  <mol_properties>  (2) 
{"1": {"label": "acceptor", "atom_type": "Cs"}}

>  <type>  (2) 
r2

$$$$

     RDKit          3D

  8  7  0  0  0  0  0  0  0  0999 V2000
   -0.7014    1.0753    1.5530 S   0  0  0  0  0  0  0  0  0  0  0  0
   -0.3105   -0.4583    0.6462 C   0  0  0  0  0  0  0  0  0  0  0  0
    0.0935   -0.2424   -0.7319 C   0  0  0  0  0  0  0  0  0  0  0  0
    0.4431   -0.0604   -1.8621 C   0  0  0  0  0  0  0  0  0  0  0  0
    0.4994    1.6466    1.3970 H   0  0  0  0  0  0  0  0  0  0  0  0
   -1.2277   -1.0477    0.6819 H   0  0  0  0  0  0  0  0  0  0  0  0
    0.4563   -1.0151    1.1841 H   0  0  0  0  0  0  0  0  0  0  0  0
    0.7474    0.1020   -2.8681 H   0  0  0  0  0  0  0  0  0  0  0  0
  1  2  1  0
  1  5  1  0
  2  3  1  0
  2  6  1  0
  2  7  1  0
  3  4  3  0
  4  8  1  0
M  END
>  <reaction>  (3) 
rxn_1248

>  <mol_properties>  (3) 
{"0": {"label": "a_hydrogen", "atom_type": "H0"}, "2": {"label": "acceptor", "atom_type": "Cs"}}

>  <type>  (3) 
r2h

$$$$

     RDKit          3D

 14 12  0  0  0  0  0  0  0  0999 V2000
    0.3293   -1.4221   -2.2232 C   0  0  0  0  0  0  0  0  0  0  0  0
   -0.1999   -1.6828   -1.1728 C   0  0  0  0  0  0  0  0  0  0  0  0
   -0.8061   -1.9046    0.0846 C   0  0  0  0  0  3  0  0  0  0  0  0
    0.7931   -1.2258   -3.1597 H   0  0  0  0  0  0  0  0  0  0  0  0
   -0.7366   -0.6833    0.7270 H   0  0  0  0  0  0  0  0  0  0  0  0
   -0.2543   -2.5460    0.7663 H   0  0  0  0  0  0  0  0  0  0  0  0
   -1.8761   -2.0929    0.0642 H   0  0  0  0  0  0  0  0  0  0  0  0
   -1.2136    1.6523    0.0072 S   0  0  0  0  0  0  0  0  0  0  0  0
   -0.5990    0.5220    1.2420 C   0  0  0  0  0  0  0  0  0  0  0  0
    0.7776    0.6185    1.6027 C   0  0  0  0  0  0  0  0  0  0  0  0
    1.9502    0.6336    1.8612 C   0  0  0  0  0  0  0  0  0  0  0  0
   -0.2781    1.3761   -0.9125 H   0  0  0  0  0  0  0  0  0  0  0  0
   -1.2819    0.5138    2.0892 H   0  0  0  0  0  0  0  0  0  0  0  0
    2.9858    0.6656    2.1004 H   0  0  0  0  0  0  0  0  0  0  0  0
  1  2  3  0
  1  4  1  0
  2  3  1  0
  3  6  1  0
  3  7  1  0
  5  9  1  0
  8  9  1  0
  8 12  1  0
  9 10  1  0
  9 13  1  0
 10 11  3  0
 11 14  1  0
M  RAD  1   3   2
M  END
>  <reaction>  (4) 
rxn_1248

>  <mol_properties>  (4) 
{"1": {"label": "*4", "atom_type": "Ct"}, "2": {"label": "*3", "atom_type": "Cs"}, "4": {"label": "*2", "atom_type": "H0"}, "7": {"label": "*0", "atom_type": "S2s"}, "8": {"label": "*1", "atom_type": "Cs"}}

>  <type>  (4) 
ts

$$$$

     RDKit          3D

 14 12  0  0  0  0  0  0  0  0999 V2000
    0.0854   -2.0447   -2.9368 C   0  0  0  0  0  0  0  0  0  0  0  0
    0.0854   -2.0447   -1.7398 C   0  0  0  0  0  0  0  0  0  0  0  0
    0.0854   -2.0447   -0.2844 C   0  0  0  0  0  0  0  0  0  0  0  0
    0.0854   -2.0447   -4.0001 H   0  0  0  0  0  0  0  0  0  0  0  0
    0.1968   -0.8251    0.1780 H   0  0  0  0  0  0  0  0  0  0  0  0
    0.9191   -2.6333    0.1010 H   0  0  0  0  0  0  0  0  0  0  0  0
   -0.8412   -2.4724    0.1010 H   0  0  0  0  0  0  0  0  0  0  0  0
   -1.1999    0.6615    1.6310 S   0  0  0  0  0  0  0  0  0  0  0  0
    0.3083    0.3945    0.6405 C   0  0  0  0  0  3  0  0  0  0  0  0
    0.9422    1.6203    0.1882 C   0  0  0  0  0  0  0  0  0  0  0  0
    1.4646    2.6306   -0.1846 C   0  0  0  0  0  0  0  0  0  0  0  0
   -0.6173    1.3942    2.5882 H   0  0  0  0  0  0  0  0  0  0  0  0
    1.0176   -0.2055    1.2099 H   0  0  0  0  0  0  0  0  0  0  0  0
    1.9288    3.5283   -0.5159 H   0  0  0  0  0  0  0  0  0  0  0  0
  1  2  3  0
  1  4  1  0
  2  3  1  0
  3  5  1  0
  3  6  1  0
  3  7  1  0
  8  9  1  0
  8 12  1  0
  9 10  1  0
  9 13  1  0
 10 11  3  0
 11 14  1  0
M  RAD  1   9   2
M  END
>  <reaction>  (5) 
rxn_1248

>  <mol_properties>  (5) 
{"1": {"label": "*4", "atom_type": "Ct"}, "2": {"label": "*3", "atom_type": "Cs"}, "4": {"label": "*2", "atom_type": "H0"}, "7": {"label": "*0", "atom_type": "S2s"}, "8": {"label": "*1", "atom_type": "Cs"}}

>  <type>  (5) 
unop_1

>  <geom_source>  (5) 
Heuristics

$$$$

     RDKit          3D

 14 12  0  0  0  0  0  0  0  0999 V2000
   -0.3016   -2.0656   -2.5995 C   0  0  0  0  0  0  0  0  0  0  0  0
   -0.3016   -2.0656   -1.4024 C   0  0  0  0  0  0  0  0  0  0  0  0
   -0.3016   -2.0656    0.0530 C   0  0  0  0  0  0  0  0  0  0  0  0
   -0.3016   -2.0656   -3.6627 H   0  0  0  0  0  0  0  0  0  0  0  0
   -0.1901   -0.8460    0.5154 H   0  0  0  0  0  0  0  0  0  0  0  0
    0.5321   -2.6541    0.4384 H   0  0  0  0  0  0  0  0  0  0  0  0
   -1.2282   -2.4933    0.4384 H   0  0  0  0  0  0  0  0  0  0  0  0
   -0.8671    1.4288   -0.2838 S   0  0  0  0  0  0  0  0  0  0  0  0
   -0.0787    0.3736    0.9779 C   0  0  0  0  0  3  0  0  0  0  0  0
    1.1423    0.9300    1.5336 C   0  0  0  0  0  0  0  0  0  0  0  0
    2.1486    1.3885    1.9916 C   0  0  0  0  0  0  0  0  0  0  0  0
   -1.0297    2.4996    0.5033 H   0  0  0  0  0  0  0  0  0  0  0  0
   -0.7910    0.1637    1.7753 H   0  0  0  0  0  0  0  0  0  0  0  0
    3.0427    1.7959    2.3985 H   0  0  0  0  0  0  0  0  0  0  0  0
  1  2  3  0
  1  4  1  0
  2  3  1  0
  3  5  1  0
  3  6  1  0
  3  7  1  0
  8  9  1  0
  8 12  1  0
  9 10  1  0
  9 13  1  0
 10 11  3  0
 11 14  1  0
M  RAD  1   9   2
M  END
>  <reaction>  (6) 
rxn_1248

>  <mol_properties>  (6) 
{"1": {"label": "*4", "atom_type": "Ct"}, "2": {"label": "*3", "atom_type": "Cs"}, "4": {"label": "*2", "atom_type": "H0"}, "7": {"label": "*0", "atom_type": "S2s"}, "8": {"label": "*1", "atom_type": "Cs"}}

>  <type>  (6) 
unop_2

>  <geom_source>  (6) 
Heuristics

$$$$

     RDKit          3D

 14 12  0  0  0  0  0  0  0  0999 V2000
    0.1366   -1.9771   -3.0227 C   0  0  0  0  0  0  0  0  0  0  0  0
    0.1366   -1.9771   -1.8257 C   0  0  0  0  0  0  0  0  0  0  0  0
    0.1366   -1.9771   -0.3702 C   0  0  0  0  0  0  0  0  0  0  0  0
    0.1366   -1.9771   -4.0860 H   0  0  0  0  0  0  0  0  0  0  0  0
    0.2481   -0.7575    0.0922 H   0  0  0  0  0  0  0  0  0  0  0  0
    0.9703   -2.5657    0.0151 H   0  0  0  0  0  0  0  0  0  0  0  0
   -0.7900   -2.4048    0.0151 H   0  0  0  0  0  0  0  0  0  0  0  0
   -0.5270    0.4435    2.1486 S   0  0  0  0  0  0  0  0  0  0  0  0
    0.3595    0.4621    0.5546 C   0  0  0  0  0  3  0  0  0  0  0  0
    0.2636    1.7230   -0.1595 C   0  0  0  0  0  0  0  0  0  0  0  0
    0.1845    2.7622   -0.7481 C   0  0  0  0  0  0  0  0  0  0  0  0
    0.1393    1.4669    2.6974 H   0  0  0  0  0  0  0  0  0  0  0  0
    1.4053    0.2018    0.7154 H   0  0  0  0  0  0  0  0  0  0  0  0
    0.1143    3.6856   -1.2710 H   0  0  0  0  0  0  0  0  0  0  0  0
  1  2  3  0
  1  4  1  0
  2  3  1  0
  3  5  1  0
  3  6  1  0
  3  7  1  0
  8  9  1  0
  8 12  1  0
  9 10  1  0
  9 13  1  0
 10 11  3  0
 11 14  1  0
M  RAD  1   9   2
M  END
>  <reaction>  (7) 
rxn_1248

>  <mol_properties>  (7) 
{"1": {"label": "*4", "atom_type": "Ct"}, "2": {"label": "*3", "atom_type": "Cs"}, "4": {"label": "*2", "atom_type": "H0"}, "7": {"label": "*0", "atom_type": "S2s"}, "8": {"label": "*1", "atom_type": "Cs"}}

>  <type>  (7) 
unop_3

>  <geom_source>  (7) 
Heuristics

$$$$

     RDKit          3D

 14 12  0  0  0  0  0  0  0  0999 V2000
   -0.6482   -1.5317   -3.0108 C   0  0  0  0  0  0  0  0  0  0  0  0
   -0.6482   -1.5317   -1.8138 C   0  0  0  0  0  0  0  0  0  0  0  0
   -0.6482   -1.5317   -0.3583 C   0  0  0  0  0  0  0  0  0  0  0  0
   -0.6482   -1.5317   -4.0741 H   0  0  0  0  0  0  0  0  0  0  0  0
   -0.5367   -0.3122    0.1041 H   0  0  0  0  0  0  0  0  0  0  0  0
    0.1855   -2.1203    0.0270 H   0  0  0  0  0  0  0  0  0  0  0  0
   -1.5748   -1.9594    0.0270 H   0  0  0  0  0  0  0  0  0  0  0  0
    1.1630    1.5166   -0.0917 S   0  0  0  0  0  0  0  0  0  0  0  0
   -0.4253    0.9074    0.5665 C   0  0  0  0  0  3  0  0  0  0  0  0
   -0.3116    0.2213    1.8414 C   0  0  0  0  0  0  0  0  0  0  0  0
   -0.2179   -0.3443    2.8921 C   0  0  0  0  0  0  0  0  0  0  0  0
    1.4651    2.2950    0.9549 H   0  0  0  0  0  0  0  0  0  0  0  0
   -1.1282    1.7359    0.6489 H   0  0  0  0  0  0  0  0  0  0  0  0
   -0.1347   -0.8468    3.8257 H   0  0  0  0  0  0  0  0  0  0  0  0
  1  2  3  0
  1  4  1  0
  2  3  1  0
  3  5  1  0
  3  6  1  0
  3  7  1  0
  8  9  1  0
  8 12  1  0
  9 10  1  0
  9 13  1  0
 10 11  3  0
 11 14  1  0
M  RAD  1   9   2
M  END
>  <reaction>  (8) 
rxn_1248

>  <mol_properties>  (8) 
{"1": {"label": "*4", "atom_type": "Ct"}, "2": {"label": "*3", "atom_type": "Cs"}, "4": {"label": "*2", "atom_type": "H0"}, "7": {"label": "*0", "atom_type": "S2s"}, "8": {"label": "*1", "atom_type": "Cs"}}

>  <type>  (8) 
unop_4

>  <geom_source>  (8) 
Heuristics

$$$$

     RDKit          3D

 14 12  0  0  0  0  0  0  0  0999 V2000
    0.2040   -1.7965   -3.1454 C   0  0  0  0  0  0  0  0  0  0  0  0
    0.2040   -1.7965   -1.9484 C   0  0  0  0  0  0  0  0  0  0  0  0
    0.2040   -1.7965   -0.4929 C   0  0  0  0  0  0  0  0  0  0  0  0
    0.2040   -1.7965   -4.2087 H   0  0  0  0  0  0  0  0  0  0  0  0
    0.3155   -0.5769   -0.0305 H   0  0  0  0  0  0  0  0  0  0  0  0
    1.0377   -2.3851   -0.1076 H   0  0  0  0  0  0  0  0  0  0  0  0
   -0.7226   -2.2242   -0.1076 H   0  0  0  0  0  0  0  0  0  0  0  0
    0.4103    0.4608    2.2468 S   0  0  0  0  0  0  0  0  0  0  0  0
    0.4270    0.6427    0.4319 C   0  0  0  0  0  3  0  0  0  0  0  0
   -0.6432    1.4756   -0.0877 C   0  0  0  0  0  0  0  0  0  0  0  0
   -1.5253    2.1621   -0.5159 C   0  0  0  0  0  0  0  0  0  0  0  0
    0.5119    1.7666    2.5246 H   0  0  0  0  0  0  0  0  0  0  0  0
    1.3931    1.0326    0.1129 H   0  0  0  0  0  0  0  0  0  0  0  0
   -2.3090    2.7720   -0.8964 H   0  0  0  0  0  0  0  0  0  0  0  0
  1  2  3  0
  1  4  1  0
  2  3  1  0
  3  5  1  0
  3  6  1  0
  3  7  1  0
  8  9  1  0
  8 12  1  0
  9 10  1  0
  9 13  1  0
 10 11  3  0
 11 14  1  0
M  RAD  1   9   2
M  END
>  <reaction>  (9) 
rxn_1248

>  <mol_properties>  (9) 
{"1": {"label": "*4", "atom_type": "Ct"}, "2": {"label": "*3", "atom_type": "Cs"}, "4": {"label": "*2", "atom_type": "H0"}, "7": {"label": "*0", "atom_type": "S2s"}, "8": {"label": "*1", "atom_type": "Cs"}}

>  <type>  (9) 
unop_5

>  <geom_source>  (9) 
Heuristics

$$$$

     RDKit          3D

 14 12  0  0  0  0  0  0  0  0999 V2000
   -0.4762   -1.4236   -3.2023 C   0  0  0  0  0  0  0  0  0  0  0  0
   -0.4762   -1.4236   -2.0053 C   0  0  0  0  0  0  0  0  0  0  0  0
   -0.4762   -1.4236   -0.5499 C   0  0  0  0  0  0  0  0  0  0  0  0
   -0.4762   -1.4236   -4.2656 H   0  0  0  0  0  0  0  0  0  0  0  0
   -0.3648   -0.2041   -0.0875 H   0  0  0  0  0  0  0  0  0  0  0  0
    0.3575   -2.0122   -0.1645 H   0  0  0  0  0  0  0  0  0  0  0  0
   -1.4028   -1.8513   -0.1645 H   0  0  0  0  0  0  0  0  0  0  0  0
    1.5418    1.2933    0.5411 S   0  0  0  0  0  0  0  0  0  0  0  0
   -0.2533    1.0155    0.3750 C   0  0  0  0  0  3  0  0  0  0  0  0
   -0.8455    0.2992    1.4908 C   0  0  0  0  0  0  0  0  0  0  0  0
   -1.3337   -0.2912    2.4105 C   0  0  0  0  0  0  0  0  0  0  0  0
    1.4775    1.9743    1.6921 H   0  0  0  0  0  0  0  0  0  0  0  0
   -0.7589    1.9702    0.2326 H   0  0  0  0  0  0  0  0  0  0  0  0
   -1.7673   -0.8158    3.2277 H   0  0  0  0  0  0  0  0  0  0  0  0
  1  2  3  0
  1  4  1  0
  2  3  1  0
  3  5  1  0
  3  6  1  0
  3  7  1  0
  8  9  1  0
  8 12  1  0
  9 10  1  0
  9 13  1  0
 10 11  3  0
 11 14  1  0
M  RAD  1   9   2
M  END
>  <reaction>  (10) 
rxn_1248

>  <mol_properties>  (10) 
{"1": {"label": "*4", "atom_type": "Ct"}, "2": {"label": "*3", "atom_type": "Cs"}, "4": {"label": "*2", "atom_type": "H0"}, "7": {"label": "*0", "atom_type": "S2s"}, "8": {"label": "*1", "atom_type": "Cs"}}

>  <type>  (10) 
unop_6

>  <geom_source>  (10) 
Heuristics

$$$$

     RDKit          3D

 14 12  0  0  0  0  0  0  0  0999 V2000
   -0.2084   -1.4148   -3.3112 C   0  0  0  0  0  0  0  0  0  0  0  0
   -0.2084   -1.4148   -2.1142 C   0  0  0  0  0  0  0  0  0  0  0  0
   -0.2084   -1.4148   -0.6588 C   0  0  0  0  0  0  0  0  0  0  0  0
   -0.2084   -1.4148   -4.3745 H   0  0  0  0  0  0  0  0  0  0  0  0
   -0.0969   -0.1952   -0.1963 H   0  0  0  0  0  0  0  0  0  0  0  0
    0.6253   -2.0034   -0.2734 H   0  0  0  0  0  0  0  0  0  0  0  0
   -1.1350   -1.8425   -0.2734 H   0  0  0  0  0  0  0  0  0  0  0  0
    1.5461    1.0136    1.2566 S   0  0  0  0  0  0  0  0  0  0  0  0
    0.0145    1.0244    0.2661 C   0  0  0  0  0  3  0  0  0  0  0  0
   -1.1531    0.5374    0.9793 C   0  0  0  0  0  0  0  0  0  0  0  0
   -2.1154    0.1360    1.5670 C   0  0  0  0  0  0  0  0  0  0  0  0
    1.0941    1.8118    2.2318 H   0  0  0  0  0  0  0  0  0  0  0  0
   -0.1697    2.0301   -0.1105 H   0  0  0  0  0  0  0  0  0  0  0  0
   -2.9704   -0.2207    2.0893 H   0  0  0  0  0  0  0  0  0  0  0  0
  1  2  3  0
  1  4  1  0
  2  3  1  0
  3  5  1  0
  3  6  1  0
  3  7  1  0
  8  9  1  0
  8 12  1  0
  9 10  1  0
  9 13  1  0
 10 11  3  0
 11 14  1  0
M  RAD  1   9   2
M  END
>  <reaction>  (11) 
rxn_1248

>  <mol_properties>  (11) 
{"1": {"label": "*4", "atom_type": "Ct"}, "2": {"label": "*3", "atom_type": "Cs"}, "4": {"label": "*2", "atom_type": "H0"}, "7": {"label": "*0", "atom_type": "S2s"}, "8": {"label": "*1", "atom_type": "Cs"}}

>  <type>  (11) 
unop_7

>  <geom_source>  (11) 
Heuristics

$$$$

     RDKit          3D

 14 12  0  0  0  0  0  0  0  0999 V2000
    0.0376   -2.0875   -2.8194 C   0  0  0  0  0  0  0  0  0  0  0  0
    0.0376   -2.0875   -1.6223 C   0  0  0  0  0  0  0  0  0  0  0  0
    0.0376   -2.0875   -0.1669 C   0  0  0  0  0  0  0  0  0  0  0  0
    0.0376   -2.0875   -3.8827 H   0  0  0  0  0  0  0  0  0  0  0  0
    0.1491   -0.8679    0.2955 H   0  0  0  0  0  0  0  0  0  0  0  0
    0.8713   -2.6761    0.2185 H   0  0  0  0  0  0  0  0  0  0  0  0
   -0.8890   -2.5152    0.2184 H   0  0  0  0  0  0  0  0  0  0  0  0
   -1.4545    0.9502    0.9241 S   0  0  0  0  0  0  0  0  0  0  0  0
    0.2605    0.3517    0.7579 C   0  0  0  0  0  3  0  0  0  0  0  0
    1.2507    1.4112    0.6816 C   0  0  0  0  0  0  0  0  0  0  0  0
    2.0668    2.2846    0.6187 C   0  0  0  0  0  0  0  0  0  0  0  0
   -1.2596    1.6372    2.0566 H   0  0  0  0  0  0  0  0  0  0  0  0
    0.4943   -0.3202    1.5833 H   0  0  0  0  0  0  0  0  0  0  0  0
    2.7919    3.0605    0.5628 H   0  0  0  0  0  0  0  0  0  0  0  0
  1  2  3  0
  1  4  1  0
  2  3  1  0
  3  5  1  0
  3  6  1  0
  3  7  1  0
  8  9  1  0
  8 12  1  0
  9 10  1  0
  9 13  1  0
 10 11  3  0
 11 14  1  0
M  RAD  1   9   2
M  END
>  <reaction>  (12) 
rxn_1248

>  <mol_properties>  (12) 
{"1": {"label": "*4", "atom_type": "Ct"}, "2": {"label": "*3", "atom_type": "Cs"}, "4": {"label": "*2", "atom_type": "H0"}, "7": {"label": "*0", "atom_type": "S2s"}, "8": {"label": "*1", "atom_type": "Cs"}}

>  <type>  (12) 
unop_8

>  <geom_source>  (12) 
Heuristics

$$$$

     RDKit          3D

 14 12  0  0  0  0  0  0  0  0999 V2000
   -0.6786   -1.7143   -2.7961 C   0  0  0  0  0  0  0  0  0  0  0  0
   -0.6786   -1.7143   -1.5991 C   0  0  0  0  0  0  0  0  0  0  0  0
   -0.6786   -1.7143   -0.1437 C   0  0  0  0  0  0  0  0  0  0  0  0
   -0.6786   -1.7143   -3.8594 H   0  0  0  0  0  0  0  0  0  0  0  0
   -0.5672   -0.4947    0.3188 H   0  0  0  0  0  0  0  0  0  0  0  0
    0.1551   -2.3029    0.2417 H   0  0  0  0  0  0  0  0  0  0  0  0
   -1.6052   -2.1420    0.2417 H   0  0  0  0  0  0  0  0  0  0  0  0
    0.5109    1.6197   -0.4805 S   0  0  0  0  0  0  0  0  0  0  0  0
   -0.4557    0.7249    0.7812 C   0  0  0  0  0  3  0  0  0  0  0  0
    0.3148    0.3361    1.9491 C   0  0  0  0  0  0  0  0  0  0  0  0
    0.9499    0.0157    2.9118 C   0  0  0  0  0  0  0  0  0  0  0  0
    0.8939    2.6254    0.3161 H   0  0  0  0  0  0  0  0  0  0  0  0
   -1.3116    1.3287    1.0816 H   0  0  0  0  0  0  0  0  0  0  0  0
    1.5142   -0.2690    3.7671 H   0  0  0  0  0  0  0  0  0  0  0  0
  1  2  3  0
  1  4  1  0
  2  3  1  0
  3  5  1  0
  3  6  1  0
  3  7  1  0
  8  9  1  0
  8 12  1  0
  9 10  1  0
  9 13  1  0
 10 11  3  0
 11 14  1  0
M  RAD  1   9   2
M  END
>  <reaction>  (13) 
rxn_1248

>  <mol_properties>  (13) 
{"1": {"label": "*4", "atom_type": "Ct"}, "2": {"label": "*3", "atom_type": "Cs"}, "4": {"label": "*2", "atom_type": "H0"}, "7": {"label": "*0", "atom_type": "S2s"}, "8": {"label": "*1", "atom_type": "Cs"}}

>  <type>  (13) 
unop_9

>  <geom_source>  (13) 
Heuristics

$$$$

     RDKit          3D

 14 12  0  0  0  0  0  0  0  0999 V2000
   -0.0840   -2.1083   -2.6849 C   0  0  0  0  0  0  0  0  0  0  0  0
   -0.0840   -2.1083   -1.4879 C   0  0  0  0  0  0  0  0  0  0  0  0
   -0.0840   -2.1083   -0.0324 C   0  0  0  0  0  0  0  0  0  0  0  0
   -0.0840   -2.1083   -3.7482 H   0  0  0  0  0  0  0  0  0  0  0  0
    0.0274   -0.8887    0.4300 H   0  0  0  0  0  0  0  0  0  0  0  0
    0.7497   -2.6969    0.3529 H   0  0  0  0  0  0  0  0  0  0  0  0
   -1.0106   -2.5360    0.3529 H   0  0  0  0  0  0  0  0  0  0  0  0
   -1.3126    1.2179    0.2342 S   0  0  0  0  0  0  0  0  0  0  0  0
    0.1389    0.3309    0.8924 C   0  0  0  0  0  3  0  0  0  0  0  0
    1.2844    1.1848    1.1527 C   0  0  0  0  0  0  0  0  0  0  0  0
    2.2285    1.8885    1.3673 C   0  0  0  0  0  0  0  0  0  0  0  0
   -1.4472    2.0615    1.2651 H   0  0  0  0  0  0  0  0  0  0  0  0
   -0.1411   -0.2060    1.7983 H   0  0  0  0  0  0  0  0  0  0  0  0
    3.0674    2.5138    1.5579 H   0  0  0  0  0  0  0  0  0  0  0  0
  1  2  3  0
  1  4  1  0
  2  3  1  0
  3  5  1  0
  3  6  1  0
  3  7  1  0
  8  9  1  0
  8 12  1  0
  9 10  1  0
  9 13  1  0
 10 11  3  0
 11 14  1  0
M  RAD  1   9   2
M  END
>  <reaction>  (14) 
rxn_1248

>  <mol_properties>  (14) 
{"1": {"label": "*4", "atom_type": "Ct"}, "2": {"label": "*3", "atom_type": "Cs"}, "4": {"label": "*2", "atom_type": "H0"}, "7": {"label": "*0", "atom_type": "S2s"}, "8": {"label": "*1", "atom_type": "Cs"}}

>  <type>  (14) 
unop_10

>  <geom_source>  (14) 
Heuristics

$$$$

     RDKit          3D

 14 12  0  0  0  0  0  0  0  0999 V2000
    0.0757   -1.5411   -3.2899 C   0  0  0  0  0  0  0  0  0  0  0  0
    0.0757   -1.5411   -2.0929 C   0  0  0  0  0  0  0  0  0  0  0  0
    0.0757   -1.5411   -0.6375 C   0  0  0  0  0  0  0  0  0  0  0  0
    0.0757   -1.5411   -4.3532 H   0  0  0  0  0  0  0  0  0  0  0  0
    0.1872   -0.3215   -0.1750 H   0  0  0  0  0  0  0  0  0  0  0  0
    0.9095   -2.1296   -0.2521 H   0  0  0  0  0  0  0  0  0  0  0  0
   -0.8508   -1.9688   -0.2521 H   0  0  0  0  0  0  0  0  0  0  0  0
    1.1672    0.7191    1.8813 S   0  0  0  0  0  0  0  0  0  0  0  0
    0.2987    0.8981    0.2874 C   0  0  0  0  0  3  0  0  0  0  0  0
   -1.1481    0.9423    0.4052 C   0  0  0  0  0  0  0  0  0  0  0  0
   -2.3406    0.9788    0.5023 C   0  0  0  0  0  0  0  0  0  0  0  0
    0.6700    1.8281    2.4431 H   0  0  0  0  0  0  0  0  0  0  0  0
    0.6595    1.7883   -0.2271 H   0  0  0  0  0  0  0  0  0  0  0  0
   -3.4001    1.0111    0.5886 H   0  0  0  0  0  0  0  0  0  0  0  0
  1  2  3  0
  1  4  1  0
  2  3  1  0
  3  5  1  0
  3  6  1  0
  3  7  1  0
  8  9  1  0
  8 12  1  0
  9 10  1  0
  9 13  1  0
 10 11  3  0
 11 14  1  0
M  RAD  1   9   2
M  END
>  <reaction>  (15) 
rxn_1248

>  <mol_properties>  (15) 
{"1": {"label": "*4", "atom_type": "Ct"}, "2": {"label": "*3", "atom_type": "Cs"}, "4": {"label": "*2", "atom_type": "H0"}, "7": {"label": "*0", "atom_type": "S2s"}, "8": {"label": "*1", "atom_type": "Cs"}}

>  <type>  (15) 
unop_11

>  <geom_source>  (15) 
Heuristics

$$$$

     RDKit          3D

 14 12  0  0  0  0  0  0  0  0999 V2000
   -0.5439   -1.9217   -2.6349 C   0  0  0  0  0  0  0  0  0  0  0  0
   -0.5439   -1.9217   -1.4379 C   0  0  0  0  0  0  0  0  0  0  0  0
   -0.5439   -1.9217    0.0175 C   0  0  0  0  0  0  0  0  0  0  0  0
   -0.5439   -1.9217   -3.6982 H   0  0  0  0  0  0  0  0  0  0  0  0
   -0.4324   -0.7021    0.4800 H   0  0  0  0  0  0  0  0  0  0  0  0
    0.2899   -2.5103    0.4029 H   0  0  0  0  0  0  0  0  0  0  0  0
   -1.4704   -2.3494    0.4029 H   0  0  0  0  0  0  0  0  0  0  0  0
   -0.2242    1.5756   -0.5402 S   0  0  0  0  0  0  0  0  0  0  0  0
   -0.3209    0.5175    0.9424 C   0  0  0  0  0  3  0  0  0  0  0  0
    0.8346    0.6186    1.8162 C   0  0  0  0  0  0  0  0  0  0  0  0
    1.7870    0.7020    2.5363 C   0  0  0  0  0  0  0  0  0  0  0  0
   -0.1005    2.7355    0.1169 H   0  0  0  0  0  0  0  0  0  0  0  0
   -1.2304    0.7477    1.4966 H   0  0  0  0  0  0  0  0  0  0  0  0
    2.6333    0.7761    3.1762 H   0  0  0  0  0  0  0  0  0  0  0  0
  1  2  3  0
  1  4  1  0
  2  3  1  0
  3  5  1  0
  3  6  1  0
  3  7  1  0
  8  9  1  0
  8 12  1  0
  9 10  1  0
  9 13  1  0
 10 11  3  0
 11 14  1  0
M  RAD  1   9   2
M  END
>  <reaction>  (16) 
rxn_1248

>  <mol_properties>  (16) 
{"1": {"label": "*4", "atom_type": "Ct"}, "2": {"label": "*3", "atom_type": "Cs"}, "4": {"label": "*2", "atom_type": "H0"}, "7": {"label": "*0", "atom_type": "S2s"}, "8": {"label": "*1", "atom_type": "Cs"}}

>  <type>  (16) 
unop_12

>  <geom_source>  (16) 
Heuristics

$$$$

     RDKit          3D

 14 12  0  0  0  0  0  0  0  0999 V2000
    1.0054    1.2984   -1.5113 S   0  0  0  0  0  0  0  0  0  0  0  0
    1.0050    0.3859    0.0575 C   0  0  0  0  0  3  0  0  0  0  0  0
   -1.1819   -1.0688    0.1209 C   0  0  0  0  0  0  0  0  0  0  0  0
    2.3228   -0.2114    0.2760 C   0  0  0  0  0  0  0  0  0  0  0  0
   -2.1477    0.0296    0.0835 C   0  0  0  0  0  0  0  0  0  0  0  0
    3.4079   -0.7044    0.4573 C   0  0  0  0  0  0  0  0  0  0  0  0
   -2.9433    0.9348    0.0528 C   0  0  0  0  0  0  0  0  0  0  0  0
    0.7721    1.0801    0.8913 H   0  0  0  0  0  0  0  0  0  0  0  0
    0.0478   -0.6162    0.0099 H   0  0  0  0  0  0  0  0  0  0  0  0
   -1.3273   -1.6582    1.0495 H   0  0  0  0  0  0  0  0  0  0  0  0
   -1.3330   -1.7248   -0.7610 H   0  0  0  0  0  0  0  0  0  0  0  0
   -0.3467    1.6628   -1.3683 H   0  0  0  0  0  0  0  0  0  0  0  0
    4.3606   -1.1372    0.6163 H   0  0  0  0  0  0  0  0  0  0  0  0
   -3.6418    1.7294    0.0257 H   0  0  0  0  0  0  0  0  0  0  0  0
  1  2  1  0
  1 12  1  0
  2  4  1  0
  2  8  1  0
  3  5  1  0
  3  9  1  0
  3 10  1  0
  3 11  1  0
  4  6  3  0
  5  7  3  0
  6 13  1  0
  7 14  1  0
M  RAD  1   2   2
M  END
>  <reaction>  (17) 
rxn_1248

>  <mol_properties>  (17) 
{"1": {"label": "*4", "atom_type": "Ct"}, "2": {"label": "*3", "atom_type": "Cs"}, "4": {"label": "*2", "atom_type": "H0"}, "7": {"label": "*0", "atom_type": "S2s"}, "8": {"label": "*1", "atom_type": "Cs"}}

>  <type>  (17) 
unop_13

>  <geom_source>  (17) 
AutoTST

$$$$

     RDKit          3D

 14 12  0  0  0  0  0  0  0  0999 V2000
   -0.3016   -2.0655   -2.5995 C   0  0  0  0  0  0  0  0  0  0  0  0
   -0.3016   -2.0655   -1.4024 C   0  0  0  0  0  0  0  0  0  0  0  0
   -0.3016   -2.0655    0.0530 C   0  0  0  0  0  0  0  0  0  0  0  0
   -0.3016   -2.0655   -3.6627 H   0  0  0  0  0  0  0  0  0  0  0  0
   -0.1901   -0.8460    0.5154 H   0  0  0  0  0  0  0  0  0  0  0  0
    0.5321   -2.6541    0.4384 H   0  0  0  0  0  0  0  0  0  0  0  0
   -1.2282   -2.4933    0.4384 H   0  0  0  0  0  0  0  0  0  0  0  0
   -0.8671    1.4288   -0.2838 S   0  0  0  0  0  0  0  0  0  0  0  0
   -0.0787    0.3736    0.9779 C   0  0  0  0  0  3  0  0  0  0  0  0
    1.1423    0.9300    1.5336 C   0  0  0  0  0  0  0  0  0  0  0  0
    2.1486    1.3885    1.9916 C   0  0  0  0  0  0  0  0  0  0  0  0
   -1.0297    2.4996    0.5033 H   0  0  0  0  0  0  0  0  0  0  0  0
   -0.7910    0.1637    1.7753 H   0  0  0  0  0  0  0  0  0  0  0  0
    3.0427    1.7959    2.3985 H   0  0  0  0  0  0  0  0  0  0  0  0
  1  2  3  0
  1  4  1  0
  2  3  1  0
  3  5  1  0
  3  6  1  0
  3  7  1  0
  8  9  1  0
  8 12  1  0
  9 10  1  0
  9 13  1  0
 10 11  3  0
 11 14  1  0
M  RAD  1   9   2
M  END
>  <reaction>  (18) 
rxn_1248

>  <mol_properties>  (18) 
{"1": {"label": "*4", "atom_type": "Ct"}, "2": {"label": "*3", "atom_type": "Cs"}, "4": {"label": "*2", "atom_type": "H0"}, "7": {"label": "*0", "atom_type": "S2s"}, "8": {"label": "*1", "atom_type": "Cs"}}

>  <type>  (18) 
unop_14

>  <geom_source>  (18) 
gaussian_log

$$$$
