
     RDKit          3D

  9  8  0  0  0  0  0  0  0  0999 V2000
   -0.8818   -0.3578    0.1297 C   0  0  0  0  0  0  0  0  0  0  0  0
    0.6153   -0.3021   -0.1188 C   0  0  0  0  0  0  0  0  0  0  0  0
    1.5354   -1.7170    0.5545 S   0  0  0  0  0  0  0  0  0  0  0  0
   -1.1018   -0.3317    1.1984 H   0  0  0  0  0  0  0  0  0  0  0  0
   -1.3114   -1.2723   -0.2799 H   0  0  0  0  0  0  0  0  0  0  0  0
   -1.3767    0.4976   -0.3363 H   0  0  0  0  0  0  0  0  0  0  0  0
    1.0467    0.6194    0.2718 H   0  0  0  0  0  0  0  0  0  0  0  0
    0.8295   -0.3275   -1.1882 H   0  0  0  0  0  0  0  0  0  0  0  0
    1.2306   -1.5077    1.8423 H   0  0  0  0  0  0  0  0  0  0  0  0
  1  2  1  0
  1  4  1  0
  1  5  1  0
  1  6  1  0
  2  3  1  0
  2  7  1  0
  2  8  1  0
  3  9  1  0
M  END
>  <reaction>  (1) 
rxn_1897

>  <mol_properties>  (1) 
{"1": {"label": "donator", "atom_type": "Cs"}, "6": {"label": "d_hydrogen", "atom_type": "H0"}}

>  <type>  (1) 
r1h

$$$$

     RDKit          3D

  7  6  0  0  0  0  0  0  0  0999 V2000
   -2.0652    0.3855   -0.2963 S   0  0  0  0  0  0  0  0  0  0  0  0
   -0.7169   -0.5853    0.1792 C   0  0  0  0  0  3  0  0  0  0  0  0
    0.5987   -0.2168    0.0254 C   0  0  0  0  0  0  0  0  0  0  0  0
    1.7547    0.1211   -0.1163 C   0  0  0  0  0  0  0  0  0  0  0  0
   -1.3643    1.4227   -0.7731 H   0  0  0  0  0  0  0  0  0  0  0  0
   -0.9781   -1.5363    0.6220 H   0  0  0  0  0  0  0  0  0  0  0  0
    2.7711    0.4089   -0.2366 H   0  0  0  0  0  0  0  0  0  0  0  0
  1  2  1  0
  1  5  1  0
  2  3  1  0
  2  6  1  0
  3  4  3  0
  4  7  1  0
M  RAD  1   2   2
M  END
>  <reaction>  (2) 
rxn_1897

>  <mol_properties>  (2) 
{"1": {"label": "acceptor", "atom_type": "Cs"}}

>  <type>  (2) 
r2

$$$$

     RDKit          3D

  8  7  0  0  0  0  0  0  0  0999 V2000
   -0.7014    1.0753    1.5530 S   0  0  0  0  0  0  0  0  0  0  0  0
   -0.3105   -0.4583    0.6462 C   0  0  0  0  0  0  0  0  0  0  0  0
    0.0935   -0.2424   -0.7319 C   0  0  0  0  0  0  0  0  0  0  0  0
    0.4431   -0.0604   -1.8621 C   0  0  0  0  0  0  0  0  0  0  0  0
    0.4994    1.6466    1.3970 H   0  0  0  0  0  0  0  0  0  0  0  0
   -1.2277   -1.0477    0.6819 H   0  0  0  0  0  0  0  0  0  0  0  0
    0.4563   -1.0151    1.1841 H   0  0  0  0  0  0  0  0  0  0  0  0
    0.7474    0.1020   -2.8681 H   0  0  0  0  0  0  0  0  0  0  0  0
  1  2  1  0
  1  5  1  0
  2  3  1  0
  2  6  1  0
  2  7  1  0
  3  4  3  0
  4  8  1  0
M  END
>  <reaction>  (3) 
rxn_1897

>  <mol_properties>  (3) 
{"1": {"label": "acceptor", "atom_type": "Cs"}, "7": {"label": "a_hydrogen", "atom_type": "H0"}}

>  <type>  (3) 
r2h

$$$$

     RDKit          3D

 16 14  0  0  0  0  0  0  0  0999 V2000
    0.5133   -1.8053    1.6599 S   0  0  0  0  0  0  0  0  0  0  0  0
    0.8945   -1.2479    0.0035 C   0  0  0  0  0  0  0  0  0  0  0  0
    1.8821   -0.2278   -0.1384 C   0  0  0  0  0  0  0  0  0  0  0  0
    2.6457    0.6906   -0.2763 C   0  0  0  0  0  0  0  0  0  0  0  0
    0.1273   -0.6064    2.1220 H   0  0  0  0  0  0  0  0  0  0  0  0
    1.0576   -2.1125   -0.6364 H   0  0  0  0  0  0  0  0  0  0  0  0
    3.3531    1.4768   -0.3876 H   0  0  0  0  0  0  0  0  0  0  0  0
   -0.9530    0.3892   -2.3167 C   0  0  0  0  0  0  0  0  0  0  0  0
   -1.2939    0.0306   -0.8967 C   0  0  0  0  0  3  0  0  0  0  0  0
   -1.4669    1.3403    0.2767 S   0  0  0  0  0  0  0  0  0  0  0  0
   -0.0113    0.9412   -2.3594 H   0  0  0  0  0  0  0  0  0  0  0  0
   -1.7303    1.0091   -2.7715 H   0  0  0  0  0  0  0  0  0  0  0  0
   -0.8412   -0.5150   -2.9183 H   0  0  0  0  0  0  0  0  0  0  0  0
   -0.2160   -0.7053   -0.4569 H   0  0  0  0  0  0  0  0  0  0  0  0
   -2.1274   -0.6588   -0.7750 H   0  0  0  0  0  0  0  0  0  0  0  0
   -0.3410    1.9919   -0.0516 H   0  0  0  0  0  0  0  0  0  0  0  0
  1  2  1  0
  1  5  1  0
  2  3  1  0
  2  6  1  0
  2 14  1  0
  3  4  3  0
  4  7  1  0
  8  9  1  0
  8 11  1  0
  8 12  1  0
  8 13  1  0
  9 10  1  0
  9 15  1  0
 10 16  1  0
M  RAD  1   9   2
M  END
>  <reaction>  (4) 
rxn_1897

>  <mol_properties>  (4) 
{"0": {"label": "*0", "atom_type": "S2s"}, "1": {"label": "*1", "atom_type": "Cs"}, "8": {"label": "*3", "atom_type": "Cs"}, "9": {"label": "*4", "atom_type": "S2s"}, "13": {"label": "*2", "atom_type": "H0"}}

>  <type>  (4) 
ts

$$$$

     RDKit          3D

 16 14  0  0  0  0  0  0  0  0999 V2000
    1.4396    0.1875    1.2900 S   0  0  0  0  0  0  0  0  0  0  0  0
    0.4903   -1.0135    0.2983 C   0  0  0  0  0  3  0  0  0  0  0  0
    1.2657   -2.1600   -0.1413 C   0  0  0  0  0  0  0  0  0  0  0  0
    1.9048   -3.1050   -0.5036 C   0  0  0  0  0  0  0  0  0  0  0  0
    1.7953   -0.6698    2.2550 H   0  0  0  0  0  0  0  0  0  0  0  0
   -0.3810   -1.3451    0.8624 H   0  0  0  0  0  0  0  0  0  0  0  0
    2.4727   -3.9446   -0.8255 H   0  0  0  0  0  0  0  0  0  0  0  0
   -1.5346    0.3459   -2.1691 C   0  0  0  0  0  0  0  0  0  0  0  0
   -1.5346    0.3459   -0.6504 C   0  0  0  0  0  0  0  0  0  0  0  0
   -1.5346    2.0032    0.0946 S   0  0  0  0  0  0  0  0  0  0  0  0
   -0.6279    0.8113   -2.5598 H   0  0  0  0  0  0  0  0  0  0  0  0
   -2.3905    0.8971   -2.5592 H   0  0  0  0  0  0  0  0  0  0  0  0
   -1.5776   -0.6775   -2.5494 H   0  0  0  0  0  0  0  0  0  0  0  0
   -0.5226   -0.3335   -0.1763 H   0  0  0  0  0  0  0  0  0  0  0  0
   -2.4422   -0.1212   -0.2653 H   0  0  0  0  0  0  0  0  0  0  0  0
   -0.3598    2.4049   -0.4090 H   0  0  0  0  0  0  0  0  0  0  0  0
  1  2  1  0
  1  5  1  0
  2  3  1  0
  2  6  1  0
  3  4  3  0
  4  7  1  0
  8  9  1  0
  8 11  1  0
  8 12  1  0
  8 13  1  0
  9 10  1  0
  9 14  1  0
  9 15  1  0
 10 16  1  0
M  RAD  1   2   2
M  END
>  <reaction>  (5) 
rxn_1897

>  <mol_properties>  (5) 
{"0": {"label": "*0", "atom_type": "S2s"}, "1": {"label": "*1", "atom_type": "Cs"}, "8": {"label": "*3", "atom_type": "Cs"}, "9": {"label": "*4", "atom_type": "S2s"}, "13": {"label": "*2", "atom_type": "H0"}}

>  <type>  (5) 
unop_1

>  <geom_source>  (5) 
Heuristics

$$$$

     RDKit          3D

 16 14  0  0  0  0  0  0  0  0999 V2000
    1.9420   -0.5412   -0.6724 S   0  0  0  0  0  0  0  0  0  0  0  0
    0.6276   -0.7201    0.5795 C   0  0  0  0  0  3  0  0  0  0  0  0
    0.5257   -2.0552    1.1417 C   0  0  0  0  0  0  0  0  0  0  0  0
    0.4417   -3.1556    1.6052 C   0  0  0  0  0  0  0  0  0  0  0  0
    2.9531   -0.9076    0.1251 H   0  0  0  0  0  0  0  0  0  0  0  0
    0.7783    0.0100    1.3741 H   0  0  0  0  0  0  0  0  0  0  0  0
    0.3671   -4.1333    2.0170 H   0  0  0  0  0  0  0  0  0  0  0  0
   -1.3973    0.6392   -1.8879 C   0  0  0  0  0  0  0  0  0  0  0  0
   -1.3973    0.6392   -0.3693 C   0  0  0  0  0  0  0  0  0  0  0  0
   -1.3973    2.2966    0.3757 S   0  0  0  0  0  0  0  0  0  0  0  0
   -0.4906    1.1047   -2.2787 H   0  0  0  0  0  0  0  0  0  0  0  0
   -2.2532    1.1904   -2.2781 H   0  0  0  0  0  0  0  0  0  0  0  0
   -1.4403   -0.3841   -2.2682 H   0  0  0  0  0  0  0  0  0  0  0  0
   -0.3854   -0.0401    0.1048 H   0  0  0  0  0  0  0  0  0  0  0  0
   -2.3049    0.1722    0.0158 H   0  0  0  0  0  0  0  0  0  0  0  0
   -0.2225    2.6983   -0.1278 H   0  0  0  0  0  0  0  0  0  0  0  0
  1  2  1  0
  1  5  1  0
  2  3  1  0
  2  6  1  0
  3  4  3  0
  4  7  1  0
  8  9  1  0
  8 11  1  0
  8 12  1  0
  8 13  1  0
  9 10  1  0
  9 14  1  0
  9 15  1  0
 10 16  1  0
M  RAD  1   2   2
M  END
>  <reaction>  (6) 
rxn_1897

>  <mol_properties>  (6) 
{"0": {"label": "*0", "atom_type": "S2s"}, "1": {"label": "*1", "atom_type": "Cs"}, "8": {"label": "*3", "atom_type": "Cs"}, "9": {"label": "*4", "atom_type": "S2s"}, "13": {"label": "*2", "atom_type": "H0"}}

>  <type>  (6) 
unop_2

>  <geom_source>  (6) 
Heuristics

$$$$

     RDKit          3D

 16 14  0  0  0  0  0  0  0  0999 V2000
    0.9155   -0.2827    1.8201 S   0  0  0  0  0  0  0  0  0  0  0  0
    0.5199   -1.0785    0.2272 C   0  0  0  0  0  3  0  0  0  0  0  0
    1.6782   -1.6028   -0.4744 C   0  0  0  0  0  0  0  0  0  0  0  0
    2.6329   -2.0350   -1.0527 C   0  0  0  0  0  0  0  0  0  0  0  0
    1.4895   -1.3551    2.3797 H   0  0  0  0  0  0  0  0  0  0  0  0
   -0.2113   -1.8705    0.3864 H   0  0  0  0  0  0  0  0  0  0  0  0
    3.4812   -2.4190   -1.5666 H   0  0  0  0  0  0  0  0  0  0  0  0
   -1.5050    0.2809   -2.2401 C   0  0  0  0  0  0  0  0  0  0  0  0
   -1.5050    0.2809   -0.7215 C   0  0  0  0  0  0  0  0  0  0  0  0
   -1.5050    1.9383    0.0235 S   0  0  0  0  0  0  0  0  0  0  0  0
   -0.5983    0.7463   -2.6309 H   0  0  0  0  0  0  0  0  0  0  0  0
   -2.3609    0.8321   -2.6303 H   0  0  0  0  0  0  0  0  0  0  0  0
   -1.5480   -0.7425   -2.6204 H   0  0  0  0  0  0  0  0  0  0  0  0
   -0.4930   -0.3984   -0.2474 H   0  0  0  0  0  0  0  0  0  0  0  0
   -2.4126   -0.1861   -0.3364 H   0  0  0  0  0  0  0  0  0  0  0  0
   -0.3302    2.3399   -0.4800 H   0  0  0  0  0  0  0  0  0  0  0  0
  1  2  1  0
  1  5  1  0
  2  3  1  0
  2  6  1  0
  3  4  3  0
  4  7  1  0
  8  9  1  0
  8 11  1  0
  8 12  1  0
  8 13  1  0
  9 10  1  0
  9 14  1  0
  9 15  1  0
 10 16  1  0
M  RAD  1   2   2
M  END
>  <reaction>  (7) 
rxn_1897

>  <mol_properties>  (7) 
{"0": {"label": "*0", "atom_type": "S2s"}, "1": {"label": "*1", "atom_type": "Cs"}, "8": {"label": "*3", "atom_type": "Cs"}, "9": {"label": "*4", "atom_type": "S2s"}, "13": {"label": "*2", "atom_type": "H0"}}

>  <type>  (7) 
unop_3

>  <geom_source>  (7) 
Heuristics

$$$$

     RDKit          3D

 16 14  0  0  0  0  0  0  0  0999 V2000
    0.9385   -2.3713   -0.4104 S   0  0  0  0  0  0  0  0  0  0  0  0
    1.1601   -0.6818    0.2403 C   0  0  0  0  0  3  0  0  0  0  0  0
    0.4930   -0.4455    1.5084 C   0  0  0  0  0  0  0  0  0  0  0  0
   -0.0569   -0.2507    2.5536 C   0  0  0  0  0  0  0  0  0  0  0  0
    1.4681   -3.0038    0.6441 H   0  0  0  0  0  0  0  0  0  0  0  0
    2.2235   -0.4617    0.3302 H   0  0  0  0  0  0  0  0  0  0  0  0
   -0.5455   -0.0776    3.4822 H   0  0  0  0  0  0  0  0  0  0  0  0
   -0.8647    0.6775   -2.2271 C   0  0  0  0  0  0  0  0  0  0  0  0
   -0.8647    0.6775   -0.7085 C   0  0  0  0  0  0  0  0  0  0  0  0
   -0.8647    2.3349    0.0365 S   0  0  0  0  0  0  0  0  0  0  0  0
    0.0419    1.1430   -2.6179 H   0  0  0  0  0  0  0  0  0  0  0  0
   -1.7207    1.2288   -2.6172 H   0  0  0  0  0  0  0  0  0  0  0  0
   -0.9078   -0.3458   -2.6074 H   0  0  0  0  0  0  0  0  0  0  0  0
    0.1472   -0.0018   -0.2343 H   0  0  0  0  0  0  0  0  0  0  0  0
   -1.7723    0.2105   -0.3233 H   0  0  0  0  0  0  0  0  0  0  0  0
    0.3101    2.7366   -0.4670 H   0  0  0  0  0  0  0  0  0  0  0  0
  1  2  1  0
  1  5  1  0
  2  3  1  0
  2  6  1  0
  3  4  3  0
  4  7  1  0
  8  9  1  0
  8 11  1  0
  8 12  1  0
  8 13  1  0
  9 10  1  0
  9 14  1  0
  9 15  1  0
 10 16  1  0
M  RAD  1   2   2
M  END
>  <reaction>  (8) 
rxn_1897

>  <mol_properties>  (8) 
{"0": {"label": "*0", "atom_type": "S2s"}, "1": {"label": "*1", "atom_type": "Cs"}, "8": {"label": "*3", "atom_type": "Cs"}, "9": {"label": "*4", "atom_type": "S2s"}, "13": {"label": "*2", "atom_type": "H0"}}

>  <type>  (8) 
unop_4

>  <geom_source>  (8) 
Heuristics

$$$$

     RDKit          3D

 16 14  0  0  0  0  0  0  0  0999 V2000
    0.4594   -1.0889    1.9393 S   0  0  0  0  0  0  0  0  0  0  0  0
    0.6260   -1.2007    0.1264 C   0  0  0  0  0  3  0  0  0  0  0  0
    1.8744   -0.6638   -0.3859 C   0  0  0  0  0  0  0  0  0  0  0  0
    2.9032   -0.2213   -0.8081 C   0  0  0  0  0  0  0  0  0  0  0  0
    1.5542   -1.8026    2.2302 H   0  0  0  0  0  0  0  0  0  0  0  0
    0.5076   -2.2373   -0.1879 H   0  0  0  0  0  0  0  0  0  0  0  0
    3.8174    0.1718   -1.1833 H   0  0  0  0  0  0  0  0  0  0  0  0
   -1.3988    0.1587   -2.3410 C   0  0  0  0  0  0  0  0  0  0  0  0
   -1.3988    0.1587   -0.8223 C   0  0  0  0  0  0  0  0  0  0  0  0
   -1.3988    1.8160   -0.0774 S   0  0  0  0  0  0  0  0  0  0  0  0
   -0.4922    0.6241   -2.7318 H   0  0  0  0  0  0  0  0  0  0  0  0
   -2.2548    0.7099   -2.7311 H   0  0  0  0  0  0  0  0  0  0  0  0
   -1.4419   -0.8647   -2.7213 H   0  0  0  0  0  0  0  0  0  0  0  0
   -0.3869   -0.5207   -0.3482 H   0  0  0  0  0  0  0  0  0  0  0  0
   -2.3064   -0.3084   -0.4372 H   0  0  0  0  0  0  0  0  0  0  0  0
   -0.2240    2.2177   -0.5809 H   0  0  0  0  0  0  0  0  0  0  0  0
  1  2  1  0
  1  5  1  0
  2  3  1  0
  2  6  1  0
  3  4  3  0
  4  7  1  0
  8  9  1  0
  8 11  1  0
  8 12  1  0
  8 13  1  0
  9 10  1  0
  9 14  1  0
  9 15  1  0
 10 16  1  0
M  RAD  1   2   2
M  END
>  <reaction>  (9) 
rxn_1897

>  <mol_properties>  (9) 
{"0": {"label": "*0", "atom_type": "S2s"}, "1": {"label": "*1", "atom_type": "Cs"}, "8": {"label": "*3", "atom_type": "Cs"}, "9": {"label": "*4", "atom_type": "S2s"}, "13": {"label": "*2", "atom_type": "H0"}}

>  <type>  (9) 
unop_5

>  <geom_source>  (9) 
Heuristics

$$$$

     RDKit          3D

 16 14  0  0  0  0  0  0  0  0999 V2000
    0.5534   -2.5594    0.2519 S   0  0  0  0  0  0  0  0  0  0  0  0
    1.1718   -0.8519    0.0814 C   0  0  0  0  0  3  0  0  0  0  0  0
    0.8180    0.0174    1.1896 C   0  0  0  0  0  0  0  0  0  0  0  0
    0.5264    0.7340    2.1030 C   0  0  0  0  0  0  0  0  0  0  0  0
    1.1722   -2.8232    1.4095 H   0  0  0  0  0  0  0  0  0  0  0  0
    2.2531   -0.8668   -0.0519 H   0  0  0  0  0  0  0  0  0  0  0  0
    0.2672    1.3706    2.9145 H   0  0  0  0  0  0  0  0  0  0  0  0
   -0.8530    0.5074   -2.3860 C   0  0  0  0  0  0  0  0  0  0  0  0
   -0.8530    0.5074   -0.8673 C   0  0  0  0  0  0  0  0  0  0  0  0
   -0.8530    2.1648   -0.1223 S   0  0  0  0  0  0  0  0  0  0  0  0
    0.0536    0.9729   -2.7767 H   0  0  0  0  0  0  0  0  0  0  0  0
   -1.7090    1.0586   -2.7761 H   0  0  0  0  0  0  0  0  0  0  0  0
   -0.8961   -0.5159   -2.7663 H   0  0  0  0  0  0  0  0  0  0  0  0
    0.1589   -0.1719   -0.3932 H   0  0  0  0  0  0  0  0  0  0  0  0
   -1.7606    0.0404   -0.4822 H   0  0  0  0  0  0  0  0  0  0  0  0
    0.3218    2.5665   -0.6259 H   0  0  0  0  0  0  0  0  0  0  0  0
  1  2  1  0
  1  5  1  0
  2  3  1  0
  2  6  1  0
  3  4  3  0
  4  7  1  0
  8  9  1  0
  8 11  1  0
  8 12  1  0
  8 13  1  0
  9 10  1  0
  9 14  1  0
  9 15  1  0
 10 16  1  0
M  RAD  1   2   2
M  END
>  <reaction>  (10) 
rxn_1897

>  <mol_properties>  (10) 
{"0": {"label": "*0", "atom_type": "S2s"}, "1": {"label": "*1", "atom_type": "Cs"}, "8": {"label": "*3", "atom_type": "Cs"}, "9": {"label": "*4", "atom_type": "S2s"}, "13": {"label": "*2", "atom_type": "H0"}}

>  <type>  (10) 
unop_6

>  <geom_source>  (10) 
Heuristics

$$$$

     RDKit          3D

 16 14  0  0  0  0  0  0  0  0999 V2000
    0.3198   -2.3855    0.9825 S   0  0  0  0  0  0  0  0  0  0  0  0
    1.0718   -1.0522   -0.0092 C   0  0  0  0  0  3  0  0  0  0  0  0
    1.1984    0.2099    0.6981 C   0  0  0  0  0  0  0  0  0  0  0  0
    1.3028    1.2501    1.2810 C   0  0  0  0  0  0  0  0  0  0  0  0
    1.2289   -2.3662    1.9652 H   0  0  0  0  0  0  0  0  0  0  0  0
    2.0458   -1.3748   -0.3760 H   0  0  0  0  0  0  0  0  0  0  0  0
    1.3955    2.1743    1.7989 H   0  0  0  0  0  0  0  0  0  0  0  0
   -0.9530    0.3072   -2.4766 C   0  0  0  0  0  0  0  0  0  0  0  0
   -0.9530    0.3072   -0.9579 C   0  0  0  0  0  0  0  0  0  0  0  0
   -0.9530    1.9646   -0.2129 S   0  0  0  0  0  0  0  0  0  0  0  0
   -0.0464    0.7726   -2.8673 H   0  0  0  0  0  0  0  0  0  0  0  0
   -1.8090    0.8584   -2.8667 H   0  0  0  0  0  0  0  0  0  0  0  0
   -0.9961   -0.7162   -2.8569 H   0  0  0  0  0  0  0  0  0  0  0  0
    0.0589   -0.3721   -0.4838 H   0  0  0  0  0  0  0  0  0  0  0  0
   -1.8606   -0.1598   -0.5728 H   0  0  0  0  0  0  0  0  0  0  0  0
    0.2218    2.3663   -0.7165 H   0  0  0  0  0  0  0  0  0  0  0  0
  1  2  1  0
  1  5  1  0
  2  3  1  0
  2  6  1  0
  3  4  3  0
  4  7  1  0
  8  9  1  0
  8 11  1  0
  8 12  1  0
  8 13  1  0
  9 10  1  0
  9 14  1  0
  9 15  1  0
 10 16  1  0
M  RAD  1   2   2
M  END
>  <reaction>  (11) 
rxn_1897

>  <mol_properties>  (11) 
{"0": {"label": "*0", "atom_type": "S2s"}, "1": {"label": "*1", "atom_type": "Cs"}, "8": {"label": "*3", "atom_type": "Cs"}, "9": {"label": "*4", "atom_type": "S2s"}, "13": {"label": "*2", "atom_type": "H0"}}

>  <type>  (11) 
unop_7

>  <geom_source>  (11) 
Heuristics

$$$$

     RDKit          3D

 16 14  0  0  0  0  0  0  0  0999 V2000
    1.8234    0.2581    0.5665 S   0  0  0  0  0  0  0  0  0  0  0  0
    0.4772   -0.9608    0.3960 C   0  0  0  0  0  3  0  0  0  0  0  0
    0.9328   -2.3382    0.3310 C   0  0  0  0  0  0  0  0  0  0  0  0
    1.3084   -3.4735    0.2775 C   0  0  0  0  0  0  0  0  0  0  0  0
    2.3235   -0.2361    1.7059 H   0  0  0  0  0  0  0  0  0  0  0  0
   -0.2312   -0.8393    1.2149 H   0  0  0  0  0  0  0  0  0  0  0  0
    1.6420   -4.4822    0.2300 H   0  0  0  0  0  0  0  0  0  0  0  0
   -1.5476    0.3985   -2.0714 C   0  0  0  0  0  0  0  0  0  0  0  0
   -1.5476    0.3985   -0.5528 C   0  0  0  0  0  0  0  0  0  0  0  0
   -1.5476    2.0559    0.1922 S   0  0  0  0  0  0  0  0  0  0  0  0
   -0.6410    0.8640   -2.4622 H   0  0  0  0  0  0  0  0  0  0  0  0
   -2.4036    0.9498   -2.4615 H   0  0  0  0  0  0  0  0  0  0  0  0
   -1.5907   -0.6248   -2.4517 H   0  0  0  0  0  0  0  0  0  0  0  0
   -0.5357   -0.2808   -0.0786 H   0  0  0  0  0  0  0  0  0  0  0  0
   -2.4552   -0.0685   -0.1676 H   0  0  0  0  0  0  0  0  0  0  0  0
   -0.3728    2.4576   -0.3113 H   0  0  0  0  0  0  0  0  0  0  0  0
  1  2  1  0
  1  5  1  0
  2  3  1  0
  2  6  1  0
  3  4  3  0
  4  7  1  0
  8  9  1  0
  8 11  1  0
  8 12  1  0
  8 13  1  0
  9 10  1  0
  9 14  1  0
  9 15  1  0
 10 16  1  0
M  RAD  1   2   2
M  END
>  <reaction>  (12) 
rxn_1897

>  <mol_properties>  (12) 
{"0": {"label": "*0", "atom_type": "S2s"}, "1": {"label": "*1", "atom_type": "Cs"}, "8": {"label": "*3", "atom_type": "Cs"}, "9": {"label": "*4", "atom_type": "S2s"}, "13": {"label": "*2", "atom_type": "H0"}}

>  <type>  (12) 
unop_8

>  <geom_source>  (12) 
Heuristics

$$$$

     RDKit          3D

 16 14  0  0  0  0  0  0  0  0999 V2000
    1.3693   -1.8698   -0.8340 S   0  0  0  0  0  0  0  0  0  0  0  0
    1.0371   -0.5855    0.4179 C   0  0  0  0  0  3  0  0  0  0  0  0
    0.3168   -1.0688    1.5827 C   0  0  0  0  0  0  0  0  0  0  0  0
   -0.2769   -1.4671    2.5426 C   0  0  0  0  0  0  0  0  0  0  0  0
    2.0615   -2.6836   -0.0271 H   0  0  0  0  0  0  0  0  0  0  0  0
    1.9749   -0.1223    0.7235 H   0  0  0  0  0  0  0  0  0  0  0  0
   -0.8043   -1.8210    3.3956 H   0  0  0  0  0  0  0  0  0  0  0  0
   -0.9877    0.7739   -2.0495 C   0  0  0  0  0  0  0  0  0  0  0  0
   -0.9877    0.7739   -0.5308 C   0  0  0  0  0  0  0  0  0  0  0  0
   -0.9877    2.4313    0.2142 S   0  0  0  0  0  0  0  0  0  0  0  0
   -0.0811    1.2393   -2.4402 H   0  0  0  0  0  0  0  0  0  0  0  0
   -1.8437    1.3251   -2.4396 H   0  0  0  0  0  0  0  0  0  0  0  0
   -1.0308   -0.2495   -2.4298 H   0  0  0  0  0  0  0  0  0  0  0  0
    0.0242    0.0946   -0.0567 H   0  0  0  0  0  0  0  0  0  0  0  0
   -1.8953    0.3069   -0.1457 H   0  0  0  0  0  0  0  0  0  0  0  0
    0.1871    2.8329   -0.2894 H   0  0  0  0  0  0  0  0  0  0  0  0
  1  2  1  0
  1  5  1  0
  2  3  1  0
  2  6  1  0
  3  4  3  0
  4  7  1  0
  8  9  1  0
  8 11  1  0
  8 12  1  0
  8 13  1  0
  9 10  1  0
  9 14  1  0
  9 15  1  0
 10 16  1  0
M  RAD  1   2   2
M  END
>  <reaction>  (13) 
rxn_1897

>  <mol_properties>  (13) 
{"0": {"label": "*0", "atom_type": "S2s"}, "1": {"label": "*1", "atom_type": "Cs"}, "8": {"label": "*3", "atom_type": "Cs"}, "9": {"label": "*4", "atom_type": "S2s"}, "13": {"label": "*2", "atom_type": "H0"}}

>  <type>  (13) 
unop_9

>  <geom_source>  (13) 
Heuristics

$$$$

     RDKit          3D

 16 14  0  0  0  0  0  0  0  0999 V2000
    1.9896   -0.0180   -0.1428 S   0  0  0  0  0  0  0  0  0  0  0  0
    0.5098   -0.8628    0.5080 C   0  0  0  0  0  3  0  0  0  0  0  0
    0.7076   -2.2760    0.7778 C   0  0  0  0  0  0  0  0  0  0  0  0
    0.8707   -3.4407    1.0001 C   0  0  0  0  0  0  0  0  0  0  0  0
    2.7859   -0.2987    0.8963 H   0  0  0  0  0  0  0  0  0  0  0  0
    0.1655   -0.3546    1.4082 H   0  0  0  0  0  0  0  0  0  0  0  0
    1.0156   -4.4756    1.1977 H   0  0  0  0  0  0  0  0  0  0  0  0
   -1.5151    0.4966   -1.9594 C   0  0  0  0  0  0  0  0  0  0  0  0
   -1.5151    0.4966   -0.4408 C   0  0  0  0  0  0  0  0  0  0  0  0
   -1.5151    2.1539    0.3042 S   0  0  0  0  0  0  0  0  0  0  0  0
   -0.6084    0.9620   -2.3502 H   0  0  0  0  0  0  0  0  0  0  0  0
   -2.3710    1.0478   -2.3496 H   0  0  0  0  0  0  0  0  0  0  0  0
   -1.5581   -0.5268   -2.3397 H   0  0  0  0  0  0  0  0  0  0  0  0
   -0.5032   -0.1828    0.0333 H   0  0  0  0  0  0  0  0  0  0  0  0
   -2.4227    0.0295   -0.0557 H   0  0  0  0  0  0  0  0  0  0  0  0
   -0.3403    2.5556   -0.1993 H   0  0  0  0  0  0  0  0  0  0  0  0
  1  2  1  0
  1  5  1  0
  2  3  1  0
  2  6  1  0
  3  4  3  0
  4  7  1  0
  8  9  1  0
  8 11  1  0
  8 12  1  0
  8 13  1  0
  9 10  1  0
  9 14  1  0
  9 15  1  0
 10 16  1  0
M  RAD  1   2   2
M  END
>  <reaction>  (14) 
rxn_1897

>  <mol_properties>  (14) 
{"0": {"label": "*0", "atom_type": "S2s"}, "1": {"label": "*1", "atom_type": "Cs"}, "8": {"label": "*3", "atom_type": "Cs"}, "9": {"label": "*4", "atom_type": "S2s"}, "13": {"label": "*2", "atom_type": "H0"}}

>  <type>  (14) 
unop_10

>  <geom_source>  (14) 
Heuristics

$$$$

     RDKit          3D

 16 14  0  0  0  0  0  0  0  0999 V2000
    0.2788   -1.8771    1.6007 S   0  0  0  0  0  0  0  0  0  0  0  0
    0.8655   -1.2096    0.0078 C   0  0  0  0  0  3  0  0  0  0  0  0
    1.5970    0.0394    0.1247 C   0  0  0  0  0  0  0  0  0  0  0  0
    2.2000    1.0689    0.2211 C   0  0  0  0  0  0  0  0  0  0  0  0
    1.4857   -1.9694    2.1729 H   0  0  0  0  0  0  0  0  0  0  0  0
    1.4778   -1.9560   -0.4976 H   0  0  0  0  0  0  0  0  0  0  0  0
    2.7357    1.9836    0.3067 H   0  0  0  0  0  0  0  0  0  0  0  0
   -1.1594    0.1497   -2.4596 C   0  0  0  0  0  0  0  0  0  0  0  0
   -1.1594    0.1497   -0.9410 C   0  0  0  0  0  0  0  0  0  0  0  0
   -1.1594    1.8071   -0.1960 S   0  0  0  0  0  0  0  0  0  0  0  0
   -0.2527    0.6151   -2.8504 H   0  0  0  0  0  0  0  0  0  0  0  0
   -2.0153    0.7009   -2.8497 H   0  0  0  0  0  0  0  0  0  0  0  0
   -1.2024   -0.8736   -2.8399 H   0  0  0  0  0  0  0  0  0  0  0  0
   -0.1475   -0.5296   -0.4668 H   0  0  0  0  0  0  0  0  0  0  0  0
   -2.0670   -0.3173   -0.5558 H   0  0  0  0  0  0  0  0  0  0  0  0
    0.0154    2.2088   -0.6995 H   0  0  0  0  0  0  0  0  0  0  0  0
  1  2  1  0
  1  5  1  0
  2  3  1  0
  2  6  1  0
  3  4  3  0
  4  7  1  0
  8  9  1  0
  8 11  1  0
  8 12  1  0
  8 13  1  0
  9 10  1  0
  9 14  1  0
  9 15  1  0
 10 16  1  0
M  RAD  1   2   2
M  END
>  <reaction>  (15) 
rxn_1897

>  <mol_properties>  (15) 
{"0": {"label": "*0", "atom_type": "S2s"}, "1": {"label": "*1", "atom_type": "Cs"}, "8": {"label": "*3", "atom_type": "Cs"}, "9": {"label": "*4", "atom_type": "S2s"}, "13": {"label": "*2", "atom_type": "H0"}}

>  <type>  (15) 
unop_11

>  <geom_source>  (15) 
Heuristics

$$$$

     RDKit          3D

 16 14  0  0  0  0  0  0  0  0999 V2000
    1.7245   -1.2008   -0.9211 S   0  0  0  0  0  0  0  0  0  0  0  0
    0.8301   -0.6004    0.5509 C   0  0  0  0  0  3  0  0  0  0  0  0
    0.3576   -1.6581    1.4266 C   0  0  0  0  0  0  0  0  0  0  0  0
   -0.0319   -2.5299    2.1485 C   0  0  0  0  0  0  0  0  0  0  0  0
    2.6775   -1.8620   -0.2524 H   0  0  0  0  0  0  0  0  0  0  0  0
    1.4637    0.0903    1.1065 H   0  0  0  0  0  0  0  0  0  0  0  0
   -0.3779   -3.3045    2.7898 H   0  0  0  0  0  0  0  0  0  0  0  0
   -1.1947    0.7589   -1.9165 C   0  0  0  0  0  0  0  0  0  0  0  0
   -1.1947    0.7589   -0.3979 C   0  0  0  0  0  0  0  0  0  0  0  0
   -1.1947    2.4163    0.3471 S   0  0  0  0  0  0  0  0  0  0  0  0
   -0.2881    1.2244   -2.3073 H   0  0  0  0  0  0  0  0  0  0  0  0
   -2.0507    1.3101   -2.3067 H   0  0  0  0  0  0  0  0  0  0  0  0
   -1.2378   -0.2644   -2.2968 H   0  0  0  0  0  0  0  0  0  0  0  0
   -0.1828    0.0796    0.0762 H   0  0  0  0  0  0  0  0  0  0  0  0
   -2.1023    0.2919   -0.0128 H   0  0  0  0  0  0  0  0  0  0  0  0
   -0.0199    2.8180   -0.1564 H   0  0  0  0  0  0  0  0  0  0  0  0
  1  2  1  0
  1  5  1  0
  2  3  1  0
  2  6  1  0
  3  4  3  0
  4  7  1  0
  8  9  1  0
  8 11  1  0
  8 12  1  0
  8 13  1  0
  9 10  1  0
  9 14  1  0
  9 15  1  0
 10 16  1  0
M  RAD  1   2   2
M  END
>  <reaction>  (16) 
rxn_1897

>  <mol_properties>  (16) 
{"0": {"label": "*0", "atom_type": "S2s"}, "1": {"label": "*1", "atom_type": "Cs"}, "8": {"label": "*3", "atom_type": "Cs"}, "9": {"label": "*4", "atom_type": "S2s"}, "13": {"label": "*2", "atom_type": "H0"}}

>  <type>  (16) 
unop_12

>  <geom_source>  (16) 
Heuristics

$$$$

     RDKit          3D

 16 14  0  0  0  0  0  0  0  0999 V2000
   -1.1708   -1.0685   -1.6152 S   0  0  0  0  0  0  0  0  0  0  0  0
    2.1146    1.0689    1.5465 S   0  0  0  0  0  0  0  0  0  0  0  0
   -1.1697    0.0647   -0.1954 C   0  0  0  0  0  0  0  0  0  0  0  0
    1.9420    0.5279   -1.1394 C   0  0  0  0  0  0  0  0  0  0  0  0
    1.4251    0.0512    0.2075 C   0  0  0  0  0  3  0  0  0  0  0  0
   -2.1031   -0.4167    0.8248 C   0  0  0  0  0  0  0  0  0  0  0  0
   -2.8713   -0.8123    1.6654 C   0  0  0  0  0  0  0  0  0  0  0  0
   -1.4724    1.0795   -0.5272 H   0  0  0  0  0  0  0  0  0  0  0  0
    0.0736    0.1202    0.3296 H   0  0  0  0  0  0  0  0  0  0  0  0
    3.0488    0.4435   -1.1780 H   0  0  0  0  0  0  0  0  0  0  0  0
    1.5035   -0.0977   -1.9444 H   0  0  0  0  0  0  0  0  0  0  0  0
    1.6448    1.5845   -1.3064 H   0  0  0  0  0  0  0  0  0  0  0  0
    1.7059   -1.0115    0.3664 H   0  0  0  0  0  0  0  0  0  0  0  0
   -2.4992   -0.7558   -1.9641 H   0  0  0  0  0  0  0  0  0  0  0  0
    1.3739    0.3819    2.5265 H   0  0  0  0  0  0  0  0  0  0  0  0
   -3.5458   -1.1597    2.4033 H   0  0  0  0  0  0  0  0  0  0  0  0
  1  3  1  0
  1 14  1  0
  2  5  1  0
  2 15  1  0
  3  6  1  0
  3  8  1  0
  3  9  1  0
  4  5  1  0
  4 10  1  0
  4 11  1  0
  4 12  1  0
  5 13  1  0
  6  7  3  0
  7 16  1  0
M  RAD  1   5   2
M  END
>  <reaction>  (17) 
rxn_1897

>  <mol_properties>  (17) 
{"0": {"label": "*0", "atom_type": "S2s"}, "1": {"label": "*1", "atom_type": "Cs"}, "8": {"label": "*3", "atom_type": "Cs"}, "9": {"label": "*4", "atom_type": "S2s"}, "13": {"label": "*2", "atom_type": "H0"}}

>  <type>  (17) 
unop_13

>  <geom_source>  (17) 
AutoTST

$$$$
