
     RDKit          3D

 22 23  0  0  0  0  0  0  0  0999 V2000
   -2.1093   -0.3263    0.3079 C   0  0  0  0  0  0  0  0  0  0  0  0
   -1.3270    0.9803    0.4115 C   0  0  0  0  0  0  0  0  0  0  0  0
   -0.1818    0.8289   -0.6044 C   0  0  0  0  0  0  0  0  0  0  0  0
    1.1682    1.3904   -0.1341 C   0  0  0  0  0  0  0  0  0  0  0  0
    1.8508    0.2041    0.5479 C   0  0  0  0  0  0  0  0  0  0  0  0
    1.4982   -0.9663   -0.3710 C   0  0  0  0  0  0  0  0  0  0  0  0
    0.0340   -0.7124   -0.7594 C   0  0  0  0  0  0  0  0  0  0  0  0
   -0.9986   -1.3650    0.1756 C   0  0  0  0  0  0  0  0  0  0  0  0
   -2.7686   -0.5042    1.1589 H   0  0  0  0  0  0  0  0  0  0  0  0
   -2.7285   -0.3223   -0.5943 H   0  0  0  0  0  0  0  0  0  0  0  0
   -1.9339    1.8682    0.2289 H   0  0  0  0  0  0  0  0  0  0  0  0
   -0.9144    1.0729    1.4218 H   0  0  0  0  0  0  0  0  0  0  0  0
   -0.4804    1.2763   -1.5535 H   0  0  0  0  0  0  0  0  0  0  0  0
    1.7667    1.7058   -0.9931 H   0  0  0  0  0  0  0  0  0  0  0  0
    1.0540    2.2578    0.5189 H   0  0  0  0  0  0  0  0  0  0  0  0
    1.4197    0.0438    1.5410 H   0  0  0  0  0  0  0  0  0  0  0  0
    2.9248    0.3413    0.6788 H   0  0  0  0  0  0  0  0  0  0  0  0
    2.1362   -0.9329   -1.2584 H   0  0  0  0  0  0  0  0  0  0  0  0
    1.6421   -1.9421    0.0966 H   0  0  0  0  0  0  0  0  0  0  0  0
   -0.1575   -1.0299   -1.7854 H   0  0  0  0  0  0  0  0  0  0  0  0
   -1.3459   -2.3310   -0.1933 H   0  0  0  0  0  0  0  0  0  0  0  0
   -0.5489   -1.5373    1.1593 H   0  0  0  0  0  0  0  0  0  0  0  0
  1  2  1  0
  1  8  1  0
  1  9  1  0
  1 10  1  0
  2  3  1  0
  2 11  1  0
  2 12  1  0
  3  4  1  0
  3  7  1  0
  3 13  1  0
  4  5  1  0
  4 14  1  0
  4 15  1  0
  5  6  1  0
  5 16  1  0
  5 17  1  0
  6  7  1  0
  6 18  1  0
  6 19  1  0
  7  8  1  0
  7 20  1  0
  8 21  1  0
  8 22  1  0
M  END
>  <reaction>  (1) 
rxn_561

>  <mol_properties>  (1) 
{"2": {"label": "donator", "atom_type": "Cs"}, "12": {"label": "d_hydrogen", "atom_type": "H0"}}

>  <type>  (1) 
r1h

$$$$

     RDKit          3D

 14 13  0  0  0  0  0  0  0  0999 V2000
    1.0767   -1.6838    1.2931 C   0  0  0  0  0  0  0  0  0  0  0  0
    1.0020   -0.3665    0.9163 C   0  0  0  0  0  0  0  0  0  0  0  0
    1.3965    0.7260    1.6806 C   0  0  0  0  0  3  0  0  0  0  0  0
    1.2666    2.1197    1.1619 C   0  0  0  0  0  0  0  0  0  0  0  0
    1.9670    0.5479    3.0536 C   0  0  0  0  0  0  0  0  0  0  0  0
    0.7448   -2.4705    0.6300 H   0  0  0  0  0  0  0  0  0  0  0  0
    1.4663   -1.9826    2.2578 H   0  0  0  0  0  0  0  0  0  0  0  0
    0.5980   -0.1511   -0.0695 H   0  0  0  0  0  0  0  0  0  0  0  0
    0.6296    2.7241    1.8172 H   0  0  0  0  0  0  0  0  0  0  0  0
    2.2410    2.6200    1.1341 H   0  0  0  0  0  0  0  0  0  0  0  0
    0.8426    2.1448    0.1579 H   0  0  0  0  0  0  0  0  0  0  0  0
    2.8745   -0.0634    3.0328 H   0  0  0  0  0  0  0  0  0  0  0  0
    1.2599    0.0408    3.7173 H   0  0  0  0  0  0  0  0  0  0  0  0
    2.2205    1.5071    3.5054 H   0  0  0  0  0  0  0  0  0  0  0  0
  1  2  2  3
  1  6  1  0
  1  7  1  0
  2  3  1  0
  2  8  1  0
  3  4  1  0
  3  5  1  0
  4  9  1  0
  4 10  1  0
  4 11  1  0
  5 12  1  0
  5 13  1  0
  5 14  1  0
M  RAD  1   3   2
M  END
>  <reaction>  (2) 
rxn_561

>  <mol_properties>  (2) 
{"2": {"label": "acceptor", "atom_type": "Cs"}}

>  <type>  (2) 
r2

$$$$

     RDKit          3D

 15 14  0  0  0  0  0  0  0  0999 V2000
    2.1256    0.4849   -0.6284 C   0  0  0  0  0  0  0  0  0  0  0  0
    1.1128    0.2141    0.1794 C   0  0  0  0  0  0  0  0  0  0  0  0
   -0.3017   -0.0425   -0.2513 C   0  0  0  0  0  0  0  0  0  0  0  0
   -1.2427    1.0075    0.3423 C   0  0  0  0  0  0  0  0  0  0  0  0
   -0.7381   -1.4526    0.1504 C   0  0  0  0  0  0  0  0  0  0  0  0
    3.1243    0.6602   -0.2486 H   0  0  0  0  0  0  0  0  0  0  0  0
    1.9908    0.5411   -1.7036 H   0  0  0  0  0  0  0  0  0  0  0  0
    1.2888    0.1665    1.2533 H   0  0  0  0  0  0  0  0  0  0  0  0
   -0.3426    0.0343   -1.3424 H   0  0  0  0  0  0  0  0  0  0  0  0
   -0.9570    2.0133    0.0315 H   0  0  0  0  0  0  0  0  0  0  0  0
   -1.2189    0.9728    1.4350 H   0  0  0  0  0  0  0  0  0  0  0  0
   -2.2723    0.8287    0.0254 H   0  0  0  0  0  0  0  0  0  0  0  0
   -0.6964   -1.5744    1.2363 H   0  0  0  0  0  0  0  0  0  0  0  0
   -0.0911   -2.2079   -0.2978 H   0  0  0  0  0  0  0  0  0  0  0  0
   -1.7646   -1.6461   -0.1677 H   0  0  0  0  0  0  0  0  0  0  0  0
  1  2  2  3
  1  6  1  0
  1  7  1  0
  2  3  1  0
  2  8  1  0
  3  4  1  0
  3  5  1  0
  3  9  1  0
  4 10  1  0
  4 11  1  0
  4 12  1  0
  5 13  1  0
  5 14  1  0
  5 15  1  0
M  END
>  <reaction>  (3) 
rxn_561

>  <mol_properties>  (3) 
{"2": {"label": "acceptor", "atom_type": "Cs"}, "14": {"label": "a_hydrogen", "atom_type": "H0"}}

>  <type>  (3) 
r2h

$$$$

     RDKit          3D

 36 36  0  0  0  0  0  0  0  0999 V2000
   -1.8860   -2.1122    2.4548 C   0  0  0  0  0  0  0  0  0  0  0  0
   -1.8525   -0.8705    1.9719 C   0  0  0  0  0  0  0  0  0  0  0  0
   -1.8242   -0.4683    0.5573 C   0  0  0  0  0  0  0  0  0  0  0  0
   -2.5800    0.8133    0.2636 C   0  0  0  0  0  0  0  0  0  0  0  0
   -2.0649   -1.5623   -0.4585 C   0  0  0  0  0  0  0  0  0  0  0  0
   -1.8659   -2.2957    3.5213 H   0  0  0  0  0  0  0  0  0  0  0  0
   -1.9426   -2.9817    1.8111 H   0  0  0  0  0  0  0  0  0  0  0  0
   -1.8058   -0.0479    2.6827 H   0  0  0  0  0  0  0  0  0  0  0  0
   -2.3302    1.1956   -0.7287 H   0  0  0  0  0  0  0  0  0  0  0  0
   -3.6624    0.6499    0.2938 H   0  0  0  0  0  0  0  0  0  0  0  0
   -2.3418    1.5904    0.9928 H   0  0  0  0  0  0  0  0  0  0  0  0
   -3.0789   -1.9666   -0.3737 H   0  0  0  0  0  0  0  0  0  0  0  0
   -1.3643   -2.3898   -0.3321 H   0  0  0  0  0  0  0  0  0  0  0  0
   -1.9416   -1.1764   -1.4723 H   0  0  0  0  0  0  0  0  0  0  0  0
    1.6632   -1.4753   -1.3718 C   0  0  0  0  0  0  0  0  0  0  0  0
    1.4997   -1.0850    0.1011 C   0  0  0  0  0  0  0  0  0  0  0  0
    0.7248    0.2172    0.0601 C   0  0  0  0  0  3  0  0  0  0  0  0
    1.0771    1.3461    1.0059 C   0  0  0  0  0  0  0  0  0  0  0  0
    1.8493    2.3308    0.1164 C   0  0  0  0  0  0  0  0  0  0  0  0
    1.1171    2.2477   -1.2264 C   0  0  0  0  0  0  0  0  0  0  0  0
    0.7594    0.7614   -1.3725 C   0  0  0  0  0  0  0  0  0  0  0  0
    1.7974   -0.1256   -2.0772 C   0  0  0  0  0  0  0  0  0  0  0  0
    2.5090   -2.1410   -1.5472 H   0  0  0  0  0  0  0  0  0  0  0  0
    0.7624   -1.9863   -1.7233 H   0  0  0  0  0  0  0  0  0  0  0  0
    1.0044   -1.8534    0.7007 H   0  0  0  0  0  0  0  0  0  0  0  0
    2.4838   -0.9178    0.5570 H   0  0  0  0  0  0  0  0  0  0  0  0
   -0.6037   -0.1387    0.3570 H   0  0  0  0  0  0  0  0  0  0  0  0
    0.1704    1.8311    1.3858 H   0  0  0  0  0  0  0  0  0  0  0  0
    1.6469    1.0064    1.8722 H   0  0  0  0  0  0  0  0  0  0  0  0
    2.8811    1.9865    0.0005 H   0  0  0  0  0  0  0  0  0  0  0  0
    1.8867    3.3424    0.5228 H   0  0  0  0  0  0  0  0  0  0  0  0
    0.2041    2.8475   -1.1803 H   0  0  0  0  0  0  0  0  0  0  0  0
    1.7108    2.6208   -2.0628 H   0  0  0  0  0  0  0  0  0  0  0  0
   -0.2055    0.6389   -1.8744 H   0  0  0  0  0  0  0  0  0  0  0  0
    1.6457   -0.1810   -3.1561 H   0  0  0  0  0  0  0  0  0  0  0  0
    2.8012    0.2781   -1.9062 H   0  0  0  0  0  0  0  0  0  0  0  0
  1  2  2  3
  1  6  1  0
  1  7  1  0
  2  3  1  0
  2  8  1  0
  3  4  1  0
  3  5  1  0
  3 27  1  0
  4  9  1  0
  4 10  1  0
  4 11  1  0
  5 12  1  0
  5 13  1  0
  5 14  1  0
 15 22  1  0
 15 16  1  0
 15 23  1  0
 15 24  1  0
 16 17  1  0
 16 25  1  0
 16 26  1  0
 17 18  1  0
 17 21  1  0
 18 19  1  0
 18 28  1  0
 18 29  1  0
 19 20  1  0
 19 30  1  0
 19 31  1  0
 20 21  1  0
 20 32  1  0
 20 33  1  0
 21 22  1  0
 21 34  1  0
 22 35  1  0
 22 36  1  0
M  RAD  1  17   2
M  END
>  <reaction>  (4) 
rxn_561

>  <mol_properties>  (4) 
{"1": {"label": "*0", "atom_type": "Cd"}, "2": {"label": "*1", "atom_type": "Cs"}, "16": {"label": "*3", "atom_type": "Cs"}, "20": {"label": "*4", "atom_type": "Cs"}, "26": {"label": "*2", "atom_type": "H0"}}

>  <type>  (4) 
ts

$$$$

     RDKit          3D

 36 36  0  0  0  0  0  0  0  0999 V2000
   -1.3688   -0.7144    2.8884 C   0  0  0  0  0  0  0  0  0  0  0  0
   -2.1759   -0.6819    1.8400 C   0  0  0  0  0  0  0  0  0  0  0  0
   -1.7786   -0.9809    0.4240 C   0  0  0  0  0  3  0  0  0  0  0  0
   -1.9970    0.2446   -0.4653 C   0  0  0  0  0  0  0  0  0  0  0  0
   -2.5570   -2.1851   -0.1094 C   0  0  0  0  0  0  0  0  0  0  0  0
   -1.7235   -0.4866    3.8858 H   0  0  0  0  0  0  0  0  0  0  0  0
   -0.3197   -0.9713    2.7855 H   0  0  0  0  0  0  0  0  0  0  0  0
   -3.2231   -0.4194    1.9845 H   0  0  0  0  0  0  0  0  0  0  0  0
   -1.7021    0.0335   -1.4953 H   0  0  0  0  0  0  0  0  0  0  0  0
   -3.0517    0.5329   -0.4722 H   0  0  0  0  0  0  0  0  0  0  0  0
   -1.4175    1.0977   -0.1096 H   0  0  0  0  0  0  0  0  0  0  0  0
   -3.6315   -1.9828   -0.1037 H   0  0  0  0  0  0  0  0  0  0  0  0
   -2.3784   -3.0714    0.5011 H   0  0  0  0  0  0  0  0  0  0  0  0
   -2.2655   -2.4106   -1.1373 H   0  0  0  0  0  0  0  0  0  0  0  0
    1.5787   -1.1214   -1.8887 C   0  0  0  0  0  0  0  0  0  0  0  0
    1.5787   -1.1214   -0.3623 C   0  0  0  0  0  0  0  0  0  0  0  0
    0.6154    0.0133    0.0261 C   0  0  0  0  0  0  0  0  0  0  0  0
    1.0681    0.8519    1.2305 C   0  0  0  0  0  0  0  0  0  0  0  0
    1.8801    1.9901    0.6111 C   0  0  0  0  0  0  0  0  0  0  0  0
    1.0681    2.3497   -0.6338 C   0  0  0  0  0  0  0  0  0  0  0  0
    0.6154    0.9929   -1.1932 C   0  0  0  0  0  0  0  0  0  0  0  0
    1.5787    0.3692   -2.2176 C   0  0  0  0  0  0  0  0  0  0  0  0
    2.4236   -1.6596   -2.3211 H   0  0  0  0  0  0  0  0  0  0  0  0
    0.6629   -1.5882   -2.2638 H   0  0  0  0  0  0  0  0  0  0  0  0
    1.2944   -2.0798    0.0743 H   0  0  0  0  0  0  0  0  0  0  0  0
    2.5869   -0.8888   -0.0030 H   0  0  0  0  0  0  0  0  0  0  0  0
   -0.5797   -0.4830    0.2247 H   0  0  0  0  0  0  0  0  0  0  0  0
    0.2003    1.2687    1.7489 H   0  0  0  0  0  0  0  0  0  0  0  0
    1.6312    0.2652    1.9588 H   0  0  0  0  0  0  0  0  0  0  0  0
    2.8712    1.6283    0.3204 H   0  0  0  0  0  0  0  0  0  0  0  0
    2.0280    2.8324    1.2879 H   0  0  0  0  0  0  0  0  0  0  0  0
    0.2003    2.9458   -0.3385 H   0  0  0  0  0  0  0  0  0  0  0  0
    1.6312    2.9345   -1.3636 H   0  0  0  0  0  0  0  0  0  0  0  0
   -0.3805    1.0655   -1.6327 H   0  0  0  0  0  0  0  0  0  0  0  0
    1.2944    0.5891   -3.2475 H   0  0  0  0  0  0  0  0  0  0  0  0
    2.5869    0.7701   -2.0679 H   0  0  0  0  0  0  0  0  0  0  0  0
  1  2  2  3
  1  6  1  0
  1  7  1  0
  2  3  1  0
  2  8  1  0
  3  4  1  0
  3  5  1  0
  4  9  1  0
  4 10  1  0
  4 11  1  0
  5 12  1  0
  5 13  1  0
  5 14  1  0
 15 16  1  0
 15 22  1  0
 15 23  1  0
 15 24  1  0
 16 17  1  0
 16 25  1  0
 16 26  1  0
 17 18  1  0
 17 21  1  0
 17 27  1  0
 18 19  1  0
 18 28  1  0
 18 29  1  0
 19 20  1  0
 19 30  1  0
 19 31  1  0
 20 21  1  0
 20 32  1  0
 20 33  1  0
 21 22  1  0
 21 34  1  0
 22 35  1  0
 22 36  1  0
M  RAD  1   3   2
M  END
>  <reaction>  (5) 
rxn_561

>  <mol_properties>  (5) 
{"1": {"label": "*0", "atom_type": "Cd"}, "2": {"label": "*1", "atom_type": "Cs"}, "16": {"label": "*3", "atom_type": "Cs"}, "20": {"label": "*4", "atom_type": "Cs"}, "26": {"label": "*2", "atom_type": "H0"}}

>  <type>  (5) 
unop_1

>  <geom_source>  (5) 
Heuristics

$$$$

     RDKit          3D

 36 36  0  0  0  0  0  0  0  0999 V2000
   -0.6015   -2.8963    0.8977 C   0  0  0  0  0  0  0  0  0  0  0  0
   -1.6935   -2.1580    1.0162 C   0  0  0  0  0  0  0  0  0  0  0  0
   -1.8520   -0.7498    0.5222 C   0  0  0  0  0  3  0  0  0  0  0  0
   -2.1352    0.1996    1.6878 C   0  0  0  0  0  0  0  0  0  0  0  0
   -2.9634   -0.6702   -0.5260 C   0  0  0  0  0  0  0  0  0  0  0  0
   -0.5560   -3.9089    1.2786 H   0  0  0  0  0  0  0  0  0  0  0  0
    0.2900   -2.5119    0.4132 H   0  0  0  0  0  0  0  0  0  0  0  0
   -2.5683   -2.5800    1.5093 H   0  0  0  0  0  0  0  0  0  0  0  0
   -2.2440    1.2268    1.3335 H   0  0  0  0  0  0  0  0  0  0  0  0
   -3.0631   -0.0787    2.1950 H   0  0  0  0  0  0  0  0  0  0  0  0
   -1.3293    0.1728    2.4225 H   0  0  0  0  0  0  0  0  0  0  0  0
   -3.9206   -0.9793   -0.0972 H   0  0  0  0  0  0  0  0  0  0  0  0
   -2.7504   -1.3197   -1.3762 H   0  0  0  0  0  0  0  0  0  0  0  0
   -3.0771    0.3518   -0.8936 H   0  0  0  0  0  0  0  0  0  0  0  0
    1.5053   -0.8903   -1.7906 C   0  0  0  0  0  0  0  0  0  0  0  0
    1.5053   -0.8903   -0.2642 C   0  0  0  0  0  0  0  0  0  0  0  0
    0.5420    0.2445    0.1242 C   0  0  0  0  0  0  0  0  0  0  0  0
    0.9948    1.0830    1.3286 C   0  0  0  0  0  0  0  0  0  0  0  0
    1.8067    2.2212    0.7093 C   0  0  0  0  0  0  0  0  0  0  0  0
    0.9948    2.5808   -0.5356 C   0  0  0  0  0  0  0  0  0  0  0  0
    0.5420    1.2240   -1.0950 C   0  0  0  0  0  0  0  0  0  0  0  0
    1.5053    0.6003   -2.1195 C   0  0  0  0  0  0  0  0  0  0  0  0
    2.3502   -1.4285   -2.2230 H   0  0  0  0  0  0  0  0  0  0  0  0
    0.5895   -1.3571   -2.1657 H   0  0  0  0  0  0  0  0  0  0  0  0
    1.2210   -1.8486    0.1724 H   0  0  0  0  0  0  0  0  0  0  0  0
    2.5135   -0.6577    0.0951 H   0  0  0  0  0  0  0  0  0  0  0  0
   -0.6530   -0.2519    0.3229 H   0  0  0  0  0  0  0  0  0  0  0  0
    0.1269    1.4998    1.8471 H   0  0  0  0  0  0  0  0  0  0  0  0
    1.5578    0.4963    2.0569 H   0  0  0  0  0  0  0  0  0  0  0  0
    2.7979    1.8594    0.4185 H   0  0  0  0  0  0  0  0  0  0  0  0
    1.9547    3.0635    1.3860 H   0  0  0  0  0  0  0  0  0  0  0  0
    0.1269    3.1769   -0.2403 H   0  0  0  0  0  0  0  0  0  0  0  0
    1.5578    3.1656   -1.2655 H   0  0  0  0  0  0  0  0  0  0  0  0
   -0.4539    1.2966   -1.5346 H   0  0  0  0  0  0  0  0  0  0  0  0
    1.2210    0.8202   -3.1494 H   0  0  0  0  0  0  0  0  0  0  0  0
    2.5135    1.0013   -1.9698 H   0  0  0  0  0  0  0  0  0  0  0  0
  1  2  2  3
  1  6  1  0
  1  7  1  0
  2  3  1  0
  2  8  1  0
  3  4  1  0
  3  5  1  0
  4  9  1  0
  4 10  1  0
  4 11  1  0
  5 12  1  0
  5 13  1  0
  5 14  1  0
 15 16  1  0
 15 22  1  0
 15 23  1  0
 15 24  1  0
 16 17  1  0
 16 25  1  0
 16 26  1  0
 17 18  1  0
 17 21  1  0
 17 27  1  0
 18 19  1  0
 18 28  1  0
 18 29  1  0
 19 20  1  0
 19 30  1  0
 19 31  1  0
 20 21  1  0
 20 32  1  0
 20 33  1  0
 21 22  1  0
 21 34  1  0
 22 35  1  0
 22 36  1  0
M  RAD  1   3   2
M  END
>  <reaction>  (6) 
rxn_561

>  <mol_properties>  (6) 
{"1": {"label": "*0", "atom_type": "Cd"}, "2": {"label": "*1", "atom_type": "Cs"}, "16": {"label": "*3", "atom_type": "Cs"}, "20": {"label": "*4", "atom_type": "Cs"}, "26": {"label": "*2", "atom_type": "H0"}}

>  <type>  (6) 
unop_2

>  <geom_source>  (6) 
Heuristics

$$$$

     RDKit          3D

 36 36  0  0  0  0  0  0  0  0999 V2000
   -1.8336    0.5250    2.4437 C   0  0  0  0  0  0  0  0  0  0  0  0
   -2.4336   -0.1867    1.5029 C   0  0  0  0  0  0  0  0  0  0  0  0
   -1.7416   -1.0382    0.4790 C   0  0  0  0  0  3  0  0  0  0  0  0
   -2.0426   -0.5317   -0.9329 C   0  0  0  0  0  0  0  0  0  0  0  0
   -2.1553   -2.5032    0.6305 C   0  0  0  0  0  0  0  0  0  0  0  0
   -2.3965    1.1192    3.1525 H   0  0  0  0  0  0  0  0  0  0  0  0
   -0.7528    0.5384    2.5385 H   0  0  0  0  0  0  0  0  0  0  0  0
   -3.5210   -0.1741    1.4404 H   0  0  0  0  0  0  0  0  0  0  0  0
   -1.5350   -1.1443   -1.6809 H   0  0  0  0  0  0  0  0  0  0  0  0
   -3.1158   -0.5758   -1.1376 H   0  0  0  0  0  0  0  0  0  0  0  0
   -1.7186    0.5024   -1.0578 H   0  0  0  0  0  0  0  0  0  0  0  0
   -3.2325   -2.6171    0.4810 H   0  0  0  0  0  0  0  0  0  0  0  0
   -1.9120   -2.8805    1.6247 H   0  0  0  0  0  0  0  0  0  0  0  0
   -1.6483   -3.1275   -0.1082 H   0  0  0  0  0  0  0  0  0  0  0  0
    1.6157   -1.1787   -1.8338 C   0  0  0  0  0  0  0  0  0  0  0  0
    1.6157   -1.1787   -0.3074 C   0  0  0  0  0  0  0  0  0  0  0  0
    0.6524   -0.0439    0.0810 C   0  0  0  0  0  0  0  0  0  0  0  0
    1.1051    0.7946    1.2854 C   0  0  0  0  0  0  0  0  0  0  0  0
    1.9171    1.9328    0.6660 C   0  0  0  0  0  0  0  0  0  0  0  0
    1.1051    2.2924   -0.5789 C   0  0  0  0  0  0  0  0  0  0  0  0
    0.6524    0.9356   -1.1382 C   0  0  0  0  0  0  0  0  0  0  0  0
    1.6157    0.3119   -2.1627 C   0  0  0  0  0  0  0  0  0  0  0  0
    2.4606   -1.7169   -2.2662 H   0  0  0  0  0  0  0  0  0  0  0  0
    0.6999   -1.6455   -2.2089 H   0  0  0  0  0  0  0  0  0  0  0  0
    1.3314   -2.1370    0.1292 H   0  0  0  0  0  0  0  0  0  0  0  0
    2.6239   -0.9461    0.0519 H   0  0  0  0  0  0  0  0  0  0  0  0
   -0.5427   -0.5403    0.2796 H   0  0  0  0  0  0  0  0  0  0  0  0
    0.2373    1.2114    1.8038 H   0  0  0  0  0  0  0  0  0  0  0  0
    1.6682    0.2079    2.0137 H   0  0  0  0  0  0  0  0  0  0  0  0
    2.9082    1.5710    0.3753 H   0  0  0  0  0  0  0  0  0  0  0  0
    2.0650    2.7751    1.3428 H   0  0  0  0  0  0  0  0  0  0  0  0
    0.2373    2.8885   -0.2835 H   0  0  0  0  0  0  0  0  0  0  0  0
    1.6682    2.8772   -1.3087 H   0  0  0  0  0  0  0  0  0  0  0  0
   -0.3435    1.0082   -1.5778 H   0  0  0  0  0  0  0  0  0  0  0  0
    1.3314    0.5318   -3.1926 H   0  0  0  0  0  0  0  0  0  0  0  0
    2.6239    0.7129   -2.0130 H   0  0  0  0  0  0  0  0  0  0  0  0
  1  2  2  3
  1  6  1  0
  1  7  1  0
  2  3  1  0
  2  8  1  0
  3  4  1  0
  3  5  1  0
  4  9  1  0
  4 10  1  0
  4 11  1  0
  5 12  1  0
  5 13  1  0
  5 14  1  0
 15 16  1  0
 15 22  1  0
 15 23  1  0
 15 24  1  0
 16 17  1  0
 16 25  1  0
 16 26  1  0
 17 18  1  0
 17 21  1  0
 17 27  1  0
 18 19  1  0
 18 28  1  0
 18 29  1  0
 19 20  1  0
 19 30  1  0
 19 31  1  0
 20 21  1  0
 20 32  1  0
 20 33  1  0
 21 22  1  0
 21 34  1  0
 22 35  1  0
 22 36  1  0
M  RAD  1   3   2
M  END
>  <reaction>  (7) 
rxn_561

>  <mol_properties>  (7) 
{"1": {"label": "*0", "atom_type": "Cd"}, "2": {"label": "*1", "atom_type": "Cs"}, "16": {"label": "*3", "atom_type": "Cs"}, "20": {"label": "*4", "atom_type": "Cs"}, "26": {"label": "*2", "atom_type": "H0"}}

>  <type>  (7) 
unop_3

>  <geom_source>  (7) 
Heuristics

$$$$

     RDKit          3D

 36 36  0  0  0  0  0  0  0  0999 V2000
   -1.4309   -2.0946   -1.3998 C   0  0  0  0  0  0  0  0  0  0  0  0
   -2.2214   -1.5088   -0.5146 C   0  0  0  0  0  0  0  0  0  0  0  0
   -1.7713   -0.8578    0.7605 C   0  0  0  0  0  3  0  0  0  0  0  0
   -2.3904   -1.5606    1.9700 C   0  0  0  0  0  0  0  0  0  0  0  0
   -2.1244    0.6307    0.7573 C   0  0  0  0  0  0  0  0  0  0  0  0
   -1.8242   -2.5461   -2.3019 H   0  0  0  0  0  0  0  0  0  0  0  0
   -0.3570   -2.1434   -1.2525 H   0  0  0  0  0  0  0  0  0  0  0  0
   -3.2946   -1.4804   -0.6986 H   0  0  0  0  0  0  0  0  0  0  0  0
   -2.0596   -1.0945    2.9005 H   0  0  0  0  0  0  0  0  0  0  0  0
   -3.4815   -1.4987    1.9351 H   0  0  0  0  0  0  0  0  0  0  0  0
   -2.1141   -2.6156    1.9967 H   0  0  0  0  0  0  0  0  0  0  0  0
   -3.2061    0.7702    0.6795 H   0  0  0  0  0  0  0  0  0  0  0  0
   -1.6576    1.1446   -0.0842 H   0  0  0  0  0  0  0  0  0  0  0  0
   -1.7920    1.1099    1.6805 H   0  0  0  0  0  0  0  0  0  0  0  0
    1.5860   -0.9983   -1.5523 C   0  0  0  0  0  0  0  0  0  0  0  0
    1.5860   -0.9983   -0.0259 C   0  0  0  0  0  0  0  0  0  0  0  0
    0.6227    0.1365    0.3625 C   0  0  0  0  0  0  0  0  0  0  0  0
    1.0754    0.9751    1.5669 C   0  0  0  0  0  0  0  0  0  0  0  0
    1.8874    2.1133    0.9475 C   0  0  0  0  0  0  0  0  0  0  0  0
    1.0754    2.4729   -0.2974 C   0  0  0  0  0  0  0  0  0  0  0  0
    0.6227    1.1161   -0.8567 C   0  0  0  0  0  0  0  0  0  0  0  0
    1.5860    0.4923   -1.8812 C   0  0  0  0  0  0  0  0  0  0  0  0
    2.4309   -1.5364   -1.9847 H   0  0  0  0  0  0  0  0  0  0  0  0
    0.6702   -1.4651   -1.9274 H   0  0  0  0  0  0  0  0  0  0  0  0
    1.3017   -1.9566    0.4107 H   0  0  0  0  0  0  0  0  0  0  0  0
    2.5942   -0.7657    0.3334 H   0  0  0  0  0  0  0  0  0  0  0  0
   -0.5724   -0.3598    0.5612 H   0  0  0  0  0  0  0  0  0  0  0  0
    0.2076    1.3919    2.0854 H   0  0  0  0  0  0  0  0  0  0  0  0
    1.6385    0.3883    2.2952 H   0  0  0  0  0  0  0  0  0  0  0  0
    2.8786    1.7514    0.6568 H   0  0  0  0  0  0  0  0  0  0  0  0
    2.0354    2.9556    1.6243 H   0  0  0  0  0  0  0  0  0  0  0  0
    0.2076    3.0689   -0.0020 H   0  0  0  0  0  0  0  0  0  0  0  0
    1.6385    3.0576   -1.0272 H   0  0  0  0  0  0  0  0  0  0  0  0
   -0.3732    1.1886   -1.2963 H   0  0  0  0  0  0  0  0  0  0  0  0
    1.3017    0.7122   -2.9111 H   0  0  0  0  0  0  0  0  0  0  0  0
    2.5942    0.8933   -1.7315 H   0  0  0  0  0  0  0  0  0  0  0  0
  1  2  2  3
  1  6  1  0
  1  7  1  0
  2  3  1  0
  2  8  1  0
  3  4  1  0
  3  5  1  0
  4  9  1  0
  4 10  1  0
  4 11  1  0
  5 12  1  0
  5 13  1  0
  5 14  1  0
 15 16  1  0
 15 22  1  0
 15 23  1  0
 15 24  1  0
 16 17  1  0
 16 25  1  0
 16 26  1  0
 17 18  1  0
 17 21  1  0
 17 27  1  0
 18 19  1  0
 18 28  1  0
 18 29  1  0
 19 20  1  0
 19 30  1  0
 19 31  1  0
 20 21  1  0
 20 32  1  0
 20 33  1  0
 21 22  1  0
 21 34  1  0
 22 35  1  0
 22 36  1  0
M  RAD  1   3   2
M  END
>  <reaction>  (8) 
rxn_561

>  <mol_properties>  (8) 
{"1": {"label": "*0", "atom_type": "Cd"}, "2": {"label": "*1", "atom_type": "Cs"}, "16": {"label": "*3", "atom_type": "Cs"}, "20": {"label": "*4", "atom_type": "Cs"}, "26": {"label": "*2", "atom_type": "H0"}}

>  <type>  (8) 
unop_4

>  <geom_source>  (8) 
Heuristics

$$$$

     RDKit          3D

 36 36  0  0  0  0  0  0  0  0999 V2000
   -2.2798    1.3393    1.0327 C   0  0  0  0  0  0  0  0  0  0  0  0
   -2.6315    0.0680    0.9238 C   0  0  0  0  0  0  0  0  0  0  0  0
   -1.7167   -1.0606    0.5475 C   0  0  0  0  0  3  0  0  0  0  0  0
   -2.1864   -1.7230   -0.7491 C   0  0  0  0  0  0  0  0  0  0  0  0
   -1.6323   -2.0844    1.6811 C   0  0  0  0  0  0  0  0  0  0  0  0
   -2.9940    2.1047    1.3093 H   0  0  0  0  0  0  0  0  0  0  0  0
   -1.2602    1.6608    0.8480 H   0  0  0  0  0  0  0  0  0  0  0  0
   -3.6654   -0.2149    1.1175 H   0  0  0  0  0  0  0  0  0  0  0  0
   -1.5192   -2.5404   -1.0305 H   0  0  0  0  0  0  0  0  0  0  0  0
   -3.1906   -2.1383   -0.6281 H   0  0  0  0  0  0  0  0  0  0  0  0
   -2.2160   -1.0051   -1.5699 H   0  0  0  0  0  0  0  0  0  0  0  0
   -2.6169   -2.5125    1.8882 H   0  0  0  0  0  0  0  0  0  0  0  0
   -1.2652   -1.6252    2.6001 H   0  0  0  0  0  0  0  0  0  0  0  0
   -0.9618   -2.9039    1.4142 H   0  0  0  0  0  0  0  0  0  0  0  0
    1.6406   -1.2011   -1.7653 C   0  0  0  0  0  0  0  0  0  0  0  0
    1.6406   -1.2011   -0.2389 C   0  0  0  0  0  0  0  0  0  0  0  0
    0.6772   -0.0664    0.1495 C   0  0  0  0  0  0  0  0  0  0  0  0
    1.1300    0.7722    1.3539 C   0  0  0  0  0  0  0  0  0  0  0  0
    1.9420    1.9104    0.7345 C   0  0  0  0  0  0  0  0  0  0  0  0
    1.1300    2.2700   -0.5104 C   0  0  0  0  0  0  0  0  0  0  0  0
    0.6772    0.9132   -1.0697 C   0  0  0  0  0  0  0  0  0  0  0  0
    1.6406    0.2895   -2.0942 C   0  0  0  0  0  0  0  0  0  0  0  0
    2.4854   -1.7393   -2.1977 H   0  0  0  0  0  0  0  0  0  0  0  0
    0.7247   -1.6679   -2.1404 H   0  0  0  0  0  0  0  0  0  0  0  0
    1.3562   -2.1595    0.1977 H   0  0  0  0  0  0  0  0  0  0  0  0
    2.6487   -0.9685    0.1204 H   0  0  0  0  0  0  0  0  0  0  0  0
   -0.5178   -0.5627    0.3482 H   0  0  0  0  0  0  0  0  0  0  0  0
    0.2621    1.1890    1.8724 H   0  0  0  0  0  0  0  0  0  0  0  0
    1.6930    0.1855    2.0822 H   0  0  0  0  0  0  0  0  0  0  0  0
    2.9331    1.5486    0.4438 H   0  0  0  0  0  0  0  0  0  0  0  0
    2.0899    2.7527    1.4113 H   0  0  0  0  0  0  0  0  0  0  0  0
    0.2622    2.8661   -0.2150 H   0  0  0  0  0  0  0  0  0  0  0  0
    1.6930    2.8548   -1.2402 H   0  0  0  0  0  0  0  0  0  0  0  0
   -0.3187    0.9858   -1.5093 H   0  0  0  0  0  0  0  0  0  0  0  0
    1.3562    0.5094   -3.1241 H   0  0  0  0  0  0  0  0  0  0  0  0
    2.6487    0.6904   -1.9445 H   0  0  0  0  0  0  0  0  0  0  0  0
  1  2  2  3
  1  6  1  0
  1  7  1  0
  2  3  1  0
  2  8  1  0
  3  4  1  0
  3  5  1  0
  4  9  1  0
  4 10  1  0
  4 11  1  0
  5 12  1  0
  5 13  1  0
  5 14  1  0
 15 16  1  0
 15 22  1  0
 15 23  1  0
 15 24  1  0
 16 17  1  0
 16 25  1  0
 16 26  1  0
 17 18  1  0
 17 21  1  0
 17 27  1  0
 18 19  1  0
 18 28  1  0
 18 29  1  0
 19 20  1  0
 19 30  1  0
 19 31  1  0
 20 21  1  0
 20 32  1  0
 20 33  1  0
 21 22  1  0
 21 34  1  0
 22 35  1  0
 22 36  1  0
M  RAD  1   3   2
M  END
>  <reaction>  (9) 
rxn_561

>  <mol_properties>  (9) 
{"1": {"label": "*0", "atom_type": "Cd"}, "2": {"label": "*1", "atom_type": "Cs"}, "16": {"label": "*3", "atom_type": "Cs"}, "20": {"label": "*4", "atom_type": "Cs"}, "26": {"label": "*2", "atom_type": "H0"}}

>  <type>  (9) 
unop_5

>  <geom_source>  (9) 
Heuristics

$$$$

     RDKit          3D

 36 36  0  0  0  0  0  0  0  0999 V2000
   -1.9487   -1.1798   -1.7378 C   0  0  0  0  0  0  0  0  0  0  0  0
   -2.4750   -0.9195   -0.5516 C   0  0  0  0  0  0  0  0  0  0  0  0
   -1.7373   -0.9483    0.7550 C   0  0  0  0  0  3  0  0  0  0  0  0
   -2.3378   -2.0016    1.6877 C   0  0  0  0  0  0  0  0  0  0  0  0
   -1.7549    0.4330    1.4122 C   0  0  0  0  0  0  0  0  0  0  0  0
   -2.5411   -1.1404   -2.6433 H   0  0  0  0  0  0  0  0  0  0  0  0
   -0.9016   -1.4427   -1.8455 H   0  0  0  0  0  0  0  0  0  0  0  0
   -3.5306   -0.6593   -0.4851 H   0  0  0  0  0  0  0  0  0  0  0  0
   -1.7992   -2.0310    2.6372 H   0  0  0  0  0  0  0  0  0  0  0  0
   -3.3848   -1.7726    1.9047 H   0  0  0  0  0  0  0  0  0  0  0  0
   -2.2970   -2.9949    1.2385 H   0  0  0  0  0  0  0  0  0  0  0  0
   -2.7812    0.7483    1.6194 H   0  0  0  0  0  0  0  0  0  0  0  0
   -1.2968    1.1828    0.7657 H   0  0  0  0  0  0  0  0  0  0  0  0
   -1.2128    0.4183    2.3600 H   0  0  0  0  0  0  0  0  0  0  0  0
    1.6200   -1.0888   -1.5578 C   0  0  0  0  0  0  0  0  0  0  0  0
    1.6200   -1.0888   -0.0314 C   0  0  0  0  0  0  0  0  0  0  0  0
    0.6567    0.0460    0.3570 C   0  0  0  0  0  0  0  0  0  0  0  0
    1.1094    0.8846    1.5614 C   0  0  0  0  0  0  0  0  0  0  0  0
    1.9214    2.0227    0.9420 C   0  0  0  0  0  0  0  0  0  0  0  0
    1.1094    2.3824   -0.3029 C   0  0  0  0  0  0  0  0  0  0  0  0
    0.6567    1.0255   -0.8623 C   0  0  0  0  0  0  0  0  0  0  0  0
    1.6200    0.4018   -1.8867 C   0  0  0  0  0  0  0  0  0  0  0  0
    2.4649   -1.6270   -1.9902 H   0  0  0  0  0  0  0  0  0  0  0  0
    0.7042   -1.5556   -1.9329 H   0  0  0  0  0  0  0  0  0  0  0  0
    1.3357   -2.0471    0.4052 H   0  0  0  0  0  0  0  0  0  0  0  0
    2.6282   -0.8562    0.3279 H   0  0  0  0  0  0  0  0  0  0  0  0
   -0.5384   -0.4504    0.5556 H   0  0  0  0  0  0  0  0  0  0  0  0
    0.2416    1.3014    2.0798 H   0  0  0  0  0  0  0  0  0  0  0  0
    1.6725    0.2978    2.2897 H   0  0  0  0  0  0  0  0  0  0  0  0
    2.9125    1.6609    0.6513 H   0  0  0  0  0  0  0  0  0  0  0  0
    2.0694    2.8651    1.6188 H   0  0  0  0  0  0  0  0  0  0  0  0
    0.2416    2.9784   -0.0075 H   0  0  0  0  0  0  0  0  0  0  0  0
    1.6725    2.9671   -1.0327 H   0  0  0  0  0  0  0  0  0  0  0  0
   -0.3392    1.0981   -1.3018 H   0  0  0  0  0  0  0  0  0  0  0  0
    1.3357    0.6217   -2.9166 H   0  0  0  0  0  0  0  0  0  0  0  0
    2.6282    0.8028   -1.7370 H   0  0  0  0  0  0  0  0  0  0  0  0
  1  2  2  3
  1  6  1  0
  1  7  1  0
  2  3  1  0
  2  8  1  0
  3  4  1  0
  3  5  1  0
  4  9  1  0
  4 10  1  0
  4 11  1  0
  5 12  1  0
  5 13  1  0
  5 14  1  0
 15 16  1  0
 15 22  1  0
 15 23  1  0
 15 24  1  0
 16 17  1  0
 16 25  1  0
 16 26  1  0
 17 18  1  0
 17 21  1  0
 17 27  1  0
 18 19  1  0
 18 28  1  0
 18 29  1  0
 19 20  1  0
 19 30  1  0
 19 31  1  0
 20 21  1  0
 20 32  1  0
 20 33  1  0
 21 22  1  0
 21 34  1  0
 22 35  1  0
 22 36  1  0
M  RAD  1   3   2
M  END
>  <reaction>  (10) 
rxn_561

>  <mol_properties>  (10) 
{"1": {"label": "*0", "atom_type": "Cd"}, "2": {"label": "*1", "atom_type": "Cs"}, "16": {"label": "*3", "atom_type": "Cs"}, "20": {"label": "*4", "atom_type": "Cs"}, "26": {"label": "*2", "atom_type": "H0"}}

>  <type>  (10) 
unop_6

>  <geom_source>  (10) 
Heuristics

$$$$

     RDKit          3D

 36 36  0  0  0  0  0  0  0  0999 V2000
   -2.3745   -0.0585   -1.5224 C   0  0  0  0  0  0  0  0  0  0  0  0
   -2.6563   -0.3687   -0.2669 C   0  0  0  0  0  0  0  0  0  0  0  0
   -1.7152   -1.0223    0.7022 C   0  0  0  0  0  3  0  0  0  0  0  0
   -2.2678   -2.3737    1.1591 C   0  0  0  0  0  0  0  0  0  0  0  0
   -1.4575   -0.1072    1.9008 C   0  0  0  0  0  0  0  0  0  0  0  0
   -3.1038    0.4137   -2.1685 H   0  0  0  0  0  0  0  0  0  0  0  0
   -1.3994   -0.2671   -1.9502 H   0  0  0  0  0  0  0  0  0  0  0  0
   -3.6469   -0.1430    0.1257 H   0  0  0  0  0  0  0  0  0  0  0  0
   -1.5823   -2.8561    1.8589 H   0  0  0  0  0  0  0  0  0  0  0  0
   -3.2279   -2.2460    1.6664 H   0  0  0  0  0  0  0  0  0  0  0  0
   -2.4216   -3.0432    0.3116 H   0  0  0  0  0  0  0  0  0  0  0  0
   -2.3890    0.1007    2.4344 H   0  0  0  0  0  0  0  0  0  0  0  0
   -1.0312    0.8458    1.5844 H   0  0  0  0  0  0  0  0  0  0  0  0
   -0.7672   -0.5762    2.6051 H   0  0  0  0  0  0  0  0  0  0  0  0
    1.6421   -1.1628   -1.6106 C   0  0  0  0  0  0  0  0  0  0  0  0
    1.6421   -1.1628   -0.0842 C   0  0  0  0  0  0  0  0  0  0  0  0
    0.6788   -0.0280    0.3042 C   0  0  0  0  0  0  0  0  0  0  0  0
    1.1315    0.8105    1.5086 C   0  0  0  0  0  0  0  0  0  0  0  0
    1.9435    1.9487    0.8893 C   0  0  0  0  0  0  0  0  0  0  0  0
    1.1315    2.3084   -0.3556 C   0  0  0  0  0  0  0  0  0  0  0  0
    0.6788    0.9515   -0.9150 C   0  0  0  0  0  0  0  0  0  0  0  0
    1.6421    0.3278   -1.9395 C   0  0  0  0  0  0  0  0  0  0  0  0
    2.4870   -1.7010   -2.0430 H   0  0  0  0  0  0  0  0  0  0  0  0
    0.7263   -1.6296   -1.9857 H   0  0  0  0  0  0  0  0  0  0  0  0
    1.3578   -2.1211    0.3524 H   0  0  0  0  0  0  0  0  0  0  0  0
    2.6503   -0.9302    0.2751 H   0  0  0  0  0  0  0  0  0  0  0  0
   -0.5163   -0.5244    0.5029 H   0  0  0  0  0  0  0  0  0  0  0  0
    0.2637    1.2274    2.0271 H   0  0  0  0  0  0  0  0  0  0  0  0
    1.6946    0.2238    2.2369 H   0  0  0  0  0  0  0  0  0  0  0  0
    2.9346    1.5869    0.5986 H   0  0  0  0  0  0  0  0  0  0  0  0
    2.0915    2.7911    1.5660 H   0  0  0  0  0  0  0  0  0  0  0  0
    0.2637    2.9044   -0.0603 H   0  0  0  0  0  0  0  0  0  0  0  0
    1.6946    2.8931   -1.0855 H   0  0  0  0  0  0  0  0  0  0  0  0
   -0.3171    1.0241   -1.3546 H   0  0  0  0  0  0  0  0  0  0  0  0
    1.3578    0.5477   -2.9694 H   0  0  0  0  0  0  0  0  0  0  0  0
    2.6503    0.7288   -1.7897 H   0  0  0  0  0  0  0  0  0  0  0  0
  1  2  2  3
  1  6  1  0
  1  7  1  0
  2  3  1  0
  2  8  1  0
  3  4  1  0
  3  5  1  0
  4  9  1  0
  4 10  1  0
  4 11  1  0
  5 12  1  0
  5 13  1  0
  5 14  1  0
 15 16  1  0
 15 22  1  0
 15 23  1  0
 15 24  1  0
 16 17  1  0
 16 25  1  0
 16 26  1  0
 17 18  1  0
 17 21  1  0
 17 27  1  0
 18 19  1  0
 18 28  1  0
 18 29  1  0
 19 20  1  0
 19 30  1  0
 19 31  1  0
 20 21  1  0
 20 32  1  0
 20 33  1  0
 21 22  1  0
 21 34  1  0
 22 35  1  0
 22 36  1  0
M  RAD  1   3   2
M  END
>  <reaction>  (11) 
rxn_561

>  <mol_properties>  (11) 
{"1": {"label": "*0", "atom_type": "Cd"}, "2": {"label": "*1", "atom_type": "Cs"}, "16": {"label": "*3", "atom_type": "Cs"}, "20": {"label": "*4", "atom_type": "Cs"}, "26": {"label": "*2", "atom_type": "H0"}}

>  <type>  (11) 
unop_7

>  <geom_source>  (11) 
Heuristics

$$$$

     RDKit          3D

 36 36  0  0  0  0  0  0  0  0999 V2000
   -0.9636   -1.8222    2.5829 C   0  0  0  0  0  0  0  0  0  0  0  0
   -1.9261   -1.2775    1.8559 C   0  0  0  0  0  0  0  0  0  0  0  0
   -1.8163   -0.8968    0.4084 C   0  0  0  0  0  3  0  0  0  0  0  0
   -2.0241    0.6086    0.2318 C   0  0  0  0  0  0  0  0  0  0  0  0
   -2.8212   -1.6864   -0.4324 C   0  0  0  0  0  0  0  0  0  0  0  0
   -1.1118   -2.0726    3.6259 H   0  0  0  0  0  0  0  0  0  0  0  0
    0.0113   -2.0380    2.1584 H   0  0  0  0  0  0  0  0  0  0  0  0
   -2.8913   -1.0762    2.3187 H   0  0  0  0  0  0  0  0  0  0  0  0
   -1.9377    0.8911   -0.8195 H   0  0  0  0  0  0  0  0  0  0  0  0
   -3.0191    0.9035    0.5761 H   0  0  0  0  0  0  0  0  0  0  0  0
   -1.2885    1.1774    0.8022 H   0  0  0  0  0  0  0  0  0  0  0  0
   -3.8445   -1.4728   -0.1115 H   0  0  0  0  0  0  0  0  0  0  0  0
   -2.6563   -2.7606   -0.3374 H   0  0  0  0  0  0  0  0  0  0  0  0
   -2.7396   -1.4176   -1.4876 H   0  0  0  0  0  0  0  0  0  0  0  0
    1.5410   -1.0372   -1.9044 C   0  0  0  0  0  0  0  0  0  0  0  0
    1.5410   -1.0372   -0.3779 C   0  0  0  0  0  0  0  0  0  0  0  0
    0.5777    0.0975    0.0104 C   0  0  0  0  0  0  0  0  0  0  0  0
    1.0304    0.9361    1.2149 C   0  0  0  0  0  0  0  0  0  0  0  0
    1.8424    2.0743    0.5955 C   0  0  0  0  0  0  0  0  0  0  0  0
    1.0304    2.4339   -0.6494 C   0  0  0  0  0  0  0  0  0  0  0  0
    0.5777    1.0771   -1.2088 C   0  0  0  0  0  0  0  0  0  0  0  0
    1.5410    0.4534   -2.2332 C   0  0  0  0  0  0  0  0  0  0  0  0
    2.3859   -1.5754   -2.3368 H   0  0  0  0  0  0  0  0  0  0  0  0
    0.6252   -1.5041   -2.2794 H   0  0  0  0  0  0  0  0  0  0  0  0
    1.2567   -1.9956    0.0587 H   0  0  0  0  0  0  0  0  0  0  0  0
    2.5492   -0.8047   -0.0186 H   0  0  0  0  0  0  0  0  0  0  0  0
   -0.6174   -0.3988    0.2091 H   0  0  0  0  0  0  0  0  0  0  0  0
    0.1626    1.3529    1.7333 H   0  0  0  0  0  0  0  0  0  0  0  0
    1.5935    0.3494    1.9431 H   0  0  0  0  0  0  0  0  0  0  0  0
    2.8335    1.7124    0.3048 H   0  0  0  0  0  0  0  0  0  0  0  0
    1.9904    2.9166    1.2722 H   0  0  0  0  0  0  0  0  0  0  0  0
    0.1626    3.0299   -0.3541 H   0  0  0  0  0  0  0  0  0  0  0  0
    1.5935    3.0186   -1.3792 H   0  0  0  0  0  0  0  0  0  0  0  0
   -0.4182    1.1496   -1.6484 H   0  0  0  0  0  0  0  0  0  0  0  0
    1.2567    0.6732   -3.2631 H   0  0  0  0  0  0  0  0  0  0  0  0
    2.5492    0.8543   -2.0835 H   0  0  0  0  0  0  0  0  0  0  0  0
  1  2  2  3
  1  6  1  0
  1  7  1  0
  2  3  1  0
  2  8  1  0
  3  4  1  0
  3  5  1  0
  4  9  1  0
  4 10  1  0
  4 11  1  0
  5 12  1  0
  5 13  1  0
  5 14  1  0
 15 16  1  0
 15 22  1  0
 15 23  1  0
 15 24  1  0
 16 17  1  0
 16 25  1  0
 16 26  1  0
 17 18  1  0
 17 21  1  0
 17 27  1  0
 18 19  1  0
 18 28  1  0
 18 29  1  0
 19 20  1  0
 19 30  1  0
 19 31  1  0
 20 21  1  0
 20 32  1  0
 20 33  1  0
 21 22  1  0
 21 34  1  0
 22 35  1  0
 22 36  1  0
M  RAD  1   3   2
M  END
>  <reaction>  (12) 
rxn_561

>  <mol_properties>  (12) 
{"1": {"label": "*0", "atom_type": "Cd"}, "2": {"label": "*1", "atom_type": "Cs"}, "16": {"label": "*3", "atom_type": "Cs"}, "20": {"label": "*4", "atom_type": "Cs"}, "26": {"label": "*2", "atom_type": "H0"}}

>  <type>  (12) 
unop_8

>  <geom_source>  (12) 
Heuristics

$$$$

     RDKit          3D

 36 36  0  0  0  0  0  0  0  0999 V2000
   -0.9740   -2.6533   -0.7362 C   0  0  0  0  0  0  0  0  0  0  0  0
   -1.9640   -1.9816   -0.1703 C   0  0  0  0  0  0  0  0  0  0  0  0
   -1.8085   -0.7781    0.7127 C   0  0  0  0  0  3  0  0  0  0  0  0
   -2.3624   -1.0622    2.1102 C   0  0  0  0  0  0  0  0  0  0  0  0
   -2.4993    0.4370    0.0910 C   0  0  0  0  0  0  0  0  0  0  0  0
   -1.1585   -3.5160   -1.3641 H   0  0  0  0  0  0  0  0  0  0  0  0
    0.0612   -2.3627   -0.5906 H   0  0  0  0  0  0  0  0  0  0  0  0
   -2.9901   -2.3050   -0.3408 H   0  0  0  0  0  0  0  0  0  0  0  0
   -2.2445   -0.1912    2.7583 H   0  0  0  0  0  0  0  0  0  0  0  0
   -3.4285   -1.3002    2.0613 H   0  0  0  0  0  0  0  0  0  0  0  0
   -1.8500   -1.9069    2.5728 H   0  0  0  0  0  0  0  0  0  0  0  0
   -3.5702    0.2521   -0.0293 H   0  0  0  0  0  0  0  0  0  0  0  0
   -2.0850    0.6656   -0.8919 H   0  0  0  0  0  0  0  0  0  0  0  0
   -2.3823    1.3169    0.7270 H   0  0  0  0  0  0  0  0  0  0  0  0
    1.5488   -0.9186   -1.6001 C   0  0  0  0  0  0  0  0  0  0  0  0
    1.5488   -0.9186   -0.0736 C   0  0  0  0  0  0  0  0  0  0  0  0
    0.5855    0.2161    0.3147 C   0  0  0  0  0  0  0  0  0  0  0  0
    1.0382    1.0547    1.5192 C   0  0  0  0  0  0  0  0  0  0  0  0
    1.8502    2.1929    0.8998 C   0  0  0  0  0  0  0  0  0  0  0  0
    1.0382    2.5525   -0.3451 C   0  0  0  0  0  0  0  0  0  0  0  0
    0.5855    1.1957   -0.9045 C   0  0  0  0  0  0  0  0  0  0  0  0
    1.5488    0.5720   -1.9289 C   0  0  0  0  0  0  0  0  0  0  0  0
    2.3936   -1.4568   -2.0324 H   0  0  0  0  0  0  0  0  0  0  0  0
    0.6330   -1.3855   -1.9751 H   0  0  0  0  0  0  0  0  0  0  0  0
    1.2645   -1.8770    0.3630 H   0  0  0  0  0  0  0  0  0  0  0  0
    2.5570   -0.6861    0.2857 H   0  0  0  0  0  0  0  0  0  0  0  0
   -0.6096   -0.2802    0.5134 H   0  0  0  0  0  0  0  0  0  0  0  0
    0.1704    1.4715    2.0376 H   0  0  0  0  0  0  0  0  0  0  0  0
    1.6013    0.4680    2.2475 H   0  0  0  0  0  0  0  0  0  0  0  0
    2.8413    1.8310    0.6091 H   0  0  0  0  0  0  0  0  0  0  0  0
    1.9981    3.0352    1.5766 H   0  0  0  0  0  0  0  0  0  0  0  0
    0.1704    3.1485   -0.0498 H   0  0  0  0  0  0  0  0  0  0  0  0
    1.6013    3.1373   -1.0749 H   0  0  0  0  0  0  0  0  0  0  0  0
   -0.4104    1.2682   -1.3441 H   0  0  0  0  0  0  0  0  0  0  0  0
    1.2645    0.7918   -2.9588 H   0  0  0  0  0  0  0  0  0  0  0  0
    2.5570    0.9729   -1.7792 H   0  0  0  0  0  0  0  0  0  0  0  0
  1  2  2  3
  1  6  1  0
  1  7  1  0
  2  3  1  0
  2  8  1  0
  3  4  1  0
  3  5  1  0
  4  9  1  0
  4 10  1  0
  4 11  1  0
  5 12  1  0
  5 13  1  0
  5 14  1  0
 15 16  1  0
 15 22  1  0
 15 23  1  0
 15 24  1  0
 16 17  1  0
 16 25  1  0
 16 26  1  0
 17 18  1  0
 17 21  1  0
 17 27  1  0
 18 19  1  0
 18 28  1  0
 18 29  1  0
 19 20  1  0
 19 30  1  0
 19 31  1  0
 20 21  1  0
 20 32  1  0
 20 33  1  0
 21 22  1  0
 21 34  1  0
 22 35  1  0
 22 36  1  0
M  RAD  1   3   2
M  END
>  <reaction>  (13) 
rxn_561

>  <mol_properties>  (13) 
{"1": {"label": "*0", "atom_type": "Cd"}, "2": {"label": "*1", "atom_type": "Cs"}, "16": {"label": "*3", "atom_type": "Cs"}, "20": {"label": "*4", "atom_type": "Cs"}, "26": {"label": "*2", "atom_type": "H0"}}

>  <type>  (13) 
unop_9

>  <geom_source>  (13) 
Heuristics

$$$$

     RDKit          3D

 36 36  0  0  0  0  0  0  0  0999 V2000
   -0.6971   -2.5731    1.8184 C   0  0  0  0  0  0  0  0  0  0  0  0
   -1.7500   -1.8162    1.5532 C   0  0  0  0  0  0  0  0  0  0  0  0
   -1.8436   -0.8106    0.4432 C   0  0  0  0  0  3  0  0  0  0  0  0
   -2.0673    0.5935    1.0079 C   0  0  0  0  0  0  0  0  0  0  0  0
   -2.9607   -1.1887   -0.5313 C   0  0  0  0  0  0  0  0  0  0  0  0
   -0.6979   -3.2806    2.6381 H   0  0  0  0  0  0  0  0  0  0  0  0
    0.2072   -2.5114    1.2220 H   0  0  0  0  0  0  0  0  0  0  0  0
   -2.6394   -1.9077    2.1753 H   0  0  0  0  0  0  0  0  0  0  0  0
   -2.1287    1.3295    0.2036 H   0  0  0  0  0  0  0  0  0  0  0  0
   -3.0024    0.6373    1.5729 H   0  0  0  0  0  0  0  0  0  0  0  0
   -1.2560    0.8826    1.6774 H   0  0  0  0  0  0  0  0  0  0  0  0
   -3.9275   -1.2079   -0.0208 H   0  0  0  0  0  0  0  0  0  0  0  0
   -2.7890   -2.1754   -0.9637 H   0  0  0  0  0  0  0  0  0  0  0  0
   -3.0275   -0.4633   -1.3448 H   0  0  0  0  0  0  0  0  0  0  0  0
    1.5137   -0.9511   -1.8696 C   0  0  0  0  0  0  0  0  0  0  0  0
    1.5137   -0.9511   -0.3432 C   0  0  0  0  0  0  0  0  0  0  0  0
    0.5504    0.1837    0.0452 C   0  0  0  0  0  0  0  0  0  0  0  0
    1.0031    1.0222    1.2496 C   0  0  0  0  0  0  0  0  0  0  0  0
    1.8151    2.1604    0.6302 C   0  0  0  0  0  0  0  0  0  0  0  0
    1.0031    2.5200   -0.6147 C   0  0  0  0  0  0  0  0  0  0  0  0
    0.5504    1.1632   -1.1741 C   0  0  0  0  0  0  0  0  0  0  0  0
    1.5137    0.5395   -2.1985 C   0  0  0  0  0  0  0  0  0  0  0  0
    2.3586   -1.4893   -2.3020 H   0  0  0  0  0  0  0  0  0  0  0  0
    0.5979   -1.4179   -2.2447 H   0  0  0  0  0  0  0  0  0  0  0  0
    1.2294   -1.9094    0.0934 H   0  0  0  0  0  0  0  0  0  0  0  0
    2.5219   -0.7185    0.0161 H   0  0  0  0  0  0  0  0  0  0  0  0
   -0.6447   -0.3127    0.2438 H   0  0  0  0  0  0  0  0  0  0  0  0
    0.1353    1.4391    1.7680 H   0  0  0  0  0  0  0  0  0  0  0  0
    1.5662    0.4355    1.9779 H   0  0  0  0  0  0  0  0  0  0  0  0
    2.8062    1.7986    0.3395 H   0  0  0  0  0  0  0  0  0  0  0  0
    1.9630    3.0028    1.3070 H   0  0  0  0  0  0  0  0  0  0  0  0
    0.1353    3.1161   -0.3193 H   0  0  0  0  0  0  0  0  0  0  0  0
    1.5662    3.1048   -1.3445 H   0  0  0  0  0  0  0  0  0  0  0  0
   -0.4455    1.2358   -1.6136 H   0  0  0  0  0  0  0  0  0  0  0  0
    1.2294    0.7594   -3.2284 H   0  0  0  0  0  0  0  0  0  0  0  0
    2.5219    0.9405   -2.0488 H   0  0  0  0  0  0  0  0  0  0  0  0
  1  2  2  3
  1  6  1  0
  1  7  1  0
  2  3  1  0
  2  8  1  0
  3  4  1  0
  3  5  1  0
  4  9  1  0
  4 10  1  0
  4 11  1  0
  5 12  1  0
  5 13  1  0
  5 14  1  0
 15 16  1  0
 15 22  1  0
 15 23  1  0
 15 24  1  0
 16 17  1  0
 16 25  1  0
 16 26  1  0
 17 18  1  0
 17 21  1  0
 17 27  1  0
 18 19  1  0
 18 28  1  0
 18 29  1  0
 19 20  1  0
 19 30  1  0
 19 31  1  0
 20 21  1  0
 20 32  1  0
 20 33  1  0
 21 22  1  0
 21 34  1  0
 22 35  1  0
 22 36  1  0
M  RAD  1   3   2
M  END
>  <reaction>  (14) 
rxn_561

>  <mol_properties>  (14) 
{"1": {"label": "*0", "atom_type": "Cd"}, "2": {"label": "*1", "atom_type": "Cs"}, "16": {"label": "*3", "atom_type": "Cs"}, "20": {"label": "*4", "atom_type": "Cs"}, "26": {"label": "*2", "atom_type": "H0"}}

>  <type>  (14) 
unop_10

>  <geom_source>  (14) 
Heuristics

$$$$

     RDKit          3D

 36 36  0  0  0  0  0  0  0  0999 V2000
   -2.5272    0.9773   -0.5985 C   0  0  0  0  0  0  0  0  0  0  0  0
   -2.7146   -0.0035    0.2701 C   0  0  0  0  0  0  0  0  0  0  0  0
   -1.7087   -1.0597    0.6233 C   0  0  0  0  0  3  0  0  0  0  0  0
   -2.2391   -2.4485    0.2627 C   0  0  0  0  0  0  0  0  0  0  0  0
   -1.3492   -0.9839    2.1083 C   0  0  0  0  0  0  0  0  0  0  0  0
   -3.2990    1.7078   -0.8061 H   0  0  0  0  0  0  0  0  0  0  0  0
   -1.5904    1.0847   -1.1354 H   0  0  0  0  0  0  0  0  0  0  0  0
   -3.6695   -0.0773    0.7891 H   0  0  0  0  0  0  0  0  0  0  0  0
   -1.5071   -3.2197    0.5114 H   0  0  0  0  0  0  0  0  0  0  0  0
   -3.1558   -2.6671    0.8173 H   0  0  0  0  0  0  0  0  0  0  0  0
   -2.4653   -2.5197   -0.8021 H   0  0  0  0  0  0  0  0  0  0  0  0
   -2.2344   -1.1506    2.7283 H   0  0  0  0  0  0  0  0  0  0  0  0
   -0.9382   -0.0065    2.3648 H   0  0  0  0  0  0  0  0  0  0  0  0
   -0.6118   -1.7463    2.3680 H   0  0  0  0  0  0  0  0  0  0  0  0
    1.6486   -1.2001   -1.6895 C   0  0  0  0  0  0  0  0  0  0  0  0
    1.6486   -1.2001   -0.1631 C   0  0  0  0  0  0  0  0  0  0  0  0
    0.6853   -0.0654    0.2253 C   0  0  0  0  0  0  0  0  0  0  0  0
    1.1380    0.7732    1.4297 C   0  0  0  0  0  0  0  0  0  0  0  0
    1.9500    1.9114    0.8104 C   0  0  0  0  0  0  0  0  0  0  0  0
    1.1380    2.2710   -0.4345 C   0  0  0  0  0  0  0  0  0  0  0  0
    0.6853    0.9142   -0.9939 C   0  0  0  0  0  0  0  0  0  0  0  0
    1.6486    0.2904   -2.0184 C   0  0  0  0  0  0  0  0  0  0  0  0
    2.4935   -1.7383   -2.1219 H   0  0  0  0  0  0  0  0  0  0  0  0
    0.7328   -1.6670   -2.0646 H   0  0  0  0  0  0  0  0  0  0  0  0
    1.3643   -2.1585    0.2735 H   0  0  0  0  0  0  0  0  0  0  0  0
    2.6568   -0.9676    0.1962 H   0  0  0  0  0  0  0  0  0  0  0  0
   -0.5098   -0.5617    0.4240 H   0  0  0  0  0  0  0  0  0  0  0  0
    0.2702    1.1900    1.9482 H   0  0  0  0  0  0  0  0  0  0  0  0
    1.7011    0.1864    2.1580 H   0  0  0  0  0  0  0  0  0  0  0  0
    2.9411    1.5495    0.5196 H   0  0  0  0  0  0  0  0  0  0  0  0
    2.0979    2.7537    1.4871 H   0  0  0  0  0  0  0  0  0  0  0  0
    0.2702    2.8670   -0.1392 H   0  0  0  0  0  0  0  0  0  0  0  0
    1.7011    2.8557   -1.1644 H   0  0  0  0  0  0  0  0  0  0  0  0
   -0.3106    0.9867   -1.4335 H   0  0  0  0  0  0  0  0  0  0  0  0
    1.3643    0.5103   -3.0483 H   0  0  0  0  0  0  0  0  0  0  0  0
    2.6568    0.6914   -1.8687 H   0  0  0  0  0  0  0  0  0  0  0  0
  1  2  2  3
  1  6  1  0
  1  7  1  0
  2  3  1  0
  2  8  1  0
  3  4  1  0
  3  5  1  0
  4  9  1  0
  4 10  1  0
  4 11  1  0
  5 12  1  0
  5 13  1  0
  5 14  1  0
 15 16  1  0
 15 22  1  0
 15 23  1  0
 15 24  1  0
 16 17  1  0
 16 25  1  0
 16 26  1  0
 17 18  1  0
 17 21  1  0
 17 27  1  0
 18 19  1  0
 18 28  1  0
 18 29  1  0
 19 20  1  0
 19 30  1  0
 19 31  1  0
 20 21  1  0
 20 32  1  0
 20 33  1  0
 21 22  1  0
 21 34  1  0
 22 35  1  0
 22 36  1  0
M  RAD  1   3   2
M  END
>  <reaction>  (15) 
rxn_561

>  <mol_properties>  (15) 
{"1": {"label": "*0", "atom_type": "Cd"}, "2": {"label": "*1", "atom_type": "Cs"}, "16": {"label": "*3", "atom_type": "Cs"}, "20": {"label": "*4", "atom_type": "Cs"}, "26": {"label": "*2", "atom_type": "H0"}}

>  <type>  (15) 
unop_11

>  <geom_source>  (15) 
Heuristics

$$$$

     RDKit          3D

 36 36  0  0  0  0  0  0  0  0999 V2000
   -0.6873   -2.8925    0.0404 C   0  0  0  0  0  0  0  0  0  0  0  0
   -1.7714   -2.2175    0.3879 C   0  0  0  0  0  0  0  0  0  0  0  0
   -1.8386   -0.7368    0.6234 C   0  0  0  0  0  3  0  0  0  0  0  0
   -2.2509   -0.4407    2.0665 C   0  0  0  0  0  0  0  0  0  0  0  0
   -2.8049   -0.0794   -0.3637 C   0  0  0  0  0  0  0  0  0  0  0  0
   -0.7101   -3.9640   -0.1138 H   0  0  0  0  0  0  0  0  0  0  0  0
    0.2660   -2.3946   -0.1030 H   0  0  0  0  0  0  0  0  0  0  0  0
   -2.7099   -2.7537    0.5222 H   0  0  0  0  0  0  0  0  0  0  0  0
   -2.2939    0.6359    2.2442 H   0  0  0  0  0  0  0  0  0  0  0  0
   -3.2412   -0.8538    2.2771 H   0  0  0  0  0  0  0  0  0  0  0  0
   -1.5463   -0.8783    2.7752 H   0  0  0  0  0  0  0  0  0  0  0  0
   -3.8148   -0.4796   -0.2391 H   0  0  0  0  0  0  0  0  0  0  0  0
   -2.4971   -0.2583   -1.3948 H   0  0  0  0  0  0  0  0  0  0  0  0
   -2.8513    0.9994   -0.2005 H   0  0  0  0  0  0  0  0  0  0  0  0
    1.5187   -0.8773   -1.6894 C   0  0  0  0  0  0  0  0  0  0  0  0
    1.5187   -0.8773   -0.1630 C   0  0  0  0  0  0  0  0  0  0  0  0
    0.5554    0.2574    0.2254 C   0  0  0  0  0  0  0  0  0  0  0  0
    1.0081    1.0960    1.4298 C   0  0  0  0  0  0  0  0  0  0  0  0
    1.8201    2.2342    0.8105 C   0  0  0  0  0  0  0  0  0  0  0  0
    1.0081    2.5938   -0.4344 C   0  0  0  0  0  0  0  0  0  0  0  0
    0.5554    1.2370   -0.9938 C   0  0  0  0  0  0  0  0  0  0  0  0
    1.5187    0.6133   -2.0182 C   0  0  0  0  0  0  0  0  0  0  0  0
    2.3636   -1.4155   -2.1218 H   0  0  0  0  0  0  0  0  0  0  0  0
    0.6029   -1.3442   -2.0645 H   0  0  0  0  0  0  0  0  0  0  0  0
    1.2344   -1.8357    0.2736 H   0  0  0  0  0  0  0  0  0  0  0  0
    2.5269   -0.6448    0.1963 H   0  0  0  0  0  0  0  0  0  0  0  0
   -0.6397   -0.2389    0.4241 H   0  0  0  0  0  0  0  0  0  0  0  0
    0.1403    1.5128    1.9483 H   0  0  0  0  0  0  0  0  0  0  0  0
    1.5712    0.5093    2.1581 H   0  0  0  0  0  0  0  0  0  0  0  0
    2.8112    1.8723    0.5198 H   0  0  0  0  0  0  0  0  0  0  0  0
    1.9680    3.0765    1.4872 H   0  0  0  0  0  0  0  0  0  0  0  0
    0.1403    3.1899   -0.1391 H   0  0  0  0  0  0  0  0  0  0  0  0
    1.5712    3.1786   -1.1643 H   0  0  0  0  0  0  0  0  0  0  0  0
   -0.4405    1.3095   -1.4334 H   0  0  0  0  0  0  0  0  0  0  0  0
    1.2344    0.8331   -3.0482 H   0  0  0  0  0  0  0  0  0  0  0  0
    2.5269    1.0142   -1.8685 H   0  0  0  0  0  0  0  0  0  0  0  0
  1  2  2  3
  1  6  1  0
  1  7  1  0
  2  3  1  0
  2  8  1  0
  3  4  1  0
  3  5  1  0
  4  9  1  0
  4 10  1  0
  4 11  1  0
  5 12  1  0
  5 13  1  0
  5 14  1  0
 15 16  1  0
 15 22  1  0
 15 23  1  0
 15 24  1  0
 16 17  1  0
 16 25  1  0
 16 26  1  0
 17 18  1  0
 17 21  1  0
 17 27  1  0
 18 19  1  0
 18 28  1  0
 18 29  1  0
 19 20  1  0
 19 30  1  0
 19 31  1  0
 20 21  1  0
 20 32  1  0
 20 33  1  0
 21 22  1  0
 21 34  1  0
 22 35  1  0
 22 36  1  0
M  RAD  1   3   2
M  END
>  <reaction>  (16) 
rxn_561

>  <mol_properties>  (16) 
{"1": {"label": "*0", "atom_type": "Cd"}, "2": {"label": "*1", "atom_type": "Cs"}, "16": {"label": "*3", "atom_type": "Cs"}, "20": {"label": "*4", "atom_type": "Cs"}, "26": {"label": "*2", "atom_type": "H0"}}

>  <type>  (16) 
unop_12

>  <geom_source>  (16) 
Heuristics

$$$$

     RDKit          3D

 36 36  0  0  0  0  0  0  0  0999 V2000
   -1.7259   -0.4192    0.0753 C   0  0  0  0  0  0  0  0  0  0  0  0
    1.7323   -0.8335    0.1474 C   0  0  0  0  0  3  0  0  0  0  0  0
   -2.2655    0.2166    1.3605 C   0  0  0  0  0  0  0  0  0  0  0  0
   -2.6911   -0.3840   -1.1140 C   0  0  0  0  0  0  0  0  0  0  0  0
   -1.1079    1.0234    1.9254 C   0  0  0  0  0  0  0  0  0  0  0  0
   -1.8368   -0.0052   -2.3126 C   0  0  0  0  0  0  0  0  0  0  0  0
   -0.3108    1.4825    0.7159 C   0  0  0  0  0  0  0  0  0  0  0  0
   -0.7360    0.8824   -1.7564 C   0  0  0  0  0  0  0  0  0  0  0  0
    1.8896   -2.2841   -0.3173 C   0  0  0  0  0  0  0  0  0  0  0  0
    1.6785   -0.7643    1.6771 C   0  0  0  0  0  0  0  0  0  0  0  0
   -0.5002    0.3843   -0.3305 C   0  0  0  0  0  0  0  0  0  0  0  0
    2.8598    0.0180   -0.3853 C   0  0  0  0  0  0  0  0  0  0  0  0
    2.7890    1.3521   -0.3742 C   0  0  0  0  0  0  0  0  0  0  0  0
    0.5858   -0.3761   -0.3375 H   0  0  0  0  0  0  0  0  0  0  0  0
   -1.4030   -1.4651    0.2736 H   0  0  0  0  0  0  0  0  0  0  0  0
   -2.5996   -0.5599    2.0823 H   0  0  0  0  0  0  0  0  0  0  0  0
   -3.1139    0.9061    1.1581 H   0  0  0  0  0  0  0  0  0  0  0  0
   -1.4677    1.8859    2.5275 H   0  0  0  0  0  0  0  0  0  0  0  0
   -0.4739    0.3688    2.5640 H   0  0  0  0  0  0  0  0  0  0  0  0
   -3.1756   -1.3726   -1.2665 H   0  0  0  0  0  0  0  0  0  0  0  0
   -3.4824    0.3863   -0.9838 H   0  0  0  0  0  0  0  0  0  0  0  0
   -1.3889   -0.9223   -2.7559 H   0  0  0  0  0  0  0  0  0  0  0  0
   -2.4335    0.5231   -3.0877 H   0  0  0  0  0  0  0  0  0  0  0  0
    0.7650    1.5956    0.9668 H   0  0  0  0  0  0  0  0  0  0  0  0
   -0.7110    2.4610    0.3713 H   0  0  0  0  0  0  0  0  0  0  0  0
    0.1933    0.7890   -2.3570 H   0  0  0  0  0  0  0  0  0  0  0  0
   -1.0806    1.9394   -1.7778 H   0  0  0  0  0  0  0  0  0  0  0  0
    1.0315   -2.8929    0.0387 H   0  0  0  0  0  0  0  0  0  0  0  0
    1.9059   -2.3270   -1.4272 H   0  0  0  0  0  0  0  0  0  0  0  0
    2.8316   -2.7246    0.0753 H   0  0  0  0  0  0  0  0  0  0  0  0
    1.5042    0.2809    2.0091 H   0  0  0  0  0  0  0  0  0  0  0  0
    2.6304   -1.1292    2.1200 H   0  0  0  0  0  0  0  0  0  0  0  0
    0.8415   -1.3876    2.0573 H   0  0  0  0  0  0  0  0  0  0  0  0
    3.7397   -0.4534   -0.8156 H   0  0  0  0  0  0  0  0  0  0  0  0
    3.6064    1.9426   -0.7749 H   0  0  0  0  0  0  0  0  0  0  0  0
    1.9197    1.8630    0.0287 H   0  0  0  0  0  0  0  0  0  0  0  0
  1  3  1  0
  1  4  1  0
  1 11  1  0
  1 15  1  0
  2  9  1  0
  2 10  1  0
  2 12  1  0
  3  5  1  0
  3 16  1  0
  3 17  1  0
  4  6  1  0
  4 20  1  0
  4 21  1  0
  5  7  1  0
  5 18  1  0
  5 19  1  0
  6  8  1  0
  6 22  1  0
  6 23  1  0
  7 11  1  0
  7 24  1  0
  7 25  1  0
  8 11  1  0
  8 26  1  0
  8 27  1  0
  9 28  1  0
  9 29  1  0
  9 30  1  0
 10 31  1  0
 10 32  1  0
 10 33  1  0
 11 14  1  0
 12 13  2  3
 12 34  1  0
 13 35  1  0
 13 36  1  0
M  RAD  1   2   2
M  END
>  <reaction>  (17) 
rxn_561

>  <mol_properties>  (17) 
{"1": {"label": "*0", "atom_type": "Cd"}, "2": {"label": "*1", "atom_type": "Cs"}, "16": {"label": "*3", "atom_type": "Cs"}, "20": {"label": "*4", "atom_type": "Cs"}, "26": {"label": "*2", "atom_type": "H0"}}

>  <type>  (17) 
unop_13

>  <geom_source>  (17) 
AutoTST

$$$$
