
     RDKit          3D

 13 12  0  0  0  0  0  0  0  0999 V2000
    2.2975   -0.6134    0.7685 C   0  0  0  0  0  0  0  0  0  0  0  0
    1.1676   -0.5248    0.3802 C   0  0  0  0  0  0  0  0  0  0  0  0
   -0.2109   -0.3926   -0.0948 C   0  0  0  0  0  0  0  0  0  0  0  0
   -0.2501    0.2584   -1.4808 C   0  0  0  0  0  0  0  0  0  0  0  0
   -1.0633    0.3831    0.9141 C   0  0  0  0  0  0  0  0  0  0  0  0
    3.2999   -0.6974    1.1133 H   0  0  0  0  0  0  0  0  0  0  0  0
   -0.6209   -1.4038   -0.1814 H   0  0  0  0  0  0  0  0  0  0  0  0
    0.3402   -0.3102   -2.1992 H   0  0  0  0  0  0  0  0  0  0  0  0
    0.1511    1.2724   -1.4369 H   0  0  0  0  0  0  0  0  0  0  0  0
   -1.2791    0.3109   -1.8407 H   0  0  0  0  0  0  0  0  0  0  0  0
   -0.6861    1.4008    1.0287 H   0  0  0  0  0  0  0  0  0  0  0  0
   -1.0492   -0.0971    1.8924 H   0  0  0  0  0  0  0  0  0  0  0  0
   -2.0971    0.4363    0.5680 H   0  0  0  0  0  0  0  0  0  0  0  0
  1  2  3  0
  1  6  1  0
  2  3  1  0
  3  4  1  0
  3  5  1  0
  3  7  1  0
  4  8  1  0
  4  9  1  0
  4 10  1  0
  5 11  1  0
  5 12  1  0
  5 13  1  0
M  END
>  <reaction>  (1) 
rxn_110

>  <mol_properties>  (1) 
{"2": {"label": "donator", "atom_type": "Cs"}, "6": {"label": "d_hydrogen", "atom_type": "H0"}}

>  <type>  (1) 
r1h

$$$$

     RDKit          3D

  3  2  0  0  0  0  0  0  0  0999 V2000
    0.0002    0.4233    0.0000 N   0  0  0  0  0  2  0  0  0  0  0  0
   -0.8051   -0.2112    0.0000 H   0  0  0  0  0  0  0  0  0  0  0  0
    0.8049   -0.2121    0.0000 H   0  0  0  0  0  0  0  0  0  0  0  0
  1  2  1  0
  1  3  1  0
M  RAD  1   1   2
M  END
>  <reaction>  (2) 
rxn_110

>  <mol_properties>  (2) 
{"0": {"label": "acceptor", "atom_type": "N3s"}}

>  <type>  (2) 
r2

$$$$

     RDKit          3D

  4  3  0  0  0  0  0  0  0  0999 V2000
    0.0006   -0.0009    0.2762 N   0  0  0  0  0  0  0  0  0  0  0  0
   -0.4188    0.8439   -0.0883 H   0  0  0  0  0  0  0  0  0  0  0  0
   -0.5215   -0.7840   -0.0936 H   0  0  0  0  0  0  0  0  0  0  0  0
    0.9397   -0.0590   -0.0943 H   0  0  0  0  0  0  0  0  0  0  0  0
  1  2  1  0
  1  3  1  0
  1  4  1  0
M  END
>  <reaction>  (3) 
rxn_110

>  <mol_properties>  (3) 
{"0": {"label": "acceptor", "atom_type": "N3s"}, "3": {"label": "a_hydrogen", "atom_type": "H0"}}

>  <type>  (3) 
r2h

$$$$

     RDKit          3D

 16 14  0  0  0  0  0  0  0  0999 V2000
    0.1476   -2.1281    1.2114 N   0  0  0  0  0  2  0  0  0  0  0  0
   -0.6219   -2.5054    0.6522 H   0  0  0  0  0  0  0  0  0  0  0  0
    0.9824   -2.4125    0.6925 H   0  0  0  0  0  0  0  0  0  0  0  0
    0.1094    0.0738   -2.3515 C   0  0  0  0  0  0  0  0  0  0  0  0
    0.0724    0.1974   -1.1581 C   0  0  0  0  0  0  0  0  0  0  0  0
    0.0290    0.3254    0.2797 C   0  0  0  0  0  0  0  0  0  0  0  0
   -1.2920    0.8687    0.8023 C   0  0  0  0  0  0  0  0  0  0  0  0
    1.2510    1.0158    0.8659 C   0  0  0  0  0  0  0  0  0  0  0  0
    0.1418   -0.0282   -3.4095 H   0  0  0  0  0  0  0  0  0  0  0  0
    0.0832   -0.8096    0.7386 H   0  0  0  0  0  0  0  0  0  0  0  0
   -2.1358    0.3088    0.3994 H   0  0  0  0  0  0  0  0  0  0  0  0
   -1.4132    1.9172    0.5177 H   0  0  0  0  0  0  0  0  0  0  0  0
   -1.3166    0.8010    1.8908 H   0  0  0  0  0  0  0  0  0  0  0  0
    1.2646    2.0720    0.5848 H   0  0  0  0  0  0  0  0  0  0  0  0
    2.1727    0.5580    0.5072 H   0  0  0  0  0  0  0  0  0  0  0  0
    1.2289    0.9482    1.9545 H   0  0  0  0  0  0  0  0  0  0  0  0
  1  2  1  0
  1  3  1  0
  4  5  3  0
  4  9  1  0
  5  6  1  0
  6  7  1  0
  6  8  1  0
  6 10  1  0
  7 11  1  0
  7 12  1  0
  7 13  1  0
  8 14  1  0
  8 15  1  0
  8 16  1  0
M  RAD  1   1   2
M  END
>  <reaction>  (4) 
rxn_110

>  <mol_properties>  (4) 
{"0": {"label": "*3", "atom_type": "N3s"}, "1": {"label": "*4", "atom_type": "H0"}, "4": {"label": "*0", "atom_type": "Ct"}, "5": {"label": "*1", "atom_type": "Cs"}, "9": {"label": "*2", "atom_type": "H0"}}

>  <type>  (4) 
ts

$$$$

     RDKit          3D

 16 14  0  0  0  0  0  0  0  0999 V2000
   -0.0030   -2.1806    1.0484 N   0  0  0  0  0  0  0  0  0  0  0  0
    0.8321   -2.3203    1.6013 H   0  0  0  0  0  0  0  0  0  0  0  0
   -0.5910   -1.6986    1.7151 H   0  0  0  0  0  0  0  0  0  0  0  0
   -0.0030    0.1976   -2.3982 C   0  0  0  0  0  0  0  0  0  0  0  0
   -0.0030    0.1976   -1.2001 C   0  0  0  0  0  0  0  0  0  0  0  0
   -0.0030    0.2215    0.2637 C   0  0  0  0  0  3  0  0  0  0  0  0
   -1.2691    0.8980    0.7981 C   0  0  0  0  0  0  0  0  0  0  0  0
    1.2632    0.8979    0.7981 C   0  0  0  0  0  0  0  0  0  0  0  0
   -0.0030    0.1976   -3.4615 H   0  0  0  0  0  0  0  0  0  0  0  0
   -0.0030   -1.0271    0.6716 H   0  0  0  0  0  0  0  0  0  0  0  0
   -2.1661    0.3987    0.4322 H   0  0  0  0  0  0  0  0  0  0  0  0
   -1.3064    1.9415    0.4806 H   0  0  0  0  0  0  0  0  0  0  0  0
   -1.2764    0.8700    1.8892 H   0  0  0  0  0  0  0  0  0  0  0  0
    1.3005    1.9415    0.4806 H   0  0  0  0  0  0  0  0  0  0  0  0
    2.1602    0.3986    0.4322 H   0  0  0  0  0  0  0  0  0  0  0  0
    1.2705    0.8699    1.8892 H   0  0  0  0  0  0  0  0  0  0  0  0
  1  2  1  0
  1  3  1  0
  1 10  1  0
  4  5  3  0
  4  9  1  0
  5  6  1  0
  6  7  1  0
  6  8  1  0
  7 11  1  0
  7 12  1  0
  7 13  1  0
  8 14  1  0
  8 15  1  0
  8 16  1  0
M  RAD  1   6   2
M  END
>  <reaction>  (5) 
rxn_110

>  <mol_properties>  (5) 
{"0": {"label": "*3", "atom_type": "N3s"}, "1": {"label": "*4", "atom_type": "H0"}, "4": {"label": "*0", "atom_type": "Ct"}, "5": {"label": "*1", "atom_type": "Cs"}, "9": {"label": "*2", "atom_type": "H0"}}

>  <type>  (5) 
unop_1

>  <geom_source>  (5) 
Heuristics

$$$$

     RDKit          3D

 16 14  0  0  0  0  0  0  0  0999 V2000
   -0.0124   -2.1760    1.0632 N   0  0  0  0  0  0  0  0  0  0  0  0
    0.4698   -2.7247    0.3639 H   0  0  0  0  0  0  0  0  0  0  0  0
    0.5349   -1.6690    1.7459 H   0  0  0  0  0  0  0  0  0  0  0  0
   -0.0123    0.2022   -2.3833 C   0  0  0  0  0  0  0  0  0  0  0  0
   -0.0123    0.2022   -1.1852 C   0  0  0  0  0  0  0  0  0  0  0  0
   -0.0123    0.2261    0.2786 C   0  0  0  0  0  3  0  0  0  0  0  0
   -1.2784    0.9026    0.8129 C   0  0  0  0  0  0  0  0  0  0  0  0
    1.2538    0.9026    0.8129 C   0  0  0  0  0  0  0  0  0  0  0  0
   -0.0123    0.2022   -3.4466 H   0  0  0  0  0  0  0  0  0  0  0  0
   -0.0124   -1.0225    0.6864 H   0  0  0  0  0  0  0  0  0  0  0  0
   -2.1755    0.4033    0.4470 H   0  0  0  0  0  0  0  0  0  0  0  0
   -1.3158    1.9461    0.4954 H   0  0  0  0  0  0  0  0  0  0  0  0
   -1.2858    0.8746    1.9040 H   0  0  0  0  0  0  0  0  0  0  0  0
    1.2912    1.9461    0.4954 H   0  0  0  0  0  0  0  0  0  0  0  0
    2.1508    0.4032    0.4470 H   0  0  0  0  0  0  0  0  0  0  0  0
    1.2611    0.8745    1.9040 H   0  0  0  0  0  0  0  0  0  0  0  0
  1  2  1  0
  1  3  1  0
  1 10  1  0
  4  5  3  0
  4  9  1  0
  5  6  1  0
  6  7  1  0
  6  8  1  0
  7 11  1  0
  7 12  1  0
  7 13  1  0
  8 14  1  0
  8 15  1  0
  8 16  1  0
M  RAD  1   6   2
M  END
>  <reaction>  (6) 
rxn_110

>  <mol_properties>  (6) 
{"0": {"label": "*3", "atom_type": "N3s"}, "1": {"label": "*4", "atom_type": "H0"}, "4": {"label": "*0", "atom_type": "Ct"}, "5": {"label": "*1", "atom_type": "Cs"}, "9": {"label": "*2", "atom_type": "H0"}}

>  <type>  (6) 
unop_2

>  <geom_source>  (6) 
Heuristics

$$$$

     RDKit          3D

 16 14  0  0  0  0  0  0  0  0999 V2000
    0.0049   -2.1778    1.0471 N   0  0  0  0  0  0  0  0  0  0  0  0
    0.4871   -2.2078    1.9354 H   0  0  0  0  0  0  0  0  0  0  0  0
   -0.8928   -2.0438    1.4927 H   0  0  0  0  0  0  0  0  0  0  0  0
    0.0050    0.2004   -2.3995 C   0  0  0  0  0  0  0  0  0  0  0  0
    0.0050    0.2004   -1.2014 C   0  0  0  0  0  0  0  0  0  0  0  0
    0.0050    0.2244    0.2624 C   0  0  0  0  0  3  0  0  0  0  0  0
   -1.2611    0.9008    0.7967 C   0  0  0  0  0  0  0  0  0  0  0  0
    1.2711    0.9008    0.7967 C   0  0  0  0  0  0  0  0  0  0  0  0
    0.0050    0.2004   -3.4628 H   0  0  0  0  0  0  0  0  0  0  0  0
    0.0050   -1.0243    0.6703 H   0  0  0  0  0  0  0  0  0  0  0  0
   -2.1582    0.4015    0.4308 H   0  0  0  0  0  0  0  0  0  0  0  0
   -1.2985    1.9444    0.4792 H   0  0  0  0  0  0  0  0  0  0  0  0
   -1.2685    0.8728    1.8878 H   0  0  0  0  0  0  0  0  0  0  0  0
    1.3085    1.9443    0.4792 H   0  0  0  0  0  0  0  0  0  0  0  0
    2.1682    0.4015    0.4308 H   0  0  0  0  0  0  0  0  0  0  0  0
    1.2784    0.8728    1.8878 H   0  0  0  0  0  0  0  0  0  0  0  0
  1  2  1  0
  1  3  1  0
  1 10  1  0
  4  5  3  0
  4  9  1  0
  5  6  1  0
  6  7  1  0
  6  8  1  0
  7 11  1  0
  7 12  1  0
  7 13  1  0
  8 14  1  0
  8 15  1  0
  8 16  1  0
M  RAD  1   6   2
M  END
>  <reaction>  (7) 
rxn_110

>  <mol_properties>  (7) 
{"0": {"label": "*3", "atom_type": "N3s"}, "1": {"label": "*4", "atom_type": "H0"}, "4": {"label": "*0", "atom_type": "Ct"}, "5": {"label": "*1", "atom_type": "Cs"}, "9": {"label": "*2", "atom_type": "H0"}}

>  <type>  (7) 
unop_3

>  <geom_source>  (7) 
Heuristics

$$$$

     RDKit          3D

 16 14  0  0  0  0  0  0  0  0999 V2000
    0.0000   -2.1644    1.0675 N   0  0  0  0  0  0  0  0  0  0  0  0
   -0.8351   -2.6034    0.7037 H   0  0  0  0  0  0  0  0  0  0  0  0
    0.8319   -2.7392    1.0630 H   0  0  0  0  0  0  0  0  0  0  0  0
    0.0000    0.2138   -2.3791 C   0  0  0  0  0  0  0  0  0  0  0  0
    0.0000    0.2138   -1.1810 C   0  0  0  0  0  0  0  0  0  0  0  0
    0.0000    0.2378    0.2828 C   0  0  0  0  0  3  0  0  0  0  0  0
   -1.2661    0.9142    0.8171 C   0  0  0  0  0  0  0  0  0  0  0  0
    1.2662    0.9142    0.8171 C   0  0  0  0  0  0  0  0  0  0  0  0
    0.0000    0.2138   -3.4424 H   0  0  0  0  0  0  0  0  0  0  0  0
    0.0000   -1.0109    0.6907 H   0  0  0  0  0  0  0  0  0  0  0  0
   -2.1631    0.4149    0.4512 H   0  0  0  0  0  0  0  0  0  0  0  0
   -1.3034    1.9578    0.4996 H   0  0  0  0  0  0  0  0  0  0  0  0
   -1.2734    0.8862    1.9082 H   0  0  0  0  0  0  0  0  0  0  0  0
    1.3035    1.9577    0.4996 H   0  0  0  0  0  0  0  0  0  0  0  0
    2.1632    0.4149    0.4512 H   0  0  0  0  0  0  0  0  0  0  0  0
    1.2735    0.8862    1.9082 H   0  0  0  0  0  0  0  0  0  0  0  0
  1  2  1  0
  1  3  1  0
  1 10  1  0
  4  5  3  0
  4  9  1  0
  5  6  1  0
  6  7  1  0
  6  8  1  0
  7 11  1  0
  7 12  1  0
  7 13  1  0
  8 14  1  0
  8 15  1  0
  8 16  1  0
M  RAD  1   6   2
M  END
>  <reaction>  (8) 
rxn_110

>  <mol_properties>  (8) 
{"0": {"label": "*3", "atom_type": "N3s"}, "1": {"label": "*4", "atom_type": "H0"}, "4": {"label": "*0", "atom_type": "Ct"}, "5": {"label": "*1", "atom_type": "Cs"}, "9": {"label": "*2", "atom_type": "H0"}}

>  <type>  (8) 
unop_4

>  <geom_source>  (8) 
Heuristics

$$$$

     RDKit          3D

 16 14  0  0  0  0  0  0  0  0999 V2000
    0.0104   -2.1705    1.0505 N   0  0  0  0  0  0  0  0  0  0  0  0
    0.0104   -2.1604    2.0617 H   0  0  0  0  0  0  0  0  0  0  0  0
   -0.8599   -2.6842    1.0848 H   0  0  0  0  0  0  0  0  0  0  0  0
    0.0104    0.2077   -2.3961 C   0  0  0  0  0  0  0  0  0  0  0  0
    0.0104    0.2077   -1.1980 C   0  0  0  0  0  0  0  0  0  0  0  0
    0.0104    0.2317    0.2658 C   0  0  0  0  0  3  0  0  0  0  0  0
   -1.2557    0.9081    0.8002 C   0  0  0  0  0  0  0  0  0  0  0  0
    1.2766    0.9081    0.8002 C   0  0  0  0  0  0  0  0  0  0  0  0
    0.0104    0.2077   -3.4594 H   0  0  0  0  0  0  0  0  0  0  0  0
    0.0104   -1.0170    0.6737 H   0  0  0  0  0  0  0  0  0  0  0  0
   -2.1527    0.4088    0.4342 H   0  0  0  0  0  0  0  0  0  0  0  0
   -1.2930    1.9516    0.4827 H   0  0  0  0  0  0  0  0  0  0  0  0
   -1.2630    0.8801    1.8912 H   0  0  0  0  0  0  0  0  0  0  0  0
    1.3139    1.9516    0.4827 H   0  0  0  0  0  0  0  0  0  0  0  0
    2.1736    0.4088    0.4342 H   0  0  0  0  0  0  0  0  0  0  0  0
    1.2839    0.8801    1.8912 H   0  0  0  0  0  0  0  0  0  0  0  0
  1  2  1  0
  1  3  1  0
  1 10  1  0
  4  5  3  0
  4  9  1  0
  5  6  1  0
  6  7  1  0
  6  8  1  0
  7 11  1  0
  7 12  1  0
  7 13  1  0
  8 14  1  0
  8 15  1  0
  8 16  1  0
M  RAD  1   6   2
M  END
>  <reaction>  (9) 
rxn_110

>  <mol_properties>  (9) 
{"0": {"label": "*3", "atom_type": "N3s"}, "1": {"label": "*4", "atom_type": "H0"}, "4": {"label": "*0", "atom_type": "Ct"}, "5": {"label": "*1", "atom_type": "Cs"}, "9": {"label": "*2", "atom_type": "H0"}}

>  <type>  (9) 
unop_5

>  <geom_source>  (9) 
Heuristics

$$$$

     RDKit          3D

 16 14  0  0  0  0  0  0  0  0999 V2000
    0.0046   -2.1633    1.0638 N   0  0  0  0  0  0  0  0  0  0  0  0
   -0.9597   -2.4526    1.1583 H   0  0  0  0  0  0  0  0  0  0  0  0
    0.5831   -2.9778    0.9071 H   0  0  0  0  0  0  0  0  0  0  0  0
    0.0046    0.2149   -2.3828 C   0  0  0  0  0  0  0  0  0  0  0  0
    0.0046    0.2149   -1.1847 C   0  0  0  0  0  0  0  0  0  0  0  0
    0.0046    0.2389    0.2791 C   0  0  0  0  0  3  0  0  0  0  0  0
   -1.2615    0.9153    0.8135 C   0  0  0  0  0  0  0  0  0  0  0  0
    1.2708    0.9153    0.8135 C   0  0  0  0  0  0  0  0  0  0  0  0
    0.0046    0.2149   -3.4461 H   0  0  0  0  0  0  0  0  0  0  0  0
    0.0046   -1.0098    0.6870 H   0  0  0  0  0  0  0  0  0  0  0  0
   -2.1585    0.4160    0.4475 H   0  0  0  0  0  0  0  0  0  0  0  0
   -1.2988    1.9588    0.4959 H   0  0  0  0  0  0  0  0  0  0  0  0
   -1.2688    0.8873    1.9045 H   0  0  0  0  0  0  0  0  0  0  0  0
    1.3081    1.9588    0.4959 H   0  0  0  0  0  0  0  0  0  0  0  0
    2.1678    0.4160    0.4475 H   0  0  0  0  0  0  0  0  0  0  0  0
    1.2781    0.8873    1.9045 H   0  0  0  0  0  0  0  0  0  0  0  0
  1  2  1  0
  1  3  1  0
  1 10  1  0
  4  5  3  0
  4  9  1  0
  5  6  1  0
  6  7  1  0
  6  8  1  0
  7 11  1  0
  7 12  1  0
  7 13  1  0
  8 14  1  0
  8 15  1  0
  8 16  1  0
M  RAD  1   6   2
M  END
>  <reaction>  (10) 
rxn_110

>  <mol_properties>  (10) 
{"0": {"label": "*3", "atom_type": "N3s"}, "1": {"label": "*4", "atom_type": "H0"}, "4": {"label": "*0", "atom_type": "Ct"}, "5": {"label": "*1", "atom_type": "Cs"}, "9": {"label": "*2", "atom_type": "H0"}}

>  <type>  (10) 
unop_6

>  <geom_source>  (10) 
Heuristics

$$$$

     RDKit          3D

 16 14  0  0  0  0  0  0  0  0999 V2000
    0.0073   -2.1634    1.0594 N   0  0  0  0  0  0  0  0  0  0  0  0
   -0.8278   -2.3030    1.6122 H   0  0  0  0  0  0  0  0  0  0  0  0
    0.2315   -3.1183    0.8135 H   0  0  0  0  0  0  0  0  0  0  0  0
    0.0073    0.2148   -2.3872 C   0  0  0  0  0  0  0  0  0  0  0  0
    0.0073    0.2148   -1.1891 C   0  0  0  0  0  0  0  0  0  0  0  0
    0.0073    0.2387    0.2747 C   0  0  0  0  0  3  0  0  0  0  0  0
   -1.2588    0.9152    0.8090 C   0  0  0  0  0  0  0  0  0  0  0  0
    1.2735    0.9152    0.8090 C   0  0  0  0  0  0  0  0  0  0  0  0
    0.0073    0.2148   -3.4505 H   0  0  0  0  0  0  0  0  0  0  0  0
    0.0073   -1.0099    0.6826 H   0  0  0  0  0  0  0  0  0  0  0  0
   -2.1558    0.4159    0.4431 H   0  0  0  0  0  0  0  0  0  0  0  0
   -1.2961    1.9587    0.4915 H   0  0  0  0  0  0  0  0  0  0  0  0
   -1.2661    0.8872    1.9001 H   0  0  0  0  0  0  0  0  0  0  0  0
    1.3108    1.9587    0.4915 H   0  0  0  0  0  0  0  0  0  0  0  0
    2.1705    0.4158    0.4431 H   0  0  0  0  0  0  0  0  0  0  0  0
    1.2808    0.8872    1.9001 H   0  0  0  0  0  0  0  0  0  0  0  0
  1  2  1  0
  1  3  1  0
  1 10  1  0
  4  5  3  0
  4  9  1  0
  5  6  1  0
  6  7  1  0
  6  8  1  0
  7 11  1  0
  7 12  1  0
  7 13  1  0
  8 14  1  0
  8 15  1  0
  8 16  1  0
M  RAD  1   6   2
M  END
>  <reaction>  (11) 
rxn_110

>  <mol_properties>  (11) 
{"0": {"label": "*3", "atom_type": "N3s"}, "1": {"label": "*4", "atom_type": "H0"}, "4": {"label": "*0", "atom_type": "Ct"}, "5": {"label": "*1", "atom_type": "Cs"}, "9": {"label": "*2", "atom_type": "H0"}}

>  <type>  (11) 
unop_7

>  <geom_source>  (11) 
Heuristics

$$$$

     RDKit          3D

 16 14  0  0  0  0  0  0  0  0999 V2000
   -0.0088   -2.1806    1.0528 N   0  0  0  0  0  0  0  0  0  0  0  0
    0.9555   -2.4699    1.1473 H   0  0  0  0  0  0  0  0  0  0  0  0
   -0.2446   -1.5544    1.8110 H   0  0  0  0  0  0  0  0  0  0  0  0
   -0.0087    0.1976   -2.3938 C   0  0  0  0  0  0  0  0  0  0  0  0
   -0.0087    0.1976   -1.1957 C   0  0  0  0  0  0  0  0  0  0  0  0
   -0.0087    0.2216    0.2681 C   0  0  0  0  0  3  0  0  0  0  0  0
   -1.2748    0.8981    0.8025 C   0  0  0  0  0  0  0  0  0  0  0  0
    1.2574    0.8980    0.8025 C   0  0  0  0  0  0  0  0  0  0  0  0
   -0.0087    0.1976   -3.4571 H   0  0  0  0  0  0  0  0  0  0  0  0
   -0.0087   -1.0271    0.6760 H   0  0  0  0  0  0  0  0  0  0  0  0
   -2.1719    0.3988    0.4366 H   0  0  0  0  0  0  0  0  0  0  0  0
   -1.3122    1.9416    0.4850 H   0  0  0  0  0  0  0  0  0  0  0  0
   -1.2822    0.8701    1.8935 H   0  0  0  0  0  0  0  0  0  0  0  0
    1.2948    1.9415    0.4850 H   0  0  0  0  0  0  0  0  0  0  0  0
    2.1544    0.3987    0.4366 H   0  0  0  0  0  0  0  0  0  0  0  0
    1.2647    0.8700    1.8935 H   0  0  0  0  0  0  0  0  0  0  0  0
  1  2  1  0
  1  3  1  0
  1 10  1  0
  4  5  3  0
  4  9  1  0
  5  6  1  0
  6  7  1  0
  6  8  1  0
  7 11  1  0
  7 12  1  0
  7 13  1  0
  8 14  1  0
  8 15  1  0
  8 16  1  0
M  RAD  1   6   2
M  END
>  <reaction>  (12) 
rxn_110

>  <mol_properties>  (12) 
{"0": {"label": "*3", "atom_type": "N3s"}, "1": {"label": "*4", "atom_type": "H0"}, "4": {"label": "*0", "atom_type": "Ct"}, "5": {"label": "*1", "atom_type": "Cs"}, "9": {"label": "*2", "atom_type": "H0"}}

>  <type>  (12) 
unop_8

>  <geom_source>  (12) 
Heuristics

$$$$

     RDKit          3D

 16 14  0  0  0  0  0  0  0  0999 V2000
   -0.0058   -2.1672    1.0688 N   0  0  0  0  0  0  0  0  0  0  0  0
   -0.4879   -2.7159    0.3695 H   0  0  0  0  0  0  0  0  0  0  0  0
    0.9557   -2.3929    1.2861 H   0  0  0  0  0  0  0  0  0  0  0  0
   -0.0057    0.2110   -2.3778 C   0  0  0  0  0  0  0  0  0  0  0  0
   -0.0057    0.2110   -1.1797 C   0  0  0  0  0  0  0  0  0  0  0  0
   -0.0057    0.2349    0.2841 C   0  0  0  0  0  3  0  0  0  0  0  0
   -1.2719    0.9114    0.8185 C   0  0  0  0  0  0  0  0  0  0  0  0
    1.2604    0.9113    0.8185 C   0  0  0  0  0  0  0  0  0  0  0  0
   -0.0057    0.2110   -3.4411 H   0  0  0  0  0  0  0  0  0  0  0  0
   -0.0058   -1.0138    0.6920 H   0  0  0  0  0  0  0  0  0  0  0  0
   -2.1689    0.4121    0.4526 H   0  0  0  0  0  0  0  0  0  0  0  0
   -1.3092    1.9549    0.5010 H   0  0  0  0  0  0  0  0  0  0  0  0
   -1.2792    0.8834    1.9095 H   0  0  0  0  0  0  0  0  0  0  0  0
    1.2978    1.9548    0.5010 H   0  0  0  0  0  0  0  0  0  0  0  0
    2.1574    0.4120    0.4526 H   0  0  0  0  0  0  0  0  0  0  0  0
    1.2677    0.8833    1.9095 H   0  0  0  0  0  0  0  0  0  0  0  0
  1  2  1  0
  1  3  1  0
  1 10  1  0
  4  5  3  0
  4  9  1  0
  5  6  1  0
  6  7  1  0
  6  8  1  0
  7 11  1  0
  7 12  1  0
  7 13  1  0
  8 14  1  0
  8 15  1  0
  8 16  1  0
M  RAD  1   6   2
M  END
>  <reaction>  (13) 
rxn_110

>  <mol_properties>  (13) 
{"0": {"label": "*3", "atom_type": "N3s"}, "1": {"label": "*4", "atom_type": "H0"}, "4": {"label": "*0", "atom_type": "Ct"}, "5": {"label": "*1", "atom_type": "Cs"}, "9": {"label": "*2", "atom_type": "H0"}}

>  <type>  (13) 
unop_9

>  <geom_source>  (13) 
Heuristics

$$$$

     RDKit          3D

 16 14  0  0  0  0  0  0  0  0999 V2000
   -0.0118   -2.1789    1.0582 N   0  0  0  0  0  0  0  0  0  0  0  0
    0.8233   -2.6180    0.6944 H   0  0  0  0  0  0  0  0  0  0  0  0
    0.1325   -1.5373    1.8263 H   0  0  0  0  0  0  0  0  0  0  0  0
   -0.0117    0.1993   -2.3884 C   0  0  0  0  0  0  0  0  0  0  0  0
   -0.0117    0.1993   -1.1903 C   0  0  0  0  0  0  0  0  0  0  0  0
   -0.0117    0.2232    0.2735 C   0  0  0  0  0  3  0  0  0  0  0  0
   -1.2778    0.8997    0.8079 C   0  0  0  0  0  0  0  0  0  0  0  0
    1.2544    0.8996    0.8079 C   0  0  0  0  0  0  0  0  0  0  0  0
   -0.0117    0.1993   -3.4517 H   0  0  0  0  0  0  0  0  0  0  0  0
   -0.0118   -1.0255    0.6814 H   0  0  0  0  0  0  0  0  0  0  0  0
   -2.1749    0.4004    0.4419 H   0  0  0  0  0  0  0  0  0  0  0  0
   -1.3152    1.9432    0.4903 H   0  0  0  0  0  0  0  0  0  0  0  0
   -1.2852    0.8717    1.8989 H   0  0  0  0  0  0  0  0  0  0  0  0
    1.2918    1.9431    0.4903 H   0  0  0  0  0  0  0  0  0  0  0  0
    2.1514    0.4003    0.4419 H   0  0  0  0  0  0  0  0  0  0  0  0
    1.2617    0.8716    1.8989 H   0  0  0  0  0  0  0  0  0  0  0  0
  1  2  1  0
  1  3  1  0
  1 10  1  0
  4  5  3  0
  4  9  1  0
  5  6  1  0
  6  7  1  0
  6  8  1  0
  7 11  1  0
  7 12  1  0
  7 13  1  0
  8 14  1  0
  8 15  1  0
  8 16  1  0
M  RAD  1   6   2
M  END
>  <reaction>  (14) 
rxn_110

>  <mol_properties>  (14) 
{"0": {"label": "*3", "atom_type": "N3s"}, "1": {"label": "*4", "atom_type": "H0"}, "4": {"label": "*0", "atom_type": "Ct"}, "5": {"label": "*1", "atom_type": "Cs"}, "9": {"label": "*2", "atom_type": "H0"}}

>  <type>  (14) 
unop_10

>  <geom_source>  (14) 
Heuristics

$$$$

     RDKit          3D

 16 14  0  0  0  0  0  0  0  0999 V2000
    0.0092   -2.1649    1.0552 N   0  0  0  0  0  0  0  0  0  0  0  0
   -0.4729   -2.1949    1.9436 H   0  0  0  0  0  0  0  0  0  0  0  0
   -0.2819   -3.1041    0.8193 H   0  0  0  0  0  0  0  0  0  0  0  0
    0.0093    0.2133   -2.3914 C   0  0  0  0  0  0  0  0  0  0  0  0
    0.0093    0.2133   -1.1933 C   0  0  0  0  0  0  0  0  0  0  0  0
    0.0093    0.2372    0.2705 C   0  0  0  0  0  3  0  0  0  0  0  0
   -1.2568    0.9137    0.8049 C   0  0  0  0  0  0  0  0  0  0  0  0
    1.2754    0.9137    0.8049 C   0  0  0  0  0  0  0  0  0  0  0  0
    0.0093    0.2133   -3.4547 H   0  0  0  0  0  0  0  0  0  0  0  0
    0.0093   -1.0114    0.6784 H   0  0  0  0  0  0  0  0  0  0  0  0
   -2.1539    0.4144    0.4390 H   0  0  0  0  0  0  0  0  0  0  0  0
   -1.2942    1.9572    0.4874 H   0  0  0  0  0  0  0  0  0  0  0  0
   -1.2642    0.8857    1.8959 H   0  0  0  0  0  0  0  0  0  0  0  0
    1.3128    1.9572    0.4874 H   0  0  0  0  0  0  0  0  0  0  0  0
    2.1724    0.4143    0.4390 H   0  0  0  0  0  0  0  0  0  0  0  0
    1.2827    0.8857    1.8959 H   0  0  0  0  0  0  0  0  0  0  0  0
  1  2  1  0
  1  3  1  0
  1 10  1  0
  4  5  3  0
  4  9  1  0
  5  6  1  0
  6  7  1  0
  6  8  1  0
  7 11  1  0
  7 12  1  0
  7 13  1  0
  8 14  1  0
  8 15  1  0
  8 16  1  0
M  RAD  1   6   2
M  END
>  <reaction>  (15) 
rxn_110

>  <mol_properties>  (15) 
{"0": {"label": "*3", "atom_type": "N3s"}, "1": {"label": "*4", "atom_type": "H0"}, "4": {"label": "*0", "atom_type": "Ct"}, "5": {"label": "*1", "atom_type": "Cs"}, "9": {"label": "*2", "atom_type": "H0"}}

>  <type>  (15) 
unop_11

>  <geom_source>  (15) 
Heuristics

$$$$

     RDKit          3D

 16 14  0  0  0  0  0  0  0  0999 V2000
   -0.0105   -2.1717    1.0671 N   0  0  0  0  0  0  0  0  0  0  0  0
   -0.0105   -2.7605    0.2450 H   0  0  0  0  0  0  0  0  0  0  0  0
    0.8598   -1.9843    1.5468 H   0  0  0  0  0  0  0  0  0  0  0  0
   -0.0104    0.2065   -2.3794 C   0  0  0  0  0  0  0  0  0  0  0  0
   -0.0104    0.2065   -1.1813 C   0  0  0  0  0  0  0  0  0  0  0  0
   -0.0104    0.2304    0.2825 C   0  0  0  0  0  3  0  0  0  0  0  0
   -1.2765    0.9069    0.8168 C   0  0  0  0  0  0  0  0  0  0  0  0
    1.2557    0.9069    0.8168 C   0  0  0  0  0  0  0  0  0  0  0  0
   -0.0104    0.2065   -3.4427 H   0  0  0  0  0  0  0  0  0  0  0  0
   -0.0104   -1.0182    0.6904 H   0  0  0  0  0  0  0  0  0  0  0  0
   -2.1736    0.4076    0.4509 H   0  0  0  0  0  0  0  0  0  0  0  0
   -1.3139    1.9504    0.4993 H   0  0  0  0  0  0  0  0  0  0  0  0
   -1.2839    0.8789    1.9079 H   0  0  0  0  0  0  0  0  0  0  0  0
    1.2931    1.9504    0.4993 H   0  0  0  0  0  0  0  0  0  0  0  0
    2.1527    0.4075    0.4509 H   0  0  0  0  0  0  0  0  0  0  0  0
    1.2630    0.8789    1.9079 H   0  0  0  0  0  0  0  0  0  0  0  0
  1  2  1  0
  1  3  1  0
  1 10  1  0
  4  5  3  0
  4  9  1  0
  5  6  1  0
  6  7  1  0
  6  8  1  0
  7 11  1  0
  7 12  1  0
  7 13  1  0
  8 14  1  0
  8 15  1  0
  8 16  1  0
M  RAD  1   6   2
M  END
>  <reaction>  (16) 
rxn_110

>  <mol_properties>  (16) 
{"0": {"label": "*3", "atom_type": "N3s"}, "1": {"label": "*4", "atom_type": "H0"}, "4": {"label": "*0", "atom_type": "Ct"}, "5": {"label": "*1", "atom_type": "Cs"}, "9": {"label": "*2", "atom_type": "H0"}}

>  <type>  (16) 
unop_12

>  <geom_source>  (16) 
Heuristics

$$$$
