
     RDKit          3D

 15 14  0  0  0  0  0  0  0  0999 V2000
    2.1256    0.4849   -0.6284 C   0  0  0  0  0  0  0  0  0  0  0  0
    1.1128    0.2141    0.1794 C   0  0  0  0  0  0  0  0  0  0  0  0
   -0.3017   -0.0425   -0.2513 C   0  0  0  0  0  0  0  0  0  0  0  0
   -1.2427    1.0075    0.3423 C   0  0  0  0  0  0  0  0  0  0  0  0
   -0.7381   -1.4526    0.1504 C   0  0  0  0  0  0  0  0  0  0  0  0
    3.1243    0.6602   -0.2486 H   0  0  0  0  0  0  0  0  0  0  0  0
    1.9908    0.5411   -1.7036 H   0  0  0  0  0  0  0  0  0  0  0  0
    1.2888    0.1665    1.2533 H   0  0  0  0  0  0  0  0  0  0  0  0
   -0.3426    0.0343   -1.3424 H   0  0  0  0  0  0  0  0  0  0  0  0
   -0.9570    2.0133    0.0315 H   0  0  0  0  0  0  0  0  0  0  0  0
   -1.2189    0.9728    1.4350 H   0  0  0  0  0  0  0  0  0  0  0  0
   -2.2723    0.8287    0.0254 H   0  0  0  0  0  0  0  0  0  0  0  0
   -0.6964   -1.5744    1.2363 H   0  0  0  0  0  0  0  0  0  0  0  0
   -0.0911   -2.2079   -0.2978 H   0  0  0  0  0  0  0  0  0  0  0  0
   -1.7646   -1.6461   -0.1677 H   0  0  0  0  0  0  0  0  0  0  0  0
  1  2  2  3
  1  6  1  0
  1  7  1  0
  2  3  1  0
  2  8  1  0
  3  4  1  0
  3  5  1  0
  3  9  1  0
  4 10  1  0
  4 11  1  0
  4 12  1  0
  5 13  1  0
  5 14  1  0
  5 15  1  0
M  END
>  <reaction>  (1) 
rxn_1113

>  <mol_properties>  (1) 
{"2": {"label": "donator", "atom_type": "Cs"}, "8": {"label": "d_hydrogen", "atom_type": "H0"}}

>  <type>  (1) 
r1h

$$$$

     RDKit          3D

 12 11  0  0  0  0  0  0  0  0999 V2000
   -0.9951    0.1196   -0.8321 C   0  0  0  0  0  0  0  0  0  0  0  0
   -0.3760    0.2571    0.5231 C   0  0  0  0  0  3  0  0  0  0  0  0
    0.9330   -0.1537    0.7810 C   0  0  0  0  0  0  0  0  0  0  0  0
    1.5987   -0.1880    1.9734 C   0  0  0  0  0  0  0  0  0  0  0  0
   -1.4483    0.9449    1.7152 S   0  0  0  0  0  0  0  0  0  0  0  0
   -1.9164   -0.4696   -0.7936 H   0  0  0  0  0  0  0  0  0  0  0  0
   -1.2565    1.0958   -1.2506 H   0  0  0  0  0  0  0  0  0  0  0  0
   -0.3088   -0.3780   -1.5170 H   0  0  0  0  0  0  0  0  0  0  0  0
    1.4783   -0.4898   -0.0971 H   0  0  0  0  0  0  0  0  0  0  0  0
    2.6278   -0.5153    2.0142 H   0  0  0  0  0  0  0  0  0  0  0  0
    1.1316    0.0690    2.9151 H   0  0  0  0  0  0  0  0  0  0  0  0
   -0.5306    1.3052    2.6211 H   0  0  0  0  0  0  0  0  0  0  0  0
  1  2  1  0
  1  6  1  0
  1  7  1  0
  1  8  1  0
  2  3  1  0
  2  5  1  0
  3  4  2  3
  3  9  1  0
  4 10  1  0
  4 11  1  0
  5 12  1  0
M  RAD  1   2   2
M  END
>  <reaction>  (2) 
rxn_1113

>  <mol_properties>  (2) 
{"1": {"label": "acceptor", "atom_type": "Cs"}}

>  <type>  (2) 
r2

$$$$

     RDKit          3D

 13 12  0  0  0  0  0  0  0  0999 V2000
   -1.1828    0.8269   -0.1645 C   0  0  0  0  0  0  0  0  0  0  0  0
   -0.4827   -0.4584   -0.5736 C   0  0  1  0  0  0  0  0  0  0  0  0
   -0.9759   -1.7030    0.1030 C   0  0  0  0  0  0  0  0  0  0  0  0
   -2.0084   -1.7831    0.9287 C   0  0  0  0  0  0  0  0  0  0  0  0
   -0.4908   -0.7025   -2.3913 S   0  0  0  0  0  0  0  0  0  0  0  0
   -1.0941    0.9860    0.9125 H   0  0  0  0  0  0  0  0  0  0  0  0
   -0.7405    1.6784   -0.6793 H   0  0  0  0  0  0  0  0  0  0  0  0
   -2.2437    0.7943   -0.4195 H   0  0  0  0  0  0  0  0  0  0  0  0
    0.5870   -0.3637   -0.3637 H   0  0  0  0  0  0  0  0  0  0  0  0
   -0.4209   -2.6026   -0.1443 H   0  0  0  0  0  0  0  0  0  0  0  0
   -2.2982   -2.7315    1.3623 H   0  0  0  0  0  0  0  0  0  0  0  0
   -2.5999   -0.9190    1.2055 H   0  0  0  0  0  0  0  0  0  0  0  0
   -1.8040   -0.9489   -2.4971 H   0  0  0  0  0  0  0  0  0  0  0  0
  1  2  1  0
  1  6  1  0
  1  7  1  0
  1  8  1  0
  2  3  1  0
  2  5  1  0
  2  9  1  1
  3  4  2  3
  3 10  1  0
  4 11  1  0
  4 12  1  0
  5 13  1  0
M  END
>  <reaction>  (3) 
rxn_1113

>  <mol_properties>  (3) 
{"1": {"label": "acceptor", "atom_type": "Cs"}, "12": {"label": "a_hydrogen", "atom_type": "H0"}}

>  <type>  (3) 
r2h

$$$$

     RDKit          3D

 27 25  0  0  0  0  0  0  0  0999 V2000
   -0.4404    0.7011   -1.7289 C   0  0  0  0  0  0  0  0  0  0  0  0
    0.1363    1.1301   -0.4038 C   0  0  0  0  0  3  0  0  0  0  0  0
    1.5592    1.4554   -0.3392 C   0  0  0  0  0  0  0  0  0  0  0  0
    2.4595    1.1991   -1.2915 C   0  0  0  0  0  0  0  0  0  0  0  0
   -0.9222    2.1789    0.6023 S   0  0  0  0  0  0  0  0  0  0  0  0
   -0.3722    1.5077   -2.4654 H   0  0  0  0  0  0  0  0  0  0  0  0
    0.0969   -0.1657   -2.1202 H   0  0  0  0  0  0  0  0  0  0  0  0
   -1.4894    0.4300   -1.6191 H   0  0  0  0  0  0  0  0  0  0  0  0
    1.8911    1.9060    0.5909 H   0  0  0  0  0  0  0  0  0  0  0  0
    3.5040    1.4403   -1.1435 H   0  0  0  0  0  0  0  0  0  0  0  0
    2.1880    0.7559   -2.2414 H   0  0  0  0  0  0  0  0  0  0  0  0
   -0.6747    3.3427   -0.0213 H   0  0  0  0  0  0  0  0  0  0  0  0
    0.2953   -2.9934   -0.7773 C   0  0  0  0  0  0  0  0  0  0  0  0
    0.7875   -2.0833    0.0674 C   0  0  0  0  0  0  0  0  0  0  0  0
    0.0210   -1.2055    0.9522 C   0  0  0  0  0  0  0  0  0  0  0  0
    0.7189   -0.8385    2.2432 C   0  0  0  0  0  0  0  0  0  0  0  0
   -1.4595   -1.4672    1.0850 C   0  0  0  0  0  0  0  0  0  0  0  0
    0.9517   -3.5754   -1.4111 H   0  0  0  0  0  0  0  0  0  0  0  0
   -0.7659   -3.1948   -0.8567 H   0  0  0  0  0  0  0  0  0  0  0  0
    1.8648   -1.9401    0.0972 H   0  0  0  0  0  0  0  0  0  0  0  0
    0.0717   -0.0423    0.3066 H   0  0  0  0  0  0  0  0  0  0  0  0
    1.7611   -0.5679    2.0627 H   0  0  0  0  0  0  0  0  0  0  0  0
    0.7078   -1.6802    2.9431 H   0  0  0  0  0  0  0  0  0  0  0  0
    0.2268    0.0070    2.7278 H   0  0  0  0  0  0  0  0  0  0  0  0
   -1.6412   -2.4226    1.5881 H   0  0  0  0  0  0  0  0  0  0  0  0
   -1.9539   -1.5033    0.1131 H   0  0  0  0  0  0  0  0  0  0  0  0
   -1.9373   -0.6823    1.6731 H   0  0  0  0  0  0  0  0  0  0  0  0
  1  2  1  0
  1  6  1  0
  1  7  1  0
  1  8  1  0
  2  3  1  0
  2  5  1  0
  3  4  2  3
  3  9  1  0
  4 10  1  0
  4 11  1  0
  5 12  1  0
 13 14  2  3
 13 18  1  0
 13 19  1  0
 14 15  1  0
 14 20  1  0
 15 16  1  0
 15 17  1  0
 15 21  1  0
 16 22  1  0
 16 23  1  0
 16 24  1  0
 17 25  1  0
 17 26  1  0
 17 27  1  0
M  RAD  1   2   2
M  END
>  <reaction>  (4) 
rxn_1113

>  <mol_properties>  (4) 
{"1": {"label": "*3", "atom_type": "Cs"}, "4": {"label": "*4", "atom_type": "S2s"}, "13": {"label": "*0", "atom_type": "Cd"}, "14": {"label": "*1", "atom_type": "Cs"}, "20": {"label": "*2", "atom_type": "H0"}}

>  <type>  (4) 
ts

$$$$

     RDKit          3D

 27 25  0  0  0  0  0  0  0  0999 V2000
   -1.4679    1.7192   -0.3073 C   0  0  0  0  0  0  0  0  0  0  0  0
   -0.2236    0.8943   -0.5911 C   0  0  0  0  0  0  0  0  0  0  0  0
    0.4341    1.1562   -1.9135 C   0  0  0  0  0  0  0  0  0  0  0  0
    0.0859    2.0913   -2.7844 C   0  0  0  0  0  0  0  0  0  0  0  0
    1.0188    1.0317    0.7511 S   0  0  0  0  0  0  0  0  0  0  0  0
   -1.2336    2.7849   -0.2756 H   0  0  0  0  0  0  0  0  0  0  0  0
   -2.2207    1.5568   -1.0820 H   0  0  0  0  0  0  0  0  0  0  0  0
   -1.8941    1.4411    0.6554 H   0  0  0  0  0  0  0  0  0  0  0  0
    1.2789    0.5112   -2.1342 H   0  0  0  0  0  0  0  0  0  0  0  0
    0.6291    2.2133   -3.7126 H   0  0  0  0  0  0  0  0  0  0  0  0
   -0.7447    2.7650   -2.6130 H   0  0  0  0  0  0  0  0  0  0  0  0
    1.3569    2.3050    0.5039 H   0  0  0  0  0  0  0  0  0  0  0  0
   -0.2236   -2.4396   -1.2259 C   0  0  0  0  0  0  0  0  0  0  0  0
   -0.2236   -2.4396    0.0976 C   0  0  0  0  0  0  0  0  0  0  0  0
   -0.2236   -1.2182    0.9696 C   0  0  0  0  0  3  0  0  0  0  0  0
    1.0357   -1.1778    1.8373 C   0  0  0  0  0  0  0  0  0  0  0  0
   -1.4829   -1.1778    1.8373 C   0  0  0  0  0  0  0  0  0  0  0  0
   -0.2236   -3.3613   -1.7942 H   0  0  0  0  0  0  0  0  0  0  0  0
   -0.2236   -1.5130   -1.7905 H   0  0  0  0  0  0  0  0  0  0  0  0
   -0.2236   -3.3909    0.6281 H   0  0  0  0  0  0  0  0  0  0  0  0
   -0.2236   -0.1618    0.1892 H   0  0  0  0  0  0  0  0  0  0  0  0
    1.9373   -1.1719    1.2231 H   0  0  0  0  0  0  0  0  0  0  0  0
    1.0803   -2.0516    2.4931 H   0  0  0  0  0  0  0  0  0  0  0  0
    1.0433   -0.2866    2.4683 H   0  0  0  0  0  0  0  0  0  0  0  0
   -1.5274   -2.0516    2.4931 H   0  0  0  0  0  0  0  0  0  0  0  0
   -2.3844   -1.1719    1.2231 H   0  0  0  0  0  0  0  0  0  0  0  0
   -1.4904   -0.2866    2.4683 H   0  0  0  0  0  0  0  0  0  0  0  0
  1  2  1  0
  1  6  1  0
  1  7  1  0
  1  8  1  0
  2  3  1  0
  2  5  1  0
  2 21  1  0
  3  4  2  3
  3  9  1  0
  4 10  1  0
  4 11  1  0
  5 12  1  0
 13 14  2  3
 13 18  1  0
 13 19  1  0
 14 15  1  0
 14 20  1  0
 15 16  1  0
 15 17  1  0
 16 22  1  0
 16 23  1  0
 16 24  1  0
 17 25  1  0
 17 26  1  0
 17 27  1  0
M  RAD  1  15   2
M  END
>  <reaction>  (5) 
rxn_1113

>  <mol_properties>  (5) 
{"1": {"label": "*3", "atom_type": "Cs"}, "4": {"label": "*4", "atom_type": "S2s"}, "13": {"label": "*0", "atom_type": "Cd"}, "14": {"label": "*1", "atom_type": "Cs"}, "20": {"label": "*2", "atom_type": "H0"}}

>  <type>  (5) 
unop_1

>  <geom_source>  (5) 
Heuristics

$$$$

     RDKit          3D

 27 25  0  0  0  0  0  0  0  0999 V2000
   -0.6670    0.4714   -1.8865 C   0  0  0  0  0  0  0  0  0  0  0  0
    0.0514    0.8128   -0.5916 C   0  0  0  0  0  0  0  0  0  0  0  0
    1.2831    1.6555   -0.7421 C   0  0  0  0  0  0  0  0  0  0  0  0
    1.7254    2.1933   -1.8688 C   0  0  0  0  0  0  0  0  0  0  0  0
   -1.0703    1.5784    0.6410 S   0  0  0  0  0  0  0  0  0  0  0  0
   -1.0273    1.3732   -2.3851 H   0  0  0  0  0  0  0  0  0  0  0  0
    0.0038   -0.0535   -2.5705 H   0  0  0  0  0  0  0  0  0  0  0  0
   -1.5265   -0.1661   -1.6850 H   0  0  0  0  0  0  0  0  0  0  0  0
    1.8259    1.8323    0.1812 H   0  0  0  0  0  0  0  0  0  0  0  0
    2.6223    2.7990   -1.8784 H   0  0  0  0  0  0  0  0  0  0  0  0
    1.2206    2.0538   -2.8169 H   0  0  0  0  0  0  0  0  0  0  0  0
   -1.2276    2.7395   -0.0099 H   0  0  0  0  0  0  0  0  0  0  0  0
    0.0514   -2.5212   -1.2265 C   0  0  0  0  0  0  0  0  0  0  0  0
    0.0514   -2.5212    0.0970 C   0  0  0  0  0  0  0  0  0  0  0  0
    0.0514   -1.2998    0.9690 C   0  0  0  0  0  3  0  0  0  0  0  0
    1.3107   -1.2594    1.8367 C   0  0  0  0  0  0  0  0  0  0  0  0
   -1.2079   -1.2594    1.8367 C   0  0  0  0  0  0  0  0  0  0  0  0
    0.0514   -3.4429   -1.7948 H   0  0  0  0  0  0  0  0  0  0  0  0
    0.0514   -1.5946   -1.7911 H   0  0  0  0  0  0  0  0  0  0  0  0
    0.0514   -3.4725    0.6275 H   0  0  0  0  0  0  0  0  0  0  0  0
    0.0514   -0.2434    0.1886 H   0  0  0  0  0  0  0  0  0  0  0  0
    2.2122   -1.2535    1.2225 H   0  0  0  0  0  0  0  0  0  0  0  0
    1.3553   -2.1332    2.4925 H   0  0  0  0  0  0  0  0  0  0  0  0
    1.3182   -0.3682    2.4677 H   0  0  0  0  0  0  0  0  0  0  0  0
   -1.2525   -2.1332    2.4925 H   0  0  0  0  0  0  0  0  0  0  0  0
   -2.1095   -1.2535    1.2225 H   0  0  0  0  0  0  0  0  0  0  0  0
   -1.2155   -0.3682    2.4677 H   0  0  0  0  0  0  0  0  0  0  0  0
  1  2  1  0
  1  6  1  0
  1  7  1  0
  1  8  1  0
  2  3  1  0
  2  5  1  0
  2 21  1  0
  3  4  2  3
  3  9  1  0
  4 10  1  0
  4 11  1  0
  5 12  1  0
 13 14  2  3
 13 18  1  0
 13 19  1  0
 14 15  1  0
 14 20  1  0
 15 16  1  0
 15 17  1  0
 16 22  1  0
 16 23  1  0
 16 24  1  0
 17 25  1  0
 17 26  1  0
 17 27  1  0
M  RAD  1  15   2
M  END
>  <reaction>  (6) 
rxn_1113

>  <mol_properties>  (6) 
{"1": {"label": "*3", "atom_type": "Cs"}, "4": {"label": "*4", "atom_type": "S2s"}, "13": {"label": "*0", "atom_type": "Cd"}, "14": {"label": "*1", "atom_type": "Cs"}, "20": {"label": "*2", "atom_type": "H0"}}

>  <type>  (6) 
unop_2

>  <geom_source>  (6) 
Heuristics

$$$$

     RDKit          3D

 27 25  0  0  0  0  0  0  0  0999 V2000
   -0.9490    2.0996    0.2744 C   0  0  0  0  0  0  0  0  0  0  0  0
   -0.2306    0.9622   -0.4324 C   0  0  0  0  0  0  0  0  0  0  0  0
   -0.3412    0.9623   -1.9283 C   0  0  0  0  0  0  0  0  0  0  0  0
   -0.9132    1.9016   -2.6665 C   0  0  0  0  0  0  0  0  0  0  0  0
    1.5345    0.8505    0.0534 S   0  0  0  0  0  0  0  0  0  0  0  0
   -0.5355    3.0667   -0.0176 H   0  0  0  0  0  0  0  0  0  0  0  0
   -2.0131    2.0933    0.0275 H   0  0  0  0  0  0  0  0  0  0  0  0
   -0.8419    2.0014    1.3535 H   0  0  0  0  0  0  0  0  0  0  0  0
    0.1155    0.1066   -2.4158 H   0  0  0  0  0  0  0  0  0  0  0  0
   -0.9353    1.8208   -3.7456 H   0  0  0  0  0  0  0  0  0  0  0  0
   -1.3788    2.7783   -2.2332 H   0  0  0  0  0  0  0  0  0  0  0  0
    1.9249    1.9735   -0.5654 H   0  0  0  0  0  0  0  0  0  0  0  0
   -0.2306   -2.3718   -1.0673 C   0  0  0  0  0  0  0  0  0  0  0  0
   -0.2306   -2.3718    0.2562 C   0  0  0  0  0  0  0  0  0  0  0  0
   -0.2306   -1.1504    1.1282 C   0  0  0  0  0  3  0  0  0  0  0  0
    1.0287   -1.1099    1.9959 C   0  0  0  0  0  0  0  0  0  0  0  0
   -1.4899   -1.1099    1.9959 C   0  0  0  0  0  0  0  0  0  0  0  0
   -0.2306   -3.2935   -1.6356 H   0  0  0  0  0  0  0  0  0  0  0  0
   -0.2306   -1.4452   -1.6319 H   0  0  0  0  0  0  0  0  0  0  0  0
   -0.2306   -3.3231    0.7867 H   0  0  0  0  0  0  0  0  0  0  0  0
   -0.2306   -0.0940    0.3478 H   0  0  0  0  0  0  0  0  0  0  0  0
    1.9303   -1.1041    1.3817 H   0  0  0  0  0  0  0  0  0  0  0  0
    1.0733   -1.9838    2.6517 H   0  0  0  0  0  0  0  0  0  0  0  0
    1.0362   -0.2187    2.6269 H   0  0  0  0  0  0  0  0  0  0  0  0
   -1.5345   -1.9838    2.6517 H   0  0  0  0  0  0  0  0  0  0  0  0
   -2.3915   -1.1040    1.3817 H   0  0  0  0  0  0  0  0  0  0  0  0
   -1.4974   -0.2187    2.6269 H   0  0  0  0  0  0  0  0  0  0  0  0
  1  2  1  0
  1  6  1  0
  1  7  1  0
  1  8  1  0
  2  3  1  0
  2  5  1  0
  2 21  1  0
  3  4  2  3
  3  9  1  0
  4 10  1  0
  4 11  1  0
  5 12  1  0
 13 14  2  3
 13 18  1  0
 13 19  1  0
 14 15  1  0
 14 20  1  0
 15 16  1  0
 15 17  1  0
 16 22  1  0
 16 23  1  0
 16 24  1  0
 17 25  1  0
 17 26  1  0
 17 27  1  0
M  RAD  1  15   2
M  END
>  <reaction>  (7) 
rxn_1113

>  <mol_properties>  (7) 
{"1": {"label": "*3", "atom_type": "Cs"}, "4": {"label": "*4", "atom_type": "S2s"}, "13": {"label": "*0", "atom_type": "Cd"}, "14": {"label": "*1", "atom_type": "Cs"}, "20": {"label": "*2", "atom_type": "H0"}}

>  <type>  (7) 
unop_3

>  <geom_source>  (7) 
Heuristics

$$$$

     RDKit          3D

 27 25  0  0  0  0  0  0  0  0999 V2000
    1.3003    0.7847   -1.4590 C   0  0  0  0  0  0  0  0  0  0  0  0
    0.0559    0.8135   -0.5871 C   0  0  0  0  0  0  0  0  0  0  0  0
    0.2076    1.5199    0.7274 C   0  0  0  0  0  0  0  0  0  0  0  0
    1.2773    2.1870    1.1337 C   0  0  0  0  0  0  0  0  0  0  0  0
   -1.3995    1.4830   -1.4802 S   0  0  0  0  0  0  0  0  0  0  0  0
    1.6067    1.7942   -1.7391 H   0  0  0  0  0  0  0  0  0  0  0  0
    2.1290    0.3097   -0.9290 H   0  0  0  0  0  0  0  0  0  0  0  0
    1.1075    0.2269   -2.3741 H   0  0  0  0  0  0  0  0  0  0  0  0
   -0.6657    1.4718    1.3703 H   0  0  0  0  0  0  0  0  0  0  0  0
    1.2910    2.6764    2.0990 H   0  0  0  0  0  0  0  0  0  0  0  0
    2.1734    2.2714    0.5311 H   0  0  0  0  0  0  0  0  0  0  0  0
   -0.9619    2.7485   -1.5392 H   0  0  0  0  0  0  0  0  0  0  0  0
    0.0559   -2.5204   -1.2219 C   0  0  0  0  0  0  0  0  0  0  0  0
    0.0559   -2.5204    0.1016 C   0  0  0  0  0  0  0  0  0  0  0  0
    0.0559   -1.2990    0.9736 C   0  0  0  0  0  3  0  0  0  0  0  0
    1.3152   -1.2586    1.8413 C   0  0  0  0  0  0  0  0  0  0  0  0
   -1.2034   -1.2586    1.8413 C   0  0  0  0  0  0  0  0  0  0  0  0
    0.0559   -3.4421   -1.7902 H   0  0  0  0  0  0  0  0  0  0  0  0
    0.0559   -1.5938   -1.7865 H   0  0  0  0  0  0  0  0  0  0  0  0
    0.0559   -3.4717    0.6321 H   0  0  0  0  0  0  0  0  0  0  0  0
    0.0559   -0.2426    0.1932 H   0  0  0  0  0  0  0  0  0  0  0  0
    2.2168   -1.2527    1.2271 H   0  0  0  0  0  0  0  0  0  0  0  0
    1.3598   -2.1324    2.4970 H   0  0  0  0  0  0  0  0  0  0  0  0
    1.3227   -0.3674    2.4722 H   0  0  0  0  0  0  0  0  0  0  0  0
   -1.2480   -2.1324    2.4970 H   0  0  0  0  0  0  0  0  0  0  0  0
   -2.1049   -1.2527    1.2271 H   0  0  0  0  0  0  0  0  0  0  0  0
   -1.2109   -0.3674    2.4722 H   0  0  0  0  0  0  0  0  0  0  0  0
  1  2  1  0
  1  6  1  0
  1  7  1  0
  1  8  1  0
  2  3  1  0
  2  5  1  0
  2 21  1  0
  3  4  2  3
  3  9  1  0
  4 10  1  0
  4 11  1  0
  5 12  1  0
 13 14  2  3
 13 18  1  0
 13 19  1  0
 14 15  1  0
 14 20  1  0
 15 16  1  0
 15 17  1  0
 16 22  1  0
 16 23  1  0
 16 24  1  0
 17 25  1  0
 17 26  1  0
 17 27  1  0
M  RAD  1  15   2
M  END
>  <reaction>  (8) 
rxn_1113

>  <mol_properties>  (8) 
{"1": {"label": "*3", "atom_type": "Cs"}, "4": {"label": "*4", "atom_type": "S2s"}, "13": {"label": "*0", "atom_type": "Cd"}, "14": {"label": "*1", "atom_type": "Cs"}, "20": {"label": "*2", "atom_type": "H0"}}

>  <type>  (8) 
unop_4

>  <geom_source>  (8) 
Heuristics

$$$$

     RDKit          3D

 27 25  0  0  0  0  0  0  0  0999 V2000
   -0.0415    2.2488    0.5660 C   0  0  0  0  0  0  0  0  0  0  0  0
   -0.0415    0.9970   -0.2956 C   0  0  0  0  0  0  0  0  0  0  0  0
   -1.1968    0.8685   -1.2437 C   0  0  0  0  0  0  0  0  0  0  0  0
   -2.1351    1.7790   -1.4551 C   0  0  0  0  0  0  0  0  0  0  0  0
    1.5328    0.7885   -1.2133 S   0  0  0  0  0  0  0  0  0  0  0  0
    0.0242    3.1484   -0.0487 H   0  0  0  0  0  0  0  0  0  0  0  0
   -0.9566    2.3057    1.1598 H   0  0  0  0  0  0  0  0  0  0  0  0
    0.8119    2.2419    1.2423 H   0  0  0  0  0  0  0  0  0  0  0  0
   -1.2229   -0.0624   -1.8014 H   0  0  0  0  0  0  0  0  0  0  0  0
   -2.9277    1.6014   -2.1705 H   0  0  0  0  0  0  0  0  0  0  0  0
   -2.1545    2.7265   -0.9307 H   0  0  0  0  0  0  0  0  0  0  0  0
    1.3452    1.8147   -2.0548 H   0  0  0  0  0  0  0  0  0  0  0  0
   -0.0415   -2.3370   -0.9305 C   0  0  0  0  0  0  0  0  0  0  0  0
   -0.0415   -2.3370    0.3930 C   0  0  0  0  0  0  0  0  0  0  0  0
   -0.0415   -1.1156    1.2651 C   0  0  0  0  0  3  0  0  0  0  0  0
    1.2178   -1.0752    2.1327 C   0  0  0  0  0  0  0  0  0  0  0  0
   -1.3008   -1.0752    2.1327 C   0  0  0  0  0  0  0  0  0  0  0  0
   -0.0415   -3.2587   -1.4987 H   0  0  0  0  0  0  0  0  0  0  0  0
   -0.0415   -1.4104   -1.4950 H   0  0  0  0  0  0  0  0  0  0  0  0
   -0.0415   -3.2883    0.9236 H   0  0  0  0  0  0  0  0  0  0  0  0
   -0.0415   -0.0592    0.4846 H   0  0  0  0  0  0  0  0  0  0  0  0
    2.1194   -1.0693    1.5186 H   0  0  0  0  0  0  0  0  0  0  0  0
    1.2624   -1.9490    2.7885 H   0  0  0  0  0  0  0  0  0  0  0  0
    1.2253   -0.1840    2.7637 H   0  0  0  0  0  0  0  0  0  0  0  0
   -1.3454   -1.9490    2.7885 H   0  0  0  0  0  0  0  0  0  0  0  0
   -2.2024   -1.0693    1.5186 H   0  0  0  0  0  0  0  0  0  0  0  0
   -1.3083   -0.1839    2.7637 H   0  0  0  0  0  0  0  0  0  0  0  0
  1  2  1  0
  1  6  1  0
  1  7  1  0
  1  8  1  0
  2  3  1  0
  2  5  1  0
  2 21  1  0
  3  4  2  3
  3  9  1  0
  4 10  1  0
  4 11  1  0
  5 12  1  0
 13 14  2  3
 13 18  1  0
 13 19  1  0
 14 15  1  0
 14 20  1  0
 15 16  1  0
 15 17  1  0
 16 22  1  0
 16 23  1  0
 16 24  1  0
 17 25  1  0
 17 26  1  0
 17 27  1  0
M  RAD  1  15   2
M  END
>  <reaction>  (9) 
rxn_1113

>  <mol_properties>  (9) 
{"1": {"label": "*3", "atom_type": "Cs"}, "4": {"label": "*4", "atom_type": "S2s"}, "13": {"label": "*0", "atom_type": "Cd"}, "14": {"label": "*1", "atom_type": "Cs"}, "20": {"label": "*2", "atom_type": "H0"}}

>  <type>  (9) 
unop_5

>  <geom_source>  (9) 
Heuristics

$$$$

     RDKit          3D

 27 25  0  0  0  0  0  0  0  0999 V2000
    1.5743    1.2364   -0.8786 C   0  0  0  0  0  0  0  0  0  0  0  0
    0.1374    0.8384   -0.5845 C   0  0  0  0  0  0  0  0  0  0  0  0
   -0.4145    1.3367    0.7182 C   0  0  0  0  0  0  0  0  0  0  0  0
    0.1979    2.1546    1.5610 C   0  0  0  0  0  0  0  0  0  0  0  0
   -1.0002    1.2950   -1.9489 S   0  0  0  0  0  0  0  0  0  0  0  0
    1.6742    2.3210   -0.9508 H   0  0  0  0  0  0  0  0  0  0  0  0
    2.2397    0.8830   -0.0877 H   0  0  0  0  0  0  0  0  0  0  0  0
    1.8994    0.8063   -1.8246 H   0  0  0  0  0  0  0  0  0  0  0  0
   -1.4158    0.9867    0.9488 H   0  0  0  0  0  0  0  0  0  0  0  0
   -0.2859    2.4702    2.4763 H   0  0  0  0  0  0  0  0  0  0  0  0
    1.1943    2.5382    1.3785 H   0  0  0  0  0  0  0  0  0  0  0  0
   -0.9371    2.6192   -1.7511 H   0  0  0  0  0  0  0  0  0  0  0  0
    0.1374   -2.4955   -1.2194 C   0  0  0  0  0  0  0  0  0  0  0  0
    0.1374   -2.4955    0.1041 C   0  0  0  0  0  0  0  0  0  0  0  0
    0.1374   -1.2741    0.9761 C   0  0  0  0  0  3  0  0  0  0  0  0
    1.3967   -1.2337    1.8438 C   0  0  0  0  0  0  0  0  0  0  0  0
   -1.1219   -1.2337    1.8438 C   0  0  0  0  0  0  0  0  0  0  0  0
    0.1374   -3.4172   -1.7877 H   0  0  0  0  0  0  0  0  0  0  0  0
    0.1374   -1.5690   -1.7840 H   0  0  0  0  0  0  0  0  0  0  0  0
    0.1374   -3.4468    0.6347 H   0  0  0  0  0  0  0  0  0  0  0  0
    0.1374   -0.2177    0.1957 H   0  0  0  0  0  0  0  0  0  0  0  0
    2.2983   -1.2278    1.2296 H   0  0  0  0  0  0  0  0  0  0  0  0
    1.4413   -2.1075    2.4996 H   0  0  0  0  0  0  0  0  0  0  0  0
    1.4043   -0.3425    2.4748 H   0  0  0  0  0  0  0  0  0  0  0  0
   -1.1664   -2.1075    2.4996 H   0  0  0  0  0  0  0  0  0  0  0  0
   -2.0234   -1.2278    1.2296 H   0  0  0  0  0  0  0  0  0  0  0  0
   -1.1294   -0.3425    2.4748 H   0  0  0  0  0  0  0  0  0  0  0  0
  1  2  1  0
  1  6  1  0
  1  7  1  0
  1  8  1  0
  2  3  1  0
  2  5  1  0
  2 21  1  0
  3  4  2  3
  3  9  1  0
  4 10  1  0
  4 11  1  0
  5 12  1  0
 13 14  2  3
 13 18  1  0
 13 19  1  0
 14 15  1  0
 14 20  1  0
 15 16  1  0
 15 17  1  0
 16 22  1  0
 16 23  1  0
 16 24  1  0
 17 25  1  0
 17 26  1  0
 17 27  1  0
M  RAD  1  15   2
M  END
>  <reaction>  (10) 
rxn_1113

>  <mol_properties>  (10) 
{"1": {"label": "*3", "atom_type": "Cs"}, "4": {"label": "*4", "atom_type": "S2s"}, "13": {"label": "*0", "atom_type": "Cd"}, "14": {"label": "*1", "atom_type": "Cs"}, "20": {"label": "*2", "atom_type": "H0"}}

>  <type>  (10) 
unop_6

>  <geom_source>  (10) 
Heuristics

$$$$

     RDKit          3D

 27 25  0  0  0  0  0  0  0  0999 V2000
    1.4502    1.7181   -0.2262 C   0  0  0  0  0  0  0  0  0  0  0  0
    0.2058    0.8932   -0.5100 C   0  0  0  0  0  0  0  0  0  0  0  0
   -0.9448    1.1221    0.4246 C   0  0  0  0  0  0  0  0  0  0  0  0
   -0.9970    2.0305    1.3871 C   0  0  0  0  0  0  0  0  0  0  0  0
   -0.3648    1.0754   -2.2435 S   0  0  0  0  0  0  0  0  0  0  0  0
    1.2439    2.7856   -0.3230 H   0  0  0  0  0  0  0  0  0  0  0  0
    1.8125    1.5296    0.7869 H   0  0  0  0  0  0  0  0  0  0  0  0
    2.2406    1.4642   -0.9309 H   0  0  0  0  0  0  0  0  0  0  0  0
   -1.8008    0.4764    0.2551 H   0  0  0  0  0  0  0  0  0  0  0  0
   -1.8784    2.1299    2.0074 H   0  0  0  0  0  0  0  0  0  0  0  0
   -0.1746    2.7036    1.5963 H   0  0  0  0  0  0  0  0  0  0  0  0
   -0.7828    2.3433   -2.1244 H   0  0  0  0  0  0  0  0  0  0  0  0
    0.2058   -2.4408   -1.1448 C   0  0  0  0  0  0  0  0  0  0  0  0
    0.2058   -2.4408    0.1787 C   0  0  0  0  0  0  0  0  0  0  0  0
    0.2058   -1.2194    1.0507 C   0  0  0  0  0  3  0  0  0  0  0  0
    1.4652   -1.1790    1.9183 C   0  0  0  0  0  0  0  0  0  0  0  0
   -1.0535   -1.1790    1.9183 C   0  0  0  0  0  0  0  0  0  0  0  0
    0.2058   -3.3625   -1.7131 H   0  0  0  0  0  0  0  0  0  0  0  0
    0.2058   -1.5142   -1.7094 H   0  0  0  0  0  0  0  0  0  0  0  0
    0.2058   -3.3921    0.7092 H   0  0  0  0  0  0  0  0  0  0  0  0
    0.2058   -0.1630    0.2702 H   0  0  0  0  0  0  0  0  0  0  0  0
    2.3667   -1.1731    1.3042 H   0  0  0  0  0  0  0  0  0  0  0  0
    1.5097   -2.0528    2.5741 H   0  0  0  0  0  0  0  0  0  0  0  0
    1.4727   -0.2878    2.5493 H   0  0  0  0  0  0  0  0  0  0  0  0
   -1.0980   -2.0528    2.5741 H   0  0  0  0  0  0  0  0  0  0  0  0
   -1.9550   -1.1731    1.3042 H   0  0  0  0  0  0  0  0  0  0  0  0
   -1.0610   -0.2878    2.5493 H   0  0  0  0  0  0  0  0  0  0  0  0
  1  2  1  0
  1  6  1  0
  1  7  1  0
  1  8  1  0
  2  3  1  0
  2  5  1  0
  2 21  1  0
  3  4  2  3
  3  9  1  0
  4 10  1  0
  4 11  1  0
  5 12  1  0
 13 14  2  3
 13 18  1  0
 13 19  1  0
 14 15  1  0
 14 20  1  0
 15 16  1  0
 15 17  1  0
 16 22  1  0
 16 23  1  0
 16 24  1  0
 17 25  1  0
 17 26  1  0
 17 27  1  0
M  RAD  1  15   2
M  END
>  <reaction>  (11) 
rxn_1113

>  <mol_properties>  (11) 
{"1": {"label": "*3", "atom_type": "Cs"}, "4": {"label": "*4", "atom_type": "S2s"}, "13": {"label": "*0", "atom_type": "Cd"}, "14": {"label": "*1", "atom_type": "Cs"}, "20": {"label": "*2", "atom_type": "H0"}}

>  <type>  (11) 
unop_7

>  <geom_source>  (11) 
Heuristics

$$$$

     RDKit          3D

 27 25  0  0  0  0  0  0  0  0999 V2000
   -1.5573    1.2376   -0.9598 C   0  0  0  0  0  0  0  0  0  0  0  0
   -0.1205    0.8396   -0.6658 C   0  0  0  0  0  0  0  0  0  0  0  0
    0.9034    1.3709   -1.6246 C   0  0  0  0  0  0  0  0  0  0  0  0
    0.6743    2.2156   -2.6188 C   0  0  0  0  0  0  0  0  0  0  0  0
    0.3740    1.2513    1.0518 S   0  0  0  0  0  0  0  0  0  0  0  0
   -1.6841    2.3203   -0.9033 H   0  0  0  0  0  0  0  0  0  0  0  0
   -1.8489    0.9103   -1.9603 H   0  0  0  0  0  0  0  0  0  0  0  0
   -2.2311    0.7831   -0.2352 H   0  0  0  0  0  0  0  0  0  0  0  0
    1.9154    1.0216   -1.4453 H   0  0  0  0  0  0  0  0  0  0  0  0
    1.4819    2.5538   -3.2551 H   0  0  0  0  0  0  0  0  0  0  0  0
   -0.3141    2.5997   -2.8393 H   0  0  0  0  0  0  0  0  0  0  0  0
    0.3876    2.5808    0.8824 H   0  0  0  0  0  0  0  0  0  0  0  0
   -0.1205   -2.4943   -1.3006 C   0  0  0  0  0  0  0  0  0  0  0  0
   -0.1205   -2.4943    0.0229 C   0  0  0  0  0  0  0  0  0  0  0  0
   -0.1205   -1.2729    0.8949 C   0  0  0  0  0  3  0  0  0  0  0  0
    1.1388   -1.2325    1.7626 C   0  0  0  0  0  0  0  0  0  0  0  0
   -1.3798   -1.2325    1.7626 C   0  0  0  0  0  0  0  0  0  0  0  0
   -0.1205   -3.4160   -1.8689 H   0  0  0  0  0  0  0  0  0  0  0  0
   -0.1205   -1.5678   -1.8652 H   0  0  0  0  0  0  0  0  0  0  0  0
   -0.1205   -3.4456    0.5534 H   0  0  0  0  0  0  0  0  0  0  0  0
   -0.1205   -0.2165    0.1145 H   0  0  0  0  0  0  0  0  0  0  0  0
    2.0404   -1.2266    1.1484 H   0  0  0  0  0  0  0  0  0  0  0  0
    1.1834   -2.1063    2.4184 H   0  0  0  0  0  0  0  0  0  0  0  0
    1.1463   -0.3413    2.3936 H   0  0  0  0  0  0  0  0  0  0  0  0
   -1.4244   -2.1063    2.4184 H   0  0  0  0  0  0  0  0  0  0  0  0
   -2.2813   -1.2266    1.1484 H   0  0  0  0  0  0  0  0  0  0  0  0
   -1.3873   -0.3413    2.3936 H   0  0  0  0  0  0  0  0  0  0  0  0
  1  2  1  0
  1  6  1  0
  1  7  1  0
  1  8  1  0
  2  3  1  0
  2  5  1  0
  2 21  1  0
  3  4  2  3
  3  9  1  0
  4 10  1  0
  4 11  1  0
  5 12  1  0
 13 14  2  3
 13 18  1  0
 13 19  1  0
 14 15  1  0
 14 20  1  0
 15 16  1  0
 15 17  1  0
 16 22  1  0
 16 23  1  0
 16 24  1  0
 17 25  1  0
 17 26  1  0
 17 27  1  0
M  RAD  1  15   2
M  END
>  <reaction>  (12) 
rxn_1113

>  <mol_properties>  (12) 
{"1": {"label": "*3", "atom_type": "Cs"}, "4": {"label": "*4", "atom_type": "S2s"}, "13": {"label": "*0", "atom_type": "Cd"}, "14": {"label": "*1", "atom_type": "Cs"}, "20": {"label": "*2", "atom_type": "H0"}}

>  <type>  (12) 
unop_8

>  <geom_source>  (12) 
Heuristics

$$$$

     RDKit          3D

 27 25  0  0  0  0  0  0  0  0999 V2000
    0.7395    0.4708   -1.8461 C   0  0  0  0  0  0  0  0  0  0  0  0
    0.0211    0.8122   -0.5513 C   0  0  0  0  0  0  0  0  0  0  0  0
    0.8079    1.6385    0.4225 C   0  0  0  0  0  0  0  0  0  0  0  0
    2.0052    2.1630    0.2090 C   0  0  0  0  0  0  0  0  0  0  0  0
   -1.6078    1.6002   -0.8506 S   0  0  0  0  0  0  0  0  0  0  0  0
    0.9849    1.3735   -2.4087 H   0  0  0  0  0  0  0  0  0  0  0  0
    1.6676   -0.0670   -1.6396 H   0  0  0  0  0  0  0  0  0  0  0  0
    0.1079   -0.1546   -2.4751 H   0  0  0  0  0  0  0  0  0  0  0  0
    0.3109    1.8149    1.3713 H   0  0  0  0  0  0  0  0  0  0  0  0
    2.4931    2.7574    0.9706 H   0  0  0  0  0  0  0  0  0  0  0  0
    2.5438    2.0233   -0.7203 H   0  0  0  0  0  0  0  0  0  0  0  0
   -1.1228    2.7586   -1.3190 H   0  0  0  0  0  0  0  0  0  0  0  0
    0.0211   -2.5218   -1.1861 C   0  0  0  0  0  0  0  0  0  0  0  0
    0.0211   -2.5218    0.1374 C   0  0  0  0  0  0  0  0  0  0  0  0
    0.0211   -1.3004    1.0094 C   0  0  0  0  0  3  0  0  0  0  0  0
    1.2804   -1.2600    1.8771 C   0  0  0  0  0  0  0  0  0  0  0  0
   -1.2382   -1.2600    1.8771 C   0  0  0  0  0  0  0  0  0  0  0  0
    0.0211   -3.4435   -1.7544 H   0  0  0  0  0  0  0  0  0  0  0  0
    0.0211   -1.5952   -1.7507 H   0  0  0  0  0  0  0  0  0  0  0  0
    0.0211   -3.4731    0.6679 H   0  0  0  0  0  0  0  0  0  0  0  0
    0.0211   -0.2440    0.2290 H   0  0  0  0  0  0  0  0  0  0  0  0
    2.1820   -1.2541    1.2629 H   0  0  0  0  0  0  0  0  0  0  0  0
    1.3250   -2.1338    2.5329 H   0  0  0  0  0  0  0  0  0  0  0  0
    1.2880   -0.3688    2.5081 H   0  0  0  0  0  0  0  0  0  0  0  0
   -1.2828   -2.1338    2.5329 H   0  0  0  0  0  0  0  0  0  0  0  0
   -2.1397   -1.2541    1.2629 H   0  0  0  0  0  0  0  0  0  0  0  0
   -1.2457   -0.3687    2.5081 H   0  0  0  0  0  0  0  0  0  0  0  0
  1  2  1  0
  1  6  1  0
  1  7  1  0
  1  8  1  0
  2  3  1  0
  2  5  1  0
  2 21  1  0
  3  4  2  3
  3  9  1  0
  4 10  1  0
  4 11  1  0
  5 12  1  0
 13 14  2  3
 13 18  1  0
 13 19  1  0
 14 15  1  0
 14 20  1  0
 15 16  1  0
 15 17  1  0
 16 22  1  0
 16 23  1  0
 16 24  1  0
 17 25  1  0
 17 26  1  0
 17 27  1  0
M  RAD  1  15   2
M  END
>  <reaction>  (13) 
rxn_1113

>  <mol_properties>  (13) 
{"1": {"label": "*3", "atom_type": "Cs"}, "4": {"label": "*4", "atom_type": "S2s"}, "13": {"label": "*0", "atom_type": "Cd"}, "14": {"label": "*1", "atom_type": "Cs"}, "20": {"label": "*2", "atom_type": "H0"}}

>  <type>  (13) 
unop_9

>  <geom_source>  (13) 
Heuristics

$$$$

     RDKit          3D

 27 25  0  0  0  0  0  0  0  0999 V2000
   -1.2527    0.7857   -1.5270 C   0  0  0  0  0  0  0  0  0  0  0  0
   -0.0083    0.8145   -0.6551 C   0  0  0  0  0  0  0  0  0  0  0  0
    1.1653    1.5485   -1.2330 C   0  0  0  0  0  0  0  0  0  0  0  0
    1.1721    2.2380   -2.3638 C   0  0  0  0  0  0  0  0  0  0  0  0
   -0.3590    1.4464    1.0307 S   0  0  0  0  0  0  0  0  0  0  0  0
   -1.6345    1.7936   -1.6995 H   0  0  0  0  0  0  0  0  0  0  0  0
   -1.0316    0.3326   -2.4960 H   0  0  0  0  0  0  0  0  0  0  0  0
   -2.0389    0.2075   -1.0441 H   0  0  0  0  0  0  0  0  0  0  0  0
    2.0687    1.5010   -0.6329 H   0  0  0  0  0  0  0  0  0  0  0  0
    2.0677    2.7463   -2.6969 H   0  0  0  0  0  0  0  0  0  0  0  0
    0.2983    2.3229   -2.9982 H   0  0  0  0  0  0  0  0  0  0  0  0
   -0.5814    2.7164    0.6644 H   0  0  0  0  0  0  0  0  0  0  0  0
   -0.0083   -2.5194   -1.2899 C   0  0  0  0  0  0  0  0  0  0  0  0
   -0.0083   -2.5194    0.0336 C   0  0  0  0  0  0  0  0  0  0  0  0
   -0.0083   -1.2980    0.9056 C   0  0  0  0  0  3  0  0  0  0  0  0
    1.2510   -1.2576    1.7733 C   0  0  0  0  0  0  0  0  0  0  0  0
   -1.2676   -1.2576    1.7733 C   0  0  0  0  0  0  0  0  0  0  0  0
   -0.0083   -3.4411   -1.8582 H   0  0  0  0  0  0  0  0  0  0  0  0
   -0.0083   -1.5928   -1.8545 H   0  0  0  0  0  0  0  0  0  0  0  0
   -0.0083   -3.4707    0.5641 H   0  0  0  0  0  0  0  0  0  0  0  0
   -0.0083   -0.2416    0.1252 H   0  0  0  0  0  0  0  0  0  0  0  0
    2.1526   -1.2517    1.1591 H   0  0  0  0  0  0  0  0  0  0  0  0
    1.2956   -2.1314    2.4291 H   0  0  0  0  0  0  0  0  0  0  0  0
    1.2585   -0.3664    2.4043 H   0  0  0  0  0  0  0  0  0  0  0  0
   -1.3122   -2.1314    2.4291 H   0  0  0  0  0  0  0  0  0  0  0  0
   -2.1692   -1.2517    1.1591 H   0  0  0  0  0  0  0  0  0  0  0  0
   -1.2751   -0.3664    2.4043 H   0  0  0  0  0  0  0  0  0  0  0  0
  1  2  1  0
  1  6  1  0
  1  7  1  0
  1  8  1  0
  2  3  1  0
  2  5  1  0
  2 21  1  0
  3  4  2  3
  3  9  1  0
  4 10  1  0
  4 11  1  0
  5 12  1  0
 13 14  2  3
 13 18  1  0
 13 19  1  0
 14 15  1  0
 14 20  1  0
 15 16  1  0
 15 17  1  0
 16 22  1  0
 16 23  1  0
 16 24  1  0
 17 25  1  0
 17 26  1  0
 17 27  1  0
M  RAD  1  15   2
M  END
>  <reaction>  (14) 
rxn_1113

>  <mol_properties>  (14) 
{"1": {"label": "*3", "atom_type": "Cs"}, "4": {"label": "*4", "atom_type": "S2s"}, "13": {"label": "*0", "atom_type": "Cd"}, "14": {"label": "*1", "atom_type": "Cs"}, "20": {"label": "*2", "atom_type": "H0"}}

>  <type>  (14) 
unop_10

>  <geom_source>  (14) 
Heuristics

$$$$

     RDKit          3D

 27 25  0  0  0  0  0  0  0  0999 V2000
    0.8915    2.0987    0.3342 C   0  0  0  0  0  0  0  0  0  0  0  0
    0.1731    0.9613   -0.3726 C   0  0  0  0  0  0  0  0  0  0  0  0
   -1.3170    0.9372   -0.2024 C   0  0  0  0  0  0  0  0  0  0  0  0
   -2.0452    1.8567    0.4127 C   0  0  0  0  0  0  0  0  0  0  0  0
    0.5893    0.8827   -2.1571 S   0  0  0  0  0  0  0  0  0  0  0  0
    0.5691    3.0672   -0.0526 H   0  0  0  0  0  0  0  0  0  0  0  0
    0.6877    2.0732    1.4071 H   0  0  0  0  0  0  0  0  0  0  0  0
    1.9668    2.0185    0.1826 H   0  0  0  0  0  0  0  0  0  0  0  0
   -1.8099    0.0809   -0.6522 H   0  0  0  0  0  0  0  0  0  0  0  0
   -3.1212    1.7593    0.4767 H   0  0  0  0  0  0  0  0  0  0  0  0
   -1.6064    2.7330    0.8740 H   0  0  0  0  0  0  0  0  0  0  0  0
   -0.0610    2.0018   -2.5055 H   0  0  0  0  0  0  0  0  0  0  0  0
    0.1731   -2.3726   -1.0074 C   0  0  0  0  0  0  0  0  0  0  0  0
    0.1731   -2.3726    0.3161 C   0  0  0  0  0  0  0  0  0  0  0  0
    0.1731   -1.1512    1.1881 C   0  0  0  0  0  3  0  0  0  0  0  0
    1.4324   -1.1108    2.0558 C   0  0  0  0  0  0  0  0  0  0  0  0
   -1.0862   -1.1108    2.0558 C   0  0  0  0  0  0  0  0  0  0  0  0
    0.1731   -3.2943   -1.5757 H   0  0  0  0  0  0  0  0  0  0  0  0
    0.1731   -1.4461   -1.5720 H   0  0  0  0  0  0  0  0  0  0  0  0
    0.1731   -3.3239    0.8466 H   0  0  0  0  0  0  0  0  0  0  0  0
    0.1731   -0.0949    0.4077 H   0  0  0  0  0  0  0  0  0  0  0  0
    2.3340   -1.1049    1.4416 H   0  0  0  0  0  0  0  0  0  0  0  0
    1.4770   -1.9847    2.7115 H   0  0  0  0  0  0  0  0  0  0  0  0
    1.4399   -0.2196    2.6867 H   0  0  0  0  0  0  0  0  0  0  0  0
   -1.1308   -1.9847    2.7115 H   0  0  0  0  0  0  0  0  0  0  0  0
   -1.9878   -1.1049    1.4416 H   0  0  0  0  0  0  0  0  0  0  0  0
   -1.0937   -0.2196    2.6867 H   0  0  0  0  0  0  0  0  0  0  0  0
  1  2  1  0
  1  6  1  0
  1  7  1  0
  1  8  1  0
  2  3  1  0
  2  5  1  0
  2 21  1  0
  3  4  2  3
  3  9  1  0
  4 10  1  0
  4 11  1  0
  5 12  1  0
 13 14  2  3
 13 18  1  0
 13 19  1  0
 14 15  1  0
 14 20  1  0
 15 16  1  0
 15 17  1  0
 16 22  1  0
 16 23  1  0
 16 24  1  0
 17 25  1  0
 17 26  1  0
 17 27  1  0
M  RAD  1  15   2
M  END
>  <reaction>  (15) 
rxn_1113

>  <mol_properties>  (15) 
{"1": {"label": "*3", "atom_type": "Cs"}, "4": {"label": "*4", "atom_type": "S2s"}, "13": {"label": "*0", "atom_type": "Cd"}, "14": {"label": "*1", "atom_type": "Cs"}, "20": {"label": "*2", "atom_type": "H0"}}

>  <type>  (15) 
unop_11

>  <geom_source>  (15) 
Heuristics

$$$$

     RDKit          3D

 27 25  0  0  0  0  0  0  0  0999 V2000
    0.0415    0.3598   -1.9909 C   0  0  0  0  0  0  0  0  0  0  0  0
    0.0415    0.8156   -0.5412 C   0  0  0  0  0  0  0  0  0  0  0  0
    1.1968    1.6840   -0.1398 C   0  0  0  0  0  0  0  0  0  0  0  0
    2.1351    2.1537   -0.9480 C   0  0  0  0  0  0  0  0  0  0  0  0
   -1.5328    1.6314   -0.0722 S   0  0  0  0  0  0  0  0  0  0  0  0
   -0.0242    1.2117   -2.6702 H   0  0  0  0  0  0  0  0  0  0  0  0
    0.9566   -0.1911   -2.2198 H   0  0  0  0  0  0  0  0  0  0  0  0
   -0.8119   -0.2886   -2.1831 H   0  0  0  0  0  0  0  0  0  0  0  0
    1.2229    1.9436    0.9139 H   0  0  0  0  0  0  0  0  0  0  0  0
    2.9277    2.7852   -0.5680 H   0  0  0  0  0  0  0  0  0  0  0  0
    2.1545    1.9308   -2.0077 H   0  0  0  0  0  0  0  0  0  0  0  0
   -1.3452    2.7374   -0.8059 H   0  0  0  0  0  0  0  0  0  0  0  0
    0.0415   -2.5184   -1.1760 C   0  0  0  0  0  0  0  0  0  0  0  0
    0.0415   -2.5184    0.1475 C   0  0  0  0  0  0  0  0  0  0  0  0
    0.0415   -1.2970    1.0195 C   0  0  0  0  0  3  0  0  0  0  0  0
    1.3008   -1.2566    1.8872 C   0  0  0  0  0  0  0  0  0  0  0  0
   -1.2178   -1.2566    1.8872 C   0  0  0  0  0  0  0  0  0  0  0  0
    0.0415   -3.4401   -1.7443 H   0  0  0  0  0  0  0  0  0  0  0  0
    0.0415   -1.5918   -1.7406 H   0  0  0  0  0  0  0  0  0  0  0  0
    0.0415   -3.4697    0.6780 H   0  0  0  0  0  0  0  0  0  0  0  0
    0.0415   -0.2406    0.2391 H   0  0  0  0  0  0  0  0  0  0  0  0
    2.2024   -1.2507    1.2730 H   0  0  0  0  0  0  0  0  0  0  0  0
    1.3454   -2.1304    2.5430 H   0  0  0  0  0  0  0  0  0  0  0  0
    1.3083   -0.3654    2.5182 H   0  0  0  0  0  0  0  0  0  0  0  0
   -1.2624   -2.1304    2.5430 H   0  0  0  0  0  0  0  0  0  0  0  0
   -2.1194   -1.2507    1.2730 H   0  0  0  0  0  0  0  0  0  0  0  0
   -1.2253   -0.3654    2.5182 H   0  0  0  0  0  0  0  0  0  0  0  0
  1  2  1  0
  1  6  1  0
  1  7  1  0
  1  8  1  0
  2  3  1  0
  2  5  1  0
  2 21  1  0
  3  4  2  3
  3  9  1  0
  4 10  1  0
  4 11  1  0
  5 12  1  0
 13 14  2  3
 13 18  1  0
 13 19  1  0
 14 15  1  0
 14 20  1  0
 15 16  1  0
 15 17  1  0
 16 22  1  0
 16 23  1  0
 16 24  1  0
 17 25  1  0
 17 26  1  0
 17 27  1  0
M  RAD  1  15   2
M  END
>  <reaction>  (16) 
rxn_1113

>  <mol_properties>  (16) 
{"1": {"label": "*3", "atom_type": "Cs"}, "4": {"label": "*4", "atom_type": "S2s"}, "13": {"label": "*0", "atom_type": "Cd"}, "14": {"label": "*1", "atom_type": "Cs"}, "20": {"label": "*2", "atom_type": "H0"}}

>  <type>  (16) 
unop_12

>  <geom_source>  (16) 
Heuristics

$$$$

     RDKit          3D

 27 25  0  0  0  0  0  0  0  0999 V2000
    1.3731    1.2789    1.4695 S   0  0  0  0  0  0  0  0  0  0  0  0
    1.1445    0.0158    0.1693 C   0  0  0  0  0  0  0  0  0  0  0  0
    1.8069    0.4464   -1.1400 C   0  0  0  0  0  0  0  0  0  0  0  0
   -1.6811    1.9066   -0.0425 C   0  0  0  0  0  0  0  0  0  0  0  0
   -1.4241    0.0143   -1.6989 C   0  0  0  0  0  0  0  0  0  0  0  0
   -1.3909    0.4176   -0.2254 C   0  0  0  0  0  3  0  0  0  0  0  0
    1.6264   -1.3365    0.6333 C   0  0  0  0  0  0  0  0  0  0  0  0
   -2.3491   -0.4143    0.5763 C   0  0  0  0  0  0  0  0  0  0  0  0
    2.9069   -1.5981    0.9205 C   0  0  0  0  0  0  0  0  0  0  0  0
   -1.9053   -1.2078    1.5516 C   0  0  0  0  0  0  0  0  0  0  0  0
   -0.1628   -0.0791   -0.0558 H   0  0  0  0  0  0  0  0  0  0  0  0
    1.6292   -0.3201   -1.9240 H   0  0  0  0  0  0  0  0  0  0  0  0
    1.3656    1.4057   -1.4832 H   0  0  0  0  0  0  0  0  0  0  0  0
    2.9010    0.5842   -1.0105 H   0  0  0  0  0  0  0  0  0  0  0  0
   -2.6975    2.1579   -0.4156 H   0  0  0  0  0  0  0  0  0  0  0  0
   -1.6126    2.1748    1.0331 H   0  0  0  0  0  0  0  0  0  0  0  0
   -0.9315    2.5087   -0.5980 H   0  0  0  0  0  0  0  0  0  0  0  0
   -0.6724    0.6006   -2.2681 H   0  0  0  0  0  0  0  0  0  0  0  0
   -1.1729   -1.0627   -1.8008 H   0  0  0  0  0  0  0  0  0  0  0  0
   -2.4309    0.1953   -2.1336 H   0  0  0  0  0  0  0  0  0  0  0  0
    0.8968   -2.1341    0.7334 H   0  0  0  0  0  0  0  0  0  0  0  0
   -3.4132   -0.3705    0.3612 H   0  0  0  0  0  0  0  0  0  0  0  0
    3.6748   -0.8375    0.8301 H   0  0  0  0  0  0  0  0  0  0  0  0
    3.1950   -2.5915    1.2487 H   0  0  0  0  0  0  0  0  0  0  0  0
   -0.8460   -1.2669    1.7835 H   0  0  0  0  0  0  0  0  0  0  0  0
   -2.6052   -1.8057    2.1262 H   0  0  0  0  0  0  0  0  0  0  0  0
    2.7754    1.3179    1.3599 H   0  0  0  0  0  0  0  0  0  0  0  0
  1  2  1  0
  1 27  1  0
  2  3  1  0
  2  7  1  0
  2 11  1  0
  3 12  1  0
  3 13  1  0
  3 14  1  0
  4  6  1  0
  4 15  1  0
  4 16  1  0
  4 17  1  0
  5  6  1  0
  5 18  1  0
  5 19  1  0
  5 20  1  0
  6  8  1  0
  7  9  2  3
  7 21  1  0
  8 10  2  3
  8 22  1  0
  9 23  1  0
  9 24  1  0
 10 25  1  0
 10 26  1  0
M  RAD  1   6   2
M  END
>  <reaction>  (17) 
rxn_1113

>  <mol_properties>  (17) 
{"1": {"label": "*3", "atom_type": "Cs"}, "4": {"label": "*4", "atom_type": "S2s"}, "13": {"label": "*0", "atom_type": "Cd"}, "14": {"label": "*1", "atom_type": "Cs"}, "20": {"label": "*2", "atom_type": "H0"}}

>  <type>  (17) 
unop_13

>  <geom_source>  (17) 
AutoTST

$$$$
