
     RDKit          3D

 15 15  0  0  0  0  0  0  0  0999 V2000
    2.2031   -0.2111   -0.1693 C   0  0  0  0  0  0  0  0  0  0  0  0
    0.7140   -0.0314   -0.0623 C   0  0  0  0  0  0  0  0  0  0  0  0
   -0.0114    0.5491   -1.0982 C   0  0  0  0  0  0  0  0  0  0  0  0
   -1.3882    0.6886   -1.0150 C   0  0  0  0  0  0  0  0  0  0  0  0
   -2.0661    0.2493    0.1118 C   0  0  0  0  0  0  0  0  0  0  0  0
   -1.3551   -0.3278    1.1528 C   0  0  0  0  0  0  0  0  0  0  0  0
    0.0216   -0.4648    1.0642 C   0  0  0  0  0  0  0  0  0  0  0  0
    2.6776   -0.1836    0.8122 H   0  0  0  0  0  0  0  0  0  0  0  0
    2.4446   -1.1749   -0.6249 H   0  0  0  0  0  0  0  0  0  0  0  0
    2.6532    0.5664   -0.7875 H   0  0  0  0  0  0  0  0  0  0  0  0
    0.5104    0.8989   -1.9819 H   0  0  0  0  0  0  0  0  0  0  0  0
   -1.9328    1.1452   -1.8322 H   0  0  0  0  0  0  0  0  0  0  0  0
   -3.1409    0.3597    0.1800 H   0  0  0  0  0  0  0  0  0  0  0  0
   -1.8736   -0.6702    2.0398 H   0  0  0  0  0  0  0  0  0  0  0  0
    0.5695   -0.9141    1.8849 H   0  0  0  0  0  0  0  0  0  0  0  0
  1  2  1  0
  1  8  1  0
  1  9  1  0
  1 10  1  0
  2  3  2  0
  2  7  1  0
  3  4  1  0
  3 11  1  0
  4  5  2  0
  4 12  1  0
  5  6  1  0
  5 13  1  0
  6  7  2  0
  6 14  1  0
  7 15  1  0
M  END
>  <reaction>  (1) 
rxn_270

>  <mol_properties>  (1) 
{"4": {"label": "donator", "atom_type": "Cd"}, "12": {"label": "d_hydrogen", "atom_type": "H0"}}

>  <type>  (1) 
r1h

$$$$

     RDKit          3D

  4  3  0  0  0  0  0  0  0  0999 V2000
    0.0000    0.0000    0.0000 C   0  0  0  0  0  3  0  0  0  0  0  0
    1.0638   -0.1747    0.0540 H   0  0  0  0  0  0  0  0  0  0  0  0
   -0.6833   -0.8351   -0.0280 H   0  0  0  0  0  0  0  0  0  0  0  0
   -0.3805    1.0098   -0.0260 H   0  0  0  0  0  0  0  0  0  0  0  0
  1  2  1  0
  1  3  1  0
  1  4  1  0
M  RAD  1   1   2
M  END
>  <reaction>  (2) 
rxn_270

>  <mol_properties>  (2) 
{"0": {"label": "acceptor", "atom_type": "Cs"}}

>  <type>  (2) 
r2

$$$$

     RDKit          3D

  5  4  0  0  0  0  0  0  0  0999 V2000
    0.0000    0.0000    0.0000 C   0  0  0  0  0  0  0  0  0  0  0  0
   -0.6486   -0.7720   -0.4113 H   0  0  0  0  0  0  0  0  0  0  0  0
   -0.3482    0.9787   -0.3267 H   0  0  0  0  0  0  0  0  0  0  0  0
   -0.0223   -0.0487    1.0876 H   0  0  0  0  0  0  0  0  0  0  0  0
    1.0191   -0.1580   -0.3496 H   0  0  0  0  0  0  0  0  0  0  0  0
  1  2  1  0
  1  3  1  0
  1  4  1  0
  1  5  1  0
M  END
>  <reaction>  (3) 
rxn_270

>  <mol_properties>  (3) 
{"0": {"label": "a_hydrogen", "atom_type": "H0"}, "1": {"label": "acceptor", "atom_type": "Cs"}}

>  <type>  (3) 
r2h

$$$$

     RDKit          3D

 19 18  0  0  0  0  0  0  0  0999 V2000
    0.0477    0.0402   -3.0954 C   0  0  0  0  0  0  0  0  0  0  0  0
    0.0407    0.0070   -1.5915 C   0  0  0  0  0  0  0  0  0  0  0  0
    0.4298    1.1211   -0.8530 C   0  0  0  0  0  0  0  0  0  0  0  0
    0.3970    1.1068    0.5364 C   0  0  0  0  0  0  0  0  0  0  0  0
   -0.0284   -0.0361    1.1756 C   0  0  0  0  0  0  0  0  0  0  0  0
   -0.4180   -1.1595    0.4806 C   0  0  0  0  0  0  0  0  0  0  0  0
   -0.3801   -1.1309   -0.9081 C   0  0  0  0  0  3  0  0  0  0  0  0
   -0.9227    0.3636   -3.4806 H   0  0  0  0  0  0  0  0  0  0  0  0
    0.7994    0.7338   -3.4734 H   0  0  0  0  0  0  0  0  0  0  0  0
    0.2544   -0.9459   -3.5128 H   0  0  0  0  0  0  0  0  0  0  0  0
    0.7659    2.0126   -1.3713 H   0  0  0  0  0  0  0  0  0  0  0  0
    0.7046    1.9799    1.0999 H   0  0  0  0  0  0  0  0  0  0  0  0
   -0.0609   -0.0584    2.5461 H   0  0  0  0  0  0  0  0  0  0  0  0
   -0.7454   -2.0520    1.0009 H   0  0  0  0  0  0  0  0  0  0  0  0
   -0.6803   -2.0088   -1.4700 H   0  0  0  0  0  0  0  0  0  0  0  0
   -0.0878   -0.0772    3.8409 C   0  0  0  0  0  0  0  0  0  0  0  0
    0.4981    0.7822    4.1560 H   0  0  0  0  0  0  0  0  0  0  0  0
    0.3614   -1.0233    4.1304 H   0  0  0  0  0  0  0  0  0  0  0  0
   -1.1359   -0.0003    4.1166 H   0  0  0  0  0  0  0  0  0  0  0  0
  1  2  1  0
  1  8  1  0
  1  9  1  0
  1 10  1  0
  2  3  2  0
  2  7  1  0
  3  4  1  0
  3 11  1  0
  4  5  2  0
  4 12  1  0
  5  6  2  0
  6  7  1  0
  6 14  1  0
  7 15  1  0
 13 16  1  0
 16 17  1  0
 16 18  1  0
 16 19  1  0
M  RAD  1   7   2
M  END
>  <reaction>  (4) 
rxn_270

>  <mol_properties>  (4) 
{"3": {"label": "*4", "atom_type": "Cd"}, "4": {"label": "*3", "atom_type": "Cdd"}, "12": {"label": "*2", "atom_type": "H0"}, "15": {"label": "*1", "atom_type": "Cs"}, "16": {"label": "*0", "atom_type": "H0"}}

>  <type>  (4) 
ts

$$$$

     RDKit          3D

 19 18  0  0  0  0  0  0  0  0999 V2000
    0.0359    0.0064   -3.0846 C   0  0  0  0  0  0  0  0  0  0  0  0
    0.0359    0.0064   -1.5809 C   0  0  0  0  0  0  0  0  0  0  0  0
    0.0359    1.2007   -0.8669 C   0  0  0  0  0  0  0  0  0  0  0  0
    0.0054    1.2041    0.5191 C   0  0  0  0  0  0  0  0  0  0  0  0
   -0.0241    0.0071    1.2182 C   0  0  0  0  0  0  0  0  0  0  0  0
   -0.0210   -1.1903    0.5191 C   0  0  0  0  0  0  0  0  0  0  0  0
    0.0095   -1.1876   -0.8669 C   0  0  0  0  0  0  0  0  0  0  0  0
    0.5274   -0.8825   -3.4814 H   0  0  0  0  0  0  0  0  0  0  0  0
   -0.9864    0.0177   -3.4714 H   0  0  0  0  0  0  0  0  0  0  0  0
    0.5469    0.8843   -3.4814 H   0  0  0  0  0  0  0  0  0  0  0  0
    0.0625    2.1418   -1.4047 H   0  0  0  0  0  0  0  0  0  0  0  0
    0.0081    2.1453    1.0549 H   0  0  0  0  0  0  0  0  0  0  0  0
   -0.0495    0.0074    2.5170 H   0  0  0  0  0  0  0  0  0  0  0  0
   -0.0391   -2.1313    1.0549 H   0  0  0  0  0  0  0  0  0  0  0  0
    0.0154   -2.1291   -1.4047 H   0  0  0  0  0  0  0  0  0  0  0  0
   -0.0750    0.0076    3.8235 C   0  0  0  0  0  3  0  0  0  0  0  0
   -0.9778   -0.4938    4.1690 H   0  0  0  0  0  0  0  0  0  0  0  0
    0.3083    0.6506    4.6143 H   0  0  0  0  0  0  0  0  0  0  0  0
    0.5564   -0.8594    3.6359 H   0  0  0  0  0  0  0  0  0  0  0  0
  1  2  1  0
  1  8  1  0
  1  9  1  0
  1 10  1  0
  2  3  2  0
  2  7  1  0
  3  4  1  0
  3 11  1  0
  4  5  2  0
  4 12  1  0
  5  6  1  0
  5 13  1  0
  6  7  2  0
  6 14  1  0
  7 15  1  0
 16 17  1  0
 16 18  1  0
 16 19  1  0
M  RAD  1  16   2
M  END
>  <reaction>  (5) 
rxn_270

>  <mol_properties>  (5) 
{"3": {"label": "*4", "atom_type": "Cd"}, "4": {"label": "*3", "atom_type": "Cdd"}, "12": {"label": "*2", "atom_type": "H0"}, "15": {"label": "*1", "atom_type": "Cs"}, "16": {"label": "*0", "atom_type": "H0"}}

>  <type>  (5) 
unop_1

>  <geom_source>  (5) 
Heuristics

$$$$

     RDKit          3D

 19 18  0  0  0  0  0  0  0  0999 V2000
    0.0361    0.0023   -3.0819 C   0  0  0  0  0  0  0  0  0  0  0  0
    0.0361    0.0023   -1.5781 C   0  0  0  0  0  0  0  0  0  0  0  0
    0.0361    1.1967   -0.8641 C   0  0  0  0  0  0  0  0  0  0  0  0
    0.0057    1.2000    0.5219 C   0  0  0  0  0  0  0  0  0  0  0  0
   -0.0238    0.0030    1.2209 C   0  0  0  0  0  0  0  0  0  0  0  0
   -0.0207   -1.1944    0.5219 C   0  0  0  0  0  0  0  0  0  0  0  0
    0.0098   -1.1917   -0.8641 C   0  0  0  0  0  0  0  0  0  0  0  0
    0.5277   -0.8866   -3.4786 H   0  0  0  0  0  0  0  0  0  0  0  0
   -0.9861    0.0136   -3.4686 H   0  0  0  0  0  0  0  0  0  0  0  0
    0.5472    0.8802   -3.4786 H   0  0  0  0  0  0  0  0  0  0  0  0
    0.0628    2.1378   -1.4019 H   0  0  0  0  0  0  0  0  0  0  0  0
    0.0083    2.1412    1.0576 H   0  0  0  0  0  0  0  0  0  0  0  0
   -0.0492    0.0033    2.5198 H   0  0  0  0  0  0  0  0  0  0  0  0
   -0.0388   -2.1354    1.0576 H   0  0  0  0  0  0  0  0  0  0  0  0
    0.0157   -2.1331   -1.4019 H   0  0  0  0  0  0  0  0  0  0  0  0
   -0.0748    0.0036    3.8262 C   0  0  0  0  0  3  0  0  0  0  0  0
   -0.5833    0.8995    4.1792 H   0  0  0  0  0  0  0  0  0  0  0  0
    0.8022   -0.1833    4.4441 H   0  0  0  0  0  0  0  0  0  0  0  0
   -0.3611   -0.9979    3.5086 H   0  0  0  0  0  0  0  0  0  0  0  0
  1  2  1  0
  1  8  1  0
  1  9  1  0
  1 10  1  0
  2  3  2  0
  2  7  1  0
  3  4  1  0
  3 11  1  0
  4  5  2  0
  4 12  1  0
  5  6  1  0
  5 13  1  0
  6  7  2  0
  6 14  1  0
  7 15  1  0
 16 17  1  0
 16 18  1  0
 16 19  1  0
M  RAD  1  16   2
M  END
>  <reaction>  (6) 
rxn_270

>  <mol_properties>  (6) 
{"3": {"label": "*4", "atom_type": "Cd"}, "4": {"label": "*3", "atom_type": "Cdd"}, "12": {"label": "*2", "atom_type": "H0"}, "15": {"label": "*1", "atom_type": "Cs"}, "16": {"label": "*0", "atom_type": "H0"}}

>  <type>  (6) 
unop_2

>  <geom_source>  (6) 
Heuristics

$$$$

     RDKit          3D

 19 18  0  0  0  0  0  0  0  0999 V2000
    0.0345    0.0052   -3.0863 C   0  0  0  0  0  0  0  0  0  0  0  0
    0.0345    0.0052   -1.5826 C   0  0  0  0  0  0  0  0  0  0  0  0
    0.0345    1.1995   -0.8685 C   0  0  0  0  0  0  0  0  0  0  0  0
    0.0041    1.2029    0.5175 C   0  0  0  0  0  0  0  0  0  0  0  0
   -0.0255    0.0059    1.2165 C   0  0  0  0  0  0  0  0  0  0  0  0
   -0.0223   -1.1915    0.5175 C   0  0  0  0  0  0  0  0  0  0  0  0
    0.0082   -1.1888   -0.8685 C   0  0  0  0  0  0  0  0  0  0  0  0
    0.5261   -0.8837   -3.4830 H   0  0  0  0  0  0  0  0  0  0  0  0
   -0.9877    0.0164   -3.4731 H   0  0  0  0  0  0  0  0  0  0  0  0
    0.5455    0.8831   -3.4830 H   0  0  0  0  0  0  0  0  0  0  0  0
    0.0611    2.1406   -1.4063 H   0  0  0  0  0  0  0  0  0  0  0  0
    0.0067    2.1441    1.0532 H   0  0  0  0  0  0  0  0  0  0  0  0
   -0.0509    0.0061    2.5153 H   0  0  0  0  0  0  0  0  0  0  0  0
   -0.0404   -2.1326    1.0532 H   0  0  0  0  0  0  0  0  0  0  0  0
    0.0140   -2.1303   -1.4063 H   0  0  0  0  0  0  0  0  0  0  0  0
   -0.0764    0.0064    3.8218 C   0  0  0  0  0  3  0  0  0  0  0  0
   -0.6085   -0.8757    4.1746 H   0  0  0  0  0  0  0  0  0  0  0  0
   -0.2352    0.8287    4.5179 H   0  0  0  0  0  0  0  0  0  0  0  0
    0.8689   -0.5289    3.8975 H   0  0  0  0  0  0  0  0  0  0  0  0
  1  2  1  0
  1  8  1  0
  1  9  1  0
  1 10  1  0
  2  3  2  0
  2  7  1  0
  3  4  1  0
  3 11  1  0
  4  5  2  0
  4 12  1  0
  5  6  1  0
  5 13  1  0
  6  7  2  0
  6 14  1  0
  7 15  1  0
 16 17  1  0
 16 18  1  0
 16 19  1  0
M  RAD  1  16   2
M  END
>  <reaction>  (7) 
rxn_270

>  <mol_properties>  (7) 
{"3": {"label": "*4", "atom_type": "Cd"}, "4": {"label": "*3", "atom_type": "Cdd"}, "12": {"label": "*2", "atom_type": "H0"}, "15": {"label": "*1", "atom_type": "Cs"}, "16": {"label": "*0", "atom_type": "H0"}}

>  <type>  (7) 
unop_3

>  <geom_source>  (7) 
Heuristics

$$$$

     RDKit          3D

 19 18  0  0  0  0  0  0  0  0999 V2000
    0.0359    0.0046   -3.0821 C   0  0  0  0  0  0  0  0  0  0  0  0
    0.0359    0.0046   -1.5784 C   0  0  0  0  0  0  0  0  0  0  0  0
    0.0359    1.1989   -0.8643 C   0  0  0  0  0  0  0  0  0  0  0  0
    0.0054    1.2023    0.5217 C   0  0  0  0  0  0  0  0  0  0  0  0
   -0.0241    0.0053    1.2207 C   0  0  0  0  0  0  0  0  0  0  0  0
   -0.0210   -1.1921    0.5217 C   0  0  0  0  0  0  0  0  0  0  0  0
    0.0095   -1.1894   -0.8643 C   0  0  0  0  0  0  0  0  0  0  0  0
    0.5274   -0.8843   -3.4788 H   0  0  0  0  0  0  0  0  0  0  0  0
   -0.9863    0.0159   -3.4689 H   0  0  0  0  0  0  0  0  0  0  0  0
    0.5469    0.8825   -3.4788 H   0  0  0  0  0  0  0  0  0  0  0  0
    0.0625    2.1400   -1.4021 H   0  0  0  0  0  0  0  0  0  0  0  0
    0.0081    2.1435    1.0574 H   0  0  0  0  0  0  0  0  0  0  0  0
   -0.0495    0.0056    2.5195 H   0  0  0  0  0  0  0  0  0  0  0  0
   -0.0391   -2.1331    1.0574 H   0  0  0  0  0  0  0  0  0  0  0  0
    0.0154   -2.1309   -1.4021 H   0  0  0  0  0  0  0  0  0  0  0  0
   -0.0750    0.0058    3.8260 C   0  0  0  0  0  3  0  0  0  0  0  0
    0.8136    0.5074    4.2063 H   0  0  0  0  0  0  0  0  0  0  0  0
    0.1397   -1.0516    3.6796 H   0  0  0  0  0  0  0  0  0  0  0  0
   -1.0689    0.0277    4.2704 H   0  0  0  0  0  0  0  0  0  0  0  0
  1  2  1  0
  1  8  1  0
  1  9  1  0
  1 10  1  0
  2  3  2  0
  2  7  1  0
  3  4  1  0
  3 11  1  0
  4  5  2  0
  4 12  1  0
  5  6  1  0
  5 13  1  0
  6  7  2  0
  6 14  1  0
  7 15  1  0
 16 17  1  0
 16 18  1  0
 16 19  1  0
M  RAD  1  16   2
M  END
>  <reaction>  (8) 
rxn_270

>  <mol_properties>  (8) 
{"3": {"label": "*4", "atom_type": "Cd"}, "4": {"label": "*3", "atom_type": "Cdd"}, "12": {"label": "*2", "atom_type": "H0"}, "15": {"label": "*1", "atom_type": "Cs"}, "16": {"label": "*0", "atom_type": "H0"}}

>  <type>  (8) 
unop_4

>  <geom_source>  (8) 
Heuristics

$$$$

     RDKit          3D

 19 18  0  0  0  0  0  0  0  0999 V2000
    0.0368    0.0033   -3.0877 C   0  0  0  0  0  0  0  0  0  0  0  0
    0.0368    0.0033   -1.5840 C   0  0  0  0  0  0  0  0  0  0  0  0
    0.0368    1.1976   -0.8699 C   0  0  0  0  0  0  0  0  0  0  0  0
    0.0063    1.2010    0.5161 C   0  0  0  0  0  0  0  0  0  0  0  0
   -0.0232    0.0040    1.2151 C   0  0  0  0  0  0  0  0  0  0  0  0
   -0.0201   -1.1934    0.5161 C   0  0  0  0  0  0  0  0  0  0  0  0
    0.0105   -1.1907   -0.8699 C   0  0  0  0  0  0  0  0  0  0  0  0
    0.5284   -0.8856   -3.4844 H   0  0  0  0  0  0  0  0  0  0  0  0
   -0.9854    0.0145   -3.4745 H   0  0  0  0  0  0  0  0  0  0  0  0
    0.5478    0.8812   -3.4844 H   0  0  0  0  0  0  0  0  0  0  0  0
    0.0634    2.1387   -1.4078 H   0  0  0  0  0  0  0  0  0  0  0  0
    0.0090    2.1422    1.0518 H   0  0  0  0  0  0  0  0  0  0  0  0
   -0.0486    0.0042    2.5139 H   0  0  0  0  0  0  0  0  0  0  0  0
   -0.0382   -2.1345    1.0518 H   0  0  0  0  0  0  0  0  0  0  0  0
    0.0163   -2.1322   -1.4078 H   0  0  0  0  0  0  0  0  0  0  0  0
   -0.0741    0.0045    3.8204 C   0  0  0  0  0  3  0  0  0  0  0  0
   -0.0948   -1.0220    4.1832 H   0  0  0  0  0  0  0  0  0  0  0  0
   -0.9633    0.5297    4.1659 H   0  0  0  0  0  0  0  0  0  0  0  0
    0.8488    0.1131    4.3880 H   0  0  0  0  0  0  0  0  0  0  0  0
  1  2  1  0
  1  8  1  0
  1  9  1  0
  1 10  1  0
  2  3  2  0
  2  7  1  0
  3  4  1  0
  3 11  1  0
  4  5  2  0
  4 12  1  0
  5  6  1  0
  5 13  1  0
  6  7  2  0
  6 14  1  0
  7 15  1  0
 16 17  1  0
 16 18  1  0
 16 19  1  0
M  RAD  1  16   2
M  END
>  <reaction>  (9) 
rxn_270

>  <mol_properties>  (9) 
{"3": {"label": "*4", "atom_type": "Cd"}, "4": {"label": "*3", "atom_type": "Cdd"}, "12": {"label": "*2", "atom_type": "H0"}, "15": {"label": "*1", "atom_type": "Cs"}, "16": {"label": "*0", "atom_type": "H0"}}

>  <type>  (9) 
unop_5

>  <geom_source>  (9) 
Heuristics

$$$$

     RDKit          3D

 19 18  0  0  0  0  0  0  0  0999 V2000
    0.0368    0.0056   -3.0835 C   0  0  0  0  0  0  0  0  0  0  0  0
    0.0368    0.0056   -1.5798 C   0  0  0  0  0  0  0  0  0  0  0  0
    0.0368    1.2000   -0.8657 C   0  0  0  0  0  0  0  0  0  0  0  0
    0.0064    1.2033    0.5202 C   0  0  0  0  0  0  0  0  0  0  0  0
   -0.0231    0.0063    1.2193 C   0  0  0  0  0  0  0  0  0  0  0  0
   -0.0200   -1.1911    0.5202 C   0  0  0  0  0  0  0  0  0  0  0  0
    0.0105   -1.1884   -0.8657 C   0  0  0  0  0  0  0  0  0  0  0  0
    0.5284   -0.8833   -3.4803 H   0  0  0  0  0  0  0  0  0  0  0  0
   -0.9854    0.0169   -3.4703 H   0  0  0  0  0  0  0  0  0  0  0  0
    0.5479    0.8835   -3.4803 H   0  0  0  0  0  0  0  0  0  0  0  0
    0.0635    2.1411   -1.4036 H   0  0  0  0  0  0  0  0  0  0  0  0
    0.0090    2.1445    1.0560 H   0  0  0  0  0  0  0  0  0  0  0  0
   -0.0485    0.0066    2.5181 H   0  0  0  0  0  0  0  0  0  0  0  0
   -0.0381   -2.1321    1.0560 H   0  0  0  0  0  0  0  0  0  0  0  0
    0.0164   -2.1298   -1.4036 H   0  0  0  0  0  0  0  0  0  0  0  0
   -0.0741    0.0069    3.8246 C   0  0  0  0  0  3  0  0  0  0  0  0
    0.9452   -0.0067    4.2075 H   0  0  0  0  0  0  0  0  0  0  0  0
   -0.3704   -1.0031    3.5454 H   0  0  0  0  0  0  0  0  0  0  0  0
   -0.7897    0.3875    4.5517 H   0  0  0  0  0  0  0  0  0  0  0  0
  1  2  1  0
  1  8  1  0
  1  9  1  0
  1 10  1  0
  2  3  2  0
  2  7  1  0
  3  4  1  0
  3 11  1  0
  4  5  2  0
  4 12  1  0
  5  6  1  0
  5 13  1  0
  6  7  2  0
  6 14  1  0
  7 15  1  0
 16 17  1  0
 16 18  1  0
 16 19  1  0
M  RAD  1  16   2
M  END
>  <reaction>  (10) 
rxn_270

>  <mol_properties>  (10) 
{"3": {"label": "*4", "atom_type": "Cd"}, "4": {"label": "*3", "atom_type": "Cdd"}, "12": {"label": "*2", "atom_type": "H0"}, "15": {"label": "*1", "atom_type": "Cs"}, "16": {"label": "*0", "atom_type": "H0"}}

>  <type>  (10) 
unop_6

>  <geom_source>  (10) 
Heuristics

$$$$

     RDKit          3D

 19 18  0  0  0  0  0  0  0  0999 V2000
    0.0384    0.0060   -3.0849 C   0  0  0  0  0  0  0  0  0  0  0  0
    0.0384    0.0060   -1.5812 C   0  0  0  0  0  0  0  0  0  0  0  0
    0.0384    1.2003   -0.8671 C   0  0  0  0  0  0  0  0  0  0  0  0
    0.0079    1.2036    0.5189 C   0  0  0  0  0  0  0  0  0  0  0  0
   -0.0216    0.0066    1.2179 C   0  0  0  0  0  0  0  0  0  0  0  0
   -0.0185   -1.1907    0.5189 C   0  0  0  0  0  0  0  0  0  0  0  0
    0.0121   -1.1881   -0.8671 C   0  0  0  0  0  0  0  0  0  0  0  0
    0.5300   -0.8830   -3.4816 H   0  0  0  0  0  0  0  0  0  0  0  0
   -0.9838    0.0172   -3.4717 H   0  0  0  0  0  0  0  0  0  0  0  0
    0.5494    0.8839   -3.4816 H   0  0  0  0  0  0  0  0  0  0  0  0
    0.0650    2.1414   -1.4049 H   0  0  0  0  0  0  0  0  0  0  0  0
    0.0106    2.1449    1.0546 H   0  0  0  0  0  0  0  0  0  0  0  0
   -0.0470    0.0069    2.5167 H   0  0  0  0  0  0  0  0  0  0  0  0
   -0.0366   -2.1318    1.0546 H   0  0  0  0  0  0  0  0  0  0  0  0
    0.0179   -2.1295   -1.4049 H   0  0  0  0  0  0  0  0  0  0  0  0
   -0.0725    0.0072    3.8232 C   0  0  0  0  0  3  0  0  0  0  0  0
    0.8024   -0.5178    4.2035 H   0  0  0  0  0  0  0  0  0  0  0  0
   -0.8330   -0.7167    3.5342 H   0  0  0  0  0  0  0  0  0  0  0  0
   -0.3435    0.5787    4.7096 H   0  0  0  0  0  0  0  0  0  0  0  0
  1  2  1  0
  1  8  1  0
  1  9  1  0
  1 10  1  0
  2  3  2  0
  2  7  1  0
  3  4  1  0
  3 11  1  0
  4  5  2  0
  4 12  1  0
  5  6  1  0
  5 13  1  0
  6  7  2  0
  6 14  1  0
  7 15  1  0
 16 17  1  0
 16 18  1  0
 16 19  1  0
M  RAD  1  16   2
M  END
>  <reaction>  (11) 
rxn_270

>  <mol_properties>  (11) 
{"3": {"label": "*4", "atom_type": "Cd"}, "4": {"label": "*3", "atom_type": "Cdd"}, "12": {"label": "*2", "atom_type": "H0"}, "15": {"label": "*1", "atom_type": "Cs"}, "16": {"label": "*0", "atom_type": "H0"}}

>  <type>  (11) 
unop_7

>  <geom_source>  (11) 
Heuristics

$$$$

     RDKit          3D

 19 18  0  0  0  0  0  0  0  0999 V2000
    0.0374    0.0055   -3.0837 C   0  0  0  0  0  0  0  0  0  0  0  0
    0.0374    0.0055   -1.5799 C   0  0  0  0  0  0  0  0  0  0  0  0
    0.0374    1.1998   -0.8659 C   0  0  0  0  0  0  0  0  0  0  0  0
    0.0069    1.2031    0.5201 C   0  0  0  0  0  0  0  0  0  0  0  0
   -0.0226    0.0061    1.2191 C   0  0  0  0  0  0  0  0  0  0  0  0
   -0.0195   -1.1913    0.5201 C   0  0  0  0  0  0  0  0  0  0  0  0
    0.0111   -1.1886   -0.8659 C   0  0  0  0  0  0  0  0  0  0  0  0
    0.5290   -0.8835   -3.4804 H   0  0  0  0  0  0  0  0  0  0  0  0
   -0.9848    0.0167   -3.4704 H   0  0  0  0  0  0  0  0  0  0  0  0
    0.5484    0.8834   -3.4804 H   0  0  0  0  0  0  0  0  0  0  0  0
    0.0640    2.1409   -1.4037 H   0  0  0  0  0  0  0  0  0  0  0  0
    0.0096    2.1443    1.0558 H   0  0  0  0  0  0  0  0  0  0  0  0
   -0.0480    0.0064    2.5180 H   0  0  0  0  0  0  0  0  0  0  0  0
   -0.0376   -2.1323    1.0558 H   0  0  0  0  0  0  0  0  0  0  0  0
    0.0169   -2.1300   -1.4037 H   0  0  0  0  0  0  0  0  0  0  0  0
   -0.0735    0.0067    3.8244 C   0  0  0  0  0  3  0  0  0  0  0  0
   -1.1070    0.0204    4.1673 H   0  0  0  0  0  0  0  0  0  0  0  0
    0.5777    0.3649    4.6203 H   0  0  0  0  0  0  0  0  0  0  0  0
    0.2571   -0.9883    3.5301 H   0  0  0  0  0  0  0  0  0  0  0  0
  1  2  1  0
  1  8  1  0
  1  9  1  0
  1 10  1  0
  2  3  2  0
  2  7  1  0
  3  4  1  0
  3 11  1  0
  4  5  2  0
  4 12  1  0
  5  6  1  0
  5 13  1  0
  6  7  2  0
  6 14  1  0
  7 15  1  0
 16 17  1  0
 16 18  1  0
 16 19  1  0
M  RAD  1  16   2
M  END
>  <reaction>  (12) 
rxn_270

>  <mol_properties>  (12) 
{"3": {"label": "*4", "atom_type": "Cd"}, "4": {"label": "*3", "atom_type": "Cdd"}, "12": {"label": "*2", "atom_type": "H0"}, "15": {"label": "*1", "atom_type": "Cs"}, "16": {"label": "*0", "atom_type": "H0"}}

>  <type>  (12) 
unop_8

>  <geom_source>  (12) 
Heuristics

$$$$

     RDKit          3D

 19 18  0  0  0  0  0  0  0  0999 V2000
    0.0353    0.0036   -3.0810 C   0  0  0  0  0  0  0  0  0  0  0  0
    0.0353    0.0036   -1.5772 C   0  0  0  0  0  0  0  0  0  0  0  0
    0.0353    1.1979   -0.8632 C   0  0  0  0  0  0  0  0  0  0  0  0
    0.0048    1.2012    0.5228 C   0  0  0  0  0  0  0  0  0  0  0  0
   -0.0247    0.0042    1.2218 C   0  0  0  0  0  0  0  0  0  0  0  0
   -0.0216   -1.1931    0.5228 C   0  0  0  0  0  0  0  0  0  0  0  0
    0.0089   -1.1905   -0.8632 C   0  0  0  0  0  0  0  0  0  0  0  0
    0.5268   -0.8854   -3.4777 H   0  0  0  0  0  0  0  0  0  0  0  0
   -0.9870    0.0148   -3.4677 H   0  0  0  0  0  0  0  0  0  0  0  0
    0.5463    0.8815   -3.4777 H   0  0  0  0  0  0  0  0  0  0  0  0
    0.0619    2.1390   -1.4010 H   0  0  0  0  0  0  0  0  0  0  0  0
    0.0075    2.1424    1.0585 H   0  0  0  0  0  0  0  0  0  0  0  0
   -0.0501    0.0045    2.5207 H   0  0  0  0  0  0  0  0  0  0  0  0
   -0.0397   -2.1342    1.0585 H   0  0  0  0  0  0  0  0  0  0  0  0
    0.0148   -2.1319   -1.4010 H   0  0  0  0  0  0  0  0  0  0  0  0
   -0.0756    0.0048    3.8272 C   0  0  0  0  0  3  0  0  0  0  0  0
    0.4422    0.8871    4.2001 H   0  0  0  0  0  0  0  0  0  0  0  0
    0.5755   -0.8634    3.9170 H   0  0  0  0  0  0  0  0  0  0  0  0
   -1.0692   -0.4309    3.9215 H   0  0  0  0  0  0  0  0  0  0  0  0
  1  2  1  0
  1  8  1  0
  1  9  1  0
  1 10  1  0
  2  3  2  0
  2  7  1  0
  3  4  1  0
  3 11  1  0
  4  5  2  0
  4 12  1  0
  5  6  1  0
  5 13  1  0
  6  7  2  0
  6 14  1  0
  7 15  1  0
 16 17  1  0
 16 18  1  0
 16 19  1  0
M  RAD  1  16   2
M  END
>  <reaction>  (13) 
rxn_270

>  <mol_properties>  (13) 
{"3": {"label": "*4", "atom_type": "Cd"}, "4": {"label": "*3", "atom_type": "Cdd"}, "12": {"label": "*2", "atom_type": "H0"}, "15": {"label": "*1", "atom_type": "Cs"}, "16": {"label": "*0", "atom_type": "H0"}}

>  <type>  (13) 
unop_9

>  <geom_source>  (13) 
Heuristics

$$$$

     RDKit          3D

 19 18  0  0  0  0  0  0  0  0999 V2000
    0.0374    0.0036   -3.0829 C   0  0  0  0  0  0  0  0  0  0  0  0
    0.0374    0.0036   -1.5791 C   0  0  0  0  0  0  0  0  0  0  0  0
    0.0374    1.1979   -0.8651 C   0  0  0  0  0  0  0  0  0  0  0  0
    0.0070    1.2012    0.5209 C   0  0  0  0  0  0  0  0  0  0  0  0
   -0.0226    0.0042    1.2199 C   0  0  0  0  0  0  0  0  0  0  0  0
   -0.0195   -1.1931    0.5209 C   0  0  0  0  0  0  0  0  0  0  0  0
    0.0111   -1.1905   -0.8651 C   0  0  0  0  0  0  0  0  0  0  0  0
    0.5290   -0.8854   -3.4796 H   0  0  0  0  0  0  0  0  0  0  0  0
   -0.9848    0.0148   -3.4696 H   0  0  0  0  0  0  0  0  0  0  0  0
    0.5484    0.8815   -3.4796 H   0  0  0  0  0  0  0  0  0  0  0  0
    0.0640    2.1390   -1.4029 H   0  0  0  0  0  0  0  0  0  0  0  0
    0.0096    2.1424    1.0566 H   0  0  0  0  0  0  0  0  0  0  0  0
   -0.0480    0.0045    2.5188 H   0  0  0  0  0  0  0  0  0  0  0  0
   -0.0376   -2.1342    1.0566 H   0  0  0  0  0  0  0  0  0  0  0  0
    0.0169   -2.1319   -1.4029 H   0  0  0  0  0  0  0  0  0  0  0  0
   -0.0735    0.0048    3.8253 C   0  0  0  0  0  3  0  0  0  0  0  0
   -0.9626    0.5299    4.1708 H   0  0  0  0  0  0  0  0  0  0  0  0
    0.7136    0.0931    4.5725 H   0  0  0  0  0  0  0  0  0  0  0  0
   -0.0239   -1.0306    3.4917 H   0  0  0  0  0  0  0  0  0  0  0  0
  1  2  1  0
  1  8  1  0
  1  9  1  0
  1 10  1  0
  2  3  2  0
  2  7  1  0
  3  4  1  0
  3 11  1  0
  4  5  2  0
  4 12  1  0
  5  6  1  0
  5 13  1  0
  6  7  2  0
  6 14  1  0
  7 15  1  0
 16 17  1  0
 16 18  1  0
 16 19  1  0
M  RAD  1  16   2
M  END
>  <reaction>  (14) 
rxn_270

>  <mol_properties>  (14) 
{"3": {"label": "*4", "atom_type": "Cd"}, "4": {"label": "*3", "atom_type": "Cdd"}, "12": {"label": "*2", "atom_type": "H0"}, "15": {"label": "*1", "atom_type": "Cs"}, "16": {"label": "*0", "atom_type": "H0"}}

>  <type>  (14) 
unop_10

>  <geom_source>  (14) 
Heuristics

$$$$

     RDKit          3D

 19 18  0  0  0  0  0  0  0  0999 V2000
    0.0393    0.0047   -3.0866 C   0  0  0  0  0  0  0  0  0  0  0  0
    0.0393    0.0047   -1.5828 C   0  0  0  0  0  0  0  0  0  0  0  0
    0.0393    1.1990   -0.8688 C   0  0  0  0  0  0  0  0  0  0  0  0
    0.0089    1.2023    0.5172 C   0  0  0  0  0  0  0  0  0  0  0  0
   -0.0207    0.0053    1.2162 C   0  0  0  0  0  0  0  0  0  0  0  0
   -0.0175   -1.1920    0.5172 C   0  0  0  0  0  0  0  0  0  0  0  0
    0.0130   -1.1894   -0.8688 C   0  0  0  0  0  0  0  0  0  0  0  0
    0.5309   -0.8843   -3.4833 H   0  0  0  0  0  0  0  0  0  0  0  0
   -0.9829    0.0159   -3.4733 H   0  0  0  0  0  0  0  0  0  0  0  0
    0.5503    0.8826   -3.4833 H   0  0  0  0  0  0  0  0  0  0  0  0
    0.0659    2.1401   -1.4066 H   0  0  0  0  0  0  0  0  0  0  0  0
    0.0115    2.1436    1.0529 H   0  0  0  0  0  0  0  0  0  0  0  0
   -0.0461    0.0056    2.5151 H   0  0  0  0  0  0  0  0  0  0  0  0
   -0.0356   -2.1331    1.0529 H   0  0  0  0  0  0  0  0  0  0  0  0
    0.0188   -2.1308   -1.4066 H   0  0  0  0  0  0  0  0  0  0  0  0
   -0.0716    0.0059    3.8216 C   0  0  0  0  0  3  0  0  0  0  0  0
    0.4227   -0.8899    4.1945 H   0  0  0  0  0  0  0  0  0  0  0  0
   -1.1382   -0.1859    3.7148 H   0  0  0  0  0  0  0  0  0  0  0  0
    0.2452    0.5540    4.7075 H   0  0  0  0  0  0  0  0  0  0  0  0
  1  2  1  0
  1  8  1  0
  1  9  1  0
  1 10  1  0
  2  3  2  0
  2  7  1  0
  3  4  1  0
  3 11  1  0
  4  5  2  0
  4 12  1  0
  5  6  1  0
  5 13  1  0
  6  7  2  0
  6 14  1  0
  7 15  1  0
 16 17  1  0
 16 18  1  0
 16 19  1  0
M  RAD  1  16   2
M  END
>  <reaction>  (15) 
rxn_270

>  <mol_properties>  (15) 
{"3": {"label": "*4", "atom_type": "Cd"}, "4": {"label": "*3", "atom_type": "Cdd"}, "12": {"label": "*2", "atom_type": "H0"}, "15": {"label": "*1", "atom_type": "Cs"}, "16": {"label": "*0", "atom_type": "H0"}}

>  <type>  (15) 
unop_11

>  <geom_source>  (15) 
Heuristics

$$$$

     RDKit          3D

 19 18  0  0  0  0  0  0  0  0999 V2000
    0.0351    0.0026   -3.0809 C   0  0  0  0  0  0  0  0  0  0  0  0
    0.0351    0.0026   -1.5772 C   0  0  0  0  0  0  0  0  0  0  0  0
    0.0351    1.1969   -0.8631 C   0  0  0  0  0  0  0  0  0  0  0  0
    0.0047    1.2002    0.5229 C   0  0  0  0  0  0  0  0  0  0  0  0
   -0.0249    0.0032    1.2219 C   0  0  0  0  0  0  0  0  0  0  0  0
   -0.0217   -1.1941    0.5229 C   0  0  0  0  0  0  0  0  0  0  0  0
    0.0088   -1.1915   -0.8631 C   0  0  0  0  0  0  0  0  0  0  0  0
    0.5267   -0.8864   -3.4776 H   0  0  0  0  0  0  0  0  0  0  0  0
   -0.9871    0.0138   -3.4677 H   0  0  0  0  0  0  0  0  0  0  0  0
    0.5462    0.8805   -3.4776 H   0  0  0  0  0  0  0  0  0  0  0  0
    0.0618    2.1380   -1.4010 H   0  0  0  0  0  0  0  0  0  0  0  0
    0.0073    2.1415    1.0586 H   0  0  0  0  0  0  0  0  0  0  0  0
   -0.0502    0.0035    2.5207 H   0  0  0  0  0  0  0  0  0  0  0  0
   -0.0398   -2.1352    1.0586 H   0  0  0  0  0  0  0  0  0  0  0  0
    0.0147   -2.1329   -1.4010 H   0  0  0  0  0  0  0  0  0  0  0  0
   -0.0758    0.0038    3.8272 C   0  0  0  0  0  3  0  0  0  0  0  0
   -0.0692    1.0304    4.1901 H   0  0  0  0  0  0  0  0  0  0  0  0
    0.7992   -0.5212    4.2074 H   0  0  0  0  0  0  0  0  0  0  0  0
   -0.7685   -0.8147    3.6375 H   0  0  0  0  0  0  0  0  0  0  0  0
  1  2  1  0
  1  8  1  0
  1  9  1  0
  1 10  1  0
  2  3  2  0
  2  7  1  0
  3  4  1  0
  3 11  1  0
  4  5  2  0
  4 12  1  0
  5  6  1  0
  5 13  1  0
  6  7  2  0
  6 14  1  0
  7 15  1  0
 16 17  1  0
 16 18  1  0
 16 19  1  0
M  RAD  1  16   2
M  END
>  <reaction>  (16) 
rxn_270

>  <mol_properties>  (16) 
{"3": {"label": "*4", "atom_type": "Cd"}, "4": {"label": "*3", "atom_type": "Cdd"}, "12": {"label": "*2", "atom_type": "H0"}, "15": {"label": "*1", "atom_type": "Cs"}, "16": {"label": "*0", "atom_type": "H0"}}

>  <type>  (16) 
unop_12

>  <geom_source>  (16) 
Heuristics

$$$$

     RDKit          3D

 19 18  0  0  0  0  0  0  0  0999 V2000
   -3.1349    0.7230   -0.4534 C   0  0  0  0  0  0  0  0  0  0  0  0
    3.3573   -0.9781    0.7703 C   0  0  0  0  0  3  0  0  0  0  0  0
   -1.6706    0.4438   -0.2873 C   0  0  0  0  0  0  0  0  0  0  0  0
   -1.2346   -0.8252    0.1278 C   0  0  0  0  0  0  0  0  0  0  0  0
   -0.7213    1.4274   -0.6104 C   0  0  0  0  0  0  0  0  0  0  0  0
    0.1328   -1.0949    0.2465 C   0  0  0  0  0  0  0  0  0  0  0  0
    0.6449    1.1526   -0.4901 C   0  0  0  0  0  0  0  0  0  0  0  0
    1.0707   -0.1067   -0.0612 C   0  0  0  0  0  0  0  0  0  0  0  0
   -3.4468    0.4561   -1.4847 H   0  0  0  0  0  0  0  0  0  0  0  0
   -3.7316    0.1288    0.2710 H   0  0  0  0  0  0  0  0  0  0  0  0
   -3.3513    1.7981   -0.2760 H   0  0  0  0  0  0  0  0  0  0  0  0
    3.4887   -0.8484    1.8643 H   0  0  0  0  0  0  0  0  0  0  0  0
    3.1533   -2.0453    0.5464 H   0  0  0  0  0  0  0  0  0  0  0  0
    4.2822   -0.6605    0.2465 H   0  0  0  0  0  0  0  0  0  0  0  0
    2.3072   -0.2144    0.3439 H   0  0  0  0  0  0  0  0  0  0  0  0
   -1.9513   -1.6033    0.3598 H   0  0  0  0  0  0  0  0  0  0  0  0
   -1.0381    2.4046   -0.9536 H   0  0  0  0  0  0  0  0  0  0  0  0
    0.4678   -2.0704    0.5728 H   0  0  0  0  0  0  0  0  0  0  0  0
    1.3754    1.9128   -0.7325 H   0  0  0  0  0  0  0  0  0  0  0  0
  1  3  1  0
  1  9  1  0
  1 10  1  0
  1 11  1  0
  2 12  1  0
  2 13  1  0
  2 14  1  0
  3  4  2  0
  3  5  1  0
  4  6  1  0
  4 16  1  0
  5  7  2  0
  5 17  1  0
  6  8  2  0
  6 18  1  0
  7  8  1  0
  7 19  1  0
  8 15  1  0
M  RAD  1   2   2
M  END
>  <reaction>  (17) 
rxn_270

>  <mol_properties>  (17) 
{"3": {"label": "*4", "atom_type": "Cd"}, "4": {"label": "*3", "atom_type": "Cdd"}, "12": {"label": "*2", "atom_type": "H0"}, "15": {"label": "*1", "atom_type": "Cs"}, "16": {"label": "*0", "atom_type": "H0"}}

>  <type>  (17) 
unop_13

>  <geom_source>  (17) 
AutoTST

$$$$

     RDKit          3D

 19 18  0  0  0  0  0  0  0  0999 V2000
    0.0361    0.0023   -3.0819 C   0  0  0  0  0  0  0  0  0  0  0  0
    0.0361    0.0023   -1.5781 C   0  0  0  0  0  0  0  0  0  0  0  0
    0.0361    1.1967   -0.8641 C   0  0  0  0  0  0  0  0  0  0  0  0
    0.0057    1.2000    0.5219 C   0  0  0  0  0  0  0  0  0  0  0  0
   -0.0238    0.0030    1.2209 C   0  0  0  0  0  0  0  0  0  0  0  0
   -0.0207   -1.1944    0.5219 C   0  0  0  0  0  0  0  0  0  0  0  0
    0.0098   -1.1917   -0.8641 C   0  0  0  0  0  0  0  0  0  0  0  0
    0.5277   -0.8866   -3.4786 H   0  0  0  0  0  0  0  0  0  0  0  0
   -0.9861    0.0136   -3.4686 H   0  0  0  0  0  0  0  0  0  0  0  0
    0.5472    0.8802   -3.4786 H   0  0  0  0  0  0  0  0  0  0  0  0
    0.0628    2.1378   -1.4019 H   0  0  0  0  0  0  0  0  0  0  0  0
    0.0083    2.1412    1.0576 H   0  0  0  0  0  0  0  0  0  0  0  0
   -0.0492    0.0033    2.5198 H   0  0  0  0  0  0  0  0  0  0  0  0
   -0.0388   -2.1354    1.0576 H   0  0  0  0  0  0  0  0  0  0  0  0
    0.0157   -2.1331   -1.4019 H   0  0  0  0  0  0  0  0  0  0  0  0
   -0.0748    0.0036    3.8262 C   0  0  0  0  0  3  0  0  0  0  0  0
   -0.5833    0.8995    4.1792 H   0  0  0  0  0  0  0  0  0  0  0  0
    0.8022   -0.1833    4.4441 H   0  0  0  0  0  0  0  0  0  0  0  0
   -0.3611   -0.9979    3.5086 H   0  0  0  0  0  0  0  0  0  0  0  0
  1  2  1  0
  1  8  1  0
  1  9  1  0
  1 10  1  0
  2  3  2  0
  2  7  1  0
  3  4  1  0
  3 11  1  0
  4  5  2  0
  4 12  1  0
  5  6  1  0
  5 13  1  0
  6  7  2  0
  6 14  1  0
  7 15  1  0
 16 17  1  0
 16 18  1  0
 16 19  1  0
M  RAD  1  16   2
M  END
>  <reaction>  (18) 
rxn_270

>  <mol_properties>  (18) 
{"3": {"label": "*4", "atom_type": "Cd"}, "4": {"label": "*3", "atom_type": "Cdd"}, "12": {"label": "*2", "atom_type": "H0"}, "15": {"label": "*1", "atom_type": "Cs"}, "16": {"label": "*0", "atom_type": "H0"}}

>  <type>  (18) 
unop_14

>  <geom_source>  (18) 
gaussian_log

$$$$
