
     RDKit          3D

  7  6  0  0  0  0  0  0  0  0999 V2000
    1.6964   -0.0938    0.0583 C   0  0  0  0  0  0  0  0  0  0  0  0
    0.5019   -0.0278    0.0173 C   0  0  0  0  0  0  0  0  0  0  0  0
   -0.9505    0.0525   -0.0327 C   0  0  0  0  0  0  0  0  0  0  0  0
    2.7574   -0.1524    0.0947 H   0  0  0  0  0  0  0  0  0  0  0  0
   -1.2692    0.9972   -0.4754 H   0  0  0  0  0  0  0  0  0  0  0  0
   -1.3749   -0.0147    0.9700 H   0  0  0  0  0  0  0  0  0  0  0  0
   -1.3610   -0.7611   -0.6323 H   0  0  0  0  0  0  0  0  0  0  0  0
  1  2  3  0
  1  4  1  0
  2  3  1  0
  3  5  1  0
  3  6  1  0
  3  7  1  0
M  END
>  <reaction>  (1) 
rxn_1231

>  <mol_properties>  (1) 
{"2": {"label": "donator", "atom_type": "Cs"}, "4": {"label": "d_hydrogen", "atom_type": "H0"}}

>  <type>  (1) 
r1h

$$$$

     RDKit          3D

  8  7  0  0  0  0  0  0  0  0999 V2000
    1.4097   -0.3618   -0.1144 C   0  0  0  0  0  0  0  0  0  0  0  0
    0.1804   -0.1811   -0.5085 C   0  0  0  0  0  3  0  0  0  0  0  0
   -1.1132    0.2655    0.0162 C   0  0  0  0  0  0  0  0  0  0  0  0
    2.1849   -0.7256   -0.7809 H   0  0  0  0  0  0  0  0  0  0  0  0
    1.7118   -0.1519    0.9143 H   0  0  0  0  0  0  0  0  0  0  0  0
   -1.8662   -0.5198   -0.0756 H   0  0  0  0  0  0  0  0  0  0  0  0
   -1.0300    0.5356    1.0772 H   0  0  0  0  0  0  0  0  0  0  0  0
   -1.4772    1.1391   -0.5284 H   0  0  0  0  0  0  0  0  0  0  0  0
  1  2  2  3
  1  4  1  0
  1  5  1  0
  2  3  1  0
  3  6  1  0
  3  7  1  0
  3  8  1  0
M  RAD  1   2   2
M  END
>  <reaction>  (2) 
rxn_1231

>  <mol_properties>  (2) 
{"1": {"label": "acceptor", "atom_type": "Cd"}}

>  <type>  (2) 
r2

$$$$

     RDKit          3D

  9  8  0  0  0  0  0  0  0  0999 V2000
    1.1303   -0.2933   -0.7510 C   0  0  0  0  0  0  0  0  0  0  0  0
    0.2866    0.4560   -0.0588 C   0  0  0  0  0  0  0  0  0  0  0  0
   -0.9719   -0.0331    0.5823 C   0  0  0  0  0  0  0  0  0  0  0  0
    2.0274    0.1230   -1.1916 H   0  0  0  0  0  0  0  0  0  0  0  0
    0.9532   -1.3530   -0.9023 H   0  0  0  0  0  0  0  0  0  0  0  0
    0.5065    1.5132    0.0659 H   0  0  0  0  0  0  0  0  0  0  0  0
   -0.9526    0.1426    1.6610 H   0  0  0  0  0  0  0  0  0  0  0  0
   -1.1182   -1.1002    0.4106 H   0  0  0  0  0  0  0  0  0  0  0  0
   -1.8412    0.5010    0.1901 H   0  0  0  0  0  0  0  0  0  0  0  0
  1  2  2  3
  1  4  1  0
  1  5  1  0
  2  3  1  0
  2  6  1  0
  3  7  1  0
  3  8  1  0
  3  9  1  0
M  END
>  <reaction>  (3) 
rxn_1231

>  <mol_properties>  (3) 
{"0": {"label": "a_hydrogen", "atom_type": "H0"}, "2": {"label": "acceptor", "atom_type": "Cd"}}

>  <type>  (3) 
r2h

$$$$

     RDKit          3D

 15 13  0  0  0  0  0  0  0  0999 V2000
   -0.5532   -1.2570   -2.4167 C   0  0  0  0  0  0  0  0  0  0  0  0
   -0.0944   -1.3832   -1.3134 C   0  0  0  0  0  0  0  0  0  0  0  0
    0.4317   -1.4661    0.0129 C   0  0  0  0  0  0  0  0  0  0  0  0
   -0.9531   -1.1664   -3.3976 H   0  0  0  0  0  0  0  0  0  0  0  0
    0.2285   -0.3389    0.5810 H   0  0  0  0  0  0  0  0  0  0  0  0
    1.5116   -1.5952    0.0517 H   0  0  0  0  0  0  0  0  0  0  0  0
   -0.0843   -2.1835    0.6480 H   0  0  0  0  0  0  0  0  0  0  0  0
    0.3900    1.0679    2.4008 C   0  0  0  0  0  0  0  0  0  0  0  0
   -0.0199    0.9245    1.1626 C   0  0  0  0  0  3  0  0  0  0  0  0
   -0.7065    1.8208    0.2096 C   0  0  0  0  0  0  0  0  0  0  0  0
    0.8858    0.2658    2.9364 H   0  0  0  0  0  0  0  0  0  0  0  0
    0.2470    2.0028    2.9405 H   0  0  0  0  0  0  0  0  0  0  0  0
   -1.6579    1.3899   -0.1093 H   0  0  0  0  0  0  0  0  0  0  0  0
   -0.8988    2.7995    0.6603 H   0  0  0  0  0  0  0  0  0  0  0  0
   -0.1039    1.9628   -0.6901 H   0  0  0  0  0  0  0  0  0  0  0  0
  1  2  3  0
  1  4  1  0
  2  3  1  0
  3  5  1  0
  3  6  1  0
  3  7  1  0
  8  9  2  3
  8 11  1  0
  8 12  1  0
  9 10  1  0
 10 13  1  0
 10 14  1  0
 10 15  1  0
M  RAD  1   9   2
M  END
>  <reaction>  (4) 
rxn_1231

>  <mol_properties>  (4) 
{"1": {"label": "*0", "atom_type": "Ct"}, "2": {"label": "*1", "atom_type": "Cs"}, "4": {"label": "*2", "atom_type": "H0"}, "7": {"label": "*4", "atom_type": "Cd"}, "8": {"label": "*3", "atom_type": "Cd"}}

>  <type>  (4) 
ts

$$$$

     RDKit          3D

 15 13  0  0  0  0  0  0  0  0999 V2000
   -0.2215   -1.3529   -2.6724 C   0  0  0  0  0  0  0  0  0  0  0  0
   -0.2215   -1.3529   -1.4754 C   0  0  0  0  0  0  0  0  0  0  0  0
   -0.2215   -1.3529   -0.0200 C   0  0  0  0  0  3  0  0  0  0  0  0
   -0.2215   -1.3529   -3.7357 H   0  0  0  0  0  0  0  0  0  0  0  0
   -0.1101   -0.1333    0.4425 H   0  0  0  0  0  0  0  0  0  0  0  0
    0.6122   -1.9414    0.3654 H   0  0  0  0  0  0  0  0  0  0  0  0
   -1.1481   -1.7806    0.3654 H   0  0  0  0  0  0  0  0  0  0  0  0
   -0.9639    1.5633    1.6711 C   0  0  0  0  0  0  0  0  0  0  0  0
    0.0010    1.0819    0.9033 C   0  0  0  0  0  0  0  0  0  0  0  0
    1.4649    1.2339    1.1641 C   0  0  0  0  0  0  0  0  0  0  0  0
   -2.0085    1.4183    1.4260 H   0  0  0  0  0  0  0  0  0  0  0  0
   -0.7428    2.1211    2.5750 H   0  0  0  0  0  0  0  0  0  0  0  0
    1.9561    1.7500    0.3352 H   0  0  0  0  0  0  0  0  0  0  0  0
    1.6505    1.7985    2.0786 H   0  0  0  0  0  0  0  0  0  0  0  0
    1.9465    0.2572    1.2588 H   0  0  0  0  0  0  0  0  0  0  0  0
  1  2  3  0
  1  4  1  0
  2  3  1  0
  3  6  1  0
  3  7  1  0
  5  9  1  0
  8  9  2  3
  8 11  1  0
  8 12  1  0
  9 10  1  0
 10 13  1  0
 10 14  1  0
 10 15  1  0
M  RAD  1   3   2
M  END
>  <reaction>  (5) 
rxn_1231

>  <mol_properties>  (5) 
{"1": {"label": "*0", "atom_type": "Ct"}, "2": {"label": "*1", "atom_type": "Cs"}, "4": {"label": "*2", "atom_type": "H0"}, "7": {"label": "*4", "atom_type": "Cd"}, "8": {"label": "*3", "atom_type": "Cd"}}

>  <type>  (5) 
unop_1

>  <geom_source>  (5) 
Heuristics

$$$$

     RDKit          3D

 15 13  0  0  0  0  0  0  0  0999 V2000
   -0.0896   -1.4315   -2.6333 C   0  0  0  0  0  0  0  0  0  0  0  0
   -0.0896   -1.4315   -1.4363 C   0  0  0  0  0  0  0  0  0  0  0  0
   -0.0896   -1.4315    0.0191 C   0  0  0  0  0  3  0  0  0  0  0  0
   -0.0896   -1.4315   -3.6966 H   0  0  0  0  0  0  0  0  0  0  0  0
    0.0219   -0.2119    0.4815 H   0  0  0  0  0  0  0  0  0  0  0  0
    0.7441   -2.0201    0.4045 H   0  0  0  0  0  0  0  0  0  0  0  0
   -1.0162   -1.8592    0.4045 H   0  0  0  0  0  0  0  0  0  0  0  0
   -0.3581    2.0035    0.2276 C   0  0  0  0  0  0  0  0  0  0  0  0
    0.1330    1.0033    0.9423 C   0  0  0  0  0  0  0  0  0  0  0  0
    0.4749    1.0709    2.3959 C   0  0  0  0  0  0  0  0  0  0  0  0
   -0.5854    1.8896   -0.8248 H   0  0  0  0  0  0  0  0  0  0  0  0
   -0.5509    2.9748    0.6710 H   0  0  0  0  0  0  0  0  0  0  0  0
    1.5317    0.8436    2.5578 H   0  0  0  0  0  0  0  0  0  0  0  0
    0.2690    2.0594    2.8083 H   0  0  0  0  0  0  0  0  0  0  0  0
   -0.0982    0.3343    2.9648 H   0  0  0  0  0  0  0  0  0  0  0  0
  1  2  3  0
  1  4  1  0
  2  3  1  0
  3  6  1  0
  3  7  1  0
  5  9  1  0
  8  9  2  3
  8 11  1  0
  8 12  1  0
  9 10  1  0
 10 13  1  0
 10 14  1  0
 10 15  1  0
M  RAD  1   3   2
M  END
>  <reaction>  (6) 
rxn_1231

>  <mol_properties>  (6) 
{"1": {"label": "*0", "atom_type": "Ct"}, "2": {"label": "*1", "atom_type": "Cs"}, "4": {"label": "*2", "atom_type": "H0"}, "7": {"label": "*4", "atom_type": "Cd"}, "8": {"label": "*3", "atom_type": "Cd"}}

>  <type>  (6) 
unop_2

>  <geom_source>  (6) 
Heuristics

$$$$

     RDKit          3D

 15 13  0  0  0  0  0  0  0  0999 V2000
   -0.2602   -1.4019   -2.5941 C   0  0  0  0  0  0  0  0  0  0  0  0
   -0.2602   -1.4019   -1.3970 C   0  0  0  0  0  0  0  0  0  0  0  0
   -0.2602   -1.4019    0.0584 C   0  0  0  0  0  3  0  0  0  0  0  0
   -0.2602   -1.4019   -3.6574 H   0  0  0  0  0  0  0  0  0  0  0  0
   -0.1487   -0.1824    0.5208 H   0  0  0  0  0  0  0  0  0  0  0  0
    0.5735   -1.9905    0.4438 H   0  0  0  0  0  0  0  0  0  0  0  0
   -1.1868   -1.8296    0.4438 H   0  0  0  0  0  0  0  0  0  0  0  0
   -0.5934    1.3262    2.1467 C   0  0  0  0  0  0  0  0  0  0  0  0
   -0.0377    1.0329    0.9816 C   0  0  0  0  0  0  0  0  0  0  0  0
    1.2402    1.6131    0.4673 C   0  0  0  0  0  0  0  0  0  0  0  0
   -1.5232    0.8697    2.4618 H   0  0  0  0  0  0  0  0  0  0  0  0
   -0.1367    2.0355    2.8290 H   0  0  0  0  0  0  0  0  0  0  0  0
    1.0778    2.1324   -0.4807 H   0  0  0  0  0  0  0  0  0  0  0  0
    1.6710    2.3205    1.1770 H   0  0  0  0  0  0  0  0  0  0  0  0
    1.9750    0.8269    0.2758 H   0  0  0  0  0  0  0  0  0  0  0  0
  1  2  3  0
  1  4  1  0
  2  3  1  0
  3  6  1  0
  3  7  1  0
  5  9  1  0
  8  9  2  3
  8 11  1  0
  8 12  1  0
  9 10  1  0
 10 13  1  0
 10 14  1  0
 10 15  1  0
M  RAD  1   3   2
M  END
>  <reaction>  (7) 
rxn_1231

>  <mol_properties>  (7) 
{"1": {"label": "*0", "atom_type": "Ct"}, "2": {"label": "*1", "atom_type": "Cs"}, "4": {"label": "*2", "atom_type": "H0"}, "7": {"label": "*4", "atom_type": "Cd"}, "8": {"label": "*3", "atom_type": "Cd"}}

>  <type>  (7) 
unop_3

>  <geom_source>  (7) 
Heuristics

$$$$

     RDKit          3D

 15 13  0  0  0  0  0  0  0  0999 V2000
   -0.1625   -1.3862   -2.6734 C   0  0  0  0  0  0  0  0  0  0  0  0
   -0.1625   -1.3862   -1.4764 C   0  0  0  0  0  0  0  0  0  0  0  0
   -0.1625   -1.3862   -0.0209 C   0  0  0  0  0  3  0  0  0  0  0  0
   -0.1625   -1.3862   -3.7367 H   0  0  0  0  0  0  0  0  0  0  0  0
   -0.0511   -0.1666    0.4415 H   0  0  0  0  0  0  0  0  0  0  0  0
    0.6712   -1.9748    0.3644 H   0  0  0  0  0  0  0  0  0  0  0  0
   -1.0891   -1.8139    0.3644 H   0  0  0  0  0  0  0  0  0  0  0  0
    1.1335    1.7552    0.5848 C   0  0  0  0  0  0  0  0  0  0  0  0
    0.0600    1.0486    0.9023 C   0  0  0  0  0  0  0  0  0  0  0  0
   -0.6941    1.1598    2.1880 C   0  0  0  0  0  0  0  0  0  0  0  0
    1.6353    1.6269   -0.3660 H   0  0  0  0  0  0  0  0  0  0  0  0
    1.5498    2.4894    1.2666 H   0  0  0  0  0  0  0  0  0  0  0  0
   -0.7109    0.2013    2.7131 H   0  0  0  0  0  0  0  0  0  0  0  0
   -0.2490    1.9053    2.8481 H   0  0  0  0  0  0  0  0  0  0  0  0
   -1.7350    1.4391    2.0055 H   0  0  0  0  0  0  0  0  0  0  0  0
  1  2  3  0
  1  4  1  0
  2  3  1  0
  3  6  1  0
  3  7  1  0
  5  9  1  0
  8  9  2  3
  8 11  1  0
  8 12  1  0
  9 10  1  0
 10 13  1  0
 10 14  1  0
 10 15  1  0
M  RAD  1   3   2
M  END
>  <reaction>  (8) 
rxn_1231

>  <mol_properties>  (8) 
{"1": {"label": "*0", "atom_type": "Ct"}, "2": {"label": "*1", "atom_type": "Cs"}, "4": {"label": "*2", "atom_type": "H0"}, "7": {"label": "*4", "atom_type": "Cd"}, "8": {"label": "*3", "atom_type": "Cd"}}

>  <type>  (8) 
unop_4

>  <geom_source>  (8) 
Heuristics

$$$$

     RDKit          3D

 15 13  0  0  0  0  0  0  0  0999 V2000
   -0.1353   -1.4805   -2.5213 C   0  0  0  0  0  0  0  0  0  0  0  0
   -0.1353   -1.4805   -1.3243 C   0  0  0  0  0  0  0  0  0  0  0  0
   -0.1353   -1.4805    0.1312 C   0  0  0  0  0  3  0  0  0  0  0  0
   -0.1353   -1.4805   -3.5846 H   0  0  0  0  0  0  0  0  0  0  0  0
   -0.0238   -0.2609    0.5936 H   0  0  0  0  0  0  0  0  0  0  0  0
    0.6984   -2.0690    0.5165 H   0  0  0  0  0  0  0  0  0  0  0  0
   -1.0619   -1.9082    0.5165 H   0  0  0  0  0  0  0  0  0  0  0  0
    0.1042    1.1402    2.3649 C   0  0  0  0  0  0  0  0  0  0  0  0
    0.0872    0.9543    1.0544 C   0  0  0  0  0  0  0  0  0  0  0  0
    0.1863    2.0385    0.0302 C   0  0  0  0  0  0  0  0  0  0  0  0
    0.0283    0.3100    3.0558 H   0  0  0  0  0  0  0  0  0  0  0  0
    0.1949    2.1322    2.7948 H   0  0  0  0  0  0  0  0  0  0  0  0
   -0.6946    2.0438   -0.6170 H   0  0  0  0  0  0  0  0  0  0  0  0
    0.2760    3.0204    0.4964 H   0  0  0  0  0  0  0  0  0  0  0  0
    1.0536    1.8840   -0.6170 H   0  0  0  0  0  0  0  0  0  0  0  0
  1  2  3  0
  1  4  1  0
  2  3  1  0
  3  6  1  0
  3  7  1  0
  5  9  1  0
  8  9  2  3
  8 11  1  0
  8 12  1  0
  9 10  1  0
 10 13  1  0
 10 14  1  0
 10 15  1  0
M  RAD  1   3   2
M  END
>  <reaction>  (9) 
rxn_1231

>  <mol_properties>  (9) 
{"1": {"label": "*0", "atom_type": "Ct"}, "2": {"label": "*1", "atom_type": "Cs"}, "4": {"label": "*2", "atom_type": "H0"}, "7": {"label": "*4", "atom_type": "Cd"}, "8": {"label": "*3", "atom_type": "Cd"}}

>  <type>  (9) 
unop_5

>  <geom_source>  (9) 
Heuristics

$$$$

     RDKit          3D

 15 13  0  0  0  0  0  0  0  0999 V2000
   -0.1035   -1.3617   -2.6959 C   0  0  0  0  0  0  0  0  0  0  0  0
   -0.1035   -1.3617   -1.4989 C   0  0  0  0  0  0  0  0  0  0  0  0
   -0.1035   -1.3617   -0.0434 C   0  0  0  0  0  3  0  0  0  0  0  0
   -0.1035   -1.3617   -3.7592 H   0  0  0  0  0  0  0  0  0  0  0  0
    0.0080   -0.1422    0.4190 H   0  0  0  0  0  0  0  0  0  0  0  0
    0.7302   -1.9503    0.3419 H   0  0  0  0  0  0  0  0  0  0  0  0
   -1.0301   -1.7894    0.3419 H   0  0  0  0  0  0  0  0  0  0  0  0
    1.3286    1.5614    1.1050 C   0  0  0  0  0  0  0  0  0  0  0  0
    0.1190    1.0731    0.8798 C   0  0  0  0  0  0  0  0  0  0  0  0
   -1.0657    1.2639    1.7710 C   0  0  0  0  0  0  0  0  0  0  0  0
    2.1470    1.3867    0.4180 H   0  0  0  0  0  0  0  0  0  0  0  0
    1.5441    2.1552    1.9871 H   0  0  0  0  0  0  0  0  0  0  0  0
   -1.4535    0.3012    2.1138 H   0  0  0  0  0  0  0  0  0  0  0  0
   -0.8137    1.8641    2.6461 H   0  0  0  0  0  0  0  0  0  0  0  0
   -1.8791    1.7603    1.2356 H   0  0  0  0  0  0  0  0  0  0  0  0
  1  2  3  0
  1  4  1  0
  2  3  1  0
  3  6  1  0
  3  7  1  0
  5  9  1  0
  8  9  2  3
  8 11  1  0
  8 12  1  0
  9 10  1  0
 10 13  1  0
 10 14  1  0
 10 15  1  0
M  RAD  1   3   2
M  END
>  <reaction>  (10) 
rxn_1231

>  <mol_properties>  (10) 
{"1": {"label": "*0", "atom_type": "Ct"}, "2": {"label": "*1", "atom_type": "Cs"}, "4": {"label": "*2", "atom_type": "H0"}, "7": {"label": "*4", "atom_type": "Cd"}, "8": {"label": "*3", "atom_type": "Cd"}}

>  <type>  (10) 
unop_6

>  <geom_source>  (10) 
Heuristics

$$$$

     RDKit          3D

 15 13  0  0  0  0  0  0  0  0999 V2000
   -0.0274   -1.3706   -2.6724 C   0  0  0  0  0  0  0  0  0  0  0  0
   -0.0274   -1.3706   -1.4754 C   0  0  0  0  0  0  0  0  0  0  0  0
   -0.0274   -1.3706   -0.0200 C   0  0  0  0  0  3  0  0  0  0  0  0
   -0.0274   -1.3706   -3.7357 H   0  0  0  0  0  0  0  0  0  0  0  0
    0.0841   -0.1510    0.4425 H   0  0  0  0  0  0  0  0  0  0  0  0
    0.8063   -1.9592    0.3654 H   0  0  0  0  0  0  0  0  0  0  0  0
   -0.9540   -1.7983    0.3654 H   0  0  0  0  0  0  0  0  0  0  0  0
    1.2313    1.3627    1.6711 C   0  0  0  0  0  0  0  0  0  0  0  0
    0.1951    1.0642    0.9033 C   0  0  0  0  0  0  0  0  0  0  0  0
   -1.2170    1.4790    1.1641 C   0  0  0  0  0  0  0  0  0  0  0  0
    2.2323    1.0308    1.4260 H   0  0  0  0  0  0  0  0  0  0  0  0
    1.1150    1.9514    2.5750 H   0  0  0  0  0  0  0  0  0  0  0  0
   -1.8676    0.6058    1.2588 H   0  0  0  0  0  0  0  0  0  0  0  0
   -1.2971    2.0679    2.0786 H   0  0  0  0  0  0  0  0  0  0  0  0
   -1.6065    2.0756    0.3352 H   0  0  0  0  0  0  0  0  0  0  0  0
  1  2  3  0
  1  4  1  0
  2  3  1  0
  3  6  1  0
  3  7  1  0
  5  9  1  0
  8  9  2  3
  8 11  1  0
  8 12  1  0
  9 10  1  0
 10 13  1  0
 10 14  1  0
 10 15  1  0
M  RAD  1   3   2
M  END
>  <reaction>  (11) 
rxn_1231

>  <mol_properties>  (11) 
{"1": {"label": "*0", "atom_type": "Ct"}, "2": {"label": "*1", "atom_type": "Cs"}, "4": {"label": "*2", "atom_type": "H0"}, "7": {"label": "*4", "atom_type": "Cd"}, "8": {"label": "*3", "atom_type": "Cd"}}

>  <type>  (11) 
unop_7

>  <geom_source>  (11) 
Heuristics

$$$$

     RDKit          3D

 15 13  0  0  0  0  0  0  0  0999 V2000
   -0.1451   -1.3579   -2.6959 C   0  0  0  0  0  0  0  0  0  0  0  0
   -0.1451   -1.3579   -1.4989 C   0  0  0  0  0  0  0  0  0  0  0  0
   -0.1451   -1.3579   -0.0434 C   0  0  0  0  0  3  0  0  0  0  0  0
   -0.1451   -1.3579   -3.7592 H   0  0  0  0  0  0  0  0  0  0  0  0
   -0.0336   -0.1384    0.4190 H   0  0  0  0  0  0  0  0  0  0  0  0
    0.6887   -1.9465    0.3419 H   0  0  0  0  0  0  0  0  0  0  0  0
   -1.0717   -1.7856    0.3419 H   0  0  0  0  0  0  0  0  0  0  0  0
   -1.0236    1.7764    1.1050 C   0  0  0  0  0  0  0  0  0  0  0  0
    0.0775    1.0769    0.8798 C   0  0  0  0  0  0  0  0  0  0  0  0
    1.2771    1.0498    1.7710 C   0  0  0  0  0  0  0  0  0  0  0  0
   -1.8601    1.7529    0.4180 H   0  0  0  0  0  0  0  0  0  0  0  0
   -1.1278    2.3994    1.9871 H   0  0  0  0  0  0  0  0  0  0  0  0
    2.1671    1.3905    1.2356 H   0  0  0  0  0  0  0  0  0  0  0  0
    1.1381    1.6858    2.6461 H   0  0  0  0  0  0  0  0  0  0  0  0
    1.4840    0.0327    2.1138 H   0  0  0  0  0  0  0  0  0  0  0  0
  1  2  3  0
  1  4  1  0
  2  3  1  0
  3  6  1  0
  3  7  1  0
  5  9  1  0
  8  9  2  3
  8 11  1  0
  8 12  1  0
  9 10  1  0
 10 13  1  0
 10 14  1  0
 10 15  1  0
M  RAD  1   3   2
M  END
>  <reaction>  (12) 
rxn_1231

>  <mol_properties>  (12) 
{"1": {"label": "*0", "atom_type": "Ct"}, "2": {"label": "*1", "atom_type": "Cs"}, "4": {"label": "*2", "atom_type": "H0"}, "7": {"label": "*4", "atom_type": "Cd"}, "8": {"label": "*3", "atom_type": "Cd"}}

>  <type>  (12) 
unop_8

>  <geom_source>  (12) 
Heuristics

$$$$

     RDKit          3D

 15 13  0  0  0  0  0  0  0  0999 V2000
   -0.1714   -1.4240   -2.6333 C   0  0  0  0  0  0  0  0  0  0  0  0
   -0.1714   -1.4240   -1.4363 C   0  0  0  0  0  0  0  0  0  0  0  0
   -0.1714   -1.4240    0.0191 C   0  0  0  0  0  3  0  0  0  0  0  0
   -0.1714   -1.4240   -3.6966 H   0  0  0  0  0  0  0  0  0  0  0  0
   -0.0599   -0.2044    0.4815 H   0  0  0  0  0  0  0  0  0  0  0  0
    0.6623   -2.0126    0.4045 H   0  0  0  0  0  0  0  0  0  0  0  0
   -1.0980   -1.8517    0.4045 H   0  0  0  0  0  0  0  0  0  0  0  0
    0.7154    1.9054    0.2276 C   0  0  0  0  0  0  0  0  0  0  0  0
    0.0511    1.0108    0.9423 C   0  0  0  0  0  0  0  0  0  0  0  0
   -0.2729    1.1393    2.3959 C   0  0  0  0  0  0  0  0  0  0  0  0
    0.9182    1.7522   -0.8248 H   0  0  0  0  0  0  0  0  0  0  0  0
    1.0810    2.8256    0.6710 H   0  0  0  0  0  0  0  0  0  0  0  0
    0.1571    0.3110    2.9648 H   0  0  0  0  0  0  0  0  0  0  0  0
    0.1088    2.0741    2.8083 H   0  0  0  0  0  0  0  0  0  0  0  0
   -1.3534    1.1073    2.5578 H   0  0  0  0  0  0  0  0  0  0  0  0
  1  2  3  0
  1  4  1  0
  2  3  1  0
  3  6  1  0
  3  7  1  0
  5  9  1  0
  8  9  2  3
  8 11  1  0
  8 12  1  0
  9 10  1  0
 10 13  1  0
 10 14  1  0
 10 15  1  0
M  RAD  1   3   2
M  END
>  <reaction>  (13) 
rxn_1231

>  <mol_properties>  (13) 
{"1": {"label": "*0", "atom_type": "Ct"}, "2": {"label": "*1", "atom_type": "Cs"}, "4": {"label": "*2", "atom_type": "H0"}, "7": {"label": "*4", "atom_type": "Cd"}, "8": {"label": "*3", "atom_type": "Cd"}}

>  <type>  (13) 
unop_9

>  <geom_source>  (13) 
Heuristics

$$$$

     RDKit          3D

 15 13  0  0  0  0  0  0  0  0999 V2000
   -0.0915   -1.3927   -2.6734 C   0  0  0  0  0  0  0  0  0  0  0  0
   -0.0915   -1.3927   -1.4764 C   0  0  0  0  0  0  0  0  0  0  0  0
   -0.0915   -1.3927   -0.0209 C   0  0  0  0  0  3  0  0  0  0  0  0
   -0.0915   -1.3927   -3.7367 H   0  0  0  0  0  0  0  0  0  0  0  0
    0.0200   -0.1731    0.4415 H   0  0  0  0  0  0  0  0  0  0  0  0
    0.7423   -1.9812    0.3644 H   0  0  0  0  0  0  0  0  0  0  0  0
   -1.0180   -1.8204    0.3644 H   0  0  0  0  0  0  0  0  0  0  0  0
   -0.7965    1.9316    0.5848 C   0  0  0  0  0  0  0  0  0  0  0  0
    0.1311    1.0421    0.9023 C   0  0  0  0  0  0  0  0  0  0  0  0
    0.8928    1.0147    2.1880 C   0  0  0  0  0  0  0  0  0  0  0  0
   -1.3133    1.8964   -0.3660 H   0  0  0  0  0  0  0  0  0  0  0  0
   -1.0729    2.7291    1.2666 H   0  0  0  0  0  0  0  0  0  0  0  0
    1.9671    1.1007    2.0055 H   0  0  0  0  0  0  0  0  0  0  0  0
    0.5902    1.8286    2.8481 H   0  0  0  0  0  0  0  0  0  0  0  0
    0.7356    0.0690    2.7131 H   0  0  0  0  0  0  0  0  0  0  0  0
  1  2  3  0
  1  4  1  0
  2  3  1  0
  3  6  1  0
  3  7  1  0
  5  9  1  0
  8  9  2  3
  8 11  1  0
  8 12  1  0
  9 10  1  0
 10 13  1  0
 10 14  1  0
 10 15  1  0
M  RAD  1   3   2
M  END
>  <reaction>  (14) 
rxn_1231

>  <mol_properties>  (14) 
{"1": {"label": "*0", "atom_type": "Ct"}, "2": {"label": "*1", "atom_type": "Cs"}, "4": {"label": "*2", "atom_type": "H0"}, "7": {"label": "*4", "atom_type": "Cd"}, "8": {"label": "*3", "atom_type": "Cd"}}

>  <type>  (14) 
unop_10

>  <geom_source>  (14) 
Heuristics

$$$$

     RDKit          3D

 15 13  0  0  0  0  0  0  0  0999 V2000
    0.0018   -1.4259   -2.5941 C   0  0  0  0  0  0  0  0  0  0  0  0
    0.0018   -1.4259   -1.3970 C   0  0  0  0  0  0  0  0  0  0  0  0
    0.0018   -1.4259    0.0584 C   0  0  0  0  0  3  0  0  0  0  0  0
    0.0018   -1.4259   -3.6574 H   0  0  0  0  0  0  0  0  0  0  0  0
    0.1132   -0.2063    0.5208 H   0  0  0  0  0  0  0  0  0  0  0  0
    0.8355   -2.0144    0.4438 H   0  0  0  0  0  0  0  0  0  0  0  0
   -0.9248   -1.8536    0.4438 H   0  0  0  0  0  0  0  0  0  0  0  0
    0.8239    1.1967    2.1467 C   0  0  0  0  0  0  0  0  0  0  0  0
    0.2243    1.0089    0.9816 C   0  0  0  0  0  0  0  0  0  0  0  0
   -0.9272    1.8112    0.4673 C   0  0  0  0  0  0  0  0  0  0  0  0
    1.6556    0.5792    2.4618 H   0  0  0  0  0  0  0  0  0  0  0  0
    0.5034    1.9770    2.8290 H   0  0  0  0  0  0  0  0  0  0  0  0
   -1.7924    1.1712    0.2758 H   0  0  0  0  0  0  0  0  0  0  0  0
   -1.2226    2.5850    1.1770 H   0  0  0  0  0  0  0  0  0  0  0  0
   -0.6734    2.2924   -0.4807 H   0  0  0  0  0  0  0  0  0  0  0  0
  1  2  3  0
  1  4  1  0
  2  3  1  0
  3  6  1  0
  3  7  1  0
  5  9  1  0
  8  9  2  3
  8 11  1  0
  8 12  1  0
  9 10  1  0
 10 13  1  0
 10 14  1  0
 10 15  1  0
M  RAD  1   3   2
M  END
>  <reaction>  (15) 
rxn_1231

>  <mol_properties>  (15) 
{"1": {"label": "*0", "atom_type": "Ct"}, "2": {"label": "*1", "atom_type": "Cs"}, "4": {"label": "*2", "atom_type": "H0"}, "7": {"label": "*4", "atom_type": "Cd"}, "8": {"label": "*3", "atom_type": "Cd"}}

>  <type>  (15) 
unop_11

>  <geom_source>  (15) 
Heuristics

$$$$

     RDKit          3D

 15 13  0  0  0  0  0  0  0  0999 V2000
   -0.1321   -1.4458   -2.6134 C   0  0  0  0  0  0  0  0  0  0  0  0
   -0.1321   -1.4458   -1.4164 C   0  0  0  0  0  0  0  0  0  0  0  0
   -0.1321   -1.4458    0.0390 C   0  0  0  0  0  3  0  0  0  0  0  0
   -0.1321   -1.4458   -3.6767 H   0  0  0  0  0  0  0  0  0  0  0  0
   -0.0207   -0.2262    0.5014 H   0  0  0  0  0  0  0  0  0  0  0  0
    0.7016   -2.0344    0.4244 H   0  0  0  0  0  0  0  0  0  0  0  0
   -1.0587   -1.8735    0.4244 H   0  0  0  0  0  0  0  0  0  0  0  0
    0.1820    1.9911    0.1021 C   0  0  0  0  0  0  0  0  0  0  0  0
    0.0904    0.9890    0.9622 C   0  0  0  0  0  0  0  0  0  0  0  0
    0.1031    1.1284    2.4504 C   0  0  0  0  0  0  0  0  0  0  0  0
    0.1666    1.8228   -0.9674 H   0  0  0  0  0  0  0  0  0  0  0  0
    0.2759    3.0184    0.4380 H   0  0  0  0  0  0  0  0  0  0  0  0
    0.9332    0.5666    2.8865 H   0  0  0  0  0  0  0  0  0  0  0  0
    0.1985    2.1722    2.7522 H   0  0  0  0  0  0  0  0  0  0  0  0
   -0.8150    0.7264    2.8865 H   0  0  0  0  0  0  0  0  0  0  0  0
  1  2  3  0
  1  4  1  0
  2  3  1  0
  3  6  1  0
  3  7  1  0
  5  9  1  0
  8  9  2  3
  8 11  1  0
  8 12  1  0
  9 10  1  0
 10 13  1  0
 10 14  1  0
 10 15  1  0
M  RAD  1   3   2
M  END
>  <reaction>  (16) 
rxn_1231

>  <mol_properties>  (16) 
{"1": {"label": "*0", "atom_type": "Ct"}, "2": {"label": "*1", "atom_type": "Cs"}, "4": {"label": "*2", "atom_type": "H0"}, "7": {"label": "*4", "atom_type": "Cd"}, "8": {"label": "*3", "atom_type": "Cd"}}

>  <type>  (16) 
unop_12

>  <geom_source>  (16) 
Heuristics

$$$$

     RDKit          3D

 15 13  0  0  0  0  0  0  0  0999 V2000
   -1.1267    1.1846    0.4159 C   0  0  0  0  0  0  0  0  0  0  0  0
   -1.0675   -0.2518    0.0006 C   0  0  0  0  0  0  0  0  0  0  0  0
   -2.0629   -1.0947    0.2817 C   0  0  0  0  0  0  0  0  0  0  0  0
    1.3277   -1.0379   -0.6036 C   0  0  0  0  0  3  0  0  0  0  0  0
    2.1116    0.1689   -0.3395 C   0  0  0  0  0  0  0  0  0  0  0  0
    2.7573    1.1633   -0.1219 C   0  0  0  0  0  0  0  0  0  0  0  0
   -2.0049    1.6788   -0.0507 H   0  0  0  0  0  0  0  0  0  0  0  0
   -0.2035    1.7038    0.0849 H   0  0  0  0  0  0  0  0  0  0  0  0
   -1.2042    1.2573    1.5213 H   0  0  0  0  0  0  0  0  0  0  0  0
   -0.0508   -0.6754   -0.6308 H   0  0  0  0  0  0  0  0  0  0  0  0
   -1.9968   -2.1316   -0.0300 H   0  0  0  0  0  0  0  0  0  0  0  0
   -2.9440   -0.7590    0.8205 H   0  0  0  0  0  0  0  0  0  0  0  0
    1.5382   -1.7949    0.1798 H   0  0  0  0  0  0  0  0  0  0  0  0
    1.6025   -1.4478   -1.5972 H   0  0  0  0  0  0  0  0  0  0  0  0
    3.3241    2.0364    0.0691 H   0  0  0  0  0  0  0  0  0  0  0  0
  1  2  1  0
  1  7  1  0
  1  8  1  0
  1  9  1  0
  2  3  2  3
  2 10  1  0
  3 11  1  0
  3 12  1  0
  4  5  1  0
  4 13  1  0
  4 14  1  0
  5  6  3  0
  6 15  1  0
M  RAD  1   4   2
M  END
>  <reaction>  (17) 
rxn_1231

>  <mol_properties>  (17) 
{"1": {"label": "*0", "atom_type": "Ct"}, "2": {"label": "*1", "atom_type": "Cs"}, "4": {"label": "*2", "atom_type": "H0"}, "7": {"label": "*4", "atom_type": "Cd"}, "8": {"label": "*3", "atom_type": "Cd"}}

>  <type>  (17) 
unop_13

>  <geom_source>  (17) 
AutoTST

$$$$
