
     RDKit          3D

  9  8  0  0  0  0  0  0  0  0999 V2000
   -2.1022   -0.6873    0.3932 C   0  0  0  0  0  0  0  0  0  0  0  0
   -1.2072   -0.1086   -0.1482 C   0  0  0  0  0  0  0  0  0  0  0  0
   -0.1242    0.6105   -0.8193 C   0  0  0  0  0  0  0  0  0  0  0  0
    1.2067    0.1106   -0.4741 C   0  0  0  0  0  0  0  0  0  0  0  0
    2.3005   -0.2875   -0.2012 C   0  0  0  0  0  0  0  0  0  0  0  0
   -2.8942   -1.2059    0.8778 H   0  0  0  0  0  0  0  0  0  0  0  0
   -0.1862    1.6723   -0.5649 H   0  0  0  0  0  0  0  0  0  0  0  0
   -0.2641    0.5418   -1.9017 H   0  0  0  0  0  0  0  0  0  0  0  0
    3.2709   -0.6459    0.0455 H   0  0  0  0  0  0  0  0  0  0  0  0
  1  2  3  0
  1  6  1  0
  2  3  1  0
  3  4  1  0
  3  7  1  0
  3  8  1  0
  4  5  3  0
  5  9  1  0
M  END
>  <reaction>  (1) 
rxn_1366

>  <mol_properties>  (1) 
{"2": {"label": "donator", "atom_type": "Cs"}, "6": {"label": "d_hydrogen", "atom_type": "H0"}}

>  <type>  (1) 
r1h

$$$$

     RDKit          3D

  7  6  0  0  0  0  0  0  0  0999 V2000
    1.3002    0.7433    2.1279 C   0  0  0  0  0  0  0  0  0  0  0  0
    0.5758    0.3292    1.2319 C   0  0  0  0  0  0  0  0  0  0  0  0
   -0.2057   -0.1176    0.2652 C   0  0  0  0  0  3  0  0  0  0  0  0
   -0.9747   -0.5572   -0.6858 C   0  0  0  0  0  0  0  0  0  0  0  0
    1.9293    1.1030    2.9060 H   0  0  0  0  0  0  0  0  0  0  0  0
   -1.9977   -0.8727   -0.4932 H   0  0  0  0  0  0  0  0  0  0  0  0
   -0.6274   -0.6280   -1.7143 H   0  0  0  0  0  0  0  0  0  0  0  0
  1  2  3  0
  1  5  1  0
  2  3  1  0
  3  4  2  3
  4  6  1  0
  4  7  1  0
M  RAD  1   3   2
M  END
>  <reaction>  (2) 
rxn_1366

>  <mol_properties>  (2) 
{"2": {"label": "acceptor", "atom_type": "Cd"}}

>  <type>  (2) 
r2

$$$$

     RDKit          3D

  8  7  0  0  0  0  0  0  0  0999 V2000
    1.9029    0.9046   -0.2050 C   0  0  0  0  0  0  0  0  0  0  0  0
    0.8517    0.4283    0.1217 C   0  0  0  0  0  0  0  0  0  0  0  0
   -0.3908   -0.1311    0.5404 C   0  0  0  0  0  0  0  0  0  0  0  0
   -1.2847   -0.6576   -0.2899 C   0  0  0  0  0  0  0  0  0  0  0  0
    2.8335    1.3255   -0.5014 H   0  0  0  0  0  0  0  0  0  0  0  0
   -0.5867   -0.1096    1.6074 H   0  0  0  0  0  0  0  0  0  0  0  0
   -2.2126   -1.0686    0.0850 H   0  0  0  0  0  0  0  0  0  0  0  0
   -1.1134   -0.6914   -1.3582 H   0  0  0  0  0  0  0  0  0  0  0  0
  1  2  3  0
  1  5  1  0
  2  3  1  0
  3  4  2  3
  3  6  1  0
  4  7  1  0
  4  8  1  0
M  END
>  <reaction>  (3) 
rxn_1366

>  <mol_properties>  (3) 
{"2": {"label": "acceptor", "atom_type": "Cd"}, "7": {"label": "a_hydrogen", "atom_type": "H0"}}

>  <type>  (3) 
r2h

$$$$

     RDKit          3D

 16 14  0  0  0  0  0  0  0  0999 V2000
    3.1302    1.1802   -0.7669 C   0  0  0  0  0  0  0  0  0  0  0  0
    2.2071    1.0621    0.0003 C   0  0  0  0  0  0  0  0  0  0  0  0
    1.1000    0.8241    0.7965 C   0  0  0  0  0  3  0  0  0  0  0  0
    0.5984    1.3047    1.9137 C   0  0  0  0  0  0  0  0  0  0  0  0
    3.9523    1.3049   -1.4301 H   0  0  0  0  0  0  0  0  0  0  0  0
    1.0895    2.1059    2.4587 H   0  0  0  0  0  0  0  0  0  0  0  0
   -0.3274    0.9120    2.3195 H   0  0  0  0  0  0  0  0  0  0  0  0
   -1.0930   -0.4513   -2.6280 C   0  0  0  0  0  0  0  0  0  0  0  0
   -0.8544   -0.7765   -1.4995 C   0  0  0  0  0  0  0  0  0  0  0  0
   -0.5175   -1.1245   -0.1447 C   0  0  0  0  0  0  0  0  0  0  0  0
   -1.6038   -1.1700    0.7981 C   0  0  0  0  0  0  0  0  0  0  0  0
   -2.4826   -1.1833    1.6139 C   0  0  0  0  0  0  0  0  0  0  0  0
   -1.3153   -0.1708   -3.6293 H   0  0  0  0  0  0  0  0  0  0  0  0
    0.2667   -0.2158    0.2614 H   0  0  0  0  0  0  0  0  0  0  0  0
    0.1229   -2.0053   -0.0858 H   0  0  0  0  0  0  0  0  0  0  0  0
   -3.2732   -1.2072    2.3249 H   0  0  0  0  0  0  0  0  0  0  0  0
  1  2  3  0
  1  5  1  0
  2  3  1  0
  3  4  2  3
  4  6  1  0
  4  7  1  0
  8  9  3  0
  8 13  1  0
  9 10  1  0
 10 11  1  0
 10 14  1  0
 10 15  1  0
 11 12  3  0
 12 16  1  0
M  RAD  1   3   2
M  END
>  <reaction>  (4) 
rxn_1366

>  <mol_properties>  (4) 
{"1": {"label": "*4", "atom_type": "Ct"}, "2": {"label": "*3", "atom_type": "Cd"}, "8": {"label": "*0", "atom_type": "Ct"}, "9": {"label": "*1", "atom_type": "Cs"}, "13": {"label": "*2", "atom_type": "H0"}}

>  <type>  (4) 
ts

$$$$

     RDKit          3D

 16 14  0  0  0  0  0  0  0  0999 V2000
    0.3715    2.5742    1.9355 C   0  0  0  0  0  0  0  0  0  0  0  0
    0.8447    1.6954    1.2704 C   0  0  0  0  0  0  0  0  0  0  0  0
    1.3824    0.6531    0.4600 C   0  0  0  0  0  0  0  0  0  0  0  0
    2.5268    0.0288    0.7173 C   0  0  0  0  0  0  0  0  0  0  0  0
   -0.0481    3.3533    2.5253 H   0  0  0  0  0  0  0  0  0  0  0  0
    3.1293    0.2845    1.5794 H   0  0  0  0  0  0  0  0  0  0  0  0
    2.8866   -0.7566    0.0659 H   0  0  0  0  0  0  0  0  0  0  0  0
   -0.3272   -1.1287   -3.0572 C   0  0  0  0  0  0  0  0  0  0  0  0
   -0.3272   -1.1287   -1.8617 C   0  0  0  0  0  0  0  0  0  0  0  0
   -0.3272   -1.1287   -0.3987 C   0  0  0  0  0  3  0  0  0  0  0  0
   -1.6412   -0.8531    0.1825 C   0  0  0  0  0  0  0  0  0  0  0  0
   -2.7150   -0.6278    0.6574 C   0  0  0  0  0  0  0  0  0  0  0  0
   -0.3272   -1.1287   -4.1206 H   0  0  0  0  0  0  0  0  0  0  0  0
    0.5309   -0.2343    0.0324 H   0  0  0  0  0  0  0  0  0  0  0  0
    0.0282   -2.0985   -0.0395 H   0  0  0  0  0  0  0  0  0  0  0  0
   -3.6702   -0.4275    1.0799 H   0  0  0  0  0  0  0  0  0  0  0  0
  1  2  3  0
  1  5  1  0
  2  3  1  0
  3  4  2  3
  3 14  1  0
  4  6  1  0
  4  7  1  0
  8  9  3  0
  8 13  1  0
  9 10  1  0
 10 11  1  0
 10 15  1  0
 11 12  3  0
 12 16  1  0
M  RAD  1  10   2
M  END
>  <reaction>  (5) 
rxn_1366

>  <mol_properties>  (5) 
{"1": {"label": "*4", "atom_type": "Ct"}, "2": {"label": "*3", "atom_type": "Cd"}, "8": {"label": "*0", "atom_type": "Ct"}, "9": {"label": "*1", "atom_type": "Cs"}, "13": {"label": "*2", "atom_type": "H0"}}

>  <type>  (5) 
unop_1

>  <geom_source>  (5) 
Heuristics

$$$$

     RDKit          3D

 16 14  0  0  0  0  0  0  0  0999 V2000
    1.6055    2.6221   -0.7170 C   0  0  0  0  0  0  0  0  0  0  0  0
    1.4491    1.6829    0.0124 C   0  0  0  0  0  0  0  0  0  0  0  0
    1.2503    0.5505    0.8551 C   0  0  0  0  0  0  0  0  0  0  0  0
    1.5889    0.5129    2.1395 C   0  0  0  0  0  0  0  0  0  0  0  0
    1.7443    3.4548   -1.3637 H   0  0  0  0  0  0  0  0  0  0  0  0
    2.0464    1.3631    2.6290 H   0  0  0  0  0  0  0  0  0  0  0  0
    1.4140   -0.3756    2.7316 H   0  0  0  0  0  0  0  0  0  0  0  0
   -0.4592   -1.2314   -2.6621 C   0  0  0  0  0  0  0  0  0  0  0  0
   -0.4592   -1.2314   -1.4666 C   0  0  0  0  0  0  0  0  0  0  0  0
   -0.4592   -1.2314   -0.0036 C   0  0  0  0  0  3  0  0  0  0  0  0
   -1.7732   -0.9557    0.5775 C   0  0  0  0  0  0  0  0  0  0  0  0
   -2.8470   -0.7305    1.0524 C   0  0  0  0  0  0  0  0  0  0  0  0
   -0.4592   -1.2314   -3.7256 H   0  0  0  0  0  0  0  0  0  0  0  0
    0.3989   -0.3370    0.4274 H   0  0  0  0  0  0  0  0  0  0  0  0
   -0.1039   -2.2012    0.3556 H   0  0  0  0  0  0  0  0  0  0  0  0
   -3.8022   -0.5302    1.4749 H   0  0  0  0  0  0  0  0  0  0  0  0
  1  2  3  0
  1  5  1  0
  2  3  1  0
  3  4  2  3
  3 14  1  0
  4  6  1  0
  4  7  1  0
  8  9  3  0
  8 13  1  0
  9 10  1  0
 10 11  1  0
 10 15  1  0
 11 12  3  0
 12 16  1  0
M  RAD  1  10   2
M  END
>  <reaction>  (6) 
rxn_1366

>  <mol_properties>  (6) 
{"1": {"label": "*4", "atom_type": "Ct"}, "2": {"label": "*3", "atom_type": "Cd"}, "8": {"label": "*0", "atom_type": "Ct"}, "9": {"label": "*1", "atom_type": "Cs"}, "13": {"label": "*2", "atom_type": "H0"}}

>  <type>  (6) 
unop_2

>  <geom_source>  (6) 
Heuristics

$$$$

     RDKit          3D

 16 14  0  0  0  0  0  0  0  0999 V2000
    0.7080    1.8556    2.7088 C   0  0  0  0  0  0  0  0  0  0  0  0
    0.9914    1.3476    1.6599 C   0  0  0  0  0  0  0  0  0  0  0  0
    1.2973    0.7411    0.4066 C   0  0  0  0  0  0  0  0  0  0  0  0
    2.5331    0.5155   -0.0265 C   0  0  0  0  0  0  0  0  0  0  0  0
    0.4567    2.3060    3.6388 H   0  0  0  0  0  0  0  0  0  0  0  0
    3.3981    0.7873    0.5647 H   0  0  0  0  0  0  0  0  0  0  0  0
    2.7057    0.0510   -0.9882 H   0  0  0  0  0  0  0  0  0  0  0  0
   -0.4123   -1.0407   -3.1106 C   0  0  0  0  0  0  0  0  0  0  0  0
   -0.4123   -1.0407   -1.9151 C   0  0  0  0  0  0  0  0  0  0  0  0
   -0.4123   -1.0407   -0.4521 C   0  0  0  0  0  3  0  0  0  0  0  0
   -1.7263   -0.7651    0.1290 C   0  0  0  0  0  0  0  0  0  0  0  0
   -2.8001   -0.5398    0.6039 C   0  0  0  0  0  0  0  0  0  0  0  0
   -0.4123   -1.0407   -4.1741 H   0  0  0  0  0  0  0  0  0  0  0  0
    0.4458   -0.1463   -0.0211 H   0  0  0  0  0  0  0  0  0  0  0  0
   -0.0569   -2.0105   -0.0929 H   0  0  0  0  0  0  0  0  0  0  0  0
   -3.7553   -0.3395    1.0264 H   0  0  0  0  0  0  0  0  0  0  0  0
  1  2  3  0
  1  5  1  0
  2  3  1  0
  3  4  2  3
  3 14  1  0
  4  6  1  0
  4  7  1  0
  8  9  3  0
  8 13  1  0
  9 10  1  0
 10 11  1  0
 10 15  1  0
 11 12  3  0
 12 16  1  0
M  RAD  1  10   2
M  END
>  <reaction>  (7) 
rxn_1366

>  <mol_properties>  (7) 
{"1": {"label": "*4", "atom_type": "Ct"}, "2": {"label": "*3", "atom_type": "Cd"}, "8": {"label": "*0", "atom_type": "Ct"}, "9": {"label": "*1", "atom_type": "Cs"}, "13": {"label": "*2", "atom_type": "H0"}}

>  <type>  (7) 
unop_3

>  <geom_source>  (7) 
Heuristics

$$$$

     RDKit          3D

 16 14  0  0  0  0  0  0  0  0999 V2000
    3.4583    0.5350   -0.0282 C   0  0  0  0  0  0  0  0  0  0  0  0
    2.3269    0.7060    0.3311 C   0  0  0  0  0  0  0  0  0  0  0  0
    0.9719    0.8964    0.7308 C   0  0  0  0  0  0  0  0  0  0  0  0
    0.6091    1.4444    1.8858 C   0  0  0  0  0  0  0  0  0  0  0  0
    4.4616    0.3833   -0.3467 H   0  0  0  0  0  0  0  0  0  0  0  0
    1.3425    1.7852    2.6053 H   0  0  0  0  0  0  0  0  0  0  0  0
   -0.4365    1.5640    2.1367 H   0  0  0  0  0  0  0  0  0  0  0  0
   -0.7377   -0.8854   -2.7864 C   0  0  0  0  0  0  0  0  0  0  0  0
   -0.7377   -0.8854   -1.5909 C   0  0  0  0  0  0  0  0  0  0  0  0
   -0.7377   -0.8854   -0.1279 C   0  0  0  0  0  3  0  0  0  0  0  0
   -2.0517   -0.6098    0.4533 C   0  0  0  0  0  0  0  0  0  0  0  0
   -3.1255   -0.3846    0.9282 C   0  0  0  0  0  0  0  0  0  0  0  0
   -0.7377   -0.8854   -3.8498 H   0  0  0  0  0  0  0  0  0  0  0  0
    0.1204    0.0090    0.3032 H   0  0  0  0  0  0  0  0  0  0  0  0
   -0.3823   -1.8552    0.2313 H   0  0  0  0  0  0  0  0  0  0  0  0
   -4.0807   -0.1842    1.3507 H   0  0  0  0  0  0  0  0  0  0  0  0
  1  2  3  0
  1  5  1  0
  2  3  1  0
  3  4  2  3
  3 14  1  0
  4  6  1  0
  4  7  1  0
  8  9  3  0
  8 13  1  0
  9 10  1  0
 10 11  1  0
 10 15  1  0
 11 12  3  0
 12 16  1  0
M  RAD  1  10   2
M  END
>  <reaction>  (8) 
rxn_1366

>  <mol_properties>  (8) 
{"1": {"label": "*4", "atom_type": "Ct"}, "2": {"label": "*3", "atom_type": "Cd"}, "8": {"label": "*0", "atom_type": "Ct"}, "9": {"label": "*1", "atom_type": "Cs"}, "13": {"label": "*2", "atom_type": "H0"}}

>  <type>  (8) 
unop_4

>  <geom_source>  (8) 
Heuristics

$$$$

     RDKit          3D

 16 14  0  0  0  0  0  0  0  0999 V2000
    1.4286    0.9807    3.0192 C   0  0  0  0  0  0  0  0  0  0  0  0
    1.3483    0.8970    1.8254 C   0  0  0  0  0  0  0  0  0  0  0  0
    1.2310    0.7747    0.4100 C   0  0  0  0  0  0  0  0  0  0  0  0
    1.9277    1.5009   -0.4577 C   0  0  0  0  0  0  0  0  0  0  0  0
    1.4998    1.0549    4.0776 H   0  0  0  0  0  0  0  0  0  0  0  0
    2.6415    2.2449   -0.1282 H   0  0  0  0  0  0  0  0  0  0  0  0
    1.7971    1.3648   -1.5231 H   0  0  0  0  0  0  0  0  0  0  0  0
   -0.4786   -1.0071   -3.1072 C   0  0  0  0  0  0  0  0  0  0  0  0
   -0.4786   -1.0071   -1.9117 C   0  0  0  0  0  0  0  0  0  0  0  0
   -0.4786   -1.0071   -0.4487 C   0  0  0  0  0  3  0  0  0  0  0  0
   -1.7926   -0.7315    0.1325 C   0  0  0  0  0  0  0  0  0  0  0  0
   -2.8664   -0.5063    0.6073 C   0  0  0  0  0  0  0  0  0  0  0  0
   -0.4786   -1.0071   -4.1707 H   0  0  0  0  0  0  0  0  0  0  0  0
    0.3795   -0.1127   -0.0177 H   0  0  0  0  0  0  0  0  0  0  0  0
   -0.1232   -1.9770   -0.0895 H   0  0  0  0  0  0  0  0  0  0  0  0
   -3.8216   -0.3060    1.0298 H   0  0  0  0  0  0  0  0  0  0  0  0
  1  2  3  0
  1  5  1  0
  2  3  1  0
  3  4  2  3
  3 14  1  0
  4  6  1  0
  4  7  1  0
  8  9  3  0
  8 13  1  0
  9 10  1  0
 10 11  1  0
 10 15  1  0
 11 12  3  0
 12 16  1  0
M  RAD  1  10   2
M  END
>  <reaction>  (9) 
rxn_1366

>  <mol_properties>  (9) 
{"1": {"label": "*4", "atom_type": "Ct"}, "2": {"label": "*3", "atom_type": "Cd"}, "8": {"label": "*0", "atom_type": "Ct"}, "9": {"label": "*1", "atom_type": "Cs"}, "13": {"label": "*2", "atom_type": "H0"}}

>  <type>  (9) 
unop_5

>  <geom_source>  (9) 
Heuristics

$$$$

     RDKit          3D

 16 14  0  0  0  0  0  0  0  0999 V2000
    3.4655    0.0823    0.9370 C   0  0  0  0  0  0  0  0  0  0  0  0
    2.3456    0.4847    0.7867 C   0  0  0  0  0  0  0  0  0  0  0  0
    1.0124    0.9457    0.5814 C   0  0  0  0  0  0  0  0  0  0  0  0
    0.3831    1.7837    1.3984 C   0  0  0  0  0  0  0  0  0  0  0  0
    4.4584   -0.2744    1.0702 H   0  0  0  0  0  0  0  0  0  0  0  0
    0.8615    2.1723    2.2883 H   0  0  0  0  0  0  0  0  0  0  0  0
   -0.6307    2.1002    1.1921 H   0  0  0  0  0  0  0  0  0  0  0  0
   -0.6971   -0.8361   -2.9358 C   0  0  0  0  0  0  0  0  0  0  0  0
   -0.6971   -0.8361   -1.7403 C   0  0  0  0  0  0  0  0  0  0  0  0
   -0.6971   -0.8361   -0.2773 C   0  0  0  0  0  3  0  0  0  0  0  0
   -2.0111   -0.5605    0.3039 C   0  0  0  0  0  0  0  0  0  0  0  0
   -3.0849   -0.3353    0.7788 C   0  0  0  0  0  0  0  0  0  0  0  0
   -0.6971   -0.8361   -3.9992 H   0  0  0  0  0  0  0  0  0  0  0  0
    0.1610    0.0583    0.1538 H   0  0  0  0  0  0  0  0  0  0  0  0
   -0.3418   -1.8059    0.0819 H   0  0  0  0  0  0  0  0  0  0  0  0
   -4.0401   -0.1349    1.2013 H   0  0  0  0  0  0  0  0  0  0  0  0
  1  2  3  0
  1  5  1  0
  2  3  1  0
  3  4  2  3
  3 14  1  0
  4  6  1  0
  4  7  1  0
  8  9  3  0
  8 13  1  0
  9 10  1  0
 10 11  1  0
 10 15  1  0
 11 12  3  0
 12 16  1  0
M  RAD  1  10   2
M  END
>  <reaction>  (10) 
rxn_1366

>  <mol_properties>  (10) 
{"1": {"label": "*4", "atom_type": "Ct"}, "2": {"label": "*3", "atom_type": "Cd"}, "8": {"label": "*0", "atom_type": "Ct"}, "9": {"label": "*1", "atom_type": "Cs"}, "13": {"label": "*2", "atom_type": "H0"}}

>  <type>  (10) 
unop_6

>  <geom_source>  (10) 
Heuristics

$$$$

     RDKit          3D

 16 14  0  0  0  0  0  0  0  0999 V2000
    3.0645   -0.0096    1.9355 C   0  0  0  0  0  0  0  0  0  0  0  0
    2.1669    0.4269    1.2704 C   0  0  0  0  0  0  0  0  0  0  0  0
    1.1033    0.9209    0.4600 C   0  0  0  0  0  0  0  0  0  0  0  0
    0.4321    2.0385    0.7173 C   0  0  0  0  0  0  0  0  0  0  0  0
    3.8603   -0.3966    2.5253 H   0  0  0  0  0  0  0  0  0  0  0  0
    0.6627    2.6512    1.5794 H   0  0  0  0  0  0  0  0  0  0  0  0
   -0.3675    2.3656    0.0659 H   0  0  0  0  0  0  0  0  0  0  0  0
   -0.6063   -0.8609   -3.0572 C   0  0  0  0  0  0  0  0  0  0  0  0
   -0.6063   -0.8609   -1.8617 C   0  0  0  0  0  0  0  0  0  0  0  0
   -0.6063   -0.8609   -0.3987 C   0  0  0  0  0  3  0  0  0  0  0  0
   -1.9203   -0.5853    0.1825 C   0  0  0  0  0  0  0  0  0  0  0  0
   -2.9941   -0.3601    0.6574 C   0  0  0  0  0  0  0  0  0  0  0  0
   -0.6063   -0.8609   -4.1206 H   0  0  0  0  0  0  0  0  0  0  0  0
    0.2518    0.0335    0.0324 H   0  0  0  0  0  0  0  0  0  0  0  0
   -0.2509   -1.8307   -0.0395 H   0  0  0  0  0  0  0  0  0  0  0  0
   -3.9493   -0.1597    1.0799 H   0  0  0  0  0  0  0  0  0  0  0  0
  1  2  3  0
  1  5  1  0
  2  3  1  0
  3  4  2  3
  3 14  1  0
  4  6  1  0
  4  7  1  0
  8  9  3  0
  8 13  1  0
  9 10  1  0
 10 11  1  0
 10 15  1  0
 11 12  3  0
 12 16  1  0
M  RAD  1  10   2
M  END
>  <reaction>  (11) 
rxn_1366

>  <mol_properties>  (11) 
{"1": {"label": "*4", "atom_type": "Ct"}, "2": {"label": "*3", "atom_type": "Cd"}, "8": {"label": "*0", "atom_type": "Ct"}, "9": {"label": "*1", "atom_type": "Cs"}, "13": {"label": "*2", "atom_type": "H0"}}

>  <type>  (11) 
unop_7

>  <geom_source>  (11) 
Heuristics

$$$$

     RDKit          3D

 16 14  0  0  0  0  0  0  0  0999 V2000
    0.4468    2.9786    0.9370 C   0  0  0  0  0  0  0  0  0  0  0  0
    0.8951    1.8764    0.7867 C   0  0  0  0  0  0  0  0  0  0  0  0
    1.4109    0.5634    0.5814 C   0  0  0  0  0  0  0  0  0  0  0  0
    2.2742   -0.0307    1.3984 C   0  0  0  0  0  0  0  0  0  0  0  0
    0.0493    3.9560    1.0702 H   0  0  0  0  0  0  0  0  0  0  0  0
    2.6427    0.4633    2.2883 H   0  0  0  0  0  0  0  0  0  0  0  0
    2.6324   -1.0305    1.1921 H   0  0  0  0  0  0  0  0  0  0  0  0
   -0.2986   -1.2184   -2.9358 C   0  0  0  0  0  0  0  0  0  0  0  0
   -0.2986   -1.2184   -1.7403 C   0  0  0  0  0  0  0  0  0  0  0  0
   -0.2986   -1.2184   -0.2773 C   0  0  0  0  0  3  0  0  0  0  0  0
   -1.6127   -0.9428    0.3039 C   0  0  0  0  0  0  0  0  0  0  0  0
   -2.6864   -0.7176    0.7788 C   0  0  0  0  0  0  0  0  0  0  0  0
   -0.2986   -1.2184   -3.9992 H   0  0  0  0  0  0  0  0  0  0  0  0
    0.5595   -0.3240    0.1538 H   0  0  0  0  0  0  0  0  0  0  0  0
    0.0567   -2.1882    0.0819 H   0  0  0  0  0  0  0  0  0  0  0  0
   -3.6416   -0.5172    1.2013 H   0  0  0  0  0  0  0  0  0  0  0  0
  1  2  3  0
  1  5  1  0
  2  3  1  0
  3  4  2  3
  3 14  1  0
  4  6  1  0
  4  7  1  0
  8  9  3  0
  8 13  1  0
  9 10  1  0
 10 11  1  0
 10 15  1  0
 11 12  3  0
 12 16  1  0
M  RAD  1  10   2
M  END
>  <reaction>  (12) 
rxn_1366

>  <mol_properties>  (12) 
{"1": {"label": "*4", "atom_type": "Ct"}, "2": {"label": "*3", "atom_type": "Cd"}, "8": {"label": "*0", "atom_type": "Ct"}, "9": {"label": "*1", "atom_type": "Cs"}, "13": {"label": "*2", "atom_type": "H0"}}

>  <type>  (12) 
unop_8

>  <geom_source>  (12) 
Heuristics

$$$$

     RDKit          3D

 16 14  0  0  0  0  0  0  0  0999 V2000
    3.0613    1.2254   -0.7170 C   0  0  0  0  0  0  0  0  0  0  0  0
    2.1294    1.0302    0.0124 C   0  0  0  0  0  0  0  0  0  0  0  0
    1.0061    0.7848    0.8551 C   0  0  0  0  0  0  0  0  0  0  0  0
    0.9546    1.1215    2.1395 C   0  0  0  0  0  0  0  0  0  0  0  0
    3.8876    1.3984   -1.3637 H   0  0  0  0  0  0  0  0  0  0  0  0
    1.7852    1.6137    2.6290 H   0  0  0  0  0  0  0  0  0  0  0  0
    0.0741    0.9100    2.7316 H   0  0  0  0  0  0  0  0  0  0  0  0
   -0.7034   -0.9970   -2.6621 C   0  0  0  0  0  0  0  0  0  0  0  0
   -0.7034   -0.9970   -1.4666 C   0  0  0  0  0  0  0  0  0  0  0  0
   -0.7034   -0.9970   -0.0036 C   0  0  0  0  0  3  0  0  0  0  0  0
   -2.0174   -0.7214    0.5775 C   0  0  0  0  0  0  0  0  0  0  0  0
   -3.0912   -0.4962    1.0524 C   0  0  0  0  0  0  0  0  0  0  0  0
   -0.7034   -0.9970   -3.7256 H   0  0  0  0  0  0  0  0  0  0  0  0
    0.1547   -0.1026    0.4274 H   0  0  0  0  0  0  0  0  0  0  0  0
   -0.3481   -1.9669    0.3556 H   0  0  0  0  0  0  0  0  0  0  0  0
   -4.0464   -0.2959    1.4749 H   0  0  0  0  0  0  0  0  0  0  0  0
  1  2  3  0
  1  5  1  0
  2  3  1  0
  3  4  2  3
  3 14  1  0
  4  6  1  0
  4  7  1  0
  8  9  3  0
  8 13  1  0
  9 10  1  0
 10 11  1  0
 10 15  1  0
 11 12  3  0
 12 16  1  0
M  RAD  1  10   2
M  END
>  <reaction>  (13) 
rxn_1366

>  <mol_properties>  (13) 
{"1": {"label": "*4", "atom_type": "Ct"}, "2": {"label": "*3", "atom_type": "Cd"}, "8": {"label": "*0", "atom_type": "Ct"}, "9": {"label": "*1", "atom_type": "Cs"}, "13": {"label": "*2", "atom_type": "H0"}}

>  <type>  (13) 
unop_9

>  <geom_source>  (13) 
Heuristics

$$$$

     RDKit          3D

 16 14  0  0  0  0  0  0  0  0999 V2000
    0.8993    2.9902   -0.0282 C   0  0  0  0  0  0  0  0  0  0  0  0
    1.1170    1.8668    0.3311 C   0  0  0  0  0  0  0  0  0  0  0  0
    1.3633    0.5208    0.7308 C   0  0  0  0  0  0  0  0  0  0  0  0
    1.9258    0.1811    1.8858 C   0  0  0  0  0  0  0  0  0  0  0  0
    0.7063    3.9863   -0.3467 H   0  0  0  0  0  0  0  0  0  0  0  0
    2.2360    0.9279    2.6053 H   0  0  0  0  0  0  0  0  0  0  0  0
    2.0886   -0.8587    2.1367 H   0  0  0  0  0  0  0  0  0  0  0  0
   -0.3462   -1.2610   -2.7864 C   0  0  0  0  0  0  0  0  0  0  0  0
   -0.3462   -1.2610   -1.5909 C   0  0  0  0  0  0  0  0  0  0  0  0
   -0.3462   -1.2610   -0.1279 C   0  0  0  0  0  3  0  0  0  0  0  0
   -1.6602   -0.9854    0.4533 C   0  0  0  0  0  0  0  0  0  0  0  0
   -2.7340   -0.7602    0.9282 C   0  0  0  0  0  0  0  0  0  0  0  0
   -0.3462   -1.2610   -3.8498 H   0  0  0  0  0  0  0  0  0  0  0  0
    0.5119   -0.3666    0.3032 H   0  0  0  0  0  0  0  0  0  0  0  0
    0.0091   -2.2308    0.2313 H   0  0  0  0  0  0  0  0  0  0  0  0
   -3.6892   -0.5598    1.3507 H   0  0  0  0  0  0  0  0  0  0  0  0
  1  2  3  0
  1  5  1  0
  2  3  1  0
  3  4  2  3
  3 14  1  0
  4  6  1  0
  4  7  1  0
  8  9  3  0
  8 13  1  0
  9 10  1  0
 10 11  1  0
 10 15  1  0
 11 12  3  0
 12 16  1  0
M  RAD  1  10   2
M  END
>  <reaction>  (14) 
rxn_1366

>  <mol_properties>  (14) 
{"1": {"label": "*4", "atom_type": "Ct"}, "2": {"label": "*3", "atom_type": "Cd"}, "8": {"label": "*0", "atom_type": "Ct"}, "9": {"label": "*1", "atom_type": "Cs"}, "13": {"label": "*2", "atom_type": "H0"}}

>  <type>  (14) 
unop_10

>  <geom_source>  (14) 
Heuristics

$$$$

     RDKit          3D

 16 14  0  0  0  0  0  0  0  0999 V2000
    2.3326    0.2968    2.7088 C   0  0  0  0  0  0  0  0  0  0  0  0
    1.8133    0.5590    1.6599 C   0  0  0  0  0  0  0  0  0  0  0  0
    1.1947    0.8395    0.4066 C   0  0  0  0  0  0  0  0  0  0  0  0
    0.9182    2.0650   -0.0265 C   0  0  0  0  0  0  0  0  0  0  0  0
    2.7930    0.0644    3.6388 H   0  0  0  0  0  0  0  0  0  0  0  0
    1.1539    2.9405    0.5647 H   0  0  0  0  0  0  0  0  0  0  0  0
    0.4469    2.2182   -0.9882 H   0  0  0  0  0  0  0  0  0  0  0  0
   -0.5148   -0.9423   -3.1106 C   0  0  0  0  0  0  0  0  0  0  0  0
   -0.5148   -0.9423   -1.9151 C   0  0  0  0  0  0  0  0  0  0  0  0
   -0.5148   -0.9423   -0.4521 C   0  0  0  0  0  3  0  0  0  0  0  0
   -1.8289   -0.6667    0.1290 C   0  0  0  0  0  0  0  0  0  0  0  0
   -2.9026   -0.4415    0.6039 C   0  0  0  0  0  0  0  0  0  0  0  0
   -0.5148   -0.9423   -4.1741 H   0  0  0  0  0  0  0  0  0  0  0  0
    0.3433   -0.0479   -0.0211 H   0  0  0  0  0  0  0  0  0  0  0  0
   -0.1595   -1.9121   -0.0929 H   0  0  0  0  0  0  0  0  0  0  0  0
   -3.8578   -0.2411    1.0264 H   0  0  0  0  0  0  0  0  0  0  0  0
  1  2  3  0
  1  5  1  0
  2  3  1  0
  3  4  2  3
  3 14  1  0
  4  6  1  0
  4  7  1  0
  8  9  3  0
  8 13  1  0
  9 10  1  0
 10 11  1  0
 10 15  1  0
 11 12  3  0
 12 16  1  0
M  RAD  1  10   2
M  END
>  <reaction>  (15) 
rxn_1366

>  <mol_properties>  (15) 
{"1": {"label": "*4", "atom_type": "Ct"}, "2": {"label": "*3", "atom_type": "Cd"}, "8": {"label": "*0", "atom_type": "Ct"}, "9": {"label": "*1", "atom_type": "Cs"}, "13": {"label": "*2", "atom_type": "H0"}}

>  <type>  (15) 
unop_11

>  <geom_source>  (15) 
Heuristics

$$$$

     RDKit          3D

 16 14  0  0  0  0  0  0  0  0999 V2000
    2.3879    1.9805   -0.9651 C   0  0  0  0  0  0  0  0  0  0  0  0
    1.8121    1.3803   -0.1009 C   0  0  0  0  0  0  0  0  0  0  0  0
    1.1120    0.6507    0.9040 C   0  0  0  0  0  0  0  0  0  0  0  0
    1.2857    0.8317    2.2089 C   0  0  0  0  0  0  0  0  0  0  0  0
    2.8984    2.5126   -1.7314 H   0  0  0  0  0  0  0  0  0  0  0  0
    1.9871    1.5628    2.5902 H   0  0  0  0  0  0  0  0  0  0  0  0
    0.7257    0.2480    2.9273 H   0  0  0  0  0  0  0  0  0  0  0  0
   -0.5975   -1.1311   -2.6132 C   0  0  0  0  0  0  0  0  0  0  0  0
   -0.5975   -1.1311   -1.4177 C   0  0  0  0  0  0  0  0  0  0  0  0
   -0.5975   -1.1311    0.0453 C   0  0  0  0  0  3  0  0  0  0  0  0
   -1.9115   -0.8555    0.6264 C   0  0  0  0  0  0  0  0  0  0  0  0
   -2.9853   -0.6303    1.1013 C   0  0  0  0  0  0  0  0  0  0  0  0
   -0.5975   -1.1311   -3.6767 H   0  0  0  0  0  0  0  0  0  0  0  0
    0.2606   -0.2367    0.4763 H   0  0  0  0  0  0  0  0  0  0  0  0
   -0.2422   -2.1009    0.4045 H   0  0  0  0  0  0  0  0  0  0  0  0
   -3.9405   -0.4299    1.5238 H   0  0  0  0  0  0  0  0  0  0  0  0
  1  2  3  0
  1  5  1  0
  2  3  1  0
  3  4  2  3
  3 14  1  0
  4  6  1  0
  4  7  1  0
  8  9  3  0
  8 13  1  0
  9 10  1  0
 10 11  1  0
 10 15  1  0
 11 12  3  0
 12 16  1  0
M  RAD  1  10   2
M  END
>  <reaction>  (16) 
rxn_1366

>  <mol_properties>  (16) 
{"1": {"label": "*4", "atom_type": "Ct"}, "2": {"label": "*3", "atom_type": "Cd"}, "8": {"label": "*0", "atom_type": "Ct"}, "9": {"label": "*1", "atom_type": "Cs"}, "13": {"label": "*2", "atom_type": "H0"}}

>  <type>  (16) 
unop_12

>  <geom_source>  (16) 
Heuristics

$$$$

     RDKit          3D

 16 14  0  0  0  0  0  0  0  0999 V2000
    1.4765   -0.3663   -0.0662 C   0  0  0  0  0  0  0  0  0  0  0  0
   -1.1021   -0.0785    0.1784 C   0  0  0  0  0  3  0  0  0  0  0  0
    1.9962   -1.4002    0.5851 C   0  0  0  0  0  0  0  0  0  0  0  0
    2.3079    0.7212   -0.5070 C   0  0  0  0  0  0  0  0  0  0  0  0
   -2.1620   -1.0850    0.2644 C   0  0  0  0  0  0  0  0  0  0  0  0
   -1.6712    1.2053   -0.2359 C   0  0  0  0  0  0  0  0  0  0  0  0
    3.0039    1.6334   -0.8769 C   0  0  0  0  0  0  0  0  0  0  0  0
   -3.0334   -1.9153    0.3356 C   0  0  0  0  0  0  0  0  0  0  0  0
   -2.1380    2.2634   -0.5773 C   0  0  0  0  0  0  0  0  0  0  0  0
    0.2589   -0.3337   -0.2997 H   0  0  0  0  0  0  0  0  0  0  0  0
    1.3551   -2.2092    0.9091 H   0  0  0  0  0  0  0  0  0  0  0  0
    3.0568   -1.4514    0.8009 H   0  0  0  0  0  0  0  0  0  0  0  0
   -0.6172    0.0342    1.1700 H   0  0  0  0  0  0  0  0  0  0  0  0
    3.6150    2.4341   -1.2017 H   0  0  0  0  0  0  0  0  0  0  0  0
   -3.7984   -2.6439    0.3980 H   0  0  0  0  0  0  0  0  0  0  0  0
   -2.5479    3.1919   -0.8768 H   0  0  0  0  0  0  0  0  0  0  0  0
  1  3  2  3
  1  4  1  0
  1 10  1  0
  2  5  1  0
  2  6  1  0
  2 13  1  0
  3 11  1  0
  3 12  1  0
  4  7  3  0
  5  8  3  0
  6  9  3  0
  7 14  1  0
  8 15  1  0
  9 16  1  0
M  RAD  1   2   2
M  END
>  <reaction>  (17) 
rxn_1366

>  <mol_properties>  (17) 
{"1": {"label": "*4", "atom_type": "Ct"}, "2": {"label": "*3", "atom_type": "Cd"}, "8": {"label": "*0", "atom_type": "Ct"}, "9": {"label": "*1", "atom_type": "Cs"}, "13": {"label": "*2", "atom_type": "H0"}}

>  <type>  (17) 
unop_13

>  <geom_source>  (17) 
AutoTST

$$$$
