
     RDKit          3D

 12 11  0  0  0  0  0  0  0  0999 V2000
    1.4428    0.2441    1.3554 C   0  0  0  0  0  0  0  0  0  0  0  0
    0.3166    0.4887    0.4026 C   0  0  0  0  0  0  0  0  0  0  0  0
   -0.8306    1.0759    0.7113 C   0  0  0  0  0  0  0  0  0  0  0  0
   -1.9569    1.3205   -0.2415 C   0  0  0  0  0  0  0  0  0  0  0  0
    1.6690   -0.8228    1.4301 H   0  0  0  0  0  0  0  0  0  0  0  0
    2.3573    0.7388    1.0175 H   0  0  0  0  0  0  0  0  0  0  0  0
    1.2058    0.6125    2.3545 H   0  0  0  0  0  0  0  0  0  0  0  0
    0.4700    0.1508   -0.6205 H   0  0  0  0  0  0  0  0  0  0  0  0
   -0.9840    1.4138    1.7343 H   0  0  0  0  0  0  0  0  0  0  0  0
   -2.8714    0.8258    0.0963 H   0  0  0  0  0  0  0  0  0  0  0  0
   -2.1831    2.3874   -0.3163 H   0  0  0  0  0  0  0  0  0  0  0  0
   -1.7199    0.9521   -1.2407 H   0  0  0  0  0  0  0  0  0  0  0  0
  1  2  1  0
  1  5  1  0
  1  6  1  0
  1  7  1  0
  2  3  2  3
  2  8  1  0
  3  4  1  0
  3  9  1  0
  4 10  1  0
  4 11  1  0
  4 12  1  0
M  END
>  <reaction>  (1) 
rxn_32

>  <mol_properties>  (1) 
{"3": {"label": "donator", "atom_type": "Cs"}, "11": {"label": "d_hydrogen", "atom_type": "H0"}}

>  <type>  (1) 
r1h

$$$$

     RDKit          3D

  3  2  0  0  0  0  0  0  0  0999 V2000
    0.9943   -0.1797    0.0000 O   0  0  0  0  0  1  0  0  0  0  0  0
   -0.1595    0.4394    0.0000 O   0  0  0  0  0  0  0  0  0  0  0  0
   -0.8348   -0.2597    0.0000 H   0  0  0  0  0  0  0  0  0  0  0  0
  1  2  1  0
  2  3  1  0
M  RAD  1   1   2
M  END
>  <reaction>  (2) 
rxn_32

>  <mol_properties>  (2) 
{"0": {"label": "acceptor", "atom_type": "O2s"}}

>  <type>  (2) 
r2

$$$$

     RDKit          3D

  4  3  0  0  0  0  0  0  0  0999 V2000
    0.5949   -0.3853    0.2659 O   0  0  0  0  0  0  0  0  0  0  0  0
   -0.5918    0.4028    0.2462 O   0  0  0  0  0  0  0  0  0  0  0  0
    1.1865    0.1539   -0.2689 H   0  0  0  0  0  0  0  0  0  0  0  0
   -1.1896   -0.1714   -0.2432 H   0  0  0  0  0  0  0  0  0  0  0  0
  1  2  1  0
  1  3  1  0
  2  4  1  0
M  END
>  <reaction>  (3) 
rxn_32

>  <mol_properties>  (3) 
{"0": {"label": "a_hydrogen", "atom_type": "H0"}, "1": {"label": "acceptor", "atom_type": "O2s"}}

>  <type>  (3) 
r2h

$$$$

     RDKit          3D

 15 13  0  0  0  0  0  0  0  0999 V2000
    0.0010    0.2858   -2.6744 C   0  0  0  0  0  0  0  0  0  0  0  0
   -0.4769    0.4339   -1.2701 C   0  0  0  0  0  0  0  0  0  0  0  0
    0.1378    1.1562   -0.3191 C   0  0  0  0  0  0  0  0  0  0  0  0
   -0.3103    1.2483    1.0521 C   0  0  0  0  0  3  0  0  0  0  0  0
    0.1579   -0.7674   -2.9242 H   0  0  0  0  0  0  0  0  0  0  0  0
   -0.7427    0.6647   -3.3807 H   0  0  0  0  0  0  0  0  0  0  0  0
    0.9359    0.8223   -2.8406 H   0  0  0  0  0  0  0  0  0  0  0  0
   -1.4000   -0.0781   -1.0114 H   0  0  0  0  0  0  0  0  0  0  0  0
    1.0686    1.6585   -0.5728 H   0  0  0  0  0  0  0  0  0  0  0  0
    0.0425    2.1051    1.6201 H   0  0  0  0  0  0  0  0  0  0  0  0
   -1.3574    1.0109    1.2278 H   0  0  0  0  0  0  0  0  0  0  0  0
    0.2638    0.2462    1.6464 H   0  0  0  0  0  0  0  0  0  0  0  0
    0.7578   -0.8212    2.0365 O   0  0  0  0  0  0  0  0  0  0  0  0
    0.4484   -1.7118    1.0361 O   0  0  0  0  0  0  0  0  0  0  0  0
    1.1881   -1.6312    0.4206 H   0  0  0  0  0  0  0  0  0  0  0  0
  1  2  1  0
  1  5  1  0
  1  6  1  0
  1  7  1  0
  2  3  2  3
  2  8  1  0
  3  4  1  0
  3  9  1  0
  4 10  1  0
  4 11  1  0
 12 13  1  0
 13 14  1  0
 14 15  1  0
M  RAD  1   4   2
M  END
>  <reaction>  (4) 
rxn_32

>  <mol_properties>  (4) 
{"2": {"label": "*4", "atom_type": "Cd"}, "3": {"label": "*3", "atom_type": "Cs"}, "11": {"label": "*2", "atom_type": "H0"}, "12": {"label": "*1", "atom_type": "O2s"}, "13": {"label": "*0", "atom_type": "O2s"}}

>  <type>  (4) 
ts

$$$$

     RDKit          3D

 15 13  0  0  0  0  0  0  0  0999 V2000
   -0.2282    0.1048   -3.0586 C   0  0  0  0  0  0  0  0  0  0  0  0
   -0.2282    0.1048   -1.5632 C   0  0  0  0  0  0  0  0  0  0  0  0
   -0.2282    1.1880   -0.7998 C   0  0  0  0  0  0  0  0  0  0  0  0
   -0.2282    1.1880    0.6956 C   0  0  0  0  0  3  0  0  0  0  0  0
    0.6497   -0.4152   -3.4511 H   0  0  0  0  0  0  0  0  0  0  0  0
   -1.1061   -0.4152   -3.4511 H   0  0  0  0  0  0  0  0  0  0  0  0
   -0.2282    1.1206   -3.4564 H   0  0  0  0  0  0  0  0  0  0  0  0
   -0.2282   -0.8714   -1.0821 H   0  0  0  0  0  0  0  0  0  0  0  0
   -0.2282    2.1642   -1.2809 H   0  0  0  0  0  0  0  0  0  0  0  0
    0.6497    1.7080    1.0881 H   0  0  0  0  0  0  0  0  0  0  0  0
   -1.1061    1.7080    1.0881 H   0  0  0  0  0  0  0  0  0  0  0  0
   -0.2282   -0.0310    1.1730 H   0  0  0  0  0  0  0  0  0  0  0  0
   -0.2282   -1.1066    1.5943 O   0  0  0  0  0  0  0  0  0  0  0  0
    0.9821   -1.1095    2.3459 O   0  0  0  0  0  0  0  0  0  0  0  0
    0.7290   -0.5815    3.1100 H   0  0  0  0  0  0  0  0  0  0  0  0
  1  2  1  0
  1  5  1  0
  1  6  1  0
  1  7  1  0
  2  3  2  3
  2  8  1  0
  3  4  1  0
  3  9  1  0
  4 10  1  0
  4 11  1  0
 12 13  1  0
 13 14  1  0
 14 15  1  0
M  RAD  1   4   2
M  END
>  <reaction>  (5) 
rxn_32

>  <mol_properties>  (5) 
{"2": {"label": "*4", "atom_type": "Cd"}, "3": {"label": "*3", "atom_type": "Cs"}, "11": {"label": "*2", "atom_type": "H0"}, "12": {"label": "*1", "atom_type": "O2s"}, "13": {"label": "*0", "atom_type": "O2s"}}

>  <type>  (5) 
unop_1

>  <geom_source>  (5) 
Heuristics

$$$$

     RDKit          3D

 15 13  0  0  0  0  0  0  0  0999 V2000
   -0.1436    0.2433   -2.7143 C   0  0  0  0  0  0  0  0  0  0  0  0
   -0.1436    0.2433   -1.2189 C   0  0  0  0  0  0  0  0  0  0  0  0
   -0.1436    1.3265   -0.4556 C   0  0  0  0  0  0  0  0  0  0  0  0
   -0.1436    1.3265    1.0398 C   0  0  0  0  0  3  0  0  0  0  0  0
    0.7343   -0.2767   -3.1068 H   0  0  0  0  0  0  0  0  0  0  0  0
   -1.0215   -0.2767   -3.1068 H   0  0  0  0  0  0  0  0  0  0  0  0
   -0.1436    1.2591   -3.1122 H   0  0  0  0  0  0  0  0  0  0  0  0
   -0.1436   -0.7329   -0.7379 H   0  0  0  0  0  0  0  0  0  0  0  0
   -0.1436    2.3027   -0.9366 H   0  0  0  0  0  0  0  0  0  0  0  0
    0.7343    1.8465    1.4323 H   0  0  0  0  0  0  0  0  0  0  0  0
   -1.0215    1.8465    1.4323 H   0  0  0  0  0  0  0  0  0  0  0  0
   -0.1436    0.1075    1.5173 H   0  0  0  0  0  0  0  0  0  0  0  0
   -0.1436   -0.9681    1.9385 O   0  0  0  0  0  0  0  0  0  0  0  0
    0.5551   -1.6672    0.9126 O   0  0  0  0  0  0  0  0  0  0  0  0
    1.4581   -1.6329    1.2445 H   0  0  0  0  0  0  0  0  0  0  0  0
  1  2  1  0
  1  5  1  0
  1  6  1  0
  1  7  1  0
  2  3  2  3
  2  8  1  0
  3  4  1  0
  3  9  1  0
  4 10  1  0
  4 11  1  0
 12 13  1  0
 13 14  1  0
 14 15  1  0
M  RAD  1   4   2
M  END
>  <reaction>  (6) 
rxn_32

>  <mol_properties>  (6) 
{"2": {"label": "*4", "atom_type": "Cd"}, "3": {"label": "*3", "atom_type": "Cs"}, "11": {"label": "*2", "atom_type": "H0"}, "12": {"label": "*1", "atom_type": "O2s"}, "13": {"label": "*0", "atom_type": "O2s"}}

>  <type>  (6) 
unop_2

>  <geom_source>  (6) 
Heuristics

$$$$

     RDKit          3D

 15 13  0  0  0  0  0  0  0  0999 V2000
   -0.1253    0.0723   -3.1475 C   0  0  0  0  0  0  0  0  0  0  0  0
   -0.1253    0.0723   -1.6521 C   0  0  0  0  0  0  0  0  0  0  0  0
   -0.1253    1.1556   -0.8888 C   0  0  0  0  0  0  0  0  0  0  0  0
   -0.1253    1.1556    0.6066 C   0  0  0  0  0  3  0  0  0  0  0  0
    0.7526   -0.4476   -3.5400 H   0  0  0  0  0  0  0  0  0  0  0  0
   -1.0031   -0.4476   -3.5400 H   0  0  0  0  0  0  0  0  0  0  0  0
   -0.1253    1.0882   -3.5454 H   0  0  0  0  0  0  0  0  0  0  0  0
   -0.1253   -0.9039   -1.1711 H   0  0  0  0  0  0  0  0  0  0  0  0
   -0.1253    2.1317   -1.3698 H   0  0  0  0  0  0  0  0  0  0  0  0
    0.7526    1.6755    0.9991 H   0  0  0  0  0  0  0  0  0  0  0  0
   -1.0031    1.6755    0.9991 H   0  0  0  0  0  0  0  0  0  0  0  0
   -0.1253   -0.0634    1.0841 H   0  0  0  0  0  0  0  0  0  0  0  0
   -0.1253   -1.1390    1.5053 O   0  0  0  0  0  0  0  0  0  0  0  0
    0.5735   -0.9554    2.7332 O   0  0  0  0  0  0  0  0  0  0  0  0
   -0.1463   -0.7094    3.3231 H   0  0  0  0  0  0  0  0  0  0  0  0
  1  2  1  0
  1  5  1  0
  1  6  1  0
  1  7  1  0
  2  3  2  3
  2  8  1  0
  3  4  1  0
  3  9  1  0
  4 10  1  0
  4 11  1  0
 12 13  1  0
 13 14  1  0
 14 15  1  0
M  RAD  1   4   2
M  END
>  <reaction>  (7) 
rxn_32

>  <mol_properties>  (7) 
{"2": {"label": "*4", "atom_type": "Cd"}, "3": {"label": "*3", "atom_type": "Cs"}, "11": {"label": "*2", "atom_type": "H0"}, "12": {"label": "*1", "atom_type": "O2s"}, "13": {"label": "*0", "atom_type": "O2s"}}

>  <type>  (7) 
unop_3

>  <geom_source>  (7) 
Heuristics

$$$$

     RDKit          3D

 15 13  0  0  0  0  0  0  0  0999 V2000
    0.2286    0.2186   -2.8004 C   0  0  0  0  0  0  0  0  0  0  0  0
    0.2286    0.2186   -1.3050 C   0  0  0  0  0  0  0  0  0  0  0  0
    0.2286    1.3018   -0.5417 C   0  0  0  0  0  0  0  0  0  0  0  0
    0.2286    1.3018    0.9537 C   0  0  0  0  0  3  0  0  0  0  0  0
    1.1065   -0.3014   -3.1929 H   0  0  0  0  0  0  0  0  0  0  0  0
   -0.6493   -0.3014   -3.1929 H   0  0  0  0  0  0  0  0  0  0  0  0
    0.2286    1.2344   -3.1983 H   0  0  0  0  0  0  0  0  0  0  0  0
    0.2286   -0.7576   -0.8240 H   0  0  0  0  0  0  0  0  0  0  0  0
    0.2286    2.2780   -1.0227 H   0  0  0  0  0  0  0  0  0  0  0  0
    1.1065    1.8218    1.3463 H   0  0  0  0  0  0  0  0  0  0  0  0
   -0.6493    1.8218    1.3462 H   0  0  0  0  0  0  0  0  0  0  0  0
    0.2286    0.0828    1.4312 H   0  0  0  0  0  0  0  0  0  0  0  0
    0.2286   -0.9928    1.8525 O   0  0  0  0  0  0  0  0  0  0  0  0
   -0.9817   -1.5054    1.3028 O   0  0  0  0  0  0  0  0  0  0  0  0
   -0.7636   -2.4381    1.2077 H   0  0  0  0  0  0  0  0  0  0  0  0
  1  2  1  0
  1  5  1  0
  1  6  1  0
  1  7  1  0
  2  3  2  3
  2  8  1  0
  3  4  1  0
  3  9  1  0
  4 10  1  0
  4 11  1  0
 12 13  1  0
 13 14  1  0
 14 15  1  0
M  RAD  1   4   2
M  END
>  <reaction>  (8) 
rxn_32

>  <mol_properties>  (8) 
{"2": {"label": "*4", "atom_type": "Cd"}, "3": {"label": "*3", "atom_type": "Cs"}, "11": {"label": "*2", "atom_type": "H0"}, "12": {"label": "*1", "atom_type": "O2s"}, "13": {"label": "*0", "atom_type": "O2s"}}

>  <type>  (8) 
unop_4

>  <geom_source>  (8) 
Heuristics

$$$$

     RDKit          3D

 15 13  0  0  0  0  0  0  0  0999 V2000
    0.0097    0.0660   -3.1770 C   0  0  0  0  0  0  0  0  0  0  0  0
    0.0097    0.0660   -1.6816 C   0  0  0  0  0  0  0  0  0  0  0  0
    0.0097    1.1493   -0.9182 C   0  0  0  0  0  0  0  0  0  0  0  0
    0.0097    1.1493    0.5771 C   0  0  0  0  0  3  0  0  0  0  0  0
    0.8876   -0.4539   -3.5695 H   0  0  0  0  0  0  0  0  0  0  0  0
   -0.8681   -0.4539   -3.5695 H   0  0  0  0  0  0  0  0  0  0  0  0
    0.0097    1.0819   -3.5749 H   0  0  0  0  0  0  0  0  0  0  0  0
    0.0097   -0.9102   -1.2005 H   0  0  0  0  0  0  0  0  0  0  0  0
    0.0097    2.1254   -1.3993 H   0  0  0  0  0  0  0  0  0  0  0  0
    0.8876    1.6692    0.9697 H   0  0  0  0  0  0  0  0  0  0  0  0
   -0.8681    1.6692    0.9697 H   0  0  0  0  0  0  0  0  0  0  0  0
    0.0097   -0.0697    1.0546 H   0  0  0  0  0  0  0  0  0  0  0  0
    0.0097   -1.1453    1.4759 O   0  0  0  0  0  0  0  0  0  0  0  0
    0.0097   -0.8934    2.8781 O   0  0  0  0  0  0  0  0  0  0  0  0
   -0.8510   -1.2425    3.1309 H   0  0  0  0  0  0  0  0  0  0  0  0
  1  2  1  0
  1  5  1  0
  1  6  1  0
  1  7  1  0
  2  3  2  3
  2  8  1  0
  3  4  1  0
  3  9  1  0
  4 10  1  0
  4 11  1  0
 12 13  1  0
 13 14  1  0
 14 15  1  0
M  RAD  1   4   2
M  END
>  <reaction>  (9) 
rxn_32

>  <mol_properties>  (9) 
{"2": {"label": "*4", "atom_type": "Cd"}, "3": {"label": "*3", "atom_type": "Cs"}, "11": {"label": "*2", "atom_type": "H0"}, "12": {"label": "*1", "atom_type": "O2s"}, "13": {"label": "*0", "atom_type": "O2s"}}

>  <type>  (9) 
unop_5

>  <geom_source>  (9) 
Heuristics

$$$$

     RDKit          3D

 15 13  0  0  0  0  0  0  0  0999 V2000
    0.2670    0.1703   -2.9252 C   0  0  0  0  0  0  0  0  0  0  0  0
    0.2670    0.1703   -1.4299 C   0  0  0  0  0  0  0  0  0  0  0  0
    0.2670    1.2535   -0.6665 C   0  0  0  0  0  0  0  0  0  0  0  0
    0.2670    1.2535    0.8289 C   0  0  0  0  0  3  0  0  0  0  0  0
    1.1449   -0.3497   -3.3178 H   0  0  0  0  0  0  0  0  0  0  0  0
   -0.6109   -0.3497   -3.3178 H   0  0  0  0  0  0  0  0  0  0  0  0
    0.2670    1.1861   -3.3231 H   0  0  0  0  0  0  0  0  0  0  0  0
    0.2670   -0.8059   -0.9488 H   0  0  0  0  0  0  0  0  0  0  0  0
    0.2670    2.2297   -1.1476 H   0  0  0  0  0  0  0  0  0  0  0  0
    1.1449    1.7735    1.2214 H   0  0  0  0  0  0  0  0  0  0  0  0
   -0.6109    1.7735    1.2214 H   0  0  0  0  0  0  0  0  0  0  0  0
    0.2670    0.0345    1.3063 H   0  0  0  0  0  0  0  0  0  0  0  0
    0.2670   -1.0411    1.7276 O   0  0  0  0  0  0  0  0  0  0  0  0
   -1.1305   -1.2989    1.8286 O   0  0  0  0  0  0  0  0  0  0  0  0
   -1.1468   -2.2605    1.7881 H   0  0  0  0  0  0  0  0  0  0  0  0
  1  2  1  0
  1  5  1  0
  1  6  1  0
  1  7  1  0
  2  3  2  3
  2  8  1  0
  3  4  1  0
  3  9  1  0
  4 10  1  0
  4 11  1  0
 12 13  1  0
 13 14  1  0
 14 15  1  0
M  RAD  1   4   2
M  END
>  <reaction>  (10) 
rxn_32

>  <mol_properties>  (10) 
{"2": {"label": "*4", "atom_type": "Cd"}, "3": {"label": "*3", "atom_type": "Cs"}, "11": {"label": "*2", "atom_type": "H0"}, "12": {"label": "*1", "atom_type": "O2s"}, "13": {"label": "*0", "atom_type": "O2s"}}

>  <type>  (10) 
unop_6

>  <geom_source>  (10) 
Heuristics

$$$$

     RDKit          3D

 15 13  0  0  0  0  0  0  0  0999 V2000
    0.2336    0.1213   -3.0498 C   0  0  0  0  0  0  0  0  0  0  0  0
    0.2336    0.1213   -1.5545 C   0  0  0  0  0  0  0  0  0  0  0  0
    0.2336    1.2046   -0.7911 C   0  0  0  0  0  0  0  0  0  0  0  0
    0.2336    1.2046    0.7043 C   0  0  0  0  0  3  0  0  0  0  0  0
    1.1115   -0.3986   -3.4424 H   0  0  0  0  0  0  0  0  0  0  0  0
   -0.6443   -0.3986   -3.4424 H   0  0  0  0  0  0  0  0  0  0  0  0
    0.2336    1.1372   -3.4477 H   0  0  0  0  0  0  0  0  0  0  0  0
    0.2336   -0.8549   -1.0734 H   0  0  0  0  0  0  0  0  0  0  0  0
    0.2336    2.1807   -1.2722 H   0  0  0  0  0  0  0  0  0  0  0  0
    1.1115    1.7245    1.0968 H   0  0  0  0  0  0  0  0  0  0  0  0
   -0.6443    1.7245    1.0968 H   0  0  0  0  0  0  0  0  0  0  0  0
    0.2336   -0.0144    1.1817 H   0  0  0  0  0  0  0  0  0  0  0  0
    0.2336   -1.0900    1.6030 O   0  0  0  0  0  0  0  0  0  0  0  0
   -0.9767   -1.0929    2.3546 O   0  0  0  0  0  0  0  0  0  0  0  0
   -1.1982   -2.0297    2.3488 H   0  0  0  0  0  0  0  0  0  0  0  0
  1  2  1  0
  1  5  1  0
  1  6  1  0
  1  7  1  0
  2  3  2  3
  2  8  1  0
  3  4  1  0
  3  9  1  0
  4 10  1  0
  4 11  1  0
 12 13  1  0
 13 14  1  0
 14 15  1  0
M  RAD  1   4   2
M  END
>  <reaction>  (11) 
rxn_32

>  <mol_properties>  (11) 
{"2": {"label": "*4", "atom_type": "Cd"}, "3": {"label": "*3", "atom_type": "Cs"}, "11": {"label": "*2", "atom_type": "H0"}, "12": {"label": "*1", "atom_type": "O2s"}, "13": {"label": "*0", "atom_type": "O2s"}}

>  <type>  (11) 
unop_7

>  <geom_source>  (11) 
Heuristics

$$$$

     RDKit          3D

 15 13  0  0  0  0  0  0  0  0999 V2000
   -0.2695    0.1532   -2.9342 C   0  0  0  0  0  0  0  0  0  0  0  0
   -0.2695    0.1532   -1.4389 C   0  0  0  0  0  0  0  0  0  0  0  0
   -0.2695    1.2364   -0.6755 C   0  0  0  0  0  0  0  0  0  0  0  0
   -0.2695    1.2364    0.8199 C   0  0  0  0  0  3  0  0  0  0  0  0
    0.6084   -0.3668   -3.3268 H   0  0  0  0  0  0  0  0  0  0  0  0
   -1.1474   -0.3668   -3.3268 H   0  0  0  0  0  0  0  0  0  0  0  0
   -0.2695    1.1690   -3.3321 H   0  0  0  0  0  0  0  0  0  0  0  0
   -0.2695   -0.8230   -0.9578 H   0  0  0  0  0  0  0  0  0  0  0  0
   -0.2695    2.2126   -1.1565 H   0  0  0  0  0  0  0  0  0  0  0  0
    0.6084    1.7564    1.2124 H   0  0  0  0  0  0  0  0  0  0  0  0
   -1.1474    1.7564    1.2124 H   0  0  0  0  0  0  0  0  0  0  0  0
   -0.2695    0.0174    1.2973 H   0  0  0  0  0  0  0  0  0  0  0  0
   -0.2695   -1.0582    1.7186 O   0  0  0  0  0  0  0  0  0  0  0  0
    1.1280   -1.3160    1.8196 O   0  0  0  0  0  0  0  0  0  0  0  0
    1.3656   -0.7664    2.5734 H   0  0  0  0  0  0  0  0  0  0  0  0
  1  2  1  0
  1  5  1  0
  1  6  1  0
  1  7  1  0
  2  3  2  3
  2  8  1  0
  3  4  1  0
  3  9  1  0
  4 10  1  0
  4 11  1  0
 12 13  1  0
 13 14  1  0
 14 15  1  0
M  RAD  1   4   2
M  END
>  <reaction>  (12) 
rxn_32

>  <mol_properties>  (12) 
{"2": {"label": "*4", "atom_type": "Cd"}, "3": {"label": "*3", "atom_type": "Cs"}, "11": {"label": "*2", "atom_type": "H0"}, "12": {"label": "*1", "atom_type": "O2s"}, "13": {"label": "*0", "atom_type": "O2s"}}

>  <type>  (12) 
unop_8

>  <geom_source>  (12) 
Heuristics

$$$$

     RDKit          3D

 15 13  0  0  0  0  0  0  0  0999 V2000
    0.1272    0.2525   -2.7094 C   0  0  0  0  0  0  0  0  0  0  0  0
    0.1272    0.2525   -1.2141 C   0  0  0  0  0  0  0  0  0  0  0  0
    0.1272    1.3358   -0.4507 C   0  0  0  0  0  0  0  0  0  0  0  0
    0.1272    1.3358    1.0447 C   0  0  0  0  0  3  0  0  0  0  0  0
    1.0051   -0.2674   -3.1020 H   0  0  0  0  0  0  0  0  0  0  0  0
   -0.7507   -0.2674   -3.1020 H   0  0  0  0  0  0  0  0  0  0  0  0
    0.1272    1.2684   -3.1073 H   0  0  0  0  0  0  0  0  0  0  0  0
    0.1272   -0.7237   -0.7330 H   0  0  0  0  0  0  0  0  0  0  0  0
    0.1272    2.3119   -0.9318 H   0  0  0  0  0  0  0  0  0  0  0  0
    1.0051    1.8557    1.4372 H   0  0  0  0  0  0  0  0  0  0  0  0
   -0.7507    1.8557    1.4372 H   0  0  0  0  0  0  0  0  0  0  0  0
    0.1272    0.1168    1.5221 H   0  0  0  0  0  0  0  0  0  0  0  0
    0.1272   -0.9588    1.9434 O   0  0  0  0  0  0  0  0  0  0  0  0
   -0.5716   -1.6580    0.9175 O   0  0  0  0  0  0  0  0  0  0  0  0
   -0.0229   -2.4427    0.8188 H   0  0  0  0  0  0  0  0  0  0  0  0
  1  2  1  0
  1  5  1  0
  1  6  1  0
  1  7  1  0
  2  3  2  3
  2  8  1  0
  3  4  1  0
  3  9  1  0
  4 10  1  0
  4 11  1  0
 12 13  1  0
 13 14  1  0
 14 15  1  0
M  RAD  1   4   2
M  END
>  <reaction>  (13) 
rxn_32

>  <mol_properties>  (13) 
{"2": {"label": "*4", "atom_type": "Cd"}, "3": {"label": "*3", "atom_type": "Cs"}, "11": {"label": "*2", "atom_type": "H0"}, "12": {"label": "*1", "atom_type": "O2s"}, "13": {"label": "*0", "atom_type": "O2s"}}

>  <type>  (13) 
unop_9

>  <geom_source>  (13) 
Heuristics

$$$$

     RDKit          3D

 15 13  0  0  0  0  0  0  0  0999 V2000
   -0.2384    0.2037   -2.8082 C   0  0  0  0  0  0  0  0  0  0  0  0
   -0.2384    0.2037   -1.3129 C   0  0  0  0  0  0  0  0  0  0  0  0
   -0.2384    1.2869   -0.5495 C   0  0  0  0  0  0  0  0  0  0  0  0
   -0.2384    1.2869    0.9459 C   0  0  0  0  0  3  0  0  0  0  0  0
    0.6394   -0.3163   -3.2008 H   0  0  0  0  0  0  0  0  0  0  0  0
   -1.1163   -0.3163   -3.2008 H   0  0  0  0  0  0  0  0  0  0  0  0
   -0.2384    1.2195   -3.2061 H   0  0  0  0  0  0  0  0  0  0  0  0
   -0.2384   -0.7725   -0.8318 H   0  0  0  0  0  0  0  0  0  0  0  0
   -0.2384    2.2631   -1.0305 H   0  0  0  0  0  0  0  0  0  0  0  0
    0.6394    1.8069    1.3384 H   0  0  0  0  0  0  0  0  0  0  0  0
   -1.1163    1.8069    1.3384 H   0  0  0  0  0  0  0  0  0  0  0  0
   -0.2384    0.0679    1.4233 H   0  0  0  0  0  0  0  0  0  0  0  0
   -0.2384   -1.0076    1.8446 O   0  0  0  0  0  0  0  0  0  0  0  0
    0.9718   -1.5202    1.2950 O   0  0  0  0  0  0  0  0  0  0  0  0
    1.6244   -1.1384    1.8908 H   0  0  0  0  0  0  0  0  0  0  0  0
  1  2  1  0
  1  5  1  0
  1  6  1  0
  1  7  1  0
  2  3  2  3
  2  8  1  0
  3  4  1  0
  3  9  1  0
  4 10  1  0
  4 11  1  0
 12 13  1  0
 13 14  1  0
 14 15  1  0
M  RAD  1   4   2
M  END
>  <reaction>  (14) 
rxn_32

>  <mol_properties>  (14) 
{"2": {"label": "*4", "atom_type": "Cd"}, "3": {"label": "*3", "atom_type": "Cs"}, "11": {"label": "*2", "atom_type": "H0"}, "12": {"label": "*1", "atom_type": "O2s"}, "13": {"label": "*0", "atom_type": "O2s"}}

>  <type>  (14) 
unop_10

>  <geom_source>  (14) 
Heuristics

$$$$

     RDKit          3D

 15 13  0  0  0  0  0  0  0  0999 V2000
    0.1394    0.0842   -3.1413 C   0  0  0  0  0  0  0  0  0  0  0  0
    0.1394    0.0842   -1.6459 C   0  0  0  0  0  0  0  0  0  0  0  0
    0.1394    1.1674   -0.8825 C   0  0  0  0  0  0  0  0  0  0  0  0
    0.1394    1.1674    0.6129 C   0  0  0  0  0  3  0  0  0  0  0  0
    1.0173   -0.4358   -3.5338 H   0  0  0  0  0  0  0  0  0  0  0  0
   -0.7385   -0.4358   -3.5338 H   0  0  0  0  0  0  0  0  0  0  0  0
    0.1394    1.1001   -3.5391 H   0  0  0  0  0  0  0  0  0  0  0  0
    0.1394   -0.8920   -1.1648 H   0  0  0  0  0  0  0  0  0  0  0  0
    0.1394    2.1436   -1.3636 H   0  0  0  0  0  0  0  0  0  0  0  0
    1.0173    1.6874    1.0054 H   0  0  0  0  0  0  0  0  0  0  0  0
   -0.7385    1.6874    1.0054 H   0  0  0  0  0  0  0  0  0  0  0  0
    0.1394   -0.0515    1.0903 H   0  0  0  0  0  0  0  0  0  0  0  0
    0.1394   -1.1271    1.5116 O   0  0  0  0  0  0  0  0  0  0  0  0
   -0.5594   -0.9435    2.7395 O   0  0  0  0  0  0  0  0  0  0  0  0
   -1.0863   -1.7483    2.7770 H   0  0  0  0  0  0  0  0  0  0  0  0
  1  2  1  0
  1  5  1  0
  1  6  1  0
  1  7  1  0
  2  3  2  3
  2  8  1  0
  3  4  1  0
  3  9  1  0
  4 10  1  0
  4 11  1  0
 12 13  1  0
 13 14  1  0
 14 15  1  0
M  RAD  1   4   2
M  END
>  <reaction>  (15) 
rxn_32

>  <mol_properties>  (15) 
{"2": {"label": "*4", "atom_type": "Cd"}, "3": {"label": "*3", "atom_type": "Cs"}, "11": {"label": "*2", "atom_type": "H0"}, "12": {"label": "*1", "atom_type": "O2s"}, "13": {"label": "*0", "atom_type": "O2s"}}

>  <type>  (15) 
unop_11

>  <geom_source>  (15) 
Heuristics

$$$$

     RDKit          3D

 15 13  0  0  0  0  0  0  0  0999 V2000
   -0.0097    0.2615   -2.6779 C   0  0  0  0  0  0  0  0  0  0  0  0
   -0.0097    0.2615   -1.1825 C   0  0  0  0  0  0  0  0  0  0  0  0
   -0.0097    1.3448   -0.4191 C   0  0  0  0  0  0  0  0  0  0  0  0
   -0.0097    1.3448    1.0763 C   0  0  0  0  0  3  0  0  0  0  0  0
    0.8681   -0.2584   -3.0704 H   0  0  0  0  0  0  0  0  0  0  0  0
   -0.8876   -0.2584   -3.0704 H   0  0  0  0  0  0  0  0  0  0  0  0
   -0.0097    1.2774   -3.0757 H   0  0  0  0  0  0  0  0  0  0  0  0
   -0.0097   -0.7147   -0.7014 H   0  0  0  0  0  0  0  0  0  0  0  0
   -0.0097    2.3209   -0.9002 H   0  0  0  0  0  0  0  0  0  0  0  0
    0.8681    1.8647    1.4688 H   0  0  0  0  0  0  0  0  0  0  0  0
   -0.8876    1.8647    1.4688 H   0  0  0  0  0  0  0  0  0  0  0  0
   -0.0097    0.1258    1.5537 H   0  0  0  0  0  0  0  0  0  0  0  0
   -0.0097   -0.9498    1.9750 O   0  0  0  0  0  0  0  0  0  0  0  0
   -0.0097   -1.7173    0.7747 O   0  0  0  0  0  0  0  0  0  0  0  0
    0.8510   -2.1452    0.8263 H   0  0  0  0  0  0  0  0  0  0  0  0
  1  2  1  0
  1  5  1  0
  1  6  1  0
  1  7  1  0
  2  3  2  3
  2  8  1  0
  3  4  1  0
  3  9  1  0
  4 10  1  0
  4 11  1  0
 12 13  1  0
 13 14  1  0
 14 15  1  0
M  RAD  1   4   2
M  END
>  <reaction>  (16) 
rxn_32

>  <mol_properties>  (16) 
{"2": {"label": "*4", "atom_type": "Cd"}, "3": {"label": "*3", "atom_type": "Cs"}, "11": {"label": "*2", "atom_type": "H0"}, "12": {"label": "*1", "atom_type": "O2s"}, "13": {"label": "*0", "atom_type": "O2s"}}

>  <type>  (16) 
unop_12

>  <geom_source>  (16) 
Heuristics

$$$$

     RDKit          3D

 15 13  0  0  0  0  0  0  0  0999 V2000
    2.4317    1.5415    0.6115 O   0  0  0  0  0  0  0  0  0  0  0  0
    2.5425    0.5473   -0.2441 O   0  0  0  0  0  1  0  0  0  0  0  0
   -1.6370    0.9157    0.0398 C   0  0  0  0  0  0  0  0  0  0  0  0
   -1.4751   -0.5066    0.4916 C   0  0  0  0  0  0  0  0  0  0  0  0
   -0.4597   -1.2879    0.0932 C   0  0  0  0  0  0  0  0  0  0  0  0
    0.6117   -0.8082   -0.8386 C   0  0  0  0  0  0  0  0  0  0  0  0
   -2.5367    1.3586    0.5159 H   0  0  0  0  0  0  0  0  0  0  0  0
   -1.7634    0.9534   -1.0627 H   0  0  0  0  0  0  0  0  0  0  0  0
   -0.7479    1.5124    0.3339 H   0  0  0  0  0  0  0  0  0  0  0  0
   -2.2113   -0.9174    1.1764 H   0  0  0  0  0  0  0  0  0  0  0  0
   -0.4002   -2.3037    0.4730 H   0  0  0  0  0  0  0  0  0  0  0  0
    0.1764   -0.5839   -1.8350 H   0  0  0  0  0  0  0  0  0  0  0  0
    1.3927   -1.5888   -0.9523 H   0  0  0  0  0  0  0  0  0  0  0  0
    2.7257    1.1600    1.4772 H   0  0  0  0  0  0  0  0  0  0  0  0
    1.3508    0.0077   -0.2798 H   0  0  0  0  0  0  0  0  0  0  0  0
  1  2  1  0
  1 14  1  0
  3  4  1  0
  3  7  1  0
  3  8  1  0
  3  9  1  0
  4  5  2  3
  4 10  1  0
  5  6  1  0
  5 11  1  0
  6 12  1  0
  6 13  1  0
  6 15  1  0
M  RAD  1   2   2
M  END
>  <reaction>  (17) 
rxn_32

>  <mol_properties>  (17) 
{"2": {"label": "*4", "atom_type": "Cd"}, "3": {"label": "*3", "atom_type": "Cs"}, "11": {"label": "*2", "atom_type": "H0"}, "12": {"label": "*1", "atom_type": "O2s"}, "13": {"label": "*0", "atom_type": "O2s"}}

>  <type>  (17) 
unop_13

>  <geom_source>  (17) 
AutoTST

$$$$
