
     RDKit          3D

 11 10  0  0  0  0  0  0  0  0999 V2000
   -1.2710    0.1907   -0.2084 C   0  0  0  0  0  0  0  0  0  0  0  0
    0.0202   -0.6130   -0.2928 C   0  0  0  0  0  0  0  0  0  0  0  0
    0.1086   -1.6953    0.7756 C   0  0  0  0  0  0  0  0  0  0  0  0
   -1.3607    0.6851    0.7620 H   0  0  0  0  0  0  0  0  0  0  0  0
   -2.1429   -0.4567   -0.3299 H   0  0  0  0  0  0  0  0  0  0  0  0
   -1.3158    0.9602   -0.9809 H   0  0  0  0  0  0  0  0  0  0  0  0
    0.8757    0.0616   -0.1992 H   0  0  0  0  0  0  0  0  0  0  0  0
    0.0997   -1.0712   -1.2825 H   0  0  0  0  0  0  0  0  0  0  0  0
   -0.7198   -2.4022    0.6850 H   0  0  0  0  0  0  0  0  0  0  0  0
    1.0395   -2.2596    0.6989 H   0  0  0  0  0  0  0  0  0  0  0  0
    0.0624   -1.2603    1.7770 H   0  0  0  0  0  0  0  0  0  0  0  0
  1  2  1  0
  1  4  1  0
  1  5  1  0
  1  6  1  0
  2  3  1  0
  2  7  1  0
  2  8  1  0
  3  9  1  0
  3 10  1  0
  3 11  1  0
M  END
>  <reaction>  (1) 
rxn_936

>  <mol_properties>  (1) 
{"1": {"label": "donator", "atom_type": "Cs"}, "6": {"label": "d_hydrogen", "atom_type": "H0"}}

>  <type>  (1) 
r1h

$$$$

     RDKit          3D

 12 11  0  0  0  0  0  0  0  0999 V2000
    2.7049    0.9350   -0.4404 S   0  0  0  0  0  1  0  0  0  0  0  0
    1.0313    1.0813   -0.4080 C   0  0  0  0  0  0  0  0  0  0  0  0
    0.1364    0.1019   -0.0473 C   0  0  0  0  0  0  0  0  0  0  0  0
    0.5360   -1.2679    0.3784 C   0  0  0  0  0  0  0  0  0  0  0  0
   -1.3304    0.3842   -0.0689 C   0  0  0  0  0  0  0  0  0  0  0  0
    0.6069    2.0398   -0.6990 H   0  0  0  0  0  0  0  0  0  0  0  0
    0.1578   -1.4699    1.3849 H   0  0  0  0  0  0  0  0  0  0  0  0
    0.0783   -2.0109   -0.2814 H   0  0  0  0  0  0  0  0  0  0  0  0
    1.6154   -1.3973    0.3689 H   0  0  0  0  0  0  0  0  0  0  0  0
   -1.8406   -0.3126   -0.7406 H   0  0  0  0  0  0  0  0  0  0  0  0
   -1.5514    1.4016   -0.3887 H   0  0  0  0  0  0  0  0  0  0  0  0
   -1.7610    0.2281    0.9247 H   0  0  0  0  0  0  0  0  0  0  0  0
  1  2  1  0
  2  3  2  3
  2  6  1  0
  3  4  1  0
  3  5  1  0
  4  7  1  0
  4  8  1  0
  4  9  1  0
  5 10  1  0
  5 11  1  0
  5 12  1  0
M  RAD  1   1   2
M  END
>  <reaction>  (2) 
rxn_936

>  <mol_properties>  (2) 
{"2": {"label": "acceptor", "atom_type": "Cs"}}

>  <type>  (2) 
r2

$$$$

     RDKit          3D

 13 12  0  0  0  0  0  0  0  0999 V2000
    2.7452   -1.1134   -0.3601 S   0  0  0  0  0  0  0  0  0  0  0  0
    1.4120   -0.4899    0.2856 C   0  0  0  0  0  0  0  0  0  0  0  0
    0.1714   -0.0257   -0.4180 C   0  0  0  0  0  0  0  0  0  0  0  0
   -0.0717    1.4493   -0.0658 C   0  0  0  0  0  0  0  0  0  0  0  0
    0.1609   -0.2576   -1.9191 C   0  0  0  0  0  0  0  0  0  0  0  0
    1.3665   -0.3550    1.3690 H   0  0  0  0  0  0  0  0  0  0  0  0
   -0.6453   -0.6023    0.0382 H   0  0  0  0  0  0  0  0  0  0  0  0
    0.7161    2.0755   -0.4895 H   0  0  0  0  0  0  0  0  0  0  0  0
   -0.0915    1.6095    1.0136 H   0  0  0  0  0  0  0  0  0  0  0  0
   -1.0268    1.7797   -0.4755 H   0  0  0  0  0  0  0  0  0  0  0  0
    0.3131   -1.3093   -2.1616 H   0  0  0  0  0  0  0  0  0  0  0  0
    0.9567    0.3095   -2.4051 H   0  0  0  0  0  0  0  0  0  0  0  0
   -0.7945    0.0619   -2.3384 H   0  0  0  0  0  0  0  0  0  0  0  0
  1  2  2  0
  2  3  1  0
  2  6  1  0
  3  4  1  0
  3  5  1  0
  3  7  1  0
  4  8  1  0
  4  9  1  0
  4 10  1  0
  5 11  1  0
  5 12  1  0
  5 13  1  0
M  END
>  <reaction>  (3) 
rxn_936

>  <mol_properties>  (3) 
{"2": {"label": "acceptor", "atom_type": "Cs"}, "12": {"label": "a_hydrogen", "atom_type": "H0"}}

>  <type>  (3) 
r2h

$$$$

     RDKit          3D

 23 21  0  0  0  0  0  0  0  0999 V2000
    2.0341    0.5602   -0.9273 S   0  0  0  0  0  0  0  0  0  0  0  0
    0.8761   -0.4889   -0.4719 C   0  0  0  0  0  0  0  0  0  0  0  0
    0.0828   -0.4699    0.7509 C   0  0  0  0  0  0  0  0  0  0  0  0
   -0.4807   -1.8245    1.1511 C   0  0  0  0  0  0  0  0  0  0  0  0
    0.6172    0.3410    1.9124 C   0  0  0  0  0  0  0  0  0  0  0  0
    0.5983   -1.2828   -1.1685 H   0  0  0  0  0  0  0  0  0  0  0  0
    0.2977   -2.4560    1.5871 H   0  0  0  0  0  0  0  0  0  0  0  0
   -1.2692   -1.7063    1.8965 H   0  0  0  0  0  0  0  0  0  0  0  0
   -0.9017   -2.3515    0.2927 H   0  0  0  0  0  0  0  0  0  0  0  0
   -0.1469    0.4423    2.6855 H   0  0  0  0  0  0  0  0  0  0  0  0
    0.9307    1.3331    1.5912 H   0  0  0  0  0  0  0  0  0  0  0  0
    1.4863   -0.1531    2.3546 H   0  0  0  0  0  0  0  0  0  0  0  0
   -2.3200    0.4649   -1.4037 C   0  0  0  0  0  0  0  0  0  0  0  0
   -2.1176    0.9842   -0.0165 C   0  0  0  0  0  3  0  0  0  0  0  0
   -1.6036    2.3794    0.1429 C   0  0  0  0  0  0  0  0  0  0  0  0
   -1.4094    0.5808   -1.9986 H   0  0  0  0  0  0  0  0  0  0  0  0
   -3.1125    1.0205   -1.9191 H   0  0  0  0  0  0  0  0  0  0  0  0
   -2.6017   -0.5891   -1.4052 H   0  0  0  0  0  0  0  0  0  0  0  0
   -0.9110    0.1556    0.3874 H   0  0  0  0  0  0  0  0  0  0  0  0
   -2.8435    0.6557    0.7239 H   0  0  0  0  0  0  0  0  0  0  0  0
   -2.3279    3.1078   -0.2431 H   0  0  0  0  0  0  0  0  0  0  0  0
   -1.4135    2.6242    1.1880 H   0  0  0  0  0  0  0  0  0  0  0  0
   -0.6749    2.5185   -0.4166 H   0  0  0  0  0  0  0  0  0  0  0  0
  1  2  2  0
  2  3  1  0
  2  6  1  0
  3  4  1  0
  3  5  1  0
  3 19  1  0
  4  7  1  0
  4  8  1  0
  4  9  1  0
  5 10  1  0
  5 11  1  0
  5 12  1  0
 13 14  1  0
 13 16  1  0
 13 17  1  0
 13 18  1  0
 14 15  1  0
 14 20  1  0
 15 21  1  0
 15 22  1  0
 15 23  1  0
M  RAD  1  14   2
M  END
>  <reaction>  (4) 
rxn_936

>  <mol_properties>  (4) 
{"1": {"label": "*0", "atom_type": "CS"}, "2": {"label": "*1", "atom_type": "Cs"}, "12": {"label": "*4", "atom_type": "Cs"}, "13": {"label": "*3", "atom_type": "Cs"}, "18": {"label": "*2", "atom_type": "H0"}}

>  <type>  (4) 
ts

$$$$

     RDKit          3D

 23 21  0  0  0  0  0  0  0  0999 V2000
    1.0840    0.5364    2.0947 S   0  0  0  0  0  1  0  0  0  0  0  0
    1.2704    0.1640    0.5424 C   0  0  0  0  0  0  0  0  0  0  0  0
    0.5010   -0.8351   -0.2695 C   0  0  0  0  0  0  0  0  0  0  0  0
    1.4861   -1.8585   -0.8535 C   0  0  0  0  0  0  0  0  0  0  0  0
   -0.6464   -1.5092    0.4630 C   0  0  0  0  0  0  0  0  0  0  0  0
    2.0552    0.6668   -0.0280 H   0  0  0  0  0  0  0  0  0  0  0  0
    1.9277   -2.4584   -0.0552 H   0  0  0  0  0  0  0  0  0  0  0  0
    0.9665   -2.5308   -1.5371 H   0  0  0  0  0  0  0  0  0  0  0  0
    2.2948   -1.3736   -1.4031 H   0  0  0  0  0  0  0  0  0  0  0  0
   -1.1789   -2.1783   -0.2149 H   0  0  0  0  0  0  0  0  0  0  0  0
   -1.3527   -0.7785    0.8568 H   0  0  0  0  0  0  0  0  0  0  0  0
   -0.2773   -2.0961    1.3059 H   0  0  0  0  0  0  0  0  0  0  0  0
   -1.6031    0.4794   -2.6686 C   0  0  0  0  0  0  0  0  0  0  0  0
   -1.6031    0.4794   -1.1453 C   0  0  0  0  0  0  0  0  0  0  0  0
   -1.6031    1.8852   -0.5586 C   0  0  0  0  0  0  0  0  0  0  0  0
   -0.7217    0.9936   -3.0593 H   0  0  0  0  0  0  0  0  0  0  0  0
   -2.4846    0.9936   -3.0593 H   0  0  0  0  0  0  0  0  0  0  0  0
   -1.6031   -0.5355   -3.0698 H   0  0  0  0  0  0  0  0  0  0  0  0
   -0.5537   -0.1763   -0.7085 H   0  0  0  0  0  0  0  0  0  0  0  0
   -2.4776   -0.0670   -0.7813 H   0  0  0  0  0  0  0  0  0  0  0  0
   -2.4846    2.4437   -0.8827 H   0  0  0  0  0  0  0  0  0  0  0  0
   -1.6031    1.8645    0.5325 H   0  0  0  0  0  0  0  0  0  0  0  0
   -0.7217    2.4437   -0.8827 H   0  0  0  0  0  0  0  0  0  0  0  0
  1  2  1  0
  2  3  2  3
  2  6  1  0
  3  4  1  0
  3  5  1  0
  4  7  1  0
  4  8  1  0
  4  9  1  0
  5 10  1  0
  5 11  1  0
  5 12  1  0
 13 14  1  0
 13 16  1  0
 13 17  1  0
 13 18  1  0
 14 15  1  0
 14 19  1  0
 14 20  1  0
 15 21  1  0
 15 22  1  0
 15 23  1  0
M  RAD  1   1   2
M  END
>  <reaction>  (5) 
rxn_936

>  <mol_properties>  (5) 
{"1": {"label": "*0", "atom_type": "CS"}, "2": {"label": "*1", "atom_type": "Cs"}, "12": {"label": "*4", "atom_type": "Cs"}, "13": {"label": "*3", "atom_type": "Cs"}, "18": {"label": "*2", "atom_type": "H0"}}

>  <type>  (5) 
unop_1

>  <geom_source>  (5) 
Heuristics

$$$$

     RDKit          3D

 23 21  0  0  0  0  0  0  0  0999 V2000
    2.3604    0.3288   -0.4372 S   0  0  0  0  0  1  0  0  0  0  0  0
    1.0678   -0.6249   -0.4899 C   0  0  0  0  0  0  0  0  0  0  0  0
    0.0205   -0.8250    0.5648 C   0  0  0  0  0  0  0  0  0  0  0  0
   -0.0326   -2.3160    0.9294 C   0  0  0  0  0  0  0  0  0  0  0  0
    0.1737    0.0527    1.7951 C   0  0  0  0  0  0  0  0  0  0  0  0
    0.9001   -1.2337   -1.3817 H   0  0  0  0  0  0  0  0  0  0  0  0
    0.8932   -2.6192    1.4227 H   0  0  0  0  0  0  0  0  0  0  0  0
   -0.8607   -2.5051    1.6134 H   0  0  0  0  0  0  0  0  0  0  0  0
   -0.1706   -2.9436    0.0473 H   0  0  0  0  0  0  0  0  0  0  0  0
   -0.6551   -0.1225    2.4829 H   0  0  0  0  0  0  0  0  0  0  0  0
    0.1896    1.1101    1.5315 H   0  0  0  0  0  0  0  0  0  0  0  0
    1.1063   -0.1694    2.3167 H   0  0  0  0  0  0  0  0  0  0  0  0
   -2.0836    0.4895   -1.8343 C   0  0  0  0  0  0  0  0  0  0  0  0
   -2.0836    0.4895   -0.3109 C   0  0  0  0  0  0  0  0  0  0  0  0
   -2.0836    1.8953    0.2758 C   0  0  0  0  0  0  0  0  0  0  0  0
   -1.2021    1.0038   -2.2249 H   0  0  0  0  0  0  0  0  0  0  0  0
   -2.9651    1.0038   -2.2249 H   0  0  0  0  0  0  0  0  0  0  0  0
   -2.0836   -0.5254   -2.2354 H   0  0  0  0  0  0  0  0  0  0  0  0
   -1.0342   -0.1661    0.1259 H   0  0  0  0  0  0  0  0  0  0  0  0
   -2.9581   -0.0569    0.0531 H   0  0  0  0  0  0  0  0  0  0  0  0
   -2.9651    2.4539   -0.0484 H   0  0  0  0  0  0  0  0  0  0  0  0
   -2.0836    1.8746    1.3669 H   0  0  0  0  0  0  0  0  0  0  0  0
   -1.2021    2.4539   -0.0483 H   0  0  0  0  0  0  0  0  0  0  0  0
  1  2  1  0
  2  3  2  3
  2  6  1  0
  3  4  1  0
  3  5  1  0
  4  7  1  0
  4  8  1  0
  4  9  1  0
  5 10  1  0
  5 11  1  0
  5 12  1  0
 13 14  1  0
 13 16  1  0
 13 17  1  0
 13 18  1  0
 14 15  1  0
 14 19  1  0
 14 20  1  0
 15 21  1  0
 15 22  1  0
 15 23  1  0
M  RAD  1   1   2
M  END
>  <reaction>  (6) 
rxn_936

>  <mol_properties>  (6) 
{"1": {"label": "*0", "atom_type": "CS"}, "2": {"label": "*1", "atom_type": "Cs"}, "12": {"label": "*4", "atom_type": "Cs"}, "13": {"label": "*3", "atom_type": "Cs"}, "18": {"label": "*2", "atom_type": "H0"}}

>  <type>  (6) 
unop_2

>  <geom_source>  (6) 
Heuristics

$$$$

     RDKit          3D

 23 21  0  0  0  0  0  0  0  0999 V2000
    0.5800   -0.3783    2.4607 S   0  0  0  0  0  1  0  0  0  0  0  0
    0.9688    0.1181    0.9823 C   0  0  0  0  0  0  0  0  0  0  0  0
    0.6301   -0.5246   -0.3298 C   0  0  0  0  0  0  0  0  0  0  0  0
    1.9348   -0.8243   -1.0826 C   0  0  0  0  0  0  0  0  0  0  0  0
   -0.2606   -1.7512   -0.2319 C   0  0  0  0  0  0  0  0  0  0  0  0
    1.5677    1.0255    0.8734 H   0  0  0  0  0  0  0  0  0  0  0  0
    2.5077   -1.5919   -0.5583 H   0  0  0  0  0  0  0  0  0  0  0  0
    1.7129   -1.1905   -2.0856 H   0  0  0  0  0  0  0  0  0  0  0  0
    2.5611    0.0645   -1.1763 H   0  0  0  0  0  0  0  0  0  0  0  0
   -0.4960   -2.1210   -1.2312 H   0  0  0  0  0  0  0  0  0  0  0  0
   -1.1936   -1.5267    0.2849 H   0  0  0  0  0  0  0  0  0  0  0  0
    0.2372   -2.5492    0.3217 H   0  0  0  0  0  0  0  0  0  0  0  0
   -1.4740    0.7899   -2.7289 C   0  0  0  0  0  0  0  0  0  0  0  0
   -1.4740    0.7899   -1.2056 C   0  0  0  0  0  0  0  0  0  0  0  0
   -1.4740    2.1957   -0.6188 C   0  0  0  0  0  0  0  0  0  0  0  0
   -0.5925    1.3041   -3.1195 H   0  0  0  0  0  0  0  0  0  0  0  0
   -2.3555    1.3041   -3.1195 H   0  0  0  0  0  0  0  0  0  0  0  0
   -1.4740   -0.2250   -3.1301 H   0  0  0  0  0  0  0  0  0  0  0  0
   -0.4246    0.1342   -0.7688 H   0  0  0  0  0  0  0  0  0  0  0  0
   -2.3485    0.2435   -0.8416 H   0  0  0  0  0  0  0  0  0  0  0  0
   -2.3555    2.7542   -0.9430 H   0  0  0  0  0  0  0  0  0  0  0  0
   -1.4740    2.1750    0.4723 H   0  0  0  0  0  0  0  0  0  0  0  0
   -0.5925    2.7542   -0.9430 H   0  0  0  0  0  0  0  0  0  0  0  0
  1  2  1  0
  2  3  2  3
  2  6  1  0
  3  4  1  0
  3  5  1  0
  4  7  1  0
  4  8  1  0
  4  9  1  0
  5 10  1  0
  5 11  1  0
  5 12  1  0
 13 14  1  0
 13 16  1  0
 13 17  1  0
 13 18  1  0
 14 15  1  0
 14 19  1  0
 14 20  1  0
 15 21  1  0
 15 22  1  0
 15 23  1  0
M  RAD  1   1   2
M  END
>  <reaction>  (7) 
rxn_936

>  <mol_properties>  (7) 
{"1": {"label": "*0", "atom_type": "CS"}, "2": {"label": "*1", "atom_type": "Cs"}, "12": {"label": "*4", "atom_type": "Cs"}, "13": {"label": "*3", "atom_type": "Cs"}, "18": {"label": "*2", "atom_type": "H0"}}

>  <type>  (7) 
unop_3

>  <geom_source>  (7) 
Heuristics

$$$$

     RDKit          3D

 23 21  0  0  0  0  0  0  0  0999 V2000
    1.4136   -2.3976   -0.3624 S   0  0  0  0  0  1  0  0  0  0  0  0
    0.2633   -1.3131   -0.0726 C   0  0  0  0  0  0  0  0  0  0  0  0
    0.4147    0.0722    0.4820 C   0  0  0  0  0  0  0  0  0  0  0  0
   -0.4344    0.1877    1.7566 C   0  0  0  0  0  0  0  0  0  0  0  0
    1.8484    0.5162    0.7157 C   0  0  0  0  0  0  0  0  0  0  0  0
   -0.7759   -1.5823   -0.2764 H   0  0  0  0  0  0  0  0  0  0  0  0
   -0.0280   -0.4519    2.5426 H   0  0  0  0  0  0  0  0  0  0  0  0
   -0.4294    1.2166    2.1180 H   0  0  0  0  0  0  0  0  0  0  0  0
   -1.4709   -0.1052    1.5801 H   0  0  0  0  0  0  0  0  0  0  0  0
    1.8655    1.5482    1.0697 H   0  0  0  0  0  0  0  0  0  0  0  0
    2.4401    0.4516   -0.1973 H   0  0  0  0  0  0  0  0  0  0  0  0
    2.3322   -0.1125    1.4652 H   0  0  0  0  0  0  0  0  0  0  0  0
   -1.6894    1.3867   -1.9171 C   0  0  0  0  0  0  0  0  0  0  0  0
   -1.6894    1.3867   -0.3938 C   0  0  0  0  0  0  0  0  0  0  0  0
   -1.6894    2.7925    0.1929 C   0  0  0  0  0  0  0  0  0  0  0  0
   -0.8080    1.9009   -2.3077 H   0  0  0  0  0  0  0  0  0  0  0  0
   -2.5709    1.9009   -2.3077 H   0  0  0  0  0  0  0  0  0  0  0  0
   -1.6894    0.3718   -2.3183 H   0  0  0  0  0  0  0  0  0  0  0  0
   -0.6400    0.7310    0.0430 H   0  0  0  0  0  0  0  0  0  0  0  0
   -2.5640    0.8403   -0.0298 H   0  0  0  0  0  0  0  0  0  0  0  0
   -2.5709    3.3510   -0.1312 H   0  0  0  0  0  0  0  0  0  0  0  0
   -1.6894    2.7718    1.2840 H   0  0  0  0  0  0  0  0  0  0  0  0
   -0.8080    3.3510   -0.1312 H   0  0  0  0  0  0  0  0  0  0  0  0
  1  2  1  0
  2  3  2  3
  2  6  1  0
  3  4  1  0
  3  5  1  0
  4  7  1  0
  4  8  1  0
  4  9  1  0
  5 10  1  0
  5 11  1  0
  5 12  1  0
 13 14  1  0
 13 16  1  0
 13 17  1  0
 13 18  1  0
 14 15  1  0
 14 19  1  0
 14 20  1  0
 15 21  1  0
 15 22  1  0
 15 23  1  0
M  RAD  1   1   2
M  END
>  <reaction>  (8) 
rxn_936

>  <mol_properties>  (8) 
{"1": {"label": "*0", "atom_type": "CS"}, "2": {"label": "*1", "atom_type": "Cs"}, "12": {"label": "*4", "atom_type": "Cs"}, "13": {"label": "*3", "atom_type": "Cs"}, "18": {"label": "*2", "atom_type": "H0"}}

>  <type>  (8) 
unop_4

>  <geom_source>  (8) 
Heuristics

$$$$

     RDKit          3D

 23 21  0  0  0  0  0  0  0  0999 V2000
    0.4684   -1.4186    2.2945 S   0  0  0  0  0  1  0  0  0  0  0  0
    0.5009   -0.1977    1.2498 C   0  0  0  0  0  0  0  0  0  0  0  0
    0.6009   -0.2602   -0.2454 C   0  0  0  0  0  0  0  0  0  0  0  0
    1.8396    0.5319   -0.6895 C   0  0  0  0  0  0  0  0  0  0  0  0
    0.5863   -1.6617   -0.8309 C   0  0  0  0  0  0  0  0  0  0  0  0
    0.4630    0.8243    1.6347 H   0  0  0  0  0  0  0  0  0  0  0  0
    2.7501    0.0354   -0.3480 H   0  0  0  0  0  0  0  0  0  0  0  0
    1.8736    0.5948   -1.7777 H   0  0  0  0  0  0  0  0  0  0  0  0
    1.8347    1.5478   -0.2906 H   0  0  0  0  0  0  0  0  0  0  0  0
    0.6114   -1.6101   -1.9206 H   0  0  0  0  0  0  0  0  0  0  0  0
   -0.3053   -2.2111   -0.5290 H   0  0  0  0  0  0  0  0  0  0  0  0
    1.4532   -2.2324   -0.4936 H   0  0  0  0  0  0  0  0  0  0  0  0
   -1.5031    1.0543   -2.6445 C   0  0  0  0  0  0  0  0  0  0  0  0
   -1.5031    1.0543   -1.1212 C   0  0  0  0  0  0  0  0  0  0  0  0
   -1.5031    2.4601   -0.5345 C   0  0  0  0  0  0  0  0  0  0  0  0
   -0.6217    1.5686   -3.0351 H   0  0  0  0  0  0  0  0  0  0  0  0
   -2.3846    1.5686   -3.0351 H   0  0  0  0  0  0  0  0  0  0  0  0
   -1.5031    0.0394   -3.0457 H   0  0  0  0  0  0  0  0  0  0  0  0
   -0.4537    0.3987   -0.6844 H   0  0  0  0  0  0  0  0  0  0  0  0
   -2.3777    0.5080   -0.7572 H   0  0  0  0  0  0  0  0  0  0  0  0
   -2.3846    3.0187   -0.8586 H   0  0  0  0  0  0  0  0  0  0  0  0
   -1.5031    2.4394    0.5566 H   0  0  0  0  0  0  0  0  0  0  0  0
   -0.6217    3.0187   -0.8586 H   0  0  0  0  0  0  0  0  0  0  0  0
  1  2  1  0
  2  3  2  3
  2  6  1  0
  3  4  1  0
  3  5  1  0
  4  7  1  0
  4  8  1  0
  4  9  1  0
  5 10  1  0
  5 11  1  0
  5 12  1  0
 13 14  1  0
 13 16  1  0
 13 17  1  0
 13 18  1  0
 14 15  1  0
 14 19  1  0
 14 20  1  0
 15 21  1  0
 15 22  1  0
 15 23  1  0
M  RAD  1   1   2
M  END
>  <reaction>  (9) 
rxn_936

>  <mol_properties>  (9) 
{"1": {"label": "*0", "atom_type": "CS"}, "2": {"label": "*1", "atom_type": "Cs"}, "12": {"label": "*4", "atom_type": "Cs"}, "13": {"label": "*3", "atom_type": "Cs"}, "18": {"label": "*2", "atom_type": "H0"}}

>  <type>  (9) 
unop_5

>  <geom_source>  (9) 
Heuristics

$$$$

     RDKit          3D

 23 21  0  0  0  0  0  0  0  0999 V2000
    0.9804   -2.6591    0.4339 S   0  0  0  0  0  1  0  0  0  0  0  0
    0.0808   -1.3308    0.3363 C   0  0  0  0  0  0  0  0  0  0  0  0
    0.5396    0.0913    0.2077 C   0  0  0  0  0  0  0  0  0  0  0  0
   -0.0289    0.9003    1.3829 C   0  0  0  0  0  0  0  0  0  0  0  0
    2.0419    0.2707    0.0722 C   0  0  0  0  0  0  0  0  0  0  0  0
   -1.0066   -1.4283    0.3807 H   0  0  0  0  0  0  0  0  0  0  0  0
    0.4166    0.5684    2.3229 H   0  0  0  0  0  0  0  0  0  0  0  0
    0.1982    1.9591    1.2535 H   0  0  0  0  0  0  0  0  0  0  0  0
   -1.1121    0.7924    1.4619 H   0  0  0  0  0  0  0  0  0  0  0  0
    2.2797    1.3266   -0.0665 H   0  0  0  0  0  0  0  0  0  0  0  0
    2.4357   -0.2891   -0.7760 H   0  0  0  0  0  0  0  0  0  0  0  0
    2.5573   -0.0833    0.9667 H   0  0  0  0  0  0  0  0  0  0  0  0
   -1.5645    1.4058   -2.1914 C   0  0  0  0  0  0  0  0  0  0  0  0
   -1.5645    1.4058   -0.6681 C   0  0  0  0  0  0  0  0  0  0  0  0
   -1.5645    2.8116   -0.0814 C   0  0  0  0  0  0  0  0  0  0  0  0
   -0.6830    1.9201   -2.5821 H   0  0  0  0  0  0  0  0  0  0  0  0
   -2.4459    1.9201   -2.5821 H   0  0  0  0  0  0  0  0  0  0  0  0
   -1.5645    0.3909   -2.5926 H   0  0  0  0  0  0  0  0  0  0  0  0
   -0.5151    0.7502   -0.2313 H   0  0  0  0  0  0  0  0  0  0  0  0
   -2.4390    0.8595   -0.3041 H   0  0  0  0  0  0  0  0  0  0  0  0
   -2.4459    3.3702   -0.4055 H   0  0  0  0  0  0  0  0  0  0  0  0
   -1.5645    2.7910    1.0097 H   0  0  0  0  0  0  0  0  0  0  0  0
   -0.6830    3.3702   -0.4055 H   0  0  0  0  0  0  0  0  0  0  0  0
  1  2  1  0
  2  3  2  3
  2  6  1  0
  3  4  1  0
  3  5  1  0
  4  7  1  0
  4  8  1  0
  4  9  1  0
  5 10  1  0
  5 11  1  0
  5 12  1  0
 13 14  1  0
 13 16  1  0
 13 17  1  0
 13 18  1  0
 14 15  1  0
 14 19  1  0
 14 20  1  0
 15 21  1  0
 15 22  1  0
 15 23  1  0
M  RAD  1   1   2
M  END
>  <reaction>  (10) 
rxn_936

>  <mol_properties>  (10) 
{"1": {"label": "*0", "atom_type": "CS"}, "2": {"label": "*1", "atom_type": "Cs"}, "12": {"label": "*4", "atom_type": "Cs"}, "13": {"label": "*3", "atom_type": "Cs"}, "18": {"label": "*2", "atom_type": "H0"}}

>  <type>  (10) 
unop_6

>  <geom_source>  (10) 
Heuristics

$$$$

     RDKit          3D

 23 21  0  0  0  0  0  0  0  0999 V2000
    0.7370   -2.5063    1.2263 S   0  0  0  0  0  1  0  0  0  0  0  0
    0.0102   -1.1404    0.7913 C   0  0  0  0  0  0  0  0  0  0  0  0
    0.5706   -0.0107   -0.0207 C   0  0  0  0  0  0  0  0  0  0  0  0
    0.4801    1.2812    0.8049 C   0  0  0  0  0  0  0  0  0  0  0  0
    1.9726   -0.2412   -0.5580 C   0  0  0  0  0  0  0  0  0  0  0  0
   -1.0170   -0.9642    1.1195 H   0  0  0  0  0  0  0  0  0  0  0  0
    1.1464    1.2273    1.6683 H   0  0  0  0  0  0  0  0  0  0  0  0
    0.7789    2.1359    0.1970 H   0  0  0  0  0  0  0  0  0  0  0  0
   -0.5339    1.4598    1.1670 H   0  0  0  0  0  0  0  0  0  0  0  0
    2.2784    0.6051   -1.1753 H   0  0  0  0  0  0  0  0  0  0  0  0
    2.0252   -1.1482   -1.1601 H   0  0  0  0  0  0  0  0  0  0  0  0
    2.6887   -0.3476    0.2587 H   0  0  0  0  0  0  0  0  0  0  0  0
   -1.5334    1.3038   -2.4198 C   0  0  0  0  0  0  0  0  0  0  0  0
   -1.5334    1.3038   -0.8964 C   0  0  0  0  0  0  0  0  0  0  0  0
   -1.5334    2.7096   -0.3097 C   0  0  0  0  0  0  0  0  0  0  0  0
   -0.6520    1.8180   -2.8104 H   0  0  0  0  0  0  0  0  0  0  0  0
   -2.4149    1.8180   -2.8104 H   0  0  0  0  0  0  0  0  0  0  0  0
   -1.5334    0.2889   -2.8209 H   0  0  0  0  0  0  0  0  0  0  0  0
   -0.4840    0.6481   -0.4596 H   0  0  0  0  0  0  0  0  0  0  0  0
   -2.4080    0.7574   -0.5324 H   0  0  0  0  0  0  0  0  0  0  0  0
   -2.4149    3.2681   -0.6338 H   0  0  0  0  0  0  0  0  0  0  0  0
   -1.5334    2.6889    0.7814 H   0  0  0  0  0  0  0  0  0  0  0  0
   -0.6520    3.2681   -0.6338 H   0  0  0  0  0  0  0  0  0  0  0  0
  1  2  1  0
  2  3  2  3
  2  6  1  0
  3  4  1  0
  3  5  1  0
  4  7  1  0
  4  8  1  0
  4  9  1  0
  5 10  1  0
  5 11  1  0
  5 12  1  0
 13 14  1  0
 13 16  1  0
 13 17  1  0
 13 18  1  0
 14 15  1  0
 14 19  1  0
 14 20  1  0
 15 21  1  0
 15 22  1  0
 15 23  1  0
M  RAD  1   1   2
M  END
>  <reaction>  (11) 
rxn_936

>  <mol_properties>  (11) 
{"1": {"label": "*0", "atom_type": "CS"}, "2": {"label": "*1", "atom_type": "Cs"}, "12": {"label": "*4", "atom_type": "Cs"}, "13": {"label": "*3", "atom_type": "Cs"}, "18": {"label": "*2", "atom_type": "H0"}}

>  <type>  (11) 
unop_7

>  <geom_source>  (11) 
Heuristics

$$$$

     RDKit          3D

 23 21  0  0  0  0  0  0  0  0999 V2000
    1.6687    0.9887    1.3228 S   0  0  0  0  0  1  0  0  0  0  0  0
    1.3749    0.0109    0.0815 C   0  0  0  0  0  0  0  0  0  0  0  0
    0.2980   -1.0251   -0.0471 C   0  0  0  0  0  0  0  0  0  0  0  0
    0.9547   -2.3874   -0.3147 C   0  0  0  0  0  0  0  0  0  0  0  0
   -0.6756   -1.0858    1.1173 C   0  0  0  0  0  0  0  0  0  0  0  0
    2.0267    0.0629   -0.7939 H   0  0  0  0  0  0  0  0  0  0  0  0
    1.5239   -2.7124    0.5586 H   0  0  0  0  0  0  0  0  0  0  0  0
    0.1906   -3.1374   -0.5217 H   0  0  0  0  0  0  0  0  0  0  0  0
    1.6329   -2.3488   -1.1690 H   0  0  0  0  0  0  0  0  0  0  0  0
   -1.4501   -1.8279    0.9166 H   0  0  0  0  0  0  0  0  0  0  0  0
   -1.1536   -0.1214    1.2886 H   0  0  0  0  0  0  0  0  0  0  0  0
   -0.1618   -1.3655    2.0387 H   0  0  0  0  0  0  0  0  0  0  0  0
   -1.8061    0.2894   -2.4462 C   0  0  0  0  0  0  0  0  0  0  0  0
   -1.8061    0.2894   -0.9229 C   0  0  0  0  0  0  0  0  0  0  0  0
   -1.8061    1.6952   -0.3362 C   0  0  0  0  0  0  0  0  0  0  0  0
   -0.9246    0.8037   -2.8368 H   0  0  0  0  0  0  0  0  0  0  0  0
   -2.6875    0.8037   -2.8368 H   0  0  0  0  0  0  0  0  0  0  0  0
   -1.8061   -0.7255   -2.8474 H   0  0  0  0  0  0  0  0  0  0  0  0
   -0.7566   -0.3662   -0.4861 H   0  0  0  0  0  0  0  0  0  0  0  0
   -2.6806   -0.2569   -0.5589 H   0  0  0  0  0  0  0  0  0  0  0  0
   -2.6875    2.2538   -0.6603 H   0  0  0  0  0  0  0  0  0  0  0  0
   -1.8061    1.6745    0.7549 H   0  0  0  0  0  0  0  0  0  0  0  0
   -0.9246    2.2538   -0.6603 H   0  0  0  0  0  0  0  0  0  0  0  0
  1  2  1  0
  2  3  2  3
  2  6  1  0
  3  4  1  0
  3  5  1  0
  4  7  1  0
  4  8  1  0
  4  9  1  0
  5 10  1  0
  5 11  1  0
  5 12  1  0
 13 14  1  0
 13 16  1  0
 13 17  1  0
 13 18  1  0
 14 15  1  0
 14 19  1  0
 14 20  1  0
 15 21  1  0
 15 22  1  0
 15 23  1  0
M  RAD  1   1   2
M  END
>  <reaction>  (12) 
rxn_936

>  <mol_properties>  (12) 
{"1": {"label": "*0", "atom_type": "CS"}, "2": {"label": "*1", "atom_type": "Cs"}, "12": {"label": "*4", "atom_type": "Cs"}, "13": {"label": "*3", "atom_type": "Cs"}, "18": {"label": "*2", "atom_type": "H0"}}

>  <type>  (12) 
unop_8

>  <geom_source>  (12) 
Heuristics

$$$$

     RDKit          3D

 23 21  0  0  0  0  0  0  0  0999 V2000
    1.9293   -1.6675   -0.8933 S   0  0  0  0  0  1  0  0  0  0  0  0
    0.5025   -1.1554   -0.3592 C   0  0  0  0  0  0  0  0  0  0  0  0
    0.2230   -0.1264    0.6955 C   0  0  0  0  0  0  0  0  0  0  0  0
   -0.6264   -0.7720    1.8004 C   0  0  0  0  0  0  0  0  0  0  0  0
    1.4528    0.5646    1.2590 C   0  0  0  0  0  0  0  0  0  0  0  0
   -0.4048   -1.5965   -0.7791 H   0  0  0  0  0  0  0  0  0  0  0  0
   -0.0479   -1.5332    2.3278 H   0  0  0  0  0  0  0  0  0  0  0  0
   -0.9359   -0.0173    2.5241 H   0  0  0  0  0  0  0  0  0  0  0  0
   -1.5239   -1.2441    1.3969 H   0  0  0  0  0  0  0  0  0  0  0  0
    1.1537    1.3284    1.9785 H   0  0  0  0  0  0  0  0  0  0  0  0
    2.0399    1.0383    0.4724 H   0  0  0  0  0  0  0  0  0  0  0  0
    2.1017   -0.1510    1.7668 H   0  0  0  0  0  0  0  0  0  0  0  0
   -1.8811    1.1880   -1.7036 C   0  0  0  0  0  0  0  0  0  0  0  0
   -1.8811    1.1880   -0.1802 C   0  0  0  0  0  0  0  0  0  0  0  0
   -1.8811    2.5939    0.4065 C   0  0  0  0  0  0  0  0  0  0  0  0
   -0.9996    1.7023   -2.0942 H   0  0  0  0  0  0  0  0  0  0  0  0
   -2.7625    1.7023   -2.0942 H   0  0  0  0  0  0  0  0  0  0  0  0
   -1.8811    0.1731   -2.1047 H   0  0  0  0  0  0  0  0  0  0  0  0
   -0.8316    0.5324    0.2566 H   0  0  0  0  0  0  0  0  0  0  0  0
   -2.7556    0.6417    0.1838 H   0  0  0  0  0  0  0  0  0  0  0  0
   -2.7625    3.1524    0.0824 H   0  0  0  0  0  0  0  0  0  0  0  0
   -1.8811    2.5732    1.4976 H   0  0  0  0  0  0  0  0  0  0  0  0
   -0.9996    3.1524    0.0824 H   0  0  0  0  0  0  0  0  0  0  0  0
  1  2  1  0
  2  3  2  3
  2  6  1  0
  3  4  1  0
  3  5  1  0
  4  7  1  0
  4  8  1  0
  4  9  1  0
  5 10  1  0
  5 11  1  0
  5 12  1  0
 13 14  1  0
 13 16  1  0
 13 17  1  0
 13 18  1  0
 14 15  1  0
 14 19  1  0
 14 20  1  0
 15 21  1  0
 15 22  1  0
 15 23  1  0
M  RAD  1   1   2
M  END
>  <reaction>  (13) 
rxn_936

>  <mol_properties>  (13) 
{"1": {"label": "*0", "atom_type": "CS"}, "2": {"label": "*1", "atom_type": "Cs"}, "12": {"label": "*4", "atom_type": "Cs"}, "13": {"label": "*3", "atom_type": "Cs"}, "18": {"label": "*2", "atom_type": "H0"}}

>  <type>  (13) 
unop_9

>  <geom_source>  (13) 
Heuristics

$$$$

     RDKit          3D

 23 21  0  0  0  0  0  0  0  0999 V2000
    2.1269    0.9103    0.3939 S   0  0  0  0  0  1  0  0  0  0  0  0
    1.2948   -0.2829   -0.2894 C   0  0  0  0  0  0  0  0  0  0  0  0
    0.1162   -1.0264    0.2652 C   0  0  0  0  0  0  0  0  0  0  0  0
    0.4561   -2.5234    0.3123 C   0  0  0  0  0  0  0  0  0  0  0  0
   -0.3893   -0.5191    1.6049 C   0  0  0  0  0  0  0  0  0  0  0  0
    1.6012   -0.6395   -1.2757 H   0  0  0  0  0  0  0  0  0  0  0  0
    1.2469   -2.7103    1.0417 H   0  0  0  0  0  0  0  0  0  0  0  0
   -0.4225   -3.0979    0.6078 H   0  0  0  0  0  0  0  0  0  0  0  0
    0.7927   -2.8926   -0.6581 H   0  0  0  0  0  0  0  0  0  0  0  0
   -1.2743   -1.0820    1.9061 H   0  0  0  0  0  0  0  0  0  0  0  0
   -0.6485    0.5385    1.5591 H   0  0  0  0  0  0  0  0  0  0  0  0
    0.3727   -0.6371    2.3772 H   0  0  0  0  0  0  0  0  0  0  0  0
   -1.9879    0.2881   -2.1339 C   0  0  0  0  0  0  0  0  0  0  0  0
   -1.9879    0.2881   -0.6105 C   0  0  0  0  0  0  0  0  0  0  0  0
   -1.9879    1.6939   -0.0238 C   0  0  0  0  0  0  0  0  0  0  0  0
   -1.1064    0.8023   -2.5245 H   0  0  0  0  0  0  0  0  0  0  0  0
   -2.8694    0.8023   -2.5245 H   0  0  0  0  0  0  0  0  0  0  0  0
   -1.9879   -0.7268   -2.5350 H   0  0  0  0  0  0  0  0  0  0  0  0
   -0.9385   -0.3675   -0.1737 H   0  0  0  0  0  0  0  0  0  0  0  0
   -2.8624   -0.2583   -0.2465 H   0  0  0  0  0  0  0  0  0  0  0  0
   -2.8694    2.2525   -0.3480 H   0  0  0  0  0  0  0  0  0  0  0  0
   -1.9879    1.6732    1.0673 H   0  0  0  0  0  0  0  0  0  0  0  0
   -1.1064    2.2525   -0.3480 H   0  0  0  0  0  0  0  0  0  0  0  0
  1  2  1  0
  2  3  2  3
  2  6  1  0
  3  4  1  0
  3  5  1  0
  4  7  1  0
  4  8  1  0
  4  9  1  0
  5 10  1  0
  5 11  1  0
  5 12  1  0
 13 14  1  0
 13 16  1  0
 13 17  1  0
 13 18  1  0
 14 15  1  0
 14 19  1  0
 14 20  1  0
 15 21  1  0
 15 22  1  0
 15 23  1  0
M  RAD  1   1   2
M  END
>  <reaction>  (14) 
rxn_936

>  <mol_properties>  (14) 
{"1": {"label": "*0", "atom_type": "CS"}, "2": {"label": "*1", "atom_type": "Cs"}, "12": {"label": "*4", "atom_type": "Cs"}, "13": {"label": "*3", "atom_type": "Cs"}, "18": {"label": "*2", "atom_type": "H0"}}

>  <type>  (14) 
unop_10

>  <geom_source>  (14) 
Heuristics

$$$$

     RDKit          3D

 23 21  0  0  0  0  0  0  0  0999 V2000
    0.6155   -2.0932    1.8421 S   0  0  0  0  0  1  0  0  0  0  0  0
    0.1262   -0.7228    1.1596 C   0  0  0  0  0  0  0  0  0  0  0  0
    0.5553   -0.1366   -0.1525 C   0  0  0  0  0  0  0  0  0  0  0  0
    1.1273    1.2665    0.0987 C   0  0  0  0  0  0  0  0  0  0  0  0
    1.5098   -1.0001   -0.9591 C   0  0  0  0  0  0  0  0  0  0  0  0
   -0.5984   -0.1009    1.6907 H   0  0  0  0  0  0  0  0  0  0  0  0
    2.0560    1.2011    0.6693 H   0  0  0  0  0  0  0  0  0  0  0  0
    1.3446    1.7578   -0.8504 H   0  0  0  0  0  0  0  0  0  0  0  0
    0.4289    1.8947    0.6543 H   0  0  0  0  0  0  0  0  0  0  0  0
    1.7273   -0.5214   -1.9152 H   0  0  0  0  0  0  0  0  0  0  0  0
    1.0893   -1.9870   -1.1517 H   0  0  0  0  0  0  0  0  0  0  0  0
    2.4503   -1.1430   -0.4242 H   0  0  0  0  0  0  0  0  0  0  0  0
   -1.5488    1.1779   -2.5516 C   0  0  0  0  0  0  0  0  0  0  0  0
   -1.5488    1.1779   -1.0283 C   0  0  0  0  0  0  0  0  0  0  0  0
   -1.5488    2.5837   -0.4416 C   0  0  0  0  0  0  0  0  0  0  0  0
   -0.6673    1.6922   -2.9422 H   0  0  0  0  0  0  0  0  0  0  0  0
   -2.4302    1.6922   -2.9422 H   0  0  0  0  0  0  0  0  0  0  0  0
   -1.5488    0.1630   -2.9528 H   0  0  0  0  0  0  0  0  0  0  0  0
   -0.4993    0.5223   -0.5915 H   0  0  0  0  0  0  0  0  0  0  0  0
   -2.4233    0.6316   -0.6643 H   0  0  0  0  0  0  0  0  0  0  0  0
   -2.4302    3.1423   -0.7657 H   0  0  0  0  0  0  0  0  0  0  0  0
   -1.5488    2.5631    0.6495 H   0  0  0  0  0  0  0  0  0  0  0  0
   -0.6673    3.1423   -0.7657 H   0  0  0  0  0  0  0  0  0  0  0  0
  1  2  1  0
  2  3  2  3
  2  6  1  0
  3  4  1  0
  3  5  1  0
  4  7  1  0
  4  8  1  0
  4  9  1  0
  5 10  1  0
  5 11  1  0
  5 12  1  0
 13 14  1  0
 13 16  1  0
 13 17  1  0
 13 18  1  0
 14 15  1  0
 14 19  1  0
 14 20  1  0
 15 21  1  0
 15 22  1  0
 15 23  1  0
M  RAD  1   1   2
M  END
>  <reaction>  (15) 
rxn_936

>  <mol_properties>  (15) 
{"1": {"label": "*0", "atom_type": "CS"}, "2": {"label": "*1", "atom_type": "Cs"}, "12": {"label": "*4", "atom_type": "Cs"}, "13": {"label": "*3", "atom_type": "Cs"}, "18": {"label": "*2", "atom_type": "H0"}}

>  <type>  (15) 
unop_11

>  <geom_source>  (15) 
Heuristics

$$$$

     RDKit          3D

 23 21  0  0  0  0  0  0  0  0999 V2000
    2.3000   -0.6334   -0.9273 S   0  0  0  0  0  1  0  0  0  0  0  0
    0.7771   -0.9233   -0.5030 C   0  0  0  0  0  0  0  0  0  0  0  0
    0.0589   -0.4746    0.7349 C   0  0  0  0  0  0  0  0  0  0  0  0
   -0.4647   -1.7133    1.4766 C   0  0  0  0  0  0  0  0  0  0  0  0
    0.8631    0.4337    1.6491 C   0  0  0  0  0  0  0  0  0  0  0  0
    0.1548   -1.5327   -1.1627 H   0  0  0  0  0  0  0  0  0  0  0  0
    0.3681   -2.3059    1.8607 H   0  0  0  0  0  0  0  0  0  0  0  0
   -1.0848   -1.4100    2.3209 H   0  0  0  0  0  0  0  0  0  0  0  0
   -1.0655   -2.3508    0.8256 H   0  0  0  0  0  0  0  0  0  0  0  0
    0.2487    0.7503    2.4935 H   0  0  0  0  0  0  0  0  0  0  0  0
    1.2140    1.3209    1.1221 H   0  0  0  0  0  0  0  0  0  0  0  0
    1.7408   -0.0854    2.0379 H   0  0  0  0  0  0  0  0  0  0  0  0
   -2.0451    0.8399   -1.6642 C   0  0  0  0  0  0  0  0  0  0  0  0
   -2.0451    0.8399   -0.1409 C   0  0  0  0  0  0  0  0  0  0  0  0
   -2.0451    2.2457    0.4459 C   0  0  0  0  0  0  0  0  0  0  0  0
   -1.1637    1.3542   -2.0548 H   0  0  0  0  0  0  0  0  0  0  0  0
   -2.9266    1.3542   -2.0548 H   0  0  0  0  0  0  0  0  0  0  0  0
   -2.0451   -0.1750   -2.0653 H   0  0  0  0  0  0  0  0  0  0  0  0
   -0.9957    0.1843    0.2960 H   0  0  0  0  0  0  0  0  0  0  0  0
   -2.9197    0.2936    0.2232 H   0  0  0  0  0  0  0  0  0  0  0  0
   -2.9266    2.8043    0.1217 H   0  0  0  0  0  0  0  0  0  0  0  0
   -2.0451    2.2250    1.5370 H   0  0  0  0  0  0  0  0  0  0  0  0
   -1.1637    2.8043    0.1217 H   0  0  0  0  0  0  0  0  0  0  0  0
  1  2  1  0
  2  3  2  3
  2  6  1  0
  3  4  1  0
  3  5  1  0
  4  7  1  0
  4  8  1  0
  4  9  1  0
  5 10  1  0
  5 11  1  0
  5 12  1  0
 13 14  1  0
 13 16  1  0
 13 17  1  0
 13 18  1  0
 14 15  1  0
 14 19  1  0
 14 20  1  0
 15 21  1  0
 15 22  1  0
 15 23  1  0
M  RAD  1   1   2
M  END
>  <reaction>  (16) 
rxn_936

>  <mol_properties>  (16) 
{"1": {"label": "*0", "atom_type": "CS"}, "2": {"label": "*1", "atom_type": "Cs"}, "12": {"label": "*4", "atom_type": "Cs"}, "13": {"label": "*3", "atom_type": "Cs"}, "18": {"label": "*2", "atom_type": "H0"}}

>  <type>  (16) 
unop_12

>  <geom_source>  (16) 
Heuristics

$$$$

     RDKit          3D

 23 21  0  0  0  0  0  0  0  0999 V2000
   -0.8569   -0.3336   -2.7420 S   0  0  0  0  0  1  0  0  0  0  0  0
   -1.1295   -0.1037   -0.2026 C   0  0  0  0  0  0  0  0  0  0  0  0
   -1.9176   -0.8035    0.9086 C   0  0  0  0  0  0  0  0  0  0  0  0
   -1.2039    1.4180   -0.0307 C   0  0  0  0  0  0  0  0  0  0  0  0
    1.8543    1.1504   -0.2120 C   0  0  0  0  0  0  0  0  0  0  0  0
    1.9527   -1.1468    0.8224 C   0  0  0  0  0  0  0  0  0  0  0  0
    1.4452   -0.3112   -0.3463 C   0  0  0  0  0  0  0  0  0  0  0  0
   -1.6510   -0.5175   -1.5583 C   0  0  0  0  0  0  0  0  0  0  0  0
    0.1638   -0.4869   -0.0877 H   0  0  0  0  0  0  0  0  0  0  0  0
   -1.4993   -0.5318    1.9010 H   0  0  0  0  0  0  0  0  0  0  0  0
   -2.9896   -0.5113    0.8767 H   0  0  0  0  0  0  0  0  0  0  0  0
   -1.8398   -1.9054    0.7919 H   0  0  0  0  0  0  0  0  0  0  0  0
   -2.2526    1.7731   -0.1287 H   0  0  0  0  0  0  0  0  0  0  0  0
   -0.8165    1.7081    0.9690 H   0  0  0  0  0  0  0  0  0  0  0  0
   -0.5793    1.9220   -0.7982 H   0  0  0  0  0  0  0  0  0  0  0  0
    1.4404    1.5788    0.7250 H   0  0  0  0  0  0  0  0  0  0  0  0
    2.9613    1.2430   -0.2046 H   0  0  0  0  0  0  0  0  0  0  0  0
    1.4517    1.7244   -1.0723 H   0  0  0  0  0  0  0  0  0  0  0  0
    1.6196   -2.1976    0.6938 H   0  0  0  0  0  0  0  0  0  0  0  0
    3.0627   -1.1238    0.8611 H   0  0  0  0  0  0  0  0  0  0  0  0
    1.5404   -0.7585    1.7775 H   0  0  0  0  0  0  0  0  0  0  0  0
    1.8317   -0.7252   -1.3025 H   0  0  0  0  0  0  0  0  0  0  0  0
   -2.5878   -1.0610   -1.6410 H   0  0  0  0  0  0  0  0  0  0  0  0
  1  8  1  0
  2  3  1  0
  2  4  1  0
  2  8  2  3
  3 10  1  0
  3 11  1  0
  3 12  1  0
  4 13  1  0
  4 14  1  0
  4 15  1  0
  5  7  1  0
  5 16  1  0
  5 17  1  0
  5 18  1  0
  6  7  1  0
  6 19  1  0
  6 20  1  0
  6 21  1  0
  7  9  1  0
  7 22  1  0
  8 23  1  0
M  RAD  1   1   2
M  END
>  <reaction>  (17) 
rxn_936

>  <mol_properties>  (17) 
{"1": {"label": "*0", "atom_type": "CS"}, "2": {"label": "*1", "atom_type": "Cs"}, "12": {"label": "*4", "atom_type": "Cs"}, "13": {"label": "*3", "atom_type": "Cs"}, "18": {"label": "*2", "atom_type": "H0"}}

>  <type>  (17) 
unop_13

>  <geom_source>  (17) 
AutoTST

$$$$
