
     RDKit          3D

 10  9  0  0  0  0  0  0  0  0999 V2000
    1.8334    0.0847   -0.1062 C   0  0  0  0  0  0  0  0  0  0  0  0
    0.5993   -0.4071   -0.0750 C   0  0  0  0  0  0  0  0  0  0  0  0
   -0.5993    0.4071    0.0750 C   0  0  0  0  0  0  0  0  0  0  0  0
   -1.8334   -0.0847    0.1062 C   0  0  0  0  0  0  0  0  0  0  0  0
    2.0179    1.1498   -0.0189 H   0  0  0  0  0  0  0  0  0  0  0  0
    2.6972   -0.5572   -0.2194 H   0  0  0  0  0  0  0  0  0  0  0  0
    0.4465   -1.4793   -0.1649 H   0  0  0  0  0  0  0  0  0  0  0  0
   -0.4465    1.4793    0.1649 H   0  0  0  0  0  0  0  0  0  0  0  0
   -2.0179   -1.1498    0.0189 H   0  0  0  0  0  0  0  0  0  0  0  0
   -2.6972    0.5572    0.2194 H   0  0  0  0  0  0  0  0  0  0  0  0
  1  2  2  3
  1  5  1  0
  1  6  1  0
  2  3  1  0
  2  7  1  0
  3  4  2  3
  3  8  1  0
  4  9  1  0
  4 10  1  0
M  END
>  <reaction>  (1) 
rxn_1666

>  <mol_properties>  (1) 
{"2": {"label": "donator", "atom_type": "Cd"}, "7": {"label": "d_hydrogen", "atom_type": "H0"}}

>  <type>  (1) 
r1h

$$$$

     RDKit          3D

 11 11  0  0  0  0  0  0  0  0999 V2000
    0.1524   -1.5397    0.0698 C   0  0  0  0  0  3  0  0  0  0  0  0
   -1.1218   -1.0406    0.0516 C   0  0  0  0  0  0  0  0  0  0  0  0
   -1.2464    0.3470   -0.0114 C   0  0  0  0  0  0  0  0  0  0  0  0
   -0.1137    1.1487   -0.0521 C   0  0  0  0  0  0  0  0  0  0  0  0
    1.1542    0.5837   -0.0308 C   0  0  0  0  0  0  0  0  0  0  0  0
    1.3041   -0.8014    0.0319 C   0  0  0  0  0  0  0  0  0  0  0  0
   -1.9955   -1.6793    0.0840 H   0  0  0  0  0  0  0  0  0  0  0  0
   -2.2319    0.7966   -0.0284 H   0  0  0  0  0  0  0  0  0  0  0  0
   -0.2203    2.2248   -0.1009 H   0  0  0  0  0  0  0  0  0  0  0  0
    2.0325    1.2173   -0.0630 H   0  0  0  0  0  0  0  0  0  0  0  0
    2.2862   -1.2570    0.0492 H   0  0  0  0  0  0  0  0  0  0  0  0
  1  2  2  0
  1  6  1  0
  2  3  1  0
  2  7  1  0
  3  4  2  0
  3  8  1  0
  4  5  1  0
  4  9  1  0
  5  6  2  0
  5 10  1  0
  6 11  1  0
M  RAD  1   1   2
M  END
>  <reaction>  (2) 
rxn_1666

>  <mol_properties>  (2) 
{"0": {"label": "acceptor", "atom_type": "Cd"}}

>  <type>  (2) 
r2

$$$$

     RDKit          3D

 12 12  0  0  0  0  0  0  0  0999 V2000
   -1.2385    0.6248   -0.0199 C   0  0  0  0  0  0  0  0  0  0  0  0
   -0.0779    1.3848   -0.0298 C   0  0  0  0  0  0  0  0  0  0  0  0
    1.1605    0.7600   -0.0100 C   0  0  0  0  0  0  0  0  0  0  0  0
    1.2385   -0.6248    0.0199 C   0  0  0  0  0  0  0  0  0  0  0  0
    0.0779   -1.3848    0.0298 C   0  0  0  0  0  0  0  0  0  0  0  0
   -1.1606   -0.7600    0.0100 C   0  0  0  0  0  0  0  0  0  0  0  0
   -2.2052    1.1125   -0.0354 H   0  0  0  0  0  0  0  0  0  0  0  0
   -0.1387    2.4657   -0.0531 H   0  0  0  0  0  0  0  0  0  0  0  0
    2.0664    1.3532   -0.0177 H   0  0  0  0  0  0  0  0  0  0  0  0
    2.2052   -1.1125    0.0354 H   0  0  0  0  0  0  0  0  0  0  0  0
    0.1387   -2.4657    0.0531 H   0  0  0  0  0  0  0  0  0  0  0  0
   -2.0664   -1.3532    0.0177 H   0  0  0  0  0  0  0  0  0  0  0  0
  1  2  2  0
  1  6  1  0
  1  7  1  0
  2  3  1  0
  2  8  1  0
  3  4  2  0
  3  9  1  0
  4  5  1  0
  4 10  1  0
  5  6  2  0
  5 11  1  0
  6 12  1  0
M  END
>  <reaction>  (3) 
rxn_1666

>  <mol_properties>  (3) 
{"0": {"label": "a_hydrogen", "atom_type": "H0"}, "1": {"label": "acceptor", "atom_type": "Cd"}}

>  <type>  (3) 
r2h

$$$$

     RDKit          3D

 21 20  0  0  0  0  0  0  0  0999 V2000
   -0.2566   -2.7188   -1.4332 C   0  0  0  0  0  0  0  0  0  0  0  0
   -0.2815   -3.0430   -0.1443 C   0  0  0  0  0  0  0  0  0  0  0  0
   -0.1819   -2.0872    0.9393 C   0  0  0  0  0  0  0  0  0  0  0  0
   -0.1957   -2.2992    2.2428 C   0  0  0  0  0  0  0  0  0  0  0  0
   -0.1570   -1.6873   -1.7513 H   0  0  0  0  0  0  0  0  0  0  0  0
   -0.3348   -3.4736   -2.2044 H   0  0  0  0  0  0  0  0  0  0  0  0
   -0.3826   -4.0879    0.1466 H   0  0  0  0  0  0  0  0  0  0  0  0
   -0.0623   -0.8482    0.5604 H   0  0  0  0  0  0  0  0  0  0  0  0
   -0.2919   -3.3015    2.6539 H   0  0  0  0  0  0  0  0  0  0  0  0
   -0.1117   -1.4820    2.9496 H   0  0  0  0  0  0  0  0  0  0  0  0
    0.0630    0.4488    0.1871 C   0  0  0  0  0  3  0  0  0  0  0  0
   -1.0800    1.1966    0.0061 C   0  0  0  0  0  0  0  0  0  0  0  0
   -0.9467    2.5247   -0.3838 C   0  0  0  0  0  0  0  0  0  0  0  0
    0.3158    3.0662   -0.5833 C   0  0  0  0  0  0  0  0  0  0  0  0
    1.4510    2.2894   -0.3964 C   0  0  0  0  0  0  0  0  0  0  0  0
    1.3277    0.9604   -0.0065 C   0  0  0  0  0  0  0  0  0  0  0  0
   -2.0594    0.7610    0.1641 H   0  0  0  0  0  0  0  0  0  0  0  0
   -1.8285    3.1360   -0.5321 H   0  0  0  0  0  0  0  0  0  0  0  0
    0.4157    4.1006   -0.8873 H   0  0  0  0  0  0  0  0  0  0  0  0
    2.4333    2.7179   -0.5544 H   0  0  0  0  0  0  0  0  0  0  0  0
    2.2054    0.3426    0.1417 H   0  0  0  0  0  0  0  0  0  0  0  0
  1  2  2  3
  1  5  1  0
  1  6  1  0
  2  3  1  0
  2  7  1  0
  3  4  2  3
  3  8  1  0
  4  9  1  0
  4 10  1  0
 11 12  2  0
 11 16  1  0
 12 13  1  0
 12 17  1  0
 13 14  2  0
 13 18  1  0
 14 15  1  0
 14 19  1  0
 15 16  2  0
 15 20  1  0
 16 21  1  0
M  RAD  1  11   2
M  END
>  <reaction>  (4) 
rxn_1666

>  <mol_properties>  (4) 
{"1": {"label": "*0", "atom_type": "Cd"}, "2": {"label": "*1", "atom_type": "Cd"}, "7": {"label": "*2", "atom_type": "H0"}, "10": {"label": "*3", "atom_type": "Cd"}, "11": {"label": "*4", "atom_type": "Cd"}}

>  <type>  (4) 
ts

$$$$

     RDKit          3D

 21 20  0  0  0  0  0  0  0  0999 V2000
   -0.1636   -3.1016   -1.3252 C   0  0  0  0  0  0  0  0  0  0  0  0
   -0.1636   -3.1016    0.0037 C   0  0  0  0  0  0  0  0  0  0  0  0
   -0.1636   -1.8943    0.8190 C   0  0  0  0  0  3  0  0  0  0  0  0
   -0.1636   -1.8943    2.1479 C   0  0  0  0  0  0  0  0  0  0  0  0
   -0.1636   -2.1750   -1.8886 H   0  0  0  0  0  0  0  0  0  0  0  0
   -0.1636   -4.0232   -1.8923 H   0  0  0  0  0  0  0  0  0  0  0  0
   -0.1636   -4.0466    0.5403 H   0  0  0  0  0  0  0  0  0  0  0  0
   -0.1636   -0.7604    0.1751 H   0  0  0  0  0  0  0  0  0  0  0  0
   -0.1636   -2.8209    2.7114 H   0  0  0  0  0  0  0  0  0  0  0  0
   -0.1636   -0.9728    2.7151 H   0  0  0  0  0  0  0  0  0  0  0  0
   -0.1636    0.3696   -0.4666 C   0  0  0  0  0  0  0  0  0  0  0  0
   -1.2041    1.2694   -0.2868 C   0  0  0  0  0  0  0  0  0  0  0  0
   -0.9320    2.6184   -0.1114 C   0  0  0  0  0  0  0  0  0  0  0  0
    0.3805    3.0676   -0.1160 C   0  0  0  0  0  0  0  0  0  0  0  0
    1.4210    2.1677   -0.2958 C   0  0  0  0  0  0  0  0  0  0  0  0
    1.1489    0.8187   -0.4711 C   0  0  0  0  0  0  0  0  0  0  0  0
   -2.2286    0.9187   -0.2832 H   0  0  0  0  0  0  0  0  0  0  0  0
   -1.7441    3.3207    0.0289 H   0  0  0  0  0  0  0  0  0  0  0  0
    0.5929    4.1205    0.0209 H   0  0  0  0  0  0  0  0  0  0  0  0
    2.4455    2.5183   -0.2993 H   0  0  0  0  0  0  0  0  0  0  0  0
    1.9611    0.1164   -0.6115 H   0  0  0  0  0  0  0  0  0  0  0  0
  1  2  2  3
  1  5  1  0
  1  6  1  0
  2  3  1  0
  2  7  1  0
  3  4  2  3
  4  9  1  0
  4 10  1  0
  8 11  1  0
 11 12  2  0
 11 16  1  0
 12 13  1  0
 12 17  1  0
 13 14  2  0
 13 18  1  0
 14 15  1  0
 14 19  1  0
 15 16  2  0
 15 20  1  0
 16 21  1  0
M  RAD  1   3   2
M  END
>  <reaction>  (5) 
rxn_1666

>  <mol_properties>  (5) 
{"1": {"label": "*0", "atom_type": "Cd"}, "2": {"label": "*1", "atom_type": "Cd"}, "7": {"label": "*2", "atom_type": "H0"}, "10": {"label": "*3", "atom_type": "Cd"}, "11": {"label": "*4", "atom_type": "Cd"}}

>  <type>  (5) 
unop_1

>  <geom_source>  (5) 
Heuristics

$$$$

     RDKit          3D

 21 20  0  0  0  0  0  0  0  0999 V2000
    0.1998   -3.0369   -0.9055 C   0  0  0  0  0  0  0  0  0  0  0  0
    0.1998   -3.0369    0.4234 C   0  0  0  0  0  0  0  0  0  0  0  0
    0.1998   -1.8296    1.2387 C   0  0  0  0  0  3  0  0  0  0  0  0
    0.1998   -1.8296    2.5676 C   0  0  0  0  0  0  0  0  0  0  0  0
    0.1998   -2.1103   -1.4689 H   0  0  0  0  0  0  0  0  0  0  0  0
    0.1998   -3.9585   -1.4727 H   0  0  0  0  0  0  0  0  0  0  0  0
    0.1998   -3.9819    0.9600 H   0  0  0  0  0  0  0  0  0  0  0  0
    0.1998   -0.6957    0.5948 H   0  0  0  0  0  0  0  0  0  0  0  0
    0.1998   -2.7562    3.1310 H   0  0  0  0  0  0  0  0  0  0  0  0
    0.1998   -0.9081    3.1348 H   0  0  0  0  0  0  0  0  0  0  0  0
    0.1998    0.4343   -0.0469 C   0  0  0  0  0  0  0  0  0  0  0  0
   -0.4009    0.5236   -1.2942 C   0  0  0  0  0  0  0  0  0  0  0  0
   -0.7331    1.7650   -1.8167 C   0  0  0  0  0  0  0  0  0  0  0  0
   -0.4647    2.9171   -1.0920 C   0  0  0  0  0  0  0  0  0  0  0  0
    0.1360    2.8277    0.1553 C   0  0  0  0  0  0  0  0  0  0  0  0
    0.4683    1.5863    0.6778 C   0  0  0  0  0  0  0  0  0  0  0  0
   -0.6105   -0.3756   -1.8599 H   0  0  0  0  0  0  0  0  0  0  0  0
   -1.2020    1.8348   -2.7903 H   0  0  0  0  0  0  0  0  0  0  0  0
   -0.7240    3.8861   -1.4999 H   0  0  0  0  0  0  0  0  0  0  0  0
    0.3456    3.7270    0.7210 H   0  0  0  0  0  0  0  0  0  0  0  0
    0.9372    1.5165    1.6514 H   0  0  0  0  0  0  0  0  0  0  0  0
  1  2  2  3
  1  5  1  0
  1  6  1  0
  2  3  1  0
  2  7  1  0
  3  4  2  3
  4  9  1  0
  4 10  1  0
  8 11  1  0
 11 12  2  0
 11 16  1  0
 12 13  1  0
 12 17  1  0
 13 14  2  0
 13 18  1  0
 14 15  1  0
 14 19  1  0
 15 16  2  0
 15 20  1  0
 16 21  1  0
M  RAD  1   3   2
M  END
>  <reaction>  (6) 
rxn_1666

>  <mol_properties>  (6) 
{"1": {"label": "*0", "atom_type": "Cd"}, "2": {"label": "*1", "atom_type": "Cd"}, "7": {"label": "*2", "atom_type": "H0"}, "10": {"label": "*3", "atom_type": "Cd"}, "11": {"label": "*4", "atom_type": "Cd"}}

>  <type>  (6) 
unop_2

>  <geom_source>  (6) 
Heuristics

$$$$

     RDKit          3D

 21 20  0  0  0  0  0  0  0  0999 V2000
   -0.3321   -3.0465   -1.1016 C   0  0  0  0  0  0  0  0  0  0  0  0
   -0.3321   -3.0465    0.2272 C   0  0  0  0  0  0  0  0  0  0  0  0
   -0.3321   -1.8392    1.0425 C   0  0  0  0  0  3  0  0  0  0  0  0
   -0.3321   -1.8392    2.3714 C   0  0  0  0  0  0  0  0  0  0  0  0
   -0.3321   -2.1199   -1.6651 H   0  0  0  0  0  0  0  0  0  0  0  0
   -0.3321   -3.9681   -1.6688 H   0  0  0  0  0  0  0  0  0  0  0  0
   -0.3321   -3.9915    0.7639 H   0  0  0  0  0  0  0  0  0  0  0  0
   -0.3321   -0.7053    0.3986 H   0  0  0  0  0  0  0  0  0  0  0  0
   -0.3321   -2.7658    2.9349 H   0  0  0  0  0  0  0  0  0  0  0  0
   -0.3321   -0.9176    2.9386 H   0  0  0  0  0  0  0  0  0  0  0  0
   -0.3321    0.4247   -0.2431 C   0  0  0  0  0  0  0  0  0  0  0  0
   -0.9329    1.5416    0.3191 C   0  0  0  0  0  0  0  0  0  0  0  0
   -0.3805    2.7990    0.1228 C   0  0  0  0  0  0  0  0  0  0  0  0
    0.7725    2.9394   -0.6358 C   0  0  0  0  0  0  0  0  0  0  0  0
    1.3732    1.8224   -1.1980 C   0  0  0  0  0  0  0  0  0  0  0  0
    0.8209    0.5650   -1.0017 C   0  0  0  0  0  0  0  0  0  0  0  0
   -1.8329    1.4320    0.9113 H   0  0  0  0  0  0  0  0  0  0  0  0
   -0.8494    3.6708    0.5617 H   0  0  0  0  0  0  0  0  0  0  0  0
    1.2036    3.9209   -0.7890 H   0  0  0  0  0  0  0  0  0  0  0  0
    2.2731    1.9320   -1.7901 H   0  0  0  0  0  0  0  0  0  0  0  0
    1.2898   -0.3068   -1.4405 H   0  0  0  0  0  0  0  0  0  0  0  0
  1  2  2  3
  1  5  1  0
  1  6  1  0
  2  3  1  0
  2  7  1  0
  3  4  2  3
  4  9  1  0
  4 10  1  0
  8 11  1  0
 11 12  2  0
 11 16  1  0
 12 13  1  0
 12 17  1  0
 13 14  2  0
 13 18  1  0
 14 15  1  0
 14 19  1  0
 15 16  2  0
 15 20  1  0
 16 21  1  0
M  RAD  1   3   2
M  END
>  <reaction>  (7) 
rxn_1666

>  <mol_properties>  (7) 
{"1": {"label": "*0", "atom_type": "Cd"}, "2": {"label": "*1", "atom_type": "Cd"}, "7": {"label": "*2", "atom_type": "H0"}, "10": {"label": "*3", "atom_type": "Cd"}, "11": {"label": "*4", "atom_type": "Cd"}}

>  <type>  (7) 
unop_3

>  <geom_source>  (7) 
Heuristics

$$$$

     RDKit          3D

 21 20  0  0  0  0  0  0  0  0999 V2000
   -0.2406   -3.0831   -1.1210 C   0  0  0  0  0  0  0  0  0  0  0  0
   -0.2406   -3.0831    0.2079 C   0  0  0  0  0  0  0  0  0  0  0  0
   -0.2406   -1.8757    1.0231 C   0  0  0  0  0  3  0  0  0  0  0  0
   -0.2406   -1.8757    2.3520 C   0  0  0  0  0  0  0  0  0  0  0  0
   -0.2406   -2.1565   -1.6845 H   0  0  0  0  0  0  0  0  0  0  0  0
   -0.2406   -4.0046   -1.6882 H   0  0  0  0  0  0  0  0  0  0  0  0
   -0.2406   -4.0280    0.7445 H   0  0  0  0  0  0  0  0  0  0  0  0
   -0.2406   -0.7418    0.3792 H   0  0  0  0  0  0  0  0  0  0  0  0
   -0.2406   -2.8023    2.9155 H   0  0  0  0  0  0  0  0  0  0  0  0
   -0.2406   -0.9542    2.9192 H   0  0  0  0  0  0  0  0  0  0  0  0
   -0.2406    0.3881   -0.2625 C   0  0  0  0  0  0  0  0  0  0  0  0
    0.7999    0.6946   -1.1274 C   0  0  0  0  0  0  0  0  0  0  0  0
    1.1999    2.0128   -1.2915 C   0  0  0  0  0  0  0  0  0  0  0  0
    0.5596    3.0244   -0.5907 C   0  0  0  0  0  0  0  0  0  0  0  0
   -0.4809    2.7179    0.2742 C   0  0  0  0  0  0  0  0  0  0  0  0
   -0.8810    1.3997    0.4383 C   0  0  0  0  0  0  0  0  0  0  0  0
    1.2997   -0.0950   -1.6743 H   0  0  0  0  0  0  0  0  0  0  0  0
    2.0121    2.2521   -1.9665 H   0  0  0  0  0  0  0  0  0  0  0  0
    0.8719    4.0533   -0.7188 H   0  0  0  0  0  0  0  0  0  0  0  0
   -0.9807    3.5075    0.8212 H   0  0  0  0  0  0  0  0  0  0  0  0
   -1.6932    1.1605    1.1134 H   0  0  0  0  0  0  0  0  0  0  0  0
  1  2  2  3
  1  5  1  0
  1  6  1  0
  2  3  1  0
  2  7  1  0
  3  4  2  3
  4  9  1  0
  4 10  1  0
  8 11  1  0
 11 12  2  0
 11 16  1  0
 12 13  1  0
 12 17  1  0
 13 14  2  0
 13 18  1  0
 14 15  1  0
 14 19  1  0
 15 16  2  0
 15 20  1  0
 16 21  1  0
M  RAD  1   3   2
M  END
>  <reaction>  (8) 
rxn_1666

>  <mol_properties>  (8) 
{"1": {"label": "*0", "atom_type": "Cd"}, "2": {"label": "*1", "atom_type": "Cd"}, "7": {"label": "*2", "atom_type": "H0"}, "10": {"label": "*3", "atom_type": "Cd"}, "11": {"label": "*4", "atom_type": "Cd"}}

>  <type>  (8) 
unop_4

>  <geom_source>  (8) 
Heuristics

$$$$

     RDKit          3D

 21 20  0  0  0  0  0  0  0  0999 V2000
   -0.0000   -3.0158   -0.8077 C   0  0  0  0  0  0  0  0  0  0  0  0
   -0.0000   -3.0158    0.5212 C   0  0  0  0  0  0  0  0  0  0  0  0
   -0.0000   -1.8085    1.3364 C   0  0  0  0  0  3  0  0  0  0  0  0
   -0.0000   -1.8085    2.6653 C   0  0  0  0  0  0  0  0  0  0  0  0
   -0.0000   -2.0892   -1.3712 H   0  0  0  0  0  0  0  0  0  0  0  0
    0.0000   -3.9374   -1.3749 H   0  0  0  0  0  0  0  0  0  0  0  0
   -0.0000   -3.9608    1.0578 H   0  0  0  0  0  0  0  0  0  0  0  0
   -0.0000   -0.6746    0.6925 H   0  0  0  0  0  0  0  0  0  0  0  0
   -0.0000   -2.7351    3.2288 H   0  0  0  0  0  0  0  0  0  0  0  0
   -0.0000   -0.8870    3.2325 H   0  0  0  0  0  0  0  0  0  0  0  0
   -0.0000    0.4554    0.0508 C   0  0  0  0  0  0  0  0  0  0  0  0
   -0.0000    1.6518    0.7530 C   0  0  0  0  0  0  0  0  0  0  0  0
   -0.0000    2.8581    0.0679 C   0  0  0  0  0  0  0  0  0  0  0  0
    0.0000    2.8680   -1.3193 C   0  0  0  0  0  0  0  0  0  0  0  0
    0.0000    1.6716   -2.0215 C   0  0  0  0  0  0  0  0  0  0  0  0
    0.0000    0.4652   -1.3364 C   0  0  0  0  0  0  0  0  0  0  0  0
   -0.0000    1.6441    1.8359 H   0  0  0  0  0  0  0  0  0  0  0  0
   -0.0000    3.7920    0.6160 H   0  0  0  0  0  0  0  0  0  0  0  0
    0.0000    3.8097   -1.8540 H   0  0  0  0  0  0  0  0  0  0  0  0
    0.0000    1.6793   -3.1043 H   0  0  0  0  0  0  0  0  0  0  0  0
    0.0000   -0.4687   -1.8845 H   0  0  0  0  0  0  0  0  0  0  0  0
  1  2  2  3
  1  5  1  0
  1  6  1  0
  2  3  1  0
  2  7  1  0
  3  4  2  3
  4  9  1  0
  4 10  1  0
  8 11  1  0
 11 12  2  0
 11 16  1  0
 12 13  1  0
 12 17  1  0
 13 14  2  0
 13 18  1  0
 14 15  1  0
 14 19  1  0
 15 16  2  0
 15 20  1  0
 16 21  1  0
M  RAD  1   3   2
M  END
>  <reaction>  (9) 
rxn_1666

>  <mol_properties>  (9) 
{"1": {"label": "*0", "atom_type": "Cd"}, "2": {"label": "*1", "atom_type": "Cd"}, "7": {"label": "*2", "atom_type": "H0"}, "10": {"label": "*3", "atom_type": "Cd"}, "11": {"label": "*4", "atom_type": "Cd"}}

>  <type>  (9) 
unop_5

>  <geom_source>  (9) 
Heuristics

$$$$

     RDKit          3D

 21 20  0  0  0  0  0  0  0  0999 V2000
   -0.0912   -3.1155   -1.3031 C   0  0  0  0  0  0  0  0  0  0  0  0
   -0.0912   -3.1155    0.0258 C   0  0  0  0  0  0  0  0  0  0  0  0
   -0.0912   -1.9081    0.8411 C   0  0  0  0  0  3  0  0  0  0  0  0
   -0.0912   -1.9081    2.1700 C   0  0  0  0  0  0  0  0  0  0  0  0
   -0.0912   -2.1889   -1.8665 H   0  0  0  0  0  0  0  0  0  0  0  0
   -0.0912   -4.0370   -1.8703 H   0  0  0  0  0  0  0  0  0  0  0  0
   -0.0912   -4.0604    0.5624 H   0  0  0  0  0  0  0  0  0  0  0  0
   -0.0912   -0.7742    0.1971 H   0  0  0  0  0  0  0  0  0  0  0  0
   -0.0912   -2.8347    2.7334 H   0  0  0  0  0  0  0  0  0  0  0  0
   -0.0912   -0.9866    2.7372 H   0  0  0  0  0  0  0  0  0  0  0  0
   -0.0912    0.3557   -0.4445 C   0  0  0  0  0  0  0  0  0  0  0  0
    1.1102    0.9589   -0.7871 C   0  0  0  0  0  0  0  0  0  0  0  0
    1.2619    2.3309   -0.6484 C   0  0  0  0  0  0  0  0  0  0  0  0
    0.2121    3.0997   -0.1673 C   0  0  0  0  0  0  0  0  0  0  0  0
   -0.9893    2.4965    0.1752 C   0  0  0  0  0  0  0  0  0  0  0  0
   -1.1410    1.1245    0.0366 C   0  0  0  0  0  0  0  0  0  0  0  0
    1.9296    0.3588   -1.1626 H   0  0  0  0  0  0  0  0  0  0  0  0
    2.1997    2.8017   -0.9158 H   0  0  0  0  0  0  0  0  0  0  0  0
    0.3305    4.1706   -0.0591 H   0  0  0  0  0  0  0  0  0  0  0  0
   -1.8087    3.0966    0.5508 H   0  0  0  0  0  0  0  0  0  0  0  0
   -2.0788    0.6537    0.3040 H   0  0  0  0  0  0  0  0  0  0  0  0
  1  2  2  3
  1  5  1  0
  1  6  1  0
  2  3  1  0
  2  7  1  0
  3  4  2  3
  4  9  1  0
  4 10  1  0
  8 11  1  0
 11 12  2  0
 11 16  1  0
 12 13  1  0
 12 17  1  0
 13 14  2  0
 13 18  1  0
 14 15  1  0
 14 19  1  0
 15 16  2  0
 15 20  1  0
 16 21  1  0
M  RAD  1   3   2
M  END
>  <reaction>  (10) 
rxn_1666

>  <mol_properties>  (10) 
{"1": {"label": "*0", "atom_type": "Cd"}, "2": {"label": "*1", "atom_type": "Cd"}, "7": {"label": "*2", "atom_type": "H0"}, "10": {"label": "*3", "atom_type": "Cd"}, "11": {"label": "*4", "atom_type": "Cd"}}

>  <type>  (10) 
unop_6

>  <geom_source>  (10) 
Heuristics

$$$$

     RDKit          3D

 21 20  0  0  0  0  0  0  0  0999 V2000
    0.1636   -3.1016   -1.3252 C   0  0  0  0  0  0  0  0  0  0  0  0
    0.1636   -3.1016    0.0037 C   0  0  0  0  0  0  0  0  0  0  0  0
    0.1636   -1.8943    0.8190 C   0  0  0  0  0  3  0  0  0  0  0  0
    0.1636   -1.8943    2.1479 C   0  0  0  0  0  0  0  0  0  0  0  0
    0.1636   -2.1750   -1.8886 H   0  0  0  0  0  0  0  0  0  0  0  0
    0.1636   -4.0232   -1.8923 H   0  0  0  0  0  0  0  0  0  0  0  0
    0.1636   -4.0466    0.5403 H   0  0  0  0  0  0  0  0  0  0  0  0
    0.1636   -0.7604    0.1751 H   0  0  0  0  0  0  0  0  0  0  0  0
    0.1636   -2.8209    2.7114 H   0  0  0  0  0  0  0  0  0  0  0  0
    0.1636   -0.9728    2.7151 H   0  0  0  0  0  0  0  0  0  0  0  0
    0.1636    0.3696   -0.4666 C   0  0  0  0  0  0  0  0  0  0  0  0
    1.2041    1.2694   -0.2868 C   0  0  0  0  0  0  0  0  0  0  0  0
    0.9320    2.6184   -0.1114 C   0  0  0  0  0  0  0  0  0  0  0  0
   -0.3805    3.0676   -0.1160 C   0  0  0  0  0  0  0  0  0  0  0  0
   -1.4210    2.1677   -0.2958 C   0  0  0  0  0  0  0  0  0  0  0  0
   -1.1489    0.8187   -0.4711 C   0  0  0  0  0  0  0  0  0  0  0  0
    2.2286    0.9187   -0.2832 H   0  0  0  0  0  0  0  0  0  0  0  0
    1.7441    3.3207    0.0289 H   0  0  0  0  0  0  0  0  0  0  0  0
   -0.5929    4.1205    0.0209 H   0  0  0  0  0  0  0  0  0  0  0  0
   -2.4455    2.5183   -0.2993 H   0  0  0  0  0  0  0  0  0  0  0  0
   -1.9611    0.1164   -0.6115 H   0  0  0  0  0  0  0  0  0  0  0  0
  1  2  2  3
  1  5  1  0
  1  6  1  0
  2  3  1  0
  2  7  1  0
  3  4  2  3
  4  9  1  0
  4 10  1  0
  8 11  1  0
 11 12  2  0
 11 16  1  0
 12 13  1  0
 12 17  1  0
 13 14  2  0
 13 18  1  0
 14 15  1  0
 14 19  1  0
 15 16  2  0
 15 20  1  0
 16 21  1  0
M  RAD  1   3   2
M  END
>  <reaction>  (11) 
rxn_1666

>  <mol_properties>  (11) 
{"1": {"label": "*0", "atom_type": "Cd"}, "2": {"label": "*1", "atom_type": "Cd"}, "7": {"label": "*2", "atom_type": "H0"}, "10": {"label": "*3", "atom_type": "Cd"}, "11": {"label": "*4", "atom_type": "Cd"}}

>  <type>  (11) 
unop_7

>  <geom_source>  (11) 
Heuristics

$$$$

     RDKit          3D

 21 20  0  0  0  0  0  0  0  0999 V2000
    0.0912   -3.1155   -1.3031 C   0  0  0  0  0  0  0  0  0  0  0  0
    0.0912   -3.1155    0.0258 C   0  0  0  0  0  0  0  0  0  0  0  0
    0.0912   -1.9081    0.8411 C   0  0  0  0  0  3  0  0  0  0  0  0
    0.0912   -1.9081    2.1700 C   0  0  0  0  0  0  0  0  0  0  0  0
    0.0912   -2.1889   -1.8665 H   0  0  0  0  0  0  0  0  0  0  0  0
    0.0912   -4.0370   -1.8703 H   0  0  0  0  0  0  0  0  0  0  0  0
    0.0912   -4.0604    0.5624 H   0  0  0  0  0  0  0  0  0  0  0  0
    0.0912   -0.7742    0.1971 H   0  0  0  0  0  0  0  0  0  0  0  0
    0.0912   -2.8347    2.7334 H   0  0  0  0  0  0  0  0  0  0  0  0
    0.0912   -0.9866    2.7372 H   0  0  0  0  0  0  0  0  0  0  0  0
    0.0912    0.3557   -0.4445 C   0  0  0  0  0  0  0  0  0  0  0  0
   -1.1102    0.9589   -0.7871 C   0  0  0  0  0  0  0  0  0  0  0  0
   -1.2619    2.3309   -0.6484 C   0  0  0  0  0  0  0  0  0  0  0  0
   -0.2121    3.0997   -0.1673 C   0  0  0  0  0  0  0  0  0  0  0  0
    0.9893    2.4965    0.1752 C   0  0  0  0  0  0  0  0  0  0  0  0
    1.1410    1.1245    0.0366 C   0  0  0  0  0  0  0  0  0  0  0  0
   -1.9296    0.3588   -1.1626 H   0  0  0  0  0  0  0  0  0  0  0  0
   -2.1997    2.8017   -0.9158 H   0  0  0  0  0  0  0  0  0  0  0  0
   -0.3305    4.1706   -0.0591 H   0  0  0  0  0  0  0  0  0  0  0  0
    1.8087    3.0966    0.5508 H   0  0  0  0  0  0  0  0  0  0  0  0
    2.0788    0.6537    0.3040 H   0  0  0  0  0  0  0  0  0  0  0  0
  1  2  2  3
  1  5  1  0
  1  6  1  0
  2  3  1  0
  2  7  1  0
  3  4  2  3
  4  9  1  0
  4 10  1  0
  8 11  1  0
 11 12  2  0
 11 16  1  0
 12 13  1  0
 12 17  1  0
 13 14  2  0
 13 18  1  0
 14 15  1  0
 14 19  1  0
 15 16  2  0
 15 20  1  0
 16 21  1  0
M  RAD  1   3   2
M  END
>  <reaction>  (12) 
rxn_1666

>  <mol_properties>  (12) 
{"1": {"label": "*0", "atom_type": "Cd"}, "2": {"label": "*1", "atom_type": "Cd"}, "7": {"label": "*2", "atom_type": "H0"}, "10": {"label": "*3", "atom_type": "Cd"}, "11": {"label": "*4", "atom_type": "Cd"}}

>  <type>  (12) 
unop_8

>  <geom_source>  (12) 
Heuristics

$$$$

     RDKit          3D

 21 20  0  0  0  0  0  0  0  0999 V2000
   -0.1998   -3.0369   -0.9055 C   0  0  0  0  0  0  0  0  0  0  0  0
   -0.1998   -3.0369    0.4234 C   0  0  0  0  0  0  0  0  0  0  0  0
   -0.1998   -1.8296    1.2387 C   0  0  0  0  0  3  0  0  0  0  0  0
   -0.1998   -1.8296    2.5676 C   0  0  0  0  0  0  0  0  0  0  0  0
   -0.1998   -2.1103   -1.4689 H   0  0  0  0  0  0  0  0  0  0  0  0
   -0.1998   -3.9585   -1.4727 H   0  0  0  0  0  0  0  0  0  0  0  0
   -0.1998   -3.9819    0.9600 H   0  0  0  0  0  0  0  0  0  0  0  0
   -0.1998   -0.6957    0.5948 H   0  0  0  0  0  0  0  0  0  0  0  0
   -0.1998   -2.7562    3.1310 H   0  0  0  0  0  0  0  0  0  0  0  0
   -0.1998   -0.9081    3.1348 H   0  0  0  0  0  0  0  0  0  0  0  0
   -0.1998    0.4343   -0.0469 C   0  0  0  0  0  0  0  0  0  0  0  0
    0.4009    0.5236   -1.2942 C   0  0  0  0  0  0  0  0  0  0  0  0
    0.7331    1.7650   -1.8167 C   0  0  0  0  0  0  0  0  0  0  0  0
    0.4647    2.9171   -1.0920 C   0  0  0  0  0  0  0  0  0  0  0  0
   -0.1360    2.8277    0.1553 C   0  0  0  0  0  0  0  0  0  0  0  0
   -0.4683    1.5863    0.6778 C   0  0  0  0  0  0  0  0  0  0  0  0
    0.6105   -0.3756   -1.8599 H   0  0  0  0  0  0  0  0  0  0  0  0
    1.2020    1.8348   -2.7903 H   0  0  0  0  0  0  0  0  0  0  0  0
    0.7240    3.8861   -1.4999 H   0  0  0  0  0  0  0  0  0  0  0  0
   -0.3456    3.7270    0.7210 H   0  0  0  0  0  0  0  0  0  0  0  0
   -0.9372    1.5165    1.6514 H   0  0  0  0  0  0  0  0  0  0  0  0
  1  2  2  3
  1  5  1  0
  1  6  1  0
  2  3  1  0
  2  7  1  0
  3  4  2  3
  4  9  1  0
  4 10  1  0
  8 11  1  0
 11 12  2  0
 11 16  1  0
 12 13  1  0
 12 17  1  0
 13 14  2  0
 13 18  1  0
 14 15  1  0
 14 19  1  0
 15 16  2  0
 15 20  1  0
 16 21  1  0
M  RAD  1   3   2
M  END
>  <reaction>  (13) 
rxn_1666

>  <mol_properties>  (13) 
{"1": {"label": "*0", "atom_type": "Cd"}, "2": {"label": "*1", "atom_type": "Cd"}, "7": {"label": "*2", "atom_type": "H0"}, "10": {"label": "*3", "atom_type": "Cd"}, "11": {"label": "*4", "atom_type": "Cd"}}

>  <type>  (13) 
unop_9

>  <geom_source>  (13) 
Heuristics

$$$$

     RDKit          3D

 21 20  0  0  0  0  0  0  0  0999 V2000
    0.2406   -3.0831   -1.1210 C   0  0  0  0  0  0  0  0  0  0  0  0
    0.2406   -3.0831    0.2079 C   0  0  0  0  0  0  0  0  0  0  0  0
    0.2406   -1.8757    1.0231 C   0  0  0  0  0  3  0  0  0  0  0  0
    0.2406   -1.8757    2.3520 C   0  0  0  0  0  0  0  0  0  0  0  0
    0.2406   -2.1565   -1.6845 H   0  0  0  0  0  0  0  0  0  0  0  0
    0.2406   -4.0046   -1.6882 H   0  0  0  0  0  0  0  0  0  0  0  0
    0.2406   -4.0280    0.7445 H   0  0  0  0  0  0  0  0  0  0  0  0
    0.2406   -0.7418    0.3792 H   0  0  0  0  0  0  0  0  0  0  0  0
    0.2406   -2.8023    2.9155 H   0  0  0  0  0  0  0  0  0  0  0  0
    0.2406   -0.9542    2.9192 H   0  0  0  0  0  0  0  0  0  0  0  0
    0.2406    0.3881   -0.2625 C   0  0  0  0  0  0  0  0  0  0  0  0
   -0.7999    0.6946   -1.1274 C   0  0  0  0  0  0  0  0  0  0  0  0
   -1.1999    2.0128   -1.2915 C   0  0  0  0  0  0  0  0  0  0  0  0
   -0.5596    3.0244   -0.5907 C   0  0  0  0  0  0  0  0  0  0  0  0
    0.4809    2.7179    0.2742 C   0  0  0  0  0  0  0  0  0  0  0  0
    0.8810    1.3997    0.4383 C   0  0  0  0  0  0  0  0  0  0  0  0
   -1.2997   -0.0950   -1.6743 H   0  0  0  0  0  0  0  0  0  0  0  0
   -2.0121    2.2521   -1.9665 H   0  0  0  0  0  0  0  0  0  0  0  0
   -0.8719    4.0533   -0.7188 H   0  0  0  0  0  0  0  0  0  0  0  0
    0.9807    3.5075    0.8212 H   0  0  0  0  0  0  0  0  0  0  0  0
    1.6932    1.1605    1.1134 H   0  0  0  0  0  0  0  0  0  0  0  0
  1  2  2  3
  1  5  1  0
  1  6  1  0
  2  3  1  0
  2  7  1  0
  3  4  2  3
  4  9  1  0
  4 10  1  0
  8 11  1  0
 11 12  2  0
 11 16  1  0
 12 13  1  0
 12 17  1  0
 13 14  2  0
 13 18  1  0
 14 15  1  0
 14 19  1  0
 15 16  2  0
 15 20  1  0
 16 21  1  0
M  RAD  1   3   2
M  END
>  <reaction>  (14) 
rxn_1666

>  <mol_properties>  (14) 
{"1": {"label": "*0", "atom_type": "Cd"}, "2": {"label": "*1", "atom_type": "Cd"}, "7": {"label": "*2", "atom_type": "H0"}, "10": {"label": "*3", "atom_type": "Cd"}, "11": {"label": "*4", "atom_type": "Cd"}}

>  <type>  (14) 
unop_10

>  <geom_source>  (14) 
Heuristics

$$$$

     RDKit          3D

 21 20  0  0  0  0  0  0  0  0999 V2000
    0.3321   -3.0465   -1.1016 C   0  0  0  0  0  0  0  0  0  0  0  0
    0.3321   -3.0465    0.2272 C   0  0  0  0  0  0  0  0  0  0  0  0
    0.3321   -1.8392    1.0425 C   0  0  0  0  0  3  0  0  0  0  0  0
    0.3321   -1.8392    2.3714 C   0  0  0  0  0  0  0  0  0  0  0  0
    0.3321   -2.1199   -1.6651 H   0  0  0  0  0  0  0  0  0  0  0  0
    0.3322   -3.9681   -1.6688 H   0  0  0  0  0  0  0  0  0  0  0  0
    0.3321   -3.9915    0.7639 H   0  0  0  0  0  0  0  0  0  0  0  0
    0.3321   -0.7053    0.3986 H   0  0  0  0  0  0  0  0  0  0  0  0
    0.3321   -2.7658    2.9349 H   0  0  0  0  0  0  0  0  0  0  0  0
    0.3321   -0.9176    2.9386 H   0  0  0  0  0  0  0  0  0  0  0  0
    0.3321    0.4247   -0.2431 C   0  0  0  0  0  0  0  0  0  0  0  0
    0.9329    1.5416    0.3191 C   0  0  0  0  0  0  0  0  0  0  0  0
    0.3805    2.7990    0.1228 C   0  0  0  0  0  0  0  0  0  0  0  0
   -0.7725    2.9394   -0.6358 C   0  0  0  0  0  0  0  0  0  0  0  0
   -1.3732    1.8224   -1.1980 C   0  0  0  0  0  0  0  0  0  0  0  0
   -0.8209    0.5650   -1.0017 C   0  0  0  0  0  0  0  0  0  0  0  0
    1.8329    1.4320    0.9113 H   0  0  0  0  0  0  0  0  0  0  0  0
    0.8494    3.6708    0.5617 H   0  0  0  0  0  0  0  0  0  0  0  0
   -1.2036    3.9209   -0.7890 H   0  0  0  0  0  0  0  0  0  0  0  0
   -2.2731    1.9320   -1.7901 H   0  0  0  0  0  0  0  0  0  0  0  0
   -1.2897   -0.3068   -1.4405 H   0  0  0  0  0  0  0  0  0  0  0  0
  1  2  2  3
  1  5  1  0
  1  6  1  0
  2  3  1  0
  2  7  1  0
  3  4  2  3
  4  9  1  0
  4 10  1  0
  8 11  1  0
 11 12  2  0
 11 16  1  0
 12 13  1  0
 12 17  1  0
 13 14  2  0
 13 18  1  0
 14 15  1  0
 14 19  1  0
 15 16  2  0
 15 20  1  0
 16 21  1  0
M  RAD  1   3   2
M  END
>  <reaction>  (15) 
rxn_1666

>  <mol_properties>  (15) 
{"1": {"label": "*0", "atom_type": "Cd"}, "2": {"label": "*1", "atom_type": "Cd"}, "7": {"label": "*2", "atom_type": "H0"}, "10": {"label": "*3", "atom_type": "Cd"}, "11": {"label": "*4", "atom_type": "Cd"}}

>  <type>  (15) 
unop_11

>  <geom_source>  (15) 
Heuristics

$$$$

     RDKit          3D

 21 20  0  0  0  0  0  0  0  0999 V2000
    0.0000   -3.0158   -0.8077 C   0  0  0  0  0  0  0  0  0  0  0  0
    0.0000   -3.0158    0.5212 C   0  0  0  0  0  0  0  0  0  0  0  0
    0.0000   -1.8085    1.3364 C   0  0  0  0  0  3  0  0  0  0  0  0
    0.0000   -1.8085    2.6653 C   0  0  0  0  0  0  0  0  0  0  0  0
    0.0000   -2.0892   -1.3712 H   0  0  0  0  0  0  0  0  0  0  0  0
    0.0000   -3.9374   -1.3749 H   0  0  0  0  0  0  0  0  0  0  0  0
    0.0000   -3.9608    1.0578 H   0  0  0  0  0  0  0  0  0  0  0  0
    0.0000   -0.6746    0.6925 H   0  0  0  0  0  0  0  0  0  0  0  0
    0.0000   -2.7351    3.2288 H   0  0  0  0  0  0  0  0  0  0  0  0
    0.0000   -0.8870    3.2325 H   0  0  0  0  0  0  0  0  0  0  0  0
    0.0000    0.4554    0.0508 C   0  0  0  0  0  0  0  0  0  0  0  0
    0.0000    0.4652   -1.3364 C   0  0  0  0  0  0  0  0  0  0  0  0
    0.0000    1.6716   -2.0215 C   0  0  0  0  0  0  0  0  0  0  0  0
   -0.0000    2.8680   -1.3193 C   0  0  0  0  0  0  0  0  0  0  0  0
   -0.0000    2.8581    0.0679 C   0  0  0  0  0  0  0  0  0  0  0  0
   -0.0000    1.6518    0.7530 C   0  0  0  0  0  0  0  0  0  0  0  0
    0.0000   -0.4687   -1.8845 H   0  0  0  0  0  0  0  0  0  0  0  0
    0.0000    1.6793   -3.1043 H   0  0  0  0  0  0  0  0  0  0  0  0
   -0.0000    3.8097   -1.8540 H   0  0  0  0  0  0  0  0  0  0  0  0
   -0.0000    3.7920    0.6160 H   0  0  0  0  0  0  0  0  0  0  0  0
   -0.0000    1.6441    1.8359 H   0  0  0  0  0  0  0  0  0  0  0  0
  1  2  2  3
  1  5  1  0
  1  6  1  0
  2  3  1  0
  2  7  1  0
  3  4  2  3
  4  9  1  0
  4 10  1  0
  8 11  1  0
 11 12  2  0
 11 16  1  0
 12 13  1  0
 12 17  1  0
 13 14  2  0
 13 18  1  0
 14 15  1  0
 14 19  1  0
 15 16  2  0
 15 20  1  0
 16 21  1  0
M  RAD  1   3   2
M  END
>  <reaction>  (16) 
rxn_1666

>  <mol_properties>  (16) 
{"1": {"label": "*0", "atom_type": "Cd"}, "2": {"label": "*1", "atom_type": "Cd"}, "7": {"label": "*2", "atom_type": "H0"}, "10": {"label": "*3", "atom_type": "Cd"}, "11": {"label": "*4", "atom_type": "Cd"}}

>  <type>  (16) 
unop_12

>  <geom_source>  (16) 
Heuristics

$$$$

     RDKit          3D

 21 20  0  0  0  0  0  0  0  0999 V2000
   -1.7718    0.3169   -0.9814 C   0  0  0  0  0  0  0  0  0  0  0  0
   -3.0636   -0.2082   -0.8684 C   0  0  0  0  0  0  0  0  0  0  0  0
   -0.8654    0.1775    0.0744 C   0  0  0  0  0  0  0  0  0  0  0  0
   -3.4485   -0.8728    0.3011 C   0  0  0  0  0  0  0  0  0  0  0  0
   -1.2498   -0.4867    1.2435 C   0  0  0  0  0  0  0  0  0  0  0  0
   -2.5414   -1.0120    1.3572 C   0  0  0  0  0  0  0  0  0  0  0  0
    2.5934    1.1469   -0.9492 C   0  0  0  0  0  0  0  0  0  0  0  0
    3.9242    1.0712   -0.9025 C   0  0  0  0  0  0  0  0  0  0  0  0
    2.0333   -0.5559    0.7999 C   0  0  0  0  0  0  0  0  0  0  0  0
    1.6755    0.3467   -0.1122 C   0  0  0  0  0  3  0  0  0  0  0  0
   -1.4722    0.8312   -1.8850 H   0  0  0  0  0  0  0  0  0  0  0  0
   -3.7651   -0.1003   -1.6856 H   0  0  0  0  0  0  0  0  0  0  0  0
    0.3472    0.6706   -0.0320 H   0  0  0  0  0  0  0  0  0  0  0  0
   -4.4478   -1.2791    0.3888 H   0  0  0  0  0  0  0  0  0  0  0  0
   -0.5469   -0.5933    2.0592 H   0  0  0  0  0  0  0  0  0  0  0  0
   -2.8389   -1.5261    2.2620 H   0  0  0  0  0  0  0  0  0  0  0  0
    2.1441    1.8415   -1.6471 H   0  0  0  0  0  0  0  0  0  0  0  0
    4.4462    0.4032   -0.2335 H   0  0  0  0  0  0  0  0  0  0  0  0
    4.5177    1.6981   -1.5554 H   0  0  0  0  0  0  0  0  0  0  0  0
    1.2644   -1.0793    1.3512 H   0  0  0  0  0  0  0  0  0  0  0  0
    3.0654   -0.7901    1.0150 H   0  0  0  0  0  0  0  0  0  0  0  0
  1  2  2  0
  1  3  1  0
  1 11  1  0
  2  4  1  0
  2 12  1  0
  3  5  2  0
  3 13  1  0
  4  6  2  0
  4 14  1  0
  5  6  1  0
  5 15  1  0
  6 16  1  0
  7  8  2  3
  7 10  1  0
  7 17  1  0
  8 18  1  0
  8 19  1  0
  9 10  2  3
  9 20  1  0
  9 21  1  0
M  RAD  1  10   2
M  END
>  <reaction>  (17) 
rxn_1666

>  <mol_properties>  (17) 
{"1": {"label": "*0", "atom_type": "Cd"}, "2": {"label": "*1", "atom_type": "Cd"}, "7": {"label": "*2", "atom_type": "H0"}, "10": {"label": "*3", "atom_type": "Cd"}, "11": {"label": "*4", "atom_type": "Cd"}}

>  <type>  (17) 
unop_13

>  <geom_source>  (17) 
AutoTST

$$$$
