
     RDKit          3D

  6  5  0  0  0  0  0  0  0  0999 V2000
   -0.5072   -0.0291   -0.0097 C   0  0  0  0  0  0  0  0  0  0  0  0
    1.1321   -0.1527   -0.7687 S   0  0  0  0  0  0  0  0  0  0  0  0
   -0.6174   -0.7330    0.8127 H   0  0  0  0  0  0  0  0  0  0  0  0
   -0.5863    0.9827    0.3845 H   0  0  0  0  0  0  0  0  0  0  0  0
   -1.2962   -0.1800   -0.7434 H   0  0  0  0  0  0  0  0  0  0  0  0
    1.0312   -1.4237   -1.1764 H   0  0  0  0  0  0  0  0  0  0  0  0
  1  2  1  0
  1  3  1  0
  1  4  1  0
  1  5  1  0
  2  6  1  0
M  END
>  <reaction>  (1) 
rxn_1825

>  <mol_properties>  (1) 
{"0": {"label": "donator", "atom_type": "Cs"}, "2": {"label": "d_hydrogen", "atom_type": "H0"}}

>  <type>  (1) 
r1h

$$$$

     RDKit          3D

 11 10  0  0  0  0  0  0  0  0999 V2000
   -0.9580    1.1013   -2.2955 C   0  0  0  0  0  0  0  0  0  0  0  0
   -0.5129    0.5941   -1.2929 C   0  0  0  0  0  0  0  0  0  0  0  0
   -0.0301   -0.0160   -0.1357 C   0  0  0  0  0  3  0  0  0  0  0  0
   -0.6593   -1.2845    0.3661 C   0  0  0  0  0  0  0  0  0  0  0  0
    1.0691    0.5292    0.5269 C   0  0  0  0  0  0  0  0  0  0  0  0
    2.0168    0.9794    1.1266 C   0  0  0  0  0  0  0  0  0  0  0  0
   -1.3415    1.5561   -3.1769 H   0  0  0  0  0  0  0  0  0  0  0  0
   -1.7166   -1.3186    0.1054 H   0  0  0  0  0  0  0  0  0  0  0  0
   -0.1742   -2.1550   -0.0865 H   0  0  0  0  0  0  0  0  0  0  0  0
   -0.5505   -1.3663    1.4470 H   0  0  0  0  0  0  0  0  0  0  0  0
    2.8514    1.3842    1.6465 H   0  0  0  0  0  0  0  0  0  0  0  0
  1  2  3  0
  1  7  1  0
  2  3  1  0
  3  4  1  0
  3  5  1  0
  4  8  1  0
  4  9  1  0
  4 10  1  0
  5  6  3  0
  6 11  1  0
M  RAD  1   3   2
M  END
>  <reaction>  (2) 
rxn_1825

>  <mol_properties>  (2) 
{"2": {"label": "acceptor", "atom_type": "Cs"}}

>  <type>  (2) 
r2

$$$$

     RDKit          3D

 12 11  0  0  0  0  0  0  0  0999 V2000
    2.1696    0.6854    1.1310 C   0  0  0  0  0  0  0  0  0  0  0  0
    1.2518    0.4145    0.4134 C   0  0  0  0  0  0  0  0  0  0  0  0
    0.1391    0.0443   -0.4683 C   0  0  0  0  0  0  0  0  0  0  0  0
   -0.2054   -1.4492   -0.3339 C   0  0  0  0  0  0  0  0  0  0  0  0
   -1.0375    0.8853   -0.2222 C   0  0  0  0  0  0  0  0  0  0  0  0
   -2.0160    1.5463   -0.0311 C   0  0  0  0  0  0  0  0  0  0  0  0
    2.9819    0.9356    1.7702 H   0  0  0  0  0  0  0  0  0  0  0  0
    0.4629    0.2285   -1.4981 H   0  0  0  0  0  0  0  0  0  0  0  0
   -0.5327   -1.6703    0.6812 H   0  0  0  0  0  0  0  0  0  0  0  0
    0.6727   -2.0535   -0.5593 H   0  0  0  0  0  0  0  0  0  0  0  0
   -1.0064   -1.7081   -1.0256 H   0  0  0  0  0  0  0  0  0  0  0  0
   -2.8802    2.1413    0.1426 H   0  0  0  0  0  0  0  0  0  0  0  0
  1  2  3  0
  1  7  1  0
  2  3  1  0
  3  4  1  0
  3  5  1  0
  3  8  1  0
  4  9  1  0
  4 10  1  0
  4 11  1  0
  5  6  3  0
  6 12  1  0
M  END
>  <reaction>  (3) 
rxn_1825

>  <mol_properties>  (3) 
{"2": {"label": "acceptor", "atom_type": "Cs"}, "11": {"label": "a_hydrogen", "atom_type": "H0"}}

>  <type>  (3) 
r2h

$$$$

     RDKit          3D

 17 15  0  0  0  0  0  0  0  0999 V2000
    1.3872    2.5699   -0.9487 C   0  0  0  0  0  0  0  0  0  0  0  0
    0.8966    1.7794   -0.1916 C   0  0  0  0  0  0  0  0  0  0  0  0
    0.3526    0.7783    0.6924 C   0  0  0  0  0  0  0  0  0  0  0  0
    1.1649    0.5269    1.9580 C   0  0  0  0  0  0  0  0  0  0  0  0
   -1.0704    0.8762    0.9051 C   0  0  0  0  0  0  0  0  0  0  0  0
   -2.2579    0.8865    1.0784 C   0  0  0  0  0  0  0  0  0  0  0  0
    1.8109    3.2849   -1.6120 H   0  0  0  0  0  0  0  0  0  0  0  0
    2.2111    0.3623    1.7002 H   0  0  0  0  0  0  0  0  0  0  0  0
    1.1036    1.3801    2.6352 H   0  0  0  0  0  0  0  0  0  0  0  0
    0.7817   -0.3556    2.4711 H   0  0  0  0  0  0  0  0  0  0  0  0
   -3.3082    0.9286    1.2396 H   0  0  0  0  0  0  0  0  0  0  0  0
    0.4983   -1.6064   -0.5894 C   0  0  0  0  0  3  0  0  0  0  0  0
   -0.2957   -2.7565    0.4629 S   0  0  0  0  0  0  0  0  0  0  0  0
    0.4676   -0.3252    0.0486 H   0  0  0  0  0  0  0  0  0  0  0  0
    1.5559   -1.8267   -0.6966 H   0  0  0  0  0  0  0  0  0  0  0  0
   -0.0061   -1.3793   -1.5235 H   0  0  0  0  0  0  0  0  0  0  0  0
   -1.5348   -2.2596    0.3476 H   0  0  0  0  0  0  0  0  0  0  0  0
  1  2  3  0
  1  7  1  0
  2  3  1  0
  3  4  1  0
  3  5  1  0
  3 14  1  0
  4  8  1  0
  4  9  1  0
  4 10  1  0
  5  6  3  0
  6 11  1  0
 12 13  1  0
 12 15  1  0
 12 16  1  0
 13 17  1  0
M  RAD  1  12   2
M  END
>  <reaction>  (4) 
rxn_1825

>  <mol_properties>  (4) 
{"1": {"label": "*0", "atom_type": "Ct"}, "2": {"label": "*1", "atom_type": "Cs"}, "11": {"label": "*3", "atom_type": "Cs"}, "12": {"label": "*4", "atom_type": "S2s"}, "13": {"label": "*2", "atom_type": "H0"}}

>  <type>  (4) 
ts

$$$$

     RDKit          3D

 17 15  0  0  0  0  0  0  0  0999 V2000
   -2.2342    1.2240    1.9104 C   0  0  0  0  0  0  0  0  0  0  0  0
   -1.2388    1.0719    1.2648 C   0  0  0  0  0  0  0  0  0  0  0  0
   -0.0261    0.9192    0.4532 C   0  0  0  0  0  3  0  0  0  0  0  0
    0.4849    2.2816   -0.0470 C   0  0  0  0  0  0  0  0  0  0  0  0
    1.0185    0.1969    1.1877 C   0  0  0  0  0  0  0  0  0  0  0  0
    1.8928   -0.3757    1.7694 C   0  0  0  0  0  0  0  0  0  0  0  0
   -3.1192    1.3592    2.4843 H   0  0  0  0  0  0  0  0  0  0  0  0
   -0.2943    2.7809   -0.6219 H   0  0  0  0  0  0  0  0  0  0  0  0
    0.7587    2.9138    0.7966 H   0  0  0  0  0  0  0  0  0  0  0  0
    1.3612    2.1392   -0.6785 H   0  0  0  0  0  0  0  0  0  0  0  0
    2.6702   -0.8849    2.2866 H   0  0  0  0  0  0  0  0  0  0  0  0
   -0.0261   -1.5204   -0.5014 C   0  0  0  0  0  0  0  0  0  0  0  0
   -0.0261   -1.5204   -2.3120 S   0  0  0  0  0  0  0  0  0  0  0  0
   -0.0261   -0.3045   -0.0256 H   0  0  0  0  0  0  0  0  0  0  0  0
   -0.9468   -2.0145   -0.1954 H   0  0  0  0  0  0  0  0  0  0  0  0
    0.8182   -2.0804   -0.1049 H   0  0  0  0  0  0  0  0  0  0  0  0
    1.1442   -0.8922   -2.4784 H   0  0  0  0  0  0  0  0  0  0  0  0
  1  2  3  0
  1  7  1  0
  2  3  1  0
  3  4  1  0
  3  5  1  0
  4  8  1  0
  4  9  1  0
  4 10  1  0
  5  6  3  0
  6 11  1  0
 12 13  1  0
 12 14  1  0
 12 15  1  0
 12 16  1  0
 13 17  1  0
M  RAD  1   3   2
M  END
>  <reaction>  (5) 
rxn_1825

>  <mol_properties>  (5) 
{"1": {"label": "*0", "atom_type": "Ct"}, "2": {"label": "*1", "atom_type": "Cs"}, "11": {"label": "*3", "atom_type": "Cs"}, "12": {"label": "*4", "atom_type": "S2s"}, "13": {"label": "*2", "atom_type": "H0"}}

>  <type>  (5) 
unop_1

>  <geom_source>  (5) 
Heuristics

$$$$

     RDKit          3D

 17 15  0  0  0  0  0  0  0  0999 V2000
   -0.9578    2.2646   -1.0381 C   0  0  0  0  0  0  0  0  0  0  0  0
   -0.4155    1.5576   -0.2401 C   0  0  0  0  0  0  0  0  0  0  0  0
    0.2846    0.7079    0.7295 C   0  0  0  0  0  3  0  0  0  0  0  0
    1.5616    1.3910    1.2494 C   0  0  0  0  0  0  0  0  0  0  0  0
   -0.5993    0.3221    1.8351 C   0  0  0  0  0  0  0  0  0  0  0  0
   -1.2939    0.0057    2.7561 C   0  0  0  0  0  0  0  0  0  0  0  0
   -1.4400    2.8932   -1.7476 H   0  0  0  0  0  0  0  0  0  0  0  0
    2.2186    1.6321    0.4144 H   0  0  0  0  0  0  0  0  0  0  0  0
    1.3092    2.3111    1.7748 H   0  0  0  0  0  0  0  0  0  0  0  0
    2.0838    0.7259    1.9364 H   0  0  0  0  0  0  0  0  0  0  0  0
   -1.9115   -0.2756    3.5749 H   0  0  0  0  0  0  0  0  0  0  0  0
    0.2846   -1.7317   -0.2251 C   0  0  0  0  0  0  0  0  0  0  0  0
    0.2846   -1.7317   -2.0358 S   0  0  0  0  0  0  0  0  0  0  0  0
    0.2846   -0.5158    0.2507 H   0  0  0  0  0  0  0  0  0  0  0  0
   -0.6361   -2.2258    0.0808 H   0  0  0  0  0  0  0  0  0  0  0  0
    1.1290   -2.2917    0.1714 H   0  0  0  0  0  0  0  0  0  0  0  0
    1.4549   -1.1035   -2.2021 H   0  0  0  0  0  0  0  0  0  0  0  0
  1  2  3  0
  1  7  1  0
  2  3  1  0
  3  4  1  0
  3  5  1  0
  4  8  1  0
  4  9  1  0
  4 10  1  0
  5  6  3  0
  6 11  1  0
 12 13  1  0
 12 14  1  0
 12 15  1  0
 12 16  1  0
 13 17  1  0
M  RAD  1   3   2
M  END
>  <reaction>  (6) 
rxn_1825

>  <mol_properties>  (6) 
{"1": {"label": "*0", "atom_type": "Ct"}, "2": {"label": "*1", "atom_type": "Cs"}, "11": {"label": "*3", "atom_type": "Cs"}, "12": {"label": "*4", "atom_type": "S2s"}, "13": {"label": "*2", "atom_type": "H0"}}

>  <type>  (6) 
unop_2

>  <geom_source>  (6) 
Heuristics

$$$$

     RDKit          3D

 17 15  0  0  0  0  0  0  0  0999 V2000
   -1.4806    0.7937    2.8380 C   0  0  0  0  0  0  0  0  0  0  0  0
   -0.8874    0.8009    1.7993 C   0  0  0  0  0  0  0  0  0  0  0  0
   -0.1873    0.8350    0.5105 C   0  0  0  0  0  3  0  0  0  0  0  0
   -0.4622    2.1508   -0.2384 C   0  0  0  0  0  0  0  0  0  0  0  0
    1.2526    0.6113    0.6808 C   0  0  0  0  0  0  0  0  0  0  0  0
    2.4321    0.4470    0.7930 C   0  0  0  0  0  0  0  0  0  0  0  0
   -2.0080    0.7872    3.7614 H   0  0  0  0  0  0  0  0  0  0  0  0
   -1.5343    2.2751   -0.3873 H   0  0  0  0  0  0  0  0  0  0  0  0
   -0.0869    2.9965    0.3362 H   0  0  0  0  0  0  0  0  0  0  0  0
    0.0353    2.1360   -1.2076 H   0  0  0  0  0  0  0  0  0  0  0  0
    3.4807    0.3009    0.8927 H   0  0  0  0  0  0  0  0  0  0  0  0
   -0.1873   -1.6045   -0.4442 C   0  0  0  0  0  0  0  0  0  0  0  0
   -0.1873   -1.6045   -2.2548 S   0  0  0  0  0  0  0  0  0  0  0  0
   -0.1873   -0.3887    0.0316 H   0  0  0  0  0  0  0  0  0  0  0  0
   -1.1080   -2.0987   -0.1382 H   0  0  0  0  0  0  0  0  0  0  0  0
    0.6570   -2.1645   -0.0477 H   0  0  0  0  0  0  0  0  0  0  0  0
    0.9830   -0.9764   -2.4212 H   0  0  0  0  0  0  0  0  0  0  0  0
  1  2  3  0
  1  7  1  0
  2  3  1  0
  3  4  1  0
  3  5  1  0
  4  8  1  0
  4  9  1  0
  4 10  1  0
  5  6  3  0
  6 11  1  0
 12 13  1  0
 12 14  1  0
 12 15  1  0
 12 16  1  0
 13 17  1  0
M  RAD  1   3   2
M  END
>  <reaction>  (7) 
rxn_1825

>  <mol_properties>  (7) 
{"1": {"label": "*0", "atom_type": "Ct"}, "2": {"label": "*1", "atom_type": "Cs"}, "11": {"label": "*3", "atom_type": "Cs"}, "12": {"label": "*4", "atom_type": "S2s"}, "13": {"label": "*2", "atom_type": "H0"}}

>  <type>  (7) 
unop_3

>  <geom_source>  (7) 
Heuristics

$$$$

     RDKit          3D

 17 15  0  0  0  0  0  0  0  0999 V2000
    2.1408    1.7420   -0.1197 C   0  0  0  0  0  0  0  0  0  0  0  0
    1.1341    1.2242    0.2667 C   0  0  0  0  0  0  0  0  0  0  0  0
   -0.0785    0.5613    0.7591 C   0  0  0  0  0  3  0  0  0  0  0  0
    0.1995   -0.2160    2.0576 C   0  0  0  0  0  0  0  0  0  0  0  0
   -1.1742    1.5204    0.9380 C   0  0  0  0  0  0  0  0  0  0  0  0
   -2.0796    2.2834    1.1077 C   0  0  0  0  0  0  0  0  0  0  0  0
    3.0358    2.2023   -0.4633 H   0  0  0  0  0  0  0  0  0  0  0  0
    0.9886   -0.9480    1.8892 H   0  0  0  0  0  0  0  0  0  0  0  0
    0.5160    0.4670    2.8448 H   0  0  0  0  0  0  0  0  0  0  0  0
   -0.7044   -0.7308    2.3816 H   0  0  0  0  0  0  0  0  0  0  0  0
   -2.8845    2.9618    1.2585 H   0  0  0  0  0  0  0  0  0  0  0  0
   -0.0785   -1.8783   -0.1956 C   0  0  0  0  0  0  0  0  0  0  0  0
   -0.0785   -1.8783   -2.0062 S   0  0  0  0  0  0  0  0  0  0  0  0
   -0.0785   -0.6624    0.2802 H   0  0  0  0  0  0  0  0  0  0  0  0
   -0.9992   -2.3724    0.1104 H   0  0  0  0  0  0  0  0  0  0  0  0
    0.7659   -2.4383    0.2009 H   0  0  0  0  0  0  0  0  0  0  0  0
    1.0918   -1.2501   -2.1726 H   0  0  0  0  0  0  0  0  0  0  0  0
  1  2  3  0
  1  7  1  0
  2  3  1  0
  3  4  1  0
  3  5  1  0
  4  8  1  0
  4  9  1  0
  4 10  1  0
  5  6  3  0
  6 11  1  0
 12 13  1  0
 12 14  1  0
 12 15  1  0
 12 16  1  0
 13 17  1  0
M  RAD  1   3   2
M  END
>  <reaction>  (8) 
rxn_1825

>  <mol_properties>  (8) 
{"1": {"label": "*0", "atom_type": "Ct"}, "2": {"label": "*1", "atom_type": "Cs"}, "11": {"label": "*3", "atom_type": "Cs"}, "12": {"label": "*4", "atom_type": "S2s"}, "13": {"label": "*2", "atom_type": "H0"}}

>  <type>  (8) 
unop_4

>  <geom_source>  (8) 
Heuristics

$$$$

     RDKit          3D

 17 15  0  0  0  0  0  0  0  0999 V2000
   -0.2300    0.4916    3.2755 C   0  0  0  0  0  0  0  0  0  0  0  0
   -0.1973    0.5741    2.0827 C   0  0  0  0  0  0  0  0  0  0  0  0
   -0.1973    0.6765    0.6192 C   0  0  0  0  0  3  0  0  0  0  0  0
   -1.4619    1.3904    0.1105 C   0  0  0  0  0  0  0  0  0  0  0  0
    1.0184    1.3375    0.1318 C   0  0  0  0  0  0  0  0  0  0  0  0
    1.9928    1.8874   -0.2913 C   0  0  0  0  0  0  0  0  0  0  0  0
   -0.2590    0.4182    4.3361 H   0  0  0  0  0  0  0  0  0  0  0  0
   -2.3497    0.8593    0.4522 H   0  0  0  0  0  0  0  0  0  0  0  0
   -1.4959    2.4113    0.4888 H   0  0  0  0  0  0  0  0  0  0  0  0
   -1.4580    1.4192   -0.9787 H   0  0  0  0  0  0  0  0  0  0  0  0
    2.8590    2.3762   -0.6675 H   0  0  0  0  0  0  0  0  0  0  0  0
   -0.1973   -1.7630   -0.3355 C   0  0  0  0  0  0  0  0  0  0  0  0
   -0.1973   -1.7630   -2.1461 S   0  0  0  0  0  0  0  0  0  0  0  0
   -0.1973   -0.5472    0.1403 H   0  0  0  0  0  0  0  0  0  0  0  0
   -1.1180   -2.2571   -0.0295 H   0  0  0  0  0  0  0  0  0  0  0  0
    0.6470   -2.3230    0.0610 H   0  0  0  0  0  0  0  0  0  0  0  0
    0.9730   -1.1349   -2.3125 H   0  0  0  0  0  0  0  0  0  0  0  0
  1  2  3  0
  1  7  1  0
  2  3  1  0
  3  4  1  0
  3  5  1  0
  4  8  1  0
  4  9  1  0
  4 10  1  0
  5  6  3  0
  6 11  1  0
 12 13  1  0
 12 14  1  0
 12 15  1  0
 12 16  1  0
 13 17  1  0
M  RAD  1   3   2
M  END
>  <reaction>  (9) 
rxn_1825

>  <mol_properties>  (9) 
{"1": {"label": "*0", "atom_type": "Ct"}, "2": {"label": "*1", "atom_type": "Cs"}, "11": {"label": "*3", "atom_type": "Cs"}, "12": {"label": "*4", "atom_type": "S2s"}, "13": {"label": "*2", "atom_type": "H0"}}

>  <type>  (9) 
unop_5

>  <geom_source>  (9) 
Heuristics

$$$$

     RDKit          3D

 17 15  0  0  0  0  0  0  0  0999 V2000
    2.4467    1.3047    0.9893 C   0  0  0  0  0  0  0  0  0  0  0  0
    1.2996    0.9992    0.8417 C   0  0  0  0  0  0  0  0  0  0  0  0
   -0.1006    0.5914    0.6821 C   0  0  0  0  0  3  0  0  0  0  0  0
   -0.5551   -0.3080    1.8449 C   0  0  0  0  0  0  0  0  0  0  0  0
   -0.9808    1.7559    0.5357 C   0  0  0  0  0  0  0  0  0  0  0  0
   -1.7228    2.6882    0.4298 C   0  0  0  0  0  0  0  0  0  0  0  0
    3.4665    1.5762    1.1205 H   0  0  0  0  0  0  0  0  0  0  0  0
    0.0890   -1.1845    1.9086 H   0  0  0  0  0  0  0  0  0  0  0  0
   -0.5005    0.2372    2.7862 H   0  0  0  0  0  0  0  0  0  0  0  0
   -1.5836   -0.6295    1.6841 H   0  0  0  0  0  0  0  0  0  0  0  0
   -2.3824    3.5170    0.3357 H   0  0  0  0  0  0  0  0  0  0  0  0
   -0.1006   -1.8481   -0.2725 C   0  0  0  0  0  0  0  0  0  0  0  0
   -0.1006   -1.8481   -2.0832 S   0  0  0  0  0  0  0  0  0  0  0  0
   -0.1006   -0.6323    0.2032 H   0  0  0  0  0  0  0  0  0  0  0  0
   -1.0213   -2.3423    0.0334 H   0  0  0  0  0  0  0  0  0  0  0  0
    0.7438   -2.4081    0.1239 H   0  0  0  0  0  0  0  0  0  0  0  0
    1.0697   -1.2200   -2.2496 H   0  0  0  0  0  0  0  0  0  0  0  0
  1  2  3  0
  1  7  1  0
  2  3  1  0
  3  4  1  0
  3  5  1  0
  4  8  1  0
  4  9  1  0
  4 10  1  0
  5  6  3  0
  6 11  1  0
 12 13  1  0
 12 14  1  0
 12 15  1  0
 12 16  1  0
 13 17  1  0
M  RAD  1   3   2
M  END
>  <reaction>  (10) 
rxn_1825

>  <mol_properties>  (10) 
{"1": {"label": "*0", "atom_type": "Ct"}, "2": {"label": "*1", "atom_type": "Cs"}, "11": {"label": "*3", "atom_type": "Cs"}, "12": {"label": "*4", "atom_type": "S2s"}, "13": {"label": "*2", "atom_type": "H0"}}

>  <type>  (10) 
unop_6

>  <geom_source>  (10) 
Heuristics

$$$$

     RDKit          3D

 17 15  0  0  0  0  0  0  0  0999 V2000
    2.1130    0.8567    2.1342 C   0  0  0  0  0  0  0  0  0  0  0  0
    1.1329    0.7588    1.4555 C   0  0  0  0  0  0  0  0  0  0  0  0
   -0.0797    0.6062    0.6440 C   0  0  0  0  0  3  0  0  0  0  0  0
   -1.1827   -0.1312    1.4233 C   0  0  0  0  0  0  0  0  0  0  0  0
   -0.5553    1.9025    0.1484 C   0  0  0  0  0  0  0  0  0  0  0  0
   -0.9735    2.9478   -0.2559 C   0  0  0  0  0  0  0  0  0  0  0  0
    2.9845    0.9437    2.7375 H   0  0  0  0  0  0  0  0  0  0  0  0
   -0.8191   -1.1060    1.7467 H   0  0  0  0  0  0  0  0  0  0  0  0
   -1.4725    0.4446    2.3013 H   0  0  0  0  0  0  0  0  0  0  0  0
   -2.0573   -0.2671    0.7879 H   0  0  0  0  0  0  0  0  0  0  0  0
   -1.3453    3.8770   -0.6152 H   0  0  0  0  0  0  0  0  0  0  0  0
   -0.0797   -1.8334   -0.3106 C   0  0  0  0  0  0  0  0  0  0  0  0
   -0.0797   -1.8334   -2.1213 S   0  0  0  0  0  0  0  0  0  0  0  0
   -0.0797   -0.6176    0.1651 H   0  0  0  0  0  0  0  0  0  0  0  0
   -1.0004   -2.3275   -0.0047 H   0  0  0  0  0  0  0  0  0  0  0  0
    0.7646   -2.3934    0.0858 H   0  0  0  0  0  0  0  0  0  0  0  0
    1.0906   -1.2053   -2.2877 H   0  0  0  0  0  0  0  0  0  0  0  0
  1  2  3  0
  1  7  1  0
  2  3  1  0
  3  4  1  0
  3  5  1  0
  4  8  1  0
  4  9  1  0
  4 10  1  0
  5  6  3  0
  6 11  1  0
 12 13  1  0
 12 14  1  0
 12 15  1  0
 12 16  1  0
 13 17  1  0
M  RAD  1   3   2
M  END
>  <reaction>  (11) 
rxn_1825

>  <mol_properties>  (11) 
{"1": {"label": "*0", "atom_type": "Ct"}, "2": {"label": "*1", "atom_type": "Cs"}, "11": {"label": "*3", "atom_type": "Cs"}, "12": {"label": "*4", "atom_type": "S2s"}, "13": {"label": "*2", "atom_type": "H0"}}

>  <type>  (11) 
unop_7

>  <geom_source>  (11) 
Heuristics

$$$$

     RDKit          3D

 17 15  0  0  0  0  0  0  0  0999 V2000
   -2.3820    1.6758    0.7631 C   0  0  0  0  0  0  0  0  0  0  0  0
   -1.2471    1.3156    0.6489 C   0  0  0  0  0  0  0  0  0  0  0  0
    0.1531    0.9077    0.4893 C   0  0  0  0  0  3  0  0  0  0  0  0
    1.0783    2.1303    0.3590 C   0  0  0  0  0  0  0  0  0  0  0  0
    0.5809    0.0323    1.5861 C   0  0  0  0  0  0  0  0  0  0  0  0
    0.9602   -0.6705    2.4766 C   0  0  0  0  0  0  0  0  0  0  0  0
   -3.3910    1.9961    0.8647 H   0  0  0  0  0  0  0  0  0  0  0  0
    0.7646    2.7436   -0.4852 H   0  0  0  0  0  0  0  0  0  0  0  0
    1.0363    2.7326    1.2655 H   0  0  0  0  0  0  0  0  0  0  0  0
    2.1053    1.8024    0.2022 H   0  0  0  0  0  0  0  0  0  0  0  0
    1.2974   -1.2953    3.2684 H   0  0  0  0  0  0  0  0  0  0  0  0
    0.1531   -1.5318   -0.4653 C   0  0  0  0  0  0  0  0  0  0  0  0
    0.1531   -1.5318   -2.2760 S   0  0  0  0  0  0  0  0  0  0  0  0
    0.1531   -0.3160    0.0105 H   0  0  0  0  0  0  0  0  0  0  0  0
   -0.7676   -2.0259   -0.1594 H   0  0  0  0  0  0  0  0  0  0  0  0
    0.9975   -2.0918   -0.0688 H   0  0  0  0  0  0  0  0  0  0  0  0
    1.3234   -0.9037   -2.4424 H   0  0  0  0  0  0  0  0  0  0  0  0
  1  2  3  0
  1  7  1  0
  2  3  1  0
  3  4  1  0
  3  5  1  0
  4  8  1  0
  4  9  1  0
  4 10  1  0
  5  6  3  0
  6 11  1  0
 12 13  1  0
 12 14  1  0
 12 15  1  0
 12 16  1  0
 13 17  1  0
M  RAD  1   3   2
M  END
>  <reaction>  (12) 
rxn_1825

>  <mol_properties>  (12) 
{"1": {"label": "*0", "atom_type": "Ct"}, "2": {"label": "*1", "atom_type": "Cs"}, "11": {"label": "*3", "atom_type": "Cs"}, "12": {"label": "*4", "atom_type": "S2s"}, "13": {"label": "*2", "atom_type": "H0"}}

>  <type>  (12) 
unop_8

>  <geom_source>  (12) 
Heuristics

$$$$

     RDKit          3D

 17 15  0  0  0  0  0  0  0  0999 V2000
    1.3246    2.0778   -0.9243 C   0  0  0  0  0  0  0  0  0  0  0  0
    0.7255    1.3983   -0.1431 C   0  0  0  0  0  0  0  0  0  0  0  0
    0.0254    0.5486    0.8266 C   0  0  0  0  0  3  0  0  0  0  0  0
    0.9466    0.1635    1.9974 C   0  0  0  0  0  0  0  0  0  0  0  0
   -1.2038    1.1898    1.3063 C   0  0  0  0  0  0  0  0  0  0  0  0
   -2.2029    1.6965    1.7257 C   0  0  0  0  0  0  0  0  0  0  0  0
    1.8573    2.6818   -1.6188 H   0  0  0  0  0  0  0  0  0  0  0  0
    1.8327   -0.3453    1.6194 H   0  0  0  0  0  0  0  0  0  0  0  0
    1.2581    1.0549    2.5403 H   0  0  0  0  0  0  0  0  0  0  0  0
    0.4176   -0.4983    2.6824 H   0  0  0  0  0  0  0  0  0  0  0  0
   -3.0912    2.1470    2.0986 H   0  0  0  0  0  0  0  0  0  0  0  0
    0.0254   -1.8909   -0.1281 C   0  0  0  0  0  0  0  0  0  0  0  0
    0.0254   -1.8909   -1.9387 S   0  0  0  0  0  0  0  0  0  0  0  0
    0.0254   -0.6751    0.3477 H   0  0  0  0  0  0  0  0  0  0  0  0
   -0.8953   -2.3851    0.1779 H   0  0  0  0  0  0  0  0  0  0  0  0
    0.8698   -2.4509    0.2684 H   0  0  0  0  0  0  0  0  0  0  0  0
    1.1957   -1.2628   -2.1051 H   0  0  0  0  0  0  0  0  0  0  0  0
  1  2  3  0
  1  7  1  0
  2  3  1  0
  3  4  1  0
  3  5  1  0
  4  8  1  0
  4  9  1  0
  4 10  1  0
  5  6  3  0
  6 11  1  0
 12 13  1  0
 12 14  1  0
 12 15  1  0
 12 16  1  0
 13 17  1  0
M  RAD  1   3   2
M  END
>  <reaction>  (13) 
rxn_1825

>  <mol_properties>  (13) 
{"1": {"label": "*0", "atom_type": "Ct"}, "2": {"label": "*1", "atom_type": "Cs"}, "11": {"label": "*3", "atom_type": "Cs"}, "12": {"label": "*4", "atom_type": "S2s"}, "13": {"label": "*2", "atom_type": "H0"}}

>  <type>  (13) 
unop_9

>  <geom_source>  (13) 
Heuristics

$$$$

     RDKit          3D

 17 15  0  0  0  0  0  0  0  0999 V2000
   -1.9102    2.0546   -0.3102 C   0  0  0  0  0  0  0  0  0  0  0  0
   -0.9402    1.4907    0.1043 C   0  0  0  0  0  0  0  0  0  0  0  0
    0.2725    0.8278    0.5967 C   0  0  0  0  0  3  0  0  0  0  0  0
    1.4140    1.8380    0.8059 C   0  0  0  0  0  0  0  0  0  0  0  0
    0.0035    0.0684    1.8228 C   0  0  0  0  0  0  0  0  0  0  0  0
   -0.1849   -0.5458    2.8318 C   0  0  0  0  0  0  0  0  0  0  0  0
   -2.7726    2.5560   -0.6788 H   0  0  0  0  0  0  0  0  0  0  0  0
    1.6214    2.3608   -0.1272 H   0  0  0  0  0  0  0  0  0  0  0  0
    1.1356    2.5691    1.5639 H   0  0  0  0  0  0  0  0  0  0  0  0
    2.3136    1.3176    1.1333 H   0  0  0  0  0  0  0  0  0  0  0  0
   -0.3524   -1.0919    3.7288 H   0  0  0  0  0  0  0  0  0  0  0  0
    0.2725   -1.6118   -0.3580 C   0  0  0  0  0  0  0  0  0  0  0  0
    0.2725   -1.6118   -2.1686 S   0  0  0  0  0  0  0  0  0  0  0  0
    0.2725   -0.3960    0.1178 H   0  0  0  0  0  0  0  0  0  0  0  0
   -0.6482   -2.1059   -0.0520 H   0  0  0  0  0  0  0  0  0  0  0  0
    1.1168   -2.1718    0.0385 H   0  0  0  0  0  0  0  0  0  0  0  0
    1.4428   -0.9837   -2.3350 H   0  0  0  0  0  0  0  0  0  0  0  0
  1  2  3  0
  1  7  1  0
  2  3  1  0
  3  4  1  0
  3  5  1  0
  4  8  1  0
  4  9  1  0
  4 10  1  0
  5  6  3  0
  6 11  1  0
 12 13  1  0
 12 14  1  0
 12 15  1  0
 12 16  1  0
 13 17  1  0
M  RAD  1   3   2
M  END
>  <reaction>  (14) 
rxn_1825

>  <mol_properties>  (14) 
{"1": {"label": "*0", "atom_type": "Ct"}, "2": {"label": "*1", "atom_type": "Cs"}, "11": {"label": "*3", "atom_type": "Cs"}, "12": {"label": "*4", "atom_type": "S2s"}, "13": {"label": "*2", "atom_type": "H0"}}

>  <type>  (14) 
unop_10

>  <geom_source>  (14) 
Heuristics

$$$$

     RDKit          3D

 17 15  0  0  0  0  0  0  0  0999 V2000
    1.1503    0.5265    3.0008 C   0  0  0  0  0  0  0  0  0  0  0  0
    0.6033    0.5732    1.9380 C   0  0  0  0  0  0  0  0  0  0  0  0
   -0.0968    0.6073    0.6492 C   0  0  0  0  0  3  0  0  0  0  0  0
   -1.6100    0.3956    0.8312 C   0  0  0  0  0  0  0  0  0  0  0  0
    0.1822    1.8521   -0.0754 C   0  0  0  0  0  0  0  0  0  0  0  0
    0.3803    2.8647   -0.6804 C   0  0  0  0  0  0  0  0  0  0  0  0
    1.6366    0.4850    3.9456 H   0  0  0  0  0  0  0  0  0  0  0  0
   -1.7931   -0.5525    1.3359 H   0  0  0  0  0  0  0  0  0  0  0  0
   -2.0333    1.2002    1.4309 H   0  0  0  0  0  0  0  0  0  0  0  0
   -2.1020    0.3855   -0.1409 H   0  0  0  0  0  0  0  0  0  0  0  0
    0.5565    3.7650   -1.2183 H   0  0  0  0  0  0  0  0  0  0  0  0
   -0.0968   -1.8322   -0.3054 C   0  0  0  0  0  0  0  0  0  0  0  0
   -0.0968   -1.8322   -2.1161 S   0  0  0  0  0  0  0  0  0  0  0  0
   -0.0968   -0.6164    0.1704 H   0  0  0  0  0  0  0  0  0  0  0  0
   -1.0175   -2.3264    0.0005 H   0  0  0  0  0  0  0  0  0  0  0  0
    0.7475   -2.3922    0.0911 H   0  0  0  0  0  0  0  0  0  0  0  0
    1.0735   -1.2041   -2.2825 H   0  0  0  0  0  0  0  0  0  0  0  0
  1  2  3  0
  1  7  1  0
  2  3  1  0
  3  4  1  0
  3  5  1  0
  4  8  1  0
  4  9  1  0
  4 10  1  0
  5  6  3  0
  6 11  1  0
 12 13  1  0
 12 14  1  0
 12 15  1  0
 12 16  1  0
 13 17  1  0
M  RAD  1   3   2
M  END
>  <reaction>  (15) 
rxn_1825

>  <mol_properties>  (15) 
{"1": {"label": "*0", "atom_type": "Ct"}, "2": {"label": "*1", "atom_type": "Cs"}, "11": {"label": "*3", "atom_type": "Cs"}, "12": {"label": "*4", "atom_type": "S2s"}, "13": {"label": "*2", "atom_type": "H0"}}

>  <type>  (15) 
unop_11

>  <geom_source>  (15) 
Heuristics

$$$$

     RDKit          3D

 17 15  0  0  0  0  0  0  0  0999 V2000
    0.2124    2.2639   -1.2535 C   0  0  0  0  0  0  0  0  0  0  0  0
    0.1797    1.5149   -0.3214 C   0  0  0  0  0  0  0  0  0  0  0  0
    0.1797    0.5968    0.8229 C   0  0  0  0  0  3  0  0  0  0  0  0
    1.4443    0.7759    1.6810 C   0  0  0  0  0  0  0  0  0  0  0  0
   -1.0360    0.7515    1.6294 C   0  0  0  0  0  0  0  0  0  0  0  0
   -2.0104    0.8681    2.3134 C   0  0  0  0  0  0  0  0  0  0  0  0
    0.2414    2.9298   -2.0821 H   0  0  0  0  0  0  0  0  0  0  0  0
    2.3321    0.6177    1.0696 H   0  0  0  0  0  0  0  0  0  0  0  0
    1.4783    1.7823    2.0961 H   0  0  0  0  0  0  0  0  0  0  0  0
    1.4404    0.0578    2.5004 H   0  0  0  0  0  0  0  0  0  0  0  0
   -2.8767    0.9718    2.9214 H   0  0  0  0  0  0  0  0  0  0  0  0
    0.1797   -1.8427   -0.1317 C   0  0  0  0  0  0  0  0  0  0  0  0
    0.1797   -1.8427   -1.9424 S   0  0  0  0  0  0  0  0  0  0  0  0
    0.1797   -0.6269    0.3440 H   0  0  0  0  0  0  0  0  0  0  0  0
   -0.7410   -2.3369    0.1742 H   0  0  0  0  0  0  0  0  0  0  0  0
    1.0241   -2.4027    0.2648 H   0  0  0  0  0  0  0  0  0  0  0  0
    1.3500   -1.2146   -2.1088 H   0  0  0  0  0  0  0  0  0  0  0  0
  1  2  3  0
  1  7  1  0
  2  3  1  0
  3  4  1  0
  3  5  1  0
  4  8  1  0
  4  9  1  0
  4 10  1  0
  5  6  3  0
  6 11  1  0
 12 13  1  0
 12 14  1  0
 12 15  1  0
 12 16  1  0
 13 17  1  0
M  RAD  1   3   2
M  END
>  <reaction>  (16) 
rxn_1825

>  <mol_properties>  (16) 
{"1": {"label": "*0", "atom_type": "Ct"}, "2": {"label": "*1", "atom_type": "Cs"}, "11": {"label": "*3", "atom_type": "Cs"}, "12": {"label": "*4", "atom_type": "S2s"}, "13": {"label": "*2", "atom_type": "H0"}}

>  <type>  (16) 
unop_12

>  <geom_source>  (16) 
Heuristics

$$$$

     RDKit          3D

 17 15  0  0  0  0  0  0  0  0999 V2000
    3.0512   -0.2508    1.2604 S   0  0  0  0  0  0  0  0  0  0  0  0
   -0.5196    0.1428   -0.1517 C   0  0  0  0  0  3  0  0  0  0  0  0
   -0.6184   -0.6833    1.1287 C   0  0  0  0  0  0  0  0  0  0  0  0
    2.0665    0.0067   -0.2414 C   0  0  0  0  0  0  0  0  0  0  0  0
   -1.2328   -0.5248   -1.2475 C   0  0  0  0  0  0  0  0  0  0  0  0
   -1.0893    1.4796    0.0567 C   0  0  0  0  0  0  0  0  0  0  0  0
   -1.8169   -1.0740   -2.1482 C   0  0  0  0  0  0  0  0  0  0  0  0
   -1.5556    2.5784    0.2285 C   0  0  0  0  0  0  0  0  0  0  0  0
    0.7899    0.2728   -0.4955 H   0  0  0  0  0  0  0  0  0  0  0  0
   -1.6789   -0.8094    1.4392 H   0  0  0  0  0  0  0  0  0  0  0  0
   -0.1681   -1.6863    0.9687 H   0  0  0  0  0  0  0  0  0  0  0  0
   -0.0604   -0.1814    1.9479 H   0  0  0  0  0  0  0  0  0  0  0  0
    2.2553    1.0260   -0.6363 H   0  0  0  0  0  0  0  0  0  0  0  0
    2.3524   -0.7438   -1.0071 H   0  0  0  0  0  0  0  0  0  0  0  0
    2.5192   -1.5391    1.4569 H   0  0  0  0  0  0  0  0  0  0  0  0
   -2.3297   -1.5561   -2.9385 H   0  0  0  0  0  0  0  0  0  0  0  0
   -1.9648    3.5426    0.3792 H   0  0  0  0  0  0  0  0  0  0  0  0
  1  4  1  0
  1 15  1  0
  2  3  1  0
  2  5  1  0
  2  6  1  0
  3 10  1  0
  3 11  1  0
  3 12  1  0
  4  9  1  0
  4 13  1  0
  4 14  1  0
  5  7  3  0
  6  8  3  0
  7 16  1  0
  8 17  1  0
M  RAD  1   2   2
M  END
>  <reaction>  (17) 
rxn_1825

>  <mol_properties>  (17) 
{"1": {"label": "*0", "atom_type": "Ct"}, "2": {"label": "*1", "atom_type": "Cs"}, "11": {"label": "*3", "atom_type": "Cs"}, "12": {"label": "*4", "atom_type": "S2s"}, "13": {"label": "*2", "atom_type": "H0"}}

>  <type>  (17) 
unop_13

>  <geom_source>  (17) 
AutoTST

$$$$
