
     RDKit          3D

 10  9  0  0  0  0  0  0  0  0999 V2000
   -1.1508    0.0666    0.2839 C   0  0  0  0  0  0  0  0  0  0  0  0
    0.1022   -0.3749   -0.4771 C   0  0  0  0  0  0  0  0  0  0  0  0
    1.3428    0.1620    0.1542 C   0  0  0  0  0  0  0  0  0  0  0  0
    2.5613   -0.6971    0.7526 S   0  0  0  0  0  0  0  0  0  0  0  0
   -1.2137    1.1546    0.3481 H   0  0  0  0  0  0  0  0  0  0  0  0
   -2.0472   -0.2935   -0.2212 H   0  0  0  0  0  0  0  0  0  0  0  0
   -1.1467   -0.3334    1.2987 H   0  0  0  0  0  0  0  0  0  0  0  0
    0.1602   -1.4616   -0.5369 H   0  0  0  0  0  0  0  0  0  0  0  0
    0.0536    0.0174   -1.4997 H   0  0  0  0  0  0  0  0  0  0  0  0
    1.3824    1.2528    0.2110 H   0  0  0  0  0  0  0  0  0  0  0  0
  1  2  1  0
  1  5  1  0
  1  6  1  0
  1  7  1  0
  2  3  1  0
  2  8  1  0
  2  9  1  0
  3  4  2  0
  3 10  1  0
M  END
>  <reaction>  (1) 
rxn_2001

>  <mol_properties>  (1) 
{"1": {"label": "donator", "atom_type": "Cs"}, "7": {"label": "d_hydrogen", "atom_type": "H0"}}

>  <type>  (1) 
r1h

$$$$

     RDKit          3D

 11 10  0  0  0  0  0  0  0  0999 V2000
    2.0591    0.2533   -0.1061 C   0  0  0  0  0  0  0  0  0  0  0  0
    0.8045   -0.3111   -0.1535 C   0  0  0  0  0  0  0  0  0  0  0  0
   -0.3816    0.3942   -0.1885 C   0  0  0  0  0  3  0  0  0  0  0  0
   -1.7316   -0.2294   -0.2396 C   0  0  0  0  0  0  0  0  0  0  0  0
    2.9505   -0.3576   -0.0805 H   0  0  0  0  0  0  0  0  0  0  0  0
    2.1872    1.3290   -0.0933 H   0  0  0  0  0  0  0  0  0  0  0  0
    0.7385   -1.3970   -0.1643 H   0  0  0  0  0  0  0  0  0  0  0  0
   -0.3340    1.4795   -0.1783 H   0  0  0  0  0  0  0  0  0  0  0  0
   -1.6704   -1.3186   -0.2461 H   0  0  0  0  0  0  0  0  0  0  0  0
   -2.3404    0.0713    0.6191 H   0  0  0  0  0  0  0  0  0  0  0  0
   -2.2805    0.0851   -1.1331 H   0  0  0  0  0  0  0  0  0  0  0  0
  1  2  2  3
  1  5  1  0
  1  6  1  0
  2  3  1  0
  2  7  1  0
  3  4  1  0
  3  8  1  0
  4  9  1  0
  4 10  1  0
  4 11  1  0
M  RAD  1   3   2
M  END
>  <reaction>  (2) 
rxn_2001

>  <mol_properties>  (2) 
{"2": {"label": "acceptor", "atom_type": "Cs"}}

>  <type>  (2) 
r2

$$$$

     RDKit          3D

 12 11  0  0  0  0  0  0  0  0999 V2000
    1.9877    0.1011    0.4814 C   0  0  0  0  0  0  0  0  0  0  0  0
    0.8179    0.5502    0.0525 C   0  0  0  0  0  0  0  0  0  0  0  0
   -0.2939   -0.2692   -0.5320 C   0  0  0  0  0  0  0  0  0  0  0  0
   -0.0292   -1.7631   -0.6328 C   0  0  0  0  0  0  0  0  0  0  0  0
    2.2522   -0.9490    0.4436 H   0  0  0  0  0  0  0  0  0  0  0  0
    2.7295    0.7757    0.8896 H   0  0  0  0  0  0  0  0  0  0  0  0
    0.6162    1.6164    0.1190 H   0  0  0  0  0  0  0  0  0  0  0  0
   -0.5268    0.1319   -1.5245 H   0  0  0  0  0  0  0  0  0  0  0  0
   -1.1959   -0.0938    0.0644 H   0  0  0  0  0  0  0  0  0  0  0  0
    0.1590   -2.1992    0.3502 H   0  0  0  0  0  0  0  0  0  0  0  0
    0.8382   -1.9701   -1.2626 H   0  0  0  0  0  0  0  0  0  0  0  0
   -0.8879   -2.2759   -1.0672 H   0  0  0  0  0  0  0  0  0  0  0  0
  1  2  2  3
  1  5  1  0
  1  6  1  0
  2  3  1  0
  2  7  1  0
  3  4  1  0
  3  8  1  0
  3  9  1  0
  4 10  1  0
  4 11  1  0
  4 12  1  0
M  END
>  <reaction>  (3) 
rxn_2001

>  <mol_properties>  (3) 
{"2": {"label": "acceptor", "atom_type": "Cs"}, "11": {"label": "a_hydrogen", "atom_type": "H0"}}

>  <type>  (3) 
r2h

$$$$

     RDKit          3D

 21 19  0  0  0  0  0  0  0  0999 V2000
   -0.5159   -3.0564   -0.3424 C   0  0  0  0  0  0  0  0  0  0  0  0
   -0.1978   -2.1942    0.6323 C   0  0  0  0  0  0  0  0  0  0  0  0
   -0.7632   -0.8721    0.7911 C   0  0  0  0  0  3  0  0  0  0  0  0
   -2.1055   -0.5329    0.2052 C   0  0  0  0  0  0  0  0  0  0  0  0
   -0.0112   -4.0095   -0.4292 H   0  0  0  0  0  0  0  0  0  0  0  0
   -1.2898   -2.8436   -1.0690 H   0  0  0  0  0  0  0  0  0  0  0  0
    0.6000   -2.4607    1.3192 H   0  0  0  0  0  0  0  0  0  0  0  0
   -0.5409   -0.3947    1.7426 H   0  0  0  0  0  0  0  0  0  0  0  0
   -2.8909   -1.1351    0.6711 H   0  0  0  0  0  0  0  0  0  0  0  0
   -2.3426    0.5188    0.3635 H   0  0  0  0  0  0  0  0  0  0  0  0
   -2.1340   -0.7193   -0.8695 H   0  0  0  0  0  0  0  0  0  0  0  0
    2.1390    0.5759   -0.1691 C   0  0  0  0  0  0  0  0  0  0  0  0
    0.8195    0.5032   -0.9032 C   0  0  0  0  0  0  0  0  0  0  0  0
    0.7379   -0.3064   -2.0836 C   0  0  0  0  0  0  0  0  0  0  0  0
   -0.3733   -0.1534   -3.2782 S   0  0  0  0  0  0  0  0  0  0  0  0
    2.8617    1.1817   -0.7200 H   0  0  0  0  0  0  0  0  0  0  0  0
    2.0124    1.0225    0.8180 H   0  0  0  0  0  0  0  0  0  0  0  0
    2.5664   -0.4207   -0.0395 H   0  0  0  0  0  0  0  0  0  0  0  0
    0.0714   -0.1464   -0.0619 H   0  0  0  0  0  0  0  0  0  0  0  0
    0.2655    1.4380   -0.9710 H   0  0  0  0  0  0  0  0  0  0  0  0
    1.4652   -1.1169   -2.1464 H   0  0  0  0  0  0  0  0  0  0  0  0
  1  2  2  3
  1  5  1  0
  1  6  1  0
  2  3  1  0
  2  7  1  0
  3  4  1  0
  3  8  1  0
  4  9  1  0
  4 10  1  0
  4 11  1  0
 12 13  1  0
 12 16  1  0
 12 17  1  0
 12 18  1  0
 13 14  1  0
 13 19  1  0
 13 20  1  0
 14 15  2  0
 14 21  1  0
M  RAD  1   3   2
M  END
>  <reaction>  (4) 
rxn_2001

>  <mol_properties>  (4) 
{"1": {"label": "*4", "atom_type": "Cd"}, "2": {"label": "*3", "atom_type": "Cs"}, "12": {"label": "*1", "atom_type": "Cs"}, "13": {"label": "*0", "atom_type": "CS"}, "18": {"label": "*2", "atom_type": "H0"}}

>  <type>  (4) 
ts

$$$$

     RDKit          3D

 21 19  0  0  0  0  0  0  0  0999 V2000
   -0.9317   -3.2463    1.3282 C   0  0  0  0  0  0  0  0  0  0  0  0
   -0.2572   -2.1670    0.9620 C   0  0  0  0  0  0  0  0  0  0  0  0
   -0.7725   -1.0310    0.1296 C   0  0  0  0  0  3  0  0  0  0  0  0
   -2.2173   -1.1519   -0.3287 C   0  0  0  0  0  0  0  0  0  0  0  0
   -0.4692   -4.0156    1.9333 H   0  0  0  0  0  0  0  0  0  0  0  0
   -1.9646   -3.4063    1.0423 H   0  0  0  0  0  0  0  0  0  0  0  0
    0.7768   -2.0684    1.2832 H   0  0  0  0  0  0  0  0  0  0  0  0
   -0.6429   -0.1047    0.7001 H   0  0  0  0  0  0  0  0  0  0  0  0
   -2.8989   -1.2133    0.5219 H   0  0  0  0  0  0  0  0  0  0  0  0
   -2.5039   -0.2850   -0.9250 H   0  0  0  0  0  0  0  0  0  0  0  0
   -2.3652   -2.0434   -0.9414 H   0  0  0  0  0  0  0  0  0  0  0  0
    1.2881    0.2912   -2.3412 C   0  0  0  0  0  0  0  0  0  0  0  0
    1.2881    0.2912   -0.8101 C   0  0  0  0  0  0  0  0  0  0  0  0
    1.2881    1.6794   -0.2634 C   0  0  0  0  0  0  0  0  0  0  0  0
    0.1686    2.3351    0.6841 S   0  0  0  0  0  0  0  0  0  0  0  0
    2.1433    0.8413   -2.7383 H   0  0  0  0  0  0  0  0  0  0  0  0
    1.3389   -0.7297   -2.7199 H   0  0  0  0  0  0  0  0  0  0  0  0
    0.3786    0.7536   -2.7269 H   0  0  0  0  0  0  0  0  0  0  0  0
    0.2605   -0.3682   -0.3415 H   0  0  0  0  0  0  0  0  0  0  0  0
    2.1985   -0.2055   -0.4547 H   0  0  0  0  0  0  0  0  0  0  0  0
    2.1436    2.2846   -0.5738 H   0  0  0  0  0  0  0  0  0  0  0  0
  1  2  2  3
  1  5  1  0
  1  6  1  0
  2  3  1  0
  2  7  1  0
  3  4  1  0
  3  8  1  0
  4  9  1  0
  4 10  1  0
  4 11  1  0
 12 13  1  0
 12 16  1  0
 12 17  1  0
 12 18  1  0
 13 14  1  0
 13 19  1  0
 13 20  1  0
 14 15  2  0
 14 21  1  0
M  RAD  1   3   2
M  END
>  <reaction>  (5) 
rxn_2001

>  <mol_properties>  (5) 
{"1": {"label": "*4", "atom_type": "Cd"}, "2": {"label": "*3", "atom_type": "Cs"}, "12": {"label": "*1", "atom_type": "Cs"}, "13": {"label": "*0", "atom_type": "CS"}, "18": {"label": "*2", "atom_type": "H0"}}

>  <type>  (5) 
unop_1

>  <geom_source>  (5) 
Heuristics

$$$$

     RDKit          3D

 21 19  0  0  0  0  0  0  0  0999 V2000
   -2.1365   -2.6753   -0.8615 C   0  0  0  0  0  0  0  0  0  0  0  0
   -0.9170   -2.2809   -0.5282 C   0  0  0  0  0  0  0  0  0  0  0  0
   -0.5634   -1.2072    0.4572 C   0  0  0  0  0  3  0  0  0  0  0  0
   -1.7391   -0.5156    1.1290 C   0  0  0  0  0  0  0  0  0  0  0  0
   -2.2899   -3.4635   -1.5877 H   0  0  0  0  0  0  0  0  0  0  0  0
   -3.0253   -2.2325   -0.4278 H   0  0  0  0  0  0  0  0  0  0  0  0
   -0.0676   -2.7673   -1.0014 H   0  0  0  0  0  0  0  0  0  0  0  0
    0.0906   -1.6460    1.2188 H   0  0  0  0  0  0  0  0  0  0  0  0
   -2.3492   -1.2265    1.6896 H   0  0  0  0  0  0  0  0  0  0  0  0
   -1.3884    0.2464    1.8257 H   0  0  0  0  0  0  0  0  0  0  0  0
   -2.3834   -0.0272    0.3952 H   0  0  0  0  0  0  0  0  0  0  0  0
    1.4973    0.1150   -2.0136 C   0  0  0  0  0  0  0  0  0  0  0  0
    1.4973    0.1150   -0.4825 C   0  0  0  0  0  0  0  0  0  0  0  0
    1.4973    1.5032    0.0642 C   0  0  0  0  0  0  0  0  0  0  0  0
    0.3778    2.1589    1.0117 S   0  0  0  0  0  0  0  0  0  0  0  0
    2.3525    0.6652   -2.4107 H   0  0  0  0  0  0  0  0  0  0  0  0
    1.5481   -0.9059   -2.3922 H   0  0  0  0  0  0  0  0  0  0  0  0
    0.5878    0.5774   -2.3992 H   0  0  0  0  0  0  0  0  0  0  0  0
    0.4696   -0.5444   -0.0139 H   0  0  0  0  0  0  0  0  0  0  0  0
    2.4077   -0.3817   -0.1271 H   0  0  0  0  0  0  0  0  0  0  0  0
    2.3528    2.1084   -0.2462 H   0  0  0  0  0  0  0  0  0  0  0  0
  1  2  2  3
  1  5  1  0
  1  6  1  0
  2  3  1  0
  2  7  1  0
  3  4  1  0
  3  8  1  0
  4  9  1  0
  4 10  1  0
  4 11  1  0
 12 13  1  0
 12 16  1  0
 12 17  1  0
 12 18  1  0
 13 14  1  0
 13 19  1  0
 13 20  1  0
 14 15  2  0
 14 21  1  0
M  RAD  1   3   2
M  END
>  <reaction>  (6) 
rxn_2001

>  <mol_properties>  (6) 
{"1": {"label": "*4", "atom_type": "Cd"}, "2": {"label": "*3", "atom_type": "Cs"}, "12": {"label": "*1", "atom_type": "Cs"}, "13": {"label": "*0", "atom_type": "CS"}, "18": {"label": "*2", "atom_type": "H0"}}

>  <type>  (6) 
unop_2

>  <geom_source>  (6) 
Heuristics

$$$$

     RDKit          3D

 21 19  0  0  0  0  0  0  0  0999 V2000
   -0.8934   -2.7776    1.9015 C   0  0  0  0  0  0  0  0  0  0  0  0
   -0.4220   -1.6600    1.3698 C   0  0  0  0  0  0  0  0  0  0  0  0
   -0.8129   -1.0641    0.0503 C   0  0  0  0  0  3  0  0  0  0  0  0
   -1.8570   -1.8378   -0.7391 C   0  0  0  0  0  0  0  0  0  0  0  0
   -0.5464   -3.1274    2.8655 H   0  0  0  0  0  0  0  0  0  0  0  0
   -1.6387   -3.3852    1.4019 H   0  0  0  0  0  0  0  0  0  0  0  0
    0.3251   -1.0974    1.9241 H   0  0  0  0  0  0  0  0  0  0  0  0
   -1.1679   -0.0433    0.2296 H   0  0  0  0  0  0  0  0  0  0  0  0
   -2.7903   -1.9275   -0.1798 H   0  0  0  0  0  0  0  0  0  0  0  0
   -2.0782   -1.3326   -1.6798 H   0  0  0  0  0  0  0  0  0  0  0  0
   -1.5093   -2.8457   -0.9741 H   0  0  0  0  0  0  0  0  0  0  0  0
    1.2477    0.2581   -2.4205 C   0  0  0  0  0  0  0  0  0  0  0  0
    1.2477    0.2581   -0.8894 C   0  0  0  0  0  0  0  0  0  0  0  0
    1.2477    1.6462   -0.3428 C   0  0  0  0  0  0  0  0  0  0  0  0
    0.1282    2.3019    0.6048 S   0  0  0  0  0  0  0  0  0  0  0  0
    2.1029    0.8082   -2.8176 H   0  0  0  0  0  0  0  0  0  0  0  0
    1.2986   -0.7629   -2.7992 H   0  0  0  0  0  0  0  0  0  0  0  0
    0.3382    0.7204   -2.8062 H   0  0  0  0  0  0  0  0  0  0  0  0
    0.2201   -0.4013   -0.4208 H   0  0  0  0  0  0  0  0  0  0  0  0
    2.1581   -0.2386   -0.5340 H   0  0  0  0  0  0  0  0  0  0  0  0
    2.1032    2.2515   -0.6531 H   0  0  0  0  0  0  0  0  0  0  0  0
  1  2  2  3
  1  5  1  0
  1  6  1  0
  2  3  1  0
  2  7  1  0
  3  4  1  0
  3  8  1  0
  4  9  1  0
  4 10  1  0
  4 11  1  0
 12 13  1  0
 12 16  1  0
 12 17  1  0
 12 18  1  0
 13 14  1  0
 13 19  1  0
 13 20  1  0
 14 15  2  0
 14 21  1  0
M  RAD  1   3   2
M  END
>  <reaction>  (7) 
rxn_2001

>  <mol_properties>  (7) 
{"1": {"label": "*4", "atom_type": "Cd"}, "2": {"label": "*3", "atom_type": "Cs"}, "12": {"label": "*1", "atom_type": "Cs"}, "13": {"label": "*0", "atom_type": "CS"}, "18": {"label": "*2", "atom_type": "H0"}}

>  <type>  (7) 
unop_3

>  <geom_source>  (7) 
Heuristics

$$$$

     RDKit          3D

 21 19  0  0  0  0  0  0  0  0999 V2000
   -2.5603   -0.0773    0.2877 C   0  0  0  0  0  0  0  0  0  0  0  0
   -1.8765   -1.0315   -0.3254 C   0  0  0  0  0  0  0  0  0  0  0  0
   -0.6287   -1.6976    0.1730 C   0  0  0  0  0  3  0  0  0  0  0  0
   -0.1154   -1.2127    1.5196 C   0  0  0  0  0  0  0  0  0  0  0  0
   -3.4543    0.3424   -0.1558 H   0  0  0  0  0  0  0  0  0  0  0  0
   -2.2597    0.3217    1.2493 H   0  0  0  0  0  0  0  0  0  0  0  0
   -2.2330   -1.3871   -1.2889 H   0  0  0  0  0  0  0  0  0  0  0  0
   -0.8124   -2.7768    0.2152 H   0  0  0  0  0  0  0  0  0  0  0  0
   -0.8558   -1.3709    2.3061 H   0  0  0  0  0  0  0  0  0  0  0  0
    0.7909   -1.7504    1.8004 H   0  0  0  0  0  0  0  0  0  0  0  0
    0.1222   -0.1475    1.4928 H   0  0  0  0  0  0  0  0  0  0  0  0
    1.4320   -0.3754   -2.2978 C   0  0  0  0  0  0  0  0  0  0  0  0
    1.4320   -0.3754   -0.7667 C   0  0  0  0  0  0  0  0  0  0  0  0
    1.4320    1.0127   -0.2200 C   0  0  0  0  0  0  0  0  0  0  0  0
    0.3124    1.6684    0.7275 S   0  0  0  0  0  0  0  0  0  0  0  0
    2.2872    0.1747   -2.6949 H   0  0  0  0  0  0  0  0  0  0  0  0
    1.4828   -1.3964   -2.6765 H   0  0  0  0  0  0  0  0  0  0  0  0
    0.5225    0.0869   -2.6835 H   0  0  0  0  0  0  0  0  0  0  0  0
    0.4043   -1.0348   -0.2981 H   0  0  0  0  0  0  0  0  0  0  0  0
    2.3423   -0.8721   -0.4113 H   0  0  0  0  0  0  0  0  0  0  0  0
    2.2874    1.6180   -0.5304 H   0  0  0  0  0  0  0  0  0  0  0  0
  1  2  2  3
  1  5  1  0
  1  6  1  0
  2  3  1  0
  2  7  1  0
  3  4  1  0
  3  8  1  0
  4  9  1  0
  4 10  1  0
  4 11  1  0
 12 13  1  0
 12 16  1  0
 12 17  1  0
 12 18  1  0
 13 14  1  0
 13 19  1  0
 13 20  1  0
 14 15  2  0
 14 21  1  0
M  RAD  1   3   2
M  END
>  <reaction>  (8) 
rxn_2001

>  <mol_properties>  (8) 
{"1": {"label": "*4", "atom_type": "Cd"}, "2": {"label": "*3", "atom_type": "Cs"}, "12": {"label": "*1", "atom_type": "Cs"}, "13": {"label": "*0", "atom_type": "CS"}, "18": {"label": "*2", "atom_type": "H0"}}

>  <type>  (8) 
unop_4

>  <geom_source>  (8) 
Heuristics

$$$$

     RDKit          3D

 21 19  0  0  0  0  0  0  0  0999 V2000
   -0.8292   -2.1318    2.2795 C   0  0  0  0  0  0  0  0  0  0  0  0
   -0.8502   -1.0901    1.4620 C   0  0  0  0  0  0  0  0  0  0  0  0
   -0.9139   -1.1310   -0.0358 C   0  0  0  0  0  3  0  0  0  0  0  0
   -0.9580   -2.5184   -0.6561 C   0  0  0  0  0  0  0  0  0  0  0  0
   -0.7822   -1.9987    3.3529 H   0  0  0  0  0  0  0  0  0  0  0  0
   -0.8578   -3.1521    1.9156 H   0  0  0  0  0  0  0  0  0  0  0  0
   -0.8191   -0.0925    1.8929 H   0  0  0  0  0  0  0  0  0  0  0  0
   -1.7902   -0.5562   -0.3551 H   0  0  0  0  0  0  0  0  0  0  0  0
   -1.8343   -3.0755   -0.3189 H   0  0  0  0  0  0  0  0  0  0  0  0
   -1.0030   -2.4507   -1.7436 H   0  0  0  0  0  0  0  0  0  0  0  0
   -0.0711   -3.0983   -0.3933 H   0  0  0  0  0  0  0  0  0  0  0  0
    1.1468    0.1912   -2.5066 C   0  0  0  0  0  0  0  0  0  0  0  0
    1.1468    0.1912   -0.9755 C   0  0  0  0  0  0  0  0  0  0  0  0
    1.1468    1.5794   -0.4289 C   0  0  0  0  0  0  0  0  0  0  0  0
    0.0272    2.2351    0.5187 S   0  0  0  0  0  0  0  0  0  0  0  0
    2.0020    0.7414   -2.9037 H   0  0  0  0  0  0  0  0  0  0  0  0
    1.1976   -0.8297   -2.8853 H   0  0  0  0  0  0  0  0  0  0  0  0
    0.2373    0.6536   -2.8923 H   0  0  0  0  0  0  0  0  0  0  0  0
    0.1191   -0.4682   -0.5069 H   0  0  0  0  0  0  0  0  0  0  0  0
    2.0571   -0.3055   -0.6201 H   0  0  0  0  0  0  0  0  0  0  0  0
    2.0022    2.1846   -0.7392 H   0  0  0  0  0  0  0  0  0  0  0  0
  1  2  2  3
  1  5  1  0
  1  6  1  0
  2  3  1  0
  2  7  1  0
  3  4  1  0
  3  8  1  0
  4  9  1  0
  4 10  1  0
  4 11  1  0
 12 13  1  0
 12 16  1  0
 12 17  1  0
 12 18  1  0
 13 14  1  0
 13 19  1  0
 13 20  1  0
 14 15  2  0
 14 21  1  0
M  RAD  1   3   2
M  END
>  <reaction>  (9) 
rxn_2001

>  <mol_properties>  (9) 
{"1": {"label": "*4", "atom_type": "Cd"}, "2": {"label": "*3", "atom_type": "Cs"}, "12": {"label": "*1", "atom_type": "Cs"}, "13": {"label": "*0", "atom_type": "CS"}, "18": {"label": "*2", "atom_type": "H0"}}

>  <type>  (9) 
unop_5

>  <geom_source>  (9) 
Heuristics

$$$$

     RDKit          3D

 21 19  0  0  0  0  0  0  0  0999 V2000
   -2.1160    0.0729    1.2184 C   0  0  0  0  0  0  0  0  0  0  0  0
   -1.8944   -0.7121    0.1750 C   0  0  0  0  0  0  0  0  0  0  0  0
   -0.7584   -1.6768    0.0080 C   0  0  0  0  0  3  0  0  0  0  0  0
    0.2254   -1.7436    1.1654 C   0  0  0  0  0  0  0  0  0  0  0  0
   -2.9690    0.7391    1.2452 H   0  0  0  0  0  0  0  0  0  0  0  0
   -1.4616    0.0839    2.0820 H   0  0  0  0  0  0  0  0  0  0  0  0
   -2.5905   -0.6739   -0.6592 H   0  0  0  0  0  0  0  0  0  0  0  0
   -1.1803   -2.6711   -0.1752 H   0  0  0  0  0  0  0  0  0  0  0  0
   -0.2705   -2.0455    2.0900 H   0  0  0  0  0  0  0  0  0  0  0  0
    1.0137   -2.4677    0.9570 H   0  0  0  0  0  0  0  0  0  0  0  0
    0.6981   -0.7751    1.3399 H   0  0  0  0  0  0  0  0  0  0  0  0
    1.3022   -0.3547   -2.4628 C   0  0  0  0  0  0  0  0  0  0  0  0
    1.3022   -0.3547   -0.9317 C   0  0  0  0  0  0  0  0  0  0  0  0
    1.3022    1.0335   -0.3850 C   0  0  0  0  0  0  0  0  0  0  0  0
    0.1827    1.6892    0.5625 S   0  0  0  0  0  0  0  0  0  0  0  0
    2.1574    0.1955   -2.8599 H   0  0  0  0  0  0  0  0  0  0  0  0
    1.3530   -1.3756   -2.8415 H   0  0  0  0  0  0  0  0  0  0  0  0
    0.3927    0.1077   -2.8484 H   0  0  0  0  0  0  0  0  0  0  0  0
    0.2746   -1.0141   -0.4631 H   0  0  0  0  0  0  0  0  0  0  0  0
    2.2126   -0.8514   -0.5763 H   0  0  0  0  0  0  0  0  0  0  0  0
    2.1577    1.6388   -0.6954 H   0  0  0  0  0  0  0  0  0  0  0  0
  1  2  2  3
  1  5  1  0
  1  6  1  0
  2  3  1  0
  2  7  1  0
  3  4  1  0
  3  8  1  0
  4  9  1  0
  4 10  1  0
  4 11  1  0
 12 13  1  0
 12 16  1  0
 12 17  1  0
 12 18  1  0
 13 14  1  0
 13 19  1  0
 13 20  1  0
 14 15  2  0
 14 21  1  0
M  RAD  1   3   2
M  END
>  <reaction>  (10) 
rxn_2001

>  <mol_properties>  (10) 
{"1": {"label": "*4", "atom_type": "Cd"}, "2": {"label": "*3", "atom_type": "Cs"}, "12": {"label": "*1", "atom_type": "Cs"}, "13": {"label": "*0", "atom_type": "CS"}, "18": {"label": "*2", "atom_type": "H0"}}

>  <type>  (10) 
unop_6

>  <geom_source>  (10) 
Heuristics

$$$$

     RDKit          3D

 21 19  0  0  0  0  0  0  0  0999 V2000
   -1.5171   -0.3098    2.0044 C   0  0  0  0  0  0  0  0  0  0  0  0
   -1.7094   -0.6047    0.7278 C   0  0  0  0  0  0  0  0  0  0  0  0
   -0.8915   -1.5467   -0.1046 C   0  0  0  0  0  3  0  0  0  0  0  0
    0.2700   -2.2191    0.6099 C   0  0  0  0  0  0  0  0  0  0  0  0
   -2.1656    0.3867    2.5208 H   0  0  0  0  0  0  0  0  0  0  0  0
   -0.7118   -0.7467    2.5831 H   0  0  0  0  0  0  0  0  0  0  0  0
   -2.5366   -0.1307    0.2053 H   0  0  0  0  0  0  0  0  0  0  0  0
   -1.5629   -2.3088   -0.5153 H   0  0  0  0  0  0  0  0  0  0  0  0
   -0.0770   -2.8154    1.4560 H   0  0  0  0  0  0  0  0  0  0  0  0
    0.8054   -2.8829   -0.0698 H   0  0  0  0  0  0  0  0  0  0  0  0
    0.9818   -1.4830    0.9886 H   0  0  0  0  0  0  0  0  0  0  0  0
    1.1691   -0.2245   -2.5755 C   0  0  0  0  0  0  0  0  0  0  0  0
    1.1691   -0.2245   -1.0444 C   0  0  0  0  0  0  0  0  0  0  0  0
    1.1691    1.1637   -0.4977 C   0  0  0  0  0  0  0  0  0  0  0  0
    0.0496    1.8194    0.4498 S   0  0  0  0  0  0  0  0  0  0  0  0
    2.0243    0.3256   -2.9726 H   0  0  0  0  0  0  0  0  0  0  0  0
    1.2200   -1.2454   -2.9541 H   0  0  0  0  0  0  0  0  0  0  0  0
    0.2596    0.2379   -2.9611 H   0  0  0  0  0  0  0  0  0  0  0  0
    0.1415   -0.8839   -0.5757 H   0  0  0  0  0  0  0  0  0  0  0  0
    2.0795   -0.7212   -0.6890 H   0  0  0  0  0  0  0  0  0  0  0  0
    2.0246    1.7689   -0.8080 H   0  0  0  0  0  0  0  0  0  0  0  0
  1  2  2  3
  1  5  1  0
  1  6  1  0
  2  3  1  0
  2  7  1  0
  3  4  1  0
  3  8  1  0
  4  9  1  0
  4 10  1  0
  4 11  1  0
 12 13  1  0
 12 16  1  0
 12 17  1  0
 12 18  1  0
 13 14  1  0
 13 19  1  0
 13 20  1  0
 14 15  2  0
 14 21  1  0
M  RAD  1   3   2
M  END
>  <reaction>  (11) 
rxn_2001

>  <mol_properties>  (11) 
{"1": {"label": "*4", "atom_type": "Cd"}, "2": {"label": "*3", "atom_type": "Cs"}, "12": {"label": "*1", "atom_type": "Cs"}, "13": {"label": "*0", "atom_type": "CS"}, "18": {"label": "*2", "atom_type": "H0"}}

>  <type>  (11) 
unop_7

>  <geom_source>  (11) 
Heuristics

$$$$

     RDKit          3D

 21 19  0  0  0  0  0  0  0  0999 V2000
   -1.1384   -3.4887    0.5376 C   0  0  0  0  0  0  0  0  0  0  0  0
   -0.3263   -2.4503    0.4109 C   0  0  0  0  0  0  0  0  0  0  0  0
   -0.7298   -1.0156    0.2438 C   0  0  0  0  0  3  0  0  0  0  0  0
   -2.2268   -0.7503    0.2205 C   0  0  0  0  0  0  0  0  0  0  0  0
   -0.7485   -4.4920    0.6538 H   0  0  0  0  0  0  0  0  0  0  0  0
   -2.2167   -3.3826    0.5307 H   0  0  0  0  0  0  0  0  0  0  0  0
    0.7464   -2.6265    0.4260 H   0  0  0  0  0  0  0  0  0  0  0  0
   -0.2649   -0.4353    1.0484 H   0  0  0  0  0  0  0  0  0  0  0  0
   -2.7008   -1.0727    1.1495 H   0  0  0  0  0  0  0  0  0  0  0  0
   -2.4253    0.3148    0.0959 H   0  0  0  0  0  0  0  0  0  0  0  0
   -2.7101   -1.2793   -0.6032 H   0  0  0  0  0  0  0  0  0  0  0  0
    1.3309    0.3066   -2.2270 C   0  0  0  0  0  0  0  0  0  0  0  0
    1.3309    0.3066   -0.6959 C   0  0  0  0  0  0  0  0  0  0  0  0
    1.3309    1.6948   -0.1492 C   0  0  0  0  0  0  0  0  0  0  0  0
    0.2113    2.3504    0.7983 S   0  0  0  0  0  0  0  0  0  0  0  0
    2.1861    0.8567   -2.6241 H   0  0  0  0  0  0  0  0  0  0  0  0
    1.3817   -0.7143   -2.6056 H   0  0  0  0  0  0  0  0  0  0  0  0
    0.4214    0.7689   -2.6126 H   0  0  0  0  0  0  0  0  0  0  0  0
    0.3032   -0.3528   -0.2272 H   0  0  0  0  0  0  0  0  0  0  0  0
    2.2412   -0.1901   -0.3405 H   0  0  0  0  0  0  0  0  0  0  0  0
    2.1863    2.3000   -0.4595 H   0  0  0  0  0  0  0  0  0  0  0  0
  1  2  2  3
  1  5  1  0
  1  6  1  0
  2  3  1  0
  2  7  1  0
  3  4  1  0
  3  8  1  0
  4  9  1  0
  4 10  1  0
  4 11  1  0
 12 13  1  0
 12 16  1  0
 12 17  1  0
 12 18  1  0
 13 14  1  0
 13 19  1  0
 13 20  1  0
 14 15  2  0
 14 21  1  0
M  RAD  1   3   2
M  END
>  <reaction>  (12) 
rxn_2001

>  <mol_properties>  (12) 
{"1": {"label": "*4", "atom_type": "Cd"}, "2": {"label": "*3", "atom_type": "Cs"}, "12": {"label": "*1", "atom_type": "Cs"}, "13": {"label": "*0", "atom_type": "CS"}, "18": {"label": "*2", "atom_type": "H0"}}

>  <type>  (12) 
unop_8

>  <geom_source>  (12) 
Heuristics

$$$$

     RDKit          3D

 21 19  0  0  0  0  0  0  0  0999 V2000
   -2.7376   -0.7186   -0.5208 C   0  0  0  0  0  0  0  0  0  0  0  0
   -1.6593   -1.4772   -0.6463 C   0  0  0  0  0  0  0  0  0  0  0  0
   -0.5359   -1.6032    0.3392 C   0  0  0  0  0  3  0  0  0  0  0  0
   -0.6697   -0.7668    1.6019 C   0  0  0  0  0  0  0  0  0  0  0  0
   -3.4973   -0.6956   -1.2917 H   0  0  0  0  0  0  0  0  0  0  0  0
   -2.9063   -0.0942    0.3486 H   0  0  0  0  0  0  0  0  0  0  0  0
   -1.5516   -2.0802   -1.5445 H   0  0  0  0  0  0  0  0  0  0  0  0
   -0.4344   -2.6608    0.6064 H   0  0  0  0  0  0  0  0  0  0  0  0
   -1.5691   -1.0335    2.1603 H   0  0  0  0  0  0  0  0  0  0  0  0
    0.1886   -0.9215    2.2567 H   0  0  0  0  0  0  0  0  0  0  0  0
   -0.7245    0.2981    1.3677 H   0  0  0  0  0  0  0  0  0  0  0  0
    1.5247   -0.2811   -2.1316 C   0  0  0  0  0  0  0  0  0  0  0  0
    1.5247   -0.2811   -0.6005 C   0  0  0  0  0  0  0  0  0  0  0  0
    1.5247    1.1071   -0.0539 C   0  0  0  0  0  0  0  0  0  0  0  0
    0.4052    1.7628    0.8937 S   0  0  0  0  0  0  0  0  0  0  0  0
    2.3799    0.2691   -2.5287 H   0  0  0  0  0  0  0  0  0  0  0  0
    1.5756   -1.3020   -2.5103 H   0  0  0  0  0  0  0  0  0  0  0  0
    0.6153    0.1813   -2.5173 H   0  0  0  0  0  0  0  0  0  0  0  0
    0.4971   -0.9405   -0.1319 H   0  0  0  0  0  0  0  0  0  0  0  0
    2.4351   -0.7778   -0.2451 H   0  0  0  0  0  0  0  0  0  0  0  0
    2.3802    1.7124   -0.3642 H   0  0  0  0  0  0  0  0  0  0  0  0
  1  2  2  3
  1  5  1  0
  1  6  1  0
  2  3  1  0
  2  7  1  0
  3  4  1  0
  3  8  1  0
  4  9  1  0
  4 10  1  0
  4 11  1  0
 12 13  1  0
 12 16  1  0
 12 17  1  0
 12 18  1  0
 13 14  1  0
 13 19  1  0
 13 20  1  0
 14 15  2  0
 14 21  1  0
M  RAD  1   3   2
M  END
>  <reaction>  (13) 
rxn_2001

>  <mol_properties>  (13) 
{"1": {"label": "*4", "atom_type": "Cd"}, "2": {"label": "*3", "atom_type": "Cs"}, "12": {"label": "*1", "atom_type": "Cs"}, "13": {"label": "*0", "atom_type": "CS"}, "18": {"label": "*2", "atom_type": "H0"}}

>  <type>  (13) 
unop_9

>  <geom_source>  (13) 
Heuristics

$$$$

     RDKit          3D

 21 19  0  0  0  0  0  0  0  0999 V2000
   -1.5772   -3.3210   -0.2840 C   0  0  0  0  0  0  0  0  0  0  0  0
   -0.5686   -2.4772   -0.1273 C   0  0  0  0  0  0  0  0  0  0  0  0
   -0.6540   -1.0653    0.3711 C   0  0  0  0  0  3  0  0  0  0  0  0
   -2.0488   -0.5748    0.7260 C   0  0  0  0  0  0  0  0  0  0  0  0
   -1.4130   -4.3257   -0.6524 H   0  0  0  0  0  0  0  0  0  0  0  0
   -2.6000   -3.0474   -0.0534 H   0  0  0  0  0  0  0  0  0  0  0  0
    0.4338   -2.8156   -0.3775 H   0  0  0  0  0  0  0  0  0  0  0  0
    0.0029   -0.9716    1.2428 H   0  0  0  0  0  0  0  0  0  0  0  0
   -2.4933   -1.1827    1.5164 H   0  0  0  0  0  0  0  0  0  0  0  0
   -2.0142    0.4571    1.0773 H   0  0  0  0  0  0  0  0  0  0  0  0
   -2.7138   -0.6117   -0.1390 H   0  0  0  0  0  0  0  0  0  0  0  0
    1.4066    0.2569   -2.0998 C   0  0  0  0  0  0  0  0  0  0  0  0
    1.4066    0.2569   -0.5687 C   0  0  0  0  0  0  0  0  0  0  0  0
    1.4066    1.6450   -0.0220 C   0  0  0  0  0  0  0  0  0  0  0  0
    0.2871    2.3007    0.9255 S   0  0  0  0  0  0  0  0  0  0  0  0
    2.2618    0.8070   -2.4969 H   0  0  0  0  0  0  0  0  0  0  0  0
    1.4575   -0.7641   -2.4784 H   0  0  0  0  0  0  0  0  0  0  0  0
    0.4971    0.7192   -2.4854 H   0  0  0  0  0  0  0  0  0  0  0  0
    0.3790   -0.4025   -0.1000 H   0  0  0  0  0  0  0  0  0  0  0  0
    2.3170   -0.2398   -0.2133 H   0  0  0  0  0  0  0  0  0  0  0  0
    2.2621    2.2503   -0.3323 H   0  0  0  0  0  0  0  0  0  0  0  0
  1  2  2  3
  1  5  1  0
  1  6  1  0
  2  3  1  0
  2  7  1  0
  3  4  1  0
  3  8  1  0
  4  9  1  0
  4 10  1  0
  4 11  1  0
 12 13  1  0
 12 16  1  0
 12 17  1  0
 12 18  1  0
 13 14  1  0
 13 19  1  0
 13 20  1  0
 14 15  2  0
 14 21  1  0
M  RAD  1   3   2
M  END
>  <reaction>  (14) 
rxn_2001

>  <mol_properties>  (14) 
{"1": {"label": "*4", "atom_type": "Cd"}, "2": {"label": "*3", "atom_type": "Cs"}, "12": {"label": "*1", "atom_type": "Cs"}, "13": {"label": "*0", "atom_type": "CS"}, "18": {"label": "*2", "atom_type": "H0"}}

>  <type>  (14) 
unop_10

>  <geom_source>  (14) 
Heuristics

$$$$

     RDKit          3D

 21 19  0  0  0  0  0  0  0  0999 V2000
   -0.9826   -1.1567    2.3965 C   0  0  0  0  0  0  0  0  0  0  0  0
   -1.3493   -0.7280    1.1983 C   0  0  0  0  0  0  0  0  0  0  0  0
   -0.9705   -1.3318   -0.1212 C   0  0  0  0  0  3  0  0  0  0  0  0
   -0.0750   -2.5586   -0.0520 C   0  0  0  0  0  0  0  0  0  0  0  0
   -1.3100   -0.6501    3.2955 H   0  0  0  0  0  0  0  0  0  0  0  0
   -0.3461   -2.0235    2.5298 H   0  0  0  0  0  0  0  0  0  0  0  0
   -1.9896    0.1483    1.1351 H   0  0  0  0  0  0  0  0  0  0  0  0
   -1.8920   -1.5777   -0.6601 H   0  0  0  0  0  0  0  0  0  0  0  0
   -0.5532   -3.3673    0.5040 H   0  0  0  0  0  0  0  0  0  0  0  0
    0.1476   -2.9276   -1.0538 H   0  0  0  0  0  0  0  0  0  0  0  0
    0.8731   -2.3299    0.4388 H   0  0  0  0  0  0  0  0  0  0  0  0
    1.0902   -0.0096   -2.5920 C   0  0  0  0  0  0  0  0  0  0  0  0
    1.0902   -0.0096   -1.0609 C   0  0  0  0  0  0  0  0  0  0  0  0
    1.0902    1.3786   -0.5142 C   0  0  0  0  0  0  0  0  0  0  0  0
   -0.0294    2.0343    0.4333 S   0  0  0  0  0  0  0  0  0  0  0  0
    1.9454    0.5405   -2.9891 H   0  0  0  0  0  0  0  0  0  0  0  0
    1.1410   -1.0305   -2.9706 H   0  0  0  0  0  0  0  0  0  0  0  0
    0.1807    0.4528   -2.9776 H   0  0  0  0  0  0  0  0  0  0  0  0
    0.0625   -0.6690   -0.5923 H   0  0  0  0  0  0  0  0  0  0  0  0
    2.0005   -0.5063   -0.7055 H   0  0  0  0  0  0  0  0  0  0  0  0
    1.9456    1.9838   -0.8246 H   0  0  0  0  0  0  0  0  0  0  0  0
  1  2  2  3
  1  5  1  0
  1  6  1  0
  2  3  1  0
  2  7  1  0
  3  4  1  0
  3  8  1  0
  4  9  1  0
  4 10  1  0
  4 11  1  0
 12 13  1  0
 12 16  1  0
 12 17  1  0
 12 18  1  0
 13 14  1  0
 13 19  1  0
 13 20  1  0
 14 15  2  0
 14 21  1  0
M  RAD  1   3   2
M  END
>  <reaction>  (15) 
rxn_2001

>  <mol_properties>  (15) 
{"1": {"label": "*4", "atom_type": "Cd"}, "2": {"label": "*3", "atom_type": "Cs"}, "12": {"label": "*1", "atom_type": "Cs"}, "13": {"label": "*0", "atom_type": "CS"}, "18": {"label": "*2", "atom_type": "H0"}}

>  <type>  (15) 
unop_11

>  <geom_source>  (15) 
Heuristics

$$$$

     RDKit          3D

 21 19  0  0  0  0  0  0  0  0999 V2000
   -2.5874   -1.6925   -0.9576 C   0  0  0  0  0  0  0  0  0  0  0  0
   -1.3066   -1.9258   -0.7146 C   0  0  0  0  0  0  0  0  0  0  0  0
   -0.5105   -1.4150    0.4492 C   0  0  0  0  0  3  0  0  0  0  0  0
   -1.2708   -0.5437    1.4364 C   0  0  0  0  0  0  0  0  0  0  0  0
   -3.0754   -2.1085   -1.8299 H   0  0  0  0  0  0  0  0  0  0  0  0
   -3.1975   -1.0820   -0.3025 H   0  0  0  0  0  0  0  0  0  0  0  0
   -0.7516   -2.5474   -1.4128 H   0  0  0  0  0  0  0  0  0  0  0  0
   -0.0810   -2.2765    0.9723 H   0  0  0  0  0  0  0  0  0  0  0  0
   -2.1078   -1.0859    1.8805 H   0  0  0  0  0  0  0  0  0  0  0  0
   -0.6153   -0.2197    2.2454 H   0  0  0  0  0  0  0  0  0  0  0  0
   -1.6699    0.3491    0.9511 H   0  0  0  0  0  0  0  0  0  0  0  0
    1.5502   -0.0929   -2.0217 C   0  0  0  0  0  0  0  0  0  0  0  0
    1.5502   -0.0929   -0.4906 C   0  0  0  0  0  0  0  0  0  0  0  0
    1.5502    1.2953    0.0561 C   0  0  0  0  0  0  0  0  0  0  0  0
    0.4307    1.9510    1.0036 S   0  0  0  0  0  0  0  0  0  0  0  0
    2.4054    0.4573   -2.4188 H   0  0  0  0  0  0  0  0  0  0  0  0
    1.6010   -1.1138   -2.4003 H   0  0  0  0  0  0  0  0  0  0  0  0
    0.6407    0.3695   -2.4073 H   0  0  0  0  0  0  0  0  0  0  0  0
    0.5225   -0.7523   -0.0219 H   0  0  0  0  0  0  0  0  0  0  0  0
    2.4605   -0.5896   -0.1352 H   0  0  0  0  0  0  0  0  0  0  0  0
    2.4056    1.9006   -0.2542 H   0  0  0  0  0  0  0  0  0  0  0  0
  1  2  2  3
  1  5  1  0
  1  6  1  0
  2  3  1  0
  2  7  1  0
  3  4  1  0
  3  8  1  0
  4  9  1  0
  4 10  1  0
  4 11  1  0
 12 13  1  0
 12 16  1  0
 12 17  1  0
 12 18  1  0
 13 14  1  0
 13 19  1  0
 13 20  1  0
 14 15  2  0
 14 21  1  0
M  RAD  1   3   2
M  END
>  <reaction>  (16) 
rxn_2001

>  <mol_properties>  (16) 
{"1": {"label": "*4", "atom_type": "Cd"}, "2": {"label": "*3", "atom_type": "Cs"}, "12": {"label": "*1", "atom_type": "Cs"}, "13": {"label": "*0", "atom_type": "CS"}, "18": {"label": "*2", "atom_type": "H0"}}

>  <type>  (16) 
unop_12

>  <geom_source>  (16) 
Heuristics

$$$$

     RDKit          3D

 21 19  0  0  0  0  0  0  0  0999 V2000
    1.8100    1.5484    1.5958 S   0  0  0  0  0  0  0  0  0  0  0  0
   -0.7940   -0.0497    0.8437 C   0  0  0  0  0  3  0  0  0  0  0  0
   -1.1254   -1.5383    0.8593 C   0  0  0  0  0  0  0  0  0  0  0  0
    2.2108   -0.7396   -1.2307 C   0  0  0  0  0  0  0  0  0  0  0  0
   -2.0321    0.7860    0.6827 C   0  0  0  0  0  0  0  0  0  0  0  0
    1.3700    0.3613   -0.5997 C   0  0  0  0  0  0  0  0  0  0  0  0
   -2.6891    0.8460   -0.4786 C   0  0  0  0  0  0  0  0  0  0  0  0
    2.2112    1.2577    0.2507 C   0  0  0  0  0  0  0  0  0  0  0  0
   -0.2990    0.2176    1.8019 H   0  0  0  0  0  0  0  0  0  0  0  0
    0.0815    0.2171   -0.1819 H   0  0  0  0  0  0  0  0  0  0  0  0
   -1.5749   -1.8455   -0.1085 H   0  0  0  0  0  0  0  0  0  0  0  0
   -0.1938   -2.1212    1.0156 H   0  0  0  0  0  0  0  0  0  0  0  0
   -1.8335   -1.7675    1.6843 H   0  0  0  0  0  0  0  0  0  0  0  0
    1.5557   -1.3995   -1.8366 H   0  0  0  0  0  0  0  0  0  0  0  0
    2.6959   -1.3500   -0.4397 H   0  0  0  0  0  0  0  0  0  0  0  0
    2.9896   -0.3019   -1.8913 H   0  0  0  0  0  0  0  0  0  0  0  0
   -2.3800    1.3829    1.5207 H   0  0  0  0  0  0  0  0  0  0  0  0
    0.8685    0.9587   -1.3907 H   0  0  0  0  0  0  0  0  0  0  0  0
   -3.5712    1.4711   -0.5715 H   0  0  0  0  0  0  0  0  0  0  0  0
   -2.3530    0.2789   -1.3414 H   0  0  0  0  0  0  0  0  0  0  0  0
    3.0529    1.7876   -0.1840 H   0  0  0  0  0  0  0  0  0  0  0  0
  1  8  2  0
  2  3  1  0
  2  5  1  0
  2  9  1  0
  3 11  1  0
  3 12  1  0
  3 13  1  0
  4  6  1  0
  4 14  1  0
  4 15  1  0
  4 16  1  0
  5  7  2  3
  5 17  1  0
  6  8  1  0
  6 10  1  0
  6 18  1  0
  7 19  1  0
  7 20  1  0
  8 21  1  0
M  RAD  1   2   2
M  END
>  <reaction>  (17) 
rxn_2001

>  <mol_properties>  (17) 
{"1": {"label": "*4", "atom_type": "Cd"}, "2": {"label": "*3", "atom_type": "Cs"}, "12": {"label": "*1", "atom_type": "Cs"}, "13": {"label": "*0", "atom_type": "CS"}, "18": {"label": "*2", "atom_type": "H0"}}

>  <type>  (17) 
unop_13

>  <geom_source>  (17) 
AutoTST

$$$$
