
     RDKit          3D

 10  9  0  0  0  0  0  0  0  0999 V2000
    2.2738    0.0217   -0.0992 C   0  0  0  0  0  0  0  0  0  0  0  0
    1.1083    0.2960   -0.0695 C   0  0  0  0  0  0  0  0  0  0  0  0
   -0.3173    0.6046   -0.0227 C   0  0  0  0  0  0  0  0  0  0  0  0
   -1.1561   -0.5495    0.5292 C   0  0  0  0  0  0  0  0  0  0  0  0
    3.3097   -0.2166   -0.1277 H   0  0  0  0  0  0  0  0  0  0  0  0
   -0.6542    0.8617   -1.0302 H   0  0  0  0  0  0  0  0  0  0  0  0
   -0.4633    1.4978    0.5900 H   0  0  0  0  0  0  0  0  0  0  0  0
   -0.8485   -0.7997    1.5447 H   0  0  0  0  0  0  0  0  0  0  0  0
   -2.2115   -0.2752    0.5459 H   0  0  0  0  0  0  0  0  0  0  0  0
   -1.0409   -1.4407   -0.0879 H   0  0  0  0  0  0  0  0  0  0  0  0
  1  2  3  0
  1  5  1  0
  2  3  1  0
  3  4  1  0
  3  6  1  0
  3  7  1  0
  4  8  1  0
  4  9  1  0
  4 10  1  0
M  END
>  <reaction>  (1) 
rxn_1279

>  <mol_properties>  (1) 
{"2": {"label": "donator", "atom_type": "Cs"}, "5": {"label": "d_hydrogen", "atom_type": "H0"}}

>  <type>  (1) 
r1h

$$$$

     RDKit          3D

  5  4  0  0  0  0  0  0  0  0999 V2000
   -0.5642    0.0794    0.0348 C   0  0  0  0  0  3  0  0  0  0  0  0
    1.0624    0.5420    0.2853 S   0  0  0  0  0  0  0  0  0  0  0  0
   -1.3257    0.7631    0.3741 H   0  0  0  0  0  0  0  0  0  0  0  0
   -0.8236   -0.8519   -0.4401 H   0  0  0  0  0  0  0  0  0  0  0  0
    1.6511   -0.5325   -0.2540 H   0  0  0  0  0  0  0  0  0  0  0  0
  1  2  1  0
  1  3  1  0
  1  4  1  0
  2  5  1  0
M  RAD  1   1   2
M  END
>  <reaction>  (2) 
rxn_1279

>  <mol_properties>  (2) 
{"0": {"label": "acceptor", "atom_type": "Cs"}}

>  <type>  (2) 
r2

$$$$

     RDKit          3D

  6  5  0  0  0  0  0  0  0  0999 V2000
   -0.5072   -0.0291   -0.0097 C   0  0  0  0  0  0  0  0  0  0  0  0
    1.1321   -0.1527   -0.7687 S   0  0  0  0  0  0  0  0  0  0  0  0
   -0.6174   -0.7330    0.8127 H   0  0  0  0  0  0  0  0  0  0  0  0
   -0.5863    0.9827    0.3845 H   0  0  0  0  0  0  0  0  0  0  0  0
   -1.2962   -0.1800   -0.7434 H   0  0  0  0  0  0  0  0  0  0  0  0
    1.0312   -1.4237   -1.1764 H   0  0  0  0  0  0  0  0  0  0  0  0
  1  2  1  0
  1  3  1  0
  1  4  1  0
  1  5  1  0
  2  6  1  0
M  END
>  <reaction>  (3) 
rxn_1279

>  <mol_properties>  (3) 
{"0": {"label": "a_hydrogen", "atom_type": "H0"}, "1": {"label": "acceptor", "atom_type": "Cs"}}

>  <type>  (3) 
r2h

$$$$

     RDKit          3D

 15 13  0  0  0  0  0  0  0  0999 V2000
   -1.4954    0.1110   -2.0313 C   0  0  0  0  0  0  0  0  0  0  0  0
   -1.5063    0.3922   -0.8615 C   0  0  0  0  0  0  0  0  0  0  0  0
   -1.4443    0.6907    0.5339 C   0  0  0  0  0  0  0  0  0  0  0  0
   -0.9722    2.0797    0.9079 C   0  0  0  0  0  0  0  0  0  0  0  0
   -1.5146   -0.1207   -3.0689 H   0  0  0  0  0  0  0  0  0  0  0  0
   -0.5040   -0.1083    0.9898 H   0  0  0  0  0  0  0  0  0  0  0  0
   -2.3311    0.3601    1.0738 H   0  0  0  0  0  0  0  0  0  0  0  0
   -1.6662    2.8445    0.5517 H   0  0  0  0  0  0  0  0  0  0  0  0
   -0.8892    2.1728    1.9916 H   0  0  0  0  0  0  0  0  0  0  0  0
    0.0063    2.2801    0.4689 H   0  0  0  0  0  0  0  0  0  0  0  0
    0.5822   -0.8902    1.3383 C   0  0  0  0  0  3  0  0  0  0  0  0
    1.9488   -0.3822    0.3516 S   0  0  0  0  0  0  0  0  0  0  0  0
    0.7701   -0.6851    2.3885 H   0  0  0  0  0  0  0  0  0  0  0  0
    0.2238   -1.8991    1.1537 H   0  0  0  0  0  0  0  0  0  0  0  0
    1.4293   -0.7288   -0.8343 H   0  0  0  0  0  0  0  0  0  0  0  0
  1  2  3  0
  1  5  1  0
  2  3  1  0
  3  4  1  0
  3  6  1  0
  3  7  1  0
  4  8  1  0
  4  9  1  0
  4 10  1  0
 11 12  1  0
 11 13  1  0
 11 14  1  0
 12 15  1  0
M  RAD  1  11   2
M  END
>  <reaction>  (4) 
rxn_1279

>  <mol_properties>  (4) 
{"1": {"label": "*0", "atom_type": "Ct"}, "2": {"label": "*1", "atom_type": "Cs"}, "5": {"label": "*2", "atom_type": "H0"}, "10": {"label": "*3", "atom_type": "Cs"}, "11": {"label": "*4", "atom_type": "S2s"}}

>  <type>  (4) 
ts

$$$$

     RDKit          3D

 15 13  0  0  0  0  0  0  0  0999 V2000
   -1.3349    0.0375   -2.9471 C   0  0  0  0  0  0  0  0  0  0  0  0
   -1.3349    0.0375   -1.7494 C   0  0  0  0  0  0  0  0  0  0  0  0
   -1.3349    0.0657   -0.2902 C   0  0  0  0  0  3  0  0  0  0  0  0
   -1.3348    1.4871    0.2754 C   0  0  0  0  0  0  0  0  0  0  0  0
   -1.3349    0.0375   -4.0104 H   0  0  0  0  0  0  0  0  0  0  0  0
   -0.2843   -0.5884    0.1438 H   0  0  0  0  0  0  0  0  0  0  0  0
   -2.2104   -0.4793    0.0715 H   0  0  0  0  0  0  0  0  0  0  0  0
   -2.2171    2.0350   -0.0561 H   0  0  0  0  0  0  0  0  0  0  0  0
   -1.3348    1.4598    1.3657 H   0  0  0  0  0  0  0  0  0  0  0  0
   -0.4526    2.0350   -0.0561 H   0  0  0  0  0  0  0  0  0  0  0  0
    0.7616   -1.2395    0.5760 C   0  0  0  0  0  0  0  0  0  0  0  0
    1.8399   -0.1738    1.5659 S   0  0  0  0  0  0  0  0  0  0  0  0
   -0.0674   -1.5215    1.2229 H   0  0  0  0  0  0  0  0  0  0  0  0
    1.2792   -2.1426    0.2593 H   0  0  0  0  0  0  0  0  0  0  0  0
    2.7612    0.0536    0.6218 H   0  0  0  0  0  0  0  0  0  0  0  0
  1  2  3  0
  1  5  1  0
  2  3  1  0
  3  4  1  0
  3  7  1  0
  4  8  1  0
  4  9  1  0
  4 10  1  0
  6 11  1  0
 11 12  1  0
 11 13  1  0
 11 14  1  0
 12 15  1  0
M  RAD  1   3   2
M  END
>  <reaction>  (5) 
rxn_1279

>  <mol_properties>  (5) 
{"1": {"label": "*0", "atom_type": "Ct"}, "2": {"label": "*1", "atom_type": "Cs"}, "5": {"label": "*2", "atom_type": "H0"}, "10": {"label": "*3", "atom_type": "Cs"}, "11": {"label": "*4", "atom_type": "S2s"}}

>  <type>  (5) 
unop_1

>  <geom_source>  (5) 
Heuristics

$$$$

     RDKit          3D

 15 13  0  0  0  0  0  0  0  0999 V2000
   -1.4228    0.3528   -2.2510 C   0  0  0  0  0  0  0  0  0  0  0  0
   -1.4228    0.3528   -1.0533 C   0  0  0  0  0  0  0  0  0  0  0  0
   -1.4228    0.3811    0.4058 C   0  0  0  0  0  3  0  0  0  0  0  0
   -1.4228    1.8024    0.9715 C   0  0  0  0  0  0  0  0  0  0  0  0
   -1.4228    0.3528   -3.3143 H   0  0  0  0  0  0  0  0  0  0  0  0
   -0.3722   -0.2730    0.8399 H   0  0  0  0  0  0  0  0  0  0  0  0
   -2.2983   -0.1640    0.7676 H   0  0  0  0  0  0  0  0  0  0  0  0
   -2.3050    2.3503    0.6400 H   0  0  0  0  0  0  0  0  0  0  0  0
   -1.4228    1.7751    2.0617 H   0  0  0  0  0  0  0  0  0  0  0  0
   -0.5405    2.3503    0.6400 H   0  0  0  0  0  0  0  0  0  0  0  0
    0.6737   -0.9242    1.2720 C   0  0  0  0  0  0  0  0  0  0  0  0
    2.0487   -0.8172    0.0989 S   0  0  0  0  0  0  0  0  0  0  0  0
    0.8802   -0.1942    2.0529 H   0  0  0  0  0  0  0  0  0  0  0  0
    0.6149   -1.9117    1.7249 H   0  0  0  0  0  0  0  0  0  0  0  0
    1.6171   -1.7583   -0.7497 H   0  0  0  0  0  0  0  0  0  0  0  0
  1  2  3  0
  1  5  1  0
  2  3  1  0
  3  4  1  0
  3  7  1  0
  4  8  1  0
  4  9  1  0
  4 10  1  0
  6 11  1  0
 11 12  1  0
 11 13  1  0
 11 14  1  0
 12 15  1  0
M  RAD  1   3   2
M  END
>  <reaction>  (6) 
rxn_1279

>  <mol_properties>  (6) 
{"1": {"label": "*0", "atom_type": "Ct"}, "2": {"label": "*1", "atom_type": "Cs"}, "5": {"label": "*2", "atom_type": "H0"}, "10": {"label": "*3", "atom_type": "Cs"}, "11": {"label": "*4", "atom_type": "S2s"}}

>  <type>  (6) 
unop_2

>  <geom_source>  (6) 
Heuristics

$$$$

     RDKit          3D

 15 13  0  0  0  0  0  0  0  0999 V2000
   -1.1760    0.1634   -3.1384 C   0  0  0  0  0  0  0  0  0  0  0  0
   -1.1760    0.1634   -1.9407 C   0  0  0  0  0  0  0  0  0  0  0  0
   -1.1760    0.1917   -0.4815 C   0  0  0  0  0  3  0  0  0  0  0  0
   -1.1759    1.6130    0.0841 C   0  0  0  0  0  0  0  0  0  0  0  0
   -1.1760    0.1634   -4.2017 H   0  0  0  0  0  0  0  0  0  0  0  0
   -0.1254   -0.4625   -0.0474 H   0  0  0  0  0  0  0  0  0  0  0  0
   -2.0515   -0.3534   -0.1198 H   0  0  0  0  0  0  0  0  0  0  0  0
   -2.0582    2.1609   -0.2474 H   0  0  0  0  0  0  0  0  0  0  0  0
   -1.1759    1.5857    1.1744 H   0  0  0  0  0  0  0  0  0  0  0  0
   -0.2937    2.1609   -0.2474 H   0  0  0  0  0  0  0  0  0  0  0  0
    0.9205   -1.1136    0.3847 C   0  0  0  0  0  0  0  0  0  0  0  0
    1.5019   -0.4528    1.9670 S   0  0  0  0  0  0  0  0  0  0  0  0
    0.1867   -1.8813    0.6248 H   0  0  0  0  0  0  0  0  0  0  0  0
    1.7327   -1.5713   -0.1763 H   0  0  0  0  0  0  0  0  0  0  0  0
    2.3632    0.4418    1.4673 H   0  0  0  0  0  0  0  0  0  0  0  0
  1  2  3  0
  1  5  1  0
  2  3  1  0
  3  4  1  0
  3  7  1  0
  4  8  1  0
  4  9  1  0
  4 10  1  0
  6 11  1  0
 11 12  1  0
 11 13  1  0
 11 14  1  0
 12 15  1  0
M  RAD  1   3   2
M  END
>  <reaction>  (7) 
rxn_1279

>  <mol_properties>  (7) 
{"1": {"label": "*0", "atom_type": "Ct"}, "2": {"label": "*1", "atom_type": "Cs"}, "5": {"label": "*2", "atom_type": "H0"}, "10": {"label": "*3", "atom_type": "Cs"}, "11": {"label": "*4", "atom_type": "S2s"}}

>  <type>  (7) 
unop_3

>  <geom_source>  (7) 
Heuristics

$$$$

     RDKit          3D

 15 13  0  0  0  0  0  0  0  0999 V2000
   -0.9624    0.9361   -2.4596 C   0  0  0  0  0  0  0  0  0  0  0  0
   -0.9624    0.9361   -1.2619 C   0  0  0  0  0  0  0  0  0  0  0  0
   -0.9624    0.9643    0.1972 C   0  0  0  0  0  3  0  0  0  0  0  0
   -0.9624    2.3857    0.7628 C   0  0  0  0  0  0  0  0  0  0  0  0
   -0.9624    0.9361   -3.5230 H   0  0  0  0  0  0  0  0  0  0  0  0
    0.0882    0.3102    0.6313 H   0  0  0  0  0  0  0  0  0  0  0  0
   -1.8379    0.4192    0.5589 H   0  0  0  0  0  0  0  0  0  0  0  0
   -1.8446    2.9335    0.4314 H   0  0  0  0  0  0  0  0  0  0  0  0
   -0.9624    2.3584    1.8531 H   0  0  0  0  0  0  0  0  0  0  0  0
   -0.0801    2.9335    0.4314 H   0  0  0  0  0  0  0  0  0  0  0  0
    1.1341   -0.3410    1.0634 C   0  0  0  0  0  0  0  0  0  0  0  0
    1.1130   -2.0649    0.5102 S   0  0  0  0  0  0  0  0  0  0  0  0
    2.1825   -0.0621    1.1555 H   0  0  0  0  0  0  0  0  0  0  0  0
    0.6575   -0.2306    2.0352 H   0  0  0  0  0  0  0  0  0  0  0  0
   -0.2171   -2.2077    0.4611 H   0  0  0  0  0  0  0  0  0  0  0  0
  1  2  3  0
  1  5  1  0
  2  3  1  0
  3  4  1  0
  3  7  1  0
  4  8  1  0
  4  9  1  0
  4 10  1  0
  6 11  1  0
 11 12  1  0
 11 13  1  0
 11 14  1  0
 12 15  1  0
M  RAD  1   3   2
M  END
>  <reaction>  (8) 
rxn_1279

>  <mol_properties>  (8) 
{"1": {"label": "*0", "atom_type": "Ct"}, "2": {"label": "*1", "atom_type": "Cs"}, "5": {"label": "*2", "atom_type": "H0"}, "10": {"label": "*3", "atom_type": "Cs"}, "11": {"label": "*4", "atom_type": "S2s"}}

>  <type>  (8) 
unop_4

>  <geom_source>  (8) 
Heuristics

$$$$

     RDKit          3D

 15 13  0  0  0  0  0  0  0  0999 V2000
   -1.0090    0.3719   -3.2149 C   0  0  0  0  0  0  0  0  0  0  0  0
   -1.0090    0.3719   -2.0172 C   0  0  0  0  0  0  0  0  0  0  0  0
   -1.0090    0.4001   -0.5581 C   0  0  0  0  0  3  0  0  0  0  0  0
   -1.0090    1.8215    0.0075 C   0  0  0  0  0  0  0  0  0  0  0  0
   -1.0090    0.3719   -4.2782 H   0  0  0  0  0  0  0  0  0  0  0  0
    0.0416   -0.2540   -0.1240 H   0  0  0  0  0  0  0  0  0  0  0  0
   -1.8845   -0.1450   -0.1964 H   0  0  0  0  0  0  0  0  0  0  0  0
   -1.8912    2.3694   -0.3239 H   0  0  0  0  0  0  0  0  0  0  0  0
   -1.0090    1.7942    1.0978 H   0  0  0  0  0  0  0  0  0  0  0  0
   -0.1267    2.3693   -0.3239 H   0  0  0  0  0  0  0  0  0  0  0  0
    1.0875   -0.9052    0.3081 C   0  0  0  0  0  0  0  0  0  0  0  0
    1.1578   -0.9145    2.1173 S   0  0  0  0  0  0  0  0  0  0  0  0
    1.0021   -1.9459   -0.0002 H   0  0  0  0  0  0  0  0  0  0  0  0
    1.9956   -0.4878   -0.1219 H   0  0  0  0  0  0  0  0  0  0  0  0
    1.2577    0.4095    2.2868 H   0  0  0  0  0  0  0  0  0  0  0  0
  1  2  3  0
  1  5  1  0
  2  3  1  0
  3  4  1  0
  3  7  1  0
  4  8  1  0
  4  9  1  0
  4 10  1  0
  6 11  1  0
 11 12  1  0
 11 13  1  0
 11 14  1  0
 12 15  1  0
M  RAD  1   3   2
M  END
>  <reaction>  (9) 
rxn_1279

>  <mol_properties>  (9) 
{"1": {"label": "*0", "atom_type": "Ct"}, "2": {"label": "*1", "atom_type": "Cs"}, "5": {"label": "*2", "atom_type": "H0"}, "10": {"label": "*3", "atom_type": "Cs"}, "11": {"label": "*4", "atom_type": "S2s"}}

>  <type>  (9) 
unop_5

>  <geom_source>  (9) 
Heuristics

$$$$

     RDKit          3D

 15 13  0  0  0  0  0  0  0  0999 V2000
   -0.8505    0.9408   -2.7190 C   0  0  0  0  0  0  0  0  0  0  0  0
   -0.8505    0.9408   -1.5213 C   0  0  0  0  0  0  0  0  0  0  0  0
   -0.8505    0.9691   -0.0622 C   0  0  0  0  0  3  0  0  0  0  0  0
   -0.8505    2.3904    0.5034 C   0  0  0  0  0  0  0  0  0  0  0  0
   -0.8505    0.9408   -3.7823 H   0  0  0  0  0  0  0  0  0  0  0  0
    0.2001    0.3149    0.3719 H   0  0  0  0  0  0  0  0  0  0  0  0
   -1.7260    0.4240    0.2995 H   0  0  0  0  0  0  0  0  0  0  0  0
   -1.7327    2.9383    0.1720 H   0  0  0  0  0  0  0  0  0  0  0  0
   -0.8505    2.3631    1.5937 H   0  0  0  0  0  0  0  0  0  0  0  0
    0.0318    2.9383    0.1720 H   0  0  0  0  0  0  0  0  0  0  0  0
    1.2460   -0.3362    0.8040 C   0  0  0  0  0  0  0  0  0  0  0  0
    0.8753   -2.0914    1.0499 S   0  0  0  0  0  0  0  0  0  0  0  0
    2.3254   -0.2660    0.6798 H   0  0  0  0  0  0  0  0  0  0  0  0
    0.9556    0.2554    1.6696 H   0  0  0  0  0  0  0  0  0  0  0  0
   -0.4512   -1.9650    1.1776 H   0  0  0  0  0  0  0  0  0  0  0  0
  1  2  3  0
  1  5  1  0
  2  3  1  0
  3  4  1  0
  3  7  1  0
  4  8  1  0
  4  9  1  0
  4 10  1  0
  6 11  1  0
 11 12  1  0
 11 13  1  0
 11 14  1  0
 12 15  1  0
M  RAD  1   3   2
M  END
>  <reaction>  (10) 
rxn_1279

>  <mol_properties>  (10) 
{"1": {"label": "*0", "atom_type": "Ct"}, "2": {"label": "*1", "atom_type": "Cs"}, "5": {"label": "*2", "atom_type": "H0"}, "10": {"label": "*3", "atom_type": "Cs"}, "11": {"label": "*4", "atom_type": "S2s"}}

>  <type>  (10) 
unop_6

>  <geom_source>  (10) 
Heuristics

$$$$

     RDKit          3D

 15 13  0  0  0  0  0  0  0  0999 V2000
   -0.8185    0.8226   -2.9742 C   0  0  0  0  0  0  0  0  0  0  0  0
   -0.8185    0.8226   -1.7765 C   0  0  0  0  0  0  0  0  0  0  0  0
   -0.8185    0.8509   -0.3173 C   0  0  0  0  0  3  0  0  0  0  0  0
   -0.8185    2.2722    0.2483 C   0  0  0  0  0  0  0  0  0  0  0  0
   -0.8185    0.8226   -4.0375 H   0  0  0  0  0  0  0  0  0  0  0  0
    0.2321    0.1967    0.1167 H   0  0  0  0  0  0  0  0  0  0  0  0
   -1.6940    0.3058    0.0444 H   0  0  0  0  0  0  0  0  0  0  0  0
   -1.7007    2.8201   -0.0832 H   0  0  0  0  0  0  0  0  0  0  0  0
   -0.8185    2.2449    1.3385 H   0  0  0  0  0  0  0  0  0  0  0  0
    0.0637    2.8201   -0.0832 H   0  0  0  0  0  0  0  0  0  0  0  0
    1.2779   -0.4544    0.5488 C   0  0  0  0  0  0  0  0  0  0  0  0
    0.7986   -1.8587    1.5865 S   0  0  0  0  0  0  0  0  0  0  0  0
    2.2817   -0.6703    0.1865 H   0  0  0  0  0  0  0  0  0  0  0  0
    1.3055    0.4704    1.1212 H   0  0  0  0  0  0  0  0  0  0  0  0
   -0.4184   -1.4117    1.9195 H   0  0  0  0  0  0  0  0  0  0  0  0
  1  2  3  0
  1  5  1  0
  2  3  1  0
  3  4  1  0
  3  7  1  0
  4  8  1  0
  4  9  1  0
  4 10  1  0
  6 11  1  0
 11 12  1  0
 11 13  1  0
 11 14  1  0
 12 15  1  0
M  RAD  1   3   2
M  END
>  <reaction>  (11) 
rxn_1279

>  <mol_properties>  (11) 
{"1": {"label": "*0", "atom_type": "Ct"}, "2": {"label": "*1", "atom_type": "Cs"}, "5": {"label": "*2", "atom_type": "H0"}, "10": {"label": "*3", "atom_type": "Cs"}, "11": {"label": "*4", "atom_type": "S2s"}}

>  <type>  (11) 
unop_7

>  <geom_source>  (11) 
Heuristics

$$$$

     RDKit          3D

 15 13  0  0  0  0  0  0  0  0999 V2000
   -1.4458    0.0300   -2.6896 C   0  0  0  0  0  0  0  0  0  0  0  0
   -1.4458    0.0300   -1.4919 C   0  0  0  0  0  0  0  0  0  0  0  0
   -1.4458    0.0582   -0.0327 C   0  0  0  0  0  3  0  0  0  0  0  0
   -1.4458    1.4796    0.5329 C   0  0  0  0  0  0  0  0  0  0  0  0
   -1.4458    0.0300   -3.7529 H   0  0  0  0  0  0  0  0  0  0  0  0
   -0.3952   -0.5959    0.4013 H   0  0  0  0  0  0  0  0  0  0  0  0
   -2.3214   -0.4868    0.3290 H   0  0  0  0  0  0  0  0  0  0  0  0
   -2.3281    2.0275    0.2014 H   0  0  0  0  0  0  0  0  0  0  0  0
   -1.4458    1.4523    1.6231 H   0  0  0  0  0  0  0  0  0  0  0  0
   -0.5636    2.0274    0.2014 H   0  0  0  0  0  0  0  0  0  0  0  0
    0.6506   -1.2471    0.8334 C   0  0  0  0  0  0  0  0  0  0  0  0
    2.0785   -0.1501    1.0242 S   0  0  0  0  0  0  0  0  0  0  0  0
    0.0187   -1.0811    1.7044 H   0  0  0  0  0  0  0  0  0  0  0  0
    0.9530   -2.2921    0.8164 H   0  0  0  0  0  0  0  0  0  0  0  0
    2.7062   -0.4959   -0.1064 H   0  0  0  0  0  0  0  0  0  0  0  0
  1  2  3  0
  1  5  1  0
  2  3  1  0
  3  4  1  0
  3  7  1  0
  4  8  1  0
  4  9  1  0
  4 10  1  0
  6 11  1  0
 11 12  1  0
 11 13  1  0
 11 14  1  0
 12 15  1  0
M  RAD  1   3   2
M  END
>  <reaction>  (12) 
rxn_1279

>  <mol_properties>  (12) 
{"1": {"label": "*0", "atom_type": "Ct"}, "2": {"label": "*1", "atom_type": "Cs"}, "5": {"label": "*2", "atom_type": "H0"}, "10": {"label": "*3", "atom_type": "Cs"}, "11": {"label": "*4", "atom_type": "S2s"}}

>  <type>  (12) 
unop_8

>  <geom_source>  (12) 
Heuristics

$$$$

     RDKit          3D

 15 13  0  0  0  0  0  0  0  0999 V2000
   -1.1242    0.8101   -2.2656 C   0  0  0  0  0  0  0  0  0  0  0  0
   -1.1242    0.8101   -1.0679 C   0  0  0  0  0  0  0  0  0  0  0  0
   -1.1242    0.8383    0.3912 C   0  0  0  0  0  3  0  0  0  0  0  0
   -1.1242    2.2597    0.9568 C   0  0  0  0  0  0  0  0  0  0  0  0
   -1.1242    0.8101   -3.3289 H   0  0  0  0  0  0  0  0  0  0  0  0
   -0.0736    0.1842    0.8253 H   0  0  0  0  0  0  0  0  0  0  0  0
   -1.9997    0.2932    0.7529 H   0  0  0  0  0  0  0  0  0  0  0  0
   -2.0064    2.8075    0.6254 H   0  0  0  0  0  0  0  0  0  0  0  0
   -1.1242    2.2324    2.0471 H   0  0  0  0  0  0  0  0  0  0  0  0
   -0.2420    2.8075    0.6254 H   0  0  0  0  0  0  0  0  0  0  0  0
    0.9723   -0.4670    1.2574 C   0  0  0  0  0  0  0  0  0  0  0  0
    1.4480   -1.7860    0.1118 S   0  0  0  0  0  0  0  0  0  0  0  0
    1.8956    0.0269    1.5558 H   0  0  0  0  0  0  0  0  0  0  0  0
    0.4891   -0.8685    2.1457 H   0  0  0  0  0  0  0  0  0  0  0  0
    0.2159   -2.2517   -0.1267 H   0  0  0  0  0  0  0  0  0  0  0  0
  1  2  3  0
  1  5  1  0
  2  3  1  0
  3  4  1  0
  3  7  1  0
  4  8  1  0
  4  9  1  0
  4 10  1  0
  6 11  1  0
 11 12  1  0
 11 13  1  0
 11 14  1  0
 12 15  1  0
M  RAD  1   3   2
M  END
>  <reaction>  (13) 
rxn_1279

>  <mol_properties>  (13) 
{"1": {"label": "*0", "atom_type": "Ct"}, "2": {"label": "*1", "atom_type": "Cs"}, "5": {"label": "*2", "atom_type": "H0"}, "10": {"label": "*3", "atom_type": "Cs"}, "11": {"label": "*4", "atom_type": "S2s"}}

>  <type>  (13) 
unop_9

>  <geom_source>  (13) 
Heuristics

$$$$

     RDKit          3D

 15 13  0  0  0  0  0  0  0  0999 V2000
   -1.4785    0.1452   -2.4346 C   0  0  0  0  0  0  0  0  0  0  0  0
   -1.4785    0.1452   -1.2368 C   0  0  0  0  0  0  0  0  0  0  0  0
   -1.4785    0.1734    0.2223 C   0  0  0  0  0  3  0  0  0  0  0  0
   -1.4785    1.5948    0.7879 C   0  0  0  0  0  0  0  0  0  0  0  0
   -1.4785    0.1452   -3.4979 H   0  0  0  0  0  0  0  0  0  0  0  0
   -0.4279   -0.4807    0.6564 H   0  0  0  0  0  0  0  0  0  0  0  0
   -2.3540   -0.3717    0.5840 H   0  0  0  0  0  0  0  0  0  0  0  0
   -2.3607    2.1426    0.4564 H   0  0  0  0  0  0  0  0  0  0  0  0
   -1.4785    1.5675    1.8782 H   0  0  0  0  0  0  0  0  0  0  0  0
   -0.5963    2.1426    0.4564 H   0  0  0  0  0  0  0  0  0  0  0  0
    0.6180   -1.1319    1.0885 C   0  0  0  0  0  0  0  0  0  0  0  0
    2.1544   -0.3858    0.4875 S   0  0  0  0  0  0  0  0  0  0  0  0
    0.3568   -0.6006    2.0022 H   0  0  0  0  0  0  0  0  0  0  0  0
    0.7546   -2.1851    1.3248 H   0  0  0  0  0  0  0  0  0  0  0  0
    2.2976   -1.1529   -0.6001 H   0  0  0  0  0  0  0  0  0  0  0  0
  1  2  3  0
  1  5  1  0
  2  3  1  0
  3  4  1  0
  3  7  1  0
  4  8  1  0
  4  9  1  0
  4 10  1  0
  6 11  1  0
 11 12  1  0
 11 13  1  0
 11 14  1  0
 12 15  1  0
M  RAD  1   3   2
M  END
>  <reaction>  (14) 
rxn_1279

>  <mol_properties>  (14) 
{"1": {"label": "*0", "atom_type": "Ct"}, "2": {"label": "*1", "atom_type": "Cs"}, "5": {"label": "*2", "atom_type": "H0"}, "10": {"label": "*3", "atom_type": "Cs"}, "11": {"label": "*4", "atom_type": "S2s"}}

>  <type>  (14) 
unop_10

>  <geom_source>  (14) 
Heuristics

$$$$

     RDKit          3D

 15 13  0  0  0  0  0  0  0  0999 V2000
   -0.8763    0.6131   -3.1561 C   0  0  0  0  0  0  0  0  0  0  0  0
   -0.8763    0.6131   -1.9584 C   0  0  0  0  0  0  0  0  0  0  0  0
   -0.8763    0.6414   -0.4992 C   0  0  0  0  0  3  0  0  0  0  0  0
   -0.8763    2.0627    0.0664 C   0  0  0  0  0  0  0  0  0  0  0  0
   -0.8763    0.6131   -4.2194 H   0  0  0  0  0  0  0  0  0  0  0  0
    0.1743   -0.0127   -0.0652 H   0  0  0  0  0  0  0  0  0  0  0  0
   -1.7518    0.0963   -0.1375 H   0  0  0  0  0  0  0  0  0  0  0  0
   -1.7585    2.6106   -0.2651 H   0  0  0  0  0  0  0  0  0  0  0  0
   -0.8763    2.0355    1.1567 H   0  0  0  0  0  0  0  0  0  0  0  0
    0.0059    2.6106   -0.2651 H   0  0  0  0  0  0  0  0  0  0  0  0
    1.2202   -0.6639    0.3669 C   0  0  0  0  0  0  0  0  0  0  0  0
    0.9023   -1.4291    1.9768 S   0  0  0  0  0  0  0  0  0  0  0  0
    1.9062   -1.3274   -0.1571 H   0  0  0  0  0  0  0  0  0  0  0  0
    1.6930    0.3098    0.4772 H   0  0  0  0  0  0  0  0  0  0  0  0
    0.0692   -0.4918    2.4450 H   0  0  0  0  0  0  0  0  0  0  0  0
  1  2  3  0
  1  5  1  0
  2  3  1  0
  3  4  1  0
  3  7  1  0
  4  8  1  0
  4  9  1  0
  4 10  1  0
  6 11  1  0
 11 12  1  0
 11 13  1  0
 11 14  1  0
 12 15  1  0
M  RAD  1   3   2
M  END
>  <reaction>  (15) 
rxn_1279

>  <mol_properties>  (15) 
{"1": {"label": "*0", "atom_type": "Ct"}, "2": {"label": "*1", "atom_type": "Cs"}, "5": {"label": "*2", "atom_type": "H0"}, "10": {"label": "*3", "atom_type": "Cs"}, "11": {"label": "*4", "atom_type": "S2s"}}

>  <type>  (15) 
unop_11

>  <geom_source>  (15) 
Heuristics

$$$$

     RDKit          3D

 15 13  0  0  0  0  0  0  0  0999 V2000
   -1.2929    0.5966   -2.1891 C   0  0  0  0  0  0  0  0  0  0  0  0
   -1.2929    0.5966   -0.9914 C   0  0  0  0  0  0  0  0  0  0  0  0
   -1.2929    0.6248    0.4678 C   0  0  0  0  0  3  0  0  0  0  0  0
   -1.2929    2.0462    1.0334 C   0  0  0  0  0  0  0  0  0  0  0  0
   -1.2929    0.5966   -3.2524 H   0  0  0  0  0  0  0  0  0  0  0  0
   -0.2423   -0.0293    0.9018 H   0  0  0  0  0  0  0  0  0  0  0  0
   -2.1684    0.0797    0.8295 H   0  0  0  0  0  0  0  0  0  0  0  0
   -2.1751    2.5941    0.7019 H   0  0  0  0  0  0  0  0  0  0  0  0
   -1.2929    2.0189    2.1236 H   0  0  0  0  0  0  0  0  0  0  0  0
   -0.4107    2.5940    0.7019 H   0  0  0  0  0  0  0  0  0  0  0  0
    0.8035   -0.6805    1.3339 C   0  0  0  0  0  0  0  0  0  0  0  0
    1.7903   -1.3293   -0.0386 S   0  0  0  0  0  0  0  0  0  0  0  0
    1.4475    0.0125    1.8730 H   0  0  0  0  0  0  0  0  0  0  0  0
    0.4994   -1.4739    2.0134 H   0  0  0  0  0  0  0  0  0  0  0  0
    0.8505   -2.1304   -0.5551 H   0  0  0  0  0  0  0  0  0  0  0  0
  1  2  3  0
  1  5  1  0
  2  3  1  0
  3  4  1  0
  3  7  1  0
  4  8  1  0
  4  9  1  0
  4 10  1  0
  6 11  1  0
 11 12  1  0
 11 13  1  0
 11 14  1  0
 12 15  1  0
M  RAD  1   3   2
M  END
>  <reaction>  (16) 
rxn_1279

>  <mol_properties>  (16) 
{"1": {"label": "*0", "atom_type": "Ct"}, "2": {"label": "*1", "atom_type": "Cs"}, "5": {"label": "*2", "atom_type": "H0"}, "10": {"label": "*3", "atom_type": "Cs"}, "11": {"label": "*4", "atom_type": "S2s"}}

>  <type>  (16) 
unop_12

>  <geom_source>  (16) 
Heuristics

$$$$

     RDKit          3D

 15 13  0  0  0  0  0  0  0  0999 V2000
    3.1450   -0.3481    0.1651 S   0  0  0  0  0  0  0  0  0  0  0  0
   -1.1908   -1.1493    0.1107 C   0  0  0  0  0  0  0  0  0  0  0  0
    1.7514    0.0341   -0.9325 C   0  0  0  0  0  0  0  0  0  0  0  0
   -0.4143    0.0948    0.5170 C   0  0  0  0  0  3  0  0  0  0  0  0
   -1.2609    1.2892    0.4256 C   0  0  0  0  0  0  0  0  0  0  0  0
   -1.9559    2.2714    0.3505 C   0  0  0  0  0  0  0  0  0  0  0  0
   -0.5251   -2.0347    0.1783 H   0  0  0  0  0  0  0  0  0  0  0  0
   -2.0604   -1.3020    0.7856 H   0  0  0  0  0  0  0  0  0  0  0  0
   -1.5470   -1.0534   -0.9371 H   0  0  0  0  0  0  0  0  0  0  0  0
    2.0493    0.8337   -1.6414 H   0  0  0  0  0  0  0  0  0  0  0  0
    1.4657   -0.8746   -1.5017 H   0  0  0  0  0  0  0  0  0  0  0  0
    0.7442    0.4375   -0.2289 H   0  0  0  0  0  0  0  0  0  0  0  0
   -0.0398   -0.0141    1.5567 H   0  0  0  0  0  0  0  0  0  0  0  0
    2.4049   -1.3180    0.8675 H   0  0  0  0  0  0  0  0  0  0  0  0
   -2.5662    3.1335    0.2847 H   0  0  0  0  0  0  0  0  0  0  0  0
  1  3  1  0
  1 14  1  0
  2  4  1  0
  2  7  1  0
  2  8  1  0
  2  9  1  0
  3 10  1  0
  3 11  1  0
  3 12  1  0
  4  5  1  0
  4 13  1  0
  5  6  3  0
  6 15  1  0
M  RAD  1   4   2
M  END
>  <reaction>  (17) 
rxn_1279

>  <mol_properties>  (17) 
{"1": {"label": "*0", "atom_type": "Ct"}, "2": {"label": "*1", "atom_type": "Cs"}, "5": {"label": "*2", "atom_type": "H0"}, "10": {"label": "*3", "atom_type": "Cs"}, "11": {"label": "*4", "atom_type": "S2s"}}

>  <type>  (17) 
unop_13

>  <geom_source>  (17) 
AutoTST

$$$$
