
     RDKit          3D

  7  6  0  0  0  0  0  0  0  0999 V2000
    1.6964   -0.0938    0.0583 C   0  0  0  0  0  0  0  0  0  0  0  0
    0.5019   -0.0278    0.0173 C   0  0  0  0  0  0  0  0  0  0  0  0
   -0.9505    0.0525   -0.0327 C   0  0  0  0  0  0  0  0  0  0  0  0
    2.7574   -0.1524    0.0947 H   0  0  0  0  0  0  0  0  0  0  0  0
   -1.2692    0.9972   -0.4754 H   0  0  0  0  0  0  0  0  0  0  0  0
   -1.3749   -0.0147    0.9700 H   0  0  0  0  0  0  0  0  0  0  0  0
   -1.3610   -0.7611   -0.6323 H   0  0  0  0  0  0  0  0  0  0  0  0
  1  2  3  0
  1  4  1  0
  2  3  1  0
  3  5  1  0
  3  6  1  0
  3  7  1  0
M  END
>  <reaction>  (1) 
rxn_1227

>  <mol_properties>  (1) 
{"0": {"label": "donator", "atom_type": "Cs"}, "3": {"label": "d_hydrogen", "atom_type": "H0"}}

>  <type>  (1) 
r1h

$$$$

     RDKit          3D

 14 14  0  0  0  0  0  0  0  0999 V2000
    2.3111    0.1295    0.0255 C   0  0  0  0  0  0  0  0  0  0  0  0
    0.9132    0.0511    0.0101 C   0  0  0  0  0  0  0  0  0  0  0  0
    0.2446   -1.1981    0.0389 C   0  0  0  0  0  3  0  0  0  0  0  0
   -1.1306   -1.2689    0.0235 C   0  0  0  0  0  0  0  0  0  0  0  0
   -1.8967   -0.1062   -0.0209 C   0  0  0  0  0  0  0  0  0  0  0  0
   -1.2644    1.1347   -0.0499 C   0  0  0  0  0  0  0  0  0  0  0  0
    0.1101    1.2180   -0.0350 C   0  0  0  0  0  0  0  0  0  0  0  0
    2.9188   -0.7647    0.0599 H   0  0  0  0  0  0  0  0  0  0  0  0
    2.8158    1.0859    0.0034 H   0  0  0  0  0  0  0  0  0  0  0  0
    0.8353   -2.1058    0.0735 H   0  0  0  0  0  0  0  0  0  0  0  0
   -1.6191   -2.2351    0.0461 H   0  0  0  0  0  0  0  0  0  0  0  0
   -2.9772   -0.1668   -0.0328 H   0  0  0  0  0  0  0  0  0  0  0  0
   -1.8572    2.0404   -0.0845 H   0  0  0  0  0  0  0  0  0  0  0  0
    0.5964    2.1860   -0.0577 H   0  0  0  0  0  0  0  0  0  0  0  0
  1  2  2  3
  1  8  1  0
  1  9  1  0
  2  3  1  0
  2  7  1  0
  3  4  1  0
  3 10  1  0
  4  5  2  0
  4 11  1  0
  5  6  1  0
  5 12  1  0
  6  7  2  0
  6 13  1  0
  7 14  1  0
M  RAD  1   3   2
M  END
>  <reaction>  (2) 
rxn_1227

>  <mol_properties>  (2) 
{"0": {"label": "acceptor", "atom_type": "Cs"}}

>  <type>  (2) 
r2

$$$$

     RDKit          3D

 15 15  0  0  0  0  0  0  0  0999 V2000
    2.2031   -0.2111   -0.1693 C   0  0  0  0  0  0  0  0  0  0  0  0
    0.7140   -0.0314   -0.0623 C   0  0  0  0  0  0  0  0  0  0  0  0
   -0.0114    0.5491   -1.0982 C   0  0  0  0  0  0  0  0  0  0  0  0
   -1.3882    0.6886   -1.0150 C   0  0  0  0  0  0  0  0  0  0  0  0
   -2.0661    0.2493    0.1118 C   0  0  0  0  0  0  0  0  0  0  0  0
   -1.3551   -0.3278    1.1528 C   0  0  0  0  0  0  0  0  0  0  0  0
    0.0216   -0.4648    1.0642 C   0  0  0  0  0  0  0  0  0  0  0  0
    2.6776   -0.1836    0.8122 H   0  0  0  0  0  0  0  0  0  0  0  0
    2.4446   -1.1749   -0.6249 H   0  0  0  0  0  0  0  0  0  0  0  0
    2.6532    0.5664   -0.7875 H   0  0  0  0  0  0  0  0  0  0  0  0
    0.5104    0.8989   -1.9819 H   0  0  0  0  0  0  0  0  0  0  0  0
   -1.9328    1.1452   -1.8322 H   0  0  0  0  0  0  0  0  0  0  0  0
   -3.1409    0.3597    0.1800 H   0  0  0  0  0  0  0  0  0  0  0  0
   -1.8736   -0.6702    2.0398 H   0  0  0  0  0  0  0  0  0  0  0  0
    0.5695   -0.9141    1.8849 H   0  0  0  0  0  0  0  0  0  0  0  0
  1  2  1  0
  1  8  1  0
  1  9  1  0
  1 10  1  0
  2  3  2  0
  2  7  1  0
  3  4  1  0
  3 11  1  0
  4  5  2  0
  4 12  1  0
  5  6  1  0
  5 13  1  0
  6  7  2  0
  6 14  1  0
  7 15  1  0
M  END
>  <reaction>  (3) 
rxn_1227

>  <mol_properties>  (3) 
{"0": {"label": "acceptor", "atom_type": "Cs"}, "9": {"label": "a_hydrogen", "atom_type": "H0"}}

>  <type>  (3) 
r2h

$$$$

     RDKit          3D

 21 20  0  0  0  0  0  0  0  0999 V2000
    0.4530   -1.1495   -1.4861 C   0  0  0  0  0  0  0  0  0  0  0  0
   -0.5198   -0.2960   -0.8109 C   0  0  0  0  0  0  0  0  0  0  0  0
   -1.3820   -0.8176    0.1589 C   0  0  0  0  0  0  0  0  0  0  0  0
   -0.5624    1.0798   -1.0589 C   0  0  0  0  0  0  0  0  0  0  0  0
   -2.2567    0.0025    0.8482 C   0  0  0  0  0  0  0  0  0  0  0  0
   -1.4371    1.9000   -0.3697 C   0  0  0  0  0  0  0  0  0  0  0  0
   -2.2875    1.3658    0.5886 C   0  0  0  0  0  0  0  0  0  0  0  0
    2.6041   -1.0330    0.1430 C   0  0  0  0  0  3  0  0  0  0  0  0
    2.1715   -0.1769    1.1857 C   0  0  0  0  0  0  0  0  0  0  0  0
    1.7232    0.5572    2.0276 C   0  0  0  0  0  0  0  0  0  0  0  0
    0.8369   -0.7767   -2.4325 H   0  0  0  0  0  0  0  0  0  0  0  0
    0.2176   -2.2105   -1.5122 H   0  0  0  0  0  0  0  0  0  0  0  0
    1.5430   -1.1209   -0.7080 H   0  0  0  0  0  0  0  0  0  0  0  0
   -1.3581   -1.8802    0.3715 H   0  0  0  0  0  0  0  0  0  0  0  0
    0.1038    1.5045   -1.8009 H   0  0  0  0  0  0  0  0  0  0  0  0
   -2.9174   -0.4222    1.5936 H   0  0  0  0  0  0  0  0  0  0  0  0
   -1.4556    2.9624   -0.5786 H   0  0  0  0  0  0  0  0  0  0  0  0
   -2.9728    2.0076    1.1275 H   0  0  0  0  0  0  0  0  0  0  0  0
    3.3925   -0.6337   -0.4901 H   0  0  0  0  0  0  0  0  0  0  0  0
    2.7730   -2.0677    0.4304 H   0  0  0  0  0  0  0  0  0  0  0  0
    1.3304    1.2053    2.7730 H   0  0  0  0  0  0  0  0  0  0  0  0
  1  2  1  0
  1 11  1  0
  1 12  1  0
  1 13  1  0
  2  3  2  0
  2  4  1  0
  3  5  1  0
  3 14  1  0
  4  6  2  0
  4 15  1  0
  5  7  2  0
  5 16  1  0
  6  7  1  0
  6 17  1  0
  7 18  1  0
  8  9  1  0
  8 19  1  0
  8 20  1  0
  9 10  3  0
 10 21  1  0
M  RAD  1   8   2
M  END
>  <reaction>  (4) 
rxn_1227

>  <mol_properties>  (4) 
{"0": {"label": "*1", "atom_type": "Cs"}, "1": {"label": "*0", "atom_type": "Cd"}, "7": {"label": "*3", "atom_type": "Cs"}, "8": {"label": "*4", "atom_type": "Ct"}, "12": {"label": "*2", "atom_type": "H0"}}

>  <type>  (4) 
ts

$$$$

     RDKit          3D

 21 20  0  0  0  0  0  0  0  0999 V2000
    1.1927   -2.1441   -3.8740 C   0  0  0  0  0  0  0  0  0  0  0  0
    1.1927   -2.1441   -2.6770 C   0  0  0  0  0  0  0  0  0  0  0  0
    1.1927   -2.1441   -1.2216 C   0  0  0  0  0  3  0  0  0  0  0  0
    1.1927   -2.1441   -4.9373 H   0  0  0  0  0  0  0  0  0  0  0  0
    1.3041   -0.9245   -0.7591 H   0  0  0  0  0  0  0  0  0  0  0  0
    2.0264   -2.7327   -0.8362 H   0  0  0  0  0  0  0  0  0  0  0  0
    0.2661   -2.5718   -0.8362 H   0  0  0  0  0  0  0  0  0  0  0  0
    1.4155    0.2947   -0.2969 C   0  0  0  0  0  0  0  0  0  0  0  0
    0.2316    0.6684    0.5516 C   0  0  0  0  0  0  0  0  0  0  0  0
    0.3651    0.8458    1.9252 C   0  0  0  0  0  0  0  0  0  0  0  0
   -0.7180    1.2197    2.7056 C   0  0  0  0  0  0  0  0  0  0  0  0
   -1.9597    1.4220    2.1227 C   0  0  0  0  0  0  0  0  0  0  0  0
   -2.1074    1.2453    0.7555 C   0  0  0  0  0  0  0  0  0  0  0  0
   -1.0208    0.8713   -0.0199 C   0  0  0  0  0  0  0  0  0  0  0  0
    2.1361   -0.2989    0.2669 H   0  0  0  0  0  0  0  0  0  0  0  0
    1.9331    1.1887   -0.6539 H   0  0  0  0  0  0  0  0  0  0  0  0
    1.3314    0.6864    2.3906 H   0  0  0  0  0  0  0  0  0  0  0  0
   -0.5921    1.3503    3.7733 H   0  0  0  0  0  0  0  0  0  0  0  0
   -2.8075    1.7115    2.7306 H   0  0  0  0  0  0  0  0  0  0  0  0
   -3.0737    1.3959    0.2903 H   0  0  0  0  0  0  0  0  0  0  0  0
   -1.1469    0.7320   -1.0877 H   0  0  0  0  0  0  0  0  0  0  0  0
  1  2  3  0
  1  4  1  0
  2  3  1  0
  3  6  1  0
  3  7  1  0
  5  8  1  0
  8  9  1  0
  8 15  1  0
  8 16  1  0
  9 10  2  0
  9 14  1  0
 10 11  1  0
 10 17  1  0
 11 12  2  0
 11 18  1  0
 12 13  1  0
 12 19  1  0
 13 14  2  0
 13 20  1  0
 14 21  1  0
M  RAD  1   3   2
M  END
>  <reaction>  (5) 
rxn_1227

>  <mol_properties>  (5) 
{"0": {"label": "*1", "atom_type": "Cs"}, "1": {"label": "*0", "atom_type": "Cd"}, "7": {"label": "*3", "atom_type": "Cs"}, "8": {"label": "*4", "atom_type": "Ct"}, "12": {"label": "*2", "atom_type": "H0"}}

>  <type>  (5) 
unop_1

>  <geom_source>  (5) 
Heuristics

$$$$

     RDKit          3D

 21 20  0  0  0  0  0  0  0  0999 V2000
    0.5326   -2.8570   -1.8295 C   0  0  0  0  0  0  0  0  0  0  0  0
    0.5326   -2.8570   -0.6325 C   0  0  0  0  0  0  0  0  0  0  0  0
    0.5326   -2.8570    0.8229 C   0  0  0  0  0  3  0  0  0  0  0  0
    0.5326   -2.8570   -2.8928 H   0  0  0  0  0  0  0  0  0  0  0  0
    0.6440   -1.6374    1.2854 H   0  0  0  0  0  0  0  0  0  0  0  0
    1.3663   -3.4455    1.2083 H   0  0  0  0  0  0  0  0  0  0  0  0
   -0.3940   -3.2847    1.2083 H   0  0  0  0  0  0  0  0  0  0  0  0
    0.7554   -0.4182    1.7476 C   0  0  0  0  0  0  0  0  0  0  0  0
    0.1436    0.5819    0.8060 C   0  0  0  0  0  0  0  0  0  0  0  0
   -0.7103    1.5752    1.2756 C   0  0  0  0  0  0  0  0  0  0  0  0
   -1.2521    2.5170    0.4145 C   0  0  0  0  0  0  0  0  0  0  0  0
   -0.9487    2.4803   -0.9379 C   0  0  0  0  0  0  0  0  0  0  0  0
   -0.1020    1.4938   -1.4196 C   0  0  0  0  0  0  0  0  0  0  0  0
    0.4369    0.5546   -0.5539 C   0  0  0  0  0  0  0  0  0  0  0  0
    0.1030   -0.6116    2.5998 H   0  0  0  0  0  0  0  0  0  0  0  0
    1.7071   -0.0494    2.1386 H   0  0  0  0  0  0  0  0  0  0  0  0
   -0.9562    1.6098    2.3311 H   0  0  0  0  0  0  0  0  0  0  0  0
   -1.9161    3.2802    0.8011 H   0  0  0  0  0  0  0  0  0  0  0  0
   -1.3727    3.2132   -1.6125 H   0  0  0  0  0  0  0  0  0  0  0  0
    0.1381    1.4527   -2.4749 H   0  0  0  0  0  0  0  0  0  0  0  0
    1.0952   -0.2153   -0.9406 H   0  0  0  0  0  0  0  0  0  0  0  0
  1  2  3  0
  1  4  1  0
  2  3  1  0
  3  6  1  0
  3  7  1  0
  5  8  1  0
  8  9  1  0
  8 15  1  0
  8 16  1  0
  9 10  2  0
  9 14  1  0
 10 11  1  0
 10 17  1  0
 11 12  2  0
 11 18  1  0
 12 13  1  0
 12 19  1  0
 13 14  2  0
 13 20  1  0
 14 21  1  0
M  RAD  1   3   2
M  END
>  <reaction>  (6) 
rxn_1227

>  <mol_properties>  (6) 
{"0": {"label": "*1", "atom_type": "Cs"}, "1": {"label": "*0", "atom_type": "Cd"}, "7": {"label": "*3", "atom_type": "Cs"}, "8": {"label": "*4", "atom_type": "Ct"}, "12": {"label": "*2", "atom_type": "H0"}}

>  <type>  (6) 
unop_2

>  <geom_source>  (6) 
Heuristics

$$$$

     RDKit          3D

 21 20  0  0  0  0  0  0  0  0999 V2000
    0.6338   -1.8858   -4.4190 C   0  0  0  0  0  0  0  0  0  0  0  0
    0.6338   -1.8858   -3.2219 C   0  0  0  0  0  0  0  0  0  0  0  0
    0.6338   -1.8858   -1.7665 C   0  0  0  0  0  3  0  0  0  0  0  0
    0.6338   -1.8858   -5.4822 H   0  0  0  0  0  0  0  0  0  0  0  0
    0.7452   -0.6662   -1.3041 H   0  0  0  0  0  0  0  0  0  0  0  0
    1.4675   -2.4743   -1.3811 H   0  0  0  0  0  0  0  0  0  0  0  0
   -0.2928   -2.3135   -1.3811 H   0  0  0  0  0  0  0  0  0  0  0  0
    0.8567    0.5530   -0.8418 C   0  0  0  0  0  0  0  0  0  0  0  0
    0.1668    0.6997    0.4863 C   0  0  0  0  0  0  0  0  0  0  0  0
    0.8672    1.1224    1.6119 C   0  0  0  0  0  0  0  0  0  0  0  0
    0.2275    1.2875    2.8307 C   0  0  0  0  0  0  0  0  0  0  0  0
   -1.1300    1.0299    2.9455 C   0  0  0  0  0  0  0  0  0  0  0  0
   -1.8392    0.6047    1.8325 C   0  0  0  0  0  0  0  0  0  0  0  0
   -1.1943    0.4413    0.6163 C   0  0  0  0  0  0  0  0  0  0  0  0
    1.9071    0.2882   -0.7161 H   0  0  0  0  0  0  0  0  0  0  0  0
    0.8182    1.4900   -1.4032 H   0  0  0  0  0  0  0  0  0  0  0  0
    1.9298    1.3228    1.5328 H   0  0  0  0  0  0  0  0  0  0  0  0
    0.7924    1.6154    3.6945 H   0  0  0  0  0  0  0  0  0  0  0  0
   -1.6310    1.1556    3.8969 H   0  0  0  0  0  0  0  0  0  0  0  0
   -2.8989    0.3960    1.9117 H   0  0  0  0  0  0  0  0  0  0  0  0
   -1.7566    0.1050   -0.2476 H   0  0  0  0  0  0  0  0  0  0  0  0
  1  2  3  0
  1  4  1  0
  2  3  1  0
  3  6  1  0
  3  7  1  0
  5  8  1  0
  8  9  1  0
  8 15  1  0
  8 16  1  0
  9 10  2  0
  9 14  1  0
 10 11  1  0
 10 17  1  0
 11 12  2  0
 11 18  1  0
 12 13  1  0
 12 19  1  0
 13 14  2  0
 13 20  1  0
 14 21  1  0
M  RAD  1   3   2
M  END
>  <reaction>  (7) 
rxn_1227

>  <mol_properties>  (7) 
{"0": {"label": "*1", "atom_type": "Cs"}, "1": {"label": "*0", "atom_type": "Cd"}, "7": {"label": "*3", "atom_type": "Cs"}, "8": {"label": "*4", "atom_type": "Ct"}, "12": {"label": "*2", "atom_type": "H0"}}

>  <type>  (7) 
unop_3

>  <geom_source>  (7) 
Heuristics

$$$$

     RDKit          3D

 21 20  0  0  0  0  0  0  0  0999 V2000
   -1.6263   -2.4325   -2.3910 C   0  0  0  0  0  0  0  0  0  0  0  0
   -1.6263   -2.4325   -1.1939 C   0  0  0  0  0  0  0  0  0  0  0  0
   -1.6263   -2.4325    0.2615 C   0  0  0  0  0  3  0  0  0  0  0  0
   -1.6263   -2.4325   -3.4543 H   0  0  0  0  0  0  0  0  0  0  0  0
   -1.5149   -1.2129    0.7239 H   0  0  0  0  0  0  0  0  0  0  0  0
   -0.7926   -3.0210    0.6468 H   0  0  0  0  0  0  0  0  0  0  0  0
   -2.5529   -2.8602    0.6468 H   0  0  0  0  0  0  0  0  0  0  0  0
   -1.4034    0.0063    1.1862 C   0  0  0  0  0  0  0  0  0  0  0  0
   -0.1263    0.6519    0.7242 C   0  0  0  0  0  0  0  0  0  0  0  0
    0.2207    1.9313    1.1474 C   0  0  0  0  0  0  0  0  0  0  0  0
    1.4117    2.5172    0.7473 C   0  0  0  0  0  0  0  0  0  0  0  0
    2.2796    1.8308   -0.0882 C   0  0  0  0  0  0  0  0  0  0  0  0
    1.9445    0.5567   -0.5201 C   0  0  0  0  0  0  0  0  0  0  0  0
    0.7521   -0.0243   -0.1168 C   0  0  0  0  0  0  0  0  0  0  0  0
   -2.1769    0.7504    1.3792 H   0  0  0  0  0  0  0  0  0  0  0  0
   -1.2425   -0.5495    2.1135 H   0  0  0  0  0  0  0  0  0  0  0  0
   -0.4532    2.4773    1.7980 H   0  0  0  0  0  0  0  0  0  0  0  0
    1.6610    3.5149    1.0870 H   0  0  0  0  0  0  0  0  0  0  0  0
    3.2090    2.2875   -0.4040 H   0  0  0  0  0  0  0  0  0  0  0  0
    2.6125    0.0131   -1.1767 H   0  0  0  0  0  0  0  0  0  0  0  0
    0.4970   -1.0198   -0.4627 H   0  0  0  0  0  0  0  0  0  0  0  0
  1  2  3  0
  1  4  1  0
  2  3  1  0
  3  6  1  0
  3  7  1  0
  5  8  1  0
  8  9  1  0
  8 15  1  0
  8 16  1  0
  9 10  2  0
  9 14  1  0
 10 11  1  0
 10 17  1  0
 11 12  2  0
 11 18  1  0
 12 13  1  0
 12 19  1  0
 13 14  2  0
 13 20  1  0
 14 21  1  0
M  RAD  1   3   2
M  END
>  <reaction>  (8) 
rxn_1227

>  <mol_properties>  (8) 
{"0": {"label": "*1", "atom_type": "Cs"}, "1": {"label": "*0", "atom_type": "Cd"}, "7": {"label": "*3", "atom_type": "Cs"}, "8": {"label": "*4", "atom_type": "Ct"}, "12": {"label": "*2", "atom_type": "H0"}}

>  <type>  (8) 
unop_4

>  <geom_source>  (8) 
Heuristics

$$$$

     RDKit          3D

 21 20  0  0  0  0  0  0  0  0999 V2000
   -0.1431   -1.7326   -4.6216 C   0  0  0  0  0  0  0  0  0  0  0  0
   -0.1431   -1.7326   -3.4246 C   0  0  0  0  0  0  0  0  0  0  0  0
   -0.1431   -1.7326   -1.9691 C   0  0  0  0  0  3  0  0  0  0  0  0
   -0.1431   -1.7326   -5.6849 H   0  0  0  0  0  0  0  0  0  0  0  0
   -0.0317   -0.5131   -1.5067 H   0  0  0  0  0  0  0  0  0  0  0  0
    0.6906   -2.3212   -1.5838 H   0  0  0  0  0  0  0  0  0  0  0  0
   -1.0697   -2.1603   -1.5838 H   0  0  0  0  0  0  0  0  0  0  0  0
    0.0797    0.7061   -1.0444 C   0  0  0  0  0  0  0  0  0  0  0  0
    0.0813    0.7230    0.4592 C   0  0  0  0  0  0  0  0  0  0  0  0
    0.7527    1.7192    1.1614 C   0  0  0  0  0  0  0  0  0  0  0  0
    0.7308    1.7547    2.5471 C   0  0  0  0  0  0  0  0  0  0  0  0
    0.0349    0.7887    3.2578 C   0  0  0  0  0  0  0  0  0  0  0  0
   -0.6356   -0.2116    2.5706 C   0  0  0  0  0  0  0  0  0  0  0  0
   -0.6103   -0.2421    1.1849 C   0  0  0  0  0  0  0  0  0  0  0  0
    0.9952    1.1410   -1.4470 H   0  0  0  0  0  0  0  0  0  0  0  0
   -0.7602    1.2851   -1.4369 H   0  0  0  0  0  0  0  0  0  0  0  0
    1.3026    2.4769    0.6145 H   0  0  0  0  0  0  0  0  0  0  0  0
    1.2621    2.5379    3.0735 H   0  0  0  0  0  0  0  0  0  0  0  0
    0.0186    0.8130    4.3399 H   0  0  0  0  0  0  0  0  0  0  0  0
   -1.1785   -0.9740    3.1155 H   0  0  0  0  0  0  0  0  0  0  0  0
   -1.1347   -1.0304    0.6564 H   0  0  0  0  0  0  0  0  0  0  0  0
  1  2  3  0
  1  4  1  0
  2  3  1  0
  3  6  1  0
  3  7  1  0
  5  8  1  0
  8  9  1  0
  8 15  1  0
  8 16  1  0
  9 10  2  0
  9 14  1  0
 10 11  1  0
 10 17  1  0
 11 12  2  0
 11 18  1  0
 12 13  1  0
 12 19  1  0
 13 14  2  0
 13 20  1  0
 14 21  1  0
M  RAD  1   3   2
M  END
>  <reaction>  (9) 
rxn_1227

>  <mol_properties>  (9) 
{"0": {"label": "*1", "atom_type": "Cs"}, "1": {"label": "*0", "atom_type": "Cd"}, "7": {"label": "*3", "atom_type": "Cs"}, "8": {"label": "*4", "atom_type": "Ct"}, "12": {"label": "*2", "atom_type": "H0"}}

>  <type>  (9) 
unop_5

>  <geom_source>  (9) 
Heuristics

$$$$

     RDKit          3D

 21 20  0  0  0  0  0  0  0  0999 V2000
   -1.8043   -2.1283   -3.1427 C   0  0  0  0  0  0  0  0  0  0  0  0
   -1.8043   -2.1283   -1.9456 C   0  0  0  0  0  0  0  0  0  0  0  0
   -1.8043   -2.1283   -0.4902 C   0  0  0  0  0  3  0  0  0  0  0  0
   -1.8043   -2.1283   -4.2059 H   0  0  0  0  0  0  0  0  0  0  0  0
   -1.6929   -0.9087   -0.0278 H   0  0  0  0  0  0  0  0  0  0  0  0
   -0.9706   -2.7168   -0.1048 H   0  0  0  0  0  0  0  0  0  0  0  0
   -2.7309   -2.5560   -0.1048 H   0  0  0  0  0  0  0  0  0  0  0  0
   -1.5814    0.3105    0.4345 C   0  0  0  0  0  0  0  0  0  0  0  0
   -0.1400    0.6927    0.6277 C   0  0  0  0  0  0  0  0  0  0  0  0
    0.2052    1.8564    1.3081 C   0  0  0  0  0  0  0  0  0  0  0  0
    1.5334    2.1959    1.5141 C   0  0  0  0  0  0  0  0  0  0  0  0
    2.5442    1.3741    1.0394 C   0  0  0  0  0  0  0  0  0  0  0  0
    2.2142    0.2133    0.3567 C   0  0  0  0  0  0  0  0  0  0  0  0
    0.8843   -0.1213    0.1537 C   0  0  0  0  0  0  0  0  0  0  0  0
   -2.2212    1.1917    0.3764 H   0  0  0  0  0  0  0  0  0  0  0  0
   -1.9354   -0.2988    1.2700 H   0  0  0  0  0  0  0  0  0  0  0  0
   -0.5783    2.5072    1.6800 H   0  0  0  0  0  0  0  0  0  0  0  0
    1.7795    3.1074    2.0446 H   0  0  0  0  0  0  0  0  0  0  0  0
    3.5821    1.6386    1.1968 H   0  0  0  0  0  0  0  0  0  0  0  0
    2.9955   -0.4337   -0.0226 H   0  0  0  0  0  0  0  0  0  0  0  0
    0.6361   -1.0292   -0.3845 H   0  0  0  0  0  0  0  0  0  0  0  0
  1  2  3  0
  1  4  1  0
  2  3  1  0
  3  6  1  0
  3  7  1  0
  5  8  1  0
  8  9  1  0
  8 15  1  0
  8 16  1  0
  9 10  2  0
  9 14  1  0
 10 11  1  0
 10 17  1  0
 11 12  2  0
 11 18  1  0
 12 13  1  0
 12 19  1  0
 13 14  2  0
 13 20  1  0
 14 21  1  0
M  RAD  1   3   2
M  END
>  <reaction>  (10) 
rxn_1227

>  <mol_properties>  (10) 
{"0": {"label": "*1", "atom_type": "Cs"}, "1": {"label": "*0", "atom_type": "Cd"}, "7": {"label": "*3", "atom_type": "Cs"}, "8": {"label": "*4", "atom_type": "Ct"}, "12": {"label": "*2", "atom_type": "H0"}}

>  <type>  (10) 
unop_6

>  <geom_source>  (10) 
Heuristics

$$$$

     RDKit          3D

 21 20  0  0  0  0  0  0  0  0999 V2000
   -1.5538   -1.8677   -3.8898 C   0  0  0  0  0  0  0  0  0  0  0  0
   -1.5538   -1.8677   -2.6927 C   0  0  0  0  0  0  0  0  0  0  0  0
   -1.5538   -1.8677   -1.2373 C   0  0  0  0  0  3  0  0  0  0  0  0
   -1.5538   -1.8677   -4.9531 H   0  0  0  0  0  0  0  0  0  0  0  0
   -1.4423   -0.6481   -0.7749 H   0  0  0  0  0  0  0  0  0  0  0  0
   -0.7201   -2.4563   -0.8519 H   0  0  0  0  0  0  0  0  0  0  0  0
   -2.4804   -2.2954   -0.8519 H   0  0  0  0  0  0  0  0  0  0  0  0
   -1.3309    0.5711   -0.3126 C   0  0  0  0  0  0  0  0  0  0  0  0
   -0.0988    0.7239    0.5358 C   0  0  0  0  0  0  0  0  0  0  0  0
    0.0992    1.8642    1.3084 C   0  0  0  0  0  0  0  0  0  0  0  0
    1.2193    1.9948    2.1147 C   0  0  0  0  0  0  0  0  0  0  0  0
    2.1660    0.9829    2.1613 C   0  0  0  0  0  0  0  0  0  0  0  0
    1.9828   -0.1572    1.3938 C   0  0  0  0  0  0  0  0  0  0  0  0
    0.8607   -0.2824    0.5893 C   0  0  0  0  0  0  0  0  0  0  0  0
   -1.6988    1.5386   -0.6559 H   0  0  0  0  0  0  0  0  0  0  0  0
   -2.1349    0.0956    0.2551 H   0  0  0  0  0  0  0  0  0  0  0  0
   -0.6339    2.6625    1.2759 H   0  0  0  0  0  0  0  0  0  0  0  0
    1.3544    2.8919    2.7063 H   0  0  0  0  0  0  0  0  0  0  0  0
    3.0427    1.0839    2.7882 H   0  0  0  0  0  0  0  0  0  0  0  0
    2.7181   -0.9519    1.4187 H   0  0  0  0  0  0  0  0  0  0  0  0
    0.7279   -1.1761   -0.0100 H   0  0  0  0  0  0  0  0  0  0  0  0
  1  2  3  0
  1  4  1  0
  2  3  1  0
  3  6  1  0
  3  7  1  0
  5  8  1  0
  8  9  1  0
  8 15  1  0
  8 16  1  0
  9 10  2  0
  9 14  1  0
 10 11  1  0
 10 17  1  0
 11 12  2  0
 11 18  1  0
 12 13  1  0
 12 19  1  0
 13 14  2  0
 13 20  1  0
 14 21  1  0
M  RAD  1   3   2
M  END
>  <reaction>  (11) 
rxn_1227

>  <mol_properties>  (11) 
{"0": {"label": "*1", "atom_type": "Cs"}, "1": {"label": "*0", "atom_type": "Cd"}, "7": {"label": "*3", "atom_type": "Cs"}, "8": {"label": "*4", "atom_type": "Ct"}, "12": {"label": "*2", "atom_type": "H0"}}

>  <type>  (11) 
unop_7

>  <geom_source>  (11) 
Heuristics

$$$$

     RDKit          3D

 21 20  0  0  0  0  0  0  0  0999 V2000
    1.3794   -2.4443   -3.1271 C   0  0  0  0  0  0  0  0  0  0  0  0
    1.3794   -2.4443   -1.9300 C   0  0  0  0  0  0  0  0  0  0  0  0
    1.3794   -2.4443   -0.4746 C   0  0  0  0  0  3  0  0  0  0  0  0
    1.3794   -2.4443   -4.1904 H   0  0  0  0  0  0  0  0  0  0  0  0
    1.4909   -1.2248   -0.0122 H   0  0  0  0  0  0  0  0  0  0  0  0
    2.2131   -3.0329   -0.0893 H   0  0  0  0  0  0  0  0  0  0  0  0
    0.4528   -2.8720   -0.0893 H   0  0  0  0  0  0  0  0  0  0  0  0
    1.6023   -0.0056    0.4501 C   0  0  0  0  0  0  0  0  0  0  0  0
    0.2540    0.6315    0.6433 C   0  0  0  0  0  0  0  0  0  0  0  0
   -0.2270    0.9122    1.9185 C   0  0  0  0  0  0  0  0  0  0  0  0
   -1.4564    1.5270    2.0988 C   0  0  0  0  0  0  0  0  0  0  0  0
   -2.2304    1.8718    1.0013 C   0  0  0  0  0  0  0  0  0  0  0  0
   -1.7646    1.5948   -0.2749 C   0  0  0  0  0  0  0  0  0  0  0  0
   -0.5344    0.9798   -0.4491 C   0  0  0  0  0  0  0  0  0  0  0  0
    1.8593   -0.6526    1.2895 H   0  0  0  0  0  0  0  0  0  0  0  0
    2.3821    0.7561    0.3706 H   0  0  0  0  0  0  0  0  0  0  0  0
    0.3695    0.6430    2.7830 H   0  0  0  0  0  0  0  0  0  0  0  0
   -1.8124    1.7343    3.1004 H   0  0  0  0  0  0  0  0  0  0  0  0
   -3.1919    2.3496    1.1398 H   0  0  0  0  0  0  0  0  0  0  0  0
   -2.3628    1.8554   -1.1392 H   0  0  0  0  0  0  0  0  0  0  0  0
   -0.1802    0.7639   -1.4509 H   0  0  0  0  0  0  0  0  0  0  0  0
  1  2  3  0
  1  4  1  0
  2  3  1  0
  3  6  1  0
  3  7  1  0
  5  8  1  0
  8  9  1  0
  8 15  1  0
  8 16  1  0
  9 10  2  0
  9 14  1  0
 10 11  1  0
 10 17  1  0
 11 12  2  0
 11 18  1  0
 12 13  1  0
 12 19  1  0
 13 14  2  0
 13 20  1  0
 14 21  1  0
M  RAD  1   3   2
M  END
>  <reaction>  (12) 
rxn_1227

>  <mol_properties>  (12) 
{"0": {"label": "*1", "atom_type": "Cs"}, "1": {"label": "*0", "atom_type": "Cd"}, "7": {"label": "*3", "atom_type": "Cs"}, "8": {"label": "*4", "atom_type": "Ct"}, "12": {"label": "*2", "atom_type": "H0"}}

>  <type>  (12) 
unop_8

>  <geom_source>  (12) 
Heuristics

$$$$

     RDKit          3D

 21 20  0  0  0  0  0  0  0  0999 V2000
   -1.0670   -2.6985   -1.8371 C   0  0  0  0  0  0  0  0  0  0  0  0
   -1.0670   -2.6985   -0.6401 C   0  0  0  0  0  0  0  0  0  0  0  0
   -1.0670   -2.6985    0.8153 C   0  0  0  0  0  3  0  0  0  0  0  0
   -1.0670   -2.6985   -2.9004 H   0  0  0  0  0  0  0  0  0  0  0  0
   -0.9556   -1.4789    1.2777 H   0  0  0  0  0  0  0  0  0  0  0  0
   -0.2333   -3.2871    1.2007 H   0  0  0  0  0  0  0  0  0  0  0  0
   -1.9936   -3.1262    1.2007 H   0  0  0  0  0  0  0  0  0  0  0  0
   -0.8442   -0.2598    1.7400 C   0  0  0  0  0  0  0  0  0  0  0  0
   -0.0611    0.6129    0.7984 C   0  0  0  0  0  0  0  0  0  0  0  0
   -0.0116    1.9920    0.9774 C   0  0  0  0  0  0  0  0  0  0  0  0
    0.7339    2.7958    0.1289 C   0  0  0  0  0  0  0  0  0  0  0  0
    1.4448    2.2316   -0.9193 C   0  0  0  0  0  0  0  0  0  0  0  0
    1.4013    0.8591   -1.1110 C   0  0  0  0  0  0  0  0  0  0  0  0
    0.6542    0.0601   -0.2594 C   0  0  0  0  0  0  0  0  0  0  0  0
   -1.7015    0.2723    2.1537 H   0  0  0  0  0  0  0  0  0  0  0  0
   -0.2206   -0.5814    2.5781 H   0  0  0  0  0  0  0  0  0  0  0  0
   -0.5671    2.4428    1.7921 H   0  0  0  0  0  0  0  0  0  0  0  0
    0.7567    3.8672    0.2853 H   0  0  0  0  0  0  0  0  0  0  0  0
    2.0255    2.8577   -1.5847 H   0  0  0  0  0  0  0  0  0  0  0  0
    1.9489    0.4080   -1.9293 H   0  0  0  0  0  0  0  0  0  0  0  0
    0.6234   -1.0118   -0.4195 H   0  0  0  0  0  0  0  0  0  0  0  0
  1  2  3  0
  1  4  1  0
  2  3  1  0
  3  6  1  0
  3  7  1  0
  5  8  1  0
  8  9  1  0
  8 15  1  0
  8 16  1  0
  9 10  2  0
  9 14  1  0
 10 11  1  0
 10 17  1  0
 11 12  2  0
 11 18  1  0
 12 13  1  0
 12 19  1  0
 13 14  2  0
 13 20  1  0
 14 21  1  0
M  RAD  1   3   2
M  END
>  <reaction>  (13) 
rxn_1227

>  <mol_properties>  (13) 
{"0": {"label": "*1", "atom_type": "Cs"}, "1": {"label": "*0", "atom_type": "Cd"}, "7": {"label": "*3", "atom_type": "Cs"}, "8": {"label": "*4", "atom_type": "Ct"}, "12": {"label": "*2", "atom_type": "H0"}}

>  <type>  (13) 
unop_9

>  <geom_source>  (13) 
Heuristics

$$$$

     RDKit          3D

 21 20  0  0  0  0  0  0  0  0999 V2000
    1.1387   -2.7060   -2.3781 C   0  0  0  0  0  0  0  0  0  0  0  0
    1.1387   -2.7060   -1.1810 C   0  0  0  0  0  0  0  0  0  0  0  0
    1.1387   -2.7060    0.2744 C   0  0  0  0  0  3  0  0  0  0  0  0
    1.1387   -2.7060   -3.4413 H   0  0  0  0  0  0  0  0  0  0  0  0
    1.2502   -1.4864    0.7368 H   0  0  0  0  0  0  0  0  0  0  0  0
    1.9724   -3.2946    0.6598 H   0  0  0  0  0  0  0  0  0  0  0  0
    0.2121   -3.1337    0.6598 H   0  0  0  0  0  0  0  0  0  0  0  0
    1.3616   -0.2673    1.1991 C   0  0  0  0  0  0  0  0  0  0  0  0
    0.2227    0.5992    0.7372 C   0  0  0  0  0  0  0  0  0  0  0  0
   -0.6390    1.1943    1.6534 C   0  0  0  0  0  0  0  0  0  0  0  0
   -1.6715    2.0179    1.2320 C   0  0  0  0  0  0  0  0  0  0  0  0
   -1.8617    2.2602   -0.1198 C   0  0  0  0  0  0  0  0  0  0  0  0
   -1.0125    1.6708   -1.0437 C   0  0  0  0  0  0  0  0  0  0  0  0
    0.0184    0.8481   -0.6166 C   0  0  0  0  0  0  0  0  0  0  0  0
    1.1221   -0.7710    2.1362 H   0  0  0  0  0  0  0  0  0  0  0  0
    2.2599    0.3322    1.3678 H   0  0  0  0  0  0  0  0  0  0  0  0
   -0.5003    1.0078    2.7125 H   0  0  0  0  0  0  0  0  0  0  0  0
   -2.3317    2.4692    1.9623 H   0  0  0  0  0  0  0  0  0  0  0  0
   -2.6690    2.9009   -0.4513 H   0  0  0  0  0  0  0  0  0  0  0  0
   -1.1546    1.8492   -2.1024 H   0  0  0  0  0  0  0  0  0  0  0  0
    0.6752    0.3887   -1.3468 H   0  0  0  0  0  0  0  0  0  0  0  0
  1  2  3  0
  1  4  1  0
  2  3  1  0
  3  6  1  0
  3  7  1  0
  5  8  1  0
  8  9  1  0
  8 15  1  0
  8 16  1  0
  9 10  2  0
  9 14  1  0
 10 11  1  0
 10 17  1  0
 11 12  2  0
 11 18  1  0
 12 13  1  0
 12 19  1  0
 13 14  2  0
 13 20  1  0
 14 21  1  0
M  RAD  1   3   2
M  END
>  <reaction>  (14) 
rxn_1227

>  <mol_properties>  (14) 
{"0": {"label": "*1", "atom_type": "Cs"}, "1": {"label": "*0", "atom_type": "Cd"}, "7": {"label": "*3", "atom_type": "Cs"}, "8": {"label": "*4", "atom_type": "Ct"}, "12": {"label": "*2", "atom_type": "H0"}}

>  <type>  (14) 
unop_10

>  <geom_source>  (14) 
Heuristics

$$$$

     RDKit          3D

 21 20  0  0  0  0  0  0  0  0999 V2000
   -0.9432   -1.7225   -4.4309 C   0  0  0  0  0  0  0  0  0  0  0  0
   -0.9432   -1.7225   -3.2338 C   0  0  0  0  0  0  0  0  0  0  0  0
   -0.9432   -1.7225   -1.7784 C   0  0  0  0  0  3  0  0  0  0  0  0
   -0.9432   -1.7225   -5.4941 H   0  0  0  0  0  0  0  0  0  0  0  0
   -0.8317   -0.5029   -1.3160 H   0  0  0  0  0  0  0  0  0  0  0  0
   -0.1095   -2.3110   -1.3930 H   0  0  0  0  0  0  0  0  0  0  0  0
   -1.8698   -2.1502   -1.3930 H   0  0  0  0  0  0  0  0  0  0  0  0
   -0.7203    0.7163   -0.8537 C   0  0  0  0  0  0  0  0  0  0  0  0
   -0.0153    0.7355    0.4744 C   0  0  0  0  0  0  0  0  0  0  0  0
    0.2098    1.9331    1.1461 C   0  0  0  0  0  0  0  0  0  0  0  0
    0.8326    1.9512    2.3845 C   0  0  0  0  0  0  0  0  0  0  0  0
    1.2443    0.7660    2.9746 C   0  0  0  0  0  0  0  0  0  0  0  0
    1.0293   -0.4342    2.3146 C   0  0  0  0  0  0  0  0  0  0  0  0
    0.4060   -0.4463    1.0763 C   0  0  0  0  0  0  0  0  0  0  0  0
   -0.5380    1.6346   -1.4130 H   0  0  0  0  0  0  0  0  0  0  0  0
   -1.8007    0.6232   -0.7167 H   0  0  0  0  0  0  0  0  0  0  0  0
   -0.1053    2.8654    0.6910 H   0  0  0  0  0  0  0  0  0  0  0  0
    0.9997    2.8950    2.8888 H   0  0  0  0  0  0  0  0  0  0  0  0
    1.7332    0.7780    3.9404 H   0  0  0  0  0  0  0  0  0  0  0  0
    1.3509   -1.3656    2.7638 H   0  0  0  0  0  0  0  0  0  0  0  0
    0.2454   -1.3895    0.5662 H   0  0  0  0  0  0  0  0  0  0  0  0
  1  2  3  0
  1  4  1  0
  2  3  1  0
  3  6  1  0
  3  7  1  0
  5  8  1  0
  8  9  1  0
  8 15  1  0
  8 16  1  0
  9 10  2  0
  9 14  1  0
 10 11  1  0
 10 17  1  0
 11 12  2  0
 11 18  1  0
 12 13  1  0
 12 19  1  0
 13 14  2  0
 13 20  1  0
 14 21  1  0
M  RAD  1   3   2
M  END
>  <reaction>  (15) 
rxn_1227

>  <mol_properties>  (15) 
{"0": {"label": "*1", "atom_type": "Cs"}, "1": {"label": "*0", "atom_type": "Cd"}, "7": {"label": "*3", "atom_type": "Cs"}, "8": {"label": "*4", "atom_type": "Ct"}, "12": {"label": "*2", "atom_type": "H0"}}

>  <type>  (15) 
unop_11

>  <geom_source>  (15) 
Heuristics

$$$$

     RDKit          3D

 21 20  0  0  0  0  0  0  0  0999 V2000
   -0.2761   -2.8544   -1.6311 C   0  0  0  0  0  0  0  0  0  0  0  0
   -0.2761   -2.8544   -0.4341 C   0  0  0  0  0  0  0  0  0  0  0  0
   -0.2761   -2.8544    1.0213 C   0  0  0  0  0  3  0  0  0  0  0  0
   -0.2761   -2.8544   -2.6944 H   0  0  0  0  0  0  0  0  0  0  0  0
   -0.1646   -1.6348    1.4837 H   0  0  0  0  0  0  0  0  0  0  0  0
    0.5576   -3.4430    1.4067 H   0  0  0  0  0  0  0  0  0  0  0  0
   -1.2027   -3.2821    1.4067 H   0  0  0  0  0  0  0  0  0  0  0  0
   -0.0532   -0.4157    1.9460 C   0  0  0  0  0  0  0  0  0  0  0  0
    0.0384    0.5868    0.8289 C   0  0  0  0  0  0  0  0  0  0  0  0
   -0.4230    1.8886    0.9980 C   0  0  0  0  0  0  0  0  0  0  0  0
   -0.3124    2.8233   -0.0198 C   0  0  0  0  0  0  0  0  0  0  0  0
    0.2629    2.4698   -1.2308 C   0  0  0  0  0  0  0  0  0  0  0  0
    0.7237    1.1750   -1.4139 C   0  0  0  0  0  0  0  0  0  0  0  0
    0.6105    0.2444   -0.3925 C   0  0  0  0  0  0  0  0  0  0  0  0
   -0.9106   -0.2153    2.5895 H   0  0  0  0  0  0  0  0  0  0  0  0
    0.8428   -0.3811    2.5711 H   0  0  0  0  0  0  0  0  0  0  0  0
   -0.8776    2.1734    1.9402 H   0  0  0  0  0  0  0  0  0  0  0  0
   -0.6801    3.8305    0.1327 H   0  0  0  0  0  0  0  0  0  0  0  0
    0.3479    3.1974   -2.0279 H   0  0  0  0  0  0  0  0  0  0  0  0
    1.1705    0.8865   -2.3572 H   0  0  0  0  0  0  0  0  0  0  0  0
    0.9704   -0.7667   -0.5464 H   0  0  0  0  0  0  0  0  0  0  0  0
  1  2  3  0
  1  4  1  0
  2  3  1  0
  3  6  1  0
  3  7  1  0
  5  8  1  0
  8  9  1  0
  8 15  1  0
  8 16  1  0
  9 10  2  0
  9 14  1  0
 10 11  1  0
 10 17  1  0
 11 12  2  0
 11 18  1  0
 12 13  1  0
 12 19  1  0
 13 14  2  0
 13 20  1  0
 14 21  1  0
M  RAD  1   3   2
M  END
>  <reaction>  (16) 
rxn_1227

>  <mol_properties>  (16) 
{"0": {"label": "*1", "atom_type": "Cs"}, "1": {"label": "*0", "atom_type": "Cd"}, "7": {"label": "*3", "atom_type": "Cs"}, "8": {"label": "*4", "atom_type": "Ct"}, "12": {"label": "*2", "atom_type": "H0"}}

>  <type>  (16) 
unop_12

>  <geom_source>  (16) 
Heuristics

$$$$

     RDKit          3D

 21 20  0  0  0  0  0  0  0  0999 V2000
    0.7933    0.1037   -0.9502 C   0  0  0  0  0  0  0  0  0  0  0  0
   -0.6232    0.2238   -0.4760 C   0  0  0  0  0  0  0  0  0  0  0  0
   -1.2585   -0.8693    0.1339 C   0  0  0  0  0  0  0  0  0  0  0  0
   -1.3460    1.4072   -0.6973 C   0  0  0  0  0  0  0  0  0  0  0  0
   -2.5919   -0.7684    0.5441 C   0  0  0  0  0  0  0  0  0  0  0  0
   -2.6792    1.5043   -0.2858 C   0  0  0  0  0  0  0  0  0  0  0  0
   -3.3010    0.4182    0.3367 C   0  0  0  0  0  0  0  0  0  0  0  0
    2.1937   -1.1073    0.9021 C   0  0  0  0  0  3  0  0  0  0  0  0
    3.4324   -0.4602    0.4691 C   0  0  0  0  0  0  0  0  0  0  0  0
    4.4529    0.0730    0.1121 C   0  0  0  0  0  0  0  0  0  0  0  0
    1.3138    1.0823   -0.8763 H   0  0  0  0  0  0  0  0  0  0  0  0
    0.8017   -0.2335   -2.0077 H   0  0  0  0  0  0  0  0  0  0  0  0
    1.4609   -0.7763   -0.2080 H   0  0  0  0  0  0  0  0  0  0  0  0
   -0.7238   -1.7977    0.2917 H   0  0  0  0  0  0  0  0  0  0  0  0
   -0.8781    2.2526   -1.1867 H   0  0  0  0  0  0  0  0  0  0  0  0
   -3.0766   -1.6115    1.0193 H   0  0  0  0  0  0  0  0  0  0  0  0
   -3.2313    2.4202   -0.4527 H   0  0  0  0  0  0  0  0  0  0  0  0
   -4.3331    0.4942    0.6535 H   0  0  0  0  0  0  0  0  0  0  0  0
    2.3596   -2.2004    0.9941 H   0  0  0  0  0  0  0  0  0  0  0  0
    1.8852   -0.6960    1.8853 H   0  0  0  0  0  0  0  0  0  0  0  0
    5.3488    0.5412   -0.2012 H   0  0  0  0  0  0  0  0  0  0  0  0
  1  2  1  0
  1 11  1  0
  1 12  1  0
  1 13  1  0
  2  3  2  0
  2  4  1  0
  3  5  1  0
  3 14  1  0
  4  6  2  0
  4 15  1  0
  5  7  2  0
  5 16  1  0
  6  7  1  0
  6 17  1  0
  7 18  1  0
  8  9  1  0
  8 19  1  0
  8 20  1  0
  9 10  3  0
 10 21  1  0
M  RAD  1   8   2
M  END
>  <reaction>  (17) 
rxn_1227

>  <mol_properties>  (17) 
{"0": {"label": "*1", "atom_type": "Cs"}, "1": {"label": "*0", "atom_type": "Cd"}, "7": {"label": "*3", "atom_type": "Cs"}, "8": {"label": "*4", "atom_type": "Ct"}, "12": {"label": "*2", "atom_type": "H0"}}

>  <type>  (17) 
unop_13

>  <geom_source>  (17) 
AutoTST

$$$$
