
     RDKit          3D

 15 14  0  0  0  0  0  0  0  0999 V2000
   -0.6986    1.3249   -0.1641 C   0  0  0  0  0  0  0  0  0  0  0  0
   -0.2590   -0.0344    0.3671 C   0  0  0  0  0  0  0  0  0  0  0  0
   -0.4734   -0.1429    1.8733 C   0  0  0  0  0  0  0  0  0  0  0  0
   -0.9841   -1.1722   -0.3462 C   0  0  0  0  0  0  0  0  0  0  0  0
   -0.7805   -1.1911   -1.7444 O   0  0  0  0  0  0  0  0  0  0  0  0
   -0.1246    2.1306    0.2976 H   0  0  0  0  0  0  0  0  0  0  0  0
   -1.7557    1.4964    0.0581 H   0  0  0  0  0  0  0  0  0  0  0  0
   -0.5709    1.3852   -1.2449 H   0  0  0  0  0  0  0  0  0  0  0  0
    0.8141   -0.1541    0.1667 H   0  0  0  0  0  0  0  0  0  0  0  0
   -1.5346   -0.0466    2.1192 H   0  0  0  0  0  0  0  0  0  0  0  0
    0.0611    0.6480    2.4019 H   0  0  0  0  0  0  0  0  0  0  0  0
   -0.1249   -1.1023    2.2618 H   0  0  0  0  0  0  0  0  0  0  0  0
   -0.6918   -2.1316    0.1011 H   0  0  0  0  0  0  0  0  0  0  0  0
   -2.0629   -1.0627   -0.2056 H   0  0  0  0  0  0  0  0  0  0  0  0
    0.1528   -1.3298   -1.9125 H   0  0  0  0  0  0  0  0  0  0  0  0
  1  2  1  0
  1  6  1  0
  1  7  1  0
  1  8  1  0
  2  3  1  0
  2  4  1  0
  2  9  1  0
  3 10  1  0
  3 11  1  0
  3 12  1  0
  4  5  1  0
  4 13  1  0
  4 14  1  0
  5 15  1  0
M  END
>  <reaction>  (1) 
rxn_407

>  <mol_properties>  (1) 
{"3": {"label": "donator", "atom_type": "Cs"}, "12": {"label": "d_hydrogen", "atom_type": "H0"}}

>  <type>  (1) 
r1h

$$$$

     RDKit          3D

 10  9  0  0  0  0  0  0  0  0999 V2000
    1.2930    0.1441    0.3288 C   0  0  0  0  0  0  0  0  0  0  0  0
   -0.0374   -0.1647    0.9100 C   0  0  0  0  0  3  0  0  0  0  0  0
   -1.2664    0.4569    0.3567 C   0  0  0  0  0  0  0  0  0  0  0  0
    1.4384    1.2242    0.2174 H   0  0  0  0  0  0  0  0  0  0  0  0
    2.1077   -0.2477    0.9385 H   0  0  0  0  0  0  0  0  0  0  0  0
    1.4057   -0.2836   -0.6789 H   0  0  0  0  0  0  0  0  0  0  0  0
   -0.1309   -0.9912    1.6030 H   0  0  0  0  0  0  0  0  0  0  0  0
   -1.5005    0.0716   -0.6471 H   0  0  0  0  0  0  0  0  0  0  0  0
   -2.1382    0.2713    0.9849 H   0  0  0  0  0  0  0  0  0  0  0  0
   -1.1497    1.5406    0.2456 H   0  0  0  0  0  0  0  0  0  0  0  0
  1  2  1  0
  1  4  1  0
  1  5  1  0
  1  6  1  0
  2  3  1  0
  2  7  1  0
  3  8  1  0
  3  9  1  0
  3 10  1  0
M  RAD  1   2   2
M  END
>  <reaction>  (2) 
rxn_407

>  <mol_properties>  (2) 
{"1": {"label": "acceptor", "atom_type": "Cs"}}

>  <type>  (2) 
r2

$$$$

     RDKit          3D

 11 10  0  0  0  0  0  0  0  0999 V2000
   -1.2710    0.1907   -0.2084 C   0  0  0  0  0  0  0  0  0  0  0  0
    0.0202   -0.6130   -0.2928 C   0  0  0  0  0  0  0  0  0  0  0  0
    0.1086   -1.6953    0.7756 C   0  0  0  0  0  0  0  0  0  0  0  0
   -1.3607    0.6851    0.7620 H   0  0  0  0  0  0  0  0  0  0  0  0
   -2.1429   -0.4567   -0.3299 H   0  0  0  0  0  0  0  0  0  0  0  0
   -1.3158    0.9602   -0.9809 H   0  0  0  0  0  0  0  0  0  0  0  0
    0.8757    0.0616   -0.1992 H   0  0  0  0  0  0  0  0  0  0  0  0
    0.0997   -1.0712   -1.2825 H   0  0  0  0  0  0  0  0  0  0  0  0
   -0.7198   -2.4022    0.6850 H   0  0  0  0  0  0  0  0  0  0  0  0
    1.0395   -2.2596    0.6989 H   0  0  0  0  0  0  0  0  0  0  0  0
    0.0624   -1.2603    1.7770 H   0  0  0  0  0  0  0  0  0  0  0  0
  1  2  1  0
  1  4  1  0
  1  5  1  0
  1  6  1  0
  2  3  1  0
  2  7  1  0
  2  8  1  0
  3  9  1  0
  3 10  1  0
  3 11  1  0
M  END
>  <reaction>  (3) 
rxn_407

>  <mol_properties>  (3) 
{"0": {"label": "a_hydrogen", "atom_type": "H0"}, "2": {"label": "acceptor", "atom_type": "Cs"}}

>  <type>  (3) 
r2h

$$$$

     RDKit          3D

 25 23  0  0  0  0  0  0  0  0999 V2000
    0.8342    0.5248   -2.7321 C   0  0  0  0  0  0  0  0  0  0  0  0
    0.5750    0.7186   -1.2376 C   0  0  0  0  0  0  0  0  0  0  0  0
   -0.0075    2.0979   -0.9476 C   0  0  0  0  0  0  0  0  0  0  0  0
   -0.3327   -0.3579   -0.6828 C   0  0  0  0  0  0  0  0  0  0  0  0
    0.1497   -1.6613   -0.7757 O   0  0  0  0  0  0  0  0  0  0  0  0
    1.5507    1.2611   -3.1028 H   0  0  0  0  0  0  0  0  0  0  0  0
   -0.0941    0.6434   -3.2971 H   0  0  0  0  0  0  0  0  0  0  0  0
    1.2262   -0.4713   -2.9397 H   0  0  0  0  0  0  0  0  0  0  0  0
    1.5357    0.6388   -0.7099 H   0  0  0  0  0  0  0  0  0  0  0  0
   -0.9821    2.2122   -1.4298 H   0  0  0  0  0  0  0  0  0  0  0  0
    0.6458    2.8840   -1.3297 H   0  0  0  0  0  0  0  0  0  0  0  0
   -0.1424    2.2576    0.1233 H   0  0  0  0  0  0  0  0  0  0  0  0
   -0.4947   -0.0846    0.6129 H   0  0  0  0  0  0  0  0  0  0  0  0
   -1.3376   -0.3401   -1.1087 H   0  0  0  0  0  0  0  0  0  0  0  0
    1.0541   -1.6753   -0.4548 H   0  0  0  0  0  0  0  0  0  0  0  0
    0.9873    0.1237    2.3301 C   0  0  0  0  0  0  0  0  0  0  0  0
   -0.4741    0.0157    1.9823 C   0  0  0  0  0  3  0  0  0  0  0  0
   -1.1750   -1.2266    2.4628 C   0  0  0  0  0  0  0  0  0  0  0  0
    1.5402   -0.7507    1.9717 H   0  0  0  0  0  0  0  0  0  0  0  0
    1.4426    1.0137    1.8903 H   0  0  0  0  0  0  0  0  0  0  0  0
    1.1453    0.1738    3.4137 H   0  0  0  0  0  0  0  0  0  0  0  0
   -1.0303    0.9328    2.1796 H   0  0  0  0  0  0  0  0  0  0  0  0
   -1.1638   -1.2991    3.5569 H   0  0  0  0  0  0  0  0  0  0  0  0
   -2.2173   -1.2471    2.1404 H   0  0  0  0  0  0  0  0  0  0  0  0
   -0.6887   -2.1228    2.0688 H   0  0  0  0  0  0  0  0  0  0  0  0
  1  2  1  0
  1  6  1  0
  1  7  1  0
  1  8  1  0
  2  3  1  0
  2  4  1  0
  2  9  1  0
  3 10  1  0
  3 11  1  0
  3 12  1  0
  4  5  1  0
  4 13  1  0
  4 14  1  0
  5 15  1  0
 16 17  1  0
 16 19  1  0
 16 20  1  0
 16 21  1  0
 17 18  1  0
 17 22  1  0
 18 23  1  0
 18 24  1  0
 18 25  1  0
M  RAD  1  17   2
M  END
>  <reaction>  (4) 
rxn_407

>  <mol_properties>  (4) 
{"1": {"label": "*0", "atom_type": "Cs"}, "3": {"label": "*1", "atom_type": "Cs"}, "12": {"label": "*2", "atom_type": "H0"}, "15": {"label": "*4", "atom_type": "Cs"}, "16": {"label": "*3", "atom_type": "Cs"}}

>  <type>  (4) 
ts

$$$$

     RDKit          3D

 25 23  0  0  0  0  0  0  0  0999 V2000
    0.7846    0.3525   -2.8683 C   0  0  0  0  0  0  0  0  0  0  0  0
    0.7846    0.3525   -1.3442 C   0  0  0  0  0  0  0  0  0  0  0  0
    0.7846    1.7712   -0.7843 C   0  0  0  0  0  0  0  0  0  0  0  0
   -0.4029   -0.4279   -0.7873 C   0  0  0  0  0  3  0  0  0  0  0  0
   -0.4417   -1.7792   -1.1990 O   0  0  0  0  0  0  0  0  0  0  0  0
    1.6743    0.8490   -3.2604 H   0  0  0  0  0  0  0  0  0  0  0  0
   -0.0917    0.8852   -3.2488 H   0  0  0  0  0  0  0  0  0  0  0  0
    0.7542   -0.6635   -3.2620 H   0  0  0  0  0  0  0  0  0  0  0  0
    1.6974   -0.1500   -0.9977 H   0  0  0  0  0  0  0  0  0  0  0  0
   -0.1187    2.3062   -1.0906 H   0  0  0  0  0  0  0  0  0  0  0  0
    1.6431    2.3359   -1.1513 H   0  0  0  0  0  0  0  0  0  0  0  0
    0.8219    1.7736    0.3072 H   0  0  0  0  0  0  0  0  0  0  0  0
   -0.4091   -0.3420    0.5277 H   0  0  0  0  0  0  0  0  0  0  0  0
   -1.3341    0.0180   -1.1470 H   0  0  0  0  0  0  0  0  0  0  0  0
    0.3409   -2.2200   -0.8647 H   0  0  0  0  0  0  0  0  0  0  0  0
   -1.7143    0.3929    2.2968 C   0  0  0  0  0  0  0  0  0  0  0  0
   -0.4153   -0.2565    1.8371 C   0  0  0  0  0  0  0  0  0  0  0  0
    0.6759   -0.2014    2.8987 C   0  0  0  0  0  0  0  0  0  0  0  0
   -1.5580    1.4451    2.5466 H   0  0  0  0  0  0  0  0  0  0  0  0
   -2.4830    0.3435    1.5236 H   0  0  0  0  0  0  0  0  0  0  0  0
   -2.1047   -0.1030    3.1888 H   0  0  0  0  0  0  0  0  0  0  0  0
   -0.6056   -1.2983    1.5645 H   0  0  0  0  0  0  0  0  0  0  0  0
    0.3609   -0.7161    3.8097 H   0  0  0  0  0  0  0  0  0  0  0  0
    1.5977   -0.6711    2.5513 H   0  0  0  0  0  0  0  0  0  0  0  0
    0.9075    0.8320    3.1675 H   0  0  0  0  0  0  0  0  0  0  0  0
  1  2  1  0
  1  6  1  0
  1  7  1  0
  1  8  1  0
  2  3  1  0
  2  4  1  0
  2  9  1  0
  3 10  1  0
  3 11  1  0
  3 12  1  0
  4  5  1  0
  4 14  1  0
  5 15  1  0
 13 17  1  0
 16 17  1  0
 16 19  1  0
 16 20  1  0
 16 21  1  0
 17 18  1  0
 17 22  1  0
 18 23  1  0
 18 24  1  0
 18 25  1  0
M  RAD  1   4   2
M  END
>  <reaction>  (5) 
rxn_407

>  <mol_properties>  (5) 
{"1": {"label": "*0", "atom_type": "Cs"}, "3": {"label": "*1", "atom_type": "Cs"}, "12": {"label": "*2", "atom_type": "H0"}, "15": {"label": "*4", "atom_type": "Cs"}, "16": {"label": "*3", "atom_type": "Cs"}}

>  <type>  (5) 
unop_1

>  <geom_source>  (5) 
Heuristics

$$$$

     RDKit          3D

 25 23  0  0  0  0  0  0  0  0999 V2000
    0.6248    0.4146   -2.8443 C   0  0  0  0  0  0  0  0  0  0  0  0
    0.6248    0.4146   -1.3202 C   0  0  0  0  0  0  0  0  0  0  0  0
    0.6248    1.8334   -0.7603 C   0  0  0  0  0  0  0  0  0  0  0  0
   -0.5627   -0.3658   -0.7632 C   0  0  0  0  0  3  0  0  0  0  0  0
   -0.6015   -1.7170   -1.1750 O   0  0  0  0  0  0  0  0  0  0  0  0
    1.5145    0.9112   -3.2364 H   0  0  0  0  0  0  0  0  0  0  0  0
   -0.2515    0.9473   -3.2248 H   0  0  0  0  0  0  0  0  0  0  0  0
    0.5944   -0.6013   -3.2380 H   0  0  0  0  0  0  0  0  0  0  0  0
    1.5376   -0.0879   -0.9737 H   0  0  0  0  0  0  0  0  0  0  0  0
   -0.2785    2.3684   -1.0665 H   0  0  0  0  0  0  0  0  0  0  0  0
    1.4833    2.3981   -1.1273 H   0  0  0  0  0  0  0  0  0  0  0  0
    0.6621    1.8358    0.3312 H   0  0  0  0  0  0  0  0  0  0  0  0
   -0.5689   -0.2799    0.5517 H   0  0  0  0  0  0  0  0  0  0  0  0
   -1.4939    0.0802   -1.1230 H   0  0  0  0  0  0  0  0  0  0  0  0
    0.1811   -2.1579   -0.8407 H   0  0  0  0  0  0  0  0  0  0  0  0
    0.0406    1.1329    2.2855 C   0  0  0  0  0  0  0  0  0  0  0  0
   -0.5751   -0.1943    1.8612 C   0  0  0  0  0  0  0  0  0  0  0  0
   -0.1582   -1.3494    2.7626 C   0  0  0  0  0  0  0  0  0  0  0  0
    1.1319    1.0821    2.2635 H   0  0  0  0  0  0  0  0  0  0  0  0
   -0.2695    1.9472    1.6285 H   0  0  0  0  0  0  0  0  0  0  0  0
   -0.2565    1.3933    3.3043 H   0  0  0  0  0  0  0  0  0  0  0  0
   -1.6651   -0.1069    1.8623 H   0  0  0  0  0  0  0  0  0  0  0  0
   -0.4615   -1.1672    3.7964 H   0  0  0  0  0  0  0  0  0  0  0  0
   -0.6087   -2.2905    2.4430 H   0  0  0  0  0  0  0  0  0  0  0  0
    0.9269   -1.4784    2.7556 H   0  0  0  0  0  0  0  0  0  0  0  0
  1  2  1  0
  1  6  1  0
  1  7  1  0
  1  8  1  0
  2  3  1  0
  2  4  1  0
  2  9  1  0
  3 10  1  0
  3 11  1  0
  3 12  1  0
  4  5  1  0
  4 14  1  0
  5 15  1  0
 13 17  1  0
 16 17  1  0
 16 19  1  0
 16 20  1  0
 16 21  1  0
 17 18  1  0
 17 22  1  0
 18 23  1  0
 18 24  1  0
 18 25  1  0
M  RAD  1   4   2
M  END
>  <reaction>  (6) 
rxn_407

>  <mol_properties>  (6) 
{"1": {"label": "*0", "atom_type": "Cs"}, "3": {"label": "*1", "atom_type": "Cs"}, "12": {"label": "*2", "atom_type": "H0"}, "15": {"label": "*4", "atom_type": "Cs"}, "16": {"label": "*3", "atom_type": "Cs"}}

>  <type>  (6) 
unop_2

>  <geom_source>  (6) 
Heuristics

$$$$

     RDKit          3D

 25 23  0  0  0  0  0  0  0  0999 V2000
    0.8242    0.3445   -2.8547 C   0  0  0  0  0  0  0  0  0  0  0  0
    0.8242    0.3445   -1.3306 C   0  0  0  0  0  0  0  0  0  0  0  0
    0.8242    1.7633   -0.7707 C   0  0  0  0  0  0  0  0  0  0  0  0
   -0.3633   -0.4359   -0.7736 C   0  0  0  0  0  3  0  0  0  0  0  0
   -0.4021   -1.7871   -1.1854 O   0  0  0  0  0  0  0  0  0  0  0  0
    1.7139    0.8411   -3.2467 H   0  0  0  0  0  0  0  0  0  0  0  0
   -0.0520    0.8772   -3.2352 H   0  0  0  0  0  0  0  0  0  0  0  0
    0.7938   -0.6714   -3.2484 H   0  0  0  0  0  0  0  0  0  0  0  0
    1.7371   -0.1580   -0.9841 H   0  0  0  0  0  0  0  0  0  0  0  0
   -0.0791    2.2983   -1.0769 H   0  0  0  0  0  0  0  0  0  0  0  0
    1.6828    2.3279   -1.1376 H   0  0  0  0  0  0  0  0  0  0  0  0
    0.8615    1.7657    0.3208 H   0  0  0  0  0  0  0  0  0  0  0  0
   -0.3695   -0.3500    0.5413 H   0  0  0  0  0  0  0  0  0  0  0  0
   -1.2945    0.0101   -1.1334 H   0  0  0  0  0  0  0  0  0  0  0  0
    0.3806   -2.2280   -0.8510 H   0  0  0  0  0  0  0  0  0  0  0  0
   -1.8100   -0.3447    2.3574 C   0  0  0  0  0  0  0  0  0  0  0  0
   -0.3756   -0.2645    1.8508 C   0  0  0  0  0  0  0  0  0  0  0  0
    0.5188    0.5770    2.7522 C   0  0  0  0  0  0  0  0  0  0  0  0
   -2.2580    0.6499    2.4213 H   0  0  0  0  0  0  0  0  0  0  0  0
   -2.4346   -0.9510    1.6992 H   0  0  0  0  0  0  0  0  0  0  0  0
   -1.8475   -0.7875    3.3557 H   0  0  0  0  0  0  0  0  0  0  0  0
    0.0379   -1.2733    1.7671 H   0  0  0  0  0  0  0  0  0  0  0  0
    0.5547    0.1633    3.7629 H   0  0  0  0  0  0  0  0  0  0  0  0
    1.5411    0.6226    2.3731 H   0  0  0  0  0  0  0  0  0  0  0  0
    0.1442    1.6007    2.8284 H   0  0  0  0  0  0  0  0  0  0  0  0
  1  2  1  0
  1  6  1  0
  1  7  1  0
  1  8  1  0
  2  3  1  0
  2  4  1  0
  2  9  1  0
  3 10  1  0
  3 11  1  0
  3 12  1  0
  4  5  1  0
  4 14  1  0
  5 15  1  0
 13 17  1  0
 16 17  1  0
 16 19  1  0
 16 20  1  0
 16 21  1  0
 17 18  1  0
 17 22  1  0
 18 23  1  0
 18 24  1  0
 18 25  1  0
M  RAD  1   4   2
M  END
>  <reaction>  (7) 
rxn_407

>  <mol_properties>  (7) 
{"1": {"label": "*0", "atom_type": "Cs"}, "3": {"label": "*1", "atom_type": "Cs"}, "12": {"label": "*2", "atom_type": "H0"}, "15": {"label": "*4", "atom_type": "Cs"}, "16": {"label": "*3", "atom_type": "Cs"}}

>  <type>  (7) 
unop_3

>  <geom_source>  (7) 
Heuristics

$$$$

     RDKit          3D

 25 23  0  0  0  0  0  0  0  0999 V2000
    0.7323    0.6509   -2.7285 C   0  0  0  0  0  0  0  0  0  0  0  0
    0.7323    0.6509   -1.2043 C   0  0  0  0  0  0  0  0  0  0  0  0
    0.7323    2.0696   -0.6444 C   0  0  0  0  0  0  0  0  0  0  0  0
   -0.4552   -0.1295   -0.6474 C   0  0  0  0  0  3  0  0  0  0  0  0
   -0.4940   -1.4807   -1.0591 O   0  0  0  0  0  0  0  0  0  0  0  0
    1.6220    1.1474   -3.1205 H   0  0  0  0  0  0  0  0  0  0  0  0
   -0.1440    1.1836   -3.1089 H   0  0  0  0  0  0  0  0  0  0  0  0
    0.7019   -0.3650   -3.1221 H   0  0  0  0  0  0  0  0  0  0  0  0
    1.6452    0.1484   -0.8579 H   0  0  0  0  0  0  0  0  0  0  0  0
   -0.1710    2.6047   -0.9507 H   0  0  0  0  0  0  0  0  0  0  0  0
    1.5909    2.6343   -1.0114 H   0  0  0  0  0  0  0  0  0  0  0  0
    0.7696    2.0721    0.4471 H   0  0  0  0  0  0  0  0  0  0  0  0
   -0.4614   -0.0436    0.6676 H   0  0  0  0  0  0  0  0  0  0  0  0
   -1.3864    0.3165   -1.0071 H   0  0  0  0  0  0  0  0  0  0  0  0
    0.2886   -1.9216   -0.7248 H   0  0  0  0  0  0  0  0  0  0  0  0
    0.8268   -0.5413    2.5293 C   0  0  0  0  0  0  0  0  0  0  0  0
   -0.4676    0.0419    1.9770 C   0  0  0  0  0  0  0  0  0  0  0  0
   -1.5733   -0.9983    1.8516 C   0  0  0  0  0  0  0  0  0  0  0  0
    1.2031   -1.3382    1.8833 H   0  0  0  0  0  0  0  0  0  0  0  0
    1.6060    0.2182    2.6118 H   0  0  0  0  0  0  0  0  0  0  0  0
    0.6699   -0.9691    3.5226 H   0  0  0  0  0  0  0  0  0  0  0  0
   -0.8054    0.8560    2.6243 H   0  0  0  0  0  0  0  0  0  0  0  0
   -1.8058   -1.4404    2.8234 H   0  0  0  0  0  0  0  0  0  0  0  0
   -2.4915   -0.5619    1.4546 H   0  0  0  0  0  0  0  0  0  0  0  0
   -1.2726   -1.8095    1.1841 H   0  0  0  0  0  0  0  0  0  0  0  0
  1  2  1  0
  1  6  1  0
  1  7  1  0
  1  8  1  0
  2  3  1  0
  2  4  1  0
  2  9  1  0
  3 10  1  0
  3 11  1  0
  3 12  1  0
  4  5  1  0
  4 14  1  0
  5 15  1  0
 13 17  1  0
 16 17  1  0
 16 19  1  0
 16 20  1  0
 16 21  1  0
 17 18  1  0
 17 22  1  0
 18 23  1  0
 18 24  1  0
 18 25  1  0
M  RAD  1   4   2
M  END
>  <reaction>  (8) 
rxn_407

>  <mol_properties>  (8) 
{"1": {"label": "*0", "atom_type": "Cs"}, "3": {"label": "*1", "atom_type": "Cs"}, "12": {"label": "*2", "atom_type": "H0"}, "15": {"label": "*4", "atom_type": "Cs"}, "16": {"label": "*3", "atom_type": "Cs"}}

>  <type>  (8) 
unop_4

>  <geom_source>  (8) 
Heuristics

$$$$

     RDKit          3D

 25 23  0  0  0  0  0  0  0  0999 V2000
    0.9094    0.3498   -2.7986 C   0  0  0  0  0  0  0  0  0  0  0  0
    0.9094    0.3498   -1.2745 C   0  0  0  0  0  0  0  0  0  0  0  0
    0.9094    1.7686   -0.7146 C   0  0  0  0  0  0  0  0  0  0  0  0
   -0.2781   -0.4305   -0.7175 C   0  0  0  0  0  3  0  0  0  0  0  0
   -0.3169   -1.7818   -1.1293 O   0  0  0  0  0  0  0  0  0  0  0  0
    1.7991    0.8464   -3.1907 H   0  0  0  0  0  0  0  0  0  0  0  0
    0.0332    0.8825   -3.1791 H   0  0  0  0  0  0  0  0  0  0  0  0
    0.8790   -0.6661   -3.1923 H   0  0  0  0  0  0  0  0  0  0  0  0
    1.8223   -0.1526   -0.9280 H   0  0  0  0  0  0  0  0  0  0  0  0
    0.0061    2.3036   -1.0208 H   0  0  0  0  0  0  0  0  0  0  0  0
    1.7680    2.3333   -1.0816 H   0  0  0  0  0  0  0  0  0  0  0  0
    0.9467    1.7710    0.3769 H   0  0  0  0  0  0  0  0  0  0  0  0
   -0.2843   -0.3446    0.5974 H   0  0  0  0  0  0  0  0  0  0  0  0
   -1.2093    0.0154   -1.0773 H   0  0  0  0  0  0  0  0  0  0  0  0
    0.4658   -2.2226   -0.7950 H   0  0  0  0  0  0  0  0  0  0  0  0
   -1.4764   -1.0387    2.4604 C   0  0  0  0  0  0  0  0  0  0  0  0
   -0.2904   -0.2591    1.9069 C   0  0  0  0  0  0  0  0  0  0  0  0
   -0.3082    1.2073    2.3192 C   0  0  0  0  0  0  0  0  0  0  0  0
   -2.4205   -0.6148    2.1096 H   0  0  0  0  0  0  0  0  0  0  0  0
   -1.4461   -2.0858    2.1546 H   0  0  0  0  0  0  0  0  0  0  0  0
   -1.4877   -1.0092    3.5526 H   0  0  0  0  0  0  0  0  0  0  0  0
    0.6401   -0.7217    2.2474 H   0  0  0  0  0  0  0  0  0  0  0  0
   -0.2828    1.3075    3.4070 H   0  0  0  0  0  0  0  0  0  0  0  0
    0.5482    1.7485    1.9135 H   0  0  0  0  0  0  0  0  0  0  0  0
   -1.2155    1.7019    1.9639 H   0  0  0  0  0  0  0  0  0  0  0  0
  1  2  1  0
  1  6  1  0
  1  7  1  0
  1  8  1  0
  2  3  1  0
  2  4  1  0
  2  9  1  0
  3 10  1  0
  3 11  1  0
  3 12  1  0
  4  5  1  0
  4 14  1  0
  5 15  1  0
 13 17  1  0
 16 17  1  0
 16 19  1  0
 16 20  1  0
 16 21  1  0
 17 18  1  0
 17 22  1  0
 18 23  1  0
 18 24  1  0
 18 25  1  0
M  RAD  1   4   2
M  END
>  <reaction>  (9) 
rxn_407

>  <mol_properties>  (9) 
{"1": {"label": "*0", "atom_type": "Cs"}, "3": {"label": "*1", "atom_type": "Cs"}, "12": {"label": "*2", "atom_type": "H0"}, "15": {"label": "*4", "atom_type": "Cs"}, "16": {"label": "*3", "atom_type": "Cs"}}

>  <type>  (9) 
unop_5

>  <geom_source>  (9) 
Heuristics

$$$$

     RDKit          3D

 25 23  0  0  0  0  0  0  0  0999 V2000
    0.8384    0.6411   -2.7051 C   0  0  0  0  0  0  0  0  0  0  0  0
    0.8384    0.6411   -1.1810 C   0  0  0  0  0  0  0  0  0  0  0  0
    0.8384    2.0598   -0.6211 C   0  0  0  0  0  0  0  0  0  0  0  0
   -0.3491   -0.1393   -0.6240 C   0  0  0  0  0  3  0  0  0  0  0  0
   -0.3879   -1.4905   -1.0358 O   0  0  0  0  0  0  0  0  0  0  0  0
    1.7281    1.1376   -3.0972 H   0  0  0  0  0  0  0  0  0  0  0  0
   -0.0378    1.1738   -3.0856 H   0  0  0  0  0  0  0  0  0  0  0  0
    0.8080   -0.3749   -3.0988 H   0  0  0  0  0  0  0  0  0  0  0  0
    1.7513    0.1386   -0.8345 H   0  0  0  0  0  0  0  0  0  0  0  0
   -0.0648    2.5949   -0.9273 H   0  0  0  0  0  0  0  0  0  0  0  0
    1.6970    2.6245   -0.9881 H   0  0  0  0  0  0  0  0  0  0  0  0
    0.8757    2.0623    0.4704 H   0  0  0  0  0  0  0  0  0  0  0  0
   -0.3552   -0.0534    0.6909 H   0  0  0  0  0  0  0  0  0  0  0  0
   -1.2803    0.3067   -0.9838 H   0  0  0  0  0  0  0  0  0  0  0  0
    0.3948   -1.9314   -0.7015 H   0  0  0  0  0  0  0  0  0  0  0  0
    0.4502   -1.1157    2.5873 C   0  0  0  0  0  0  0  0  0  0  0  0
   -0.3614    0.0321    2.0004 C   0  0  0  0  0  0  0  0  0  0  0  0
   -1.7910   -0.3722    1.6636 C   0  0  0  0  0  0  0  0  0  0  0  0
    0.5065   -1.9525    1.8869 H   0  0  0  0  0  0  0  0  0  0  0  0
    1.4703   -0.8069    2.8218 H   0  0  0  0  0  0  0  0  0  0  0  0
   -0.0071   -1.4867    3.5078 H   0  0  0  0  0  0  0  0  0  0  0  0
   -0.3760    0.8664    2.7072 H   0  0  0  0  0  0  0  0  0  0  0  0
   -2.3189   -0.7199    2.5550 H   0  0  0  0  0  0  0  0  0  0  0  0
   -2.3558    0.4623    1.2448 H   0  0  0  0  0  0  0  0  0  0  0  0
   -1.8053   -1.1856    0.9341 H   0  0  0  0  0  0  0  0  0  0  0  0
  1  2  1  0
  1  6  1  0
  1  7  1  0
  1  8  1  0
  2  3  1  0
  2  4  1  0
  2  9  1  0
  3 10  1  0
  3 11  1  0
  3 12  1  0
  4  5  1  0
  4 14  1  0
  5 15  1  0
 13 17  1  0
 16 17  1  0
 16 19  1  0
 16 20  1  0
 16 21  1  0
 17 18  1  0
 17 22  1  0
 18 23  1  0
 18 24  1  0
 18 25  1  0
M  RAD  1   4   2
M  END
>  <reaction>  (10) 
rxn_407

>  <mol_properties>  (10) 
{"1": {"label": "*0", "atom_type": "Cs"}, "3": {"label": "*1", "atom_type": "Cs"}, "12": {"label": "*2", "atom_type": "H0"}, "15": {"label": "*4", "atom_type": "Cs"}, "16": {"label": "*3", "atom_type": "Cs"}}

>  <type>  (10) 
unop_6

>  <geom_source>  (10) 
Heuristics

$$$$

     RDKit          3D

 25 23  0  0  0  0  0  0  0  0999 V2000
    0.9296    0.5721   -2.7001 C   0  0  0  0  0  0  0  0  0  0  0  0
    0.9296    0.5721   -1.1760 C   0  0  0  0  0  0  0  0  0  0  0  0
    0.9296    1.9909   -0.6161 C   0  0  0  0  0  0  0  0  0  0  0  0
   -0.2579   -0.2083   -0.6191 C   0  0  0  0  0  3  0  0  0  0  0  0
   -0.2968   -1.5595   -1.0308 O   0  0  0  0  0  0  0  0  0  0  0  0
    1.8193    1.0687   -3.0922 H   0  0  0  0  0  0  0  0  0  0  0  0
    0.0533    1.1048   -3.0806 H   0  0  0  0  0  0  0  0  0  0  0  0
    0.8991   -0.4438   -3.0938 H   0  0  0  0  0  0  0  0  0  0  0  0
    1.8424    0.0696   -0.8295 H   0  0  0  0  0  0  0  0  0  0  0  0
    0.0263    2.5259   -0.9223 H   0  0  0  0  0  0  0  0  0  0  0  0
    1.7881    2.5556   -0.9831 H   0  0  0  0  0  0  0  0  0  0  0  0
    0.9669    1.9933    0.4754 H   0  0  0  0  0  0  0  0  0  0  0  0
   -0.2641   -0.1224    0.6959 H   0  0  0  0  0  0  0  0  0  0  0  0
   -1.1892    0.2377   -0.9788 H   0  0  0  0  0  0  0  0  0  0  0  0
    0.4859   -2.0003   -0.6965 H   0  0  0  0  0  0  0  0  0  0  0  0
   -0.1595   -1.4327    2.6052 C   0  0  0  0  0  0  0  0  0  0  0  0
   -0.2703   -0.0368    2.0053 C   0  0  0  0  0  0  0  0  0  0  0  0
   -1.6988    0.3238    1.6182 C   0  0  0  0  0  0  0  0  0  0  0  0
   -0.5047   -2.1905    1.8976 H   0  0  0  0  0  0  0  0  0  0  0  0
    0.8701   -1.6725    2.8758 H   0  0  0  0  0  0  0  0  0  0  0  0
   -0.7715   -1.5204    3.5062 H   0  0  0  0  0  0  0  0  0  0  0  0
    0.1095    0.6979    2.7207 H   0  0  0  0  0  0  0  0  0  0  0  0
   -2.3593    0.2915    2.4882 H   0  0  0  0  0  0  0  0  0  0  0  0
   -1.7577    1.3262    1.1909 H   0  0  0  0  0  0  0  0  0  0  0  0
   -2.0925   -0.3786    0.8796 H   0  0  0  0  0  0  0  0  0  0  0  0
  1  2  1  0
  1  6  1  0
  1  7  1  0
  1  8  1  0
  2  3  1  0
  2  4  1  0
  2  9  1  0
  3 10  1  0
  3 11  1  0
  3 12  1  0
  4  5  1  0
  4 14  1  0
  5 15  1  0
 13 17  1  0
 16 17  1  0
 16 19  1  0
 16 20  1  0
 16 21  1  0
 17 18  1  0
 17 22  1  0
 18 23  1  0
 18 24  1  0
 18 25  1  0
M  RAD  1   4   2
M  END
>  <reaction>  (11) 
rxn_407

>  <mol_properties>  (11) 
{"1": {"label": "*0", "atom_type": "Cs"}, "3": {"label": "*1", "atom_type": "Cs"}, "12": {"label": "*2", "atom_type": "H0"}, "15": {"label": "*4", "atom_type": "Cs"}, "16": {"label": "*3", "atom_type": "Cs"}}

>  <type>  (11) 
unop_7

>  <geom_source>  (11) 
Heuristics

$$$$

     RDKit          3D

 25 23  0  0  0  0  0  0  0  0999 V2000
    0.7443    0.3478   -2.8682 C   0  0  0  0  0  0  0  0  0  0  0  0
    0.7443    0.3478   -1.3441 C   0  0  0  0  0  0  0  0  0  0  0  0
    0.7443    1.7665   -0.7842 C   0  0  0  0  0  0  0  0  0  0  0  0
   -0.4432   -0.4326   -0.7871 C   0  0  0  0  0  3  0  0  0  0  0  0
   -0.4820   -1.7838   -1.1989 O   0  0  0  0  0  0  0  0  0  0  0  0
    1.6340    0.8443   -3.2603 H   0  0  0  0  0  0  0  0  0  0  0  0
   -0.1320    0.8805   -3.2487 H   0  0  0  0  0  0  0  0  0  0  0  0
    0.7139   -0.6682   -3.2619 H   0  0  0  0  0  0  0  0  0  0  0  0
    1.6572   -0.1547   -0.9976 H   0  0  0  0  0  0  0  0  0  0  0  0
   -0.1590    2.3016   -1.0904 H   0  0  0  0  0  0  0  0  0  0  0  0
    1.6029    2.3312   -1.1512 H   0  0  0  0  0  0  0  0  0  0  0  0
    0.7816    1.7690    0.3073 H   0  0  0  0  0  0  0  0  0  0  0  0
   -0.4494   -0.3467    0.5278 H   0  0  0  0  0  0  0  0  0  0  0  0
   -1.3744    0.0134   -1.1469 H   0  0  0  0  0  0  0  0  0  0  0  0
    0.3007   -2.2247   -0.8646 H   0  0  0  0  0  0  0  0  0  0  0  0
   -1.2719    0.9527    2.2623 C   0  0  0  0  0  0  0  0  0  0  0  0
   -0.4555   -0.2612    1.8373 C   0  0  0  0  0  0  0  0  0  0  0  0
    0.4819   -0.7509    2.9336 C   0  0  0  0  0  0  0  0  0  0  0  0
   -0.6199    1.7882    2.5284 H   0  0  0  0  0  0  0  0  0  0  0  0
   -1.9367    1.2884    1.4646 H   0  0  0  0  0  0  0  0  0  0  0  0
   -1.8867    0.7235    3.1360 H   0  0  0  0  0  0  0  0  0  0  0  0
   -1.1311   -1.0708    1.5475 H   0  0  0  0  0  0  0  0  0  0  0  0
   -0.0776   -1.0338    3.8285 H   0  0  0  0  0  0  0  0  0  0  0  0
    1.0575   -1.6200    2.6106 H   0  0  0  0  0  0  0  0  0  0  0  0
    1.1892    0.0310    3.2208 H   0  0  0  0  0  0  0  0  0  0  0  0
  1  2  1  0
  1  6  1  0
  1  7  1  0
  1  8  1  0
  2  3  1  0
  2  4  1  0
  2  9  1  0
  3 10  1  0
  3 11  1  0
  3 12  1  0
  4  5  1  0
  4 14  1  0
  5 15  1  0
 13 17  1  0
 16 17  1  0
 16 19  1  0
 16 20  1  0
 16 21  1  0
 17 18  1  0
 17 22  1  0
 18 23  1  0
 18 24  1  0
 18 25  1  0
M  RAD  1   4   2
M  END
>  <reaction>  (12) 
rxn_407

>  <mol_properties>  (12) 
{"1": {"label": "*0", "atom_type": "Cs"}, "3": {"label": "*1", "atom_type": "Cs"}, "12": {"label": "*2", "atom_type": "H0"}, "15": {"label": "*4", "atom_type": "Cs"}, "16": {"label": "*3", "atom_type": "Cs"}}

>  <type>  (12) 
unop_8

>  <geom_source>  (12) 
Heuristics

$$$$

     RDKit          3D

 25 23  0  0  0  0  0  0  0  0999 V2000
    0.6424    0.6020   -2.7664 C   0  0  0  0  0  0  0  0  0  0  0  0
    0.6424    0.6020   -1.2423 C   0  0  0  0  0  0  0  0  0  0  0  0
    0.6424    2.0208   -0.6824 C   0  0  0  0  0  0  0  0  0  0  0  0
   -0.5451   -0.1784   -0.6853 C   0  0  0  0  0  3  0  0  0  0  0  0
   -0.5839   -1.5296   -1.0970 O   0  0  0  0  0  0  0  0  0  0  0  0
    1.5321    1.0986   -3.1584 H   0  0  0  0  0  0  0  0  0  0  0  0
   -0.2338    1.1347   -3.1469 H   0  0  0  0  0  0  0  0  0  0  0  0
    0.6120   -0.4139   -3.1601 H   0  0  0  0  0  0  0  0  0  0  0  0
    1.5553    0.0995   -0.8958 H   0  0  0  0  0  0  0  0  0  0  0  0
   -0.2609    2.5558   -0.9886 H   0  0  0  0  0  0  0  0  0  0  0  0
    1.5010    2.5854   -1.0493 H   0  0  0  0  0  0  0  0  0  0  0  0
    0.6797    2.0232    0.4091 H   0  0  0  0  0  0  0  0  0  0  0  0
   -0.5513   -0.0925    0.6297 H   0  0  0  0  0  0  0  0  0  0  0  0
   -1.4763    0.2676   -1.0450 H   0  0  0  0  0  0  0  0  0  0  0  0
    0.1988   -1.9705   -0.7627 H   0  0  0  0  0  0  0  0  0  0  0  0
    0.8722    0.1394    2.4444 C   0  0  0  0  0  0  0  0  0  0  0  0
   -0.5574   -0.0070    1.9391 C   0  0  0  0  0  0  0  0  0  0  0  0
   -1.1137   -1.4093    2.1503 C   0  0  0  0  0  0  0  0  0  0  0  0
    1.5411   -0.5554    1.9308 H   0  0  0  0  0  0  0  0  0  0  0  0
    1.2527    1.1496    2.2845 H   0  0  0  0  0  0  0  0  0  0  0  0
    0.9323   -0.0754    3.5141 H   0  0  0  0  0  0  0  0  0  0  0  0
   -1.1988    0.7193    2.4460 H   0  0  0  0  0  0  0  0  0  0  0  0
   -1.1161   -1.6729    3.2108 H   0  0  0  0  0  0  0  0  0  0  0  0
   -2.1376   -1.4943    1.7824 H   0  0  0  0  0  0  0  0  0  0  0  0
   -0.5074   -2.1529    1.6275 H   0  0  0  0  0  0  0  0  0  0  0  0
  1  2  1  0
  1  6  1  0
  1  7  1  0
  1  8  1  0
  2  3  1  0
  2  4  1  0
  2  9  1  0
  3 10  1  0
  3 11  1  0
  3 12  1  0
  4  5  1  0
  4 14  1  0
  5 15  1  0
 13 17  1  0
 16 17  1  0
 16 19  1  0
 16 20  1  0
 16 21  1  0
 17 18  1  0
 17 22  1  0
 18 23  1  0
 18 24  1  0
 18 25  1  0
M  RAD  1   4   2
M  END
>  <reaction>  (13) 
rxn_407

>  <mol_properties>  (13) 
{"1": {"label": "*0", "atom_type": "Cs"}, "3": {"label": "*1", "atom_type": "Cs"}, "12": {"label": "*2", "atom_type": "H0"}, "15": {"label": "*4", "atom_type": "Cs"}, "16": {"label": "*3", "atom_type": "Cs"}}

>  <type>  (13) 
unop_9

>  <geom_source>  (13) 
Heuristics

$$$$

     RDKit          3D

 25 23  0  0  0  0  0  0  0  0999 V2000
    0.6853    0.3599   -2.8615 C   0  0  0  0  0  0  0  0  0  0  0  0
    0.6853    0.3599   -1.3374 C   0  0  0  0  0  0  0  0  0  0  0  0
    0.6853    1.7787   -0.7775 C   0  0  0  0  0  0  0  0  0  0  0  0
   -0.5022   -0.4205   -0.7805 C   0  0  0  0  0  3  0  0  0  0  0  0
   -0.5410   -1.7717   -1.1922 O   0  0  0  0  0  0  0  0  0  0  0  0
    1.5750    0.8565   -3.2536 H   0  0  0  0  0  0  0  0  0  0  0  0
   -0.1909    0.8926   -3.2420 H   0  0  0  0  0  0  0  0  0  0  0  0
    0.6549   -0.6560   -3.2552 H   0  0  0  0  0  0  0  0  0  0  0  0
    1.5982   -0.1426   -0.9909 H   0  0  0  0  0  0  0  0  0  0  0  0
   -0.2179    2.3137   -1.0838 H   0  0  0  0  0  0  0  0  0  0  0  0
    1.5439    2.3434   -1.1445 H   0  0  0  0  0  0  0  0  0  0  0  0
    0.7226    1.7811    0.3140 H   0  0  0  0  0  0  0  0  0  0  0  0
   -0.5083   -0.3346    0.5345 H   0  0  0  0  0  0  0  0  0  0  0  0
   -1.4334    0.0255   -1.1402 H   0  0  0  0  0  0  0  0  0  0  0  0
    0.2417   -2.2125   -0.8579 H   0  0  0  0  0  0  0  0  0  0  0  0
   -0.6300    1.2129    2.2560 C   0  0  0  0  0  0  0  0  0  0  0  0
   -0.5145   -0.2490    1.8439 C   0  0  0  0  0  0  0  0  0  0  0  0
    0.1792   -1.1027    2.8978 C   0  0  0  0  0  0  0  0  0  0  0  0
    0.3568    1.6493    2.4285 H   0  0  0  0  0  0  0  0  0  0  0  0
   -1.1291    1.8077    1.4891 H   0  0  0  0  0  0  0  0  0  0  0  0
   -1.2011    1.3138    3.1821 H   0  0  0  0  0  0  0  0  0  0  0  0
   -1.5121   -0.6519    1.6480 H   0  0  0  0  0  0  0  0  0  0  0  0
   -0.3665   -1.0748    3.8441 H   0  0  0  0  0  0  0  0  0  0  0  0
    0.2523   -2.1455    2.5848 H   0  0  0  0  0  0  0  0  0  0  0  0
    1.1915   -0.7393    3.0905 H   0  0  0  0  0  0  0  0  0  0  0  0
  1  2  1  0
  1  6  1  0
  1  7  1  0
  1  8  1  0
  2  3  1  0
  2  4  1  0
  2  9  1  0
  3 10  1  0
  3 11  1  0
  3 12  1  0
  4  5  1  0
  4 14  1  0
  5 15  1  0
 13 17  1  0
 16 17  1  0
 16 19  1  0
 16 20  1  0
 16 21  1  0
 17 18  1  0
 17 22  1  0
 18 23  1  0
 18 24  1  0
 18 25  1  0
M  RAD  1   4   2
M  END
>  <reaction>  (14) 
rxn_407

>  <mol_properties>  (14) 
{"1": {"label": "*0", "atom_type": "Cs"}, "3": {"label": "*1", "atom_type": "Cs"}, "12": {"label": "*2", "atom_type": "H0"}, "15": {"label": "*4", "atom_type": "Cs"}, "16": {"label": "*3", "atom_type": "Cs"}}

>  <type>  (14) 
unop_10

>  <geom_source>  (14) 
Heuristics

$$$$

     RDKit          3D

 25 23  0  0  0  0  0  0  0  0999 V2000
    0.9684    0.4541   -2.7263 C   0  0  0  0  0  0  0  0  0  0  0  0
    0.9684    0.4541   -1.2022 C   0  0  0  0  0  0  0  0  0  0  0  0
    0.9684    1.8729   -0.6423 C   0  0  0  0  0  0  0  0  0  0  0  0
   -0.2191   -0.3262   -0.6453 C   0  0  0  0  0  3  0  0  0  0  0  0
   -0.2580   -1.6775   -1.0570 O   0  0  0  0  0  0  0  0  0  0  0  0
    1.8581    0.9507   -3.1184 H   0  0  0  0  0  0  0  0  0  0  0  0
    0.0921    0.9868   -3.1068 H   0  0  0  0  0  0  0  0  0  0  0  0
    0.9380   -0.5618   -3.1200 H   0  0  0  0  0  0  0  0  0  0  0  0
    1.8812   -0.0484   -0.8557 H   0  0  0  0  0  0  0  0  0  0  0  0
    0.0651    2.4079   -0.9486 H   0  0  0  0  0  0  0  0  0  0  0  0
    1.8269    2.4376   -1.0093 H   0  0  0  0  0  0  0  0  0  0  0  0
    1.0057    1.8753    0.4492 H   0  0  0  0  0  0  0  0  0  0  0  0
   -0.2253   -0.2404    0.6697 H   0  0  0  0  0  0  0  0  0  0  0  0
   -1.1504    0.1197   -1.0050 H   0  0  0  0  0  0  0  0  0  0  0  0
    0.5247   -2.1183   -0.7227 H   0  0  0  0  0  0  0  0  0  0  0  0
   -0.8519   -1.4159    2.5667 C   0  0  0  0  0  0  0  0  0  0  0  0
   -0.2315   -0.1548    1.9791 C   0  0  0  0  0  0  0  0  0  0  0  0
   -1.2438    0.9698    1.8028 C   0  0  0  0  0  0  0  0  0  0  0  0
   -1.6492   -1.7955    1.9231 H   0  0  0  0  0  0  0  0  0  0  0  0
   -0.1119   -2.2092    2.6854 H   0  0  0  0  0  0  0  0  0  0  0  0
   -1.2882   -1.2157    3.5483 H   0  0  0  0  0  0  0  0  0  0  0  0
    0.5821    0.1858    2.6255 H   0  0  0  0  0  0  0  0  0  0  0  0
   -1.6925    1.2451    2.7603 H   0  0  0  0  0  0  0  0  0  0  0  0
   -0.7810    1.8636    1.3812 H   0  0  0  0  0  0  0  0  0  0  0  0
   -2.0534    0.6654    1.1351 H   0  0  0  0  0  0  0  0  0  0  0  0
  1  2  1  0
  1  6  1  0
  1  7  1  0
  1  8  1  0
  2  3  1  0
  2  4  1  0
  2  9  1  0
  3 10  1  0
  3 11  1  0
  3 12  1  0
  4  5  1  0
  4 14  1  0
  5 15  1  0
 13 17  1  0
 16 17  1  0
 16 19  1  0
 16 20  1  0
 16 21  1  0
 17 18  1  0
 17 22  1  0
 18 23  1  0
 18 24  1  0
 18 25  1  0
M  RAD  1   4   2
M  END
>  <reaction>  (15) 
rxn_407

>  <mol_properties>  (15) 
{"1": {"label": "*0", "atom_type": "Cs"}, "3": {"label": "*1", "atom_type": "Cs"}, "12": {"label": "*2", "atom_type": "H0"}, "15": {"label": "*4", "atom_type": "Cs"}, "16": {"label": "*3", "atom_type": "Cs"}}

>  <type>  (15) 
unop_11

>  <geom_source>  (15) 
Heuristics

$$$$

     RDKit          3D

 25 23  0  0  0  0  0  0  0  0999 V2000
    0.6016    0.5092   -2.8105 C   0  0  0  0  0  0  0  0  0  0  0  0
    0.6016    0.5092   -1.2863 C   0  0  0  0  0  0  0  0  0  0  0  0
    0.6016    1.9280   -0.7264 C   0  0  0  0  0  0  0  0  0  0  0  0
   -0.5859   -0.2712   -0.7294 C   0  0  0  0  0  3  0  0  0  0  0  0
   -0.6247   -1.6224   -1.1411 O   0  0  0  0  0  0  0  0  0  0  0  0
    1.4913    1.0058   -3.2025 H   0  0  0  0  0  0  0  0  0  0  0  0
   -0.2747    1.0419   -3.1909 H   0  0  0  0  0  0  0  0  0  0  0  0
    0.5712   -0.5067   -3.2041 H   0  0  0  0  0  0  0  0  0  0  0  0
    1.5145    0.0067   -0.9399 H   0  0  0  0  0  0  0  0  0  0  0  0
   -0.3017    2.4630   -1.0327 H   0  0  0  0  0  0  0  0  0  0  0  0
    1.4602    2.4926   -1.0934 H   0  0  0  0  0  0  0  0  0  0  0  0
    0.6389    1.9304    0.3651 H   0  0  0  0  0  0  0  0  0  0  0  0
   -0.5921   -0.1853    0.5856 H   0  0  0  0  0  0  0  0  0  0  0  0
   -1.5171    0.1748   -1.0891 H   0  0  0  0  0  0  0  0  0  0  0  0
    0.1579   -2.0633   -0.8068 H   0  0  0  0  0  0  0  0  0  0  0  0
    0.5829    0.7459    2.3535 C   0  0  0  0  0  0  0  0  0  0  0  0
   -0.5983   -0.0998    1.8950 C   0  0  0  0  0  0  0  0  0  0  0  0
   -0.5852   -1.5000    2.4947 C   0  0  0  0  0  0  0  0  0  0  0  0
    1.5300    0.2806    2.0697 H   0  0  0  0  0  0  0  0  0  0  0  0
    0.5561    1.7444    1.9138 H   0  0  0  0  0  0  0  0  0  0  0  0
    0.5841    0.8588    3.4403 H   0  0  0  0  0  0  0  0  0  0  0  0
   -1.5317    0.4026    2.1637 H   0  0  0  0  0  0  0  0  0  0  0  0
   -0.6209   -1.4579    3.5860 H   0  0  0  0  0  0  0  0  0  0  0  0
   -1.4381   -2.0899    2.1549 H   0  0  0  0  0  0  0  0  0  0  0  0
    0.3251   -2.0361    2.2153 H   0  0  0  0  0  0  0  0  0  0  0  0
  1  2  1  0
  1  6  1  0
  1  7  1  0
  1  8  1  0
  2  3  1  0
  2  4  1  0
  2  9  1  0
  3 10  1  0
  3 11  1  0
  3 12  1  0
  4  5  1  0
  4 14  1  0
  5 15  1  0
 13 17  1  0
 16 17  1  0
 16 19  1  0
 16 20  1  0
 16 21  1  0
 17 18  1  0
 17 22  1  0
 18 23  1  0
 18 24  1  0
 18 25  1  0
M  RAD  1   4   2
M  END
>  <reaction>  (16) 
rxn_407

>  <mol_properties>  (16) 
{"1": {"label": "*0", "atom_type": "Cs"}, "3": {"label": "*1", "atom_type": "Cs"}, "12": {"label": "*2", "atom_type": "H0"}, "15": {"label": "*4", "atom_type": "Cs"}, "16": {"label": "*3", "atom_type": "Cs"}}

>  <type>  (16) 
unop_12

>  <geom_source>  (16) 
Heuristics

$$$$

     RDKit          3D

 25 23  0  0  0  0  0  0  0  0999 V2000
   -1.0018   -2.2399    0.1137 O   0  0  0  0  0  0  0  0  0  0  0  0
   -1.9362   -0.0374   -0.1635 C   0  0  0  0  0  0  0  0  0  0  0  0
    1.5287   -0.2585    0.2478 C   0  0  0  0  0  0  0  0  0  0  0  0
   -1.7981    1.2501   -0.9822 C   0  0  0  0  0  0  0  0  0  0  0  0
   -1.9156    0.2832    1.3354 C   0  0  0  0  0  0  0  0  0  0  0  0
    1.8683    1.2166    0.4313 C   0  0  0  0  0  0  0  0  0  0  0  0
    2.6148   -0.9850   -0.5379 C   0  0  0  0  0  0  0  0  0  0  0  0
   -0.8078   -1.0108   -0.5208 C   0  0  0  0  0  3  0  0  0  0  0  0
   -2.9120   -0.5092   -0.4148 H   0  0  0  0  0  0  0  0  0  0  0  0
    1.4134   -0.7364    1.2446 H   0  0  0  0  0  0  0  0  0  0  0  0
    0.3891   -0.3603   -0.3985 H   0  0  0  0  0  0  0  0  0  0  0  0
    1.0569    1.7137    1.0028 H   0  0  0  0  0  0  0  0  0  0  0  0
    1.9630    1.7145   -0.5570 H   0  0  0  0  0  0  0  0  0  0  0  0
    2.8204    1.3273    0.9929 H   0  0  0  0  0  0  0  0  0  0  0  0
    3.5850   -0.9280    0.0001 H   0  0  0  0  0  0  0  0  0  0  0  0
    2.7254   -0.5341   -1.5469 H   0  0  0  0  0  0  0  0  0  0  0  0
    2.3338   -2.0525   -0.6551 H   0  0  0  0  0  0  0  0  0  0  0  0
   -2.6225    1.9526   -0.7347 H   0  0  0  0  0  0  0  0  0  0  0  0
   -0.8264    1.7468   -0.7709 H   0  0  0  0  0  0  0  0  0  0  0  0
   -1.8560    1.0223   -2.0681 H   0  0  0  0  0  0  0  0  0  0  0  0
   -0.9421    0.7342    1.6258 H   0  0  0  0  0  0  0  0  0  0  0  0
   -2.7306    0.9953    1.5864 H   0  0  0  0  0  0  0  0  0  0  0  0
   -2.0748   -0.6409    1.9307 H   0  0  0  0  0  0  0  0  0  0  0  0
   -0.7683   -1.1761   -1.6193 H   0  0  0  0  0  0  0  0  0  0  0  0
   -0.1067   -2.4875    0.4583 H   0  0  0  0  0  0  0  0  0  0  0  0
  1  8  1  0
  1 25  1  0
  2  4  1  0
  2  5  1  0
  2  8  1  0
  2  9  1  0
  3  6  1  0
  3  7  1  0
  3 10  1  0
  3 11  1  0
  4 18  1  0
  4 19  1  0
  4 20  1  0
  5 21  1  0
  5 22  1  0
  5 23  1  0
  6 12  1  0
  6 13  1  0
  6 14  1  0
  7 15  1  0
  7 16  1  0
  7 17  1  0
  8 24  1  0
M  RAD  1   8   2
M  END
>  <reaction>  (17) 
rxn_407

>  <mol_properties>  (17) 
{"1": {"label": "*0", "atom_type": "Cs"}, "3": {"label": "*1", "atom_type": "Cs"}, "12": {"label": "*2", "atom_type": "H0"}, "15": {"label": "*4", "atom_type": "Cs"}, "16": {"label": "*3", "atom_type": "Cs"}}

>  <type>  (17) 
unop_13

>  <geom_source>  (17) 
AutoTST

$$$$
