
     RDKit          3D

 15 14  0  0  0  0  0  0  0  0999 V2000
   -0.6986    1.3249   -0.1641 C   0  0  0  0  0  0  0  0  0  0  0  0
   -0.2590   -0.0344    0.3671 C   0  0  0  0  0  0  0  0  0  0  0  0
   -0.4734   -0.1429    1.8733 C   0  0  0  0  0  0  0  0  0  0  0  0
   -0.9841   -1.1722   -0.3462 C   0  0  0  0  0  0  0  0  0  0  0  0
   -0.7805   -1.1911   -1.7444 O   0  0  0  0  0  0  0  0  0  0  0  0
   -0.1246    2.1306    0.2976 H   0  0  0  0  0  0  0  0  0  0  0  0
   -1.7557    1.4964    0.0581 H   0  0  0  0  0  0  0  0  0  0  0  0
   -0.5709    1.3852   -1.2449 H   0  0  0  0  0  0  0  0  0  0  0  0
    0.8141   -0.1541    0.1667 H   0  0  0  0  0  0  0  0  0  0  0  0
   -1.5346   -0.0466    2.1192 H   0  0  0  0  0  0  0  0  0  0  0  0
    0.0611    0.6480    2.4019 H   0  0  0  0  0  0  0  0  0  0  0  0
   -0.1249   -1.1023    2.2618 H   0  0  0  0  0  0  0  0  0  0  0  0
   -0.6918   -2.1316    0.1011 H   0  0  0  0  0  0  0  0  0  0  0  0
   -2.0629   -1.0627   -0.2056 H   0  0  0  0  0  0  0  0  0  0  0  0
    0.1528   -1.3298   -1.9125 H   0  0  0  0  0  0  0  0  0  0  0  0
  1  2  1  0
  1  6  1  0
  1  7  1  0
  1  8  1  0
  2  3  1  0
  2  4  1  0
  2  9  1  0
  3 10  1  0
  3 11  1  0
  3 12  1  0
  4  5  1  0
  4 13  1  0
  4 14  1  0
  5 15  1  0
M  END
>  <reaction>  (1) 
rxn_420

>  <mol_properties>  (1) 
{"1": {"label": "donator", "atom_type": "Cs"}, "8": {"label": "d_hydrogen", "atom_type": "H0"}}

>  <type>  (1) 
r1h

$$$$

     RDKit          3D

  5  4  0  0  0  0  0  0  0  0999 V2000
    0.0397    0.7134    0.0000 C   0  0  0  0  0  3  0  0  0  0  0  0
    0.0458   -0.5870    0.0000 C   0  0  0  0  0  0  0  0  0  0  0  0
   -0.6871    1.5118    0.0000 H   0  0  0  0  0  0  0  0  0  0  0  0
   -0.8806   -1.1637    0.0000 H   0  0  0  0  0  0  0  0  0  0  0  0
    0.9690   -1.1600    0.0000 H   0  0  0  0  0  0  0  0  0  0  0  0
  1  2  2  3
  1  3  1  0
  2  4  1  0
  2  5  1  0
M  RAD  1   1   2
M  END
>  <reaction>  (2) 
rxn_420

>  <mol_properties>  (2) 
{"0": {"label": "acceptor", "atom_type": "Cd"}}

>  <type>  (2) 
r2

$$$$

     RDKit          3D

  6  5  0  0  0  0  0  0  0  0999 V2000
    0.6594    0.0438   -0.0050 C   0  0  0  0  0  0  0  0  0  0  0  0
   -0.6594   -0.0438    0.0050 C   0  0  0  0  0  0  0  0  0  0  0  0
    1.1706    0.8681   -0.4881 H   0  0  0  0  0  0  0  0  0  0  0  0
    1.2824   -0.7051    0.4696 H   0  0  0  0  0  0  0  0  0  0  0  0
   -1.2824    0.7051   -0.4696 H   0  0  0  0  0  0  0  0  0  0  0  0
   -1.1706   -0.8681    0.4881 H   0  0  0  0  0  0  0  0  0  0  0  0
  1  2  2  3
  1  3  1  0
  1  4  1  0
  2  5  1  0
  2  6  1  0
M  END
>  <reaction>  (3) 
rxn_420

>  <mol_properties>  (3) 
{"0": {"label": "acceptor", "atom_type": "Cd"}, "5": {"label": "a_hydrogen", "atom_type": "H0"}}

>  <type>  (3) 
r2h

$$$$

     RDKit          3D

 20 18  0  0  0  0  0  0  0  0999 V2000
    1.9067   -0.4401    0.7815 C   0  0  0  0  0  3  0  0  0  0  0  0
    2.3711   -1.3328   -0.0626 C   0  0  0  0  0  0  0  0  0  0  0  0
    2.2986   -0.1703    1.7555 H   0  0  0  0  0  0  0  0  0  0  0  0
    3.2595   -1.9243    0.1497 H   0  0  0  0  0  0  0  0  0  0  0  0
    1.8905   -1.5119   -1.0206 H   0  0  0  0  0  0  0  0  0  0  0  0
   -0.2410    0.7591   -1.5908 C   0  0  0  0  0  0  0  0  0  0  0  0
   -0.3668    0.7469   -0.0841 C   0  0  0  0  0  0  0  0  0  0  0  0
   -0.4855    2.1228    0.5324 C   0  0  0  0  0  0  0  0  0  0  0  0
   -1.4126   -0.2221    0.4355 C   0  0  0  0  0  0  0  0  0  0  0  0
   -1.2027   -1.5537    0.0194 O   0  0  0  0  0  0  0  0  0  0  0  0
    0.6451    1.3128   -1.9067 H   0  0  0  0  0  0  0  0  0  0  0  0
   -1.1153    1.2412   -2.0424 H   0  0  0  0  0  0  0  0  0  0  0  0
   -0.1808   -0.2540   -1.9885 H   0  0  0  0  0  0  0  0  0  0  0  0
    0.7027    0.2743    0.3456 H   0  0  0  0  0  0  0  0  0  0  0  0
   -1.4223    2.6035    0.2299 H   0  0  0  0  0  0  0  0  0  0  0  0
    0.3334    2.7680    0.2097 H   0  0  0  0  0  0  0  0  0  0  0  0
   -0.4729    2.0768    1.6235 H   0  0  0  0  0  0  0  0  0  0  0  0
   -1.4557   -0.1573    1.5310 H   0  0  0  0  0  0  0  0  0  0  0  0
   -2.4004    0.0606    0.0555 H   0  0  0  0  0  0  0  0  0  0  0  0
   -0.3449   -1.8335    0.3501 H   0  0  0  0  0  0  0  0  0  0  0  0
  1  2  2  3
  1  3  1  0
  2  4  1  0
  2  5  1  0
  6  7  1  0
  6 11  1  0
  6 12  1  0
  6 13  1  0
  7  8  1  0
  7  9  1  0
  7 14  1  0
  8 15  1  0
  8 16  1  0
  8 17  1  0
  9 10  1  0
  9 18  1  0
  9 19  1  0
 10 20  1  0
M  RAD  1   1   2
M  END
>  <reaction>  (4) 
rxn_420

>  <mol_properties>  (4) 
{"0": {"label": "*3", "atom_type": "Cd"}, "1": {"label": "*4", "atom_type": "Cd"}, "6": {"label": "*1", "atom_type": "Cs"}, "8": {"label": "*0", "atom_type": "Cs"}, "13": {"label": "*2", "atom_type": "H0"}}

>  <type>  (4) 
ts

$$$$

     RDKit          3D

 20 18  0  0  0  0  0  0  0  0999 V2000
    1.8286   -0.7094    0.5264 C   0  0  0  0  0  0  0  0  0  0  0  0
    2.7194   -0.0873    1.2791 C   0  0  0  0  0  0  0  0  0  0  0  0
    1.4898   -1.7122    0.7582 H   0  0  0  0  0  0  0  0  0  0  0  0
    3.1467   -0.5551    2.1582 H   0  0  0  0  0  0  0  0  0  0  0  0
    3.0582    0.9156    1.0473 H   0  0  0  0  0  0  0  0  0  0  0  0
   -0.3478    0.4886   -1.8237 C   0  0  0  0  0  0  0  0  0  0  0  0
   -0.3478    0.4886   -0.2996 C   0  0  0  0  0  3  0  0  0  0  0  0
   -0.3478    1.9074    0.2603 C   0  0  0  0  0  0  0  0  0  0  0  0
   -1.5353   -0.2917    0.2573 C   0  0  0  0  0  0  0  0  0  0  0  0
   -1.5741   -1.6430   -0.1544 O   0  0  0  0  0  0  0  0  0  0  0  0
    0.5419    0.9852   -2.2158 H   0  0  0  0  0  0  0  0  0  0  0  0
   -1.2240    1.0213   -2.2042 H   0  0  0  0  0  0  0  0  0  0  0  0
   -0.3782   -0.5273   -2.2174 H   0  0  0  0  0  0  0  0  0  0  0  0
    0.7477   -0.1144    0.1162 H   0  0  0  0  0  0  0  0  0  0  0  0
   -1.2511    2.4424   -0.0460 H   0  0  0  0  0  0  0  0  0  0  0  0
    0.5108    2.4721   -0.1067 H   0  0  0  0  0  0  0  0  0  0  0  0
   -0.3105    1.9098    1.3518 H   0  0  0  0  0  0  0  0  0  0  0  0
   -1.5404   -0.2202    1.3531 H   0  0  0  0  0  0  0  0  0  0  0  0
   -2.4665    0.1542   -0.1024 H   0  0  0  0  0  0  0  0  0  0  0  0
   -0.7914   -2.0838    0.1799 H   0  0  0  0  0  0  0  0  0  0  0  0
  1  2  2  3
  1  3  1  0
  1 14  1  0
  2  4  1  0
  2  5  1  0
  6  7  1  0
  6 11  1  0
  6 12  1  0
  6 13  1  0
  7  8  1  0
  7  9  1  0
  8 15  1  0
  8 16  1  0
  8 17  1  0
  9 10  1  0
  9 18  1  0
  9 19  1  0
 10 20  1  0
M  RAD  1   7   2
M  END
>  <reaction>  (5) 
rxn_420

>  <mol_properties>  (5) 
{"0": {"label": "*3", "atom_type": "Cd"}, "1": {"label": "*4", "atom_type": "Cd"}, "6": {"label": "*1", "atom_type": "Cs"}, "8": {"label": "*0", "atom_type": "Cs"}, "13": {"label": "*2", "atom_type": "H0"}}

>  <type>  (5) 
unop_1

>  <geom_source>  (5) 
Heuristics

$$$$

     RDKit          3D

 20 18  0  0  0  0  0  0  0  0999 V2000
    1.7920   -0.6292    0.7330 C   0  0  0  0  0  0  0  0  0  0  0  0
    2.9090   -0.6018    0.0270 C   0  0  0  0  0  0  0  0  0  0  0  0
    1.7906   -0.8896    1.7849 H   0  0  0  0  0  0  0  0  0  0  0  0
    3.8684   -0.8386    0.4716 H   0  0  0  0  0  0  0  0  0  0  0  0
    2.9103   -0.3415   -1.0249 H   0  0  0  0  0  0  0  0  0  0  0  0
   -0.3845    0.5688   -1.6172 C   0  0  0  0  0  0  0  0  0  0  0  0
   -0.3845    0.5688   -0.0931 C   0  0  0  0  0  3  0  0  0  0  0  0
   -0.3845    1.9875    0.4668 C   0  0  0  0  0  0  0  0  0  0  0  0
   -1.5720   -0.2116    0.4639 C   0  0  0  0  0  0  0  0  0  0  0  0
   -1.6108   -1.5628    0.0521 O   0  0  0  0  0  0  0  0  0  0  0  0
    0.5052    1.0653   -2.0092 H   0  0  0  0  0  0  0  0  0  0  0  0
   -1.2607    1.1015   -1.9977 H   0  0  0  0  0  0  0  0  0  0  0  0
   -0.4149   -0.4472   -2.0109 H   0  0  0  0  0  0  0  0  0  0  0  0
    0.7110   -0.0342    0.3227 H   0  0  0  0  0  0  0  0  0  0  0  0
   -1.2877    2.5226    0.1606 H   0  0  0  0  0  0  0  0  0  0  0  0
    0.4741    2.5522    0.0999 H   0  0  0  0  0  0  0  0  0  0  0  0
   -0.3472    1.9900    1.5583 H   0  0  0  0  0  0  0  0  0  0  0  0
   -1.5771   -0.1400    1.5597 H   0  0  0  0  0  0  0  0  0  0  0  0
   -2.5032    0.2344    0.1041 H   0  0  0  0  0  0  0  0  0  0  0  0
   -0.8281   -2.0037    0.3865 H   0  0  0  0  0  0  0  0  0  0  0  0
  1  2  2  3
  1  3  1  0
  1 14  1  0
  2  4  1  0
  2  5  1  0
  6  7  1  0
  6 11  1  0
  6 12  1  0
  6 13  1  0
  7  8  1  0
  7  9  1  0
  8 15  1  0
  8 16  1  0
  8 17  1  0
  9 10  1  0
  9 18  1  0
  9 19  1  0
 10 20  1  0
M  RAD  1   7   2
M  END
>  <reaction>  (6) 
rxn_420

>  <mol_properties>  (6) 
{"0": {"label": "*3", "atom_type": "Cd"}, "1": {"label": "*4", "atom_type": "Cd"}, "6": {"label": "*1", "atom_type": "Cs"}, "8": {"label": "*0", "atom_type": "Cs"}, "13": {"label": "*2", "atom_type": "H0"}}

>  <type>  (6) 
unop_2

>  <geom_source>  (6) 
Heuristics

$$$$

     RDKit          3D

 20 18  0  0  0  0  0  0  0  0999 V2000
    1.8717   -0.6653    0.4746 C   0  0  0  0  0  0  0  0  0  0  0  0
    2.4500   -0.3413    1.6181 C   0  0  0  0  0  0  0  0  0  0  0  0
    1.8289   -1.6917    0.1301 H   0  0  0  0  0  0  0  0  0  0  0  0
    2.9046   -1.0892    2.2571 H   0  0  0  0  0  0  0  0  0  0  0  0
    2.4927    0.6852    1.9627 H   0  0  0  0  0  0  0  0  0  0  0  0
   -0.3047    0.5328   -1.8755 C   0  0  0  0  0  0  0  0  0  0  0  0
   -0.3047    0.5328   -0.3514 C   0  0  0  0  0  3  0  0  0  0  0  0
   -0.3047    1.9515    0.2085 C   0  0  0  0  0  0  0  0  0  0  0  0
   -1.4922   -0.2476    0.2055 C   0  0  0  0  0  0  0  0  0  0  0  0
   -1.5311   -1.5989   -0.2062 O   0  0  0  0  0  0  0  0  0  0  0  0
    0.5850    1.0293   -2.2676 H   0  0  0  0  0  0  0  0  0  0  0  0
   -1.1810    1.0655   -2.2560 H   0  0  0  0  0  0  0  0  0  0  0  0
   -0.3351   -0.4832   -2.2692 H   0  0  0  0  0  0  0  0  0  0  0  0
    0.7907   -0.0702    0.0644 H   0  0  0  0  0  0  0  0  0  0  0  0
   -1.2080    2.4865   -0.0977 H   0  0  0  0  0  0  0  0  0  0  0  0
    0.5538    2.5162   -0.1585 H   0  0  0  0  0  0  0  0  0  0  0  0
   -0.2674    1.9539    1.3000 H   0  0  0  0  0  0  0  0  0  0  0  0
   -1.4974   -0.1760    1.3013 H   0  0  0  0  0  0  0  0  0  0  0  0
   -2.4235    0.1984   -0.1542 H   0  0  0  0  0  0  0  0  0  0  0  0
   -0.7484   -2.0397    0.1281 H   0  0  0  0  0  0  0  0  0  0  0  0
  1  2  2  3
  1  3  1  0
  1 14  1  0
  2  4  1  0
  2  5  1  0
  6  7  1  0
  6 11  1  0
  6 12  1  0
  6 13  1  0
  7  8  1  0
  7  9  1  0
  8 15  1  0
  8 16  1  0
  8 17  1  0
  9 10  1  0
  9 18  1  0
  9 19  1  0
 10 20  1  0
M  RAD  1   7   2
M  END
>  <reaction>  (7) 
rxn_420

>  <mol_properties>  (7) 
{"0": {"label": "*3", "atom_type": "Cd"}, "1": {"label": "*4", "atom_type": "Cd"}, "6": {"label": "*1", "atom_type": "Cs"}, "8": {"label": "*0", "atom_type": "Cs"}, "13": {"label": "*2", "atom_type": "H0"}}

>  <type>  (7) 
unop_3

>  <geom_source>  (7) 
Heuristics

$$$$

     RDKit          3D

 20 18  0  0  0  0  0  0  0  0999 V2000
    1.9147   -0.4471    0.6765 C   0  0  0  0  0  0  0  0  0  0  0  0
    2.1766   -1.7037    0.3613 C   0  0  0  0  0  0  0  0  0  0  0  0
    2.2313   -0.0201    1.6208 H   0  0  0  0  0  0  0  0  0  0  0  0
    2.7184   -2.3574    1.0346 H   0  0  0  0  0  0  0  0  0  0  0  0
    1.8600   -2.1307   -0.5829 H   0  0  0  0  0  0  0  0  0  0  0  0
   -0.2617    0.7509   -1.6736 C   0  0  0  0  0  0  0  0  0  0  0  0
   -0.2617    0.7509   -0.1495 C   0  0  0  0  0  3  0  0  0  0  0  0
   -0.2617    2.1697    0.4104 C   0  0  0  0  0  0  0  0  0  0  0  0
   -1.4493   -0.0294    0.4074 C   0  0  0  0  0  0  0  0  0  0  0  0
   -1.4881   -1.3807   -0.0043 O   0  0  0  0  0  0  0  0  0  0  0  0
    0.6280    1.2475   -2.0657 H   0  0  0  0  0  0  0  0  0  0  0  0
   -1.1380    1.2836   -2.0541 H   0  0  0  0  0  0  0  0  0  0  0  0
   -0.2922   -0.2650   -2.0673 H   0  0  0  0  0  0  0  0  0  0  0  0
    0.8337    0.1480    0.2662 H   0  0  0  0  0  0  0  0  0  0  0  0
   -1.1650    2.7047    0.1041 H   0  0  0  0  0  0  0  0  0  0  0  0
    0.5968    2.7344    0.0434 H   0  0  0  0  0  0  0  0  0  0  0  0
   -0.2245    2.1721    1.5019 H   0  0  0  0  0  0  0  0  0  0  0  0
   -1.4544    0.0421    1.5032 H   0  0  0  0  0  0  0  0  0  0  0  0
   -2.3805    0.4165    0.0477 H   0  0  0  0  0  0  0  0  0  0  0  0
   -0.7054   -1.8215    0.3300 H   0  0  0  0  0  0  0  0  0  0  0  0
  1  2  2  3
  1  3  1  0
  1 14  1  0
  2  4  1  0
  2  5  1  0
  6  7  1  0
  6 11  1  0
  6 12  1  0
  6 13  1  0
  7  8  1  0
  7  9  1  0
  8 15  1  0
  8 16  1  0
  8 17  1  0
  9 10  1  0
  9 18  1  0
  9 19  1  0
 10 20  1  0
M  RAD  1   7   2
M  END
>  <reaction>  (8) 
rxn_420

>  <mol_properties>  (8) 
{"0": {"label": "*3", "atom_type": "Cd"}, "1": {"label": "*4", "atom_type": "Cd"}, "6": {"label": "*1", "atom_type": "Cs"}, "8": {"label": "*0", "atom_type": "Cs"}, "13": {"label": "*2", "atom_type": "H0"}}

>  <type>  (8) 
unop_4

>  <geom_source>  (8) 
Heuristics

$$$$

     RDKit          3D

 20 18  0  0  0  0  0  0  0  0999 V2000
    1.9106   -0.6026    0.4578 C   0  0  0  0  0  0  0  0  0  0  0  0
    2.1759   -0.7486    1.7443 C   0  0  0  0  0  0  0  0  0  0  0  0
    2.5833   -0.9729   -0.3069 H   0  0  0  0  0  0  0  0  0  0  0  0
    3.0767   -1.2445    2.0862 H   0  0  0  0  0  0  0  0  0  0  0  0
    1.5033   -0.3784    2.5090 H   0  0  0  0  0  0  0  0  0  0  0  0
   -0.2658    0.5954   -1.8924 C   0  0  0  0  0  0  0  0  0  0  0  0
   -0.2658    0.5954   -0.3683 C   0  0  0  0  0  3  0  0  0  0  0  0
   -0.2658    2.0142    0.1916 C   0  0  0  0  0  0  0  0  0  0  0  0
   -1.4533   -0.1850    0.1887 C   0  0  0  0  0  0  0  0  0  0  0  0
   -1.4921   -1.5362   -0.2231 O   0  0  0  0  0  0  0  0  0  0  0  0
    0.6239    1.0920   -2.2845 H   0  0  0  0  0  0  0  0  0  0  0  0
   -1.1420    1.1281   -2.2729 H   0  0  0  0  0  0  0  0  0  0  0  0
   -0.2962   -0.4205   -2.2861 H   0  0  0  0  0  0  0  0  0  0  0  0
    0.8297   -0.0076    0.0475 H   0  0  0  0  0  0  0  0  0  0  0  0
   -1.1691    2.5492   -0.1146 H   0  0  0  0  0  0  0  0  0  0  0  0
    0.5928    2.5788   -0.1754 H   0  0  0  0  0  0  0  0  0  0  0  0
   -0.2285    2.0166    1.2831 H   0  0  0  0  0  0  0  0  0  0  0  0
   -1.4584   -0.1134    1.2845 H   0  0  0  0  0  0  0  0  0  0  0  0
   -2.3845    0.2610   -0.1711 H   0  0  0  0  0  0  0  0  0  0  0  0
   -0.7094   -1.9771    0.1112 H   0  0  0  0  0  0  0  0  0  0  0  0
  1  2  2  3
  1  3  1  0
  1 14  1  0
  2  4  1  0
  2  5  1  0
  6  7  1  0
  6 11  1  0
  6 12  1  0
  6 13  1  0
  7  8  1  0
  7  9  1  0
  8 15  1  0
  8 16  1  0
  8 17  1  0
  9 10  1  0
  9 18  1  0
  9 19  1  0
 10 20  1  0
M  RAD  1   7   2
M  END
>  <reaction>  (9) 
rxn_420

>  <mol_properties>  (9) 
{"0": {"label": "*3", "atom_type": "Cd"}, "1": {"label": "*4", "atom_type": "Cd"}, "6": {"label": "*1", "atom_type": "Cs"}, "8": {"label": "*0", "atom_type": "Cs"}, "13": {"label": "*2", "atom_type": "H0"}}

>  <type>  (9) 
unop_5

>  <geom_source>  (9) 
Heuristics

$$$$

     RDKit          3D

 20 18  0  0  0  0  0  0  0  0999 V2000
    1.9467   -0.4430    0.6006 C   0  0  0  0  0  0  0  0  0  0  0  0
    1.9804   -1.7460    0.8193 C   0  0  0  0  0  0  0  0  0  0  0  0
    2.4190    0.2594    1.2773 H   0  0  0  0  0  0  0  0  0  0  0  0
    2.4817   -2.1644    1.6841 H   0  0  0  0  0  0  0  0  0  0  0  0
    1.5081   -2.4484    0.1427 H   0  0  0  0  0  0  0  0  0  0  0  0
   -0.2297    0.7550   -1.7496 C   0  0  0  0  0  0  0  0  0  0  0  0
   -0.2297    0.7550   -0.2255 C   0  0  0  0  0  3  0  0  0  0  0  0
   -0.2297    2.1738    0.3344 C   0  0  0  0  0  0  0  0  0  0  0  0
   -1.4172   -0.0253    0.3315 C   0  0  0  0  0  0  0  0  0  0  0  0
   -1.4560   -1.3766   -0.0802 O   0  0  0  0  0  0  0  0  0  0  0  0
    0.6600    1.2516   -2.1416 H   0  0  0  0  0  0  0  0  0  0  0  0
   -1.1060    1.2877   -2.1301 H   0  0  0  0  0  0  0  0  0  0  0  0
   -0.2601   -0.2609   -2.1433 H   0  0  0  0  0  0  0  0  0  0  0  0
    0.8657    0.1520    0.1903 H   0  0  0  0  0  0  0  0  0  0  0  0
   -1.1330    2.7088    0.0282 H   0  0  0  0  0  0  0  0  0  0  0  0
    0.6289    2.7385   -0.0325 H   0  0  0  0  0  0  0  0  0  0  0  0
   -0.1924    2.1762    1.4259 H   0  0  0  0  0  0  0  0  0  0  0  0
   -1.4224    0.0462    1.4273 H   0  0  0  0  0  0  0  0  0  0  0  0
   -2.3484    0.4206   -0.0282 H   0  0  0  0  0  0  0  0  0  0  0  0
   -0.6733   -1.8174    0.2541 H   0  0  0  0  0  0  0  0  0  0  0  0
  1  2  2  3
  1  3  1  0
  1 14  1  0
  2  4  1  0
  2  5  1  0
  6  7  1  0
  6 11  1  0
  6 12  1  0
  6 13  1  0
  7  8  1  0
  7  9  1  0
  8 15  1  0
  8 16  1  0
  8 17  1  0
  9 10  1  0
  9 18  1  0
  9 19  1  0
 10 20  1  0
M  RAD  1   7   2
M  END
>  <reaction>  (10) 
rxn_420

>  <mol_properties>  (10) 
{"0": {"label": "*3", "atom_type": "Cd"}, "1": {"label": "*4", "atom_type": "Cd"}, "6": {"label": "*1", "atom_type": "Cs"}, "8": {"label": "*0", "atom_type": "Cs"}, "13": {"label": "*2", "atom_type": "H0"}}

>  <type>  (10) 
unop_6

>  <geom_source>  (10) 
Heuristics

$$$$

     RDKit          3D

 20 18  0  0  0  0  0  0  0  0999 V2000
    1.9570   -0.4762    0.5264 C   0  0  0  0  0  0  0  0  0  0  0  0
    1.9078   -1.5616    1.2791 C   0  0  0  0  0  0  0  0  0  0  0  0
    2.6231    0.3465    0.7582 H   0  0  0  0  0  0  0  0  0  0  0  0
    2.5317   -1.6724    2.1582 H   0  0  0  0  0  0  0  0  0  0  0  0
    1.2418   -2.3843    1.0473 H   0  0  0  0  0  0  0  0  0  0  0  0
   -0.2194    0.7218   -1.8237 C   0  0  0  0  0  0  0  0  0  0  0  0
   -0.2194    0.7218   -0.2996 C   0  0  0  0  0  3  0  0  0  0  0  0
   -0.2194    2.1405    0.2603 C   0  0  0  0  0  0  0  0  0  0  0  0
   -1.4069   -0.0586    0.2573 C   0  0  0  0  0  0  0  0  0  0  0  0
   -1.4458   -1.4098   -0.1544 O   0  0  0  0  0  0  0  0  0  0  0  0
    0.6703    1.2183   -2.2158 H   0  0  0  0  0  0  0  0  0  0  0  0
   -1.0957    1.2545   -2.2042 H   0  0  0  0  0  0  0  0  0  0  0  0
   -0.2499   -0.2941   -2.2174 H   0  0  0  0  0  0  0  0  0  0  0  0
    0.8760    0.1188    0.1162 H   0  0  0  0  0  0  0  0  0  0  0  0
   -1.1227    2.6756   -0.0460 H   0  0  0  0  0  0  0  0  0  0  0  0
    0.6391    2.7052   -0.1067 H   0  0  0  0  0  0  0  0  0  0  0  0
   -0.1821    2.1430    1.3518 H   0  0  0  0  0  0  0  0  0  0  0  0
   -1.4121    0.0130    1.3531 H   0  0  0  0  0  0  0  0  0  0  0  0
   -2.3382    0.3874   -0.1024 H   0  0  0  0  0  0  0  0  0  0  0  0
   -0.6631   -1.8507    0.1799 H   0  0  0  0  0  0  0  0  0  0  0  0
  1  2  2  3
  1  3  1  0
  1 14  1  0
  2  4  1  0
  2  5  1  0
  6  7  1  0
  6 11  1  0
  6 12  1  0
  6 13  1  0
  7  8  1  0
  7  9  1  0
  8 15  1  0
  8 16  1  0
  8 17  1  0
  9 10  1  0
  9 18  1  0
  9 19  1  0
 10 20  1  0
M  RAD  1   7   2
M  END
>  <reaction>  (11) 
rxn_420

>  <mol_properties>  (11) 
{"0": {"label": "*3", "atom_type": "Cd"}, "1": {"label": "*4", "atom_type": "Cd"}, "6": {"label": "*1", "atom_type": "Cs"}, "8": {"label": "*0", "atom_type": "Cs"}, "13": {"label": "*2", "atom_type": "H0"}}

>  <type>  (11) 
unop_7

>  <geom_source>  (11) 
Heuristics

$$$$

     RDKit          3D

 20 18  0  0  0  0  0  0  0  0999 V2000
    1.7951   -0.7185    0.6006 C   0  0  0  0  0  0  0  0  0  0  0  0
    2.9140   -0.0499    0.8193 C   0  0  0  0  0  0  0  0  0  0  0  0
    1.4543   -1.4933    1.2773 H   0  0  0  0  0  0  0  0  0  0  0  0
    3.5357   -0.2496    1.6841 H   0  0  0  0  0  0  0  0  0  0  0  0
    3.2548    0.7248    0.1427 H   0  0  0  0  0  0  0  0  0  0  0  0
   -0.3814    0.4795   -1.7496 C   0  0  0  0  0  0  0  0  0  0  0  0
   -0.3814    0.4795   -0.2255 C   0  0  0  0  0  3  0  0  0  0  0  0
   -0.3814    1.8983    0.3344 C   0  0  0  0  0  0  0  0  0  0  0  0
   -1.5689   -0.3009    0.3315 C   0  0  0  0  0  0  0  0  0  0  0  0
   -1.6077   -1.6521   -0.0802 O   0  0  0  0  0  0  0  0  0  0  0  0
    0.5083    0.9761   -2.1416 H   0  0  0  0  0  0  0  0  0  0  0  0
   -1.2576    1.0122   -2.1301 H   0  0  0  0  0  0  0  0  0  0  0  0
   -0.4118   -0.5364   -2.1433 H   0  0  0  0  0  0  0  0  0  0  0  0
    0.7141   -0.1235    0.1903 H   0  0  0  0  0  0  0  0  0  0  0  0
   -1.2846    2.4333    0.0282 H   0  0  0  0  0  0  0  0  0  0  0  0
    0.4772    2.4630   -0.0325 H   0  0  0  0  0  0  0  0  0  0  0  0
   -0.3441    1.9007    1.4259 H   0  0  0  0  0  0  0  0  0  0  0  0
   -1.5740   -0.2293    1.4273 H   0  0  0  0  0  0  0  0  0  0  0  0
   -2.5001    0.1451   -0.0282 H   0  0  0  0  0  0  0  0  0  0  0  0
   -0.8250   -2.0930    0.2541 H   0  0  0  0  0  0  0  0  0  0  0  0
  1  2  2  3
  1  3  1  0
  1 14  1  0
  2  4  1  0
  2  5  1  0
  6  7  1  0
  6 11  1  0
  6 12  1  0
  6 13  1  0
  7  8  1  0
  7  9  1  0
  8 15  1  0
  8 16  1  0
  8 17  1  0
  9 10  1  0
  9 18  1  0
  9 19  1  0
 10 20  1  0
M  RAD  1   7   2
M  END
>  <reaction>  (12) 
rxn_420

>  <mol_properties>  (12) 
{"0": {"label": "*3", "atom_type": "Cd"}, "1": {"label": "*4", "atom_type": "Cd"}, "6": {"label": "*1", "atom_type": "Cs"}, "8": {"label": "*0", "atom_type": "Cs"}, "13": {"label": "*2", "atom_type": "H0"}}

>  <type>  (12) 
unop_8

>  <geom_source>  (12) 
Heuristics

$$$$

     RDKit          3D

 20 18  0  0  0  0  0  0  0  0999 V2000
    1.8697   -0.4881    0.7330 C   0  0  0  0  0  0  0  0  0  0  0  0
    2.4440   -1.4465    0.0270 C   0  0  0  0  0  0  0  0  0  0  0  0
    2.0889   -0.3477    1.7849 H   0  0  0  0  0  0  0  0  0  0  0  0
    3.1573   -2.1305    0.4716 H   0  0  0  0  0  0  0  0  0  0  0  0
    2.2248   -1.5869   -1.0249 H   0  0  0  0  0  0  0  0  0  0  0  0
   -0.3068    0.7099   -1.6172 C   0  0  0  0  0  0  0  0  0  0  0  0
   -0.3068    0.7099   -0.0931 C   0  0  0  0  0  3  0  0  0  0  0  0
   -0.3068    2.1287    0.4668 C   0  0  0  0  0  0  0  0  0  0  0  0
   -1.4943   -0.0705    0.4639 C   0  0  0  0  0  0  0  0  0  0  0  0
   -1.5331   -1.4217    0.0521 O   0  0  0  0  0  0  0  0  0  0  0  0
    0.5829    1.2065   -2.0092 H   0  0  0  0  0  0  0  0  0  0  0  0
   -1.1830    1.2426   -1.9977 H   0  0  0  0  0  0  0  0  0  0  0  0
   -0.3372   -0.3060   -2.0109 H   0  0  0  0  0  0  0  0  0  0  0  0
    0.7887    0.1069    0.3227 H   0  0  0  0  0  0  0  0  0  0  0  0
   -1.2100    2.6637    0.1606 H   0  0  0  0  0  0  0  0  0  0  0  0
    0.5518    2.6933    0.0999 H   0  0  0  0  0  0  0  0  0  0  0  0
   -0.2695    2.1311    1.5583 H   0  0  0  0  0  0  0  0  0  0  0  0
   -1.4994    0.0011    1.5597 H   0  0  0  0  0  0  0  0  0  0  0  0
   -2.4255    0.3755    0.1041 H   0  0  0  0  0  0  0  0  0  0  0  0
   -0.7504   -1.8626    0.3865 H   0  0  0  0  0  0  0  0  0  0  0  0
  1  2  2  3
  1  3  1  0
  1 14  1  0
  2  4  1  0
  2  5  1  0
  6  7  1  0
  6 11  1  0
  6 12  1  0
  6 13  1  0
  7  8  1  0
  7  9  1  0
  8 15  1  0
  8 16  1  0
  8 17  1  0
  9 10  1  0
  9 18  1  0
  9 19  1  0
 10 20  1  0
M  RAD  1   7   2
M  END
>  <reaction>  (13) 
rxn_420

>  <mol_properties>  (13) 
{"0": {"label": "*3", "atom_type": "Cd"}, "1": {"label": "*4", "atom_type": "Cd"}, "6": {"label": "*1", "atom_type": "Cs"}, "8": {"label": "*0", "atom_type": "Cs"}, "13": {"label": "*2", "atom_type": "H0"}}

>  <type>  (13) 
unop_9

>  <geom_source>  (13) 
Heuristics

$$$$

     RDKit          3D

 20 18  0  0  0  0  0  0  0  0999 V2000
    1.7814   -0.6892    0.6765 C   0  0  0  0  0  0  0  0  0  0  0  0
    2.9832   -0.2383    0.3613 C   0  0  0  0  0  0  0  0  0  0  0  0
    1.5900   -1.1851    1.6208 H   0  0  0  0  0  0  0  0  0  0  0  0
    3.8254   -0.3464    1.0346 H   0  0  0  0  0  0  0  0  0  0  0  0
    3.1746    0.2575   -0.5829 H   0  0  0  0  0  0  0  0  0  0  0  0
   -0.3950    0.5088   -1.6736 C   0  0  0  0  0  0  0  0  0  0  0  0
   -0.3950    0.5088   -0.1495 C   0  0  0  0  0  3  0  0  0  0  0  0
   -0.3950    1.9275    0.4104 C   0  0  0  0  0  0  0  0  0  0  0  0
   -1.5825   -0.2716    0.4074 C   0  0  0  0  0  0  0  0  0  0  0  0
   -1.6214   -1.6228   -0.0043 O   0  0  0  0  0  0  0  0  0  0  0  0
    0.4947    1.0053   -2.0657 H   0  0  0  0  0  0  0  0  0  0  0  0
   -1.2713    1.0415   -2.0541 H   0  0  0  0  0  0  0  0  0  0  0  0
   -0.4255   -0.5072   -2.0673 H   0  0  0  0  0  0  0  0  0  0  0  0
    0.7004   -0.0942    0.2662 H   0  0  0  0  0  0  0  0  0  0  0  0
   -1.2983    2.4626    0.1041 H   0  0  0  0  0  0  0  0  0  0  0  0
    0.4635    2.4922    0.0434 H   0  0  0  0  0  0  0  0  0  0  0  0
   -0.3577    1.9300    1.5019 H   0  0  0  0  0  0  0  0  0  0  0  0
   -1.5877   -0.2000    1.5032 H   0  0  0  0  0  0  0  0  0  0  0  0
   -2.5138    0.1744    0.0477 H   0  0  0  0  0  0  0  0  0  0  0  0
   -0.8387   -2.0637    0.3300 H   0  0  0  0  0  0  0  0  0  0  0  0
  1  2  2  3
  1  3  1  0
  1 14  1  0
  2  4  1  0
  2  5  1  0
  6  7  1  0
  6 11  1  0
  6 12  1  0
  6 13  1  0
  7  8  1  0
  7  9  1  0
  8 15  1  0
  8 16  1  0
  8 17  1  0
  9 10  1  0
  9 18  1  0
  9 19  1  0
 10 20  1  0
M  RAD  1   7   2
M  END
>  <reaction>  (14) 
rxn_420

>  <mol_properties>  (14) 
{"0": {"label": "*3", "atom_type": "Cd"}, "1": {"label": "*4", "atom_type": "Cd"}, "6": {"label": "*1", "atom_type": "Cs"}, "8": {"label": "*0", "atom_type": "Cs"}, "13": {"label": "*2", "atom_type": "H0"}}

>  <type>  (14) 
unop_10

>  <geom_source>  (14) 
Heuristics

$$$$

     RDKit          3D

 20 18  0  0  0  0  0  0  0  0999 V2000
    1.9427   -0.5362    0.4746 C   0  0  0  0  0  0  0  0  0  0  0  0
    1.9784   -1.1981    1.6181 C   0  0  0  0  0  0  0  0  0  0  0  0
    2.7871    0.0490    0.1301 H   0  0  0  0  0  0  0  0  0  0  0  0
    2.8534   -1.1821    2.2571 H   0  0  0  0  0  0  0  0  0  0  0  0
    1.1339   -1.7833    1.9627 H   0  0  0  0  0  0  0  0  0  0  0  0
   -0.2337    0.6618   -1.8755 C   0  0  0  0  0  0  0  0  0  0  0  0
   -0.2337    0.6618   -0.3514 C   0  0  0  0  0  3  0  0  0  0  0  0
   -0.2337    2.0806    0.2085 C   0  0  0  0  0  0  0  0  0  0  0  0
   -1.4212   -0.1186    0.2055 C   0  0  0  0  0  0  0  0  0  0  0  0
   -1.4600   -1.4698   -0.2062 O   0  0  0  0  0  0  0  0  0  0  0  0
    0.6560    1.1584   -2.2676 H   0  0  0  0  0  0  0  0  0  0  0  0
   -1.1100    1.1945   -2.2560 H   0  0  0  0  0  0  0  0  0  0  0  0
   -0.2641   -0.3541   -2.2692 H   0  0  0  0  0  0  0  0  0  0  0  0
    0.8618    0.0588    0.0644 H   0  0  0  0  0  0  0  0  0  0  0  0
   -1.1370    2.6156   -0.0977 H   0  0  0  0  0  0  0  0  0  0  0  0
    0.6249    2.6453   -0.1585 H   0  0  0  0  0  0  0  0  0  0  0  0
   -0.1964    2.0830    1.3000 H   0  0  0  0  0  0  0  0  0  0  0  0
   -1.4264   -0.0470    1.3013 H   0  0  0  0  0  0  0  0  0  0  0  0
   -2.3524    0.3274   -0.1542 H   0  0  0  0  0  0  0  0  0  0  0  0
   -0.6773   -1.9107    0.1281 H   0  0  0  0  0  0  0  0  0  0  0  0
  1  2  2  3
  1  3  1  0
  1 14  1  0
  2  4  1  0
  2  5  1  0
  6  7  1  0
  6 11  1  0
  6 12  1  0
  6 13  1  0
  7  8  1  0
  7  9  1  0
  8 15  1  0
  8 16  1  0
  8 17  1  0
  9 10  1  0
  9 18  1  0
  9 19  1  0
 10 20  1  0
M  RAD  1   7   2
M  END
>  <reaction>  (15) 
rxn_420

>  <mol_properties>  (15) 
{"0": {"label": "*3", "atom_type": "Cd"}, "1": {"label": "*4", "atom_type": "Cd"}, "6": {"label": "*1", "atom_type": "Cs"}, "8": {"label": "*0", "atom_type": "Cs"}, "13": {"label": "*2", "atom_type": "H0"}}

>  <type>  (15) 
unop_11

>  <geom_source>  (15) 
Heuristics

$$$$

     RDKit          3D

 20 18  0  0  0  0  0  0  0  0999 V2000
    1.8244   -0.5551    0.7538 C   0  0  0  0  0  0  0  0  0  0  0  0
    2.7118   -1.0436   -0.0952 C   0  0  0  0  0  0  0  0  0  0  0  0
    1.9620   -0.6309    1.8260 H   0  0  0  0  0  0  0  0  0  0  0  0
    3.6126   -1.5395    0.2467 H   0  0  0  0  0  0  0  0  0  0  0  0
    2.5741   -0.9678   -1.1674 H   0  0  0  0  0  0  0  0  0  0  0  0
   -0.3520    0.6429   -1.5963 C   0  0  0  0  0  0  0  0  0  0  0  0
   -0.3520    0.6429   -0.0722 C   0  0  0  0  0  3  0  0  0  0  0  0
   -0.3520    2.0616    0.4877 C   0  0  0  0  0  0  0  0  0  0  0  0
   -1.5395   -0.1375    0.4847 C   0  0  0  0  0  0  0  0  0  0  0  0
   -1.5784   -1.4887    0.0730 O   0  0  0  0  0  0  0  0  0  0  0  0
    0.5377    1.1394   -1.9884 H   0  0  0  0  0  0  0  0  0  0  0  0
   -1.2283    1.1756   -1.9768 H   0  0  0  0  0  0  0  0  0  0  0  0
   -0.3824   -0.3731   -1.9900 H   0  0  0  0  0  0  0  0  0  0  0  0
    0.7434    0.0399    0.3436 H   0  0  0  0  0  0  0  0  0  0  0  0
   -1.2553    2.5967    0.1815 H   0  0  0  0  0  0  0  0  0  0  0  0
    0.5065    2.6263    0.1207 H   0  0  0  0  0  0  0  0  0  0  0  0
   -0.3147    2.0641    1.5792 H   0  0  0  0  0  0  0  0  0  0  0  0
   -1.5447   -0.0659    1.5805 H   0  0  0  0  0  0  0  0  0  0  0  0
   -2.4707    0.3085    0.1250 H   0  0  0  0  0  0  0  0  0  0  0  0
   -0.7957   -1.9296    0.4073 H   0  0  0  0  0  0  0  0  0  0  0  0
  1  2  2  3
  1  3  1  0
  1 14  1  0
  2  4  1  0
  2  5  1  0
  6  7  1  0
  6 11  1  0
  6 12  1  0
  6 13  1  0
  7  8  1  0
  7  9  1  0
  8 15  1  0
  8 16  1  0
  8 17  1  0
  9 10  1  0
  9 18  1  0
  9 19  1  0
 10 20  1  0
M  RAD  1   7   2
M  END
>  <reaction>  (16) 
rxn_420

>  <mol_properties>  (16) 
{"0": {"label": "*3", "atom_type": "Cd"}, "1": {"label": "*4", "atom_type": "Cd"}, "6": {"label": "*1", "atom_type": "Cs"}, "8": {"label": "*0", "atom_type": "Cs"}, "13": {"label": "*2", "atom_type": "H0"}}

>  <type>  (16) 
unop_12

>  <geom_source>  (16) 
Heuristics

$$$$

     RDKit          3D

 20 18  0  0  0  0  0  0  0  0999 V2000
   -1.1797    1.3976   -1.6829 O   0  0  0  0  0  0  0  0  0  0  0  0
   -1.3996    0.1315   -1.1211 C   0  0  0  0  0  0  0  0  0  0  0  0
   -0.8773    0.8935    1.2485 C   0  0  0  0  0  0  0  0  0  0  0  0
   -0.5428   -1.5204    0.5929 C   0  0  0  0  0  0  0  0  0  0  0  0
   -0.5082   -0.0670    0.1135 C   0  0  0  0  0  3  0  0  0  0  0  0
    2.8899   -0.4574   -0.4372 C   0  0  0  0  0  0  0  0  0  0  0  0
    1.9821    0.4791   -0.1738 C   0  0  0  0  0  0  0  0  0  0  0  0
   -2.4738   -0.0138   -0.8577 H   0  0  0  0  0  0  0  0  0  0  0  0
   -1.1377   -0.6296   -1.8864 H   0  0  0  0  0  0  0  0  0  0  0  0
   -0.7470    1.9451    0.9186 H   0  0  0  0  0  0  0  0  0  0  0  0
   -0.2088    0.7271    2.1195 H   0  0  0  0  0  0  0  0  0  0  0  0
   -1.9308    0.7382    1.5661 H   0  0  0  0  0  0  0  0  0  0  0  0
   -1.5709   -1.8053    0.9042 H   0  0  0  0  0  0  0  0  0  0  0  0
    0.1470   -1.6536    1.4528 H   0  0  0  0  0  0  0  0  0  0  0  0
   -0.2094   -2.1973   -0.2217 H   0  0  0  0  0  0  0  0  0  0  0  0
    3.9377   -0.2812   -0.2167 H   0  0  0  0  0  0  0  0  0  0  0  0
    2.5859   -1.4027   -0.8742 H   0  0  0  0  0  0  0  0  0  0  0  0
    2.2834    1.4256    0.2633 H   0  0  0  0  0  0  0  0  0  0  0  0
    0.8121    0.2795   -0.4213 H   0  0  0  0  0  0  0  0  0  0  0  0
   -1.8520    2.0110   -1.2866 H   0  0  0  0  0  0  0  0  0  0  0  0
  1  2  1  0
  1 20  1  0
  2  5  1  0
  2  8  1  0
  2  9  1  0
  3  5  1  0
  3 10  1  0
  3 11  1  0
  3 12  1  0
  4  5  1  0
  4 13  1  0
  4 14  1  0
  4 15  1  0
  6  7  2  3
  6 16  1  0
  6 17  1  0
  7 18  1  0
  7 19  1  0
M  RAD  1   5   2
M  END
>  <reaction>  (17) 
rxn_420

>  <mol_properties>  (17) 
{"0": {"label": "*3", "atom_type": "Cd"}, "1": {"label": "*4", "atom_type": "Cd"}, "6": {"label": "*1", "atom_type": "Cs"}, "8": {"label": "*0", "atom_type": "Cs"}, "13": {"label": "*2", "atom_type": "H0"}}

>  <type>  (17) 
unop_13

>  <geom_source>  (17) 
AutoTST

$$$$
