
     RDKit          3D

 10  9  0  0  0  0  0  0  0  0999 V2000
    1.8334    0.0847   -0.1062 C   0  0  0  0  0  0  0  0  0  0  0  0
    0.5993   -0.4071   -0.0750 C   0  0  0  0  0  0  0  0  0  0  0  0
   -0.5993    0.4071    0.0750 C   0  0  0  0  0  0  0  0  0  0  0  0
   -1.8334   -0.0847    0.1062 C   0  0  0  0  0  0  0  0  0  0  0  0
    2.0179    1.1498   -0.0189 H   0  0  0  0  0  0  0  0  0  0  0  0
    2.6972   -0.5572   -0.2194 H   0  0  0  0  0  0  0  0  0  0  0  0
    0.4465   -1.4793   -0.1649 H   0  0  0  0  0  0  0  0  0  0  0  0
   -0.4465    1.4793    0.1649 H   0  0  0  0  0  0  0  0  0  0  0  0
   -2.0179   -1.1498    0.0189 H   0  0  0  0  0  0  0  0  0  0  0  0
   -2.6972    0.5572    0.2194 H   0  0  0  0  0  0  0  0  0  0  0  0
  1  2  2  3
  1  5  1  0
  1  6  1  0
  2  3  1  0
  2  7  1  0
  3  4  2  3
  3  8  1  0
  4  9  1  0
  4 10  1  0
M  END
>  <reaction>  (1) 
rxn_1664

>  <mol_properties>  (1) 
{"2": {"label": "donator", "atom_type": "Cd"}, "7": {"label": "d_hydrogen", "atom_type": "H0"}}

>  <type>  (1) 
r1h

$$$$

     RDKit          3D

  5  4  0  0  0  0  0  0  0  0999 V2000
    0.0397    0.7134    0.0000 C   0  0  0  0  0  3  0  0  0  0  0  0
    0.0458   -0.5870    0.0000 C   0  0  0  0  0  0  0  0  0  0  0  0
   -0.6871    1.5118    0.0000 H   0  0  0  0  0  0  0  0  0  0  0  0
   -0.8806   -1.1637    0.0000 H   0  0  0  0  0  0  0  0  0  0  0  0
    0.9690   -1.1600    0.0000 H   0  0  0  0  0  0  0  0  0  0  0  0
  1  2  2  3
  1  3  1  0
  2  4  1  0
  2  5  1  0
M  RAD  1   1   2
M  END
>  <reaction>  (2) 
rxn_1664

>  <mol_properties>  (2) 
{"0": {"label": "acceptor", "atom_type": "Cd"}}

>  <type>  (2) 
r2

$$$$

     RDKit          3D

  6  5  0  0  0  0  0  0  0  0999 V2000
    0.6594    0.0438   -0.0050 C   0  0  0  0  0  0  0  0  0  0  0  0
   -0.6594   -0.0438    0.0050 C   0  0  0  0  0  0  0  0  0  0  0  0
    1.1706    0.8681   -0.4881 H   0  0  0  0  0  0  0  0  0  0  0  0
    1.2824   -0.7051    0.4696 H   0  0  0  0  0  0  0  0  0  0  0  0
   -1.2824    0.7051   -0.4696 H   0  0  0  0  0  0  0  0  0  0  0  0
   -1.1706   -0.8681    0.4881 H   0  0  0  0  0  0  0  0  0  0  0  0
  1  2  2  3
  1  3  1  0
  1  4  1  0
  2  5  1  0
  2  6  1  0
M  END
>  <reaction>  (3) 
rxn_1664

>  <mol_properties>  (3) 
{"0": {"label": "acceptor", "atom_type": "Cd"}, "5": {"label": "a_hydrogen", "atom_type": "H0"}}

>  <type>  (3) 
r2h

$$$$

     RDKit          3D

 15 13  0  0  0  0  0  0  0  0999 V2000
   -0.4823    1.7845   -0.5194 C   0  0  0  0  0  3  0  0  0  0  0  0
    0.4947    2.1898   -1.2975 C   0  0  0  0  0  0  0  0  0  0  0  0
   -1.4460    2.2541   -0.3605 H   0  0  0  0  0  0  0  0  0  0  0  0
    0.4202    3.0982   -1.8899 H   0  0  0  0  0  0  0  0  0  0  0  0
    1.4213    1.6297   -1.3774 H   0  0  0  0  0  0  0  0  0  0  0  0
   -0.4565   -1.7412   -1.1983 C   0  0  0  0  0  0  0  0  0  0  0  0
   -0.1067   -1.6763    0.0824 C   0  0  0  0  0  0  0  0  0  0  0  0
    0.0231   -0.4459    0.8352 C   0  0  0  0  0  0  0  0  0  0  0  0
    0.3960   -0.2722    2.0900 C   0  0  0  0  0  0  0  0  0  0  0  0
   -0.6704   -0.8443   -1.7679 H   0  0  0  0  0  0  0  0  0  0  0  0
   -0.5365   -2.6906   -1.7113 H   0  0  0  0  0  0  0  0  0  0  0  0
    0.1051   -2.5944    0.6294 H   0  0  0  0  0  0  0  0  0  0  0  0
   -0.2765    0.6473    0.1682 H   0  0  0  0  0  0  0  0  0  0  0  0
    0.6599   -1.1147    2.7252 H   0  0  0  0  0  0  0  0  0  0  0  0
    0.4548    0.7155    2.5319 H   0  0  0  0  0  0  0  0  0  0  0  0
  1  2  2  3
  1  3  1  0
  2  4  1  0
  2  5  1  0
  6  7  2  3
  6 10  1  0
  6 11  1  0
  7  8  1  0
  7 12  1  0
  8  9  2  3
  8 13  1  0
  9 14  1  0
  9 15  1  0
M  RAD  1   1   2
M  END
>  <reaction>  (4) 
rxn_1664

>  <mol_properties>  (4) 
{"0": {"label": "*3", "atom_type": "Cd"}, "1": {"label": "*4", "atom_type": "Cd"}, "6": {"label": "*0", "atom_type": "Cd"}, "7": {"label": "*1", "atom_type": "Cd"}, "12": {"label": "*2", "atom_type": "H0"}}

>  <type>  (4) 
ts

$$$$

     RDKit          3D

 15 13  0  0  0  0  0  0  0  0999 V2000
    0.1659    1.7445   -0.6115 C   0  0  0  0  0  0  0  0  0  0  0  0
   -0.8086    2.6252   -0.4645 C   0  0  0  0  0  0  0  0  0  0  0  0
    1.2079    2.0417   -0.5951 H   0  0  0  0  0  0  0  0  0  0  0  0
   -0.6048    3.6799   -0.3218 H   0  0  0  0  0  0  0  0  0  0  0  0
   -1.8505    2.3280   -0.4809 H   0  0  0  0  0  0  0  0  0  0  0  0
    0.1659   -1.7275   -1.4696 C   0  0  0  0  0  0  0  0  0  0  0  0
    0.1659   -1.7275   -0.1407 C   0  0  0  0  0  0  0  0  0  0  0  0
    0.1659   -0.5202    0.6746 C   0  0  0  0  0  3  0  0  0  0  0  0
    0.1659   -0.5202    2.0035 C   0  0  0  0  0  0  0  0  0  0  0  0
    0.1659   -0.8009   -2.0330 H   0  0  0  0  0  0  0  0  0  0  0  0
    0.1659   -2.6490   -2.0367 H   0  0  0  0  0  0  0  0  0  0  0  0
    0.1659   -2.6724    0.3959 H   0  0  0  0  0  0  0  0  0  0  0  0
    0.1659    0.6138    0.0307 H   0  0  0  0  0  0  0  0  0  0  0  0
    0.1659   -1.4468    2.5670 H   0  0  0  0  0  0  0  0  0  0  0  0
    0.1659    0.4014    2.5707 H   0  0  0  0  0  0  0  0  0  0  0  0
  1  2  2  3
  1  3  1  0
  1 13  1  0
  2  4  1  0
  2  5  1  0
  6  7  2  3
  6 10  1  0
  6 11  1  0
  7  8  1  0
  7 12  1  0
  8  9  2  3
  9 14  1  0
  9 15  1  0
M  RAD  1   8   2
M  END
>  <reaction>  (5) 
rxn_1664

>  <mol_properties>  (5) 
{"0": {"label": "*3", "atom_type": "Cd"}, "1": {"label": "*4", "atom_type": "Cd"}, "6": {"label": "*0", "atom_type": "Cd"}, "7": {"label": "*1", "atom_type": "Cd"}, "12": {"label": "*2", "atom_type": "H0"}}

>  <type>  (5) 
unop_1

>  <geom_source>  (5) 
Heuristics

$$$$

     RDKit          3D

 15 13  0  0  0  0  0  0  0  0999 V2000
    0.1004    1.8768   -0.3735 C   0  0  0  0  0  0  0  0  0  0  0  0
   -0.4622    1.9984   -1.5633 C   0  0  0  0  0  0  0  0  0  0  0  0
    0.3292    2.7415    0.2382 H   0  0  0  0  0  0  0  0  0  0  0  0
   -0.7174    2.9678   -1.9749 H   0  0  0  0  0  0  0  0  0  0  0  0
   -0.6909    1.1336   -2.1749 H   0  0  0  0  0  0  0  0  0  0  0  0
    0.1004   -1.5952   -1.2316 C   0  0  0  0  0  0  0  0  0  0  0  0
    0.1004   -1.5952    0.0973 C   0  0  0  0  0  0  0  0  0  0  0  0
    0.1004   -0.3879    0.9126 C   0  0  0  0  0  3  0  0  0  0  0  0
    0.1004   -0.3879    2.2415 C   0  0  0  0  0  0  0  0  0  0  0  0
    0.1004   -0.6686   -1.7950 H   0  0  0  0  0  0  0  0  0  0  0  0
    0.1004   -2.5167   -1.7988 H   0  0  0  0  0  0  0  0  0  0  0  0
    0.1004   -2.5401    0.6339 H   0  0  0  0  0  0  0  0  0  0  0  0
    0.1004    0.7461    0.2687 H   0  0  0  0  0  0  0  0  0  0  0  0
    0.1004   -1.3145    2.8049 H   0  0  0  0  0  0  0  0  0  0  0  0
    0.1004    0.5337    2.8087 H   0  0  0  0  0  0  0  0  0  0  0  0
  1  2  2  3
  1  3  1  0
  1 13  1  0
  2  4  1  0
  2  5  1  0
  6  7  2  3
  6 10  1  0
  6 11  1  0
  7  8  1  0
  7 12  1  0
  8  9  2  3
  9 14  1  0
  9 15  1  0
M  RAD  1   8   2
M  END
>  <reaction>  (6) 
rxn_1664

>  <mol_properties>  (6) 
{"0": {"label": "*3", "atom_type": "Cd"}, "1": {"label": "*4", "atom_type": "Cd"}, "6": {"label": "*0", "atom_type": "Cd"}, "7": {"label": "*1", "atom_type": "Cd"}, "12": {"label": "*2", "atom_type": "H0"}}

>  <type>  (6) 
unop_2

>  <geom_source>  (6) 
Heuristics

$$$$

     RDKit          3D

 15 13  0  0  0  0  0  0  0  0999 V2000
    0.0919    1.7102   -0.6699 C   0  0  0  0  0  0  0  0  0  0  0  0
   -0.4708    2.7943   -0.1648 C   0  0  0  0  0  0  0  0  0  0  0  0
    1.0117    1.7605   -1.2405 H   0  0  0  0  0  0  0  0  0  0  0  0
   -0.0349    3.7770   -0.3010 H   0  0  0  0  0  0  0  0  0  0  0  0
   -1.3907    2.7441    0.4057 H   0  0  0  0  0  0  0  0  0  0  0  0
    0.0919   -1.7618   -1.5280 C   0  0  0  0  0  0  0  0  0  0  0  0
    0.0919   -1.7618   -0.1991 C   0  0  0  0  0  0  0  0  0  0  0  0
    0.0919   -0.5544    0.6162 C   0  0  0  0  0  3  0  0  0  0  0  0
    0.0919   -0.5544    1.9450 C   0  0  0  0  0  0  0  0  0  0  0  0
    0.0919   -0.8352   -2.0915 H   0  0  0  0  0  0  0  0  0  0  0  0
    0.0919   -2.6833   -2.0952 H   0  0  0  0  0  0  0  0  0  0  0  0
    0.0919   -2.7067    0.3375 H   0  0  0  0  0  0  0  0  0  0  0  0
    0.0919    0.5795   -0.0278 H   0  0  0  0  0  0  0  0  0  0  0  0
    0.0919   -1.4810    2.5085 H   0  0  0  0  0  0  0  0  0  0  0  0
    0.0919    0.3671    2.5122 H   0  0  0  0  0  0  0  0  0  0  0  0
  1  2  2  3
  1  3  1  0
  1 13  1  0
  2  4  1  0
  2  5  1  0
  6  7  2  3
  6 10  1  0
  6 11  1  0
  7  8  1  0
  7 12  1  0
  8  9  2  3
  9 14  1  0
  9 15  1  0
M  RAD  1   8   2
M  END
>  <reaction>  (7) 
rxn_1664

>  <mol_properties>  (7) 
{"0": {"label": "*3", "atom_type": "Cd"}, "1": {"label": "*4", "atom_type": "Cd"}, "6": {"label": "*0", "atom_type": "Cd"}, "7": {"label": "*1", "atom_type": "Cd"}, "12": {"label": "*2", "atom_type": "H0"}}

>  <type>  (7) 
unop_3

>  <geom_source>  (7) 
Heuristics

$$$$

     RDKit          3D

 15 13  0  0  0  0  0  0  0  0999 V2000
   -0.1724    1.8409   -0.4388 C   0  0  0  0  0  0  0  0  0  0  0  0
    0.8022    2.1659   -1.2704 C   0  0  0  0  0  0  0  0  0  0  0  0
   -0.6991    2.5903    0.1402 H   0  0  0  0  0  0  0  0  0  0  0  0
    1.1136    3.1948   -1.4067 H   0  0  0  0  0  0  0  0  0  0  0  0
    1.3289    1.4165   -1.8494 H   0  0  0  0  0  0  0  0  0  0  0  0
   -0.1724   -1.6311   -1.2969 C   0  0  0  0  0  0  0  0  0  0  0  0
   -0.1724   -1.6311    0.0320 C   0  0  0  0  0  0  0  0  0  0  0  0
   -0.1724   -0.4238    0.8473 C   0  0  0  0  0  3  0  0  0  0  0  0
   -0.1724   -0.4238    2.1761 C   0  0  0  0  0  0  0  0  0  0  0  0
   -0.1724   -0.7045   -1.8604 H   0  0  0  0  0  0  0  0  0  0  0  0
   -0.1724   -2.5526   -1.8641 H   0  0  0  0  0  0  0  0  0  0  0  0
   -0.1724   -2.5760    0.5686 H   0  0  0  0  0  0  0  0  0  0  0  0
   -0.1724    0.7102    0.2033 H   0  0  0  0  0  0  0  0  0  0  0  0
   -0.1724   -1.3504    2.7396 H   0  0  0  0  0  0  0  0  0  0  0  0
   -0.1724    0.4978    2.7433 H   0  0  0  0  0  0  0  0  0  0  0  0
  1  2  2  3
  1  3  1  0
  1 13  1  0
  2  4  1  0
  2  5  1  0
  6  7  2  3
  6 10  1  0
  6 11  1  0
  7  8  1  0
  7 12  1  0
  8  9  2  3
  9 14  1  0
  9 15  1  0
M  RAD  1   8   2
M  END
>  <reaction>  (8) 
rxn_1664

>  <mol_properties>  (8) 
{"0": {"label": "*3", "atom_type": "Cd"}, "1": {"label": "*4", "atom_type": "Cd"}, "6": {"label": "*0", "atom_type": "Cd"}, "7": {"label": "*1", "atom_type": "Cd"}, "12": {"label": "*2", "atom_type": "H0"}}

>  <type>  (8) 
unop_4

>  <geom_source>  (8) 
Heuristics

$$$$

     RDKit          3D

 15 13  0  0  0  0  0  0  0  0999 V2000
   -0.0000    1.6979   -0.6876 C   0  0  0  0  0  0  0  0  0  0  0  0
   -0.0000    2.8564   -0.0514 C   0  0  0  0  0  0  0  0  0  0  0  0
    0.0000    1.6437   -1.7699 H   0  0  0  0  0  0  0  0  0  0  0  0
    0.0000    3.7987   -0.5866 H   0  0  0  0  0  0  0  0  0  0  0  0
   -0.0000    2.9106    1.0308 H   0  0  0  0  0  0  0  0  0  0  0  0
   -0.0000   -1.7741   -1.5457 C   0  0  0  0  0  0  0  0  0  0  0  0
   -0.0000   -1.7741   -0.2168 C   0  0  0  0  0  0  0  0  0  0  0  0
   -0.0000   -0.5668    0.5985 C   0  0  0  0  0  3  0  0  0  0  0  0
   -0.0000   -0.5668    1.9273 C   0  0  0  0  0  0  0  0  0  0  0  0
   -0.0000   -0.8475   -2.1092 H   0  0  0  0  0  0  0  0  0  0  0  0
    0.0000   -2.6957   -2.1129 H   0  0  0  0  0  0  0  0  0  0  0  0
   -0.0000   -2.7191    0.3198 H   0  0  0  0  0  0  0  0  0  0  0  0
   -0.0000    0.5671   -0.0455 H   0  0  0  0  0  0  0  0  0  0  0  0
    0.0000   -1.4934    2.4908 H   0  0  0  0  0  0  0  0  0  0  0  0
    0.0000    0.3547    2.4945 H   0  0  0  0  0  0  0  0  0  0  0  0
  1  2  2  3
  1  3  1  0
  1 13  1  0
  2  4  1  0
  2  5  1  0
  6  7  2  3
  6 10  1  0
  6 11  1  0
  7  8  1  0
  7 12  1  0
  8  9  2  3
  9 14  1  0
  9 15  1  0
M  RAD  1   8   2
M  END
>  <reaction>  (9) 
rxn_1664

>  <mol_properties>  (9) 
{"0": {"label": "*3", "atom_type": "Cd"}, "1": {"label": "*4", "atom_type": "Cd"}, "6": {"label": "*0", "atom_type": "Cd"}, "7": {"label": "*1", "atom_type": "Cd"}, "12": {"label": "*2", "atom_type": "H0"}}

>  <type>  (9) 
unop_5

>  <geom_source>  (9) 
Heuristics

$$$$

     RDKit          3D

 15 13  0  0  0  0  0  0  0  0999 V2000
   -0.1961    1.7923   -0.5264 C   0  0  0  0  0  0  0  0  0  0  0  0
    0.9292    2.3952   -0.8687 C   0  0  0  0  0  0  0  0  0  0  0  0
   -1.0391    2.3453   -0.1292 H   0  0  0  0  0  0  0  0  0  0  0  0
    1.0540    3.4667   -0.7661 H   0  0  0  0  0  0  0  0  0  0  0  0
    1.7722    1.8422   -1.2659 H   0  0  0  0  0  0  0  0  0  0  0  0
   -0.1961   -1.6797   -1.3845 C   0  0  0  0  0  0  0  0  0  0  0  0
   -0.1961   -1.6797   -0.0556 C   0  0  0  0  0  0  0  0  0  0  0  0
   -0.1961   -0.4723    0.7597 C   0  0  0  0  0  3  0  0  0  0  0  0
   -0.1961   -0.4723    2.0886 C   0  0  0  0  0  0  0  0  0  0  0  0
   -0.1961   -0.7531   -1.9479 H   0  0  0  0  0  0  0  0  0  0  0  0
   -0.1961   -2.6012   -1.9517 H   0  0  0  0  0  0  0  0  0  0  0  0
   -0.1961   -2.6246    0.4810 H   0  0  0  0  0  0  0  0  0  0  0  0
   -0.1961    0.6616    0.1158 H   0  0  0  0  0  0  0  0  0  0  0  0
   -0.1961   -1.3989    2.6520 H   0  0  0  0  0  0  0  0  0  0  0  0
   -0.1961    0.4492    2.6558 H   0  0  0  0  0  0  0  0  0  0  0  0
  1  2  2  3
  1  3  1  0
  1 13  1  0
  2  4  1  0
  2  5  1  0
  6  7  2  3
  6 10  1  0
  6 11  1  0
  7  8  1  0
  7 12  1  0
  8  9  2  3
  9 14  1  0
  9 15  1  0
M  RAD  1   8   2
M  END
>  <reaction>  (10) 
rxn_1664

>  <mol_properties>  (10) 
{"0": {"label": "*3", "atom_type": "Cd"}, "1": {"label": "*4", "atom_type": "Cd"}, "6": {"label": "*0", "atom_type": "Cd"}, "7": {"label": "*1", "atom_type": "Cd"}, "12": {"label": "*2", "atom_type": "H0"}}

>  <type>  (10) 
unop_6

>  <geom_source>  (10) 
Heuristics

$$$$

     RDKit          3D

 15 13  0  0  0  0  0  0  0  0999 V2000
   -0.1659    1.7445   -0.6115 C   0  0  0  0  0  0  0  0  0  0  0  0
    0.8086    2.6252   -0.4645 C   0  0  0  0  0  0  0  0  0  0  0  0
   -1.2079    2.0417   -0.5951 H   0  0  0  0  0  0  0  0  0  0  0  0
    0.6048    3.6799   -0.3218 H   0  0  0  0  0  0  0  0  0  0  0  0
    1.8505    2.3280   -0.4809 H   0  0  0  0  0  0  0  0  0  0  0  0
   -0.1659   -1.7275   -1.4696 C   0  0  0  0  0  0  0  0  0  0  0  0
   -0.1659   -1.7275   -0.1407 C   0  0  0  0  0  0  0  0  0  0  0  0
   -0.1659   -0.5202    0.6746 C   0  0  0  0  0  3  0  0  0  0  0  0
   -0.1659   -0.5202    2.0035 C   0  0  0  0  0  0  0  0  0  0  0  0
   -0.1659   -0.8009   -2.0330 H   0  0  0  0  0  0  0  0  0  0  0  0
   -0.1659   -2.6490   -2.0367 H   0  0  0  0  0  0  0  0  0  0  0  0
   -0.1659   -2.6724    0.3959 H   0  0  0  0  0  0  0  0  0  0  0  0
   -0.1659    0.6138    0.0307 H   0  0  0  0  0  0  0  0  0  0  0  0
   -0.1659   -1.4468    2.5670 H   0  0  0  0  0  0  0  0  0  0  0  0
   -0.1659    0.4014    2.5707 H   0  0  0  0  0  0  0  0  0  0  0  0
  1  2  2  3
  1  3  1  0
  1 13  1  0
  2  4  1  0
  2  5  1  0
  6  7  2  3
  6 10  1  0
  6 11  1  0
  7  8  1  0
  7 12  1  0
  8  9  2  3
  9 14  1  0
  9 15  1  0
M  RAD  1   8   2
M  END
>  <reaction>  (11) 
rxn_1664

>  <mol_properties>  (11) 
{"0": {"label": "*3", "atom_type": "Cd"}, "1": {"label": "*4", "atom_type": "Cd"}, "6": {"label": "*0", "atom_type": "Cd"}, "7": {"label": "*1", "atom_type": "Cd"}, "12": {"label": "*2", "atom_type": "H0"}}

>  <type>  (11) 
unop_7

>  <geom_source>  (11) 
Heuristics

$$$$

     RDKit          3D

 15 13  0  0  0  0  0  0  0  0999 V2000
    0.1961    1.7923   -0.5264 C   0  0  0  0  0  0  0  0  0  0  0  0
   -0.9292    2.3952   -0.8687 C   0  0  0  0  0  0  0  0  0  0  0  0
    1.0391    2.3453   -0.1292 H   0  0  0  0  0  0  0  0  0  0  0  0
   -1.0540    3.4667   -0.7661 H   0  0  0  0  0  0  0  0  0  0  0  0
   -1.7722    1.8422   -1.2659 H   0  0  0  0  0  0  0  0  0  0  0  0
    0.1961   -1.6797   -1.3845 C   0  0  0  0  0  0  0  0  0  0  0  0
    0.1961   -1.6797   -0.0556 C   0  0  0  0  0  0  0  0  0  0  0  0
    0.1961   -0.4723    0.7597 C   0  0  0  0  0  3  0  0  0  0  0  0
    0.1961   -0.4723    2.0886 C   0  0  0  0  0  0  0  0  0  0  0  0
    0.1961   -0.7531   -1.9479 H   0  0  0  0  0  0  0  0  0  0  0  0
    0.1961   -2.6012   -1.9517 H   0  0  0  0  0  0  0  0  0  0  0  0
    0.1961   -2.6246    0.4810 H   0  0  0  0  0  0  0  0  0  0  0  0
    0.1961    0.6616    0.1158 H   0  0  0  0  0  0  0  0  0  0  0  0
    0.1961   -1.3989    2.6520 H   0  0  0  0  0  0  0  0  0  0  0  0
    0.1961    0.4492    2.6558 H   0  0  0  0  0  0  0  0  0  0  0  0
  1  2  2  3
  1  3  1  0
  1 13  1  0
  2  4  1  0
  2  5  1  0
  6  7  2  3
  6 10  1  0
  6 11  1  0
  7  8  1  0
  7 12  1  0
  8  9  2  3
  9 14  1  0
  9 15  1  0
M  RAD  1   8   2
M  END
>  <reaction>  (12) 
rxn_1664

>  <mol_properties>  (12) 
{"0": {"label": "*3", "atom_type": "Cd"}, "1": {"label": "*4", "atom_type": "Cd"}, "6": {"label": "*0", "atom_type": "Cd"}, "7": {"label": "*1", "atom_type": "Cd"}, "12": {"label": "*2", "atom_type": "H0"}}

>  <type>  (12) 
unop_8

>  <geom_source>  (12) 
Heuristics

$$$$

     RDKit          3D

 15 13  0  0  0  0  0  0  0  0999 V2000
   -0.1004    1.8768   -0.3735 C   0  0  0  0  0  0  0  0  0  0  0  0
    0.4622    1.9984   -1.5633 C   0  0  0  0  0  0  0  0  0  0  0  0
   -0.3292    2.7415    0.2382 H   0  0  0  0  0  0  0  0  0  0  0  0
    0.7174    2.9678   -1.9749 H   0  0  0  0  0  0  0  0  0  0  0  0
    0.6909    1.1336   -2.1749 H   0  0  0  0  0  0  0  0  0  0  0  0
   -0.1004   -1.5952   -1.2316 C   0  0  0  0  0  0  0  0  0  0  0  0
   -0.1004   -1.5952    0.0973 C   0  0  0  0  0  0  0  0  0  0  0  0
   -0.1004   -0.3879    0.9126 C   0  0  0  0  0  3  0  0  0  0  0  0
   -0.1004   -0.3879    2.2415 C   0  0  0  0  0  0  0  0  0  0  0  0
   -0.1004   -0.6686   -1.7950 H   0  0  0  0  0  0  0  0  0  0  0  0
   -0.1004   -2.5167   -1.7988 H   0  0  0  0  0  0  0  0  0  0  0  0
   -0.1004   -2.5401    0.6339 H   0  0  0  0  0  0  0  0  0  0  0  0
   -0.1004    0.7461    0.2687 H   0  0  0  0  0  0  0  0  0  0  0  0
   -0.1004   -1.3145    2.8049 H   0  0  0  0  0  0  0  0  0  0  0  0
   -0.1004    0.5337    2.8087 H   0  0  0  0  0  0  0  0  0  0  0  0
  1  2  2  3
  1  3  1  0
  1 13  1  0
  2  4  1  0
  2  5  1  0
  6  7  2  3
  6 10  1  0
  6 11  1  0
  7  8  1  0
  7 12  1  0
  8  9  2  3
  9 14  1  0
  9 15  1  0
M  RAD  1   8   2
M  END
>  <reaction>  (13) 
rxn_1664

>  <mol_properties>  (13) 
{"0": {"label": "*3", "atom_type": "Cd"}, "1": {"label": "*4", "atom_type": "Cd"}, "6": {"label": "*0", "atom_type": "Cd"}, "7": {"label": "*1", "atom_type": "Cd"}, "12": {"label": "*2", "atom_type": "H0"}}

>  <type>  (13) 
unop_9

>  <geom_source>  (13) 
Heuristics

$$$$

     RDKit          3D

 15 13  0  0  0  0  0  0  0  0999 V2000
    0.1724    1.8409   -0.4388 C   0  0  0  0  0  0  0  0  0  0  0  0
   -0.8022    2.1659   -1.2704 C   0  0  0  0  0  0  0  0  0  0  0  0
    0.6991    2.5903    0.1402 H   0  0  0  0  0  0  0  0  0  0  0  0
   -1.1136    3.1948   -1.4067 H   0  0  0  0  0  0  0  0  0  0  0  0
   -1.3289    1.4165   -1.8494 H   0  0  0  0  0  0  0  0  0  0  0  0
    0.1724   -1.6311   -1.2969 C   0  0  0  0  0  0  0  0  0  0  0  0
    0.1724   -1.6311    0.0320 C   0  0  0  0  0  0  0  0  0  0  0  0
    0.1724   -0.4238    0.8473 C   0  0  0  0  0  3  0  0  0  0  0  0
    0.1724   -0.4238    2.1761 C   0  0  0  0  0  0  0  0  0  0  0  0
    0.1724   -0.7045   -1.8604 H   0  0  0  0  0  0  0  0  0  0  0  0
    0.1724   -2.5526   -1.8641 H   0  0  0  0  0  0  0  0  0  0  0  0
    0.1724   -2.5760    0.5686 H   0  0  0  0  0  0  0  0  0  0  0  0
    0.1724    0.7102    0.2033 H   0  0  0  0  0  0  0  0  0  0  0  0
    0.1724   -1.3504    2.7396 H   0  0  0  0  0  0  0  0  0  0  0  0
    0.1724    0.4978    2.7433 H   0  0  0  0  0  0  0  0  0  0  0  0
  1  2  2  3
  1  3  1  0
  1 13  1  0
  2  4  1  0
  2  5  1  0
  6  7  2  3
  6 10  1  0
  6 11  1  0
  7  8  1  0
  7 12  1  0
  8  9  2  3
  9 14  1  0
  9 15  1  0
M  RAD  1   8   2
M  END
>  <reaction>  (14) 
rxn_1664

>  <mol_properties>  (14) 
{"0": {"label": "*3", "atom_type": "Cd"}, "1": {"label": "*4", "atom_type": "Cd"}, "6": {"label": "*0", "atom_type": "Cd"}, "7": {"label": "*1", "atom_type": "Cd"}, "12": {"label": "*2", "atom_type": "H0"}}

>  <type>  (14) 
unop_10

>  <geom_source>  (14) 
Heuristics

$$$$

     RDKit          3D

 15 13  0  0  0  0  0  0  0  0999 V2000
   -0.0919    1.7102   -0.6699 C   0  0  0  0  0  0  0  0  0  0  0  0
    0.4708    2.7943   -0.1648 C   0  0  0  0  0  0  0  0  0  0  0  0
   -1.0117    1.7605   -1.2405 H   0  0  0  0  0  0  0  0  0  0  0  0
    0.0349    3.7770   -0.3010 H   0  0  0  0  0  0  0  0  0  0  0  0
    1.3907    2.7441    0.4057 H   0  0  0  0  0  0  0  0  0  0  0  0
   -0.0919   -1.7618   -1.5280 C   0  0  0  0  0  0  0  0  0  0  0  0
   -0.0919   -1.7618   -0.1991 C   0  0  0  0  0  0  0  0  0  0  0  0
   -0.0919   -0.5544    0.6162 C   0  0  0  0  0  3  0  0  0  0  0  0
   -0.0919   -0.5544    1.9450 C   0  0  0  0  0  0  0  0  0  0  0  0
   -0.0919   -0.8352   -2.0915 H   0  0  0  0  0  0  0  0  0  0  0  0
   -0.0919   -2.6833   -2.0952 H   0  0  0  0  0  0  0  0  0  0  0  0
   -0.0919   -2.7067    0.3375 H   0  0  0  0  0  0  0  0  0  0  0  0
   -0.0919    0.5795   -0.0278 H   0  0  0  0  0  0  0  0  0  0  0  0
   -0.0919   -1.4810    2.5085 H   0  0  0  0  0  0  0  0  0  0  0  0
   -0.0919    0.3671    2.5122 H   0  0  0  0  0  0  0  0  0  0  0  0
  1  2  2  3
  1  3  1  0
  1 13  1  0
  2  4  1  0
  2  5  1  0
  6  7  2  3
  6 10  1  0
  6 11  1  0
  7  8  1  0
  7 12  1  0
  8  9  2  3
  9 14  1  0
  9 15  1  0
M  RAD  1   8   2
M  END
>  <reaction>  (15) 
rxn_1664

>  <mol_properties>  (15) 
{"0": {"label": "*3", "atom_type": "Cd"}, "1": {"label": "*4", "atom_type": "Cd"}, "6": {"label": "*0", "atom_type": "Cd"}, "7": {"label": "*1", "atom_type": "Cd"}, "12": {"label": "*2", "atom_type": "H0"}}

>  <type>  (15) 
unop_11

>  <geom_source>  (15) 
Heuristics

$$$$

     RDKit          3D

 15 13  0  0  0  0  0  0  0  0999 V2000
   -0.0000    1.8900   -0.3493 C   0  0  0  0  0  0  0  0  0  0  0  0
   -0.0000    1.9372   -1.6702 C   0  0  0  0  0  0  0  0  0  0  0  0
   -0.0000    2.7917    0.2517 H   0  0  0  0  0  0  0  0  0  0  0  0
   -0.0000    2.8794   -2.2053 H   0  0  0  0  0  0  0  0  0  0  0  0
    0.0000    1.0354   -2.2711 H   0  0  0  0  0  0  0  0  0  0  0  0
   -0.0000   -1.5820   -1.2074 C   0  0  0  0  0  0  0  0  0  0  0  0
   -0.0000   -1.5820    0.1215 C   0  0  0  0  0  0  0  0  0  0  0  0
   -0.0000   -0.3747    0.9368 C   0  0  0  0  0  3  0  0  0  0  0  0
   -0.0000   -0.3747    2.2657 C   0  0  0  0  0  0  0  0  0  0  0  0
   -0.0000   -0.6554   -1.7708 H   0  0  0  0  0  0  0  0  0  0  0  0
    0.0000   -2.5035   -1.7746 H   0  0  0  0  0  0  0  0  0  0  0  0
   -0.0000   -2.5269    0.6581 H   0  0  0  0  0  0  0  0  0  0  0  0
   -0.0000    0.7593    0.2929 H   0  0  0  0  0  0  0  0  0  0  0  0
    0.0000   -1.3013    2.8291 H   0  0  0  0  0  0  0  0  0  0  0  0
    0.0000    0.5469    2.8329 H   0  0  0  0  0  0  0  0  0  0  0  0
  1  2  2  3
  1  3  1  0
  1 13  1  0
  2  4  1  0
  2  5  1  0
  6  7  2  3
  6 10  1  0
  6 11  1  0
  7  8  1  0
  7 12  1  0
  8  9  2  3
  9 14  1  0
  9 15  1  0
M  RAD  1   8   2
M  END
>  <reaction>  (16) 
rxn_1664

>  <mol_properties>  (16) 
{"0": {"label": "*3", "atom_type": "Cd"}, "1": {"label": "*4", "atom_type": "Cd"}, "6": {"label": "*0", "atom_type": "Cd"}, "7": {"label": "*1", "atom_type": "Cd"}, "12": {"label": "*2", "atom_type": "H0"}}

>  <type>  (16) 
unop_12

>  <geom_source>  (16) 
Heuristics

$$$$

     RDKit          3D

 15 13  0  0  0  0  0  0  0  0999 V2000
    1.4762   -0.3289    0.6616 C   0  0  0  0  0  0  0  0  0  0  0  0
    2.7219    0.1478    0.6623 C   0  0  0  0  0  0  0  0  0  0  0  0
   -2.8213   -0.1746    0.2413 C   0  0  0  0  0  0  0  0  0  0  0  0
   -1.8744   -1.0538   -0.0752 C   0  0  0  0  0  0  0  0  0  0  0  0
    0.5014    1.0993   -1.1501 C   0  0  0  0  0  0  0  0  0  0  0  0
    0.3956    0.1427   -0.2291 C   0  0  0  0  0  3  0  0  0  0  0  0
    1.2295   -1.1181    1.3600 H   0  0  0  0  0  0  0  0  0  0  0  0
   -2.6262    0.8888    0.1537 H   0  0  0  0  0  0  0  0  0  0  0  0
   -3.7914   -0.5155    0.5879 H   0  0  0  0  0  0  0  0  0  0  0  0
   -2.0650   -2.1186    0.0109 H   0  0  0  0  0  0  0  0  0  0  0  0
   -0.6963   -0.6336   -0.4963 H   0  0  0  0  0  0  0  0  0  0  0  0
    3.4491   -0.2600    1.3525 H   0  0  0  0  0  0  0  0  0  0  0  0
    3.0447    0.9341   -0.0039 H   0  0  0  0  0  0  0  0  0  0  0  0
   -0.3657    1.3564   -1.7428 H   0  0  0  0  0  0  0  0  0  0  0  0
    1.4219    1.6338   -1.3328 H   0  0  0  0  0  0  0  0  0  0  0  0
  1  2  2  3
  1  6  1  0
  1  7  1  0
  2 12  1  0
  2 13  1  0
  3  4  2  3
  3  8  1  0
  3  9  1  0
  4 10  1  0
  4 11  1  0
  5  6  2  3
  5 14  1  0
  5 15  1  0
M  RAD  1   6   2
M  END
>  <reaction>  (17) 
rxn_1664

>  <mol_properties>  (17) 
{"0": {"label": "*3", "atom_type": "Cd"}, "1": {"label": "*4", "atom_type": "Cd"}, "6": {"label": "*0", "atom_type": "Cd"}, "7": {"label": "*1", "atom_type": "Cd"}, "12": {"label": "*2", "atom_type": "H0"}}

>  <type>  (17) 
unop_13

>  <geom_source>  (17) 
AutoTST

$$$$
