
     RDKit          3D

  6  5  0  0  0  0  0  0  0  0999 V2000
    0.6594    0.0438   -0.0050 C   0  0  0  0  0  0  0  0  0  0  0  0
   -0.6594   -0.0438    0.0050 C   0  0  0  0  0  0  0  0  0  0  0  0
    1.1706    0.8681   -0.4881 H   0  0  0  0  0  0  0  0  0  0  0  0
    1.2824   -0.7051    0.4696 H   0  0  0  0  0  0  0  0  0  0  0  0
   -1.2824    0.7051   -0.4696 H   0  0  0  0  0  0  0  0  0  0  0  0
   -1.1706   -0.8681    0.4881 H   0  0  0  0  0  0  0  0  0  0  0  0
  1  2  2  3
  1  3  1  0
  1  4  1  0
  2  5  1  0
  2  6  1  0
M  END
>  <reaction>  (1) 
rxn_1605

>  <mol_properties>  (1) 
{"1": {"label": "donator", "atom_type": "Cd"}, "4": {"label": "d_hydrogen", "atom_type": "H0"}}

>  <type>  (1) 
r1h

$$$$

     RDKit          3D

  4  3  0  0  0  0  0  0  0  0999 V2000
   -0.7528   -0.8706   -0.3839 S   0  0  0  0  0  0  0  0  0  0  0  0
    0.7502   -0.2564   -0.0649 C   0  0  0  0  0  3  0  0  0  0  0  0
    1.5655    0.9691    0.4633 S   0  0  0  0  0  0  0  0  0  0  0  0
   -1.5629    0.1579   -0.0146 H   0  0  0  0  0  0  0  0  0  0  0  0
  1  2  1  0
  1  4  1  0
  2  3  2  0
M  RAD  1   2   2
M  END
>  <reaction>  (2) 
rxn_1605

>  <mol_properties>  (2) 
{"1": {"label": "acceptor", "atom_type": "CS"}}

>  <type>  (2) 
r2

$$$$

     RDKit          3D

  5  4  0  0  0  0  0  0  0  0999 V2000
    1.2280   -0.4626    0.1225 S   0  0  0  0  0  0  0  0  0  0  0  0
   -0.4732   -0.2566   -0.0746 C   0  0  0  0  0  0  0  0  0  0  0  0
   -1.3314    1.1074   -0.0947 S   0  0  0  0  0  0  0  0  0  0  0  0
    1.5289    0.8405    0.2416 H   0  0  0  0  0  0  0  0  0  0  0  0
   -0.9523   -1.2286   -0.1949 H   0  0  0  0  0  0  0  0  0  0  0  0
  1  2  1  0
  1  4  1  0
  2  3  2  0
  2  5  1  0
M  END
>  <reaction>  (3) 
rxn_1605

>  <mol_properties>  (3) 
{"1": {"label": "acceptor", "atom_type": "CS"}, "4": {"label": "a_hydrogen", "atom_type": "H0"}}

>  <type>  (3) 
r2h

$$$$

     RDKit          3D

 10  8  0  0  0  0  0  0  0  0999 V2000
   -1.2252    0.2691    1.4408 S   0  0  0  0  0  0  0  0  0  0  0  0
   -0.1513    0.2858    0.1086 C   0  0  0  0  0  0  0  0  0  0  0  0
    0.9037    1.3751   -0.3981 S   0  0  0  0  0  0  0  0  0  0  0  0
   -0.9140    1.4739    1.9518 H   0  0  0  0  0  0  0  0  0  0  0  0
    0.5485   -1.8499   -2.3646 C   0  0  0  0  0  0  0  0  0  0  0  0
   -0.3067   -1.9682   -1.3821 C   0  0  0  0  0  3  0  0  0  0  0  0
    1.1638   -0.9590   -2.4691 H   0  0  0  0  0  0  0  0  0  0  0  0
    0.6807   -2.6292   -3.1128 H   0  0  0  0  0  0  0  0  0  0  0  0
   -0.2932   -0.7862   -0.5152 H   0  0  0  0  0  0  0  0  0  0  0  0
   -0.9907   -2.7665   -1.1224 H   0  0  0  0  0  0  0  0  0  0  0  0
  1  2  1  0
  1  4  1  0
  2  3  2  0
  2  9  1  0
  5  6  2  3
  5  7  1  0
  5  8  1  0
  6 10  1  0
M  RAD  1   6   2
M  END
>  <reaction>  (4) 
rxn_1605

>  <mol_properties>  (4) 
{"0": {"label": "*0", "atom_type": "S2s"}, "1": {"label": "*1", "atom_type": "CS"}, "4": {"label": "*4", "atom_type": "Cd"}, "5": {"label": "*3", "atom_type": "Cd"}, "8": {"label": "*2", "atom_type": "H0"}}

>  <type>  (4) 
ts

$$$$

     RDKit          3D

 10  8  0  0  0  0  0  0  0  0999 V2000
   -1.4282    0.4957    1.1116 S   0  0  0  0  0  0  0  0  0  0  0  0
   -0.0232    0.4225    0.1138 C   0  0  0  0  0  3  0  0  0  0  0  0
    1.4834    0.8841    0.4526 S   0  0  0  0  0  0  0  0  0  0  0  0
   -0.8288    1.0385    2.1834 H   0  0  0  0  0  0  0  0  0  0  0  0
   -0.0232   -1.7985   -2.5763 C   0  0  0  0  0  0  0  0  0  0  0  0
   -0.0232   -1.7985   -1.2546 C   0  0  0  0  0  0  0  0  0  0  0  0
   -0.0232   -0.8759   -3.1447 H   0  0  0  0  0  0  0  0  0  0  0  0
   -0.0232   -2.7211   -3.1447 H   0  0  0  0  0  0  0  0  0  0  0  0
   -0.0232   -0.6914   -0.5725 H   0  0  0  0  0  0  0  0  0  0  0  0
   -0.0232   -2.7211   -0.6862 H   0  0  0  0  0  0  0  0  0  0  0  0
  1  2  1  0
  1  4  1  0
  2  3  2  0
  5  6  2  3
  5  7  1  0
  5  8  1  0
  6  9  1  0
  6 10  1  0
M  RAD  1   2   2
M  END
>  <reaction>  (5) 
rxn_1605

>  <mol_properties>  (5) 
{"0": {"label": "*0", "atom_type": "S2s"}, "1": {"label": "*1", "atom_type": "CS"}, "4": {"label": "*4", "atom_type": "Cd"}, "5": {"label": "*3", "atom_type": "Cd"}, "8": {"label": "*2", "atom_type": "H0"}}

>  <type>  (5) 
unop_1

>  <geom_source>  (5) 
Heuristics

$$$$

     RDKit          3D

 10  8  0  0  0  0  0  0  0  0999 V2000
   -0.6577    1.4480   -0.5585 S   0  0  0  0  0  0  0  0  0  0  0  0
    0.1535    0.2124    0.3305 C   0  0  0  0  0  3  0  0  0  0  0  0
    0.4931    0.1560    1.9050 S   0  0  0  0  0  0  0  0  0  0  0  0
   -0.8752    2.2693    0.4812 H   0  0  0  0  0  0  0  0  0  0  0  0
    0.1535   -2.0087   -2.3595 C   0  0  0  0  0  0  0  0  0  0  0  0
    0.1535   -2.0087   -1.0378 C   0  0  0  0  0  0  0  0  0  0  0  0
    0.1535   -1.0861   -2.9279 H   0  0  0  0  0  0  0  0  0  0  0  0
    0.1535   -2.9313   -2.9279 H   0  0  0  0  0  0  0  0  0  0  0  0
    0.1535   -0.9016   -0.3558 H   0  0  0  0  0  0  0  0  0  0  0  0
    0.1535   -2.9313   -0.4694 H   0  0  0  0  0  0  0  0  0  0  0  0
  1  2  1  0
  1  4  1  0
  2  3  2  0
  5  6  2  3
  5  7  1  0
  5  8  1  0
  6  9  1  0
  6 10  1  0
M  RAD  1   2   2
M  END
>  <reaction>  (6) 
rxn_1605

>  <mol_properties>  (6) 
{"0": {"label": "*0", "atom_type": "S2s"}, "1": {"label": "*1", "atom_type": "CS"}, "4": {"label": "*4", "atom_type": "Cd"}, "5": {"label": "*3", "atom_type": "Cd"}, "8": {"label": "*2", "atom_type": "H0"}}

>  <type>  (6) 
unop_2

>  <geom_source>  (6) 
Heuristics

$$$$

     RDKit          3D

 10  8  0  0  0  0  0  0  0  0999 V2000
   -0.9208    0.1015    1.6753 S   0  0  0  0  0  0  0  0  0  0  0  0
   -0.1096    0.3398    0.1718 C   0  0  0  0  0  3  0  0  0  0  0  0
    1.0658    1.3817   -0.1894 S   0  0  0  0  0  0  0  0  0  0  0  0
   -0.2498    1.0391    2.3635 H   0  0  0  0  0  0  0  0  0  0  0  0
   -0.1096   -1.8812   -2.5183 C   0  0  0  0  0  0  0  0  0  0  0  0
   -0.1096   -1.8812   -1.1965 C   0  0  0  0  0  0  0  0  0  0  0  0
   -0.1096   -0.9586   -3.0866 H   0  0  0  0  0  0  0  0  0  0  0  0
   -0.1096   -2.8038   -3.0866 H   0  0  0  0  0  0  0  0  0  0  0  0
   -0.1096   -0.7741   -0.5145 H   0  0  0  0  0  0  0  0  0  0  0  0
   -0.1096   -2.8038   -0.6281 H   0  0  0  0  0  0  0  0  0  0  0  0
  1  2  1  0
  1  4  1  0
  2  3  2  0
  5  6  2  3
  5  7  1  0
  5  8  1  0
  6  9  1  0
  6 10  1  0
M  RAD  1   2   2
M  END
>  <reaction>  (7) 
rxn_1605

>  <mol_properties>  (7) 
{"0": {"label": "*0", "atom_type": "S2s"}, "1": {"label": "*1", "atom_type": "CS"}, "4": {"label": "*4", "atom_type": "Cd"}, "5": {"label": "*3", "atom_type": "Cd"}, "8": {"label": "*2", "atom_type": "H0"}}

>  <type>  (7) 
unop_3

>  <geom_source>  (7) 
Heuristics

$$$$

     RDKit          3D

 10  8  0  0  0  0  0  0  0  0999 V2000
    1.2083    1.2447   -0.1578 S   0  0  0  0  0  0  0  0  0  0  0  0
   -0.1967    0.3205    0.2256 C   0  0  0  0  0  3  0  0  0  0  0  0
   -1.0046    0.2383    1.6178 S   0  0  0  0  0  0  0  0  0  0  0  0
    1.3515    1.8163    1.0486 H   0  0  0  0  0  0  0  0  0  0  0  0
   -0.1967   -1.9005   -2.4645 C   0  0  0  0  0  0  0  0  0  0  0  0
   -0.1967   -1.9005   -1.1427 C   0  0  0  0  0  0  0  0  0  0  0  0
   -0.1967   -0.9780   -3.0328 H   0  0  0  0  0  0  0  0  0  0  0  0
   -0.1967   -2.8231   -3.0328 H   0  0  0  0  0  0  0  0  0  0  0  0
   -0.1967   -0.7934   -0.4607 H   0  0  0  0  0  0  0  0  0  0  0  0
   -0.1967   -2.8231   -0.5743 H   0  0  0  0  0  0  0  0  0  0  0  0
  1  2  1  0
  1  4  1  0
  2  3  2  0
  5  6  2  3
  5  7  1  0
  5  8  1  0
  6  9  1  0
  6 10  1  0
M  RAD  1   2   2
M  END
>  <reaction>  (8) 
rxn_1605

>  <mol_properties>  (8) 
{"0": {"label": "*0", "atom_type": "S2s"}, "1": {"label": "*1", "atom_type": "CS"}, "4": {"label": "*4", "atom_type": "Cd"}, "5": {"label": "*3", "atom_type": "Cd"}, "8": {"label": "*2", "atom_type": "H0"}}

>  <type>  (8) 
unop_4

>  <geom_source>  (8) 
Heuristics

$$$$

     RDKit          3D

 10  8  0  0  0  0  0  0  0  0999 V2000
   -0.0000   -0.0996    1.9183 S   0  0  0  0  0  0  0  0  0  0  0  0
   -0.0000    0.2527    0.2297 C   0  0  0  0  0  3  0  0  0  0  0  0
    0.0000    1.6876   -0.5042 S   0  0  0  0  0  0  0  0  0  0  0  0
    0.0000    1.1744    2.3422 H   0  0  0  0  0  0  0  0  0  0  0  0
   -0.0000   -1.9683   -2.4603 C   0  0  0  0  0  0  0  0  0  0  0  0
   -0.0000   -1.9683   -1.1386 C   0  0  0  0  0  0  0  0  0  0  0  0
    0.0000   -1.0457   -3.0287 H   0  0  0  0  0  0  0  0  0  0  0  0
   -0.0000   -2.8909   -3.0287 H   0  0  0  0  0  0  0  0  0  0  0  0
   -0.0000   -0.8612   -0.4565 H   0  0  0  0  0  0  0  0  0  0  0  0
   -0.0000   -2.8909   -0.5702 H   0  0  0  0  0  0  0  0  0  0  0  0
  1  2  1  0
  1  4  1  0
  2  3  2  0
  5  6  2  3
  5  7  1  0
  5  8  1  0
  6  9  1  0
  6 10  1  0
M  RAD  1   2   2
M  END
>  <reaction>  (9) 
rxn_1605

>  <mol_properties>  (9) 
{"0": {"label": "*0", "atom_type": "S2s"}, "1": {"label": "*1", "atom_type": "CS"}, "4": {"label": "*4", "atom_type": "Cd"}, "5": {"label": "*3", "atom_type": "Cd"}, "8": {"label": "*2", "atom_type": "H0"}}

>  <type>  (9) 
unop_5

>  <geom_source>  (9) 
Heuristics

$$$$

     RDKit          3D

 10  8  0  0  0  0  0  0  0  0999 V2000
    1.5052    0.9071    0.4428 S   0  0  0  0  0  0  0  0  0  0  0  0
   -0.1172    0.4084    0.1356 C   0  0  0  0  0  3  0  0  0  0  0  0
   -1.3993    0.4807    1.1095 S   0  0  0  0  0  0  0  0  0  0  0  0
    1.2993    1.3396    1.6971 H   0  0  0  0  0  0  0  0  0  0  0  0
   -0.1172   -1.8126   -2.5545 C   0  0  0  0  0  0  0  0  0  0  0  0
   -0.1172   -1.8126   -1.2328 C   0  0  0  0  0  0  0  0  0  0  0  0
   -0.1172   -0.8900   -3.1229 H   0  0  0  0  0  0  0  0  0  0  0  0
   -0.1172   -2.7352   -3.1229 H   0  0  0  0  0  0  0  0  0  0  0  0
   -0.1172   -0.7055   -0.5507 H   0  0  0  0  0  0  0  0  0  0  0  0
   -0.1172   -2.7352   -0.6644 H   0  0  0  0  0  0  0  0  0  0  0  0
  1  2  1  0
  1  4  1  0
  2  3  2  0
  5  6  2  3
  5  7  1  0
  5  8  1  0
  6  9  1  0
  6 10  1  0
M  RAD  1   2   2
M  END
>  <reaction>  (10) 
rxn_1605

>  <mol_properties>  (10) 
{"0": {"label": "*0", "atom_type": "S2s"}, "1": {"label": "*1", "atom_type": "CS"}, "4": {"label": "*4", "atom_type": "Cd"}, "5": {"label": "*3", "atom_type": "Cd"}, "8": {"label": "*2", "atom_type": "H0"}}

>  <type>  (10) 
unop_6

>  <geom_source>  (10) 
Heuristics

$$$$

     RDKit          3D

 10  8  0  0  0  0  0  0  0  0999 V2000
    1.4282    0.4957    1.1116 S   0  0  0  0  0  0  0  0  0  0  0  0
    0.0232    0.4225    0.1138 C   0  0  0  0  0  3  0  0  0  0  0  0
   -1.4834    0.8841    0.4526 S   0  0  0  0  0  0  0  0  0  0  0  0
    0.8288    1.0385    2.1834 H   0  0  0  0  0  0  0  0  0  0  0  0
    0.0232   -1.7985   -2.5763 C   0  0  0  0  0  0  0  0  0  0  0  0
    0.0232   -1.7985   -1.2546 C   0  0  0  0  0  0  0  0  0  0  0  0
    0.0232   -0.8759   -3.1447 H   0  0  0  0  0  0  0  0  0  0  0  0
    0.0232   -2.7211   -3.1447 H   0  0  0  0  0  0  0  0  0  0  0  0
    0.0232   -0.6914   -0.5725 H   0  0  0  0  0  0  0  0  0  0  0  0
    0.0232   -2.7211   -0.6862 H   0  0  0  0  0  0  0  0  0  0  0  0
  1  2  1  0
  1  4  1  0
  2  3  2  0
  5  6  2  3
  5  7  1  0
  5  8  1  0
  6  9  1  0
  6 10  1  0
M  RAD  1   2   2
M  END
>  <reaction>  (11) 
rxn_1605

>  <mol_properties>  (11) 
{"0": {"label": "*0", "atom_type": "S2s"}, "1": {"label": "*1", "atom_type": "CS"}, "4": {"label": "*4", "atom_type": "Cd"}, "5": {"label": "*3", "atom_type": "Cd"}, "8": {"label": "*2", "atom_type": "H0"}}

>  <type>  (11) 
unop_7

>  <geom_source>  (11) 
Heuristics

$$$$

     RDKit          3D

 10  8  0  0  0  0  0  0  0  0999 V2000
   -1.5052    0.9071    0.4428 S   0  0  0  0  0  0  0  0  0  0  0  0
    0.1172    0.4084    0.1356 C   0  0  0  0  0  3  0  0  0  0  0  0
    1.3993    0.4807    1.1095 S   0  0  0  0  0  0  0  0  0  0  0  0
   -1.2993    1.3396    1.6971 H   0  0  0  0  0  0  0  0  0  0  0  0
    0.1172   -1.8126   -2.5545 C   0  0  0  0  0  0  0  0  0  0  0  0
    0.1172   -1.8126   -1.2328 C   0  0  0  0  0  0  0  0  0  0  0  0
    0.1172   -0.8900   -3.1229 H   0  0  0  0  0  0  0  0  0  0  0  0
    0.1172   -2.7352   -3.1229 H   0  0  0  0  0  0  0  0  0  0  0  0
    0.1172   -0.7055   -0.5507 H   0  0  0  0  0  0  0  0  0  0  0  0
    0.1172   -2.7352   -0.6644 H   0  0  0  0  0  0  0  0  0  0  0  0
  1  2  1  0
  1  4  1  0
  2  3  2  0
  5  6  2  3
  5  7  1  0
  5  8  1  0
  6  9  1  0
  6 10  1  0
M  RAD  1   2   2
M  END
>  <reaction>  (12) 
rxn_1605

>  <mol_properties>  (12) 
{"0": {"label": "*0", "atom_type": "S2s"}, "1": {"label": "*1", "atom_type": "CS"}, "4": {"label": "*4", "atom_type": "Cd"}, "5": {"label": "*3", "atom_type": "Cd"}, "8": {"label": "*2", "atom_type": "H0"}}

>  <type>  (12) 
unop_8

>  <geom_source>  (12) 
Heuristics

$$$$

     RDKit          3D

 10  8  0  0  0  0  0  0  0  0999 V2000
    0.6577    1.4480   -0.5585 S   0  0  0  0  0  0  0  0  0  0  0  0
   -0.1535    0.2124    0.3305 C   0  0  0  0  0  3  0  0  0  0  0  0
   -0.4931    0.1560    1.9050 S   0  0  0  0  0  0  0  0  0  0  0  0
    0.8752    2.2693    0.4812 H   0  0  0  0  0  0  0  0  0  0  0  0
   -0.1535   -2.0087   -2.3595 C   0  0  0  0  0  0  0  0  0  0  0  0
   -0.1535   -2.0087   -1.0378 C   0  0  0  0  0  0  0  0  0  0  0  0
   -0.1535   -1.0861   -2.9279 H   0  0  0  0  0  0  0  0  0  0  0  0
   -0.1535   -2.9313   -2.9279 H   0  0  0  0  0  0  0  0  0  0  0  0
   -0.1535   -0.9016   -0.3558 H   0  0  0  0  0  0  0  0  0  0  0  0
   -0.1535   -2.9313   -0.4694 H   0  0  0  0  0  0  0  0  0  0  0  0
  1  2  1  0
  1  4  1  0
  2  3  2  0
  5  6  2  3
  5  7  1  0
  5  8  1  0
  6  9  1  0
  6 10  1  0
M  RAD  1   2   2
M  END
>  <reaction>  (13) 
rxn_1605

>  <mol_properties>  (13) 
{"0": {"label": "*0", "atom_type": "S2s"}, "1": {"label": "*1", "atom_type": "CS"}, "4": {"label": "*4", "atom_type": "Cd"}, "5": {"label": "*3", "atom_type": "Cd"}, "8": {"label": "*2", "atom_type": "H0"}}

>  <type>  (13) 
unop_9

>  <geom_source>  (13) 
Heuristics

$$$$

     RDKit          3D

 10  8  0  0  0  0  0  0  0  0999 V2000
   -1.2083    1.2447   -0.1578 S   0  0  0  0  0  0  0  0  0  0  0  0
    0.1967    0.3205    0.2256 C   0  0  0  0  0  3  0  0  0  0  0  0
    1.0046    0.2383    1.6178 S   0  0  0  0  0  0  0  0  0  0  0  0
   -1.3515    1.8163    1.0486 H   0  0  0  0  0  0  0  0  0  0  0  0
    0.1967   -1.9005   -2.4645 C   0  0  0  0  0  0  0  0  0  0  0  0
    0.1967   -1.9005   -1.1427 C   0  0  0  0  0  0  0  0  0  0  0  0
    0.1967   -0.9780   -3.0328 H   0  0  0  0  0  0  0  0  0  0  0  0
    0.1967   -2.8231   -3.0328 H   0  0  0  0  0  0  0  0  0  0  0  0
    0.1967   -0.7934   -0.4607 H   0  0  0  0  0  0  0  0  0  0  0  0
    0.1967   -2.8231   -0.5743 H   0  0  0  0  0  0  0  0  0  0  0  0
  1  2  1  0
  1  4  1  0
  2  3  2  0
  5  6  2  3
  5  7  1  0
  5  8  1  0
  6  9  1  0
  6 10  1  0
M  RAD  1   2   2
M  END
>  <reaction>  (14) 
rxn_1605

>  <mol_properties>  (14) 
{"0": {"label": "*0", "atom_type": "S2s"}, "1": {"label": "*1", "atom_type": "CS"}, "4": {"label": "*4", "atom_type": "Cd"}, "5": {"label": "*3", "atom_type": "Cd"}, "8": {"label": "*2", "atom_type": "H0"}}

>  <type>  (14) 
unop_10

>  <geom_source>  (14) 
Heuristics

$$$$

     RDKit          3D

 10  8  0  0  0  0  0  0  0  0999 V2000
    0.9208    0.1015    1.6753 S   0  0  0  0  0  0  0  0  0  0  0  0
    0.1096    0.3398    0.1718 C   0  0  0  0  0  3  0  0  0  0  0  0
   -1.0658    1.3817   -0.1894 S   0  0  0  0  0  0  0  0  0  0  0  0
    0.2498    1.0391    2.3635 H   0  0  0  0  0  0  0  0  0  0  0  0
    0.1096   -1.8812   -2.5183 C   0  0  0  0  0  0  0  0  0  0  0  0
    0.1096   -1.8812   -1.1965 C   0  0  0  0  0  0  0  0  0  0  0  0
    0.1096   -0.9586   -3.0866 H   0  0  0  0  0  0  0  0  0  0  0  0
    0.1096   -2.8038   -3.0866 H   0  0  0  0  0  0  0  0  0  0  0  0
    0.1096   -0.7741   -0.5145 H   0  0  0  0  0  0  0  0  0  0  0  0
    0.1096   -2.8038   -0.6281 H   0  0  0  0  0  0  0  0  0  0  0  0
  1  2  1  0
  1  4  1  0
  2  3  2  0
  5  6  2  3
  5  7  1  0
  5  8  1  0
  6  9  1  0
  6 10  1  0
M  RAD  1   2   2
M  END
>  <reaction>  (15) 
rxn_1605

>  <mol_properties>  (15) 
{"0": {"label": "*0", "atom_type": "S2s"}, "1": {"label": "*1", "atom_type": "CS"}, "4": {"label": "*4", "atom_type": "Cd"}, "5": {"label": "*3", "atom_type": "Cd"}, "8": {"label": "*2", "atom_type": "H0"}}

>  <type>  (15) 
unop_11

>  <geom_source>  (15) 
Heuristics

$$$$

     RDKit          3D

 10  8  0  0  0  0  0  0  0  0999 V2000
    0.0000    1.5109   -0.6959 S   0  0  0  0  0  0  0  0  0  0  0  0
    0.0000    0.1613    0.3782 C   0  0  0  0  0  3  0  0  0  0  0  0
   -0.0000    0.1510    1.9899 S   0  0  0  0  0  0  0  0  0  0  0  0
   -0.0000    2.4625    0.2514 H   0  0  0  0  0  0  0  0  0  0  0  0
    0.0000   -2.0598   -2.3118 C   0  0  0  0  0  0  0  0  0  0  0  0
    0.0000   -2.0598   -0.9901 C   0  0  0  0  0  0  0  0  0  0  0  0
    0.0000   -1.1372   -2.8802 H   0  0  0  0  0  0  0  0  0  0  0  0
    0.0000   -2.9824   -2.8802 H   0  0  0  0  0  0  0  0  0  0  0  0
    0.0000   -0.9527   -0.3080 H   0  0  0  0  0  0  0  0  0  0  0  0
   -0.0000   -2.9824   -0.4217 H   0  0  0  0  0  0  0  0  0  0  0  0
  1  2  1  0
  1  4  1  0
  2  3  2  0
  5  6  2  3
  5  7  1  0
  5  8  1  0
  6  9  1  0
  6 10  1  0
M  RAD  1   2   2
M  END
>  <reaction>  (16) 
rxn_1605

>  <mol_properties>  (16) 
{"0": {"label": "*0", "atom_type": "S2s"}, "1": {"label": "*1", "atom_type": "CS"}, "4": {"label": "*4", "atom_type": "Cd"}, "5": {"label": "*3", "atom_type": "Cd"}, "8": {"label": "*2", "atom_type": "H0"}}

>  <type>  (16) 
unop_12

>  <geom_source>  (16) 
Heuristics

$$$$

     RDKit          3D

 10  8  0  0  0  0  0  0  0  0999 V2000
    2.5989   -0.0860    0.1821 S   0  0  0  0  0  0  0  0  0  0  0  0
    0.6016   -0.5888    2.0745 S   0  0  0  0  0  0  0  0  0  0  0  0
    0.9531    0.0896    0.8619 C   0  0  0  0  0  3  0  0  0  0  0  0
   -1.1733   -0.2567   -0.4012 C   0  0  0  0  0  0  0  0  0  0  0  0
   -0.9579    1.0393   -0.6073 C   0  0  0  0  0  0  0  0  0  0  0  0
   -0.0032    0.9117    0.2044 H   0  0  0  0  0  0  0  0  0  0  0  0
   -2.1113   -0.7117   -0.7028 H   0  0  0  0  0  0  0  0  0  0  0  0
   -0.4082   -0.8630    0.0708 H   0  0  0  0  0  0  0  0  0  0  0  0
    2.2171   -1.1897   -0.6037 H   0  0  0  0  0  0  0  0  0  0  0  0
   -1.7168    1.6553   -1.0787 H   0  0  0  0  0  0  0  0  0  0  0  0
  1  3  1  0
  1  9  1  0
  2  3  2  0
  4  5  2  3
  4  7  1  0
  4  8  1  0
  5  6  1  0
  5 10  1  0
M  RAD  1   3   2
M  END
>  <reaction>  (17) 
rxn_1605

>  <mol_properties>  (17) 
{"0": {"label": "*0", "atom_type": "S2s"}, "1": {"label": "*1", "atom_type": "CS"}, "4": {"label": "*4", "atom_type": "Cd"}, "5": {"label": "*3", "atom_type": "Cd"}, "8": {"label": "*2", "atom_type": "H0"}}

>  <type>  (17) 
unop_13

>  <geom_source>  (17) 
AutoTST

$$$$
