
     RDKit          3D

  6  5  0  0  0  0  0  0  0  0999 V2000
   -0.5072   -0.0291   -0.0097 C   0  0  0  0  0  0  0  0  0  0  0  0
    1.1321   -0.1527   -0.7687 S   0  0  0  0  0  0  0  0  0  0  0  0
   -0.6174   -0.7330    0.8127 H   0  0  0  0  0  0  0  0  0  0  0  0
   -0.5863    0.9827    0.3845 H   0  0  0  0  0  0  0  0  0  0  0  0
   -1.2962   -0.1800   -0.7434 H   0  0  0  0  0  0  0  0  0  0  0  0
    1.0312   -1.4237   -1.1764 H   0  0  0  0  0  0  0  0  0  0  0  0
  1  2  1  0
  1  3  1  0
  1  4  1  0
  1  5  1  0
  2  6  1  0
M  END
>  <reaction>  (1) 
rxn_473

>  <mol_properties>  (1) 
{"1": {"label": "donator", "atom_type": "S2s"}, "5": {"label": "d_hydrogen", "atom_type": "H0"}}

>  <type>  (1) 
r1h

$$$$

     RDKit          3D

  5  4  0  0  0  0  0  0  0  0999 V2000
   -0.0419    0.0056   -0.0340 C   0  0  0  0  0  0  0  0  0  0  0  0
    1.3118    0.0049   -0.1263 O   0  0  0  0  0  1  0  0  0  0  0  0
   -0.2615   -0.1535    1.0387 H   0  0  0  0  0  0  0  0  0  0  0  0
   -0.4946    0.9694   -0.3042 H   0  0  0  0  0  0  0  0  0  0  0  0
   -0.5138   -0.8264   -0.5743 H   0  0  0  0  0  0  0  0  0  0  0  0
  1  2  1  0
  1  3  1  0
  1  4  1  0
  1  5  1  0
M  RAD  1   2   2
M  END
>  <reaction>  (2) 
rxn_473

>  <mol_properties>  (2) 
{"1": {"label": "acceptor", "atom_type": "O2s"}}

>  <type>  (2) 
r2

$$$$

     RDKit          3D

  6  5  0  0  0  0  0  0  0  0999 V2000
   -0.3669    0.0060    0.0609 C   0  0  0  0  0  0  0  0  0  0  0  0
    0.9818   -0.0507    0.4695 O   0  0  0  0  0  0  0  0  0  0  0  0
   -0.6066    0.9462   -0.4488 H   0  0  0  0  0  0  0  0  0  0  0  0
   -0.5221   -0.8115   -0.6420 H   0  0  0  0  0  0  0  0  0  0  0  0
   -1.0602   -0.1268    0.8992 H   0  0  0  0  0  0  0  0  0  0  0  0
    1.1451    0.6595    1.0897 H   0  0  0  0  0  0  0  0  0  0  0  0
  1  2  1  0
  1  3  1  0
  1  4  1  0
  1  5  1  0
  2  6  1  0
M  END
>  <reaction>  (3) 
rxn_473

>  <mol_properties>  (3) 
{"0": {"label": "a_hydrogen", "atom_type": "H0"}, "2": {"label": "acceptor", "atom_type": "O2s"}}

>  <type>  (3) 
r2h

$$$$

     RDKit          3D

 11  9  0  0  0  0  0  0  0  0999 V2000
    0.4756   -1.2260   -1.3875 C   0  0  0  0  0  0  0  0  0  0  0  0
   -0.2589   -1.1535    0.2584 S   0  0  0  0  0  1  0  0  0  0  0  0
    1.5479   -1.0485   -1.3487 H   0  0  0  0  0  0  0  0  0  0  0  0
    0.2948   -2.2305   -1.7702 H   0  0  0  0  0  0  0  0  0  0  0  0
    0.0018   -0.5121   -2.0601 H   0  0  0  0  0  0  0  0  0  0  0  0
    0.1193    0.2003    0.5422 H   0  0  0  0  0  0  0  0  0  0  0  0
   -0.8383    2.1394   -0.2316 C   0  0  0  0  0  0  0  0  0  0  0  0
    0.2583    1.5677    0.3827 O   0  0  0  0  0  0  0  0  0  0  0  0
   -0.6277    3.2188   -0.2460 H   0  0  0  0  0  0  0  0  0  0  0  0
   -1.7689    1.9848    0.3237 H   0  0  0  0  0  0  0  0  0  0  0  0
   -0.9551    1.8178   -1.2733 H   0  0  0  0  0  0  0  0  0  0  0  0
  1  2  1  0
  1  3  1  0
  1  4  1  0
  1  5  1  0
  6  8  1  0
  7  8  1  0
  7  9  1  0
  7 10  1  0
  7 11  1  0
M  RAD  1   2   2
M  END
>  <reaction>  (4) 
rxn_473

>  <mol_properties>  (4) 
{"0": {"label": "*4", "atom_type": "Cs"}, "1": {"label": "*3", "atom_type": "S2s"}, "5": {"label": "*2", "atom_type": "H0"}, "6": {"label": "*0", "atom_type": "Cs"}, "7": {"label": "*1", "atom_type": "O2s"}}

>  <type>  (4) 
ts

$$$$

     RDKit          3D

 11  9  0  0  0  0  0  0  0  0999 V2000
    0.2314   -1.1662   -1.7340 C   0  0  0  0  0  0  0  0  0  0  0  0
    0.2314   -1.1662    0.0766 S   0  0  0  0  0  1  0  0  0  0  0  0
    1.1242   -0.6870   -2.1305 H   0  0  0  0  0  0  0  0  0  0  0  0
    0.2314   -2.2111   -2.0400 H   0  0  0  0  0  0  0  0  0  0  0  0
   -0.6613   -0.6870   -2.1305 H   0  0  0  0  0  0  0  0  0  0  0  0
    0.2314    0.4277    0.2763 H   0  0  0  0  0  0  0  0  0  0  0  0
   -0.9253    1.9335    1.1380 C   0  0  0  0  0  0  0  0  0  0  0  0
    0.2314    1.5672    0.4191 O   0  0  0  0  0  0  0  0  0  0  0  0
   -0.6200    2.6702    1.8800 H   0  0  0  0  0  0  0  0  0  0  0  0
   -1.3734    1.0829    1.6641 H   0  0  0  0  0  0  0  0  0  0  0  0
   -1.6862    2.3901    0.4948 H   0  0  0  0  0  0  0  0  0  0  0  0
  1  2  1  0
  1  3  1  0
  1  4  1  0
  1  5  1  0
  6  8  1  0
  7  8  1  0
  7  9  1  0
  7 10  1  0
  7 11  1  0
M  RAD  1   2   2
M  END
>  <reaction>  (5) 
rxn_473

>  <mol_properties>  (5) 
{"0": {"label": "*4", "atom_type": "Cs"}, "1": {"label": "*3", "atom_type": "S2s"}, "5": {"label": "*2", "atom_type": "H0"}, "6": {"label": "*0", "atom_type": "Cs"}, "7": {"label": "*1", "atom_type": "O2s"}}

>  <type>  (5) 
unop_1

>  <geom_source>  (5) 
Heuristics

$$$$

     RDKit          3D

 11  9  0  0  0  0  0  0  0  0999 V2000
    0.1340   -1.2118   -1.3710 C   0  0  0  0  0  0  0  0  0  0  0  0
    0.1340   -1.2118    0.4397 S   0  0  0  0  0  1  0  0  0  0  0  0
    1.0268   -0.7327   -1.7675 H   0  0  0  0  0  0  0  0  0  0  0  0
    0.1340   -2.2567   -1.6769 H   0  0  0  0  0  0  0  0  0  0  0  0
   -0.7587   -0.7327   -1.7675 H   0  0  0  0  0  0  0  0  0  0  0  0
    0.1340    0.3820    0.6393 H   0  0  0  0  0  0  0  0  0  0  0  0
   -0.5338    2.1147   -0.3094 C   0  0  0  0  0  0  0  0  0  0  0  0
    0.1340    1.5216    0.7821 O   0  0  0  0  0  0  0  0  0  0  0  0
   -0.8380    3.1118    0.0061 H   0  0  0  0  0  0  0  0  0  0  0  0
   -1.4325    1.5577   -0.5981 H   0  0  0  0  0  0  0  0  0  0  0  0
    0.1147    2.2161   -1.1870 H   0  0  0  0  0  0  0  0  0  0  0  0
  1  2  1  0
  1  3  1  0
  1  4  1  0
  1  5  1  0
  6  8  1  0
  7  8  1  0
  7  9  1  0
  7 10  1  0
  7 11  1  0
M  RAD  1   2   2
M  END
>  <reaction>  (6) 
rxn_473

>  <mol_properties>  (6) 
{"0": {"label": "*4", "atom_type": "Cs"}, "1": {"label": "*3", "atom_type": "S2s"}, "5": {"label": "*2", "atom_type": "H0"}, "6": {"label": "*0", "atom_type": "Cs"}, "7": {"label": "*1", "atom_type": "O2s"}}

>  <type>  (6) 
unop_2

>  <geom_source>  (6) 
Heuristics

$$$$

     RDKit          3D

 11  9  0  0  0  0  0  0  0  0999 V2000
    0.1334   -1.1541   -1.8309 C   0  0  0  0  0  0  0  0  0  0  0  0
    0.1334   -1.1541   -0.0202 S   0  0  0  0  0  1  0  0  0  0  0  0
    1.0261   -0.6750   -2.2274 H   0  0  0  0  0  0  0  0  0  0  0  0
    0.1334   -2.1990   -2.1368 H   0  0  0  0  0  0  0  0  0  0  0  0
   -0.7594   -0.6750   -2.2274 H   0  0  0  0  0  0  0  0  0  0  0  0
    0.1334    0.4397    0.1794 H   0  0  0  0  0  0  0  0  0  0  0  0
   -0.5345    1.8848    1.5263 C   0  0  0  0  0  0  0  0  0  0  0  0
    0.1334    1.5793    0.3222 O   0  0  0  0  0  0  0  0  0  0  0  0
   -0.0695    2.7831    1.9301 H   0  0  0  0  0  0  0  0  0  0  0  0
   -0.4368    1.0850    2.2692 H   0  0  0  0  0  0  0  0  0  0  0  0
   -1.5993    2.0913    1.3691 H   0  0  0  0  0  0  0  0  0  0  0  0
  1  2  1  0
  1  3  1  0
  1  4  1  0
  1  5  1  0
  6  8  1  0
  7  8  1  0
  7  9  1  0
  7 10  1  0
  7 11  1  0
M  RAD  1   2   2
M  END
>  <reaction>  (7) 
rxn_473

>  <mol_properties>  (7) 
{"0": {"label": "*4", "atom_type": "Cs"}, "1": {"label": "*3", "atom_type": "S2s"}, "5": {"label": "*2", "atom_type": "H0"}, "6": {"label": "*0", "atom_type": "Cs"}, "7": {"label": "*1", "atom_type": "O2s"}}

>  <type>  (7) 
unop_3

>  <geom_source>  (7) 
Heuristics

$$$$

     RDKit          3D

 11  9  0  0  0  0  0  0  0  0999 V2000
   -0.2320   -1.1995   -1.4684 C   0  0  0  0  0  0  0  0  0  0  0  0
   -0.2320   -1.1995    0.3422 S   0  0  0  0  0  1  0  0  0  0  0  0
    0.6607   -0.7204   -1.8649 H   0  0  0  0  0  0  0  0  0  0  0  0
   -0.2320   -2.2444   -1.7744 H   0  0  0  0  0  0  0  0  0  0  0  0
   -1.1247   -0.7204   -1.8649 H   0  0  0  0  0  0  0  0  0  0  0  0
   -0.2320    0.3943    0.5419 H   0  0  0  0  0  0  0  0  0  0  0  0
    0.9248    2.0662    0.0783 C   0  0  0  0  0  0  0  0  0  0  0  0
   -0.2320    1.5339    0.6847 O   0  0  0  0  0  0  0  0  0  0  0  0
    1.2455    2.9097    0.6882 H   0  0  0  0  0  0  0  0  0  0  0  0
    0.7304    2.4316   -0.9365 H   0  0  0  0  0  0  0  0  0  0  0  0
    1.7446    1.3399    0.0400 H   0  0  0  0  0  0  0  0  0  0  0  0
  1  2  1  0
  1  3  1  0
  1  4  1  0
  1  5  1  0
  6  8  1  0
  7  8  1  0
  7  9  1  0
  7 10  1  0
  7 11  1  0
M  RAD  1   2   2
M  END
>  <reaction>  (8) 
rxn_473

>  <mol_properties>  (8) 
{"0": {"label": "*4", "atom_type": "Cs"}, "1": {"label": "*3", "atom_type": "S2s"}, "5": {"label": "*2", "atom_type": "H0"}, "6": {"label": "*0", "atom_type": "Cs"}, "7": {"label": "*1", "atom_type": "O2s"}}

>  <type>  (8) 
unop_4

>  <geom_source>  (8) 
Heuristics

$$$$

     RDKit          3D

 11  9  0  0  0  0  0  0  0  0999 V2000
   -0.0000   -1.1498   -1.8662 C   0  0  0  0  0  0  0  0  0  0  0  0
   -0.0000   -1.1498   -0.0556 S   0  0  0  0  0  1  0  0  0  0  0  0
    0.8927   -0.6707   -2.2627 H   0  0  0  0  0  0  0  0  0  0  0  0
    0.0000   -2.1947   -2.1721 H   0  0  0  0  0  0  0  0  0  0  0  0
   -0.8927   -0.6707   -2.2627 H   0  0  0  0  0  0  0  0  0  0  0  0
   -0.0000    0.4440    0.1441 H   0  0  0  0  0  0  0  0  0  0  0  0
   -0.0000    1.8668    1.6685 C   0  0  0  0  0  0  0  0  0  0  0  0
   -0.0000    1.5836    0.2869 O   0  0  0  0  0  0  0  0  0  0  0  0
    0.0000    2.9511    1.7720 H   0  0  0  0  0  0  0  0  0  0  0  0
    0.8908    1.4746    2.1723 H   0  0  0  0  0  0  0  0  0  0  0  0
   -0.8908    1.4746    2.1723 H   0  0  0  0  0  0  0  0  0  0  0  0
  1  2  1  0
  1  3  1  0
  1  4  1  0
  1  5  1  0
  6  8  1  0
  7  8  1  0
  7  9  1  0
  7 10  1  0
  7 11  1  0
M  RAD  1   2   2
M  END
>  <reaction>  (9) 
rxn_473

>  <mol_properties>  (9) 
{"0": {"label": "*4", "atom_type": "Cs"}, "1": {"label": "*3", "atom_type": "S2s"}, "5": {"label": "*2", "atom_type": "H0"}, "6": {"label": "*0", "atom_type": "Cs"}, "7": {"label": "*1", "atom_type": "O2s"}}

>  <type>  (9) 
unop_5

>  <geom_source>  (9) 
Heuristics

$$$$

     RDKit          3D

 11  9  0  0  0  0  0  0  0  0999 V2000
   -0.2676   -1.1828   -1.6013 C   0  0  0  0  0  0  0  0  0  0  0  0
   -0.2676   -1.1828    0.2093 S   0  0  0  0  0  1  0  0  0  0  0  0
    0.6251   -0.7036   -1.9978 H   0  0  0  0  0  0  0  0  0  0  0  0
   -0.2676   -2.2277   -1.9073 H   0  0  0  0  0  0  0  0  0  0  0  0
   -1.1603   -0.7036   -1.9978 H   0  0  0  0  0  0  0  0  0  0  0  0
   -0.2676    0.4111    0.4090 H   0  0  0  0  0  0  0  0  0  0  0  0
    1.0681    1.9999    0.6080 C   0  0  0  0  0  0  0  0  0  0  0  0
   -0.2676    1.5506    0.5518 O   0  0  0  0  0  0  0  0  0  0  0  0
    1.1242    2.7344    1.4104 H   0  0  0  0  0  0  0  0  0  0  0  0
    1.3821    2.4852   -0.3231 H   0  0  0  0  0  0  0  0  0  0  0  0
    1.7692    1.1890    0.8363 H   0  0  0  0  0  0  0  0  0  0  0  0
  1  2  1  0
  1  3  1  0
  1  4  1  0
  1  5  1  0
  6  8  1  0
  7  8  1  0
  7  9  1  0
  7 10  1  0
  7 11  1  0
M  RAD  1   2   2
M  END
>  <reaction>  (10) 
rxn_473

>  <mol_properties>  (10) 
{"0": {"label": "*4", "atom_type": "Cs"}, "1": {"label": "*3", "atom_type": "S2s"}, "5": {"label": "*2", "atom_type": "H0"}, "6": {"label": "*0", "atom_type": "Cs"}, "7": {"label": "*1", "atom_type": "O2s"}}

>  <type>  (10) 
unop_6

>  <geom_source>  (10) 
Heuristics

$$$$

     RDKit          3D

 11  9  0  0  0  0  0  0  0  0999 V2000
   -0.2314   -1.1662   -1.7340 C   0  0  0  0  0  0  0  0  0  0  0  0
   -0.2314   -1.1662    0.0766 S   0  0  0  0  0  1  0  0  0  0  0  0
    0.6613   -0.6870   -2.1305 H   0  0  0  0  0  0  0  0  0  0  0  0
   -0.2314   -2.2111   -2.0400 H   0  0  0  0  0  0  0  0  0  0  0  0
   -1.1242   -0.6870   -2.1305 H   0  0  0  0  0  0  0  0  0  0  0  0
   -0.2314    0.4277    0.2763 H   0  0  0  0  0  0  0  0  0  0  0  0
    0.9253    1.9335    1.1380 C   0  0  0  0  0  0  0  0  0  0  0  0
   -0.2314    1.5672    0.4191 O   0  0  0  0  0  0  0  0  0  0  0  0
    0.6200    2.6702    1.8800 H   0  0  0  0  0  0  0  0  0  0  0  0
    1.6862    2.3901    0.4948 H   0  0  0  0  0  0  0  0  0  0  0  0
    1.3734    1.0829    1.6642 H   0  0  0  0  0  0  0  0  0  0  0  0
  1  2  1  0
  1  3  1  0
  1  4  1  0
  1  5  1  0
  6  8  1  0
  7  8  1  0
  7  9  1  0
  7 10  1  0
  7 11  1  0
M  RAD  1   2   2
M  END
>  <reaction>  (11) 
rxn_473

>  <mol_properties>  (11) 
{"0": {"label": "*4", "atom_type": "Cs"}, "1": {"label": "*3", "atom_type": "S2s"}, "5": {"label": "*2", "atom_type": "H0"}, "6": {"label": "*0", "atom_type": "Cs"}, "7": {"label": "*1", "atom_type": "O2s"}}

>  <type>  (11) 
unop_7

>  <geom_source>  (11) 
Heuristics

$$$$

     RDKit          3D

 11  9  0  0  0  0  0  0  0  0999 V2000
    0.2676   -1.1828   -1.6013 C   0  0  0  0  0  0  0  0  0  0  0  0
    0.2676   -1.1828    0.2093 S   0  0  0  0  0  1  0  0  0  0  0  0
    1.1603   -0.7036   -1.9978 H   0  0  0  0  0  0  0  0  0  0  0  0
    0.2676   -2.2277   -1.9073 H   0  0  0  0  0  0  0  0  0  0  0  0
   -0.6251   -0.7036   -1.9978 H   0  0  0  0  0  0  0  0  0  0  0  0
    0.2676    0.4111    0.4090 H   0  0  0  0  0  0  0  0  0  0  0  0
   -1.0681    1.9999    0.6080 C   0  0  0  0  0  0  0  0  0  0  0  0
    0.2676    1.5506    0.5518 O   0  0  0  0  0  0  0  0  0  0  0  0
   -1.1242    2.7344    1.4104 H   0  0  0  0  0  0  0  0  0  0  0  0
   -1.7692    1.1890    0.8362 H   0  0  0  0  0  0  0  0  0  0  0  0
   -1.3821    2.4852   -0.3231 H   0  0  0  0  0  0  0  0  0  0  0  0
  1  2  1  0
  1  3  1  0
  1  4  1  0
  1  5  1  0
  6  8  1  0
  7  8  1  0
  7  9  1  0
  7 10  1  0
  7 11  1  0
M  RAD  1   2   2
M  END
>  <reaction>  (12) 
rxn_473

>  <mol_properties>  (12) 
{"0": {"label": "*4", "atom_type": "Cs"}, "1": {"label": "*3", "atom_type": "S2s"}, "5": {"label": "*2", "atom_type": "H0"}, "6": {"label": "*0", "atom_type": "Cs"}, "7": {"label": "*1", "atom_type": "O2s"}}

>  <type>  (12) 
unop_8

>  <geom_source>  (12) 
Heuristics

$$$$

     RDKit          3D

 11  9  0  0  0  0  0  0  0  0999 V2000
   -0.1340   -1.2118   -1.3710 C   0  0  0  0  0  0  0  0  0  0  0  0
   -0.1340   -1.2118    0.4397 S   0  0  0  0  0  1  0  0  0  0  0  0
    0.7587   -0.7327   -1.7675 H   0  0  0  0  0  0  0  0  0  0  0  0
   -0.1340   -2.2567   -1.6769 H   0  0  0  0  0  0  0  0  0  0  0  0
   -1.0268   -0.7327   -1.7675 H   0  0  0  0  0  0  0  0  0  0  0  0
   -0.1340    0.3820    0.6393 H   0  0  0  0  0  0  0  0  0  0  0  0
    0.5338    2.1147   -0.3094 C   0  0  0  0  0  0  0  0  0  0  0  0
   -0.1340    1.5216    0.7821 O   0  0  0  0  0  0  0  0  0  0  0  0
    0.8380    3.1118    0.0061 H   0  0  0  0  0  0  0  0  0  0  0  0
   -0.1147    2.2161   -1.1871 H   0  0  0  0  0  0  0  0  0  0  0  0
    1.4325    1.5577   -0.5981 H   0  0  0  0  0  0  0  0  0  0  0  0
  1  2  1  0
  1  3  1  0
  1  4  1  0
  1  5  1  0
  6  8  1  0
  7  8  1  0
  7  9  1  0
  7 10  1  0
  7 11  1  0
M  RAD  1   2   2
M  END
>  <reaction>  (13) 
rxn_473

>  <mol_properties>  (13) 
{"0": {"label": "*4", "atom_type": "Cs"}, "1": {"label": "*3", "atom_type": "S2s"}, "5": {"label": "*2", "atom_type": "H0"}, "6": {"label": "*0", "atom_type": "Cs"}, "7": {"label": "*1", "atom_type": "O2s"}}

>  <type>  (13) 
unop_9

>  <geom_source>  (13) 
Heuristics

$$$$

     RDKit          3D

 11  9  0  0  0  0  0  0  0  0999 V2000
    0.2320   -1.1995   -1.4684 C   0  0  0  0  0  0  0  0  0  0  0  0
    0.2320   -1.1995    0.3422 S   0  0  0  0  0  1  0  0  0  0  0  0
    1.1247   -0.7204   -1.8649 H   0  0  0  0  0  0  0  0  0  0  0  0
    0.2320   -2.2444   -1.7744 H   0  0  0  0  0  0  0  0  0  0  0  0
   -0.6607   -0.7204   -1.8649 H   0  0  0  0  0  0  0  0  0  0  0  0
    0.2320    0.3943    0.5419 H   0  0  0  0  0  0  0  0  0  0  0  0
   -0.9248    2.0662    0.0783 C   0  0  0  0  0  0  0  0  0  0  0  0
    0.2320    1.5339    0.6847 O   0  0  0  0  0  0  0  0  0  0  0  0
   -1.2455    2.9097    0.6882 H   0  0  0  0  0  0  0  0  0  0  0  0
   -1.7446    1.3399    0.0400 H   0  0  0  0  0  0  0  0  0  0  0  0
   -0.7304    2.4316   -0.9365 H   0  0  0  0  0  0  0  0  0  0  0  0
  1  2  1  0
  1  3  1  0
  1  4  1  0
  1  5  1  0
  6  8  1  0
  7  8  1  0
  7  9  1  0
  7 10  1  0
  7 11  1  0
M  RAD  1   2   2
M  END
>  <reaction>  (14) 
rxn_473

>  <mol_properties>  (14) 
{"0": {"label": "*4", "atom_type": "Cs"}, "1": {"label": "*3", "atom_type": "S2s"}, "5": {"label": "*2", "atom_type": "H0"}, "6": {"label": "*0", "atom_type": "Cs"}, "7": {"label": "*1", "atom_type": "O2s"}}

>  <type>  (14) 
unop_10

>  <geom_source>  (14) 
Heuristics

$$$$

     RDKit          3D

 11  9  0  0  0  0  0  0  0  0999 V2000
   -0.1334   -1.1541   -1.8309 C   0  0  0  0  0  0  0  0  0  0  0  0
   -0.1334   -1.1541   -0.0202 S   0  0  0  0  0  1  0  0  0  0  0  0
    0.7594   -0.6750   -2.2274 H   0  0  0  0  0  0  0  0  0  0  0  0
   -0.1334   -2.1990   -2.1368 H   0  0  0  0  0  0  0  0  0  0  0  0
   -1.0261   -0.6750   -2.2274 H   0  0  0  0  0  0  0  0  0  0  0  0
   -0.1334    0.4397    0.1794 H   0  0  0  0  0  0  0  0  0  0  0  0
    0.5345    1.8848    1.5263 C   0  0  0  0  0  0  0  0  0  0  0  0
   -0.1334    1.5793    0.3222 O   0  0  0  0  0  0  0  0  0  0  0  0
    0.0695    2.7832    1.9301 H   0  0  0  0  0  0  0  0  0  0  0  0
    1.5993    2.0913    1.3691 H   0  0  0  0  0  0  0  0  0  0  0  0
    0.4368    1.0850    2.2692 H   0  0  0  0  0  0  0  0  0  0  0  0
  1  2  1  0
  1  3  1  0
  1  4  1  0
  1  5  1  0
  6  8  1  0
  7  8  1  0
  7  9  1  0
  7 10  1  0
  7 11  1  0
M  RAD  1   2   2
M  END
>  <reaction>  (15) 
rxn_473

>  <mol_properties>  (15) 
{"0": {"label": "*4", "atom_type": "Cs"}, "1": {"label": "*3", "atom_type": "S2s"}, "5": {"label": "*2", "atom_type": "H0"}, "6": {"label": "*0", "atom_type": "Cs"}, "7": {"label": "*1", "atom_type": "O2s"}}

>  <type>  (15) 
unop_11

>  <geom_source>  (15) 
Heuristics

$$$$

     RDKit          3D

 11  9  0  0  0  0  0  0  0  0999 V2000
    0.0000   -1.2163   -1.3353 C   0  0  0  0  0  0  0  0  0  0  0  0
    0.0000   -1.2163    0.4753 S   0  0  0  0  0  1  0  0  0  0  0  0
    0.8927   -0.7372   -1.7318 H   0  0  0  0  0  0  0  0  0  0  0  0
    0.0000   -2.2613   -1.6412 H   0  0  0  0  0  0  0  0  0  0  0  0
   -0.8927   -0.7372   -1.7318 H   0  0  0  0  0  0  0  0  0  0  0  0
    0.0000    0.3775    0.6750 H   0  0  0  0  0  0  0  0  0  0  0  0
    0.0000    2.1324   -0.4513 C   0  0  0  0  0  0  0  0  0  0  0  0
    0.0000    1.5170    0.8178 O   0  0  0  0  0  0  0  0  0  0  0  0
   -0.0000    3.2087   -0.2841 H   0  0  0  0  0  0  0  0  0  0  0  0
   -0.8908    1.8766   -1.0363 H   0  0  0  0  0  0  0  0  0  0  0  0
    0.8908    1.8766   -1.0362 H   0  0  0  0  0  0  0  0  0  0  0  0
  1  2  1  0
  1  3  1  0
  1  4  1  0
  1  5  1  0
  6  8  1  0
  7  8  1  0
  7  9  1  0
  7 10  1  0
  7 11  1  0
M  RAD  1   2   2
M  END
>  <reaction>  (16) 
rxn_473

>  <mol_properties>  (16) 
{"0": {"label": "*4", "atom_type": "Cs"}, "1": {"label": "*3", "atom_type": "S2s"}, "5": {"label": "*2", "atom_type": "H0"}, "6": {"label": "*0", "atom_type": "Cs"}, "7": {"label": "*1", "atom_type": "O2s"}}

>  <type>  (16) 
unop_12

>  <geom_source>  (16) 
Heuristics

$$$$
