
     RDKit          3D

  7  6  0  0  0  0  0  0  0  0999 V2000
   -0.2485    1.7413   -0.3992 O   0  0  0  0  0  0  0  0  0  0  0  0
    0.0502    0.5901   -0.2826 C   0  0  0  0  0  0  0  0  0  0  0  0
    1.4448    0.1264   -0.3338 C   0  0  0  0  0  0  0  0  0  0  0  0
    2.5364   -0.2222   -0.3757 N   0  0  0  0  0  0  0  0  0  0  0  0
   -1.0118   -0.4953   -0.0692 C   0  0  0  0  0  0  0  0  0  0  0  0
   -0.7311   -1.6469    0.0488 O   0  0  0  0  0  0  0  0  0  0  0  0
   -2.0400   -0.0934   -0.0387 H   0  0  0  0  0  0  0  0  0  0  0  0
  1  2  2  0
  2  3  1  0
  2  5  1  0
  3  4  3  0
  5  6  2  0
  5  7  1  0
M  END
>  <reaction>  (1) 
rxn_3184

>  <mol_properties>  (1) 
{"4": {"label": "donator", "atom_type": "CO"}, "6": {"label": "d_hydrogen", "atom_type": "H0"}}

>  <type>  (1) 
r1h

$$$$

     RDKit          3D

  6  6  0  0  0  0  0  0  0  0999 V2000
    1.9594    0.0134   -0.3734 N   0  0  0  0  0  2  0  0  0  0  0  0
    0.7437    0.0051   -0.0788 C   0  0  0  0  0  0  0  0  0  0  0  0
   -0.0745    1.0868    0.0233 O   0  0  0  0  0  0  0  0  0  0  0  0
   -1.3223    0.5972    0.3682 N   0  0  0  0  0  0  0  0  0  0  0  0
   -1.2899   -0.6150    0.4676 N   0  0  0  0  0  0  0  0  0  0  0  0
   -0.0165   -1.0874    0.2015 O   0  0  0  0  0  0  0  0  0  0  0  0
  1  2  2  0
  2  3  1  0
  2  6  1  0
  3  4  1  0
  4  5  2  0
  5  6  1  0
M  RAD  1   1   2
M  END
>  <reaction>  (2) 
rxn_3184

>  <mol_properties>  (2) 
{"0": {"label": "acceptor", "atom_type": "N3d"}}

>  <type>  (2) 
r2

$$$$

     RDKit          3D

  7  7  0  0  0  0  0  0  0  0999 V2000
    1.6064   -0.4313    0.1905 N   0  0  0  0  0  0  0  0  0  0  0  0
    0.3982   -0.1725    0.0701 C   0  0  0  0  0  0  0  0  0  0  0  0
   -0.6051   -1.0481    0.3497 O   0  0  0  0  0  0  0  0  0  0  0  0
   -1.7906   -0.4044    0.0958 N   0  0  0  0  0  0  0  0  0  0  0  0
   -1.5819    0.7348   -0.2956 N   0  0  0  0  0  0  0  0  0  0  0  0
   -0.2229    0.9708   -0.3436 O   0  0  0  0  0  0  0  0  0  0  0  0
    2.1958    0.3506   -0.0669 H   0  0  0  0  0  0  0  0  0  0  0  0
  1  2  2  3
  1  7  1  0
  2  3  1  0
  2  6  1  0
  3  4  1  0
  4  5  2  0
  5  6  1  0
M  END
>  <reaction>  (3) 
rxn_3184

>  <mol_properties>  (3) 
{"0": {"label": "acceptor", "atom_type": "N3d"}, "6": {"label": "a_hydrogen", "atom_type": "H0"}}

>  <type>  (3) 
r2h

$$$$

     RDKit          3D

 13 12  0  0  0  0  0  0  0  0999 V2000
   -0.9116   -1.7179   -0.0344 N   0  0  0  0  0  2  0  0  0  0  0  0
    0.1316   -1.7222   -0.7216 C   0  0  0  0  0  0  0  0  0  0  0  0
    0.4560   -2.6650   -1.6486 O   0  0  0  0  0  0  0  0  0  0  0  0
    1.6779   -2.3054   -2.1754 N   0  0  0  0  0  0  0  0  0  0  0  0
    2.0805   -1.2783   -1.6570 N   0  0  0  0  0  0  0  0  0  0  0  0
    1.1670   -0.8337   -0.7182 O   0  0  0  0  0  0  0  0  0  0  0  0
   -0.9625    1.6556   -0.6024 O   0  0  0  0  0  0  0  0  0  0  0  0
   -0.8740    1.7188    0.5832 C   0  0  0  0  0  0  0  0  0  0  0  0
   -0.8929    2.9850    1.3237 C   0  0  0  0  0  0  0  0  0  0  0  0
   -0.9112    3.9660    1.9174 N   0  0  0  0  0  0  0  0  0  0  0  0
   -0.7203    0.4411    1.4516 C   0  0  0  0  0  0  0  0  0  0  0  0
   -0.4624    0.4587    2.6005 O   0  0  0  0  0  0  0  0  0  0  0  0
   -0.8787   -0.6036    0.7741 H   0  0  0  0  0  0  0  0  0  0  0  0
  1  2  2  0
  2  3  1  0
  2  6  1  0
  3  4  1  0
  4  5  2  0
  5  6  1  0
  7  8  2  0
  8  9  1  0
  8 11  1  0
  9 10  3  0
 11 12  2  0
 11 13  1  0
M  RAD  1   1   2
M  END
>  <reaction>  (4) 
rxn_3184

>  <mol_properties>  (4) 
{"0": {"label": "*3", "atom_type": "N3d"}, "1": {"label": "*4", "atom_type": "Cd"}, "7": {"label": "*0", "atom_type": "CO"}, "10": {"label": "*1", "atom_type": "CO"}, "12": {"label": "*2", "atom_type": "H0"}}

>  <type>  (4) 
ts

$$$$

     RDKit          3D

 13 12  0  0  0  0  0  0  0  0999 V2000
   -0.8139   -1.0758   -0.7962 N   0  0  0  0  0  0  0  0  0  0  0  0
    0.1803   -1.7940   -0.6035 C   0  0  0  0  0  0  0  0  0  0  0  0
    0.1401   -3.1513   -0.5152 O   0  0  0  0  0  0  0  0  0  0  0  0
    1.4249   -3.5841   -0.3005 N   0  0  0  0  0  0  0  0  0  0  0  0
    2.1930   -2.6341   -0.2558 N   0  0  0  0  0  0  0  0  0  0  0  0
    1.4932   -1.4584   -0.4379 O   0  0  0  0  0  0  0  0  0  0  0  0
   -0.8139    2.3001   -1.3173 O   0  0  0  0  0  1  0  0  0  0  0  0
   -0.8139    2.3001   -0.1222 C   0  0  0  0  0  0  0  0  0  0  0  0
   -0.8139    3.5402    0.6681 C   0  0  0  0  0  0  0  0  0  0  0  0
   -0.8139    4.5072    1.2844 N   0  0  0  0  0  0  0  0  0  0  0  0
   -0.8139    0.9924    0.6787 C   0  0  0  0  0  0  0  0  0  0  0  0
   -0.8139    0.9747    1.8697 O   0  0  0  0  0  0  0  0  0  0  0  0
   -0.8139   -0.0866   -0.0908 H   0  0  0  0  0  0  0  0  0  0  0  0
  1  2  2  3
  1 13  1  0
  2  3  1  0
  2  6  1  0
  3  4  1  0
  4  5  2  0
  5  6  1  0
  7  8  1  0
  8  9  1  0
  8 11  2  0
  9 10  3  0
 11 12  2  0
M  RAD  1   7   2
M  END
>  <reaction>  (5) 
rxn_3184

>  <mol_properties>  (5) 
{"0": {"label": "*3", "atom_type": "N3d"}, "1": {"label": "*4", "atom_type": "Cd"}, "7": {"label": "*0", "atom_type": "CO"}, "10": {"label": "*1", "atom_type": "CO"}, "12": {"label": "*2", "atom_type": "H0"}}

>  <type>  (5) 
unop_1

>  <geom_source>  (5) 
Heuristics

$$$$

     RDKit          3D

 13 12  0  0  0  0  0  0  0  0999 V2000
   -0.4815   -1.8306    0.2712 N   0  0  0  0  0  0  0  0  0  0  0  0
    0.0925   -1.6384   -0.8127 C   0  0  0  0  0  0  0  0  0  0  0  0
    0.5613   -2.6296   -1.6185 O   0  0  0  0  0  0  0  0  0  0  0  0
    1.1272   -2.0297   -2.7158 N   0  0  0  0  0  0  0  0  0  0  0  0
    1.0366   -0.8136   -2.6309 N   0  0  0  0  0  0  0  0  0  0  0  0
    0.3948   -0.4735   -1.4573 O   0  0  0  0  0  0  0  0  0  0  0  0
   -0.4815    1.5452   -0.2498 O   0  0  0  0  0  1  0  0  0  0  0  0
   -0.4815    1.5452    0.9452 C   0  0  0  0  0  0  0  0  0  0  0  0
   -0.4815    2.7853    1.7355 C   0  0  0  0  0  0  0  0  0  0  0  0
   -0.4815    3.7523    2.3518 N   0  0  0  0  0  0  0  0  0  0  0  0
   -0.4815    0.2375    1.7461 C   0  0  0  0  0  0  0  0  0  0  0  0
   -0.4815    0.2198    2.9371 O   0  0  0  0  0  0  0  0  0  0  0  0
   -0.4815   -0.8415    0.9766 H   0  0  0  0  0  0  0  0  0  0  0  0
  1  2  2  3
  1 13  1  0
  2  3  1  0
  2  6  1  0
  3  4  1  0
  4  5  2  0
  5  6  1  0
  7  8  1  0
  8  9  1  0
  8 11  2  0
  9 10  3  0
 11 12  2  0
M  RAD  1   7   2
M  END
>  <reaction>  (6) 
rxn_3184

>  <mol_properties>  (6) 
{"0": {"label": "*3", "atom_type": "N3d"}, "1": {"label": "*4", "atom_type": "Cd"}, "7": {"label": "*0", "atom_type": "CO"}, "10": {"label": "*1", "atom_type": "CO"}, "12": {"label": "*2", "atom_type": "H0"}}

>  <type>  (6) 
unop_2

>  <geom_source>  (6) 
Heuristics

$$$$

     RDKit          3D

 13 12  0  0  0  0  0  0  0  0999 V2000
   -0.4623   -0.8771   -1.0700 N   0  0  0  0  0  0  0  0  0  0  0  0
    0.1116   -1.8393   -0.5352 C   0  0  0  0  0  0  0  0  0  0  0  0
   -0.2340   -3.1414   -0.7269 O   0  0  0  0  0  0  0  0  0  0  0  0
    0.6231   -3.9057    0.0251 N   0  0  0  0  0  0  0  0  0  0  0  0
    1.4165   -3.1934    0.6230 N   0  0  0  0  0  0  0  0  0  0  0  0
    1.1684   -1.8680    0.3288 O   0  0  0  0  0  0  0  0  0  0  0  0
   -0.4623    2.4987   -1.5911 O   0  0  0  0  0  1  0  0  0  0  0  0
   -0.4623    2.4987   -0.3960 C   0  0  0  0  0  0  0  0  0  0  0  0
   -0.4623    3.7388    0.3943 C   0  0  0  0  0  0  0  0  0  0  0  0
   -0.4623    4.7058    1.0106 N   0  0  0  0  0  0  0  0  0  0  0  0
   -0.4623    1.1910    0.4049 C   0  0  0  0  0  0  0  0  0  0  0  0
   -0.4623    1.1734    1.5959 O   0  0  0  0  0  0  0  0  0  0  0  0
   -0.4623    0.1120   -0.3646 H   0  0  0  0  0  0  0  0  0  0  0  0
  1  2  2  3
  1 13  1  0
  2  3  1  0
  2  6  1  0
  3  4  1  0
  4  5  2  0
  5  6  1  0
  7  8  1  0
  8  9  1  0
  8 11  2  0
  9 10  3  0
 11 12  2  0
M  RAD  1   7   2
M  END
>  <reaction>  (7) 
rxn_3184

>  <mol_properties>  (7) 
{"0": {"label": "*3", "atom_type": "N3d"}, "1": {"label": "*4", "atom_type": "Cd"}, "7": {"label": "*0", "atom_type": "CO"}, "10": {"label": "*1", "atom_type": "CO"}, "12": {"label": "*2", "atom_type": "H0"}}

>  <type>  (7) 
unop_3

>  <geom_source>  (7) 
Heuristics

$$$$

     RDKit          3D

 13 12  0  0  0  0  0  0  0  0999 V2000
    0.8292   -1.6269   -0.0192 N   0  0  0  0  0  0  0  0  0  0  0  0
   -0.1649   -1.6786   -0.7610 C   0  0  0  0  0  0  0  0  0  0  0  0
   -0.7786   -2.8320   -1.1413 O   0  0  0  0  0  0  0  0  0  0  0  0
   -1.8297   -2.4859   -1.9535 N   0  0  0  0  0  0  0  0  0  0  0  0
   -1.8879   -1.2715   -2.0812 N   0  0  0  0  0  0  0  0  0  0  0  0
   -0.8721   -0.6766   -1.3607 O   0  0  0  0  0  0  0  0  0  0  0  0
    0.8292    1.7490   -0.5402 O   0  0  0  0  0  1  0  0  0  0  0  0
    0.8292    1.7490    0.6548 C   0  0  0  0  0  0  0  0  0  0  0  0
    0.8292    2.9891    1.4451 C   0  0  0  0  0  0  0  0  0  0  0  0
    0.8292    3.9561    2.0614 N   0  0  0  0  0  0  0  0  0  0  0  0
    0.8292    0.4413    1.4558 C   0  0  0  0  0  0  0  0  0  0  0  0
    0.8292    0.4236    2.6467 O   0  0  0  0  0  0  0  0  0  0  0  0
    0.8292   -0.6377    0.6863 H   0  0  0  0  0  0  0  0  0  0  0  0
  1  2  2  3
  1 13  1  0
  2  3  1  0
  2  6  1  0
  3  4  1  0
  4  5  2  0
  5  6  1  0
  7  8  1  0
  8  9  1  0
  8 11  2  0
  9 10  3  0
 11 12  2  0
M  RAD  1   7   2
M  END
>  <reaction>  (8) 
rxn_3184

>  <mol_properties>  (8) 
{"0": {"label": "*3", "atom_type": "N3d"}, "1": {"label": "*4", "atom_type": "Cd"}, "7": {"label": "*0", "atom_type": "CO"}, "10": {"label": "*1", "atom_type": "CO"}, "12": {"label": "*2", "atom_type": "H0"}}

>  <type>  (8) 
unop_4

>  <geom_source>  (8) 
Heuristics

$$$$

     RDKit          3D

 13 12  0  0  0  0  0  0  0  0999 V2000
    0.0000   -0.8052   -1.1643 N   0  0  0  0  0  0  0  0  0  0  0  0
    0.0000   -1.8567   -0.5043 C   0  0  0  0  0  0  0  0  0  0  0  0
    0.0000   -3.1038   -1.0488 O   0  0  0  0  0  0  0  0  0  0  0  0
    0.0000   -4.0019   -0.0107 N   0  0  0  0  0  0  0  0  0  0  0  0
    0.0000   -3.4144    1.0614 N   0  0  0  0  0  0  0  0  0  0  0  0
    0.0000   -2.0509    0.8470 O   0  0  0  0  0  0  0  0  0  0  0  0
   -0.0000    2.5706   -1.6854 O   0  0  0  0  0  1  0  0  0  0  0  0
   -0.0000    2.5706   -0.4904 C   0  0  0  0  0  0  0  0  0  0  0  0
   -0.0000    3.8107    0.3000 C   0  0  0  0  0  0  0  0  0  0  0  0
   -0.0000    4.7777    0.9163 N   0  0  0  0  0  0  0  0  0  0  0  0
   -0.0000    1.2629    0.3106 C   0  0  0  0  0  0  0  0  0  0  0  0
   -0.0000    1.2453    1.5016 O   0  0  0  0  0  0  0  0  0  0  0  0
   -0.0000    0.1839   -0.4589 H   0  0  0  0  0  0  0  0  0  0  0  0
  1  2  2  3
  1 13  1  0
  2  3  1  0
  2  6  1  0
  3  4  1  0
  4  5  2  0
  5  6  1  0
  7  8  1  0
  8  9  1  0
  8 11  2  0
  9 10  3  0
 11 12  2  0
M  RAD  1   7   2
M  END
>  <reaction>  (9) 
rxn_3184

>  <mol_properties>  (9) 
{"0": {"label": "*3", "atom_type": "N3d"}, "1": {"label": "*4", "atom_type": "Cd"}, "7": {"label": "*0", "atom_type": "CO"}, "10": {"label": "*1", "atom_type": "CO"}, "12": {"label": "*2", "atom_type": "H0"}}

>  <type>  (9) 
unop_5

>  <geom_source>  (9) 
Heuristics

$$$$

     RDKit          3D

 13 12  0  0  0  0  0  0  0  0999 V2000
    0.9500   -1.3502   -0.4108 N   0  0  0  0  0  0  0  0  0  0  0  0
   -0.1979   -1.7352   -0.6854 C   0  0  0  0  0  0  0  0  0  0  0  0
   -0.5870   -3.0390   -0.6972 O   0  0  0  0  0  0  0  0  0  0  0  0
   -1.9150   -3.0650   -1.0439 N   0  0  0  0  0  0  0  0  0  0  0  0
   -2.3290   -1.9302   -1.2311 N   0  0  0  0  0  0  0  0  0  0  0  0
   -1.3105   -1.0214   -1.0268 O   0  0  0  0  0  0  0  0  0  0  0  0
    0.9500    2.0257   -0.9319 O   0  0  0  0  0  1  0  0  0  0  0  0
    0.9500    2.0257    0.2631 C   0  0  0  0  0  0  0  0  0  0  0  0
    0.9500    3.2658    1.0535 C   0  0  0  0  0  0  0  0  0  0  0  0
    0.9500    4.2328    1.6698 N   0  0  0  0  0  0  0  0  0  0  0  0
    0.9500    0.7180    1.0641 C   0  0  0  0  0  0  0  0  0  0  0  0
    0.9500    0.7003    2.2551 O   0  0  0  0  0  0  0  0  0  0  0  0
    0.9500   -0.3610    0.2946 H   0  0  0  0  0  0  0  0  0  0  0  0
  1  2  2  3
  1 13  1  0
  2  3  1  0
  2  6  1  0
  3  4  1  0
  4  5  2  0
  5  6  1  0
  7  8  1  0
  8  9  1  0
  8 11  2  0
  9 10  3  0
 11 12  2  0
M  RAD  1   7   2
M  END
>  <reaction>  (10) 
rxn_3184

>  <mol_properties>  (10) 
{"0": {"label": "*3", "atom_type": "N3d"}, "1": {"label": "*4", "atom_type": "Cd"}, "7": {"label": "*0", "atom_type": "CO"}, "10": {"label": "*1", "atom_type": "CO"}, "12": {"label": "*2", "atom_type": "H0"}}

>  <type>  (10) 
unop_6

>  <geom_source>  (10) 
Heuristics

$$$$

     RDKit          3D

 13 12  0  0  0  0  0  0  0  0999 V2000
    0.8139   -1.0758   -0.7962 N   0  0  0  0  0  0  0  0  0  0  0  0
   -0.1802   -1.7940   -0.6035 C   0  0  0  0  0  0  0  0  0  0  0  0
   -0.1401   -3.1513   -0.5152 O   0  0  0  0  0  0  0  0  0  0  0  0
   -1.4249   -3.5841   -0.3005 N   0  0  0  0  0  0  0  0  0  0  0  0
   -2.1930   -2.6341   -0.2558 N   0  0  0  0  0  0  0  0  0  0  0  0
   -1.4932   -1.4585   -0.4379 O   0  0  0  0  0  0  0  0  0  0  0  0
    0.8139    2.3001   -1.3173 O   0  0  0  0  0  1  0  0  0  0  0  0
    0.8139    2.3001   -0.1222 C   0  0  0  0  0  0  0  0  0  0  0  0
    0.8139    3.5402    0.6681 C   0  0  0  0  0  0  0  0  0  0  0  0
    0.8139    4.5072    1.2844 N   0  0  0  0  0  0  0  0  0  0  0  0
    0.8139    0.9924    0.6787 C   0  0  0  0  0  0  0  0  0  0  0  0
    0.8139    0.9747    1.8697 O   0  0  0  0  0  0  0  0  0  0  0  0
    0.8139   -0.0866   -0.0908 H   0  0  0  0  0  0  0  0  0  0  0  0
  1  2  2  3
  1 13  1  0
  2  3  1  0
  2  6  1  0
  3  4  1  0
  4  5  2  0
  5  6  1  0
  7  8  1  0
  8  9  1  0
  8 11  2  0
  9 10  3  0
 11 12  2  0
M  RAD  1   7   2
M  END
>  <reaction>  (11) 
rxn_3184

>  <mol_properties>  (11) 
{"0": {"label": "*3", "atom_type": "N3d"}, "1": {"label": "*4", "atom_type": "Cd"}, "7": {"label": "*0", "atom_type": "CO"}, "10": {"label": "*1", "atom_type": "CO"}, "12": {"label": "*2", "atom_type": "H0"}}

>  <type>  (11) 
unop_7

>  <geom_source>  (11) 
Heuristics

$$$$

     RDKit          3D

 13 12  0  0  0  0  0  0  0  0999 V2000
   -0.9500   -1.3502   -0.4108 N   0  0  0  0  0  0  0  0  0  0  0  0
    0.1979   -1.7352   -0.6854 C   0  0  0  0  0  0  0  0  0  0  0  0
    0.5870   -3.0390   -0.6972 O   0  0  0  0  0  0  0  0  0  0  0  0
    1.9150   -3.0650   -1.0439 N   0  0  0  0  0  0  0  0  0  0  0  0
    2.3290   -1.9302   -1.2311 N   0  0  0  0  0  0  0  0  0  0  0  0
    1.3105   -1.0214   -1.0268 O   0  0  0  0  0  0  0  0  0  0  0  0
   -0.9500    2.0257   -0.9319 O   0  0  0  0  0  1  0  0  0  0  0  0
   -0.9500    2.0257    0.2631 C   0  0  0  0  0  0  0  0  0  0  0  0
   -0.9500    3.2658    1.0535 C   0  0  0  0  0  0  0  0  0  0  0  0
   -0.9500    4.2328    1.6698 N   0  0  0  0  0  0  0  0  0  0  0  0
   -0.9500    0.7180    1.0641 C   0  0  0  0  0  0  0  0  0  0  0  0
   -0.9500    0.7003    2.2551 O   0  0  0  0  0  0  0  0  0  0  0  0
   -0.9500   -0.3610    0.2946 H   0  0  0  0  0  0  0  0  0  0  0  0
  1  2  2  3
  1 13  1  0
  2  3  1  0
  2  6  1  0
  3  4  1  0
  4  5  2  0
  5  6  1  0
  7  8  1  0
  8  9  1  0
  8 11  2  0
  9 10  3  0
 11 12  2  0
M  RAD  1   7   2
M  END
>  <reaction>  (12) 
rxn_3184

>  <mol_properties>  (12) 
{"0": {"label": "*3", "atom_type": "N3d"}, "1": {"label": "*4", "atom_type": "Cd"}, "7": {"label": "*0", "atom_type": "CO"}, "10": {"label": "*1", "atom_type": "CO"}, "12": {"label": "*2", "atom_type": "H0"}}

>  <type>  (12) 
unop_8

>  <geom_source>  (12) 
Heuristics

$$$$

     RDKit          3D

 13 12  0  0  0  0  0  0  0  0999 V2000
    0.4815   -1.8306    0.2712 N   0  0  0  0  0  0  0  0  0  0  0  0
   -0.0925   -1.6384   -0.8127 C   0  0  0  0  0  0  0  0  0  0  0  0
   -0.5613   -2.6296   -1.6185 O   0  0  0  0  0  0  0  0  0  0  0  0
   -1.1272   -2.0297   -2.7158 N   0  0  0  0  0  0  0  0  0  0  0  0
   -1.0366   -0.8136   -2.6309 N   0  0  0  0  0  0  0  0  0  0  0  0
   -0.3948   -0.4735   -1.4573 O   0  0  0  0  0  0  0  0  0  0  0  0
    0.4815    1.5452   -0.2498 O   0  0  0  0  0  1  0  0  0  0  0  0
    0.4815    1.5452    0.9452 C   0  0  0  0  0  0  0  0  0  0  0  0
    0.4815    2.7853    1.7355 C   0  0  0  0  0  0  0  0  0  0  0  0
    0.4815    3.7523    2.3518 N   0  0  0  0  0  0  0  0  0  0  0  0
    0.4815    0.2375    1.7461 C   0  0  0  0  0  0  0  0  0  0  0  0
    0.4815    0.2198    2.9371 O   0  0  0  0  0  0  0  0  0  0  0  0
    0.4815   -0.8415    0.9766 H   0  0  0  0  0  0  0  0  0  0  0  0
  1  2  2  3
  1 13  1  0
  2  3  1  0
  2  6  1  0
  3  4  1  0
  4  5  2  0
  5  6  1  0
  7  8  1  0
  8  9  1  0
  8 11  2  0
  9 10  3  0
 11 12  2  0
M  RAD  1   7   2
M  END
>  <reaction>  (13) 
rxn_3184

>  <mol_properties>  (13) 
{"0": {"label": "*3", "atom_type": "N3d"}, "1": {"label": "*4", "atom_type": "Cd"}, "7": {"label": "*0", "atom_type": "CO"}, "10": {"label": "*1", "atom_type": "CO"}, "12": {"label": "*2", "atom_type": "H0"}}

>  <type>  (13) 
unop_9

>  <geom_source>  (13) 
Heuristics

$$$$

     RDKit          3D

 13 12  0  0  0  0  0  0  0  0999 V2000
   -0.8292   -1.6269   -0.0192 N   0  0  0  0  0  0  0  0  0  0  0  0
    0.1649   -1.6786   -0.7610 C   0  0  0  0  0  0  0  0  0  0  0  0
    0.7786   -2.8320   -1.1413 O   0  0  0  0  0  0  0  0  0  0  0  0
    1.8297   -2.4859   -1.9535 N   0  0  0  0  0  0  0  0  0  0  0  0
    1.8879   -1.2715   -2.0812 N   0  0  0  0  0  0  0  0  0  0  0  0
    0.8721   -0.6766   -1.3607 O   0  0  0  0  0  0  0  0  0  0  0  0
   -0.8292    1.7490   -0.5402 O   0  0  0  0  0  1  0  0  0  0  0  0
   -0.8292    1.7490    0.6548 C   0  0  0  0  0  0  0  0  0  0  0  0
   -0.8292    2.9891    1.4451 C   0  0  0  0  0  0  0  0  0  0  0  0
   -0.8292    3.9561    2.0614 N   0  0  0  0  0  0  0  0  0  0  0  0
   -0.8292    0.4413    1.4558 C   0  0  0  0  0  0  0  0  0  0  0  0
   -0.8292    0.4236    2.6467 O   0  0  0  0  0  0  0  0  0  0  0  0
   -0.8292   -0.6377    0.6863 H   0  0  0  0  0  0  0  0  0  0  0  0
  1  2  2  3
  1 13  1  0
  2  3  1  0
  2  6  1  0
  3  4  1  0
  4  5  2  0
  5  6  1  0
  7  8  1  0
  8  9  1  0
  8 11  2  0
  9 10  3  0
 11 12  2  0
M  RAD  1   7   2
M  END
>  <reaction>  (14) 
rxn_3184

>  <mol_properties>  (14) 
{"0": {"label": "*3", "atom_type": "N3d"}, "1": {"label": "*4", "atom_type": "Cd"}, "7": {"label": "*0", "atom_type": "CO"}, "10": {"label": "*1", "atom_type": "CO"}, "12": {"label": "*2", "atom_type": "H0"}}

>  <type>  (14) 
unop_10

>  <geom_source>  (14) 
Heuristics

$$$$

     RDKit          3D

 13 12  0  0  0  0  0  0  0  0999 V2000
    0.4623   -0.8771   -1.0700 N   0  0  0  0  0  0  0  0  0  0  0  0
   -0.1116   -1.8393   -0.5352 C   0  0  0  0  0  0  0  0  0  0  0  0
    0.2340   -3.1414   -0.7269 O   0  0  0  0  0  0  0  0  0  0  0  0
   -0.6231   -3.9057    0.0251 N   0  0  0  0  0  0  0  0  0  0  0  0
   -1.4165   -3.1934    0.6230 N   0  0  0  0  0  0  0  0  0  0  0  0
   -1.1684   -1.8680    0.3288 O   0  0  0  0  0  0  0  0  0  0  0  0
    0.4623    2.4987   -1.5911 O   0  0  0  0  0  1  0  0  0  0  0  0
    0.4623    2.4987   -0.3960 C   0  0  0  0  0  0  0  0  0  0  0  0
    0.4623    3.7388    0.3943 C   0  0  0  0  0  0  0  0  0  0  0  0
    0.4623    4.7058    1.0106 N   0  0  0  0  0  0  0  0  0  0  0  0
    0.4623    1.1910    0.4049 C   0  0  0  0  0  0  0  0  0  0  0  0
    0.4623    1.1734    1.5959 O   0  0  0  0  0  0  0  0  0  0  0  0
    0.4623    0.1120   -0.3646 H   0  0  0  0  0  0  0  0  0  0  0  0
  1  2  2  3
  1 13  1  0
  2  3  1  0
  2  6  1  0
  3  4  1  0
  4  5  2  0
  5  6  1  0
  7  8  1  0
  8  9  1  0
  8 11  2  0
  9 10  3  0
 11 12  2  0
M  RAD  1   7   2
M  END
>  <reaction>  (15) 
rxn_3184

>  <mol_properties>  (15) 
{"0": {"label": "*3", "atom_type": "N3d"}, "1": {"label": "*4", "atom_type": "Cd"}, "7": {"label": "*0", "atom_type": "CO"}, "10": {"label": "*1", "atom_type": "CO"}, "12": {"label": "*2", "atom_type": "H0"}}

>  <type>  (15) 
unop_11

>  <geom_source>  (15) 
Heuristics

$$$$

     RDKit          3D

 13 12  0  0  0  0  0  0  0  0999 V2000
    0.0000   -1.9055    0.3784 N   0  0  0  0  0  0  0  0  0  0  0  0
    0.0000   -1.6240   -0.8307 C   0  0  0  0  0  0  0  0  0  0  0  0
    0.0000   -2.5449   -1.8324 O   0  0  0  0  0  0  0  0  0  0  0  0
    0.0000   -1.8560   -3.0197 N   0  0  0  0  0  0  0  0  0  0  0  0
    0.0000   -0.6511   -2.8134 N   0  0  0  0  0  0  0  0  0  0  0  0
    0.0000   -0.4096   -1.4545 O   0  0  0  0  0  0  0  0  0  0  0  0
   -0.0000    1.4704   -0.1426 O   0  0  0  0  0  1  0  0  0  0  0  0
   -0.0000    1.4704    1.0524 C   0  0  0  0  0  0  0  0  0  0  0  0
   -0.0000    2.7105    1.8428 C   0  0  0  0  0  0  0  0  0  0  0  0
   -0.0000    3.6775    2.4591 N   0  0  0  0  0  0  0  0  0  0  0  0
   -0.0000    0.1627    1.8534 C   0  0  0  0  0  0  0  0  0  0  0  0
   -0.0000    0.1450    3.0444 O   0  0  0  0  0  0  0  0  0  0  0  0
    0.0000   -0.9163    1.0839 H   0  0  0  0  0  0  0  0  0  0  0  0
  1  2  2  3
  1 13  1  0
  2  3  1  0
  2  6  1  0
  3  4  1  0
  4  5  2  0
  5  6  1  0
  7  8  1  0
  8  9  1  0
  8 11  2  0
  9 10  3  0
 11 12  2  0
M  RAD  1   7   2
M  END
>  <reaction>  (16) 
rxn_3184

>  <mol_properties>  (16) 
{"0": {"label": "*3", "atom_type": "N3d"}, "1": {"label": "*4", "atom_type": "Cd"}, "7": {"label": "*0", "atom_type": "CO"}, "10": {"label": "*1", "atom_type": "CO"}, "12": {"label": "*2", "atom_type": "H0"}}

>  <type>  (16) 
unop_12

>  <geom_source>  (16) 
Heuristics

$$$$

     RDKit          3D

 13 12  0  0  0  0  0  0  0  0999 V2000
   -0.4814   -1.8306    0.2712 N   0  0  0  0  0  0  0  0  0  0  0  0
    0.0925   -1.6384   -0.8127 C   0  0  0  0  0  0  0  0  0  0  0  0
    0.5613   -2.6296   -1.6185 O   0  0  0  0  0  0  0  0  0  0  0  0
    1.1273   -2.0297   -2.7158 N   0  0  0  0  0  0  0  0  0  0  0  0
    1.0366   -0.8136   -2.6309 N   0  0  0  0  0  0  0  0  0  0  0  0
    0.3948   -0.4735   -1.4573 O   0  0  0  0  0  0  0  0  0  0  0  0
   -0.4815    1.5452   -0.2498 O   0  0  0  0  0  1  0  0  0  0  0  0
   -0.4815    1.5452    0.9452 C   0  0  0  0  0  0  0  0  0  0  0  0
   -0.4815    2.7853    1.7355 C   0  0  0  0  0  0  0  0  0  0  0  0
   -0.4815    3.7523    2.3518 N   0  0  0  0  0  0  0  0  0  0  0  0
   -0.4814    0.2375    1.7461 C   0  0  0  0  0  0  0  0  0  0  0  0
   -0.4814    0.2198    2.9371 O   0  0  0  0  0  0  0  0  0  0  0  0
   -0.4814   -0.8415    0.9766 H   0  0  0  0  0  0  0  0  0  0  0  0
  1  2  2  3
  1 13  1  0
  2  3  1  0
  2  6  1  0
  3  4  1  0
  4  5  2  0
  5  6  1  0
  7  8  1  0
  8  9  1  0
  8 11  2  0
  9 10  3  0
 11 12  2  0
M  RAD  1   7   2
M  END
>  <reaction>  (17) 
rxn_3184

>  <mol_properties>  (17) 
{"0": {"label": "*3", "atom_type": "N3d"}, "1": {"label": "*4", "atom_type": "Cd"}, "7": {"label": "*0", "atom_type": "CO"}, "10": {"label": "*1", "atom_type": "CO"}, "12": {"label": "*2", "atom_type": "H0"}}

>  <type>  (17) 
unop_13

>  <geom_source>  (17) 
gaussian_log

$$$$
