
     RDKit          3D

  9  8  0  0  0  0  0  0  0  0999 V2000
    1.1303   -0.2933   -0.7510 C   0  0  0  0  0  0  0  0  0  0  0  0
    0.2866    0.4560   -0.0588 C   0  0  0  0  0  0  0  0  0  0  0  0
   -0.9719   -0.0331    0.5823 C   0  0  0  0  0  0  0  0  0  0  0  0
    2.0274    0.1230   -1.1916 H   0  0  0  0  0  0  0  0  0  0  0  0
    0.9532   -1.3530   -0.9023 H   0  0  0  0  0  0  0  0  0  0  0  0
    0.5065    1.5132    0.0659 H   0  0  0  0  0  0  0  0  0  0  0  0
   -0.9526    0.1426    1.6610 H   0  0  0  0  0  0  0  0  0  0  0  0
   -1.1182   -1.1002    0.4106 H   0  0  0  0  0  0  0  0  0  0  0  0
   -1.8412    0.5010    0.1901 H   0  0  0  0  0  0  0  0  0  0  0  0
  1  2  2  3
  1  4  1  0
  1  5  1  0
  2  3  1  0
  2  6  1  0
  3  7  1  0
  3  8  1  0
  3  9  1  0
M  END
>  <reaction>  (1) 
rxn_1623

>  <mol_properties>  (1) 
{"1": {"label": "donator", "atom_type": "Cd"}, "5": {"label": "d_hydrogen", "atom_type": "H0"}}

>  <type>  (1) 
r1h

$$$$

     RDKit          3D

  7  6  0  0  0  0  0  0  0  0999 V2000
    1.3002    0.7433    2.1279 C   0  0  0  0  0  0  0  0  0  0  0  0
    0.5758    0.3292    1.2319 C   0  0  0  0  0  0  0  0  0  0  0  0
   -0.2057   -0.1176    0.2652 C   0  0  0  0  0  3  0  0  0  0  0  0
   -0.9747   -0.5572   -0.6858 C   0  0  0  0  0  0  0  0  0  0  0  0
    1.9293    1.1030    2.9059 H   0  0  0  0  0  0  0  0  0  0  0  0
   -1.9977   -0.8727   -0.4932 H   0  0  0  0  0  0  0  0  0  0  0  0
   -0.6274   -0.6280   -1.7143 H   0  0  0  0  0  0  0  0  0  0  0  0
  1  2  3  0
  1  5  1  0
  2  3  1  0
  3  4  2  3
  4  6  1  0
  4  7  1  0
M  RAD  1   3   2
M  END
>  <reaction>  (2) 
rxn_1623

>  <mol_properties>  (2) 
{"2": {"label": "acceptor", "atom_type": "Cd"}}

>  <type>  (2) 
r2

$$$$

     RDKit          3D

  8  7  0  0  0  0  0  0  0  0999 V2000
    1.9029    0.9046   -0.2050 C   0  0  0  0  0  0  0  0  0  0  0  0
    0.8517    0.4283    0.1217 C   0  0  0  0  0  0  0  0  0  0  0  0
   -0.3908   -0.1311    0.5404 C   0  0  0  0  0  0  0  0  0  0  0  0
   -1.2847   -0.6576   -0.2899 C   0  0  0  0  0  0  0  0  0  0  0  0
    2.8335    1.3255   -0.5014 H   0  0  0  0  0  0  0  0  0  0  0  0
   -0.5867   -0.1096    1.6074 H   0  0  0  0  0  0  0  0  0  0  0  0
   -2.2126   -1.0686    0.0850 H   0  0  0  0  0  0  0  0  0  0  0  0
   -1.1134   -0.6914   -1.3582 H   0  0  0  0  0  0  0  0  0  0  0  0
  1  2  3  0
  1  5  1  0
  2  3  1  0
  3  4  2  3
  3  6  1  0
  4  7  1  0
  4  8  1  0
M  END
>  <reaction>  (3) 
rxn_1623

>  <mol_properties>  (3) 
{"2": {"label": "acceptor", "atom_type": "Cd"}, "7": {"label": "a_hydrogen", "atom_type": "H0"}}

>  <type>  (3) 
r2h

$$$$

     RDKit          3D

 16 14  0  0  0  0  0  0  0  0999 V2000
   -1.2998   -1.1909    2.3790 C   0  0  0  0  0  0  0  0  0  0  0  0
   -0.5277   -1.1476    1.4567 C   0  0  0  0  0  0  0  0  0  0  0  0
    0.3288   -0.9894    0.3597 C   0  0  0  0  0  0  0  0  0  0  0  0
    1.2660   -1.7838   -0.1275 C   0  0  0  0  0  0  0  0  0  0  0  0
   -1.9745   -1.2524    3.1987 H   0  0  0  0  0  0  0  0  0  0  0  0
    1.4883   -2.7487    0.3166 H   0  0  0  0  0  0  0  0  0  0  0  0
    1.8441   -1.4850   -0.9943 H   0  0  0  0  0  0  0  0  0  0  0  0
   -0.1039    1.0465   -2.3276 C   0  0  0  0  0  0  0  0  0  0  0  0
    0.0820    1.2543   -1.0444 C   0  0  0  0  0  3  0  0  0  0  0  0
    0.2237    2.4887   -0.2407 C   0  0  0  0  0  0  0  0  0  0  0  0
   -0.1949    0.0455   -2.7340 H   0  0  0  0  0  0  0  0  0  0  0  0
   -0.1791    1.8743   -3.0304 H   0  0  0  0  0  0  0  0  0  0  0  0
    0.1684    0.1295   -0.2922 H   0  0  0  0  0  0  0  0  0  0  0  0
   -0.5508    2.5397    0.5278 H   0  0  0  0  0  0  0  0  0  0  0  0
    0.1450    3.3782   -0.8726 H   0  0  0  0  0  0  0  0  0  0  0  0
    1.1887    2.5099    0.2702 H   0  0  0  0  0  0  0  0  0  0  0  0
  1  2  3  0
  1  5  1  0
  2  3  1  0
  3  4  2  3
  3 13  1  0
  4  6  1  0
  4  7  1  0
  8  9  2  3
  8 11  1  0
  8 12  1  0
  9 10  1  0
 10 14  1  0
 10 15  1  0
 10 16  1  0
M  RAD  1   9   2
M  END
>  <reaction>  (4) 
rxn_1623

>  <mol_properties>  (4) 
{"1": {"label": "*0", "atom_type": "Ct"}, "2": {"label": "*1", "atom_type": "Cd"}, "7": {"label": "*4", "atom_type": "Cd"}, "8": {"label": "*3", "atom_type": "Cd"}, "12": {"label": "*2", "atom_type": "H0"}}

>  <type>  (4) 
ts

$$$$

     RDKit          3D

 16 14  0  0  0  0  0  0  0  0999 V2000
    1.8203   -1.5176    1.8080 C   0  0  0  0  0  0  0  0  0  0  0  0
    0.8705   -1.3266    1.1009 C   0  0  0  0  0  0  0  0  0  0  0  0
   -0.2391   -1.0874    0.2385 C   0  0  0  0  0  0  0  0  0  0  0  0
   -1.4971   -1.3814    0.5493 C   0  0  0  0  0  0  0  0  0  0  0  0
    2.6625   -1.6870    2.4348 H   0  0  0  0  0  0  0  0  0  0  0  0
   -1.7549   -1.8306    1.4998 H   0  0  0  0  0  0  0  0  0  0  0  0
   -2.3005   -1.1771   -0.1460 H   0  0  0  0  0  0  0  0  0  0  0  0
   -0.2391    1.1968   -2.3405 C   0  0  0  0  0  0  0  0  0  0  0  0
   -0.2391    1.1968   -1.0168 C   0  0  0  0  0  3  0  0  0  0  0  0
   -0.2391    2.4190   -0.1563 C   0  0  0  0  0  0  0  0  0  0  0  0
   -0.2391    0.2741   -2.9070 H   0  0  0  0  0  0  0  0  0  0  0  0
   -0.2391    2.1224   -2.9065 H   0  0  0  0  0  0  0  0  0  0  0  0
   -0.2391    0.0537   -0.3886 H   0  0  0  0  0  0  0  0  0  0  0  0
   -1.1168    2.4361    0.4950 H   0  0  0  0  0  0  0  0  0  0  0  0
   -0.2391    3.3295   -0.7569 H   0  0  0  0  0  0  0  0  0  0  0  0
    0.6386    2.4361    0.4950 H   0  0  0  0  0  0  0  0  0  0  0  0
  1  2  3  0
  1  5  1  0
  2  3  1  0
  3  4  2  3
  3 13  1  0
  4  6  1  0
  4  7  1  0
  8  9  2  3
  8 11  1  0
  8 12  1  0
  9 10  1  0
 10 14  1  0
 10 15  1  0
 10 16  1  0
M  RAD  1   9   2
M  END
>  <reaction>  (5) 
rxn_1623

>  <mol_properties>  (5) 
{"1": {"label": "*0", "atom_type": "Ct"}, "2": {"label": "*1", "atom_type": "Cd"}, "7": {"label": "*4", "atom_type": "Cd"}, "8": {"label": "*3", "atom_type": "Cd"}, "12": {"label": "*2", "atom_type": "H0"}}

>  <type>  (5) 
unop_1

>  <geom_source>  (5) 
Heuristics

$$$$

     RDKit          3D

 16 14  0  0  0  0  0  0  0  0999 V2000
    0.9687   -2.7830   -0.5734 C   0  0  0  0  0  0  0  0  0  0  0  0
    0.4314   -1.8862    0.0145 C   0  0  0  0  0  0  0  0  0  0  0  0
   -0.2092   -0.8041    0.6859 C   0  0  0  0  0  0  0  0  0  0  0  0
   -0.4795   -0.7940    1.9868 C   0  0  0  0  0  0  0  0  0  0  0  0
    1.4452   -3.5782   -1.0946 H   0  0  0  0  0  0  0  0  0  0  0  0
   -0.2210   -1.6293    2.6249 H   0  0  0  0  0  0  0  0  0  0  0  0
   -0.9684    0.0564    2.4433 H   0  0  0  0  0  0  0  0  0  0  0  0
   -0.2092    1.4801   -1.8932 C   0  0  0  0  0  0  0  0  0  0  0  0
   -0.2092    1.4801   -0.5695 C   0  0  0  0  0  3  0  0  0  0  0  0
   -0.2092    2.7023    0.2911 C   0  0  0  0  0  0  0  0  0  0  0  0
   -0.2092    0.5574   -2.4597 H   0  0  0  0  0  0  0  0  0  0  0  0
   -0.2092    2.4057   -2.4592 H   0  0  0  0  0  0  0  0  0  0  0  0
   -0.2092    0.3370    0.0588 H   0  0  0  0  0  0  0  0  0  0  0  0
   -1.0869    2.7194    0.9423 H   0  0  0  0  0  0  0  0  0  0  0  0
   -0.2092    3.6128   -0.3095 H   0  0  0  0  0  0  0  0  0  0  0  0
    0.6685    2.7194    0.9423 H   0  0  0  0  0  0  0  0  0  0  0  0
  1  2  3  0
  1  5  1  0
  2  3  1  0
  3  4  2  3
  3 13  1  0
  4  6  1  0
  4  7  1  0
  8  9  2  3
  8 11  1  0
  8 12  1  0
  9 10  1  0
 10 14  1  0
 10 15  1  0
 10 16  1  0
M  RAD  1   9   2
M  END
>  <reaction>  (6) 
rxn_1623

>  <mol_properties>  (6) 
{"1": {"label": "*0", "atom_type": "Ct"}, "2": {"label": "*1", "atom_type": "Cd"}, "7": {"label": "*4", "atom_type": "Cd"}, "8": {"label": "*3", "atom_type": "Cd"}, "12": {"label": "*2", "atom_type": "H0"}}

>  <type>  (6) 
unop_2

>  <geom_source>  (6) 
Heuristics

$$$$

     RDKit          3D

 16 14  0  0  0  0  0  0  0  0999 V2000
    1.1090   -1.1101    2.5103 C   0  0  0  0  0  0  0  0  0  0  0  0
    0.5528   -1.1174    1.4477 C   0  0  0  0  0  0  0  0  0  0  0  0
   -0.0878   -1.1040    0.1743 C   0  0  0  0  0  0  0  0  0  0  0  0
   -1.1358   -1.8594   -0.1369 C   0  0  0  0  0  0  0  0  0  0  0  0
    1.6021   -1.1036    3.4525 H   0  0  0  0  0  0  0  0  0  0  0  0
   -1.5719   -2.5445    0.5788 H   0  0  0  0  0  0  0  0  0  0  0  0
   -1.5819   -1.8074   -1.1212 H   0  0  0  0  0  0  0  0  0  0  0  0
   -0.0878    1.1802   -2.4047 C   0  0  0  0  0  0  0  0  0  0  0  0
   -0.0878    1.1802   -1.0810 C   0  0  0  0  0  3  0  0  0  0  0  0
   -0.0878    2.4024   -0.2205 C   0  0  0  0  0  0  0  0  0  0  0  0
   -0.0878    0.2575   -2.9712 H   0  0  0  0  0  0  0  0  0  0  0  0
   -0.0878    2.1058   -2.9707 H   0  0  0  0  0  0  0  0  0  0  0  0
   -0.0878    0.0371   -0.4528 H   0  0  0  0  0  0  0  0  0  0  0  0
   -0.9655    2.4195    0.4307 H   0  0  0  0  0  0  0  0  0  0  0  0
   -0.0878    3.3128   -0.8211 H   0  0  0  0  0  0  0  0  0  0  0  0
    0.7899    2.4195    0.4307 H   0  0  0  0  0  0  0  0  0  0  0  0
  1  2  3  0
  1  5  1  0
  2  3  1  0
  3  4  2  3
  3 13  1  0
  4  6  1  0
  4  7  1  0
  8  9  2  3
  8 11  1  0
  8 12  1  0
  9 10  1  0
 10 14  1  0
 10 15  1  0
 10 16  1  0
M  RAD  1   9   2
M  END
>  <reaction>  (7) 
rxn_1623

>  <mol_properties>  (7) 
{"1": {"label": "*0", "atom_type": "Ct"}, "2": {"label": "*1", "atom_type": "Cd"}, "7": {"label": "*4", "atom_type": "Cd"}, "8": {"label": "*3", "atom_type": "Cd"}, "12": {"label": "*2", "atom_type": "H0"}}

>  <type>  (7) 
unop_3

>  <geom_source>  (7) 
Heuristics

$$$$

     RDKit          3D

 16 14  0  0  0  0  0  0  0  0999 V2000
   -1.7091   -2.4660    0.0418 C   0  0  0  0  0  0  0  0  0  0  0  0
   -0.7742   -1.7553    0.2857 C   0  0  0  0  0  0  0  0  0  0  0  0
    0.3353   -0.8991    0.5462 C   0  0  0  0  0  0  0  0  0  0  0  0
    0.9764   -0.8484    1.7090 C   0  0  0  0  0  0  0  0  0  0  0  0
   -2.5380   -3.0961   -0.1746 H   0  0  0  0  0  0  0  0  0  0  0  0
    0.6832   -1.4712    2.5443 H   0  0  0  0  0  0  0  0  0  0  0  0
    1.8138   -0.1778    1.8498 H   0  0  0  0  0  0  0  0  0  0  0  0
    0.3353    1.3852   -2.0329 C   0  0  0  0  0  0  0  0  0  0  0  0
    0.3353    1.3852   -0.7092 C   0  0  0  0  0  3  0  0  0  0  0  0
    0.3353    2.6074    0.1514 C   0  0  0  0  0  0  0  0  0  0  0  0
    0.3353    0.4625   -2.5994 H   0  0  0  0  0  0  0  0  0  0  0  0
    0.3353    2.3108   -2.5989 H   0  0  0  0  0  0  0  0  0  0  0  0
    0.3353    0.2420   -0.0809 H   0  0  0  0  0  0  0  0  0  0  0  0
   -0.5424    2.6245    0.8026 H   0  0  0  0  0  0  0  0  0  0  0  0
    0.3353    3.5178   -0.4492 H   0  0  0  0  0  0  0  0  0  0  0  0
    1.2130    2.6245    0.8026 H   0  0  0  0  0  0  0  0  0  0  0  0
  1  2  3  0
  1  5  1  0
  2  3  1  0
  3  4  2  3
  3 13  1  0
  4  6  1  0
  4  7  1  0
  8  9  2  3
  8 11  1  0
  8 12  1  0
  9 10  1  0
 10 14  1  0
 10 15  1  0
 10 16  1  0
M  RAD  1   9   2
M  END
>  <reaction>  (8) 
rxn_1623

>  <mol_properties>  (8) 
{"1": {"label": "*0", "atom_type": "Ct"}, "2": {"label": "*1", "atom_type": "Cd"}, "7": {"label": "*4", "atom_type": "Cd"}, "8": {"label": "*3", "atom_type": "Cd"}, "12": {"label": "*2", "atom_type": "H0"}}

>  <type>  (8) 
unop_4

>  <geom_source>  (8) 
Heuristics

$$$$

     RDKit          3D

 16 14  0  0  0  0  0  0  0  0999 V2000
   -0.0000   -0.9225    2.7942 C   0  0  0  0  0  0  0  0  0  0  0  0
   -0.0000   -1.0076    1.5978 C   0  0  0  0  0  0  0  0  0  0  0  0
   -0.0000   -1.0769    0.1740 C   0  0  0  0  0  0  0  0  0  0  0  0
   -0.0000   -2.2141   -0.5134 C   0  0  0  0  0  0  0  0  0  0  0  0
   -0.0000   -0.8471    3.8550 H   0  0  0  0  0  0  0  0  0  0  0  0
   -0.0000   -3.1756   -0.0163 H   0  0  0  0  0  0  0  0  0  0  0  0
   -0.0000   -2.2061   -1.5953 H   0  0  0  0  0  0  0  0  0  0  0  0
    0.0000    1.2074   -2.4051 C   0  0  0  0  0  0  0  0  0  0  0  0
    0.0000    1.2074   -1.0813 C   0  0  0  0  0  3  0  0  0  0  0  0
    0.0000    2.4295   -0.2208 C   0  0  0  0  0  0  0  0  0  0  0  0
    0.0000    0.2846   -2.9715 H   0  0  0  0  0  0  0  0  0  0  0  0
    0.0000    2.1330   -2.9711 H   0  0  0  0  0  0  0  0  0  0  0  0
    0.0000    0.0642   -0.4531 H   0  0  0  0  0  0  0  0  0  0  0  0
   -0.8777    2.4467    0.4304 H   0  0  0  0  0  0  0  0  0  0  0  0
    0.0000    3.3400   -0.8214 H   0  0  0  0  0  0  0  0  0  0  0  0
    0.8777    2.4467    0.4304 H   0  0  0  0  0  0  0  0  0  0  0  0
  1  2  3  0
  1  5  1  0
  2  3  1  0
  3  4  2  3
  3 13  1  0
  4  6  1  0
  4  7  1  0
  8  9  2  3
  8 11  1  0
  8 12  1  0
  9 10  1  0
 10 14  1  0
 10 15  1  0
 10 16  1  0
M  RAD  1   9   2
M  END
>  <reaction>  (9) 
rxn_1623

>  <mol_properties>  (9) 
{"1": {"label": "*0", "atom_type": "Ct"}, "2": {"label": "*1", "atom_type": "Cd"}, "7": {"label": "*4", "atom_type": "Cd"}, "8": {"label": "*3", "atom_type": "Cd"}, "12": {"label": "*2", "atom_type": "H0"}}

>  <type>  (9) 
unop_5

>  <geom_source>  (9) 
Heuristics

$$$$

     RDKit          3D

 16 14  0  0  0  0  0  0  0  0999 V2000
   -2.0265   -2.0083    0.9074 C   0  0  0  0  0  0  0  0  0  0  0  0
   -0.9399   -1.5552    0.6782 C   0  0  0  0  0  0  0  0  0  0  0  0
    0.3413   -1.0075    0.3772 C   0  0  0  0  0  0  0  0  0  0  0  0
    1.3756   -1.0377    1.2110 C   0  0  0  0  0  0  0  0  0  0  0  0
   -2.9900   -2.4100    1.1106 H   0  0  0  0  0  0  0  0  0  0  0  0
    1.2995   -1.4920    2.1905 H   0  0  0  0  0  0  0  0  0  0  0  0
    2.3262   -0.6053    0.9284 H   0  0  0  0  0  0  0  0  0  0  0  0
    0.3413    1.2767   -2.2019 C   0  0  0  0  0  0  0  0  0  0  0  0
    0.3413    1.2767   -0.8781 C   0  0  0  0  0  3  0  0  0  0  0  0
    0.3413    2.4989   -0.0176 C   0  0  0  0  0  0  0  0  0  0  0  0
    0.3413    0.3540   -2.7683 H   0  0  0  0  0  0  0  0  0  0  0  0
    0.3413    2.2023   -2.7679 H   0  0  0  0  0  0  0  0  0  0  0  0
    0.3413    0.1336   -0.2499 H   0  0  0  0  0  0  0  0  0  0  0  0
   -0.5364    2.5160    0.6336 H   0  0  0  0  0  0  0  0  0  0  0  0
    0.3413    3.4094   -0.6182 H   0  0  0  0  0  0  0  0  0  0  0  0
    1.2191    2.5160    0.6336 H   0  0  0  0  0  0  0  0  0  0  0  0
  1  2  3  0
  1  5  1  0
  2  3  1  0
  3  4  2  3
  3 13  1  0
  4  6  1  0
  4  7  1  0
  8  9  2  3
  8 11  1  0
  8 12  1  0
  9 10  1  0
 10 14  1  0
 10 15  1  0
 10 16  1  0
M  RAD  1   9   2
M  END
>  <reaction>  (10) 
rxn_1623

>  <mol_properties>  (10) 
{"1": {"label": "*0", "atom_type": "Ct"}, "2": {"label": "*1", "atom_type": "Cd"}, "7": {"label": "*4", "atom_type": "Cd"}, "8": {"label": "*3", "atom_type": "Cd"}, "12": {"label": "*2", "atom_type": "H0"}}

>  <type>  (10) 
unop_6

>  <geom_source>  (10) 
Heuristics

$$$$

     RDKit          3D

 16 14  0  0  0  0  0  0  0  0999 V2000
   -1.8203   -1.5176    1.8080 C   0  0  0  0  0  0  0  0  0  0  0  0
   -0.8705   -1.3266    1.1009 C   0  0  0  0  0  0  0  0  0  0  0  0
    0.2391   -1.0874    0.2385 C   0  0  0  0  0  0  0  0  0  0  0  0
    1.4971   -1.3814    0.5493 C   0  0  0  0  0  0  0  0  0  0  0  0
   -2.6625   -1.6870    2.4348 H   0  0  0  0  0  0  0  0  0  0  0  0
    1.7549   -1.8306    1.4998 H   0  0  0  0  0  0  0  0  0  0  0  0
    2.3005   -1.1771   -0.1460 H   0  0  0  0  0  0  0  0  0  0  0  0
    0.2391    1.1968   -2.3405 C   0  0  0  0  0  0  0  0  0  0  0  0
    0.2391    1.1968   -1.0168 C   0  0  0  0  0  3  0  0  0  0  0  0
    0.2391    2.4190   -0.1563 C   0  0  0  0  0  0  0  0  0  0  0  0
    0.2391    0.2741   -2.9070 H   0  0  0  0  0  0  0  0  0  0  0  0
    0.2391    2.1224   -2.9065 H   0  0  0  0  0  0  0  0  0  0  0  0
    0.2391    0.0537   -0.3886 H   0  0  0  0  0  0  0  0  0  0  0  0
   -0.6386    2.4361    0.4950 H   0  0  0  0  0  0  0  0  0  0  0  0
    0.2391    3.3295   -0.7569 H   0  0  0  0  0  0  0  0  0  0  0  0
    1.1168    2.4361    0.4950 H   0  0  0  0  0  0  0  0  0  0  0  0
  1  2  3  0
  1  5  1  0
  2  3  1  0
  3  4  2  3
  3 13  1  0
  4  6  1  0
  4  7  1  0
  8  9  2  3
  8 11  1  0
  8 12  1  0
  9 10  1  0
 10 14  1  0
 10 15  1  0
 10 16  1  0
M  RAD  1   9   2
M  END
>  <reaction>  (11) 
rxn_1623

>  <mol_properties>  (11) 
{"1": {"label": "*0", "atom_type": "Ct"}, "2": {"label": "*1", "atom_type": "Cd"}, "7": {"label": "*4", "atom_type": "Cd"}, "8": {"label": "*3", "atom_type": "Cd"}, "12": {"label": "*2", "atom_type": "H0"}}

>  <type>  (11) 
unop_7

>  <geom_source>  (11) 
Heuristics

$$$$

     RDKit          3D

 16 14  0  0  0  0  0  0  0  0999 V2000
    2.0265   -2.0083    0.9074 C   0  0  0  0  0  0  0  0  0  0  0  0
    0.9399   -1.5552    0.6782 C   0  0  0  0  0  0  0  0  0  0  0  0
   -0.3413   -1.0075    0.3772 C   0  0  0  0  0  0  0  0  0  0  0  0
   -1.3756   -1.0377    1.2110 C   0  0  0  0  0  0  0  0  0  0  0  0
    2.9900   -2.4100    1.1106 H   0  0  0  0  0  0  0  0  0  0  0  0
   -1.2995   -1.4920    2.1905 H   0  0  0  0  0  0  0  0  0  0  0  0
   -2.3262   -0.6053    0.9284 H   0  0  0  0  0  0  0  0  0  0  0  0
   -0.3413    1.2767   -2.2019 C   0  0  0  0  0  0  0  0  0  0  0  0
   -0.3413    1.2767   -0.8781 C   0  0  0  0  0  3  0  0  0  0  0  0
   -0.3413    2.4989   -0.0176 C   0  0  0  0  0  0  0  0  0  0  0  0
   -0.3413    0.3540   -2.7683 H   0  0  0  0  0  0  0  0  0  0  0  0
   -0.3413    2.2023   -2.7679 H   0  0  0  0  0  0  0  0  0  0  0  0
   -0.3413    0.1336   -0.2499 H   0  0  0  0  0  0  0  0  0  0  0  0
   -1.2191    2.5160    0.6336 H   0  0  0  0  0  0  0  0  0  0  0  0
   -0.3413    3.4094   -0.6182 H   0  0  0  0  0  0  0  0  0  0  0  0
    0.5364    2.5160    0.6336 H   0  0  0  0  0  0  0  0  0  0  0  0
  1  2  3  0
  1  5  1  0
  2  3  1  0
  3  4  2  3
  3 13  1  0
  4  6  1  0
  4  7  1  0
  8  9  2  3
  8 11  1  0
  8 12  1  0
  9 10  1  0
 10 14  1  0
 10 15  1  0
 10 16  1  0
M  RAD  1   9   2
M  END
>  <reaction>  (12) 
rxn_1623

>  <mol_properties>  (12) 
{"1": {"label": "*0", "atom_type": "Ct"}, "2": {"label": "*1", "atom_type": "Cd"}, "7": {"label": "*4", "atom_type": "Cd"}, "8": {"label": "*3", "atom_type": "Cd"}, "12": {"label": "*2", "atom_type": "H0"}}

>  <type>  (12) 
unop_8

>  <geom_source>  (12) 
Heuristics

$$$$

     RDKit          3D

 16 14  0  0  0  0  0  0  0  0999 V2000
   -0.9687   -2.7830   -0.5734 C   0  0  0  0  0  0  0  0  0  0  0  0
   -0.4314   -1.8862    0.0145 C   0  0  0  0  0  0  0  0  0  0  0  0
    0.2092   -0.8041    0.6859 C   0  0  0  0  0  0  0  0  0  0  0  0
    0.4795   -0.7940    1.9868 C   0  0  0  0  0  0  0  0  0  0  0  0
   -1.4452   -3.5782   -1.0946 H   0  0  0  0  0  0  0  0  0  0  0  0
    0.2210   -1.6293    2.6249 H   0  0  0  0  0  0  0  0  0  0  0  0
    0.9684    0.0564    2.4433 H   0  0  0  0  0  0  0  0  0  0  0  0
    0.2092    1.4801   -1.8932 C   0  0  0  0  0  0  0  0  0  0  0  0
    0.2092    1.4801   -0.5695 C   0  0  0  0  0  3  0  0  0  0  0  0
    0.2092    2.7023    0.2911 C   0  0  0  0  0  0  0  0  0  0  0  0
    0.2092    0.5574   -2.4597 H   0  0  0  0  0  0  0  0  0  0  0  0
    0.2092    2.4057   -2.4592 H   0  0  0  0  0  0  0  0  0  0  0  0
    0.2092    0.3370    0.0588 H   0  0  0  0  0  0  0  0  0  0  0  0
   -0.6685    2.7194    0.9423 H   0  0  0  0  0  0  0  0  0  0  0  0
    0.2092    3.6128   -0.3095 H   0  0  0  0  0  0  0  0  0  0  0  0
    1.0869    2.7194    0.9423 H   0  0  0  0  0  0  0  0  0  0  0  0
  1  2  3  0
  1  5  1  0
  2  3  1  0
  3  4  2  3
  3 13  1  0
  4  6  1  0
  4  7  1  0
  8  9  2  3
  8 11  1  0
  8 12  1  0
  9 10  1  0
 10 14  1  0
 10 15  1  0
 10 16  1  0
M  RAD  1   9   2
M  END
>  <reaction>  (13) 
rxn_1623

>  <mol_properties>  (13) 
{"1": {"label": "*0", "atom_type": "Ct"}, "2": {"label": "*1", "atom_type": "Cd"}, "7": {"label": "*4", "atom_type": "Cd"}, "8": {"label": "*3", "atom_type": "Cd"}, "12": {"label": "*2", "atom_type": "H0"}}

>  <type>  (13) 
unop_9

>  <geom_source>  (13) 
Heuristics

$$$$

     RDKit          3D

 16 14  0  0  0  0  0  0  0  0999 V2000
    1.7091   -2.4660    0.0418 C   0  0  0  0  0  0  0  0  0  0  0  0
    0.7742   -1.7553    0.2857 C   0  0  0  0  0  0  0  0  0  0  0  0
   -0.3353   -0.8991    0.5462 C   0  0  0  0  0  0  0  0  0  0  0  0
   -0.9764   -0.8484    1.7090 C   0  0  0  0  0  0  0  0  0  0  0  0
    2.5380   -3.0961   -0.1746 H   0  0  0  0  0  0  0  0  0  0  0  0
   -0.6832   -1.4712    2.5443 H   0  0  0  0  0  0  0  0  0  0  0  0
   -1.8138   -0.1778    1.8498 H   0  0  0  0  0  0  0  0  0  0  0  0
   -0.3353    1.3852   -2.0329 C   0  0  0  0  0  0  0  0  0  0  0  0
   -0.3353    1.3852   -0.7092 C   0  0  0  0  0  3  0  0  0  0  0  0
   -0.3353    2.6074    0.1514 C   0  0  0  0  0  0  0  0  0  0  0  0
   -0.3353    0.4625   -2.5994 H   0  0  0  0  0  0  0  0  0  0  0  0
   -0.3353    2.3108   -2.5989 H   0  0  0  0  0  0  0  0  0  0  0  0
   -0.3353    0.2420   -0.0809 H   0  0  0  0  0  0  0  0  0  0  0  0
   -1.2130    2.6245    0.8026 H   0  0  0  0  0  0  0  0  0  0  0  0
   -0.3353    3.5178   -0.4492 H   0  0  0  0  0  0  0  0  0  0  0  0
    0.5424    2.6245    0.8026 H   0  0  0  0  0  0  0  0  0  0  0  0
  1  2  3  0
  1  5  1  0
  2  3  1  0
  3  4  2  3
  3 13  1  0
  4  6  1  0
  4  7  1  0
  8  9  2  3
  8 11  1  0
  8 12  1  0
  9 10  1  0
 10 14  1  0
 10 15  1  0
 10 16  1  0
M  RAD  1   9   2
M  END
>  <reaction>  (14) 
rxn_1623

>  <mol_properties>  (14) 
{"1": {"label": "*0", "atom_type": "Ct"}, "2": {"label": "*1", "atom_type": "Cd"}, "7": {"label": "*4", "atom_type": "Cd"}, "8": {"label": "*3", "atom_type": "Cd"}, "12": {"label": "*2", "atom_type": "H0"}}

>  <type>  (14) 
unop_10

>  <geom_source>  (14) 
Heuristics

$$$$

     RDKit          3D

 16 14  0  0  0  0  0  0  0  0999 V2000
   -1.1090   -1.1101    2.5103 C   0  0  0  0  0  0  0  0  0  0  0  0
   -0.5528   -1.1174    1.4477 C   0  0  0  0  0  0  0  0  0  0  0  0
    0.0878   -1.1040    0.1743 C   0  0  0  0  0  0  0  0  0  0  0  0
    1.1358   -1.8594   -0.1369 C   0  0  0  0  0  0  0  0  0  0  0  0
   -1.6021   -1.1036    3.4525 H   0  0  0  0  0  0  0  0  0  0  0  0
    1.5719   -2.5445    0.5788 H   0  0  0  0  0  0  0  0  0  0  0  0
    1.5819   -1.8074   -1.1212 H   0  0  0  0  0  0  0  0  0  0  0  0
    0.0878    1.1802   -2.4047 C   0  0  0  0  0  0  0  0  0  0  0  0
    0.0878    1.1802   -1.0810 C   0  0  0  0  0  3  0  0  0  0  0  0
    0.0878    2.4024   -0.2205 C   0  0  0  0  0  0  0  0  0  0  0  0
    0.0878    0.2575   -2.9712 H   0  0  0  0  0  0  0  0  0  0  0  0
    0.0878    2.1058   -2.9707 H   0  0  0  0  0  0  0  0  0  0  0  0
    0.0878    0.0371   -0.4528 H   0  0  0  0  0  0  0  0  0  0  0  0
   -0.7899    2.4195    0.4307 H   0  0  0  0  0  0  0  0  0  0  0  0
    0.0878    3.3128   -0.8211 H   0  0  0  0  0  0  0  0  0  0  0  0
    0.9655    2.4195    0.4307 H   0  0  0  0  0  0  0  0  0  0  0  0
  1  2  3  0
  1  5  1  0
  2  3  1  0
  3  4  2  3
  3 13  1  0
  4  6  1  0
  4  7  1  0
  8  9  2  3
  8 11  1  0
  8 12  1  0
  9 10  1  0
 10 14  1  0
 10 15  1  0
 10 16  1  0
M  RAD  1   9   2
M  END
>  <reaction>  (15) 
rxn_1623

>  <mol_properties>  (15) 
{"1": {"label": "*0", "atom_type": "Ct"}, "2": {"label": "*1", "atom_type": "Cd"}, "7": {"label": "*4", "atom_type": "Cd"}, "8": {"label": "*3", "atom_type": "Cd"}, "12": {"label": "*2", "atom_type": "H0"}}

>  <type>  (15) 
unop_11

>  <geom_source>  (15) 
Heuristics

$$$$

     RDKit          3D

 16 14  0  0  0  0  0  0  0  0999 V2000
   -0.0000   -2.8946   -0.7944 C   0  0  0  0  0  0  0  0  0  0  0  0
   -0.0000   -1.9303   -0.0812 C   0  0  0  0  0  0  0  0  0  0  0  0
   -0.0000   -0.7655    0.7406 C   0  0  0  0  0  0  0  0  0  0  0  0
   -0.0000   -0.7949    2.0691 C   0  0  0  0  0  0  0  0  0  0  0  0
   -0.0000   -3.7497   -1.4267 H   0  0  0  0  0  0  0  0  0  0  0  0
    0.0000   -1.7300    2.6143 H   0  0  0  0  0  0  0  0  0  0  0  0
    0.0000    0.1227    2.6423 H   0  0  0  0  0  0  0  0  0  0  0  0
    0.0000    1.5187   -1.8385 C   0  0  0  0  0  0  0  0  0  0  0  0
    0.0000    1.5187   -0.5147 C   0  0  0  0  0  3  0  0  0  0  0  0
    0.0000    2.7409    0.3458 C   0  0  0  0  0  0  0  0  0  0  0  0
    0.0000    0.5960   -2.4049 H   0  0  0  0  0  0  0  0  0  0  0  0
    0.0000    2.4443   -2.4045 H   0  0  0  0  0  0  0  0  0  0  0  0
    0.0000    0.3756    0.1135 H   0  0  0  0  0  0  0  0  0  0  0  0
   -0.8777    2.7580    0.9970 H   0  0  0  0  0  0  0  0  0  0  0  0
    0.0000    3.6514   -0.2548 H   0  0  0  0  0  0  0  0  0  0  0  0
    0.8777    2.7580    0.9970 H   0  0  0  0  0  0  0  0  0  0  0  0
  1  2  3  0
  1  5  1  0
  2  3  1  0
  3  4  2  3
  3 13  1  0
  4  6  1  0
  4  7  1  0
  8  9  2  3
  8 11  1  0
  8 12  1  0
  9 10  1  0
 10 14  1  0
 10 15  1  0
 10 16  1  0
M  RAD  1   9   2
M  END
>  <reaction>  (16) 
rxn_1623

>  <mol_properties>  (16) 
{"1": {"label": "*0", "atom_type": "Ct"}, "2": {"label": "*1", "atom_type": "Cd"}, "7": {"label": "*4", "atom_type": "Cd"}, "8": {"label": "*3", "atom_type": "Cd"}, "12": {"label": "*2", "atom_type": "H0"}}

>  <type>  (16) 
unop_12

>  <geom_source>  (16) 
Heuristics

$$$$

     RDKit          3D

 16 14  0  0  0  0  0  0  0  0999 V2000
   -1.7865   -0.3441   -0.5797 C   0  0  0  0  0  0  0  0  0  0  0  0
    1.3996   -0.0421    0.1081 C   0  0  0  0  0  3  0  0  0  0  0  0
    2.3962   -0.4557    0.8816 C   0  0  0  0  0  0  0  0  0  0  0  0
   -1.8257    0.6655    1.6755 C   0  0  0  0  0  0  0  0  0  0  0  0
   -1.1230    0.2514    0.6206 C   0  0  0  0  0  0  0  0  0  0  0  0
    1.5836    0.1208   -1.3087 C   0  0  0  0  0  0  0  0  0  0  0  0
    1.7367    0.2577   -2.4966 C   0  0  0  0  0  0  0  0  0  0  0  0
   -1.0127   -0.6142   -1.3273 H   0  0  0  0  0  0  0  0  0  0  0  0
   -2.4854    0.3911   -1.0318 H   0  0  0  0  0  0  0  0  0  0  0  0
   -2.3453   -1.2592   -0.2906 H   0  0  0  0  0  0  0  0  0  0  0  0
    0.2011    0.2289    0.6529 H   0  0  0  0  0  0  0  0  0  0  0  0
    3.3718   -0.6807    0.4673 H   0  0  0  0  0  0  0  0  0  0  0  0
    2.2375   -0.5718    1.9452 H   0  0  0  0  0  0  0  0  0  0  0  0
   -1.3108    1.0925    2.5289 H   0  0  0  0  0  0  0  0  0  0  0  0
   -2.9083    0.5820    1.6941 H   0  0  0  0  0  0  0  0  0  0  0  0
    1.8713    0.3779   -3.5394 H   0  0  0  0  0  0  0  0  0  0  0  0
  1  5  1  0
  1  8  1  0
  1  9  1  0
  1 10  1  0
  2  3  2  3
  2  6  1  0
  3 12  1  0
  3 13  1  0
  4  5  2  3
  4 14  1  0
  4 15  1  0
  5 11  1  0
  6  7  3  0
  7 16  1  0
M  RAD  1   2   2
M  END
>  <reaction>  (17) 
rxn_1623

>  <mol_properties>  (17) 
{"1": {"label": "*0", "atom_type": "Ct"}, "2": {"label": "*1", "atom_type": "Cd"}, "7": {"label": "*4", "atom_type": "Cd"}, "8": {"label": "*3", "atom_type": "Cd"}, "12": {"label": "*2", "atom_type": "H0"}}

>  <type>  (17) 
unop_13

>  <geom_source>  (17) 
AutoTST

$$$$
