
     RDKit          3D

 10  9  0  0  0  0  0  0  0  0999 V2000
    1.8334    0.0847   -0.1062 C   0  0  0  0  0  0  0  0  0  0  0  0
    0.5993   -0.4071   -0.0750 C   0  0  0  0  0  0  0  0  0  0  0  0
   -0.5993    0.4071    0.0750 C   0  0  0  0  0  0  0  0  0  0  0  0
   -1.8334   -0.0847    0.1062 C   0  0  0  0  0  0  0  0  0  0  0  0
    2.0179    1.1498   -0.0189 H   0  0  0  0  0  0  0  0  0  0  0  0
    2.6972   -0.5572   -0.2194 H   0  0  0  0  0  0  0  0  0  0  0  0
    0.4465   -1.4793   -0.1649 H   0  0  0  0  0  0  0  0  0  0  0  0
   -0.4465    1.4793    0.1649 H   0  0  0  0  0  0  0  0  0  0  0  0
   -2.0179   -1.1498    0.0189 H   0  0  0  0  0  0  0  0  0  0  0  0
   -2.6972    0.5572    0.2194 H   0  0  0  0  0  0  0  0  0  0  0  0
  1  2  2  3
  1  5  1  0
  1  6  1  0
  2  3  1  0
  2  7  1  0
  3  4  2  3
  3  8  1  0
  4  9  1  0
  4 10  1  0
M  END
>  <reaction>  (1) 
rxn_1663

>  <mol_properties>  (1) 
{"2": {"label": "donator", "atom_type": "Cd"}, "7": {"label": "d_hydrogen", "atom_type": "H0"}}

>  <type>  (1) 
r1h

$$$$

     RDKit          3D

 20 20  0  0  0  0  0  0  0  0999 V2000
   -2.4774    0.8083    0.1488 C   0  0  0  0  0  0  0  0  0  0  0  0
   -1.4172   -0.1696   -0.2476 C   0  0  0  0  0  3  0  0  0  0  0  0
   -0.2904    0.2932   -1.1156 C   0  0  0  0  0  0  0  0  0  0  0  0
   -1.4797   -1.5204    0.1947 C   0  0  0  0  0  0  0  0  0  0  0  0
   -0.4907   -2.4664   -0.1650 C   0  0  0  0  0  0  0  0  0  0  0  0
   -0.5559   -3.7750    0.2665 C   0  0  0  0  0  0  0  0  0  0  0  0
   -1.6038   -4.2041    1.0733 C   0  0  0  0  0  0  0  0  0  0  0  0
   -2.5899   -3.2959    1.4424 C   0  0  0  0  0  0  0  0  0  0  0  0
   -2.5339   -1.9852    1.0162 C   0  0  0  0  0  0  0  0  0  0  0  0
   -3.4697    0.4933   -0.1924 H   0  0  0  0  0  0  0  0  0  0  0  0
   -2.5434    0.9184    1.2368 H   0  0  0  0  0  0  0  0  0  0  0  0
   -2.2829    1.7944   -0.2706 H   0  0  0  0  0  0  0  0  0  0  0  0
   -0.2452   -0.2661   -2.0565 H   0  0  0  0  0  0  0  0  0  0  0  0
   -0.3905    1.3487   -1.3647 H   0  0  0  0  0  0  0  0  0  0  0  0
    0.6811    0.1589   -0.6274 H   0  0  0  0  0  0  0  0  0  0  0  0
    0.3373   -2.1635   -0.7918 H   0  0  0  0  0  0  0  0  0  0  0  0
    0.2187   -4.4725   -0.0281 H   0  0  0  0  0  0  0  0  0  0  0  0
   -1.6513   -5.2316    1.4097 H   0  0  0  0  0  0  0  0  0  0  0  0
   -3.4116   -3.6175    2.0706 H   0  0  0  0  0  0  0  0  0  0  0  0
   -3.3164   -1.3029    1.3205 H   0  0  0  0  0  0  0  0  0  0  0  0
  1  2  1  0
  1 10  1  0
  1 11  1  0
  1 12  1  0
  2  3  1  0
  2  4  1  0
  3 13  1  0
  3 14  1  0
  3 15  1  0
  4  5  2  0
  4  9  1  0
  5  6  1  0
  5 16  1  0
  6  7  2  0
  6 17  1  0
  7  8  1  0
  7 18  1  0
  8  9  2  0
  8 19  1  0
  9 20  1  0
M  RAD  1   2   2
M  END
>  <reaction>  (2) 
rxn_1663

>  <mol_properties>  (2) 
{"1": {"label": "acceptor", "atom_type": "Cs"}}

>  <type>  (2) 
r2

$$$$

     RDKit          3D

 21 21  0  0  0  0  0  0  0  0999 V2000
   -1.3695    1.3367   -1.0719 C   0  0  0  0  0  0  0  0  0  0  0  0
   -1.4091   -0.0981   -0.5428 C   0  0  0  0  0  0  0  0  0  0  0  0
   -0.1819   -0.3999    0.3191 C   0  0  0  0  0  0  0  0  0  0  0  0
   -1.5636   -1.1028   -1.6652 C   0  0  0  0  0  0  0  0  0  0  0  0
   -0.5920   -1.2314   -2.6553 C   0  0  0  0  0  0  0  0  0  0  0  0
   -0.7353   -2.1509   -3.6809 C   0  0  0  0  0  0  0  0  0  0  0  0
   -1.8582   -2.9642   -3.7377 C   0  0  0  0  0  0  0  0  0  0  0  0
   -2.8325   -2.8475   -2.7602 C   0  0  0  0  0  0  0  0  0  0  0  0
   -2.6828   -1.9241   -1.7351 C   0  0  0  0  0  0  0  0  0  0  0  0
   -0.4920    1.4974   -1.7025 H   0  0  0  0  0  0  0  0  0  0  0  0
   -2.2553    1.5607   -1.6679 H   0  0  0  0  0  0  0  0  0  0  0  0
   -1.3211    2.0496   -0.2461 H   0  0  0  0  0  0  0  0  0  0  0  0
   -2.2930   -0.1918    0.0948 H   0  0  0  0  0  0  0  0  0  0  0  0
   -0.1215    0.2955    1.1588 H   0  0  0  0  0  0  0  0  0  0  0  0
   -0.2200   -1.4155    0.7159 H   0  0  0  0  0  0  0  0  0  0  0  0
    0.7383   -0.3016   -0.2615 H   0  0  0  0  0  0  0  0  0  0  0  0
    0.2915   -0.6040   -2.6263 H   0  0  0  0  0  0  0  0  0  0  0  0
    0.0326   -2.2338   -4.4401 H   0  0  0  0  0  0  0  0  0  0  0  0
   -1.9712   -3.6833   -4.5391 H   0  0  0  0  0  0  0  0  0  0  0  0
   -3.7135   -3.4765   -2.7932 H   0  0  0  0  0  0  0  0  0  0  0  0
   -3.4509   -1.8400   -0.9743 H   0  0  0  0  0  0  0  0  0  0  0  0
  1  2  1  0
  1 10  1  0
  1 11  1  0
  1 12  1  0
  2  3  1  0
  2  4  1  0
  2 13  1  0
  3 14  1  0
  3 15  1  0
  3 16  1  0
  4  5  2  0
  4  9  1  0
  5  6  1  0
  5 17  1  0
  6  7  2  0
  6 18  1  0
  7  8  1  0
  7 19  1  0
  8  9  2  0
  8 20  1  0
  9 21  1  0
M  END
>  <reaction>  (3) 
rxn_1663

>  <mol_properties>  (3) 
{"0": {"label": "a_hydrogen", "atom_type": "H0"}, "2": {"label": "acceptor", "atom_type": "Cs"}}

>  <type>  (3) 
r2h

$$$$

     RDKit          3D

 30 29  0  0  0  0  0  0  0  0999 V2000
   -0.3066   -2.5238   -1.2739 C   0  0  0  0  0  0  0  0  0  0  0  0
   -0.5580   -2.9977   -0.0571 C   0  0  0  0  0  0  0  0  0  0  0  0
   -0.7550   -2.1834    1.1198 C   0  0  0  0  0  3  0  0  0  0  0  0
   -0.8689   -2.5206    2.3890 C   0  0  0  0  0  0  0  0  0  0  0  0
   -0.2216   -1.4603   -1.4632 H   0  0  0  0  0  0  0  0  0  0  0  0
   -0.1647   -3.1913   -2.1138 H   0  0  0  0  0  0  0  0  0  0  0  0
   -0.6252   -4.0757    0.0937 H   0  0  0  0  0  0  0  0  0  0  0  0
   -0.8909   -0.7370    0.8504 H   0  0  0  0  0  0  0  0  0  0  0  0
   -0.8057   -3.5602    2.7088 H   0  0  0  0  0  0  0  0  0  0  0  0
   -1.0248   -1.7812    3.1664 H   0  0  0  0  0  0  0  0  0  0  0  0
   -2.4253    0.5848    0.0375 C   0  0  0  0  0  0  0  0  0  0  0  0
   -1.0621    0.4792    0.6874 C   0  0  0  0  0  0  0  0  0  0  0  0
   -1.0432    1.0540    2.0939 C   0  0  0  0  0  0  0  0  0  0  0  0
    0.1044    0.9051   -0.1516 C   0  0  0  0  0  0  0  0  0  0  0  0
   -0.0452    1.6050   -1.3462 C   0  0  0  0  0  0  0  0  0  0  0  0
    1.0589    1.9636   -2.1077 C   0  0  0  0  0  0  0  0  0  0  0  0
    2.3349    1.6217   -1.6939 C   0  0  0  0  0  0  0  0  0  0  0  0
    2.4996    0.9155   -0.5098 C   0  0  0  0  0  0  0  0  0  0  0  0
    1.3982    0.5642    0.2489 C   0  0  0  0  0  0  0  0  0  0  0  0
   -2.4466    0.0942   -0.9370 H   0  0  0  0  0  0  0  0  0  0  0  0
   -3.1755    0.1067    0.6692 H   0  0  0  0  0  0  0  0  0  0  0  0
   -2.7258    1.6286   -0.0985 H   0  0  0  0  0  0  0  0  0  0  0  0
   -1.1958    2.1374    2.0649 H   0  0  0  0  0  0  0  0  0  0  0  0
   -1.8421    0.6189    2.6980 H   0  0  0  0  0  0  0  0  0  0  0  0
   -0.0937    0.8667    2.5965 H   0  0  0  0  0  0  0  0  0  0  0  0
   -1.0330    1.8807   -1.6917 H   0  0  0  0  0  0  0  0  0  0  0  0
    0.9165    2.5125   -3.0304 H   0  0  0  0  0  0  0  0  0  0  0  0
    3.1955    1.8971   -2.2900 H   0  0  0  0  0  0  0  0  0  0  0  0
    3.4914    0.6312   -0.1809 H   0  0  0  0  0  0  0  0  0  0  0  0
    1.5370   -0.0086    1.1587 H   0  0  0  0  0  0  0  0  0  0  0  0
  1  2  2  3
  1  5  1  0
  1  6  1  0
  2  3  1  0
  2  7  1  0
  3  4  2  3
  4  9  1  0
  4 10  1  0
  8 12  1  0
 11 12  1  0
 11 20  1  0
 11 21  1  0
 11 22  1  0
 12 13  1  0
 12 14  1  0
 13 23  1  0
 13 24  1  0
 13 25  1  0
 14 15  2  0
 14 19  1  0
 15 16  1  0
 15 26  1  0
 16 17  2  0
 16 27  1  0
 17 18  1  0
 17 28  1  0
 18 19  2  0
 18 29  1  0
 19 30  1  0
M  RAD  1   3   2
M  END
>  <reaction>  (4) 
rxn_1663

>  <mol_properties>  (4) 
{"1": {"label": "*4", "atom_type": "Cd"}, "2": {"label": "*3", "atom_type": "Cd"}, "7": {"label": "*2", "atom_type": "H0"}, "11": {"label": "*1", "atom_type": "Cs"}, "13": {"label": "*0", "atom_type": "Cd"}}

>  <type>  (4) 
ts

$$$$

     RDKit          3D

 30 29  0  0  0  0  0  0  0  0999 V2000
   -0.4201   -3.0426   -0.0812 C   0  0  0  0  0  0  0  0  0  0  0  0
   -0.4201   -3.0426    1.2477 C   0  0  0  0  0  0  0  0  0  0  0  0
   -0.4201   -1.8353    2.0629 C   0  0  0  0  0  0  0  0  0  0  0  0
   -0.4201   -1.8353    3.3918 C   0  0  0  0  0  0  0  0  0  0  0  0
   -0.4201   -2.1160   -0.6447 H   0  0  0  0  0  0  0  0  0  0  0  0
   -0.4201   -3.9641   -0.6484 H   0  0  0  0  0  0  0  0  0  0  0  0
   -0.4201   -3.9875    1.7843 H   0  0  0  0  0  0  0  0  0  0  0  0
   -0.4201   -0.7014    1.4190 H   0  0  0  0  0  0  0  0  0  0  0  0
   -0.4201   -2.7619    3.9553 H   0  0  0  0  0  0  0  0  0  0  0  0
   -0.4201   -0.9137    3.9590 H   0  0  0  0  0  0  0  0  0  0  0  0
   -1.6827    1.2030    1.1758 C   0  0  0  0  0  0  0  0  0  0  0  0
   -0.4201    0.4401    0.7708 C   0  0  0  0  0  3  0  0  0  0  0  0
    0.6657    0.5672    1.8408 C   0  0  0  0  0  0  0  0  0  0  0  0
    0.0830    0.8757   -0.5895 C   0  0  0  0  0  0  0  0  0  0  0  0
    0.5018    2.1849   -0.8169 C   0  0  0  0  0  0  0  0  0  0  0  0
    0.9616    2.5812   -2.0616 C   0  0  0  0  0  0  0  0  0  0  0  0
    1.0122    1.6725   -3.1091 C   0  0  0  0  0  0  0  0  0  0  0  0
    0.5990    0.3675   -2.8978 C   0  0  0  0  0  0  0  0  0  0  0  0
    0.1393   -0.0232   -1.6481 C   0  0  0  0  0  0  0  0  0  0  0  0
   -2.4660    1.0944    0.4242 H   0  0  0  0  0  0  0  0  0  0  0  0
   -2.0664    0.8327    2.1287 H   0  0  0  0  0  0  0  0  0  0  0  0
   -1.4756    2.2693    1.2919 H   0  0  0  0  0  0  0  0  0  0  0  0
    0.9572    1.6107    1.9808 H   0  0  0  0  0  0  0  0  0  0  0  0
    0.3056    0.1905    2.8003 H   0  0  0  0  0  0  0  0  0  0  0  0
    1.5585    0.0048    1.5639 H   0  0  0  0  0  0  0  0  0  0  0  0
    0.4690    2.9078   -0.0098 H   0  0  0  0  0  0  0  0  0  0  0  0
    1.2822    3.6041   -2.2158 H   0  0  0  0  0  0  0  0  0  0  0  0
    1.3714    1.9813   -4.0826 H   0  0  0  0  0  0  0  0  0  0  0  0
    0.6336   -0.3513   -3.7072 H   0  0  0  0  0  0  0  0  0  0  0  0
   -0.1820   -1.0471   -1.4922 H   0  0  0  0  0  0  0  0  0  0  0  0
  1  2  2  3
  1  5  1  0
  1  6  1  0
  2  3  1  0
  2  7  1  0
  3  4  2  3
  3  8  1  0
  4  9  1  0
  4 10  1  0
 11 12  1  0
 11 20  1  0
 11 21  1  0
 11 22  1  0
 12 13  1  0
 12 14  1  0
 13 23  1  0
 13 24  1  0
 13 25  1  0
 14 15  2  0
 14 19  1  0
 15 16  1  0
 15 26  1  0
 16 17  2  0
 16 27  1  0
 17 18  1  0
 17 28  1  0
 18 19  2  0
 18 29  1  0
 19 30  1  0
M  RAD  1  12   2
M  END
>  <reaction>  (5) 
rxn_1663

>  <mol_properties>  (5) 
{"1": {"label": "*4", "atom_type": "Cd"}, "2": {"label": "*3", "atom_type": "Cd"}, "7": {"label": "*2", "atom_type": "H0"}, "11": {"label": "*1", "atom_type": "Cs"}, "13": {"label": "*0", "atom_type": "Cd"}}

>  <type>  (5) 
unop_1

>  <geom_source>  (5) 
Heuristics

$$$$

     RDKit          3D

 30 29  0  0  0  0  0  0  0  0999 V2000
   -0.9550   -3.3148   -0.9376 C   0  0  0  0  0  0  0  0  0  0  0  0
   -0.9550   -3.3148    0.3912 C   0  0  0  0  0  0  0  0  0  0  0  0
   -0.9550   -2.1074    1.2065 C   0  0  0  0  0  0  0  0  0  0  0  0
   -0.9550   -2.1074    2.5354 C   0  0  0  0  0  0  0  0  0  0  0  0
   -0.9550   -2.3882   -1.5011 H   0  0  0  0  0  0  0  0  0  0  0  0
   -0.9550   -4.2363   -1.5048 H   0  0  0  0  0  0  0  0  0  0  0  0
   -0.9550   -4.2597    0.9279 H   0  0  0  0  0  0  0  0  0  0  0  0
   -0.9550   -0.9735    0.5626 H   0  0  0  0  0  0  0  0  0  0  0  0
   -0.9550   -3.0340    3.0989 H   0  0  0  0  0  0  0  0  0  0  0  0
   -0.9550   -1.1859    3.1026 H   0  0  0  0  0  0  0  0  0  0  0  0
   -1.6839   -0.0526   -1.4123 C   0  0  0  0  0  0  0  0  0  0  0  0
   -0.9550    0.1679   -0.0856 C   0  0  0  0  0  3  0  0  0  0  0  0
   -1.8784    0.8159    0.9476 C   0  0  0  0  0  0  0  0  0  0  0  0
    0.3183    0.9656   -0.2743 C   0  0  0  0  0  0  0  0  0  0  0  0
    0.2848    2.2717   -0.7577 C   0  0  0  0  0  0  0  0  0  0  0  0
    1.4504    2.9995   -0.9295 C   0  0  0  0  0  0  0  0  0  0  0  0
    2.6790    2.4334   -0.6200 C   0  0  0  0  0  0  0  0  0  0  0  0
    2.7278    1.1358   -0.1384 C   0  0  0  0  0  0  0  0  0  0  0  0
    1.5560    0.4119    0.0315 C   0  0  0  0  0  0  0  0  0  0  0  0
   -1.0335   -0.5355   -2.1430 H   0  0  0  0  0  0  0  0  0  0  0  0
   -2.5646   -0.6815   -1.2670 H   0  0  0  0  0  0  0  0  0  0  0  0
   -2.0188    0.8963   -1.8376 H   0  0  0  0  0  0  0  0  0  0  0  0
   -2.2202    1.7961    0.6071 H   0  0  0  0  0  0  0  0  0  0  0  0
   -2.7611    0.1957    1.1167 H   0  0  0  0  0  0  0  0  0  0  0  0
   -1.3667    0.9529    1.9013 H   0  0  0  0  0  0  0  0  0  0  0  0
   -0.6664    2.7295   -1.0046 H   0  0  0  0  0  0  0  0  0  0  0  0
    1.4007    4.0135   -1.3068 H   0  0  0  0  0  0  0  0  0  0  0  0
    3.5908    3.0015   -0.7539 H   0  0  0  0  0  0  0  0  0  0  0  0
    3.6804    0.6826    0.1069 H   0  0  0  0  0  0  0  0  0  0  0  0
    1.6043   -0.6034    0.4091 H   0  0  0  0  0  0  0  0  0  0  0  0
  1  2  2  3
  1  5  1  0
  1  6  1  0
  2  3  1  0
  2  7  1  0
  3  4  2  3
  3  8  1  0
  4  9  1  0
  4 10  1  0
 11 12  1  0
 11 20  1  0
 11 21  1  0
 11 22  1  0
 12 13  1  0
 12 14  1  0
 13 23  1  0
 13 24  1  0
 13 25  1  0
 14 15  2  0
 14 19  1  0
 15 16  1  0
 15 26  1  0
 16 17  2  0
 16 27  1  0
 17 18  1  0
 17 28  1  0
 18 19  2  0
 18 29  1  0
 19 30  1  0
M  RAD  1  12   2
M  END
>  <reaction>  (6) 
rxn_1663

>  <mol_properties>  (6) 
{"1": {"label": "*4", "atom_type": "Cd"}, "2": {"label": "*3", "atom_type": "Cd"}, "7": {"label": "*2", "atom_type": "H0"}, "11": {"label": "*1", "atom_type": "Cs"}, "13": {"label": "*0", "atom_type": "Cd"}}

>  <type>  (6) 
unop_2

>  <geom_source>  (6) 
Heuristics

$$$$

     RDKit          3D

 30 29  0  0  0  0  0  0  0  0999 V2000
    0.1720   -2.8653    0.0440 C   0  0  0  0  0  0  0  0  0  0  0  0
    0.1720   -2.8653    1.3729 C   0  0  0  0  0  0  0  0  0  0  0  0
    0.1720   -1.6579    2.1882 C   0  0  0  0  0  0  0  0  0  0  0  0
    0.1720   -1.6579    3.5171 C   0  0  0  0  0  0  0  0  0  0  0  0
    0.1720   -1.9386   -0.5194 H   0  0  0  0  0  0  0  0  0  0  0  0
    0.1720   -3.7868   -0.5232 H   0  0  0  0  0  0  0  0  0  0  0  0
    0.1720   -3.8102    1.9095 H   0  0  0  0  0  0  0  0  0  0  0  0
    0.1720   -0.5240    1.5443 H   0  0  0  0  0  0  0  0  0  0  0  0
    0.1720   -2.5845    4.0805 H   0  0  0  0  0  0  0  0  0  0  0  0
    0.1720   -0.7364    4.0843 H   0  0  0  0  0  0  0  0  0  0  0  0
   -0.5569    1.6439    1.7650 C   0  0  0  0  0  0  0  0  0  0  0  0
    0.1720    0.6175    0.8960 C   0  0  0  0  0  3  0  0  0  0  0  0
    1.6729    0.6143    1.1915 C   0  0  0  0  0  0  0  0  0  0  0  0
   -0.1065    0.8346   -0.5765 C   0  0  0  0  0  0  0  0  0  0  0  0
    0.2734    2.0132   -1.2150 C   0  0  0  0  0  0  0  0  0  0  0  0
    0.0177    2.2098   -2.5618 C   0  0  0  0  0  0  0  0  0  0  0  0
   -0.6260    1.2275   -3.3010 C   0  0  0  0  0  0  0  0  0  0  0  0
   -1.0095    0.0506   -2.6796 C   0  0  0  0  0  0  0  0  0  0  0  0
   -0.7504   -0.1401   -1.3297 C   0  0  0  0  0  0  0  0  0  0  0  0
   -1.6306    1.6313    1.5718 H   0  0  0  0  0  0  0  0  0  0  0  0
   -0.3956    1.4342    2.8245 H   0  0  0  0  0  0  0  0  0  0  0  0
   -0.1927    2.6545    1.5663 H   0  0  0  0  0  0  0  0  0  0  0  0
    2.1173    1.5879    0.9721 H   0  0  0  0  0  0  0  0  0  0  0  0
    1.8567    0.3943    2.2451 H   0  0  0  0  0  0  0  0  0  0  0  0
    2.1908   -0.1332    0.5888 H   0  0  0  0  0  0  0  0  0  0  0  0
    0.7772    2.7910   -0.6527 H   0  0  0  0  0  0  0  0  0  0  0  0
    0.3220    3.1338   -3.0377 H   0  0  0  0  0  0  0  0  0  0  0  0
   -0.8263    1.3802   -4.3539 H   0  0  0  0  0  0  0  0  0  0  0  0
   -1.5126   -0.7237   -3.2455 H   0  0  0  0  0  0  0  0  0  0  0  0
   -1.0544   -1.0649   -0.8519 H   0  0  0  0  0  0  0  0  0  0  0  0
  1  2  2  3
  1  5  1  0
  1  6  1  0
  2  3  1  0
  2  7  1  0
  3  4  2  3
  3  8  1  0
  4  9  1  0
  4 10  1  0
 11 12  1  0
 11 20  1  0
 11 21  1  0
 11 22  1  0
 12 13  1  0
 12 14  1  0
 13 23  1  0
 13 24  1  0
 13 25  1  0
 14 15  2  0
 14 19  1  0
 15 16  1  0
 15 26  1  0
 16 17  2  0
 16 27  1  0
 17 18  1  0
 17 28  1  0
 18 19  2  0
 18 29  1  0
 19 30  1  0
M  RAD  1  12   2
M  END
>  <reaction>  (7) 
rxn_1663

>  <mol_properties>  (7) 
{"1": {"label": "*4", "atom_type": "Cd"}, "2": {"label": "*3", "atom_type": "Cd"}, "7": {"label": "*2", "atom_type": "H0"}, "11": {"label": "*1", "atom_type": "Cs"}, "13": {"label": "*0", "atom_type": "Cd"}}

>  <type>  (7) 
unop_3

>  <geom_source>  (7) 
Heuristics

$$$$

     RDKit          3D

 30 28  0  0  0  0  0  0  0  0999 V2000
   -0.2452   -3.0784   -2.2124 C   0  0  0  0  0  0  0  0  0  0  0  0
   -0.2452   -3.0784   -0.8835 C   0  0  0  0  0  3  0  0  0  0  0  0
   -0.2452   -1.8710   -0.0683 C   0  0  0  0  0  2  0  0  0  0  0  0
   -0.2452   -1.8710    1.2606 C   0  0  0  0  0  0  0  0  0  0  0  0
   -0.2452   -2.1518   -2.7759 H   0  0  0  0  0  0  0  0  0  0  0  0
   -0.2452   -3.9999   -2.7796 H   0  0  0  0  0  0  0  0  0  0  0  0
   -0.2452   -4.0233   -0.3469 H   0  0  0  0  0  0  0  0  0  0  0  0
   -0.2452   -0.7371   -0.7122 H   0  0  0  0  0  0  0  0  0  0  0  0
   -0.2452   -2.7977    1.8241 H   0  0  0  0  0  0  0  0  0  0  0  0
   -0.2452   -0.9495    1.8278 H   0  0  0  0  0  0  0  0  0  0  0  0
    1.0173    0.4473   -2.2231 C   0  0  0  0  0  0  0  0  0  0  0  0
   -0.2452    0.4043   -1.3604 C   0  0  0  0  0  3  0  0  0  0  0  0
   -1.3854    1.1857   -2.0158 C   0  0  0  0  0  0  0  0  0  0  0  0
    0.0250    0.8881    0.0489 C   0  0  0  0  0  0  0  0  0  0  0  0
    0.4472    2.1930    0.2937 C   0  0  0  0  0  0  0  0  0  0  0  0
    0.6938    2.6334    1.5833 C   0  0  0  0  0  0  0  0  0  0  0  0
    0.5225    1.7740    2.6594 C   0  0  0  0  0  0  0  0  0  0  0  0
    0.1033    0.4738    2.4312 C   0  0  0  0  0  0  0  0  0  0  0  0
   -0.1421    0.0388    1.1364 C   0  0  0  0  0  3  0  0  0  0  0  0
    1.8245   -0.1285   -1.7680 H   0  0  0  0  0  0  0  0  0  0  0  0
    0.8189    0.0369   -3.2154 H   0  0  0  0  0  0  0  0  0  0  0  0
    1.3692    1.4736   -2.3514 H   0  0  0  0  0  0  0  0  0  0  0  0
   -1.1199    2.2385   -2.1366 H   0  0  0  0  0  0  0  0  0  0  0  0
   -1.6080    0.7827   -3.0060 H   0  0  0  0  0  0  0  0  0  0  0  0
   -2.2932    1.1369   -1.4127 H   0  0  0  0  0  0  0  0  0  0  0  0
    0.5860    2.8776   -0.5352 H   0  0  0  0  0  0  0  0  0  0  0  0
    1.0213    3.6521    1.7504 H   0  0  0  0  0  0  0  0  0  0  0  0
    0.7151    2.1173    3.6679 H   0  0  0  0  0  0  0  0  0  0  0  0
   -0.0341   -0.2067    3.2624 H   0  0  0  0  0  0  0  0  0  0  0  0
   -0.4700   -0.9809    0.9677 H   0  0  0  0  0  0  0  0  0  0  0  0
  1  2  2  3
  1  5  1  0
  1  6  1  0
  2  7  1  0
  3  4  1  0
  3  8  1  0
  4  9  1  0
  4 10  1  0
  4 30  1  0
 11 12  1  0
 11 20  1  0
 11 21  1  0
 11 22  1  0
 12 13  1  0
 12 14  1  0
 13 23  1  0
 13 24  1  0
 13 25  1  0
 14 15  2  0
 14 19  1  0
 15 16  1  0
 15 26  1  0
 16 17  2  0
 16 27  1  0
 17 18  1  0
 17 28  1  0
 18 19  2  0
 18 29  1  0
M  CHG  2  12   1  19  -1
M  RAD  2   2   2   3   3
M  END
>  <reaction>  (8) 
rxn_1663

>  <mol_properties>  (8) 
{"1": {"label": "*4", "atom_type": "Cd"}, "2": {"label": "*3", "atom_type": "Cd"}, "7": {"label": "*2", "atom_type": "H0"}, "11": {"label": "*1", "atom_type": "Cs"}, "13": {"label": "*0", "atom_type": "Cd"}}

>  <type>  (8) 
unop_4

>  <geom_source>  (8) 
Heuristics

$$$$

     RDKit          3D

 30 29  0  0  0  0  0  0  0  0999 V2000
    0.9718   -2.7132   -0.4066 C   0  0  0  0  0  0  0  0  0  0  0  0
    0.9718   -2.7132    0.9223 C   0  0  0  0  0  0  0  0  0  0  0  0
    0.9718   -1.5058    1.7376 C   0  0  0  0  0  0  0  0  0  0  0  0
    0.9718   -1.5058    3.0665 C   0  0  0  0  0  0  0  0  0  0  0  0
    0.9718   -1.7866   -0.9700 H   0  0  0  0  0  0  0  0  0  0  0  0
    0.9718   -3.6347   -0.9737 H   0  0  0  0  0  0  0  0  0  0  0  0
    0.9718   -3.6581    1.4589 H   0  0  0  0  0  0  0  0  0  0  0  0
    0.9718   -0.3719    1.0937 H   0  0  0  0  0  0  0  0  0  0  0  0
    0.9718   -2.4324    3.6300 H   0  0  0  0  0  0  0  0  0  0  0  0
    0.9718   -0.5843    3.6337 H   0  0  0  0  0  0  0  0  0  0  0  0
    0.9718    1.8924    1.4843 C   0  0  0  0  0  0  0  0  0  0  0  0
    0.9718    0.7696    0.4455 C   0  0  0  0  0  3  0  0  0  0  0  0
    2.2372    0.8151   -0.4128 C   0  0  0  0  0  0  0  0  0  0  0  0
   -0.2808    0.7962   -0.4051 C   0  0  0  0  0  0  0  0  0  0  0  0
   -0.5744    1.8870   -1.2205 C   0  0  0  0  0  0  0  0  0  0  0  0
   -1.7205    1.9094   -1.9976 C   0  0  0  0  0  0  0  0  0  0  0  0
   -2.6003    0.8365   -1.9752 C   0  0  0  0  0  0  0  0  0  0  0  0
   -2.3214   -0.2549   -1.1694 C   0  0  0  0  0  0  0  0  0  0  0  0
   -1.1713   -0.2710   -0.3931 C   0  0  0  0  0  0  0  0  0  0  0  0
    0.0807    1.8474    2.1121 H   0  0  0  0  0  0  0  0  0  0  0  0
    1.8505    1.8200    2.1285 H   0  0  0  0  0  0  0  0  0  0  0  0
    0.9924    2.8723    1.0018 H   0  0  0  0  0  0  0  0  0  0  0  0
    2.3033    1.7562   -0.9635 H   0  0  0  0  0  0  0  0  0  0  0  0
    3.1287    0.7318    0.2122 H   0  0  0  0  0  0  0  0  0  0  0  0
    2.2494    0.0011   -1.1391 H   0  0  0  0  0  0  0  0  0  0  0  0
    0.1019    2.7336   -1.2501 H   0  0  0  0  0  0  0  0  0  0  0  0
   -1.9288    2.7679   -2.6241 H   0  0  0  0  0  0  0  0  0  0  0  0
   -3.4965    0.8530   -2.5824 H   0  0  0  0  0  0  0  0  0  0  0  0
   -3.0001   -1.0985   -1.1430 H   0  0  0  0  0  0  0  0  0  0  0  0
   -0.9614   -1.1299    0.2347 H   0  0  0  0  0  0  0  0  0  0  0  0
  1  2  2  3
  1  5  1  0
  1  6  1  0
  2  3  1  0
  2  7  1  0
  3  4  2  3
  3  8  1  0
  4  9  1  0
  4 10  1  0
 11 12  1  0
 11 20  1  0
 11 21  1  0
 11 22  1  0
 12 13  1  0
 12 14  1  0
 13 23  1  0
 13 24  1  0
 13 25  1  0
 14 15  2  0
 14 19  1  0
 15 16  1  0
 15 26  1  0
 16 17  2  0
 16 27  1  0
 17 18  1  0
 17 28  1  0
 18 19  2  0
 18 29  1  0
 19 30  1  0
M  RAD  1  12   2
M  END
>  <reaction>  (9) 
rxn_1663

>  <mol_properties>  (9) 
{"1": {"label": "*4", "atom_type": "Cd"}, "2": {"label": "*3", "atom_type": "Cd"}, "7": {"label": "*2", "atom_type": "H0"}, "11": {"label": "*1", "atom_type": "Cs"}, "13": {"label": "*0", "atom_type": "Cd"}}

>  <type>  (9) 
unop_5

>  <geom_source>  (9) 
Heuristics

$$$$

     RDKit          3D

 30 29  0  0  0  0  0  0  0  0999 V2000
    0.3390   -2.9417   -2.2404 C   0  0  0  0  0  0  0  0  0  0  0  0
    0.3390   -2.9417   -0.9115 C   0  0  0  0  0  0  0  0  0  0  0  0
    0.3390   -1.7344   -0.0962 C   0  0  0  0  0  0  0  0  0  0  0  0
    0.3390   -1.7344    1.2327 C   0  0  0  0  0  0  0  0  0  0  0  0
    0.3390   -2.0151   -2.8038 H   0  0  0  0  0  0  0  0  0  0  0  0
    0.3390   -3.8633   -2.8075 H   0  0  0  0  0  0  0  0  0  0  0  0
    0.3390   -3.8867   -0.3749 H   0  0  0  0  0  0  0  0  0  0  0  0
    0.3390   -0.6005   -0.7401 H   0  0  0  0  0  0  0  0  0  0  0  0
    0.3390   -2.6610    1.7962 H   0  0  0  0  0  0  0  0  0  0  0  0
    0.3390   -0.8128    1.7999 H   0  0  0  0  0  0  0  0  0  0  0  0
    1.7968    0.9439   -1.6172 C   0  0  0  0  0  0  0  0  0  0  0  0
    0.3390    0.5410   -1.3884 C   0  0  0  0  0  3  0  0  0  0  0  0
   -0.5804    1.1945   -2.4216 C   0  0  0  0  0  0  0  0  0  0  0  0
   -0.1080    0.8430    0.0266 C   0  0  0  0  0  0  0  0  0  0  0  0
   -0.1340    2.1492    0.5102 C   0  0  0  0  0  0  0  0  0  0  0  0
   -0.5431    2.4232    1.8046 C   0  0  0  0  0  0  0  0  0  0  0  0
   -0.9364    1.3919    2.6457 C   0  0  0  0  0  0  0  0  0  0  0  0
   -0.9158    0.0882    2.1786 C   0  0  0  0  0  0  0  0  0  0  0  0
   -0.5047   -0.1796    0.8805 C   0  0  0  0  0  0  0  0  0  0  0  0
    2.4565    0.4606   -0.8951 H   0  0  0  0  0  0  0  0  0  0  0  0
    2.1204    0.6620   -2.6213 H   0  0  0  0  0  0  0  0  0  0  0  0
    1.9249    2.0242   -1.5170 H   0  0  0  0  0  0  0  0  0  0  0  0
   -0.5378    2.2838   -2.3504 H   0  0  0  0  0  0  0  0  0  0  0  0
   -0.2808    0.9151   -3.4338 H   0  0  0  0  0  0  0  0  0  0  0  0
   -1.6175    0.8900   -2.2737 H   0  0  0  0  0  0  0  0  0  0  0  0
    0.1700    2.9670   -0.1332 H   0  0  0  0  0  0  0  0  0  0  0  0
   -0.5554    3.4464    2.1596 H   0  0  0  0  0  0  0  0  0  0  0  0
   -1.2564    1.6051    3.6577 H   0  0  0  0  0  0  0  0  0  0  0  0
   -1.2203   -0.7255    2.8251 H   0  0  0  0  0  0  0  0  0  0  0  0
   -0.4919   -1.2035    0.5237 H   0  0  0  0  0  0  0  0  0  0  0  0
  1  2  2  3
  1  5  1  0
  1  6  1  0
  2  3  1  0
  2  7  1  0
  3  4  2  3
  3  8  1  0
  4  9  1  0
  4 10  1  0
 11 12  1  0
 11 20  1  0
 11 21  1  0
 11 22  1  0
 12 13  1  0
 12 14  1  0
 13 23  1  0
 13 24  1  0
 13 25  1  0
 14 15  2  0
 14 19  1  0
 15 16  1  0
 15 26  1  0
 16 17  2  0
 16 27  1  0
 17 18  1  0
 17 28  1  0
 18 19  2  0
 18 29  1  0
 19 30  1  0
M  RAD  1  12   2
M  END
>  <reaction>  (10) 
rxn_1663

>  <mol_properties>  (10) 
{"1": {"label": "*4", "atom_type": "Cd"}, "2": {"label": "*3", "atom_type": "Cd"}, "7": {"label": "*2", "atom_type": "H0"}, "11": {"label": "*1", "atom_type": "Cs"}, "13": {"label": "*0", "atom_type": "Cd"}}

>  <type>  (10) 
unop_6

>  <geom_source>  (10) 
Heuristics

$$$$

     RDKit          3D

 30 29  0  0  0  0  0  0  0  0999 V2000
    0.8681   -2.7889   -1.9554 C   0  0  0  0  0  0  0  0  0  0  0  0
    0.8681   -2.7889   -0.6265 C   0  0  0  0  0  0  0  0  0  0  0  0
    0.8681   -1.5816    0.1888 C   0  0  0  0  0  0  0  0  0  0  0  0
    0.8681   -1.5816    1.5176 C   0  0  0  0  0  0  0  0  0  0  0  0
    0.8681   -1.8623   -2.5189 H   0  0  0  0  0  0  0  0  0  0  0  0
    0.8681   -3.7105   -2.5226 H   0  0  0  0  0  0  0  0  0  0  0  0
    0.8681   -3.7339   -0.0899 H   0  0  0  0  0  0  0  0  0  0  0  0
    0.8681   -0.4477   -0.4552 H   0  0  0  0  0  0  0  0  0  0  0  0
    0.8681   -2.5082    2.0811 H   0  0  0  0  0  0  0  0  0  0  0  0
    0.8681   -0.6601    2.0848 H   0  0  0  0  0  0  0  0  0  0  0  0
    2.1306    1.4567   -0.6984 C   0  0  0  0  0  0  0  0  0  0  0  0
    0.8681    0.6938   -1.1034 C   0  0  0  0  0  3  0  0  0  0  0  0
    0.3656    1.1512   -2.4739 C   0  0  0  0  0  0  0  0  0  0  0  0
   -0.2124    0.8024   -0.0480 C   0  0  0  0  0  0  0  0  0  0  0  0
   -0.7666    2.0349    0.2909 C   0  0  0  0  0  0  0  0  0  0  0  0
   -1.7546    2.1321    1.2564 C   0  0  0  0  0  0  0  0  0  0  0  0
   -2.2107    0.9937    1.9057 C   0  0  0  0  0  0  0  0  0  0  0  0
   -1.6691   -0.2385    1.5792 C   0  0  0  0  0  0  0  0  0  0  0  0
   -0.6792   -0.3290    0.6108 C   0  0  0  0  0  0  0  0  0  0  0  0
    2.5032    1.1155    0.2685 H   0  0  0  0  0  0  0  0  0  0  0  0
    2.9194    1.3157   -1.4402 H   0  0  0  0  0  0  0  0  0  0  0  0
    1.9330    2.5284   -0.6219 H   0  0  0  0  0  0  0  0  0  0  0  0
    0.1045    2.2119   -2.4612 H   0  0  0  0  0  0  0  0  0  0  0  0
    1.1366    1.0072   -3.2336 H   0  0  0  0  0  0  0  0  0  0  0  0
   -0.5217    0.5920   -2.7743 H   0  0  0  0  0  0  0  0  0  0  0  0
   -0.4220    2.9344   -0.2064 H   0  0  0  0  0  0  0  0  0  0  0  0
   -2.1713    3.1007    1.5040 H   0  0  0  0  0  0  0  0  0  0  0  0
   -2.9831    1.0686    2.6606 H   0  0  0  0  0  0  0  0  0  0  0  0
   -2.0165   -1.1344    2.0787 H   0  0  0  0  0  0  0  0  0  0  0  0
   -0.2612   -1.2980    0.3619 H   0  0  0  0  0  0  0  0  0  0  0  0
  1  2  2  3
  1  5  1  0
  1  6  1  0
  2  3  1  0
  2  7  1  0
  3  4  2  3
  3  8  1  0
  4  9  1  0
  4 10  1  0
 11 12  1  0
 11 20  1  0
 11 21  1  0
 11 22  1  0
 12 13  1  0
 12 14  1  0
 13 23  1  0
 13 24  1  0
 13 25  1  0
 14 15  2  0
 14 19  1  0
 15 16  1  0
 15 26  1  0
 16 17  2  0
 16 27  1  0
 17 18  1  0
 17 28  1  0
 18 19  2  0
 18 29  1  0
 19 30  1  0
M  RAD  1  12   2
M  END
>  <reaction>  (11) 
rxn_1663

>  <mol_properties>  (11) 
{"1": {"label": "*4", "atom_type": "Cd"}, "2": {"label": "*3", "atom_type": "Cd"}, "7": {"label": "*2", "atom_type": "H0"}, "11": {"label": "*1", "atom_type": "Cs"}, "13": {"label": "*0", "atom_type": "Cd"}}

>  <type>  (11) 
unop_7

>  <geom_source>  (11) 
Heuristics

$$$$

     RDKit          3D

 30 29  0  0  0  0  0  0  0  0999 V2000
   -0.7066   -3.1977   -0.3491 C   0  0  0  0  0  0  0  0  0  0  0  0
   -0.7066   -3.1977    0.9798 C   0  0  0  0  0  0  0  0  0  0  0  0
   -0.7066   -1.9904    1.7951 C   0  0  0  0  0  0  0  0  0  0  0  0
   -0.7066   -1.9904    3.1240 C   0  0  0  0  0  0  0  0  0  0  0  0
   -0.7066   -2.2711   -0.9125 H   0  0  0  0  0  0  0  0  0  0  0  0
   -0.7066   -4.1192   -0.9163 H   0  0  0  0  0  0  0  0  0  0  0  0
   -0.7066   -4.1426    1.5164 H   0  0  0  0  0  0  0  0  0  0  0  0
   -0.7066   -0.8565    1.1511 H   0  0  0  0  0  0  0  0  0  0  0  0
   -0.7066   -2.9170    3.6874 H   0  0  0  0  0  0  0  0  0  0  0  0
   -0.7066   -1.0688    3.6912 H   0  0  0  0  0  0  0  0  0  0  0  0
   -2.1644    0.6880    0.2741 C   0  0  0  0  0  0  0  0  0  0  0  0
   -0.7066    0.2850    0.5029 C   0  0  0  0  0  3  0  0  0  0  0  0
   -0.2659    0.6052    1.9323 C   0  0  0  0  0  0  0  0  0  0  0  0
    0.2142    0.9169   -0.5198 C   0  0  0  0  0  0  0  0  0  0  0  0
    0.3513    2.3005   -0.6076 C   0  0  0  0  0  0  0  0  0  0  0  0
    1.1939    2.8764   -1.5437 C   0  0  0  0  0  0  0  0  0  0  0  0
    1.9201    2.0769   -2.4149 C   0  0  0  0  0  0  0  0  0  0  0  0
    1.7939    0.6997   -2.3392 C   0  0  0  0  0  0  0  0  0  0  0  0
    0.9478    0.1289   -1.3990 C   0  0  0  0  0  0  0  0  0  0  0  0
   -2.4871    0.4393   -0.7380 H   0  0  0  0  0  0  0  0  0  0  0  0
   -2.8204    0.1746    0.9802 H   0  0  0  0  0  0  0  0  0  0  0  0
   -2.3003    1.7628    0.4143 H   0  0  0  0  0  0  0  0  0  0  0  0
   -0.3335    1.6771    2.1322 H   0  0  0  0  0  0  0  0  0  0  0  0
   -0.9028    0.0910    2.6551 H   0  0  0  0  0  0  0  0  0  0  0  0
    0.7666    0.2975    2.1039 H   0  0  0  0  0  0  0  0  0  0  0  0
   -0.2085    2.9401    0.0652 H   0  0  0  0  0  0  0  0  0  0  0  0
    1.2850    3.9544   -1.5941 H   0  0  0  0  0  0  0  0  0  0  0  0
    2.5791    2.5261   -3.1470 H   0  0  0  0  0  0  0  0  0  0  0  0
    2.3552    0.0647   -3.0135 H   0  0  0  0  0  0  0  0  0  0  0  0
    0.8556   -0.9502   -1.3473 H   0  0  0  0  0  0  0  0  0  0  0  0
  1  2  2  3
  1  5  1  0
  1  6  1  0
  2  3  1  0
  2  7  1  0
  3  4  2  3
  3  8  1  0
  4  9  1  0
  4 10  1  0
 11 12  1  0
 11 20  1  0
 11 21  1  0
 11 22  1  0
 12 13  1  0
 12 14  1  0
 13 23  1  0
 13 24  1  0
 13 25  1  0
 14 15  2  0
 14 19  1  0
 15 16  1  0
 15 26  1  0
 16 17  2  0
 16 27  1  0
 17 18  1  0
 17 28  1  0
 18 19  2  0
 18 29  1  0
 19 30  1  0
M  RAD  1  12   2
M  END
>  <reaction>  (12) 
rxn_1663

>  <mol_properties>  (12) 
{"1": {"label": "*4", "atom_type": "Cd"}, "2": {"label": "*3", "atom_type": "Cd"}, "7": {"label": "*2", "atom_type": "H0"}, "11": {"label": "*1", "atom_type": "Cs"}, "13": {"label": "*0", "atom_type": "Cd"}}

>  <type>  (12) 
unop_8

>  <geom_source>  (12) 
Heuristics

$$$$

     RDKit          3D

 30 29  0  0  0  0  0  0  0  0999 V2000
   -0.7356   -3.1862   -1.8879 C   0  0  0  0  0  0  0  0  0  0  0  0
   -0.7356   -3.1862   -0.5590 C   0  0  0  0  0  0  0  0  0  0  0  0
   -0.7356   -1.9788    0.2563 C   0  0  0  0  0  0  0  0  0  0  0  0
   -0.7356   -1.9788    1.5852 C   0  0  0  0  0  0  0  0  0  0  0  0
   -0.7356   -2.2596   -2.4513 H   0  0  0  0  0  0  0  0  0  0  0  0
   -0.7356   -4.1077   -2.4551 H   0  0  0  0  0  0  0  0  0  0  0  0
   -0.7356   -4.1311   -0.0224 H   0  0  0  0  0  0  0  0  0  0  0  0
   -0.7356   -0.8449   -0.3876 H   0  0  0  0  0  0  0  0  0  0  0  0
   -0.7356   -2.9054    2.1486 H   0  0  0  0  0  0  0  0  0  0  0  0
   -0.7356   -1.0573    2.1524 H   0  0  0  0  0  0  0  0  0  0  0  0
   -0.0067    0.0761   -2.3625 C   0  0  0  0  0  0  0  0  0  0  0  0
   -0.7356    0.2966   -1.0359 C   0  0  0  0  0  3  0  0  0  0  0  0
   -2.0136    1.1120   -1.2400 C   0  0  0  0  0  0  0  0  0  0  0  0
    0.1701    0.9284    0.0003 C   0  0  0  0  0  0  0  0  0  0  0  0
    0.7145    2.1957   -0.1961 C   0  0  0  0  0  0  0  0  0  0  0  0
    1.5426    2.7718    0.7528 C   0  0  0  0  0  0  0  0  0  0  0  0
    1.8446    2.0893    1.9226 C   0  0  0  0  0  0  0  0  0  0  0  0
    1.3106    0.8285    2.1316 C   0  0  0  0  0  0  0  0  0  0  0  0
    0.4815    0.2569    1.1768 C   0  0  0  0  0  0  0  0  0  0  0  0
    0.8930   -0.5248   -2.2219 H   0  0  0  0  0  0  0  0  0  0  0  0
   -0.6547   -0.4366   -3.0765 H   0  0  0  0  0  0  0  0  0  0  0  0
    0.2924    1.0277   -2.8079 H   0  0  0  0  0  0  0  0  0  0  0  0
   -1.7867    2.1009   -1.6450 H   0  0  0  0  0  0  0  0  0  0  0  0
   -2.6818    0.6098   -1.9426 H   0  0  0  0  0  0  0  0  0  0  0  0
   -2.5464    1.2506   -0.2982 H   0  0  0  0  0  0  0  0  0  0  0  0
    0.4890    2.7430   -1.1043 H   0  0  0  0  0  0  0  0  0  0  0  0
    1.9547    3.7582    0.5792 H   0  0  0  0  0  0  0  0  0  0  0  0
    2.4918    2.5388    2.6650 H   0  0  0  0  0  0  0  0  0  0  0  0
    1.5387    0.2856    3.0404 H   0  0  0  0  0  0  0  0  0  0  0  0
    0.0682   -0.7306    1.3492 H   0  0  0  0  0  0  0  0  0  0  0  0
  1  2  2  3
  1  5  1  0
  1  6  1  0
  2  3  1  0
  2  7  1  0
  3  4  2  3
  3  8  1  0
  4  9  1  0
  4 10  1  0
 11 12  1  0
 11 20  1  0
 11 21  1  0
 11 22  1  0
 12 13  1  0
 12 14  1  0
 13 23  1  0
 13 24  1  0
 13 25  1  0
 14 15  2  0
 14 19  1  0
 15 16  1  0
 15 26  1  0
 16 17  2  0
 16 27  1  0
 17 18  1  0
 17 28  1  0
 18 19  2  0
 18 29  1  0
 19 30  1  0
M  RAD  1  12   2
M  END
>  <reaction>  (13) 
rxn_1663

>  <mol_properties>  (13) 
{"1": {"label": "*4", "atom_type": "Cd"}, "2": {"label": "*3", "atom_type": "Cd"}, "7": {"label": "*2", "atom_type": "H0"}, "11": {"label": "*1", "atom_type": "Cs"}, "13": {"label": "*0", "atom_type": "Cd"}}

>  <type>  (13) 
unop_9

>  <geom_source>  (13) 
Heuristics

$$$$

     RDKit          3D

 30 29  0  0  0  0  0  0  0  0999 V2000
   -0.8495   -3.2938   -0.6210 C   0  0  0  0  0  0  0  0  0  0  0  0
   -0.8495   -3.2938    0.7079 C   0  0  0  0  0  0  0  0  0  0  0  0
   -0.8495   -2.0865    1.5232 C   0  0  0  0  0  0  0  0  0  0  0  0
   -0.8495   -2.0865    2.8521 C   0  0  0  0  0  0  0  0  0  0  0  0
   -0.8495   -2.3672   -1.1844 H   0  0  0  0  0  0  0  0  0  0  0  0
   -0.8495   -4.2153   -1.1882 H   0  0  0  0  0  0  0  0  0  0  0  0
   -0.8495   -4.2387    1.2445 H   0  0  0  0  0  0  0  0  0  0  0  0
   -0.8495   -0.9525    0.8792 H   0  0  0  0  0  0  0  0  0  0  0  0
   -0.8495   -3.0131    3.4155 H   0  0  0  0  0  0  0  0  0  0  0  0
   -0.8495   -1.1649    3.4193 H   0  0  0  0  0  0  0  0  0  0  0  0
   -2.1121    0.2319   -0.6316 C   0  0  0  0  0  0  0  0  0  0  0  0
   -0.8495    0.1889    0.2310 C   0  0  0  0  0  3  0  0  0  0  0  0
   -1.1349    0.6898    1.6479 C   0  0  0  0  0  0  0  0  0  0  0  0
    0.2912    0.9503   -0.4109 C   0  0  0  0  0  0  0  0  0  0  0  0
    0.1999    2.3203   -0.6469 C   0  0  0  0  0  0  0  0  0  0  0  0
    1.2444    3.0147   -1.2341 C   0  0  0  0  0  0  0  0  0  0  0  0
    2.4068    2.3503   -1.5989 C   0  0  0  0  0  0  0  0  0  0  0  0
    2.5119    0.9884   -1.3704 C   0  0  0  0  0  0  0  0  0  0  0  0
    1.4616    0.2984   -0.7816 C   0  0  0  0  0  0  0  0  0  0  0  0
   -1.9154   -0.1464   -1.6358 H   0  0  0  0  0  0  0  0  0  0  0  0
   -2.9036   -0.3733   -0.1849 H   0  0  0  0  0  0  0  0  0  0  0  0
   -2.4871    1.2536   -0.7263 H   0  0  0  0  0  0  0  0  0  0  0  0
   -1.4748    1.7279    1.6353 H   0  0  0  0  0  0  0  0  0  0  0  0
   -1.9166    0.0892    2.1177 H   0  0  0  0  0  0  0  0  0  0  0  0
   -0.2408    0.6383    2.2709 H   0  0  0  0  0  0  0  0  0  0  0  0
   -0.7009    2.8550   -0.3682 H   0  0  0  0  0  0  0  0  0  0  0  0
    1.1516    4.0796   -1.4082 H   0  0  0  0  0  0  0  0  0  0  0  0
    3.2238    2.8923   -2.0580 H   0  0  0  0  0  0  0  0  0  0  0  0
    3.4138    0.4583   -1.6506 H   0  0  0  0  0  0  0  0  0  0  0  0
    1.5530   -0.7678   -0.6067 H   0  0  0  0  0  0  0  0  0  0  0  0
  1  2  2  3
  1  5  1  0
  1  6  1  0
  2  3  1  0
  2  7  1  0
  3  4  2  3
  3  8  1  0
  4  9  1  0
  4 10  1  0
 11 12  1  0
 11 20  1  0
 11 21  1  0
 11 22  1  0
 12 13  1  0
 12 14  1  0
 13 23  1  0
 13 24  1  0
 13 25  1  0
 14 15  2  0
 14 19  1  0
 15 16  1  0
 15 26  1  0
 16 17  2  0
 16 27  1  0
 17 18  1  0
 17 28  1  0
 18 19  2  0
 18 29  1  0
 19 30  1  0
M  RAD  1  12   2
M  END
>  <reaction>  (14) 
rxn_1663

>  <mol_properties>  (14) 
{"1": {"label": "*4", "atom_type": "Cd"}, "2": {"label": "*3", "atom_type": "Cd"}, "7": {"label": "*2", "atom_type": "H0"}, "11": {"label": "*1", "atom_type": "Cs"}, "13": {"label": "*0", "atom_type": "Cd"}}

>  <type>  (14) 
unop_10

>  <geom_source>  (14) 
Heuristics

$$$$

     RDKit          3D

 30 29  0  0  0  0  0  0  0  0999 V2000
    1.1972   -2.6802   -1.3230 C   0  0  0  0  0  0  0  0  0  0  0  0
    1.1972   -2.6802    0.0059 C   0  0  0  0  0  0  0  0  0  0  0  0
    1.1972   -1.4729    0.8212 C   0  0  0  0  0  0  0  0  0  0  0  0
    1.1972   -1.4729    2.1501 C   0  0  0  0  0  0  0  0  0  0  0  0
    1.1972   -1.7536   -1.8864 H   0  0  0  0  0  0  0  0  0  0  0  0
    1.1972   -3.6018   -1.8901 H   0  0  0  0  0  0  0  0  0  0  0  0
    1.1972   -3.6252    0.5425 H   0  0  0  0  0  0  0  0  0  0  0  0
    1.1972   -0.3390    0.1773 H   0  0  0  0  0  0  0  0  0  0  0  0
    1.1972   -2.3995    2.7135 H   0  0  0  0  0  0  0  0  0  0  0  0
    1.1972   -0.5513    2.7173 H   0  0  0  0  0  0  0  0  0  0  0  0
    1.9261    1.8289    0.3981 C   0  0  0  0  0  0  0  0  0  0  0  0
    1.1972    0.8025   -0.4710 C   0  0  0  0  0  3  0  0  0  0  0  0
    1.4792    1.0403   -1.9555 C   0  0  0  0  0  0  0  0  0  0  0  0
   -0.2890    0.7812   -0.1816 C   0  0  0  0  0  0  0  0  0  0  0  0
   -1.0827    1.9038   -0.4070 C   0  0  0  0  0  0  0  0  0  0  0  0
   -2.4417    1.8822   -0.1417 C   0  0  0  0  0  0  0  0  0  0  0  0
   -3.0377    0.7324    0.3567 C   0  0  0  0  0  0  0  0  0  0  0  0
   -2.2612   -0.3914    0.5858 C   0  0  0  0  0  0  0  0  0  0  0  0
   -0.8999   -0.3631    0.3179 C   0  0  0  0  0  0  0  0  0  0  0  0
    1.7443    1.6467    1.4582 H   0  0  0  0  0  0  0  0  0  0  0  0
    3.0029    1.7865    0.2214 H   0  0  0  0  0  0  0  0  0  0  0  0
    1.5909    2.8434    0.1704 H   0  0  0  0  0  0  0  0  0  0  0  0
    1.1279    2.0264   -2.2679 H   0  0  0  0  0  0  0  0  0  0  0  0
    2.5514    0.9899   -2.1559 H   0  0  0  0  0  0  0  0  0  0  0  0
    0.9784    0.2951   -2.5753 H   0  0  0  0  0  0  0  0  0  0  0  0
   -0.6335    2.8104   -0.7961 H   0  0  0  0  0  0  0  0  0  0  0  0
   -3.0395    2.7666   -0.3246 H   0  0  0  0  0  0  0  0  0  0  0  0
   -4.1000    0.7145    0.5644 H   0  0  0  0  0  0  0  0  0  0  0  0
   -2.7143   -1.2949    0.9746 H   0  0  0  0  0  0  0  0  0  0  0  0
   -0.3001   -1.2479    0.5004 H   0  0  0  0  0  0  0  0  0  0  0  0
  1  2  2  3
  1  5  1  0
  1  6  1  0
  2  3  1  0
  2  7  1  0
  3  4  2  3
  3  8  1  0
  4  9  1  0
  4 10  1  0
 11 12  1  0
 11 20  1  0
 11 21  1  0
 11 22  1  0
 12 13  1  0
 12 14  1  0
 13 23  1  0
 13 24  1  0
 13 25  1  0
 14 15  2  0
 14 19  1  0
 15 16  1  0
 15 26  1  0
 16 17  2  0
 16 27  1  0
 17 18  1  0
 17 28  1  0
 18 19  2  0
 18 29  1  0
 19 30  1  0
M  RAD  1  12   2
M  END
>  <reaction>  (15) 
rxn_1663

>  <mol_properties>  (15) 
{"1": {"label": "*4", "atom_type": "Cd"}, "2": {"label": "*3", "atom_type": "Cd"}, "7": {"label": "*2", "atom_type": "H0"}, "11": {"label": "*1", "atom_type": "Cs"}, "13": {"label": "*0", "atom_type": "Cd"}}

>  <type>  (15) 
unop_11

>  <geom_source>  (15) 
Heuristics

$$$$

     RDKit          3D

 30 29  0  0  0  0  0  0  0  0999 V2000
   -0.9718   -3.2698   -1.3868 C   0  0  0  0  0  0  0  0  0  0  0  0
   -0.9718   -3.2698   -0.0580 C   0  0  0  0  0  0  0  0  0  0  0  0
   -0.9718   -2.0625    0.7573 C   0  0  0  0  0  0  0  0  0  0  0  0
   -0.9718   -2.0625    2.0862 C   0  0  0  0  0  0  0  0  0  0  0  0
   -0.9718   -2.3432   -1.9503 H   0  0  0  0  0  0  0  0  0  0  0  0
   -0.9718   -4.1914   -1.9540 H   0  0  0  0  0  0  0  0  0  0  0  0
   -0.9718   -4.2148    0.4787 H   0  0  0  0  0  0  0  0  0  0  0  0
   -0.9718   -0.9286    0.1134 H   0  0  0  0  0  0  0  0  0  0  0  0
   -0.9718   -2.9891    2.6497 H   0  0  0  0  0  0  0  0  0  0  0  0
   -0.9718   -1.1410    2.6534 H   0  0  0  0  0  0  0  0  0  0  0  0
   -0.9718   -0.1041   -2.0313 C   0  0  0  0  0  0  0  0  0  0  0  0
   -0.9718    0.2129   -0.5348 C   0  0  0  0  0  3  0  0  0  0  0  0
   -2.2372    0.9733   -0.1342 C   0  0  0  0  0  0  0  0  0  0  0  0
    0.2808    0.9570   -0.1219 C   0  0  0  0  0  0  0  0  0  0  0  0
    0.5744    2.2161   -0.6411 C   0  0  0  0  0  0  0  0  0  0  0  0
    1.7205    2.8949   -0.2621 C   0  0  0  0  0  0  0  0  0  0  0  0
    2.6003    2.3261    0.6478 C   0  0  0  0  0  0  0  0  0  0  0  0
    2.3214    1.0749    1.1723 C   0  0  0  0  0  0  0  0  0  0  0  0
    1.1713    0.3999    0.7884 C   0  0  0  0  0  0  0  0  0  0  0  0
   -0.0807   -0.6663   -2.3143 H   0  0  0  0  0  0  0  0  0  0  0  0
   -1.8505   -0.6944   -2.2991 H   0  0  0  0  0  0  0  0  0  0  0  0
   -0.9924    0.8123   -2.6257 H   0  0  0  0  0  0  0  0  0  0  0  0
   -2.3033    1.9284   -0.6604 H   0  0  0  0  0  0  0  0  0  0  0  0
   -3.1287    0.3938   -0.3829 H   0  0  0  0  0  0  0  0  0  0  0  0
   -2.2494    1.1800    0.9369 H   0  0  0  0  0  0  0  0  0  0  0  0
   -0.1019    2.6752   -1.3530 H   0  0  0  0  0  0  0  0  0  0  0  0
    1.9288    3.8728   -0.6785 H   0  0  0  0  0  0  0  0  0  0  0  0
    3.4965    2.8560    0.9446 H   0  0  0  0  0  0  0  0  0  0  0  0
    3.0001    0.6201    1.8832 H   0  0  0  0  0  0  0  0  0  0  0  0
    0.9614   -0.5792    1.2044 H   0  0  0  0  0  0  0  0  0  0  0  0
  1  2  2  3
  1  5  1  0
  1  6  1  0
  2  3  1  0
  2  7  1  0
  3  4  2  3
  3  8  1  0
  4  9  1  0
  4 10  1  0
 11 12  1  0
 11 20  1  0
 11 21  1  0
 11 22  1  0
 12 13  1  0
 12 14  1  0
 13 23  1  0
 13 24  1  0
 13 25  1  0
 14 15  2  0
 14 19  1  0
 15 16  1  0
 15 26  1  0
 16 17  2  0
 16 27  1  0
 17 18  1  0
 17 28  1  0
 18 19  2  0
 18 29  1  0
 19 30  1  0
M  RAD  1  12   2
M  END
>  <reaction>  (16) 
rxn_1663

>  <mol_properties>  (16) 
{"1": {"label": "*4", "atom_type": "Cd"}, "2": {"label": "*3", "atom_type": "Cd"}, "7": {"label": "*2", "atom_type": "H0"}, "11": {"label": "*1", "atom_type": "Cs"}, "13": {"label": "*0", "atom_type": "Cd"}}

>  <type>  (16) 
unop_12

>  <geom_source>  (16) 
Heuristics

$$$$

     RDKit          3D

 30 29  0  0  0  0  0  0  0  0999 V2000
    0.1059   -0.9470   -0.3991 C   0  0  0  0  0  3  0  0  0  0  0  0
    0.0455   -2.2095    0.4662 C   0  0  0  0  0  0  0  0  0  0  0  0
    0.2599   -1.2987   -1.8820 C   0  0  0  0  0  0  0  0  0  0  0  0
   -1.1046   -0.0658   -0.1678 C   0  0  0  0  0  0  0  0  0  0  0  0
   -2.4050   -0.5207   -0.4630 C   0  0  0  0  0  0  0  0  0  0  0  0
   -0.9379    1.2305    0.3502 C   0  0  0  0  0  0  0  0  0  0  0  0
   -3.5104    0.3064   -0.2431 C   0  0  0  0  0  0  0  0  0  0  0  0
   -3.3319    1.5923    0.2719 C   0  0  0  0  0  0  0  0  0  0  0  0
   -2.0472    2.0536    0.5681 C   0  0  0  0  0  0  0  0  0  0  0  0
    3.0958    1.0150    0.3416 C   0  0  0  0  0  0  0  0  0  0  0  0
    3.9574    0.5672   -0.5645 C   0  0  0  0  0  0  0  0  0  0  0  0
    1.1787    0.5476    1.7839 C   0  0  0  0  0  0  0  0  0  0  0  0
    2.0551    0.1308    0.8773 C   0  0  0  0  0  0  0  0  0  0  0  0
    1.2931   -0.2402   -0.0166 H   0  0  0  0  0  0  0  0  0  0  0  0
    0.9872   -2.7873    0.3543 H   0  0  0  0  0  0  0  0  0  0  0  0
   -0.8068   -2.8583    0.1726 H   0  0  0  0  0  0  0  0  0  0  0  0
   -0.0638   -1.9298    1.5356 H   0  0  0  0  0  0  0  0  0  0  0  0
    1.2057   -1.8590   -2.0392 H   0  0  0  0  0  0  0  0  0  0  0  0
    0.3034   -0.3692   -2.4883 H   0  0  0  0  0  0  0  0  0  0  0  0
   -0.5868   -1.9236   -2.2374 H   0  0  0  0  0  0  0  0  0  0  0  0
   -2.5651   -1.5136   -0.8627 H   0  0  0  0  0  0  0  0  0  0  0  0
   -4.5064   -0.0501   -0.4723 H   0  0  0  0  0  0  0  0  0  0  0  0
    0.0481    1.6090    0.5870 H   0  0  0  0  0  0  0  0  0  0  0  0
   -4.1889    2.2313    0.4415 H   0  0  0  0  0  0  0  0  0  0  0  0
   -1.9103    3.0503    0.9672 H   0  0  0  0  0  0  0  0  0  0  0  0
    3.1685    2.0412    0.6825 H   0  0  0  0  0  0  0  0  0  0  0  0
    4.7227    1.2251   -0.9554 H   0  0  0  0  0  0  0  0  0  0  0  0
    3.9099   -0.4535   -0.9245 H   0  0  0  0  0  0  0  0  0  0  0  0
    0.4269   -0.1362    2.1532 H   0  0  0  0  0  0  0  0  0  0  0  0
    1.2015    1.5622    2.1625 H   0  0  0  0  0  0  0  0  0  0  0  0
  1  2  1  0
  1  3  1  0
  1  4  1  0
  2 15  1  0
  2 16  1  0
  2 17  1  0
  3 18  1  0
  3 19  1  0
  3 20  1  0
  4  5  2  0
  4  6  1  0
  5  7  1  0
  5 21  1  0
  6  9  2  0
  6 23  1  0
  7  8  2  0
  7 22  1  0
  8  9  1  0
  8 24  1  0
  9 25  1  0
 10 11  2  3
 10 13  1  0
 10 26  1  0
 11 27  1  0
 11 28  1  0
 12 13  2  3
 12 29  1  0
 12 30  1  0
 13 14  1  0
M  RAD  1   1   2
M  END
>  <reaction>  (17) 
rxn_1663

>  <mol_properties>  (17) 
{"1": {"label": "*4", "atom_type": "Cd"}, "2": {"label": "*3", "atom_type": "Cd"}, "7": {"label": "*2", "atom_type": "H0"}, "11": {"label": "*1", "atom_type": "Cs"}, "13": {"label": "*0", "atom_type": "Cd"}}

>  <type>  (17) 
unop_13

>  <geom_source>  (17) 
AutoTST

$$$$
