
     RDKit          3D

  6  5  0  0  0  0  0  0  0  0999 V2000
    0.6594    0.0438   -0.0050 C   0  0  0  0  0  0  0  0  0  0  0  0
   -0.6594   -0.0438    0.0050 C   0  0  0  0  0  0  0  0  0  0  0  0
    1.1706    0.8681   -0.4881 H   0  0  0  0  0  0  0  0  0  0  0  0
    1.2824   -0.7051    0.4696 H   0  0  0  0  0  0  0  0  0  0  0  0
   -1.2824    0.7051   -0.4696 H   0  0  0  0  0  0  0  0  0  0  0  0
   -1.1706   -0.8681    0.4881 H   0  0  0  0  0  0  0  0  0  0  0  0
  1  2  2  3
  1  3  1  0
  1  4  1  0
  2  5  1  0
  2  6  1  0
M  END
>  <reaction>  (1) 
rxn_1594

>  <mol_properties>  (1) 
{"1": {"label": "donator", "atom_type": "Cd"}, "4": {"label": "d_hydrogen", "atom_type": "H0"}}

>  <type>  (1) 
r1h

$$$$

     RDKit          3D

  9  8  0  0  0  0  0  0  0  0999 V2000
    2.3991   -0.1292   -0.2384 S   0  0  0  0  0  0  0  0  0  0  0  0
    0.7460    0.2807    0.0931 C   0  0  0  0  0  3  0  0  0  0  0  0
   -0.3131   -0.5719   -0.2043 C   0  0  0  0  0  0  0  0  0  0  0  0
   -0.2286   -1.8095   -0.7775 C   0  0  0  0  0  0  0  0  0  0  0  0
    2.9373    1.0009    0.2312 H   0  0  0  0  0  0  0  0  0  0  0  0
    0.5618    1.2421    0.5487 H   0  0  0  0  0  0  0  0  0  0  0  0
   -1.2978   -0.1954    0.0537 H   0  0  0  0  0  0  0  0  0  0  0  0
    0.7207   -2.2479   -1.0607 H   0  0  0  0  0  0  0  0  0  0  0  0
   -1.1177   -2.3938   -0.9670 H   0  0  0  0  0  0  0  0  0  0  0  0
  1  2  1  0
  1  5  1  0
  2  3  1  0
  2  6  1  0
  3  4  2  3
  3  7  1  0
  4  8  1  0
  4  9  1  0
M  RAD  1   2   2
M  END
>  <reaction>  (2) 
rxn_1594

>  <mol_properties>  (2) 
{"1": {"label": "acceptor", "atom_type": "Cs"}}

>  <type>  (2) 
r2

$$$$

     RDKit          3D

 10  9  0  0  0  0  0  0  0  0999 V2000
    2.2097   -0.5315    0.2575 S   0  0  0  0  0  0  0  0  0  0  0  0
    0.5401   -0.7188   -0.4494 C   0  0  0  0  0  0  0  0  0  0  0  0
   -0.5263   -0.1678    0.4365 C   0  0  0  0  0  0  0  0  0  0  0  0
   -1.3394    0.8185    0.0912 C   0  0  0  0  0  0  0  0  0  0  0  0
    2.1701    0.8016    0.3806 H   0  0  0  0  0  0  0  0  0  0  0  0
    0.4238   -1.7978   -0.5701 H   0  0  0  0  0  0  0  0  0  0  0  0
    0.5053   -0.2663   -1.4400 H   0  0  0  0  0  0  0  0  0  0  0  0
   -0.6005   -0.6141    1.4236 H   0  0  0  0  0  0  0  0  0  0  0  0
   -2.0960    1.1907    0.7700 H   0  0  0  0  0  0  0  0  0  0  0  0
   -1.2784    1.2877   -0.8850 H   0  0  0  0  0  0  0  0  0  0  0  0
  1  2  1  0
  1  5  1  0
  2  3  1  0
  2  6  1  0
  2  7  1  0
  3  4  2  3
  3  8  1  0
  4  9  1  0
  4 10  1  0
M  END
>  <reaction>  (3) 
rxn_1594

>  <mol_properties>  (3) 
{"1": {"label": "acceptor", "atom_type": "Cs"}, "9": {"label": "a_hydrogen", "atom_type": "H0"}}

>  <type>  (3) 
r2h

$$$$

     RDKit          3D

 15 13  0  0  0  0  0  0  0  0999 V2000
   -1.3415   -0.0388    1.5696 S   0  0  0  0  0  0  0  0  0  0  0  0
    0.2378   -0.0298    0.7047 C   0  0  0  0  0  0  0  0  0  0  0  0
    0.5607    1.1937   -0.0449 C   0  0  0  0  0  0  0  0  0  0  0  0
    1.7731    1.7382   -0.0978 C   0  0  0  0  0  0  0  0  0  0  0  0
   -1.0789    0.9716    2.4114 H   0  0  0  0  0  0  0  0  0  0  0  0
    1.0553   -0.3870    1.3293 H   0  0  0  0  0  0  0  0  0  0  0  0
   -0.2598    1.6428   -0.5967 H   0  0  0  0  0  0  0  0  0  0  0  0
    2.6084    1.3152    0.4493 H   0  0  0  0  0  0  0  0  0  0  0  0
    1.9664    2.6258   -0.6862 H   0  0  0  0  0  0  0  0  0  0  0  0
    0.5835   -1.5476   -2.3014 C   0  0  0  0  0  0  0  0  0  0  0  0
   -0.0049   -1.9354   -1.1988 C   0  0  0  0  0  3  0  0  0  0  0  0
    1.0747   -0.5804   -2.3680 H   0  0  0  0  0  0  0  0  0  0  0  0
    0.6064   -2.1713   -3.1927 H   0  0  0  0  0  0  0  0  0  0  0  0
    0.0785   -0.9453   -0.1229 H   0  0  0  0  0  0  0  0  0  0  0  0
   -0.5342   -2.8479   -0.9561 H   0  0  0  0  0  0  0  0  0  0  0  0
  1  2  1  0
  1  5  1  0
  2  3  1  0
  2  6  1  0
  2 14  1  0
  3  4  2  3
  3  7  1  0
  4  8  1  0
  4  9  1  0
 10 11  2  3
 10 12  1  0
 10 13  1  0
 11 15  1  0
M  RAD  1  11   2
M  END
>  <reaction>  (4) 
rxn_1594

>  <mol_properties>  (4) 
{"0": {"label": "*0", "atom_type": "S2s"}, "1": {"label": "*1", "atom_type": "Cs"}, "9": {"label": "*4", "atom_type": "Cd"}, "10": {"label": "*3", "atom_type": "Cd"}, "13": {"label": "*2", "atom_type": "H0"}}

>  <type>  (4) 
ts

$$$$

     RDKit          3D

 15 13  0  0  0  0  0  0  0  0999 V2000
   -1.3387    0.1090    1.2039 S   0  0  0  0  0  0  0  0  0  0  0  0
    0.1929    0.1974    0.2197 C   0  0  0  0  0  3  0  0  0  0  0  0
    0.6741    1.5962    0.0264 C   0  0  0  0  0  0  0  0  0  0  0  0
    1.8466    2.0413    0.4513 C   0  0  0  0  0  0  0  0  0  0  0  0
   -0.8534    0.7253    2.2895 H   0  0  0  0  0  0  0  0  0  0  0  0
    0.9614   -0.4266    0.6751 H   0  0  0  0  0  0  0  0  0  0  0  0
   -0.0113    2.2677   -0.4818 H   0  0  0  0  0  0  0  0  0  0  0  0
    2.5444    1.3931    0.9706 H   0  0  0  0  0  0  0  0  0  0  0  0
    2.1519    3.0677    0.2936 H   0  0  0  0  0  0  0  0  0  0  0  0
    0.1929   -2.0253   -2.4714 C   0  0  0  0  0  0  0  0  0  0  0  0
    0.1929   -2.0253   -1.1496 C   0  0  0  0  0  0  0  0  0  0  0  0
    0.1929   -1.1027   -3.0398 H   0  0  0  0  0  0  0  0  0  0  0  0
    0.1929   -2.9479   -3.0398 H   0  0  0  0  0  0  0  0  0  0  0  0
    0.1929   -0.9182   -0.4676 H   0  0  0  0  0  0  0  0  0  0  0  0
    0.1929   -2.9479   -0.5812 H   0  0  0  0  0  0  0  0  0  0  0  0
  1  2  1  0
  1  5  1  0
  2  3  1  0
  2  6  1  0
  3  4  2  3
  3  7  1  0
  4  8  1  0
  4  9  1  0
 10 11  2  3
 10 12  1  0
 10 13  1  0
 11 14  1  0
 11 15  1  0
M  RAD  1   2   2
M  END
>  <reaction>  (5) 
rxn_1594

>  <mol_properties>  (5) 
{"0": {"label": "*0", "atom_type": "S2s"}, "1": {"label": "*1", "atom_type": "Cs"}, "9": {"label": "*4", "atom_type": "Cd"}, "10": {"label": "*3", "atom_type": "Cd"}, "13": {"label": "*2", "atom_type": "H0"}}

>  <type>  (5) 
unop_1

>  <geom_source>  (5) 
Heuristics

$$$$

     RDKit          3D

 15 13  0  0  0  0  0  0  0  0999 V2000
   -0.9340    1.2233   -0.5412 S   0  0  0  0  0  0  0  0  0  0  0  0
   -0.0497    0.0445    0.5315 C   0  0  0  0  0  3  0  0  0  0  0  0
    1.1416    0.6500    1.1946 C   0  0  0  0  0  0  0  0  0  0  0  0
    1.2870    0.7512    2.5069 C   0  0  0  0  0  0  0  0  0  0  0  0
   -1.1824    2.1325    0.4104 H   0  0  0  0  0  0  0  0  0  0  0  0
   -0.7381   -0.3780    1.2627 H   0  0  0  0  0  0  0  0  0  0  0  0
    1.9086    1.0371    0.5307 H   0  0  0  0  0  0  0  0  0  0  0  0
    0.5305    0.3817    3.1909 H   0  0  0  0  0  0  0  0  0  0  0  0
    2.1673    1.2043    2.9443 H   0  0  0  0  0  0  0  0  0  0  0  0
   -0.0497   -2.1782   -2.1596 C   0  0  0  0  0  0  0  0  0  0  0  0
   -0.0497   -2.1782   -0.8379 C   0  0  0  0  0  0  0  0  0  0  0  0
   -0.0497   -1.2556   -2.7280 H   0  0  0  0  0  0  0  0  0  0  0  0
   -0.0497   -3.1008   -2.7280 H   0  0  0  0  0  0  0  0  0  0  0  0
   -0.0497   -1.0711   -0.1558 H   0  0  0  0  0  0  0  0  0  0  0  0
   -0.0497   -3.1008   -0.2695 H   0  0  0  0  0  0  0  0  0  0  0  0
  1  2  1  0
  1  5  1  0
  2  3  1  0
  2  6  1  0
  3  4  2  3
  3  7  1  0
  4  8  1  0
  4  9  1  0
 10 11  2  3
 10 12  1  0
 10 13  1  0
 11 14  1  0
 11 15  1  0
M  RAD  1   2   2
M  END
>  <reaction>  (6) 
rxn_1594

>  <mol_properties>  (6) 
{"0": {"label": "*0", "atom_type": "S2s"}, "1": {"label": "*1", "atom_type": "Cs"}, "9": {"label": "*4", "atom_type": "Cd"}, "10": {"label": "*3", "atom_type": "Cd"}, "13": {"label": "*2", "atom_type": "H0"}}

>  <type>  (6) 
unop_2

>  <geom_source>  (6) 
Heuristics

$$$$

     RDKit          3D

 15 13  0  0  0  0  0  0  0  0999 V2000
   -0.6692   -0.1944    1.7272 S   0  0  0  0  0  0  0  0  0  0  0  0
    0.2151    0.2336    0.1918 C   0  0  0  0  0  3  0  0  0  0  0  0
   -0.0475    1.6329   -0.2539 C   0  0  0  0  0  0  0  0  0  0  0  0
    0.8908    2.5588   -0.3783 C   0  0  0  0  0  0  0  0  0  0  0  0
   -0.1386    0.7781    2.4801 H   0  0  0  0  0  0  0  0  0  0  0  0
    1.2820    0.0512    0.3167 H   0  0  0  0  0  0  0  0  0  0  0  0
   -1.0845    1.8772   -0.4637 H   0  0  0  0  0  0  0  0  0  0  0  0
    1.9321    2.3425   -0.1647 H   0  0  0  0  0  0  0  0  0  0  0  0
    0.6527    3.5645   -0.6999 H   0  0  0  0  0  0  0  0  0  0  0  0
    0.2151   -1.9891   -2.4992 C   0  0  0  0  0  0  0  0  0  0  0  0
    0.2151   -1.9891   -1.1775 C   0  0  0  0  0  0  0  0  0  0  0  0
    0.2151   -1.0665   -3.0676 H   0  0  0  0  0  0  0  0  0  0  0  0
    0.2151   -2.9117   -3.0676 H   0  0  0  0  0  0  0  0  0  0  0  0
    0.2151   -0.8820   -0.4954 H   0  0  0  0  0  0  0  0  0  0  0  0
    0.2151   -2.9117   -0.6091 H   0  0  0  0  0  0  0  0  0  0  0  0
  1  2  1  0
  1  5  1  0
  2  3  1  0
  2  6  1  0
  3  4  2  3
  3  7  1  0
  4  8  1  0
  4  9  1  0
 10 11  2  3
 10 12  1  0
 10 13  1  0
 11 14  1  0
 11 15  1  0
M  RAD  1   2   2
M  END
>  <reaction>  (7) 
rxn_1594

>  <mol_properties>  (7) 
{"0": {"label": "*0", "atom_type": "S2s"}, "1": {"label": "*1", "atom_type": "Cs"}, "9": {"label": "*4", "atom_type": "Cd"}, "10": {"label": "*3", "atom_type": "Cd"}, "13": {"label": "*2", "atom_type": "H0"}}

>  <type>  (7) 
unop_3

>  <geom_source>  (7) 
Heuristics

$$$$

     RDKit          3D

 15 13  0  0  0  0  0  0  0  0999 V2000
    1.0609    1.4028   -0.2826 S   0  0  0  0  0  0  0  0  0  0  0  0
   -0.4708    0.5635    0.2390 C   0  0  0  0  0  3  0  0  0  0  0  0
   -0.2584   -0.3604    1.3909 C   0  0  0  0  0  0  0  0  0  0  0  0
   -0.8556   -0.2290    2.5654 C   0  0  0  0  0  0  0  0  0  0  0  0
    1.3250    1.9771    0.8983 H   0  0  0  0  0  0  0  0  0  0  0  0
   -1.2402    1.3026    0.4605 H   0  0  0  0  0  0  0  0  0  0  0  0
    0.4485   -1.1681    1.2271 H   0  0  0  0  0  0  0  0  0  0  0  0
   -1.5577    0.5754    2.7572 H   0  0  0  0  0  0  0  0  0  0  0  0
   -0.6663   -0.9211    3.3758 H   0  0  0  0  0  0  0  0  0  0  0  0
   -0.4708   -1.6591   -2.4521 C   0  0  0  0  0  0  0  0  0  0  0  0
   -0.4708   -1.6591   -1.1304 C   0  0  0  0  0  0  0  0  0  0  0  0
   -0.4708   -0.7365   -3.0205 H   0  0  0  0  0  0  0  0  0  0  0  0
   -0.4708   -2.5817   -3.0205 H   0  0  0  0  0  0  0  0  0  0  0  0
   -0.4708   -0.5520   -0.4483 H   0  0  0  0  0  0  0  0  0  0  0  0
   -0.4708   -2.5817   -0.5620 H   0  0  0  0  0  0  0  0  0  0  0  0
  1  2  1  0
  1  5  1  0
  2  3  1  0
  2  6  1  0
  3  4  2  3
  3  7  1  0
  4  8  1  0
  4  9  1  0
 10 11  2  3
 10 12  1  0
 10 13  1  0
 11 14  1  0
 11 15  1  0
M  RAD  1   2   2
M  END
>  <reaction>  (8) 
rxn_1594

>  <mol_properties>  (8) 
{"0": {"label": "*0", "atom_type": "S2s"}, "1": {"label": "*1", "atom_type": "Cs"}, "9": {"label": "*4", "atom_type": "Cd"}, "10": {"label": "*3", "atom_type": "Cd"}, "13": {"label": "*2", "atom_type": "H0"}}

>  <type>  (8) 
unop_4

>  <geom_source>  (8) 
Heuristics

$$$$

     RDKit          3D

 15 13  0  0  0  0  0  0  0  0999 V2000
    0.3094   -0.1769    1.8802 S   0  0  0  0  0  0  0  0  0  0  0  0
    0.3094    0.3753    0.1431 C   0  0  0  0  0  3  0  0  0  0  0  0
   -0.8817    1.2064   -0.1977 C   0  0  0  0  0  0  0  0  0  0  0  0
   -0.8142    2.4614   -0.6145 C   0  0  0  0  0  0  0  0  0  0  0  0
    0.2632    1.0459    2.4247 H   0  0  0  0  0  0  0  0  0  0  0  0
    1.2369    0.9031   -0.0769 H   0  0  0  0  0  0  0  0  0  0  0  0
   -1.8473    0.7273   -0.0677 H   0  0  0  0  0  0  0  0  0  0  0  0
    0.1378    2.9656   -0.7422 H   0  0  0  0  0  0  0  0  0  0  0  0
   -1.7067    3.0288   -0.8449 H   0  0  0  0  0  0  0  0  0  0  0  0
    0.3094   -1.8474   -2.5480 C   0  0  0  0  0  0  0  0  0  0  0  0
    0.3094   -1.8474   -1.2262 C   0  0  0  0  0  0  0  0  0  0  0  0
    0.3094   -0.9248   -3.1164 H   0  0  0  0  0  0  0  0  0  0  0  0
    0.3094   -2.7700   -3.1164 H   0  0  0  0  0  0  0  0  0  0  0  0
    0.3094   -0.7403   -0.5442 H   0  0  0  0  0  0  0  0  0  0  0  0
    0.3094   -2.7700   -0.6578 H   0  0  0  0  0  0  0  0  0  0  0  0
  1  2  1  0
  1  5  1  0
  2  3  1  0
  2  6  1  0
  3  4  2  3
  3  7  1  0
  4  8  1  0
  4  9  1  0
 10 11  2  3
 10 12  1  0
 10 13  1  0
 11 14  1  0
 11 15  1  0
M  RAD  1   2   2
M  END
>  <reaction>  (9) 
rxn_1594

>  <mol_properties>  (9) 
{"0": {"label": "*0", "atom_type": "S2s"}, "1": {"label": "*1", "atom_type": "Cs"}, "9": {"label": "*4", "atom_type": "Cd"}, "10": {"label": "*3", "atom_type": "Cd"}, "13": {"label": "*2", "atom_type": "H0"}}

>  <type>  (9) 
unop_5

>  <geom_source>  (9) 
Heuristics

$$$$

     RDKit          3D

 15 13  0  0  0  0  0  0  0  0999 V2000
    1.4728    1.0931    0.3132 S   0  0  0  0  0  0  0  0  0  0  0  0
   -0.2958    0.7177    0.0819 C   0  0  0  0  0  3  0  0  0  0  0  0
   -0.8080   -0.2767    1.0691 C   0  0  0  0  0  0  0  0  0  0  0  0
   -1.7759   -0.0268    1.9375 C   0  0  0  0  0  0  0  0  0  0  0  0
    1.3708    1.5134    1.5808 H   0  0  0  0  0  0  0  0  0  0  0  0
   -0.8761    1.6394    0.1104 H   0  0  0  0  0  0  0  0  0  0  0  0
   -0.3232   -1.2481    1.0591 H   0  0  0  0  0  0  0  0  0  0  0  0
   -2.2686    0.9389    1.9744 H   0  0  0  0  0  0  0  0  0  0  0  0
   -2.1118   -0.7782    2.6405 H   0  0  0  0  0  0  0  0  0  0  0  0
   -0.2958   -1.5050   -2.6092 C   0  0  0  0  0  0  0  0  0  0  0  0
   -0.2958   -1.5050   -1.2875 C   0  0  0  0  0  0  0  0  0  0  0  0
   -0.2958   -0.5824   -3.1776 H   0  0  0  0  0  0  0  0  0  0  0  0
   -0.2958   -2.4276   -3.1776 H   0  0  0  0  0  0  0  0  0  0  0  0
   -0.2958   -0.3979   -0.6054 H   0  0  0  0  0  0  0  0  0  0  0  0
   -0.2958   -2.4276   -0.7191 H   0  0  0  0  0  0  0  0  0  0  0  0
  1  2  1  0
  1  5  1  0
  2  3  1  0
  2  6  1  0
  3  4  2  3
  3  7  1  0
  4  8  1  0
  4  9  1  0
 10 11  2  3
 10 12  1  0
 10 13  1  0
 11 14  1  0
 11 15  1  0
M  RAD  1   2   2
M  END
>  <reaction>  (10) 
rxn_1594

>  <mol_properties>  (10) 
{"0": {"label": "*0", "atom_type": "S2s"}, "1": {"label": "*1", "atom_type": "Cs"}, "9": {"label": "*4", "atom_type": "Cd"}, "10": {"label": "*3", "atom_type": "Cd"}, "13": {"label": "*2", "atom_type": "H0"}}

>  <type>  (10) 
unop_6

>  <geom_source>  (10) 
Heuristics

$$$$

     RDKit          3D

 15 13  0  0  0  0  0  0  0  0999 V2000
    1.5080    0.6647    0.9904 S   0  0  0  0  0  0  0  0  0  0  0  0
   -0.0237    0.7531    0.0063 C   0  0  0  0  0  3  0  0  0  0  0  0
   -1.1563    0.0128    0.6346 C   0  0  0  0  0  0  0  0  0  0  0  0
   -2.2919    0.5792    1.0129 C   0  0  0  0  0  0  0  0  0  0  0  0
    0.9974    1.1980    2.1079 H   0  0  0  0  0  0  0  0  0  0  0  0
   -0.2849    1.7947   -0.1782 H   0  0  0  0  0  0  0  0  0  0  0  0
   -0.9990   -1.0498    0.7926 H   0  0  0  0  0  0  0  0  0  0  0  0
   -2.4690    1.6405    0.8755 H   0  0  0  0  0  0  0  0  0  0  0  0
   -3.0853    0.0027    1.4709 H   0  0  0  0  0  0  0  0  0  0  0  0
   -0.0237   -1.4696   -2.6848 C   0  0  0  0  0  0  0  0  0  0  0  0
   -0.0237   -1.4696   -1.3631 C   0  0  0  0  0  0  0  0  0  0  0  0
   -0.0237   -0.5470   -3.2532 H   0  0  0  0  0  0  0  0  0  0  0  0
   -0.0237   -2.3921   -3.2532 H   0  0  0  0  0  0  0  0  0  0  0  0
   -0.0237   -0.3625   -0.6810 H   0  0  0  0  0  0  0  0  0  0  0  0
   -0.0237   -2.3921   -0.7947 H   0  0  0  0  0  0  0  0  0  0  0  0
  1  2  1  0
  1  5  1  0
  2  3  1  0
  2  6  1  0
  3  4  2  3
  3  7  1  0
  4  8  1  0
  4  9  1  0
 10 11  2  3
 10 12  1  0
 10 13  1  0
 11 14  1  0
 11 15  1  0
M  RAD  1   2   2
M  END
>  <reaction>  (11) 
rxn_1594

>  <mol_properties>  (11) 
{"0": {"label": "*0", "atom_type": "S2s"}, "1": {"label": "*1", "atom_type": "Cs"}, "9": {"label": "*4", "atom_type": "Cd"}, "10": {"label": "*3", "atom_type": "Cd"}, "13": {"label": "*2", "atom_type": "H0"}}

>  <type>  (11) 
unop_7

>  <geom_source>  (11) 
Heuristics

$$$$

     RDKit          3D

 15 13  0  0  0  0  0  0  0  0999 V2000
   -1.5654    0.5219    0.5326 S   0  0  0  0  0  0  0  0  0  0  0  0
    0.2032    0.1464    0.3013 C   0  0  0  0  0  3  0  0  0  0  0  0
    1.0718    1.3509    0.4439 C   0  0  0  0  0  0  0  0  0  0  0  0
    2.0194    1.4762    1.3602 C   0  0  0  0  0  0  0  0  0  0  0  0
   -1.4496    1.0275    1.7675 H   0  0  0  0  0  0  0  0  0  0  0  0
    0.5061   -0.6439    0.9875 H   0  0  0  0  0  0  0  0  0  0  0  0
    0.8759    2.1620   -0.2508 H   0  0  0  0  0  0  0  0  0  0  0  0
    2.2274    0.6846    2.0722 H   0  0  0  0  0  0  0  0  0  0  0  0
    2.6223    2.3724    1.4303 H   0  0  0  0  0  0  0  0  0  0  0  0
    0.2032   -2.0763   -2.3898 C   0  0  0  0  0  0  0  0  0  0  0  0
    0.2032   -2.0763   -1.0680 C   0  0  0  0  0  0  0  0  0  0  0  0
    0.2032   -1.1537   -2.9581 H   0  0  0  0  0  0  0  0  0  0  0  0
    0.2032   -2.9988   -2.9581 H   0  0  0  0  0  0  0  0  0  0  0  0
    0.2032   -0.9691   -0.3860 H   0  0  0  0  0  0  0  0  0  0  0  0
    0.2032   -2.9988   -0.4996 H   0  0  0  0  0  0  0  0  0  0  0  0
  1  2  1  0
  1  5  1  0
  2  3  1  0
  2  6  1  0
  3  4  2  3
  3  7  1  0
  4  8  1  0
  4  9  1  0
 10 11  2  3
 10 12  1  0
 10 13  1  0
 11 14  1  0
 11 15  1  0
M  RAD  1   2   2
M  END
>  <reaction>  (12) 
rxn_1594

>  <mol_properties>  (12) 
{"0": {"label": "*0", "atom_type": "S2s"}, "1": {"label": "*1", "atom_type": "Cs"}, "9": {"label": "*4", "atom_type": "Cd"}, "10": {"label": "*3", "atom_type": "Cd"}, "13": {"label": "*2", "atom_type": "H0"}}

>  <type>  (12) 
unop_8

>  <geom_source>  (12) 
Heuristics

$$$$

     RDKit          3D

 15 13  0  0  0  0  0  0  0  0999 V2000
    0.4022    1.5189   -0.6548 S   0  0  0  0  0  0  0  0  0  0  0  0
   -0.4821    0.3400    0.4180 C   0  0  0  0  0  3  0  0  0  0  0  0
    0.3735   -0.1921    1.5181 C   0  0  0  0  0  0  0  0  0  0  0  0
    0.1121   -0.0265    2.8056 C   0  0  0  0  0  0  0  0  0  0  0  0
    0.7300    2.3839    0.3138 H   0  0  0  0  0  0  0  0  0  0  0  0
   -1.3874    0.8034    0.8089 H   0  0  0  0  0  0  0  0  0  0  0  0
    1.2659   -0.7274    1.2085 H   0  0  0  0  0  0  0  0  0  0  0  0
   -0.7673    0.5133    3.1404 H   0  0  0  0  0  0  0  0  0  0  0  0
    0.7656   -0.4259    3.5705 H   0  0  0  0  0  0  0  0  0  0  0  0
   -0.4821   -1.8826   -2.2731 C   0  0  0  0  0  0  0  0  0  0  0  0
   -0.4821   -1.8826   -0.9514 C   0  0  0  0  0  0  0  0  0  0  0  0
   -0.4821   -0.9600   -2.8415 H   0  0  0  0  0  0  0  0  0  0  0  0
   -0.4821   -2.8052   -2.8415 H   0  0  0  0  0  0  0  0  0  0  0  0
   -0.4821   -0.7755   -0.2693 H   0  0  0  0  0  0  0  0  0  0  0  0
   -0.4821   -2.8052   -0.3830 H   0  0  0  0  0  0  0  0  0  0  0  0
  1  2  1  0
  1  5  1  0
  2  3  1  0
  2  6  1  0
  3  4  2  3
  3  7  1  0
  4  8  1  0
  4  9  1  0
 10 11  2  3
 10 12  1  0
 10 13  1  0
 11 14  1  0
 11 15  1  0
M  RAD  1   2   2
M  END
>  <reaction>  (13) 
rxn_1594

>  <mol_properties>  (13) 
{"0": {"label": "*0", "atom_type": "S2s"}, "1": {"label": "*1", "atom_type": "Cs"}, "9": {"label": "*4", "atom_type": "Cd"}, "10": {"label": "*3", "atom_type": "Cd"}, "13": {"label": "*2", "atom_type": "H0"}}

>  <type>  (13) 
unop_9

>  <geom_source>  (13) 
Heuristics

$$$$

     RDKit          3D

 15 13  0  0  0  0  0  0  0  0999 V2000
   -1.3921    0.9148   -0.0951 S   0  0  0  0  0  0  0  0  0  0  0  0
    0.1395    0.0755    0.4265 C   0  0  0  0  0  3  0  0  0  0  0  0
    1.2022    1.0301    0.8568 C   0  0  0  0  0  0  0  0  0  0  0  0
    1.7272    1.0550    2.0722 C   0  0  0  0  0  0  0  0  0  0  0  0
   -1.6068    1.5619    1.0577 H   0  0  0  0  0  0  0  0  0  0  0  0
   -0.0839   -0.6481    1.2098 H   0  0  0  0  0  0  0  0  0  0  0  0
    1.5290    1.7453    0.1081 H   0  0  0  0  0  0  0  0  0  0  0  0
    1.4102    0.3580    2.8407 H   0  0  0  0  0  0  0  0  0  0  0  0
    2.4932    1.7705    2.3419 H   0  0  0  0  0  0  0  0  0  0  0  0
    0.1395   -2.1471   -2.2646 C   0  0  0  0  0  0  0  0  0  0  0  0
    0.1395   -2.1471   -0.9429 C   0  0  0  0  0  0  0  0  0  0  0  0
    0.1395   -1.2246   -2.8330 H   0  0  0  0  0  0  0  0  0  0  0  0
    0.1395   -3.0697   -2.8330 H   0  0  0  0  0  0  0  0  0  0  0  0
    0.1395   -1.0400   -0.2608 H   0  0  0  0  0  0  0  0  0  0  0  0
    0.1395   -3.0697   -0.3745 H   0  0  0  0  0  0  0  0  0  0  0  0
  1  2  1  0
  1  5  1  0
  2  3  1  0
  2  6  1  0
  3  4  2  3
  3  7  1  0
  4  8  1  0
  4  9  1  0
 10 11  2  3
 10 12  1  0
 10 13  1  0
 11 14  1  0
 11 15  1  0
M  RAD  1   2   2
M  END
>  <reaction>  (14) 
rxn_1594

>  <mol_properties>  (14) 
{"0": {"label": "*0", "atom_type": "S2s"}, "1": {"label": "*1", "atom_type": "Cs"}, "9": {"label": "*4", "atom_type": "Cd"}, "10": {"label": "*3", "atom_type": "Cd"}, "13": {"label": "*2", "atom_type": "H0"}}

>  <type>  (14) 
unop_10

>  <geom_source>  (14) 
Heuristics

$$$$

     RDKit          3D

 15 13  0  0  0  0  0  0  0  0999 V2000
    1.1222    0.1993    1.5760 S   0  0  0  0  0  0  0  0  0  0  0  0
    0.2379    0.6272    0.0406 C   0  0  0  0  0  3  0  0  0  0  0  0
   -1.2432    0.5113    0.1769 C   0  0  0  0  0  0  0  0  0  0  0  0
   -2.0827    1.5231    0.0195 C   0  0  0  0  0  0  0  0  0  0  0  0
    0.5240    1.1129    2.3514 H   0  0  0  0  0  0  0  0  0  0  0  0
    0.5287    1.6246   -0.2876 H   0  0  0  0  0  0  0  0  0  0  0  0
   -1.6199   -0.4727    0.4390 H   0  0  0  0  0  0  0  0  0  0  0  0
   -1.7304    2.5178   -0.2321 H   0  0  0  0  0  0  0  0  0  0  0  0
   -3.1512    1.3935    0.1340 H   0  0  0  0  0  0  0  0  0  0  0  0
    0.2379   -1.5954   -2.6504 C   0  0  0  0  0  0  0  0  0  0  0  0
    0.2379   -1.5954   -1.3287 C   0  0  0  0  0  0  0  0  0  0  0  0
    0.2379   -0.6729   -3.2188 H   0  0  0  0  0  0  0  0  0  0  0  0
    0.2379   -2.5180   -3.2188 H   0  0  0  0  0  0  0  0  0  0  0  0
    0.2379   -0.4883   -0.6466 H   0  0  0  0  0  0  0  0  0  0  0  0
    0.2379   -2.5180   -0.7603 H   0  0  0  0  0  0  0  0  0  0  0  0
  1  2  1  0
  1  5  1  0
  2  3  1  0
  2  6  1  0
  3  4  2  3
  3  7  1  0
  4  8  1  0
  4  9  1  0
 10 11  2  3
 10 12  1  0
 10 13  1  0
 11 14  1  0
 11 15  1  0
M  RAD  1   2   2
M  END
>  <reaction>  (15) 
rxn_1594

>  <mol_properties>  (15) 
{"0": {"label": "*0", "atom_type": "S2s"}, "1": {"label": "*1", "atom_type": "Cs"}, "9": {"label": "*4", "atom_type": "Cd"}, "10": {"label": "*3", "atom_type": "Cd"}, "13": {"label": "*2", "atom_type": "H0"}}

>  <type>  (15) 
unop_11

>  <geom_source>  (15) 
Heuristics

$$$$

     RDKit          3D

 15 13  0  0  0  0  0  0  0  0999 V2000
   -0.3094    1.4360   -0.7378 S   0  0  0  0  0  0  0  0  0  0  0  0
   -0.3094    0.1329    0.5366 C   0  0  0  0  0  3  0  0  0  0  0  0
    0.8817    0.2022    1.4322 C   0  0  0  0  0  0  0  0  0  0  0  0
    0.8142    0.3944    2.7406 C   0  0  0  0  0  0  0  0  0  0  0  0
   -0.2632    2.4723    0.1094 H   0  0  0  0  0  0  0  0  0  0  0  0
   -1.2369    0.1737    1.1070 H   0  0  0  0  0  0  0  0  0  0  0  0
    1.8473    0.1028    0.9458 H   0  0  0  0  0  0  0  0  0  0  0  0
   -0.1378    0.5070    3.2483 H   0  0  0  0  0  0  0  0  0  0  0  0
    1.7067    0.4438    3.3509 H   0  0  0  0  0  0  0  0  0  0  0  0
   -0.3094   -2.0898   -2.1544 C   0  0  0  0  0  0  0  0  0  0  0  0
   -0.3094   -2.0898   -0.8327 C   0  0  0  0  0  0  0  0  0  0  0  0
   -0.3094   -1.1672   -2.7228 H   0  0  0  0  0  0  0  0  0  0  0  0
   -0.3094   -3.0124   -2.7228 H   0  0  0  0  0  0  0  0  0  0  0  0
   -0.3094   -0.9827   -0.1507 H   0  0  0  0  0  0  0  0  0  0  0  0
   -0.3094   -3.0124   -0.2643 H   0  0  0  0  0  0  0  0  0  0  0  0
  1  2  1  0
  1  5  1  0
  2  3  1  0
  2  6  1  0
  3  4  2  3
  3  7  1  0
  4  8  1  0
  4  9  1  0
 10 11  2  3
 10 12  1  0
 10 13  1  0
 11 14  1  0
 11 15  1  0
M  RAD  1   2   2
M  END
>  <reaction>  (16) 
rxn_1594

>  <mol_properties>  (16) 
{"0": {"label": "*0", "atom_type": "S2s"}, "1": {"label": "*1", "atom_type": "Cs"}, "9": {"label": "*4", "atom_type": "Cd"}, "10": {"label": "*3", "atom_type": "Cd"}, "13": {"label": "*2", "atom_type": "H0"}}

>  <type>  (16) 
unop_12

>  <geom_source>  (16) 
Heuristics

$$$$

     RDKit          3D

 15 13  0  0  0  0  0  0  0  0999 V2000
   -2.0116    2.0012    0.6089 S   0  0  0  0  0  0  0  0  0  0  0  0
   -1.0134    0.6430   -0.0724 C   0  0  0  0  0  3  0  0  0  0  0  0
   -1.3859   -0.6572    0.5737 C   0  0  0  0  0  0  0  0  0  0  0  0
   -0.7477   -1.7840    0.2521 C   0  0  0  0  0  0  0  0  0  0  0  0
    2.3976   -0.1770   -0.1542 C   0  0  0  0  0  0  0  0  0  0  0  0
    1.5740    0.8648   -0.2255 C   0  0  0  0  0  0  0  0  0  0  0  0
   -1.1866    0.5801   -1.1678 H   0  0  0  0  0  0  0  0  0  0  0  0
    0.4151    0.9237    0.1777 H   0  0  0  0  0  0  0  0  0  0  0  0
   -2.1772   -0.6933    1.3173 H   0  0  0  0  0  0  0  0  0  0  0  0
   -1.0232   -2.7194    0.7284 H   0  0  0  0  0  0  0  0  0  0  0  0
    0.0503   -1.7829   -0.4845 H   0  0  0  0  0  0  0  0  0  0  0  0
    2.9743   -0.3488    0.7479 H   0  0  0  0  0  0  0  0  0  0  0  0
    2.4962   -0.8569   -0.9942 H   0  0  0  0  0  0  0  0  0  0  0  0
   -1.3542    2.9606   -0.1840 H   0  0  0  0  0  0  0  0  0  0  0  0
    0.9922    1.0461   -1.1234 H   0  0  0  0  0  0  0  0  0  0  0  0
  1  2  1  0
  1 14  1  0
  2  3  1  0
  2  7  1  0
  3  4  2  3
  3  9  1  0
  4 10  1  0
  4 11  1  0
  5  6  2  3
  5 12  1  0
  5 13  1  0
  6  8  1  0
  6 15  1  0
M  RAD  1   2   2
M  END
>  <reaction>  (17) 
rxn_1594

>  <mol_properties>  (17) 
{"0": {"label": "*0", "atom_type": "S2s"}, "1": {"label": "*1", "atom_type": "Cs"}, "9": {"label": "*4", "atom_type": "Cd"}, "10": {"label": "*3", "atom_type": "Cd"}, "13": {"label": "*2", "atom_type": "H0"}}

>  <type>  (17) 
unop_13

>  <geom_source>  (17) 
AutoTST

$$$$
