
     RDKit          3D

 11 10  0  0  0  0  0  0  0  0999 V2000
   -1.2710    0.1907   -0.2084 C   0  0  0  0  0  0  0  0  0  0  0  0
    0.0202   -0.6130   -0.2928 C   0  0  0  0  0  0  0  0  0  0  0  0
    0.1086   -1.6953    0.7756 C   0  0  0  0  0  0  0  0  0  0  0  0
   -1.3607    0.6851    0.7620 H   0  0  0  0  0  0  0  0  0  0  0  0
   -2.1429   -0.4567   -0.3299 H   0  0  0  0  0  0  0  0  0  0  0  0
   -1.3158    0.9602   -0.9809 H   0  0  0  0  0  0  0  0  0  0  0  0
    0.8757    0.0616   -0.1992 H   0  0  0  0  0  0  0  0  0  0  0  0
    0.0997   -1.0712   -1.2825 H   0  0  0  0  0  0  0  0  0  0  0  0
   -0.7198   -2.4022    0.6850 H   0  0  0  0  0  0  0  0  0  0  0  0
    1.0395   -2.2596    0.6989 H   0  0  0  0  0  0  0  0  0  0  0  0
    0.0624   -1.2603    1.7770 H   0  0  0  0  0  0  0  0  0  0  0  0
  1  2  1  0
  1  4  1  0
  1  5  1  0
  1  6  1  0
  2  3  1  0
  2  7  1  0
  2  8  1  0
  3  9  1  0
  3 10  1  0
  3 11  1  0
M  END
>  <reaction>  (1) 
rxn_910

>  <mol_properties>  (1) 
{"1": {"label": "donator", "atom_type": "Cs"}, "6": {"label": "d_hydrogen", "atom_type": "H0"}}

>  <type>  (1) 
r1h

$$$$

     RDKit          3D

  4  3  0  0  0  0  0  0  0  0999 V2000
    0.0000    0.0000    0.0000 C   0  0  0  0  0  3  0  0  0  0  0  0
    1.0638   -0.1747    0.0540 H   0  0  0  0  0  0  0  0  0  0  0  0
   -0.6833   -0.8351   -0.0280 H   0  0  0  0  0  0  0  0  0  0  0  0
   -0.3805    1.0098   -0.0260 H   0  0  0  0  0  0  0  0  0  0  0  0
  1  2  1  0
  1  3  1  0
  1  4  1  0
M  RAD  1   1   2
M  END
>  <reaction>  (2) 
rxn_910

>  <mol_properties>  (2) 
{"0": {"label": "acceptor", "atom_type": "Cs"}}

>  <type>  (2) 
r2

$$$$

     RDKit          3D

  5  4  0  0  0  0  0  0  0  0999 V2000
    0.0000    0.0000    0.0000 C   0  0  0  0  0  0  0  0  0  0  0  0
   -0.6486   -0.7720   -0.4113 H   0  0  0  0  0  0  0  0  0  0  0  0
   -0.3482    0.9787   -0.3267 H   0  0  0  0  0  0  0  0  0  0  0  0
   -0.0223   -0.0487    1.0876 H   0  0  0  0  0  0  0  0  0  0  0  0
    1.0191   -0.1580   -0.3496 H   0  0  0  0  0  0  0  0  0  0  0  0
  1  2  1  0
  1  3  1  0
  1  4  1  0
  1  5  1  0
M  END
>  <reaction>  (3) 
rxn_910

>  <mol_properties>  (3) 
{"0": {"label": "acceptor", "atom_type": "Cs"}, "4": {"label": "a_hydrogen", "atom_type": "H0"}}

>  <type>  (3) 
r2h

$$$$

     RDKit          3D

 15 13  0  0  0  0  0  0  0  0999 V2000
    1.4953   -1.3173    0.9756 C   0  0  0  0  0  3  0  0  0  0  0  0
    1.4582   -1.2092    2.0554 H   0  0  0  0  0  0  0  0  0  0  0  0
    2.3293   -0.7986    0.5120 H   0  0  0  0  0  0  0  0  0  0  0  0
    1.3699   -2.3396    0.6319 H   0  0  0  0  0  0  0  0  0  0  0  0
   -0.5774   -0.1445   -1.4584 C   0  0  0  0  0  0  0  0  0  0  0  0
   -0.6356    0.0289    0.0388 C   0  0  0  0  0  0  0  0  0  0  0  0
   -0.4534    1.4407    0.5374 C   0  0  0  0  0  0  0  0  0  0  0  0
    0.3619    0.2456   -1.8590 H   0  0  0  0  0  0  0  0  0  0  0  0
   -1.3925    0.3948   -1.9526 H   0  0  0  0  0  0  0  0  0  0  0  0
   -0.6542   -1.1951   -1.7432 H   0  0  0  0  0  0  0  0  0  0  0  0
    0.3621   -0.6441    0.5114 H   0  0  0  0  0  0  0  0  0  0  0  0
   -1.4979   -0.4677    0.4868 H   0  0  0  0  0  0  0  0  0  0  0  0
   -1.2596    2.0933    0.1857 H   0  0  0  0  0  0  0  0  0  0  0  0
   -0.4447    1.4824    1.6279 H   0  0  0  0  0  0  0  0  0  0  0  0
    0.4883    1.8623    0.1764 H   0  0  0  0  0  0  0  0  0  0  0  0
  1  2  1  0
  1  3  1  0
  1  4  1  0
  5  6  1  0
  5  8  1  0
  5  9  1  0
  5 10  1  0
  6  7  1  0
  6 11  1  0
  6 12  1  0
  7 13  1  0
  7 14  1  0
  7 15  1  0
M  RAD  1   1   2
M  END
>  <reaction>  (4) 
rxn_910

>  <mol_properties>  (4) 
{"0": {"label": "*3", "atom_type": "Cs"}, "1": {"label": "*4", "atom_type": "H0"}, "4": {"label": "*0", "atom_type": "Cs"}, "5": {"label": "*1", "atom_type": "Cs"}, "10": {"label": "*2", "atom_type": "H0"}}

>  <type>  (4) 
ts

$$$$

     RDKit          3D

 15 13  0  0  0  0  0  0  0  0999 V2000
    1.5508   -1.3237    0.8702 C   0  0  0  0  0  0  0  0  0  0  0  0
    2.1672   -0.6605    1.4751 H   0  0  0  0  0  0  0  0  0  0  0  0
    2.1534   -2.1603    0.5199 H   0  0  0  0  0  0  0  0  0  0  0  0
    0.8098   -1.6144    1.6133 H   0  0  0  0  0  0  0  0  0  0  0  0
   -0.5437   -0.0153   -1.5249 C   0  0  0  0  0  0  0  0  0  0  0  0
   -0.5437   -0.0153   -0.0016 C   0  0  0  0  0  3  0  0  0  0  0  0
   -0.5437    1.3905    0.5851 C   0  0  0  0  0  0  0  0  0  0  0  0
    0.3378    0.4990   -1.9155 H   0  0  0  0  0  0  0  0  0  0  0  0
   -1.4251    0.4990   -1.9155 H   0  0  0  0  0  0  0  0  0  0  0  0
   -0.5437   -1.0302   -1.9261 H   0  0  0  0  0  0  0  0  0  0  0  0
    0.5058   -0.6709    0.4352 H   0  0  0  0  0  0  0  0  0  0  0  0
   -1.4182   -0.5616    0.3624 H   0  0  0  0  0  0  0  0  0  0  0  0
   -1.4251    1.9491    0.2610 H   0  0  0  0  0  0  0  0  0  0  0  0
   -0.5437    1.3699    1.6763 H   0  0  0  0  0  0  0  0  0  0  0  0
    0.3378    1.9491    0.2610 H   0  0  0  0  0  0  0  0  0  0  0  0
  1  2  1  0
  1  3  1  0
  1  4  1  0
  1 11  1  0
  5  6  1  0
  5  8  1  0
  5  9  1  0
  5 10  1  0
  6  7  1  0
  6 12  1  0
  7 13  1  0
  7 14  1  0
  7 15  1  0
M  RAD  1   6   2
M  END
>  <reaction>  (5) 
rxn_910

>  <mol_properties>  (5) 
{"0": {"label": "*3", "atom_type": "Cs"}, "1": {"label": "*4", "atom_type": "H0"}, "4": {"label": "*0", "atom_type": "Cs"}, "5": {"label": "*1", "atom_type": "Cs"}, "10": {"label": "*2", "atom_type": "H0"}}

>  <type>  (5) 
unop_1

>  <geom_source>  (5) 
Heuristics

$$$$

     RDKit          3D

 15 13  0  0  0  0  0  0  0  0999 V2000
    1.5523   -1.3256    0.8788 C   0  0  0  0  0  0  0  0  0  0  0  0
    2.3656   -1.2284    0.1613 H   0  0  0  0  0  0  0  0  0  0  0  0
    1.5110   -2.3506    1.2439 H   0  0  0  0  0  0  0  0  0  0  0  0
    1.1668   -0.7556    1.7228 H   0  0  0  0  0  0  0  0  0  0  0  0
   -0.5421   -0.0171   -1.5163 C   0  0  0  0  0  0  0  0  0  0  0  0
   -0.5421   -0.0171    0.0071 C   0  0  0  0  0  3  0  0  0  0  0  0
   -0.5421    1.3887    0.5938 C   0  0  0  0  0  0  0  0  0  0  0  0
    0.3393    0.4972   -1.9069 H   0  0  0  0  0  0  0  0  0  0  0  0
   -1.4236    0.4972   -1.9069 H   0  0  0  0  0  0  0  0  0  0  0  0
   -0.5421   -1.0320   -1.9174 H   0  0  0  0  0  0  0  0  0  0  0  0
    0.5073   -0.6727    0.4439 H   0  0  0  0  0  0  0  0  0  0  0  0
   -1.4167   -0.5634    0.3711 H   0  0  0  0  0  0  0  0  0  0  0  0
   -1.4236    1.9473    0.2696 H   0  0  0  0  0  0  0  0  0  0  0  0
   -0.5421    1.3681    1.6849 H   0  0  0  0  0  0  0  0  0  0  0  0
    0.3393    1.9473    0.2696 H   0  0  0  0  0  0  0  0  0  0  0  0
  1  2  1  0
  1  3  1  0
  1  4  1  0
  1 11  1  0
  5  6  1  0
  5  8  1  0
  5  9  1  0
  5 10  1  0
  6  7  1  0
  6 12  1  0
  7 13  1  0
  7 14  1  0
  7 15  1  0
M  RAD  1   6   2
M  END
>  <reaction>  (6) 
rxn_910

>  <mol_properties>  (6) 
{"0": {"label": "*3", "atom_type": "Cs"}, "1": {"label": "*4", "atom_type": "H0"}, "4": {"label": "*0", "atom_type": "Cs"}, "5": {"label": "*1", "atom_type": "Cs"}, "10": {"label": "*2", "atom_type": "H0"}}

>  <type>  (6) 
unop_2

>  <geom_source>  (6) 
Heuristics

$$$$

     RDKit          3D

 15 13  0  0  0  0  0  0  0  0999 V2000
    1.5491   -1.3198    0.8713 C   0  0  0  0  0  0  0  0  0  0  0  0
    1.8603   -0.9090    1.8306 H   0  0  0  0  0  0  0  0  0  0  0  0
    2.4225   -1.6814    0.3308 H   0  0  0  0  0  0  0  0  0  0  0  0
    0.9419   -2.0648    1.3832 H   0  0  0  0  0  0  0  0  0  0  0  0
   -0.5454   -0.0113   -1.5238 C   0  0  0  0  0  0  0  0  0  0  0  0
   -0.5454   -0.0113   -0.0004 C   0  0  0  0  0  3  0  0  0  0  0  0
   -0.5454    1.3945    0.5863 C   0  0  0  0  0  0  0  0  0  0  0  0
    0.3361    0.5030   -1.9144 H   0  0  0  0  0  0  0  0  0  0  0  0
   -1.4268    0.5030   -1.9144 H   0  0  0  0  0  0  0  0  0  0  0  0
   -0.5454   -1.0262   -1.9249 H   0  0  0  0  0  0  0  0  0  0  0  0
    0.5041   -0.6669    0.4364 H   0  0  0  0  0  0  0  0  0  0  0  0
   -1.4199   -0.5577    0.3636 H   0  0  0  0  0  0  0  0  0  0  0  0
   -1.4268    1.9531    0.2621 H   0  0  0  0  0  0  0  0  0  0  0  0
   -0.5454    1.3738    1.6774 H   0  0  0  0  0  0  0  0  0  0  0  0
    0.3361    1.9531    0.2621 H   0  0  0  0  0  0  0  0  0  0  0  0
  1  2  1  0
  1  3  1  0
  1  4  1  0
  1 11  1  0
  5  6  1  0
  5  8  1  0
  5  9  1  0
  5 10  1  0
  6  7  1  0
  6 12  1  0
  7 13  1  0
  7 14  1  0
  7 15  1  0
M  RAD  1   6   2
M  END
>  <reaction>  (7) 
rxn_910

>  <mol_properties>  (7) 
{"0": {"label": "*3", "atom_type": "Cs"}, "1": {"label": "*4", "atom_type": "H0"}, "4": {"label": "*0", "atom_type": "Cs"}, "5": {"label": "*1", "atom_type": "Cs"}, "10": {"label": "*2", "atom_type": "H0"}}

>  <type>  (7) 
unop_3

>  <geom_source>  (7) 
Heuristics

$$$$

     RDKit          3D

 15 13  0  0  0  0  0  0  0  0999 V2000
    1.5535   -1.3256    0.8748 C   0  0  0  0  0  0  0  0  0  0  0  0
    1.5176   -2.3516    0.5116 H   0  0  0  0  0  0  0  0  0  0  0  0
    1.0155   -1.2558    1.8190 H   0  0  0  0  0  0  0  0  0  0  0  0
    2.4488   -0.7233    1.0209 H   0  0  0  0  0  0  0  0  0  0  0  0
   -0.5410   -0.0171   -1.5203 C   0  0  0  0  0  0  0  0  0  0  0  0
   -0.5410   -0.0171    0.0030 C   0  0  0  0  0  3  0  0  0  0  0  0
   -0.5410    1.3887    0.5898 C   0  0  0  0  0  0  0  0  0  0  0  0
    0.3404    0.4971   -1.9109 H   0  0  0  0  0  0  0  0  0  0  0  0
   -1.4225    0.4971   -1.9109 H   0  0  0  0  0  0  0  0  0  0  0  0
   -0.5410   -1.0320   -1.9214 H   0  0  0  0  0  0  0  0  0  0  0  0
    0.5084   -0.6728    0.4398 H   0  0  0  0  0  0  0  0  0  0  0  0
   -1.4155   -0.5635    0.3670 H   0  0  0  0  0  0  0  0  0  0  0  0
   -1.4225    1.9472    0.2656 H   0  0  0  0  0  0  0  0  0  0  0  0
   -0.5410    1.3680    1.6809 H   0  0  0  0  0  0  0  0  0  0  0  0
    0.3404    1.9472    0.2656 H   0  0  0  0  0  0  0  0  0  0  0  0
  1  2  1  0
  1  3  1  0
  1  4  1  0
  1 11  1  0
  5  6  1  0
  5  8  1  0
  5  9  1  0
  5 10  1  0
  6  7  1  0
  6 12  1  0
  7 13  1  0
  7 14  1  0
  7 15  1  0
M  RAD  1   6   2
M  END
>  <reaction>  (8) 
rxn_910

>  <mol_properties>  (8) 
{"0": {"label": "*3", "atom_type": "Cs"}, "1": {"label": "*4", "atom_type": "H0"}, "4": {"label": "*0", "atom_type": "Cs"}, "5": {"label": "*1", "atom_type": "Cs"}, "10": {"label": "*2", "atom_type": "H0"}}

>  <type>  (8) 
unop_4

>  <geom_source>  (8) 
Heuristics

$$$$

     RDKit          3D

 15 13  0  0  0  0  0  0  0  0999 V2000
    1.5438   -1.3213    0.8737 C   0  0  0  0  0  0  0  0  0  0  0  0
    1.5443   -1.3216    1.9626 H   0  0  0  0  0  0  0  0  0  0  0  0
    2.4501   -0.8392    0.5104 H   0  0  0  0  0  0  0  0  0  0  0  0
    1.5234   -2.4079    0.9427 H   0  0  0  0  0  0  0  0  0  0  0  0
   -0.5507   -0.0129   -1.5214 C   0  0  0  0  0  0  0  0  0  0  0  0
   -0.5507   -0.0129    0.0019 C   0  0  0  0  0  3  0  0  0  0  0  0
   -0.5507    1.3929    0.5886 C   0  0  0  0  0  0  0  0  0  0  0  0
    0.3308    0.5014   -1.9121 H   0  0  0  0  0  0  0  0  0  0  0  0
   -1.4321    0.5014   -1.9121 H   0  0  0  0  0  0  0  0  0  0  0  0
   -0.5506   -1.0278   -1.9226 H   0  0  0  0  0  0  0  0  0  0  0  0
    0.4988   -0.6685    0.4387 H   0  0  0  0  0  0  0  0  0  0  0  0
   -1.4252   -0.5592    0.3659 H   0  0  0  0  0  0  0  0  0  0  0  0
   -1.4321    1.9515    0.2645 H   0  0  0  0  0  0  0  0  0  0  0  0
   -0.5507    1.3723    1.6797 H   0  0  0  0  0  0  0  0  0  0  0  0
    0.3308    1.9515    0.2645 H   0  0  0  0  0  0  0  0  0  0  0  0
  1  2  1  0
  1  3  1  0
  1  4  1  0
  1 11  1  0
  5  6  1  0
  5  8  1  0
  5  9  1  0
  5 10  1  0
  6  7  1  0
  6 12  1  0
  7 13  1  0
  7 14  1  0
  7 15  1  0
M  RAD  1   6   2
M  END
>  <reaction>  (9) 
rxn_910

>  <mol_properties>  (9) 
{"0": {"label": "*3", "atom_type": "Cs"}, "1": {"label": "*4", "atom_type": "H0"}, "4": {"label": "*0", "atom_type": "Cs"}, "5": {"label": "*1", "atom_type": "Cs"}, "10": {"label": "*2", "atom_type": "H0"}}

>  <type>  (9) 
unop_5

>  <geom_source>  (9) 
Heuristics

$$$$

     RDKit          3D

 15 13  0  0  0  0  0  0  0  0999 V2000
    1.5510   -1.3261    0.8722 C   0  0  0  0  0  0  0  0  0  0  0  0
    1.2973   -2.3781    0.9930 H   0  0  0  0  0  0  0  0  0  0  0  0
    1.1988   -0.7661    1.7371 H   0  0  0  0  0  0  0  0  0  0  0  0
    2.6226   -1.1627    0.7689 H   0  0  0  0  0  0  0  0  0  0  0  0
   -0.5435   -0.0176   -1.5229 C   0  0  0  0  0  0  0  0  0  0  0  0
   -0.5435   -0.0176    0.0004 C   0  0  0  0  0  3  0  0  0  0  0  0
   -0.5435    1.3882    0.5871 C   0  0  0  0  0  0  0  0  0  0  0  0
    0.3380    0.4967   -1.9136 H   0  0  0  0  0  0  0  0  0  0  0  0
   -1.4249    0.4967   -1.9136 H   0  0  0  0  0  0  0  0  0  0  0  0
   -0.5435   -1.0325   -1.9241 H   0  0  0  0  0  0  0  0  0  0  0  0
    0.5060   -0.6732    0.4372 H   0  0  0  0  0  0  0  0  0  0  0  0
   -1.4180   -0.5639    0.3644 H   0  0  0  0  0  0  0  0  0  0  0  0
   -1.4249    1.9468    0.2630 H   0  0  0  0  0  0  0  0  0  0  0  0
   -0.5435    1.3676    1.6782 H   0  0  0  0  0  0  0  0  0  0  0  0
    0.3380    1.9468    0.2630 H   0  0  0  0  0  0  0  0  0  0  0  0
  1  2  1  0
  1  3  1  0
  1  4  1  0
  1 11  1  0
  5  6  1  0
  5  8  1  0
  5  9  1  0
  5 10  1  0
  6  7  1  0
  6 12  1  0
  7 13  1  0
  7 14  1  0
  7 15  1  0
M  RAD  1   6   2
M  END
>  <reaction>  (10) 
rxn_910

>  <mol_properties>  (10) 
{"0": {"label": "*3", "atom_type": "Cs"}, "1": {"label": "*4", "atom_type": "H0"}, "4": {"label": "*0", "atom_type": "Cs"}, "5": {"label": "*1", "atom_type": "Cs"}, "10": {"label": "*2", "atom_type": "H0"}}

>  <type>  (10) 
unop_6

>  <geom_source>  (10) 
Heuristics

$$$$

     RDKit          3D

 15 13  0  0  0  0  0  0  0  0999 V2000
    1.5477   -1.3272    0.8707 C   0  0  0  0  0  0  0  0  0  0  0  0
    1.2220   -2.1721    1.4756 H   0  0  0  0  0  0  0  0  0  0  0  0
    1.5219   -0.4193    1.4715 H   0  0  0  0  0  0  0  0  0  0  0  0
    2.5595   -1.6513    0.6320 H   0  0  0  0  0  0  0  0  0  0  0  0
   -0.5468   -0.0187   -1.5244 C   0  0  0  0  0  0  0  0  0  0  0  0
   -0.5468   -0.0187   -0.0010 C   0  0  0  0  0  3  0  0  0  0  0  0
   -0.5468    1.3871    0.5857 C   0  0  0  0  0  0  0  0  0  0  0  0
    0.3347    0.4955   -1.9150 H   0  0  0  0  0  0  0  0  0  0  0  0
   -1.4282    0.4955   -1.9150 H   0  0  0  0  0  0  0  0  0  0  0  0
   -0.5468   -1.0336   -1.9255 H   0  0  0  0  0  0  0  0  0  0  0  0
    0.5026   -0.6743    0.4358 H   0  0  0  0  0  0  0  0  0  0  0  0
   -1.4213   -0.5651    0.3630 H   0  0  0  0  0  0  0  0  0  0  0  0
   -1.4282    1.9457    0.2615 H   0  0  0  0  0  0  0  0  0  0  0  0
   -0.5468    1.3664    1.6768 H   0  0  0  0  0  0  0  0  0  0  0  0
    0.3347    1.9457    0.2615 H   0  0  0  0  0  0  0  0  0  0  0  0
  1  2  1  0
  1  3  1  0
  1  4  1  0
  1 11  1  0
  5  6  1  0
  5  8  1  0
  5  9  1  0
  5 10  1  0
  6  7  1  0
  6 12  1  0
  7 13  1  0
  7 14  1  0
  7 15  1  0
M  RAD  1   6   2
M  END
>  <reaction>  (11) 
rxn_910

>  <mol_properties>  (11) 
{"0": {"label": "*3", "atom_type": "Cs"}, "1": {"label": "*4", "atom_type": "H0"}, "4": {"label": "*0", "atom_type": "Cs"}, "5": {"label": "*1", "atom_type": "Cs"}, "10": {"label": "*2", "atom_type": "H0"}}

>  <type>  (11) 
unop_7

>  <geom_source>  (11) 
Heuristics

$$$$

     RDKit          3D

 15 13  0  0  0  0  0  0  0  0999 V2000
    1.5502   -1.3267    0.8724 C   0  0  0  0  0  0  0  0  0  0  0  0
    2.3844   -0.6374    0.9932 H   0  0  0  0  0  0  0  0  0  0  0  0
    1.9293   -2.3440    0.7871 H   0  0  0  0  0  0  0  0  0  0  0  0
    0.8509   -1.2883    1.7062 H   0  0  0  0  0  0  0  0  0  0  0  0
   -0.5443   -0.0182   -1.5227 C   0  0  0  0  0  0  0  0  0  0  0  0
   -0.5443   -0.0182    0.0006 C   0  0  0  0  0  3  0  0  0  0  0  0
   -0.5443    1.3876    0.5873 C   0  0  0  0  0  0  0  0  0  0  0  0
    0.3372    0.4960   -1.9134 H   0  0  0  0  0  0  0  0  0  0  0  0
   -1.4258    0.4960   -1.9134 H   0  0  0  0  0  0  0  0  0  0  0  0
   -0.5443   -1.0331   -1.9239 H   0  0  0  0  0  0  0  0  0  0  0  0
    0.5051   -0.6739    0.4374 H   0  0  0  0  0  0  0  0  0  0  0  0
   -1.4188   -0.5646    0.3646 H   0  0  0  0  0  0  0  0  0  0  0  0
   -1.4258    1.9461    0.2632 H   0  0  0  0  0  0  0  0  0  0  0  0
   -0.5443    1.3669    1.6784 H   0  0  0  0  0  0  0  0  0  0  0  0
    0.3372    1.9461    0.2632 H   0  0  0  0  0  0  0  0  0  0  0  0
  1  2  1  0
  1  3  1  0
  1  4  1  0
  1 11  1  0
  5  6  1  0
  5  8  1  0
  5  9  1  0
  5 10  1  0
  6  7  1  0
  6 12  1  0
  7 13  1  0
  7 14  1  0
  7 15  1  0
M  RAD  1   6   2
M  END
>  <reaction>  (12) 
rxn_910

>  <mol_properties>  (12) 
{"0": {"label": "*3", "atom_type": "Cs"}, "1": {"label": "*4", "atom_type": "H0"}, "4": {"label": "*0", "atom_type": "Cs"}, "5": {"label": "*1", "atom_type": "Cs"}, "10": {"label": "*2", "atom_type": "H0"}}

>  <type>  (12) 
unop_8

>  <geom_source>  (12) 
Heuristics

$$$$

     RDKit          3D

 15 13  0  0  0  0  0  0  0  0999 V2000
    1.5551   -1.3254    0.8773 C   0  0  0  0  0  0  0  0  0  0  0  0
    1.8244   -2.0989    0.1598 H   0  0  0  0  0  0  0  0  0  0  0  0
    1.0221   -1.7756    1.7134 H   0  0  0  0  0  0  0  0  0  0  0  0
    2.0415   -0.4671    1.3384 H   0  0  0  0  0  0  0  0  0  0  0  0
   -0.5393   -0.0169   -1.5178 C   0  0  0  0  0  0  0  0  0  0  0  0
   -0.5393   -0.0169    0.0056 C   0  0  0  0  0  3  0  0  0  0  0  0
   -0.5393    1.3889    0.5923 C   0  0  0  0  0  0  0  0  0  0  0  0
    0.3421    0.4973   -1.9084 H   0  0  0  0  0  0  0  0  0  0  0  0
   -1.4208    0.4973   -1.9084 H   0  0  0  0  0  0  0  0  0  0  0  0
   -0.5393   -1.0318   -1.9189 H   0  0  0  0  0  0  0  0  0  0  0  0
    0.5101   -0.6726    0.4424 H   0  0  0  0  0  0  0  0  0  0  0  0
   -1.4139   -0.5633    0.3696 H   0  0  0  0  0  0  0  0  0  0  0  0
   -1.4208    1.9474    0.2681 H   0  0  0  0  0  0  0  0  0  0  0  0
   -0.5393    1.3682    1.6834 H   0  0  0  0  0  0  0  0  0  0  0  0
    0.3421    1.9474    0.2681 H   0  0  0  0  0  0  0  0  0  0  0  0
  1  2  1  0
  1  3  1  0
  1  4  1  0
  1 11  1  0
  5  6  1  0
  5  8  1  0
  5  9  1  0
  5 10  1  0
  6  7  1  0
  6 12  1  0
  7 13  1  0
  7 14  1  0
  7 15  1  0
M  RAD  1   6   2
M  END
>  <reaction>  (13) 
rxn_910

>  <mol_properties>  (13) 
{"0": {"label": "*3", "atom_type": "Cs"}, "1": {"label": "*4", "atom_type": "H0"}, "4": {"label": "*0", "atom_type": "Cs"}, "5": {"label": "*1", "atom_type": "Cs"}, "10": {"label": "*2", "atom_type": "H0"}}

>  <type>  (13) 
unop_9

>  <geom_source>  (13) 
Heuristics

$$$$

     RDKit          3D

 15 13  0  0  0  0  0  0  0  0999 V2000
    1.5503   -1.3269    0.8761 C   0  0  0  0  0  0  0  0  0  0  0  0
    2.4566   -0.8448    0.5129 H   0  0  0  0  0  0  0  0  0  0  0  0
    1.7394   -2.3887    1.0266 H   0  0  0  0  0  0  0  0  0  0  0  0
    0.9604   -1.0254    1.7403 H   0  0  0  0  0  0  0  0  0  0  0  0
   -0.5442   -0.0184   -1.5190 C   0  0  0  0  0  0  0  0  0  0  0  0
   -0.5442   -0.0184    0.0043 C   0  0  0  0  0  3  0  0  0  0  0  0
   -0.5442    1.3874    0.5910 C   0  0  0  0  0  0  0  0  0  0  0  0
    0.3373    0.4958   -1.9096 H   0  0  0  0  0  0  0  0  0  0  0  0
   -1.4256    0.4958   -1.9096 H   0  0  0  0  0  0  0  0  0  0  0  0
   -0.5442   -1.0333   -1.9202 H   0  0  0  0  0  0  0  0  0  0  0  0
    0.5053   -0.6741    0.4411 H   0  0  0  0  0  0  0  0  0  0  0  0
   -1.4187   -0.5648    0.3683 H   0  0  0  0  0  0  0  0  0  0  0  0
   -1.4256    1.9459    0.2669 H   0  0  0  0  0  0  0  0  0  0  0  0
   -0.5442    1.3667    1.6822 H   0  0  0  0  0  0  0  0  0  0  0  0
    0.3373    1.9459    0.2669 H   0  0  0  0  0  0  0  0  0  0  0  0
  1  2  1  0
  1  3  1  0
  1  4  1  0
  1 11  1  0
  5  6  1  0
  5  8  1  0
  5  9  1  0
  5 10  1  0
  6  7  1  0
  6 12  1  0
  7 13  1  0
  7 14  1  0
  7 15  1  0
M  RAD  1   6   2
M  END
>  <reaction>  (14) 
rxn_910

>  <mol_properties>  (14) 
{"0": {"label": "*3", "atom_type": "Cs"}, "1": {"label": "*4", "atom_type": "H0"}, "4": {"label": "*0", "atom_type": "Cs"}, "5": {"label": "*1", "atom_type": "Cs"}, "10": {"label": "*2", "atom_type": "H0"}}

>  <type>  (14) 
unop_10

>  <geom_source>  (14) 
Heuristics

$$$$

     RDKit          3D

 15 13  0  0  0  0  0  0  0  0999 V2000
    1.5437   -1.3267    0.8719 C   0  0  0  0  0  0  0  0  0  0  0  0
    1.3110   -1.7866    1.8311 H   0  0  0  0  0  0  0  0  0  0  0  0
    1.9816   -0.3435    1.0375 H   0  0  0  0  0  0  0  0  0  0  0  0
    2.2301   -2.1408    0.6439 H   0  0  0  0  0  0  0  0  0  0  0  0
   -0.5507   -0.0182   -1.5232 C   0  0  0  0  0  0  0  0  0  0  0  0
   -0.5507   -0.0182    0.0001 C   0  0  0  0  0  3  0  0  0  0  0  0
   -0.5507    1.3876    0.5869 C   0  0  0  0  0  0  0  0  0  0  0  0
    0.3307    0.4960   -1.9138 H   0  0  0  0  0  0  0  0  0  0  0  0
   -1.4322    0.4960   -1.9138 H   0  0  0  0  0  0  0  0  0  0  0  0
   -0.5507   -1.0331   -1.9243 H   0  0  0  0  0  0  0  0  0  0  0  0
    0.4987   -0.6738    0.4370 H   0  0  0  0  0  0  0  0  0  0  0  0
   -1.4253   -0.5646    0.3642 H   0  0  0  0  0  0  0  0  0  0  0  0
   -1.4322    1.9462    0.2627 H   0  0  0  0  0  0  0  0  0  0  0  0
   -0.5507    1.3669    1.6780 H   0  0  0  0  0  0  0  0  0  0  0  0
    0.3307    1.9462    0.2627 H   0  0  0  0  0  0  0  0  0  0  0  0
  1  2  1  0
  1  3  1  0
  1  4  1  0
  1 11  1  0
  5  6  1  0
  5  8  1  0
  5  9  1  0
  5 10  1  0
  6  7  1  0
  6 12  1  0
  7 13  1  0
  7 14  1  0
  7 15  1  0
M  RAD  1   6   2
M  END
>  <reaction>  (15) 
rxn_910

>  <mol_properties>  (15) 
{"0": {"label": "*3", "atom_type": "Cs"}, "1": {"label": "*4", "atom_type": "H0"}, "4": {"label": "*0", "atom_type": "Cs"}, "5": {"label": "*1", "atom_type": "Cs"}, "10": {"label": "*2", "atom_type": "H0"}}

>  <type>  (15) 
unop_11

>  <geom_source>  (15) 
Heuristics

$$$$

     RDKit          3D

 15 13  0  0  0  0  0  0  0  0999 V2000
    1.5548   -1.3250    0.8790 C   0  0  0  0  0  0  0  0  0  0  0  0
    2.1349   -1.6874    0.0318 H   0  0  0  0  0  0  0  0  0  0  0  0
    1.2291   -2.1698    1.4839 H   0  0  0  0  0  0  0  0  0  0  0  0
    1.5433   -0.5097    1.6008 H   0  0  0  0  0  0  0  0  0  0  0  0
   -0.5397   -0.0165   -1.5161 C   0  0  0  0  0  0  0  0  0  0  0  0
   -0.5397   -0.0165    0.0073 C   0  0  0  0  0  3  0  0  0  0  0  0
   -0.5397    1.3893    0.5940 C   0  0  0  0  0  0  0  0  0  0  0  0
    0.3418    0.4978   -1.9067 H   0  0  0  0  0  0  0  0  0  0  0  0
   -1.4211    0.4978   -1.9067 H   0  0  0  0  0  0  0  0  0  0  0  0
   -0.5397   -1.0314   -1.9172 H   0  0  0  0  0  0  0  0  0  0  0  0
    0.5098   -0.6721    0.4441 H   0  0  0  0  0  0  0  0  0  0  0  0
   -1.4142   -0.5628    0.3713 H   0  0  0  0  0  0  0  0  0  0  0  0
   -1.4211    1.9479    0.2698 H   0  0  0  0  0  0  0  0  0  0  0  0
   -0.5397    1.3686    1.6851 H   0  0  0  0  0  0  0  0  0  0  0  0
    0.3418    1.9479    0.2698 H   0  0  0  0  0  0  0  0  0  0  0  0
  1  2  1  0
  1  3  1  0
  1  4  1  0
  1 11  1  0
  5  6  1  0
  5  8  1  0
  5  9  1  0
  5 10  1  0
  6  7  1  0
  6 12  1  0
  7 13  1  0
  7 14  1  0
  7 15  1  0
M  RAD  1   6   2
M  END
>  <reaction>  (16) 
rxn_910

>  <mol_properties>  (16) 
{"0": {"label": "*3", "atom_type": "Cs"}, "1": {"label": "*4", "atom_type": "H0"}, "4": {"label": "*0", "atom_type": "Cs"}, "5": {"label": "*1", "atom_type": "Cs"}, "10": {"label": "*2", "atom_type": "H0"}}

>  <type>  (16) 
unop_12

>  <geom_source>  (16) 
Heuristics

$$$$

     RDKit          3D

 15 13  0  0  0  0  0  0  0  0999 V2000
   -1.2285   -0.9793    0.4298 C   0  0  0  0  0  0  0  0  0  0  0  0
   -1.0849    1.4693   -0.1538 C   0  0  0  0  0  0  0  0  0  0  0  0
    2.1809   -0.4282   -0.0553 C   0  0  0  0  0  0  0  0  0  0  0  0
   -0.3430    0.1393   -0.1053 C   0  0  0  0  0  3  0  0  0  0  0  0
   -0.6461   -1.9234    0.4640 H   0  0  0  0  0  0  0  0  0  0  0  0
   -1.5716   -0.7369    1.4577 H   0  0  0  0  0  0  0  0  0  0  0  0
   -2.1098   -1.1244   -0.2307 H   0  0  0  0  0  0  0  0  0  0  0  0
   -0.4010    2.2571   -0.5324 H   0  0  0  0  0  0  0  0  0  0  0  0
   -1.4255    1.7545    0.8639 H   0  0  0  0  0  0  0  0  0  0  0  0
   -1.9619    1.3984   -0.8320 H   0  0  0  0  0  0  0  0  0  0  0  0
    2.7326   -0.7980    0.8333 H   0  0  0  0  0  0  0  0  0  0  0  0
    2.5645    0.5737   -0.3381 H   0  0  0  0  0  0  0  0  0  0  0  0
    2.3267   -1.1320   -0.9004 H   0  0  0  0  0  0  0  0  0  0  0  0
    0.9409   -0.3458    0.2192 H   0  0  0  0  0  0  0  0  0  0  0  0
    0.0266   -0.1242   -1.1197 H   0  0  0  0  0  0  0  0  0  0  0  0
  1  4  1  0
  1  5  1  0
  1  6  1  0
  1  7  1  0
  2  4  1  0
  2  8  1  0
  2  9  1  0
  2 10  1  0
  3 11  1  0
  3 12  1  0
  3 13  1  0
  3 14  1  0
  4 15  1  0
M  RAD  1   4   2
M  END
>  <reaction>  (17) 
rxn_910

>  <mol_properties>  (17) 
{"0": {"label": "*3", "atom_type": "Cs"}, "1": {"label": "*4", "atom_type": "H0"}, "4": {"label": "*0", "atom_type": "Cs"}, "5": {"label": "*1", "atom_type": "Cs"}, "10": {"label": "*2", "atom_type": "H0"}}

>  <type>  (17) 
unop_13

>  <geom_source>  (17) 
AutoTST

$$$$
