
     RDKit          3D

 10  9  0  0  0  0  0  0  0  0999 V2000
    2.2738    0.0217   -0.0992 C   0  0  0  0  0  0  0  0  0  0  0  0
    1.1083    0.2960   -0.0695 C   0  0  0  0  0  0  0  0  0  0  0  0
   -0.3173    0.6046   -0.0227 C   0  0  0  0  0  0  0  0  0  0  0  0
   -1.1561   -0.5495    0.5292 C   0  0  0  0  0  0  0  0  0  0  0  0
    3.3097   -0.2166   -0.1277 H   0  0  0  0  0  0  0  0  0  0  0  0
   -0.6542    0.8617   -1.0302 H   0  0  0  0  0  0  0  0  0  0  0  0
   -0.4633    1.4978    0.5900 H   0  0  0  0  0  0  0  0  0  0  0  0
   -0.8485   -0.7997    1.5447 H   0  0  0  0  0  0  0  0  0  0  0  0
   -2.2115   -0.2752    0.5459 H   0  0  0  0  0  0  0  0  0  0  0  0
   -1.0409   -1.4407   -0.0879 H   0  0  0  0  0  0  0  0  0  0  0  0
  1  2  3  0
  1  5  1  0
  2  3  1  0
  3  4  1  0
  3  6  1  0
  3  7  1  0
  4  8  1  0
  4  9  1  0
  4 10  1  0
M  END
>  <reaction>  (1) 
rxn_1293

>  <mol_properties>  (1) 
{"2": {"label": "donator", "atom_type": "Cs"}, "5": {"label": "d_hydrogen", "atom_type": "H0"}}

>  <type>  (1) 
r1h

$$$$

     RDKit          3D

 10  9  0  0  0  0  0  0  0  0999 V2000
   -1.2648    0.1959    0.8197 C   0  0  0  0  0  0  0  0  0  0  0  0
   -0.2805    0.0995   -0.3030 C   0  0  0  0  0  3  0  0  0  0  0  0
   -0.0444    1.1347   -1.1797 C   0  0  0  0  0  0  0  0  0  0  0  0
    0.1640    2.0467   -1.9525 C   0  0  0  0  0  0  0  0  0  0  0  0
    0.5686   -1.4168   -0.4488 S   0  0  0  0  0  0  0  0  0  0  0  0
   -2.0466   -0.5638    0.7258 H   0  0  0  0  0  0  0  0  0  0  0  0
   -0.7765    0.0454    1.7871 H   0  0  0  0  0  0  0  0  0  0  0  0
   -1.7371    1.1762    0.8222 H   0  0  0  0  0  0  0  0  0  0  0  0
    0.3433    2.8484   -2.6273 H   0  0  0  0  0  0  0  0  0  0  0  0
    1.3075   -1.0953   -1.5176 H   0  0  0  0  0  0  0  0  0  0  0  0
  1  2  1  0
  1  6  1  0
  1  7  1  0
  1  8  1  0
  2  3  1  0
  2  5  1  0
  3  4  3  0
  4  9  1  0
  5 10  1  0
M  RAD  1   2   2
M  END
>  <reaction>  (2) 
rxn_1293

>  <mol_properties>  (2) 
{"1": {"label": "acceptor", "atom_type": "Cs"}}

>  <type>  (2) 
r2

$$$$

     RDKit          3D

 11 10  0  0  0  0  0  0  0  0999 V2000
   -1.2582   -0.5130    0.2160 C   0  0  0  0  0  0  0  0  0  0  0  0
   -0.1109    0.0509   -0.6210 C   0  0  0  0  0  0  0  0  0  0  0  0
    1.1862   -0.2025   -0.0072 C   0  0  0  0  0  0  0  0  0  0  0  0
    2.2351   -0.4206    0.5274 C   0  0  0  0  0  0  0  0  0  0  0  0
   -0.3298    1.8272   -1.0120 S   0  0  0  0  0  0  0  0  0  0  0  0
   -1.2875   -0.0327    1.1945 H   0  0  0  0  0  0  0  0  0  0  0  0
   -2.2088   -0.3391   -0.2866 H   0  0  0  0  0  0  0  0  0  0  0  0
   -1.1220   -1.5854    0.3655 H   0  0  0  0  0  0  0  0  0  0  0  0
   -0.1222   -0.4181   -1.6078 H   0  0  0  0  0  0  0  0  0  0  0  0
    3.1729   -0.6098    0.9920 H   0  0  0  0  0  0  0  0  0  0  0  0
   -0.1942    2.2663    0.2466 H   0  0  0  0  0  0  0  0  0  0  0  0
  1  2  1  0
  1  6  1  0
  1  7  1  0
  1  8  1  0
  2  3  1  0
  2  5  1  0
  2  9  1  0
  3  4  3  0
  4 10  1  0
  5 11  1  0
M  END
>  <reaction>  (3) 
rxn_1293

>  <mol_properties>  (3) 
{"0": {"label": "a_hydrogen", "atom_type": "H0"}, "2": {"label": "acceptor", "atom_type": "Cs"}}

>  <type>  (3) 
r2h

$$$$

     RDKit          3D

 20 18  0  0  0  0  0  0  0  0999 V2000
   -1.1008    0.6179   -2.6870 C   0  0  0  0  0  0  0  0  0  0  0  0
   -1.3803    0.6548   -1.5162 C   0  0  0  0  0  0  0  0  0  0  0  0
   -1.6335    0.6822   -0.1192 C   0  0  0  0  0  3  0  0  0  0  0  0
   -1.6359    2.0292    0.5641 C   0  0  0  0  0  0  0  0  0  0  0  0
   -0.8821    0.5894   -3.7271 H   0  0  0  0  0  0  0  0  0  0  0  0
   -0.5365    0.0453    0.4024 H   0  0  0  0  0  0  0  0  0  0  0  0
   -2.4256    0.0025    0.1914 H   0  0  0  0  0  0  0  0  0  0  0  0
   -2.4521    2.6566    0.1966 H   0  0  0  0  0  0  0  0  0  0  0  0
   -1.7596    1.9110    1.6411 H   0  0  0  0  0  0  0  0  0  0  0  0
   -0.6978    2.5541    0.3769 H   0  0  0  0  0  0  0  0  0  0  0  0
    0.4652   -0.3110    2.3895 C   0  0  0  0  0  0  0  0  0  0  0  0
    0.5660   -0.5026    0.8895 C   0  0  0  0  0  0  0  0  0  0  0  0
    0.4986   -1.8534    0.4270 C   0  0  0  0  0  0  0  0  0  0  0  0
    0.3756   -2.9730    0.0097 C   0  0  0  0  0  0  0  0  0  0  0  0
    1.8870    0.4853    0.1805 S   0  0  0  0  0  0  0  0  0  0  0  0
    1.3319   -0.7355    2.9010 H   0  0  0  0  0  0  0  0  0  0  0  0
    0.4034    0.7502    2.6335 H   0  0  0  0  0  0  0  0  0  0  0  0
   -0.4279   -0.8109    2.7652 H   0  0  0  0  0  0  0  0  0  0  0  0
    0.2830   -3.9672   -0.3559 H   0  0  0  0  0  0  0  0  0  0  0  0
    1.6193    0.1862   -1.0981 H   0  0  0  0  0  0  0  0  0  0  0  0
  1  2  3  0
  1  5  1  0
  2  3  1  0
  3  4  1  0
  3  7  1  0
  4  8  1  0
  4  9  1  0
  4 10  1  0
  6 12  1  0
 11 12  1  0
 11 16  1  0
 11 17  1  0
 11 18  1  0
 12 13  1  0
 12 15  1  0
 13 14  3  0
 14 19  1  0
 15 20  1  0
M  RAD  1   3   2
M  END
>  <reaction>  (4) 
rxn_1293

>  <mol_properties>  (4) 
{"1": {"label": "*4", "atom_type": "Ct"}, "2": {"label": "*3", "atom_type": "Cs"}, "5": {"label": "*2", "atom_type": "H0"}, "11": {"label": "*1", "atom_type": "Cs"}, "14": {"label": "*0", "atom_type": "S2s"}}

>  <type>  (4) 
ts

$$$$

     RDKit          3D

 20 18  0  0  0  0  0  0  0  0999 V2000
   -1.3243    0.9774   -2.9973 C   0  0  0  0  0  0  0  0  0  0  0  0
   -1.3243    0.9774   -1.7996 C   0  0  0  0  0  0  0  0  0  0  0  0
   -1.3243    1.0056   -0.3404 C   0  0  0  0  0  3  0  0  0  0  0  0
   -1.3243    2.4270    0.2252 C   0  0  0  0  0  0  0  0  0  0  0  0
   -1.3243    0.9774   -4.0606 H   0  0  0  0  0  0  0  0  0  0  0  0
   -0.2737    0.3515    0.0937 H   0  0  0  0  0  0  0  0  0  0  0  0
   -2.1999    0.4605    0.0213 H   0  0  0  0  0  0  0  0  0  0  0  0
   -2.2065    2.9749   -0.1063 H   0  0  0  0  0  0  0  0  0  0  0  0
   -1.3243    2.3997    1.3155 H   0  0  0  0  0  0  0  0  0  0  0  0
   -0.4421    2.9748   -0.1063 H   0  0  0  0  0  0  0  0  0  0  0  0
    1.6493    0.6410    1.3541 C   0  0  0  0  0  0  0  0  0  0  0  0
    0.7767   -0.3025    0.5276 C   0  0  0  0  0  0  0  0  0  0  0  0
   -0.3405   -0.8285    1.3014 C   0  0  0  0  0  0  0  0  0  0  0  0
   -1.2430   -1.2479    1.9672 C   0  0  0  0  0  0  0  0  0  0  0  0
    1.7399   -1.6493   -0.2559 S   0  0  0  0  0  0  0  0  0  0  0  0
    2.0896    0.1103    2.1989 H   0  0  0  0  0  0  0  0  0  0  0  0
    2.4524    1.0439    0.7383 H   0  0  0  0  0  0  0  0  0  0  0  0
    1.0478    1.4642    1.7434 H   0  0  0  0  0  0  0  0  0  0  0  0
   -2.0446   -1.6204    2.5584 H   0  0  0  0  0  0  0  0  0  0  0  0
    2.0721   -2.2675    0.8854 H   0  0  0  0  0  0  0  0  0  0  0  0
  1  2  3  0
  1  5  1  0
  2  3  1  0
  3  4  1  0
  3  7  1  0
  4  8  1  0
  4  9  1  0
  4 10  1  0
  6 12  1  0
 11 12  1  0
 11 16  1  0
 11 17  1  0
 11 18  1  0
 12 13  1  0
 12 15  1  0
 13 14  3  0
 14 19  1  0
 15 20  1  0
M  RAD  1   3   2
M  END
>  <reaction>  (5) 
rxn_1293

>  <mol_properties>  (5) 
{"1": {"label": "*4", "atom_type": "Ct"}, "2": {"label": "*3", "atom_type": "Cs"}, "5": {"label": "*2", "atom_type": "H0"}, "11": {"label": "*1", "atom_type": "Cs"}, "14": {"label": "*0", "atom_type": "S2s"}}

>  <type>  (5) 
unop_1

>  <geom_source>  (5) 
Heuristics

$$$$

     RDKit          3D

 20 18  0  0  0  0  0  0  0  0999 V2000
   -1.4132    0.7846   -3.1904 C   0  0  0  0  0  0  0  0  0  0  0  0
   -1.4132    0.7846   -1.9927 C   0  0  0  0  0  0  0  0  0  0  0  0
   -1.4132    0.8128   -0.5335 C   0  0  0  0  0  3  0  0  0  0  0  0
   -1.4131    2.2342    0.0321 C   0  0  0  0  0  0  0  0  0  0  0  0
   -1.4132    0.7846   -4.2537 H   0  0  0  0  0  0  0  0  0  0  0  0
   -0.3626    0.1587   -0.0995 H   0  0  0  0  0  0  0  0  0  0  0  0
   -2.2887    0.2677   -0.1718 H   0  0  0  0  0  0  0  0  0  0  0  0
   -2.2954    2.7820   -0.2994 H   0  0  0  0  0  0  0  0  0  0  0  0
   -1.4131    2.2069    1.1224 H   0  0  0  0  0  0  0  0  0  0  0  0
   -0.5309    2.7820   -0.2994 H   0  0  0  0  0  0  0  0  0  0  0  0
    1.8145   -0.3724   -0.6903 C   0  0  0  0  0  0  0  0  0  0  0  0
    0.6878   -0.4953    0.3345 C   0  0  0  0  0  0  0  0  0  0  0  0
    0.8814    0.4019    1.4663 C   0  0  0  0  0  0  0  0  0  0  0  0
    1.0741    1.1453    2.3850 C   0  0  0  0  0  0  0  0  0  0  0  0
    0.4227   -2.2215    0.8877 S   0  0  0  0  0  0  0  0  0  0  0  0
    2.7686   -0.6517   -0.2425 H   0  0  0  0  0  0  0  0  0  0  0  0
    1.6220   -1.0280   -1.5386 H   0  0  0  0  0  0  0  0  0  0  0  0
    1.8907    0.6576   -1.0427 H   0  0  0  0  0  0  0  0  0  0  0  0
    1.2452    1.8056    3.2009 H   0  0  0  0  0  0  0  0  0  0  0  0
    1.5941   -2.3464    1.5261 H   0  0  0  0  0  0  0  0  0  0  0  0
  1  2  3  0
  1  5  1  0
  2  3  1  0
  3  4  1  0
  3  7  1  0
  4  8  1  0
  4  9  1  0
  4 10  1  0
  6 12  1  0
 11 12  1  0
 11 16  1  0
 11 17  1  0
 11 18  1  0
 12 13  1  0
 12 15  1  0
 13 14  3  0
 14 19  1  0
 15 20  1  0
M  RAD  1   3   2
M  END
>  <reaction>  (6) 
rxn_1293

>  <mol_properties>  (6) 
{"1": {"label": "*4", "atom_type": "Ct"}, "2": {"label": "*3", "atom_type": "Cs"}, "5": {"label": "*2", "atom_type": "H0"}, "11": {"label": "*1", "atom_type": "Cs"}, "14": {"label": "*0", "atom_type": "S2s"}}

>  <type>  (6) 
unop_2

>  <geom_source>  (6) 
Heuristics

$$$$

     RDKit          3D

 20 18  0  0  0  0  0  0  0  0999 V2000
   -1.4322    0.9672   -2.8306 C   0  0  0  0  0  0  0  0  0  0  0  0
   -1.4322    0.9672   -1.6329 C   0  0  0  0  0  0  0  0  0  0  0  0
   -1.4322    0.9954   -0.1737 C   0  0  0  0  0  3  0  0  0  0  0  0
   -1.4322    2.4168    0.3919 C   0  0  0  0  0  0  0  0  0  0  0  0
   -1.4322    0.9672   -3.8939 H   0  0  0  0  0  0  0  0  0  0  0  0
   -0.3816    0.3413    0.2603 H   0  0  0  0  0  0  0  0  0  0  0  0
   -2.3077    0.4503    0.1880 H   0  0  0  0  0  0  0  0  0  0  0  0
   -2.3144    2.9647    0.0604 H   0  0  0  0  0  0  0  0  0  0  0  0
   -1.4322    2.3895    1.4821 H   0  0  0  0  0  0  0  0  0  0  0  0
   -0.5500    2.9646    0.0604 H   0  0  0  0  0  0  0  0  0  0  0  0
    1.1161    0.2842    2.0278 C   0  0  0  0  0  0  0  0  0  0  0  0
    0.6688   -0.3127    0.6943 C   0  0  0  0  0  0  0  0  0  0  0  0
   -0.2573   -1.4227    0.8782 C   0  0  0  0  0  0  0  0  0  0  0  0
   -1.0100   -2.3350    1.0644 C   0  0  0  0  0  0  0  0  0  0  0  0
    2.0789   -0.7886   -0.3739 S   0  0  0  0  0  0  0  0  0  0  0  0
    1.6503   -0.4608    2.6183 H   0  0  0  0  0  0  0  0  0  0  0  0
    1.7776    1.1322    1.8552 H   0  0  0  0  0  0  0  0  0  0  0  0
    0.2485    0.6163    2.6003 H   0  0  0  0  0  0  0  0  0  0  0  0
   -1.6786   -3.1453    1.2297 H   0  0  0  0  0  0  0  0  0  0  0  0
    2.5205   -1.7815    0.4098 H   0  0  0  0  0  0  0  0  0  0  0  0
  1  2  3  0
  1  5  1  0
  2  3  1  0
  3  4  1  0
  3  7  1  0
  4  8  1  0
  4  9  1  0
  4 10  1  0
  6 12  1  0
 11 12  1  0
 11 16  1  0
 11 17  1  0
 11 18  1  0
 12 13  1  0
 12 15  1  0
 13 14  3  0
 14 19  1  0
 15 20  1  0
M  RAD  1   3   2
M  END
>  <reaction>  (7) 
rxn_1293

>  <mol_properties>  (7) 
{"1": {"label": "*4", "atom_type": "Ct"}, "2": {"label": "*3", "atom_type": "Cs"}, "5": {"label": "*2", "atom_type": "H0"}, "11": {"label": "*1", "atom_type": "Cs"}, "14": {"label": "*0", "atom_type": "S2s"}}

>  <type>  (7) 
unop_3

>  <geom_source>  (7) 
Heuristics

$$$$

     RDKit          3D

 20 18  0  0  0  0  0  0  0  0999 V2000
   -1.4038    0.6138   -3.2321 C   0  0  0  0  0  0  0  0  0  0  0  0
   -1.4038    0.6138   -2.0344 C   0  0  0  0  0  0  0  0  0  0  0  0
   -1.4038    0.6420   -0.5752 C   0  0  0  0  0  3  0  0  0  0  0  0
   -1.4038    2.0634   -0.0096 C   0  0  0  0  0  0  0  0  0  0  0  0
   -1.4038    0.6138   -4.2954 H   0  0  0  0  0  0  0  0  0  0  0  0
   -0.3532   -0.0121   -0.1411 H   0  0  0  0  0  0  0  0  0  0  0  0
   -2.2793    0.0970   -0.2135 H   0  0  0  0  0  0  0  0  0  0  0  0
   -2.2860    2.6113   -0.3411 H   0  0  0  0  0  0  0  0  0  0  0  0
   -1.4038    2.0361    1.0807 H   0  0  0  0  0  0  0  0  0  0  0  0
   -0.5215    2.6113   -0.3411 H   0  0  0  0  0  0  0  0  0  0  0  0
    0.6289   -2.1103   -0.2014 C   0  0  0  0  0  0  0  0  0  0  0  0
    0.6972   -0.6661    0.2928 C   0  0  0  0  0  0  0  0  0  0  0  0
    2.0713   -0.2228    0.4900 C   0  0  0  0  0  0  0  0  0  0  0  0
    3.2113    0.1073    0.6487 C   0  0  0  0  0  0  0  0  0  0  0  0
   -0.3175   -0.3847    1.7918 S   0  0  0  0  0  0  0  0  0  0  0  0
    1.0619   -2.7862    0.5367 H   0  0  0  0  0  0  0  0  0  0  0  0
   -0.4074   -2.3986   -0.3728 H   0  0  0  0  0  0  0  0  0  0  0  0
    1.1895   -2.2156   -1.1317 H   0  0  0  0  0  0  0  0  0  0  0  0
    4.2238    0.4005    0.7896 H   0  0  0  0  0  0  0  0  0  0  0  0
    0.4213   -1.1490    2.6076 H   0  0  0  0  0  0  0  0  0  0  0  0
  1  2  3  0
  1  5  1  0
  2  3  1  0
  3  4  1  0
  3  7  1  0
  4  8  1  0
  4  9  1  0
  4 10  1  0
  6 12  1  0
 11 12  1  0
 11 16  1  0
 11 17  1  0
 11 18  1  0
 12 13  1  0
 12 15  1  0
 13 14  3  0
 14 19  1  0
 15 20  1  0
M  RAD  1   3   2
M  END
>  <reaction>  (8) 
rxn_1293

>  <mol_properties>  (8) 
{"1": {"label": "*4", "atom_type": "Ct"}, "2": {"label": "*3", "atom_type": "Cs"}, "5": {"label": "*2", "atom_type": "H0"}, "11": {"label": "*1", "atom_type": "Cs"}, "14": {"label": "*0", "atom_type": "S2s"}}

>  <type>  (8) 
unop_4

>  <geom_source>  (8) 
Heuristics

$$$$

     RDKit          3D

 20 18  0  0  0  0  0  0  0  0999 V2000
   -1.6102    0.7618   -2.7451 C   0  0  0  0  0  0  0  0  0  0  0  0
   -1.6102    0.7618   -1.5474 C   0  0  0  0  0  0  0  0  0  0  0  0
   -1.6102    0.7901   -0.0882 C   0  0  0  0  0  3  0  0  0  0  0  0
   -1.6102    2.2114    0.4774 C   0  0  0  0  0  0  0  0  0  0  0  0
   -1.6102    0.7618   -3.8084 H   0  0  0  0  0  0  0  0  0  0  0  0
   -0.5596    0.1360    0.3458 H   0  0  0  0  0  0  0  0  0  0  0  0
   -2.4857    0.2450    0.2735 H   0  0  0  0  0  0  0  0  0  0  0  0
   -2.4924    2.7593    0.1459 H   0  0  0  0  0  0  0  0  0  0  0  0
   -1.6102    2.1842    1.5677 H   0  0  0  0  0  0  0  0  0  0  0  0
   -0.7279    2.7593    0.1459 H   0  0  0  0  0  0  0  0  0  0  0  0
    0.5008   -0.4948    2.3076 C   0  0  0  0  0  0  0  0  0  0  0  0
    0.4908   -0.5180    0.7798 C   0  0  0  0  0  0  0  0  0  0  0  0
    0.4339   -1.8769    0.2566 C   0  0  0  0  0  0  0  0  0  0  0  0
    0.3943   -3.0059   -0.1403 C   0  0  0  0  0  0  0  0  0  0  0  0
    1.8846    0.4210    0.0509 S   0  0  0  0  0  0  0  0  0  0  0  0
    1.3859   -1.0037    2.6903 H   0  0  0  0  0  0  0  0  0  0  0  0
    0.5073    0.5337    2.6662 H   0  0  0  0  0  0  0  0  0  0  0  0
   -0.3820   -1.0051    2.6965 H   0  0  0  0  0  0  0  0  0  0  0  0
    0.3591   -4.0086   -0.4928 H   0  0  0  0  0  0  0  0  0  0  0  0
    2.8500   -0.4018    0.4827 H   0  0  0  0  0  0  0  0  0  0  0  0
  1  2  3  0
  1  5  1  0
  2  3  1  0
  3  4  1  0
  3  7  1  0
  4  8  1  0
  4  9  1  0
  4 10  1  0
  6 12  1  0
 11 12  1  0
 11 16  1  0
 11 17  1  0
 11 18  1  0
 12 13  1  0
 12 15  1  0
 13 14  3  0
 14 19  1  0
 15 20  1  0
M  RAD  1   3   2
M  END
>  <reaction>  (9) 
rxn_1293

>  <mol_properties>  (9) 
{"1": {"label": "*4", "atom_type": "Ct"}, "2": {"label": "*3", "atom_type": "Cs"}, "5": {"label": "*2", "atom_type": "H0"}, "11": {"label": "*1", "atom_type": "Cs"}, "14": {"label": "*0", "atom_type": "S2s"}}

>  <type>  (9) 
unop_5

>  <geom_source>  (9) 
Heuristics

$$$$

     RDKit          3D

 20 18  0  0  0  0  0  0  0  0999 V2000
   -1.4631    0.4937   -3.1801 C   0  0  0  0  0  0  0  0  0  0  0  0
   -1.4631    0.4937   -1.9824 C   0  0  0  0  0  0  0  0  0  0  0  0
   -1.4631    0.5219   -0.5232 C   0  0  0  0  0  3  0  0  0  0  0  0
   -1.4631    1.9433    0.0424 C   0  0  0  0  0  0  0  0  0  0  0  0
   -1.4631    0.4937   -4.2434 H   0  0  0  0  0  0  0  0  0  0  0  0
   -0.4125   -0.1322   -0.0892 H   0  0  0  0  0  0  0  0  0  0  0  0
   -2.3386   -0.0232   -0.1615 H   0  0  0  0  0  0  0  0  0  0  0  0
   -2.3453    2.4911   -0.2891 H   0  0  0  0  0  0  0  0  0  0  0  0
   -1.4631    1.9160    1.1327 H   0  0  0  0  0  0  0  0  0  0  0  0
   -0.5808    2.4911   -0.2891 H   0  0  0  0  0  0  0  0  0  0  0  0
    0.2704   -2.2571    0.5346 C   0  0  0  0  0  0  0  0  0  0  0  0
    0.6379   -0.7862    0.3448 C   0  0  0  0  0  0  0  0  0  0  0  0
    2.0762   -0.5983    0.2053 C   0  0  0  0  0  0  0  0  0  0  0  0
    3.2630   -0.4779    0.1014 C   0  0  0  0  0  0  0  0  0  0  0  0
   -0.0522    0.2884    1.6581 S   0  0  0  0  0  0  0  0  0  0  0  0
    0.7166   -2.6460    1.4504 H   0  0  0  0  0  0  0  0  0  0  0  0
   -0.8114   -2.3673    0.5995 H   0  0  0  0  0  0  0  0  0  0  0  0
    0.6418   -2.8481   -0.3043 H   0  0  0  0  0  0  0  0  0  0  0  0
    4.3170   -0.3709    0.0091 H   0  0  0  0  0  0  0  0  0  0  0  0
    0.6918   -0.2109    2.6543 H   0  0  0  0  0  0  0  0  0  0  0  0
  1  2  3  0
  1  5  1  0
  2  3  1  0
  3  4  1  0
  3  7  1  0
  4  8  1  0
  4  9  1  0
  4 10  1  0
  6 12  1  0
 11 12  1  0
 11 16  1  0
 11 17  1  0
 11 18  1  0
 12 13  1  0
 12 15  1  0
 13 14  3  0
 14 19  1  0
 15 20  1  0
M  RAD  1   3   2
M  END
>  <reaction>  (10) 
rxn_1293

>  <mol_properties>  (10) 
{"1": {"label": "*4", "atom_type": "Ct"}, "2": {"label": "*3", "atom_type": "Cs"}, "5": {"label": "*2", "atom_type": "H0"}, "11": {"label": "*1", "atom_type": "Cs"}, "14": {"label": "*0", "atom_type": "S2s"}}

>  <type>  (10) 
unop_6

>  <geom_source>  (10) 
Heuristics

$$$$

     RDKit          3D

 20 18  0  0  0  0  0  0  0  0999 V2000
   -1.5562    0.4305   -3.0506 C   0  0  0  0  0  0  0  0  0  0  0  0
   -1.5562    0.4305   -1.8529 C   0  0  0  0  0  0  0  0  0  0  0  0
   -1.5562    0.4587   -0.3937 C   0  0  0  0  0  3  0  0  0  0  0  0
   -1.5561    1.8801    0.1719 C   0  0  0  0  0  0  0  0  0  0  0  0
   -1.5562    0.4305   -4.1139 H   0  0  0  0  0  0  0  0  0  0  0  0
   -0.5056   -0.1954    0.0403 H   0  0  0  0  0  0  0  0  0  0  0  0
   -2.4317   -0.0864   -0.0320 H   0  0  0  0  0  0  0  0  0  0  0  0
   -2.4384    2.4279   -0.1596 H   0  0  0  0  0  0  0  0  0  0  0  0
   -1.5561    1.8528    1.2621 H   0  0  0  0  0  0  0  0  0  0  0  0
   -0.6739    2.4279   -0.1596 H   0  0  0  0  0  0  0  0  0  0  0  0
    0.0843   -2.0200    1.3417 C   0  0  0  0  0  0  0  0  0  0  0  0
    0.5449   -0.8494    0.4743 C   0  0  0  0  0  0  0  0  0  0  0  0
    1.8950   -1.0487   -0.0365 C   0  0  0  0  0  0  0  0  0  0  0  0
    3.0084   -1.2400   -0.4334 C   0  0  0  0  0  0  0  0  0  0  0  0
    0.3835    0.7650    1.3248 S   0  0  0  0  0  0  0  0  0  0  0  0
    0.7270   -2.1213    2.2168 H   0  0  0  0  0  0  0  0  0  0  0  0
   -0.9390   -1.8572    1.6774 H   0  0  0  0  0  0  0  0  0  0  0  0
    0.1320   -2.9502    0.7730 H   0  0  0  0  0  0  0  0  0  0  0  0
    3.9972   -1.4099   -0.7859 H   0  0  0  0  0  0  0  0  0  0  0  0
    1.3201    0.5294    2.2534 H   0  0  0  0  0  0  0  0  0  0  0  0
  1  2  3  0
  1  5  1  0
  2  3  1  0
  3  4  1  0
  3  7  1  0
  4  8  1  0
  4  9  1  0
  4 10  1  0
  6 12  1  0
 11 12  1  0
 11 16  1  0
 11 17  1  0
 11 18  1  0
 12 13  1  0
 12 15  1  0
 13 14  3  0
 14 19  1  0
 15 20  1  0
M  RAD  1   3   2
M  END
>  <reaction>  (11) 
rxn_1293

>  <mol_properties>  (11) 
{"1": {"label": "*4", "atom_type": "Ct"}, "2": {"label": "*3", "atom_type": "Cs"}, "5": {"label": "*2", "atom_type": "H0"}, "11": {"label": "*1", "atom_type": "Cs"}, "14": {"label": "*0", "atom_type": "S2s"}}

>  <type>  (11) 
unop_7

>  <geom_source>  (11) 
Heuristics

$$$$

     RDKit          3D

 20 18  0  0  0  0  0  0  0  0999 V2000
   -1.3175    0.9040   -3.1240 C   0  0  0  0  0  0  0  0  0  0  0  0
   -1.3175    0.9040   -1.9263 C   0  0  0  0  0  0  0  0  0  0  0  0
   -1.3175    0.9322   -0.4672 C   0  0  0  0  0  3  0  0  0  0  0  0
   -1.3175    2.3536    0.0984 C   0  0  0  0  0  0  0  0  0  0  0  0
   -1.3175    0.9040   -4.1873 H   0  0  0  0  0  0  0  0  0  0  0  0
   -0.2669    0.2781   -0.0331 H   0  0  0  0  0  0  0  0  0  0  0  0
   -2.1930    0.3872   -0.1054 H   0  0  0  0  0  0  0  0  0  0  0  0
   -2.1997    2.9015   -0.2330 H   0  0  0  0  0  0  0  0  0  0  0  0
   -1.3175    2.3263    1.1887 H   0  0  0  0  0  0  0  0  0  0  0  0
   -0.4353    2.9014   -0.2330 H   0  0  0  0  0  0  0  0  0  0  0  0
    1.9553    0.5943    0.5434 C   0  0  0  0  0  0  0  0  0  0  0  0
    0.7835   -0.3759    0.4009 C   0  0  0  0  0  0  0  0  0  0  0  0
   -0.1190   -0.3107    1.5431 C   0  0  0  0  0  0  0  0  0  0  0  0
   -0.8360   -0.2378    2.4993 C   0  0  0  0  0  0  0  0  0  0  0  0
    1.3265   -2.0949    0.0753 S   0  0  0  0  0  0  0  0  0  0  0  0
    2.5553    0.3407    1.4179 H   0  0  0  0  0  0  0  0  0  0  0  0
    2.5899    0.5472   -0.3406 H   0  0  0  0  0  0  0  0  0  0  0  0
    1.5858    1.6138    0.6662 H   0  0  0  0  0  0  0  0  0  0  0  0
   -1.4727   -0.1729    3.3486 H   0  0  0  0  0  0  0  0  0  0  0  0
    1.8982   -2.2910    1.2711 H   0  0  0  0  0  0  0  0  0  0  0  0
  1  2  3  0
  1  5  1  0
  2  3  1  0
  3  4  1  0
  3  7  1  0
  4  8  1  0
  4  9  1  0
  4 10  1  0
  6 12  1  0
 11 12  1  0
 11 16  1  0
 11 17  1  0
 11 18  1  0
 12 13  1  0
 12 15  1  0
 13 14  3  0
 14 19  1  0
 15 20  1  0
M  RAD  1   3   2
M  END
>  <reaction>  (12) 
rxn_1293

>  <mol_properties>  (12) 
{"1": {"label": "*4", "atom_type": "Ct"}, "2": {"label": "*3", "atom_type": "Cs"}, "5": {"label": "*2", "atom_type": "H0"}, "11": {"label": "*1", "atom_type": "Cs"}, "14": {"label": "*0", "atom_type": "S2s"}}

>  <type>  (12) 
unop_8

>  <geom_source>  (12) 
Heuristics

$$$$

     RDKit          3D

 20 18  0  0  0  0  0  0  0  0999 V2000
   -1.3965    0.7218   -3.2209 C   0  0  0  0  0  0  0  0  0  0  0  0
   -1.3965    0.7218   -2.0232 C   0  0  0  0  0  0  0  0  0  0  0  0
   -1.3965    0.7501   -0.5641 C   0  0  0  0  0  3  0  0  0  0  0  0
   -1.3965    2.1714    0.0015 C   0  0  0  0  0  0  0  0  0  0  0  0
   -1.3965    0.7218   -4.2842 H   0  0  0  0  0  0  0  0  0  0  0  0
   -0.3459    0.0959   -0.1300 H   0  0  0  0  0  0  0  0  0  0  0  0
   -2.2720    0.2050   -0.2023 H   0  0  0  0  0  0  0  0  0  0  0  0
   -2.2787    2.7193   -0.3299 H   0  0  0  0  0  0  0  0  0  0  0  0
   -1.3965    2.1441    1.0918 H   0  0  0  0  0  0  0  0  0  0  0  0
   -0.5143    2.7193   -0.3299 H   0  0  0  0  0  0  0  0  0  0  0  0
    1.0614   -1.6557   -0.6973 C   0  0  0  0  0  0  0  0  0  0  0  0
    0.7045   -0.5580    0.3040 C   0  0  0  0  0  0  0  0  0  0  0  0
    1.8886    0.1279    0.8046 C   0  0  0  0  0  0  0  0  0  0  0  0
    2.8821    0.6659    1.2013 C   0  0  0  0  0  0  0  0  0  0  0  0
   -0.3443   -1.1688    1.6761 S   0  0  0  0  0  0  0  0  0  0  0  0
    1.6754   -2.4206   -0.2209 H   0  0  0  0  0  0  0  0  0  0  0  0
    0.1548   -2.1237   -1.0786 H   0  0  0  0  0  0  0  0  0  0  0  0
    1.6259   -1.2343   -1.5308 H   0  0  0  0  0  0  0  0  0  0  0  0
    3.7644    1.1436    1.5537 H   0  0  0  0  0  0  0  0  0  0  0  0
    0.5882   -1.9588    2.2254 H   0  0  0  0  0  0  0  0  0  0  0  0
  1  2  3  0
  1  5  1  0
  2  3  1  0
  3  4  1  0
  3  7  1  0
  4  8  1  0
  4  9  1  0
  4 10  1  0
  6 12  1  0
 11 12  1  0
 11 16  1  0
 11 17  1  0
 11 18  1  0
 12 13  1  0
 12 15  1  0
 13 14  3  0
 14 19  1  0
 15 20  1  0
M  RAD  1   3   2
M  END
>  <reaction>  (13) 
rxn_1293

>  <mol_properties>  (13) 
{"1": {"label": "*4", "atom_type": "Ct"}, "2": {"label": "*3", "atom_type": "Cs"}, "5": {"label": "*2", "atom_type": "H0"}, "11": {"label": "*1", "atom_type": "Cs"}, "14": {"label": "*0", "atom_type": "S2s"}}

>  <type>  (13) 
unop_9

>  <geom_source>  (13) 
Heuristics

$$$$

     RDKit          3D

 20 18  0  0  0  0  0  0  0  0999 V2000
   -1.3650    0.8253   -3.1826 C   0  0  0  0  0  0  0  0  0  0  0  0
   -1.3650    0.8253   -1.9849 C   0  0  0  0  0  0  0  0  0  0  0  0
   -1.3650    0.8535   -0.5258 C   0  0  0  0  0  3  0  0  0  0  0  0
   -1.3650    2.2749    0.0398 C   0  0  0  0  0  0  0  0  0  0  0  0
   -1.3650    0.8253   -4.2460 H   0  0  0  0  0  0  0  0  0  0  0  0
   -0.3144    0.1994   -0.0917 H   0  0  0  0  0  0  0  0  0  0  0  0
   -2.2406    0.3085   -0.1641 H   0  0  0  0  0  0  0  0  0  0  0  0
   -2.2473    2.8228   -0.2916 H   0  0  0  0  0  0  0  0  0  0  0  0
   -1.3650    2.2476    1.1301 H   0  0  0  0  0  0  0  0  0  0  0  0
   -0.4828    2.8228   -0.2916 H   0  0  0  0  0  0  0  0  0  0  0  0
    2.0008    0.2153   -0.1929 C   0  0  0  0  0  0  0  0  0  0  0  0
    0.7360   -0.4546    0.3422 C   0  0  0  0  0  0  0  0  0  0  0  0
    0.3051    0.1277    1.6066 C   0  0  0  0  0  0  0  0  0  0  0  0
   -0.0174    0.6234    2.6478 C   0  0  0  0  0  0  0  0  0  0  0  0
    0.9003   -2.2748    0.4663 S   0  0  0  0  0  0  0  0  0  0  0  0
    2.8290    0.0754    0.5025 H   0  0  0  0  0  0  0  0  0  0  0  0
    2.2754   -0.2174   -1.1541 H   0  0  0  0  0  0  0  0  0  0  0  0
    1.8348    1.2869   -0.3157 H   0  0  0  0  0  0  0  0  0  0  0  0
   -0.3039    1.0636    3.5725 H   0  0  0  0  0  0  0  0  0  0  0  0
    1.8218   -2.2672    1.4389 H   0  0  0  0  0  0  0  0  0  0  0  0
  1  2  3  0
  1  5  1  0
  2  3  1  0
  3  4  1  0
  3  7  1  0
  4  8  1  0
  4  9  1  0
  4 10  1  0
  6 12  1  0
 11 12  1  0
 11 16  1  0
 11 17  1  0
 11 18  1  0
 12 13  1  0
 12 15  1  0
 13 14  3  0
 14 19  1  0
 15 20  1  0
M  RAD  1   3   2
M  END
>  <reaction>  (14) 
rxn_1293

>  <mol_properties>  (14) 
{"1": {"label": "*4", "atom_type": "Ct"}, "2": {"label": "*3", "atom_type": "Cs"}, "5": {"label": "*2", "atom_type": "H0"}, "11": {"label": "*1", "atom_type": "Cs"}, "14": {"label": "*0", "atom_type": "S2s"}}

>  <type>  (14) 
unop_10

>  <geom_source>  (14) 
Heuristics

$$$$

     RDKit          3D

 20 18  0  0  0  0  0  0  0  0999 V2000
   -1.6415    0.5027   -2.8689 C   0  0  0  0  0  0  0  0  0  0  0  0
   -1.6415    0.5027   -1.6712 C   0  0  0  0  0  0  0  0  0  0  0  0
   -1.6415    0.5310   -0.2120 C   0  0  0  0  0  3  0  0  0  0  0  0
   -1.6414    1.9523    0.3536 C   0  0  0  0  0  0  0  0  0  0  0  0
   -1.6415    0.5027   -3.9322 H   0  0  0  0  0  0  0  0  0  0  0  0
   -0.5909   -0.1232    0.2220 H   0  0  0  0  0  0  0  0  0  0  0  0
   -2.5170   -0.0141    0.1497 H   0  0  0  0  0  0  0  0  0  0  0  0
   -2.5237    2.5002    0.0221 H   0  0  0  0  0  0  0  0  0  0  0  0
   -1.6414    1.9250    1.4438 H   0  0  0  0  0  0  0  0  0  0  0  0
   -0.7592    2.5002    0.0221 H   0  0  0  0  0  0  0  0  0  0  0  0
    0.1372   -1.4008    2.0131 C   0  0  0  0  0  0  0  0  0  0  0  0
    0.4595   -0.7771    0.6560 C   0  0  0  0  0  0  0  0  0  0  0  0
    1.3905   -1.5945   -0.1112 C   0  0  0  0  0  0  0  0  0  0  0  0
    2.1619   -2.2856   -0.7120 C   0  0  0  0  0  0  0  0  0  0  0  0
    1.0472    0.9523    0.7961 S   0  0  0  0  0  0  0  0  0  0  0  0
    1.0400   -1.4809    2.6194 H   0  0  0  0  0  0  0  0  0  0  0  0
   -0.5869   -0.7853    2.5454 H   0  0  0  0  0  0  0  0  0  0  0  0
   -0.2737   -2.4027    1.8778 H   0  0  0  0  0  0  0  0  0  0  0  0
    2.8471   -2.8994   -1.2457 H   0  0  0  0  0  0  0  0  0  0  0  0
    2.1994    0.6600    1.4144 H   0  0  0  0  0  0  0  0  0  0  0  0
  1  2  3  0
  1  5  1  0
  2  3  1  0
  3  4  1  0
  3  7  1  0
  4  8  1  0
  4  9  1  0
  4 10  1  0
  6 12  1  0
 11 12  1  0
 11 16  1  0
 11 17  1  0
 11 18  1  0
 12 13  1  0
 12 15  1  0
 13 14  3  0
 14 19  1  0
 15 20  1  0
M  RAD  1   3   2
M  END
>  <reaction>  (15) 
rxn_1293

>  <mol_properties>  (15) 
{"1": {"label": "*4", "atom_type": "Ct"}, "2": {"label": "*3", "atom_type": "Cs"}, "5": {"label": "*2", "atom_type": "H0"}, "11": {"label": "*1", "atom_type": "Cs"}, "14": {"label": "*0", "atom_type": "S2s"}}

>  <type>  (15) 
unop_11

>  <geom_source>  (15) 
Heuristics

$$$$

     RDKit          3D

 20 18  0  0  0  0  0  0  0  0999 V2000
   -1.4188    0.7709   -3.1947 C   0  0  0  0  0  0  0  0  0  0  0  0
   -1.4188    0.7709   -1.9970 C   0  0  0  0  0  0  0  0  0  0  0  0
   -1.4188    0.7992   -0.5378 C   0  0  0  0  0  3  0  0  0  0  0  0
   -1.4188    2.2205    0.0278 C   0  0  0  0  0  0  0  0  0  0  0  0
   -1.4188    0.7709   -4.2580 H   0  0  0  0  0  0  0  0  0  0  0  0
   -0.3682    0.1450   -0.1038 H   0  0  0  0  0  0  0  0  0  0  0  0
   -2.2943    0.2541   -0.1761 H   0  0  0  0  0  0  0  0  0  0  0  0
   -2.3010    2.7684   -0.3037 H   0  0  0  0  0  0  0  0  0  0  0  0
   -1.4188    2.1932    1.1181 H   0  0  0  0  0  0  0  0  0  0  0  0
   -0.5365    2.7684   -0.3037 H   0  0  0  0  0  0  0  0  0  0  0  0
    1.4765   -1.0330   -0.8653 C   0  0  0  0  0  0  0  0  0  0  0  0
    0.6822   -0.5089    0.3302 C   0  0  0  0  0  0  0  0  0  0  0  0
    1.4744    0.3921    1.1572 C   0  0  0  0  0  0  0  0  0  0  0  0
    2.1549    1.1221    1.8189 C   0  0  0  0  0  0  0  0  0  0  0  0
   -0.0596   -1.8540    1.3285 S   0  0  0  0  0  0  0  0  0  0  0  0
    2.3370   -1.6109   -0.5268 H   0  0  0  0  0  0  0  0  0  0  0  0
    0.8467   -1.6734   -1.4814 H   0  0  0  0  0  0  0  0  0  0  0  0
    1.8404   -0.1996   -1.4686 H   0  0  0  0  0  0  0  0  0  0  0  0
    2.7592    1.7704    2.4065 H   0  0  0  0  0  0  0  0  0  0  0  0
    1.1004   -2.3544    1.7748 H   0  0  0  0  0  0  0  0  0  0  0  0
  1  2  3  0
  1  5  1  0
  2  3  1  0
  3  4  1  0
  3  7  1  0
  4  8  1  0
  4  9  1  0
  4 10  1  0
  6 12  1  0
 11 12  1  0
 11 16  1  0
 11 17  1  0
 11 18  1  0
 12 13  1  0
 12 15  1  0
 13 14  3  0
 14 19  1  0
 15 20  1  0
M  RAD  1   3   2
M  END
>  <reaction>  (16) 
rxn_1293

>  <mol_properties>  (16) 
{"1": {"label": "*4", "atom_type": "Ct"}, "2": {"label": "*3", "atom_type": "Cs"}, "5": {"label": "*2", "atom_type": "H0"}, "11": {"label": "*1", "atom_type": "Cs"}, "14": {"label": "*0", "atom_type": "S2s"}}

>  <type>  (16) 
unop_12

>  <geom_source>  (16) 
Heuristics

$$$$

     RDKit          3D

 20 18  0  0  0  0  0  0  0  0999 V2000
   -0.9324   -0.0083   -1.8423 S   0  0  0  0  0  0  0  0  0  0  0  0
   -1.1185   -0.1883   -0.0387 C   0  0  0  0  0  0  0  0  0  0  0  0
   -1.5048   -1.6204    0.3189 C   0  0  0  0  0  0  0  0  0  0  0  0
    1.7720    1.5625   -0.5179 C   0  0  0  0  0  0  0  0  0  0  0  0
    1.3836    0.3916    0.3730 C   0  0  0  0  0  3  0  0  0  0  0  0
   -2.1303    0.7566    0.4500 C   0  0  0  0  0  0  0  0  0  0  0  0
    2.3382   -0.7125    0.2263 C   0  0  0  0  0  0  0  0  0  0  0  0
   -2.9607    1.5328    0.8520 C   0  0  0  0  0  0  0  0  0  0  0  0
    3.1222   -1.6204    0.1063 C   0  0  0  0  0  0  0  0  0  0  0  0
    0.0336    0.0966    0.5308 H   0  0  0  0  0  0  0  0  0  0  0  0
   -2.4822   -1.8919   -0.1352 H   0  0  0  0  0  0  0  0  0  0  0  0
   -0.7281   -2.3219   -0.0522 H   0  0  0  0  0  0  0  0  0  0  0  0
   -1.5755   -1.7311    1.4221 H   0  0  0  0  0  0  0  0  0  0  0  0
    1.7800    1.2474   -1.5831 H   0  0  0  0  0  0  0  0  0  0  0  0
    1.0287    2.3777   -0.3958 H   0  0  0  0  0  0  0  0  0  0  0  0
    2.7760    1.9477   -0.2374 H   0  0  0  0  0  0  0  0  0  0  0  0
    1.3538    0.7158    1.4347 H   0  0  0  0  0  0  0  0  0  0  0  0
   -2.2763   -0.3307   -2.1169 H   0  0  0  0  0  0  0  0  0  0  0  0
   -3.6897    2.2140    1.2047 H   0  0  0  0  0  0  0  0  0  0  0  0
    3.8105   -2.4174    0.0007 H   0  0  0  0  0  0  0  0  0  0  0  0
  1  2  1  0
  1 18  1  0
  2  3  1  0
  2  6  1  0
  2 10  1  0
  3 11  1  0
  3 12  1  0
  3 13  1  0
  4  5  1  0
  4 14  1  0
  4 15  1  0
  4 16  1  0
  5  7  1  0
  5 17  1  0
  6  8  3  0
  7  9  3  0
  8 19  1  0
  9 20  1  0
M  RAD  1   5   2
M  END
>  <reaction>  (17) 
rxn_1293

>  <mol_properties>  (17) 
{"1": {"label": "*4", "atom_type": "Ct"}, "2": {"label": "*3", "atom_type": "Cs"}, "5": {"label": "*2", "atom_type": "H0"}, "11": {"label": "*1", "atom_type": "Cs"}, "14": {"label": "*0", "atom_type": "S2s"}}

>  <type>  (17) 
unop_13

>  <geom_source>  (17) 
AutoTST

$$$$
