
     RDKit          3D

  9  8  0  0  0  0  0  0  0  0999 V2000
   -0.8818   -0.3578    0.1297 C   0  0  0  0  0  0  0  0  0  0  0  0
    0.6153   -0.3021   -0.1188 C   0  0  0  0  0  0  0  0  0  0  0  0
    1.5354   -1.7170    0.5545 S   0  0  0  0  0  0  0  0  0  0  0  0
   -1.1018   -0.3317    1.1984 H   0  0  0  0  0  0  0  0  0  0  0  0
   -1.3114   -1.2723   -0.2799 H   0  0  0  0  0  0  0  0  0  0  0  0
   -1.3767    0.4976   -0.3363 H   0  0  0  0  0  0  0  0  0  0  0  0
    1.0467    0.6194    0.2718 H   0  0  0  0  0  0  0  0  0  0  0  0
    0.8295   -0.3275   -1.1882 H   0  0  0  0  0  0  0  0  0  0  0  0
    1.2306   -1.5077    1.8423 H   0  0  0  0  0  0  0  0  0  0  0  0
  1  2  1  0
  1  4  1  0
  1  5  1  0
  1  6  1  0
  2  3  1  0
  2  7  1  0
  2  8  1  0
  3  9  1  0
M  END
>  <reaction>  (1) 
rxn_1901

>  <mol_properties>  (1) 
{"1": {"label": "donator", "atom_type": "Cs"}, "6": {"label": "d_hydrogen", "atom_type": "H0"}}

>  <type>  (1) 
r1h

$$$$

     RDKit          3D

  3  2  0  0  0  0  0  0  0  0999 V2000
   -0.0187   -0.3135   -0.2345 C   0  0  0  0  0  3  0  0  0  0  0  0
    1.0418    0.7672    0.0975 S   0  0  0  0  0  0  0  0  0  0  0  0
   -1.0231   -0.5077    0.1370 H   0  0  0  0  0  0  0  0  0  0  0  0
  1  2  2  0
  1  3  1  0
M  RAD  1   1   2
M  END
>  <reaction>  (2) 
rxn_1901

>  <mol_properties>  (2) 
{"0": {"label": "acceptor", "atom_type": "CS"}}

>  <type>  (2) 
r2

$$$$

     RDKit          3D

  4  3  0  0  0  0  0  0  0  0999 V2000
   -0.1097    0.0067    0.0027 C   0  0  0  0  0  0  0  0  0  0  0  0
    1.4849   -0.0901   -0.0362 S   0  0  0  0  0  0  0  0  0  0  0  0
   -0.6318    0.9620    0.0167 H   0  0  0  0  0  0  0  0  0  0  0  0
   -0.7434   -0.8786    0.0168 H   0  0  0  0  0  0  0  0  0  0  0  0
  1  2  2  0
  1  3  1  0
  1  4  1  0
M  END
>  <reaction>  (3) 
rxn_1901

>  <mol_properties>  (3) 
{"0": {"label": "acceptor", "atom_type": "CS"}, "3": {"label": "a_hydrogen", "atom_type": "H0"}}

>  <type>  (3) 
r2h

$$$$

     RDKit          3D

 12 10  0  0  0  0  0  0  0  0999 V2000
    0.6721   -1.2876    0.6774 C   0  0  0  0  0  3  0  0  0  0  0  0
    2.0613   -0.6060    0.3561 S   0  0  0  0  0  0  0  0  0  0  0  0
    0.5378   -2.2929    1.0810 H   0  0  0  0  0  0  0  0  0  0  0  0
   -1.2483   -0.1238   -1.7617 C   0  0  0  0  0  0  0  0  0  0  0  0
   -1.4431    0.0638   -0.2801 C   0  0  0  0  0  0  0  0  0  0  0  0
   -1.2609    1.7007    0.3719 S   0  0  0  0  0  0  0  0  0  0  0  0
   -0.2478    0.1962   -2.0622 H   0  0  0  0  0  0  0  0  0  0  0  0
   -1.9739    0.4566   -2.3372 H   0  0  0  0  0  0  0  0  0  0  0  0
   -1.3597   -1.1765   -2.0302 H   0  0  0  0  0  0  0  0  0  0  0  0
   -0.4703   -0.6558    0.3017 H   0  0  0  0  0  0  0  0  0  0  0  0
   -2.3666   -0.3595    0.1128 H   0  0  0  0  0  0  0  0  0  0  0  0
   -0.0700    1.9580   -0.1899 H   0  0  0  0  0  0  0  0  0  0  0  0
  1  2  2  0
  1  3  1  0
  4  5  1  0
  4  7  1  0
  4  8  1  0
  4  9  1  0
  5  6  1  0
  5 10  1  0
  5 11  1  0
  6 12  1  0
M  RAD  1   1   2
M  END
>  <reaction>  (4) 
rxn_1901

>  <mol_properties>  (4) 
{"0": {"label": "*3", "atom_type": "CS"}, "1": {"label": "*4", "atom_type": "S2d"}, "4": {"label": "*1", "atom_type": "Cs"}, "5": {"label": "*0", "atom_type": "S2s"}, "9": {"label": "*2", "atom_type": "H0"}}

>  <type>  (4) 
ts

$$$$

     RDKit          3D

 12 10  0  0  0  0  0  0  0  0999 V2000
    0.8338   -1.4815    0.2579 C   0  0  0  0  0  0  0  0  0  0  0  0
    1.9410   -0.8133    1.1966 S   0  0  0  0  0  0  0  0  0  0  0  0
    0.3829   -2.4450    0.4897 H   0  0  0  0  0  0  0  0  0  0  0  0
   -1.1891   -0.1234   -2.2086 C   0  0  0  0  0  0  0  0  0  0  0  0
   -1.1891   -0.1234   -0.6899 C   0  0  0  0  0  3  0  0  0  0  0  0
   -1.1891    1.5339    0.0551 S   0  0  0  0  0  0  0  0  0  0  0  0
   -0.2824    0.3420   -2.5993 H   0  0  0  0  0  0  0  0  0  0  0  0
   -2.0450    0.4278   -2.5987 H   0  0  0  0  0  0  0  0  0  0  0  0
   -1.2321   -1.1468   -2.5889 H   0  0  0  0  0  0  0  0  0  0  0  0
   -0.1772   -0.8028   -0.2158 H   0  0  0  0  0  0  0  0  0  0  0  0
   -2.0967   -0.5905   -0.3048 H   0  0  0  0  0  0  0  0  0  0  0  0
   -0.0143    1.9356   -0.4485 H   0  0  0  0  0  0  0  0  0  0  0  0
  1  2  2  0
  1  3  1  0
  1 10  1  0
  4  5  1  0
  4  7  1  0
  4  8  1  0
  4  9  1  0
  5  6  1  0
  5 11  1  0
  6 12  1  0
M  RAD  1   5   2
M  END
>  <reaction>  (5) 
rxn_1901

>  <mol_properties>  (5) 
{"0": {"label": "*3", "atom_type": "CS"}, "1": {"label": "*4", "atom_type": "S2d"}, "4": {"label": "*1", "atom_type": "Cs"}, "5": {"label": "*0", "atom_type": "S2s"}, "9": {"label": "*2", "atom_type": "H0"}}

>  <type>  (5) 
unop_1

>  <geom_source>  (5) 
Heuristics

$$$$

     RDKit          3D

 12 10  0  0  0  0  0  0  0  0999 V2000
    0.7466   -1.2539    0.7648 C   0  0  0  0  0  0  0  0  0  0  0  0
    2.1341   -1.3705   -0.0192 S   0  0  0  0  0  0  0  0  0  0  0  0
    0.6603   -1.4804    1.8263 H   0  0  0  0  0  0  0  0  0  0  0  0
   -1.2763    0.1041   -1.7016 C   0  0  0  0  0  0  0  0  0  0  0  0
   -1.2763    0.1041   -0.1830 C   0  0  0  0  0  3  0  0  0  0  0  0
   -1.2763    1.7615    0.5620 S   0  0  0  0  0  0  0  0  0  0  0  0
   -0.3696    0.5695   -2.0924 H   0  0  0  0  0  0  0  0  0  0  0  0
   -2.1322    0.6553   -2.0917 H   0  0  0  0  0  0  0  0  0  0  0  0
   -1.3193   -0.9193   -2.0819 H   0  0  0  0  0  0  0  0  0  0  0  0
   -0.2644   -0.5752    0.2912 H   0  0  0  0  0  0  0  0  0  0  0  0
   -2.1839   -0.3630    0.2022 H   0  0  0  0  0  0  0  0  0  0  0  0
   -0.1015    2.1631    0.0585 H   0  0  0  0  0  0  0  0  0  0  0  0
  1  2  2  0
  1  3  1  0
  1 10  1  0
  4  5  1  0
  4  7  1  0
  4  8  1  0
  4  9  1  0
  5  6  1  0
  5 11  1  0
  6 12  1  0
M  RAD  1   5   2
M  END
>  <reaction>  (6) 
rxn_1901

>  <mol_properties>  (6) 
{"0": {"label": "*3", "atom_type": "CS"}, "1": {"label": "*4", "atom_type": "S2d"}, "4": {"label": "*1", "atom_type": "Cs"}, "5": {"label": "*0", "atom_type": "S2s"}, "9": {"label": "*2", "atom_type": "H0"}}

>  <type>  (6) 
unop_2

>  <geom_source>  (6) 
Heuristics

$$$$

     RDKit          3D

 12 10  0  0  0  0  0  0  0  0999 V2000
    0.9578   -1.3879    0.1253 C   0  0  0  0  0  0  0  0  0  0  0  0
    1.6399   -1.0309    1.5256 S   0  0  0  0  0  0  0  0  0  0  0  0
    0.8239   -2.4156   -0.2083 H   0  0  0  0  0  0  0  0  0  0  0  0
   -1.0650   -0.0299   -2.3412 C   0  0  0  0  0  0  0  0  0  0  0  0
   -1.0650   -0.0299   -0.8225 C   0  0  0  0  0  3  0  0  0  0  0  0
   -1.0650    1.6275   -0.0775 S   0  0  0  0  0  0  0  0  0  0  0  0
   -0.1584    0.4355   -2.7319 H   0  0  0  0  0  0  0  0  0  0  0  0
   -1.9210    0.5213   -2.7313 H   0  0  0  0  0  0  0  0  0  0  0  0
   -1.1081   -1.0532   -2.7215 H   0  0  0  0  0  0  0  0  0  0  0  0
   -0.0531   -0.7092   -0.3484 H   0  0  0  0  0  0  0  0  0  0  0  0
   -1.9726   -0.4969   -0.4374 H   0  0  0  0  0  0  0  0  0  0  0  0
    0.1098    2.0292   -0.5811 H   0  0  0  0  0  0  0  0  0  0  0  0
  1  2  2  0
  1  3  1  0
  1 10  1  0
  4  5  1  0
  4  7  1  0
  4  8  1  0
  4  9  1  0
  5  6  1  0
  5 11  1  0
  6 12  1  0
M  RAD  1   5   2
M  END
>  <reaction>  (7) 
rxn_1901

>  <mol_properties>  (7) 
{"0": {"label": "*3", "atom_type": "CS"}, "1": {"label": "*4", "atom_type": "S2d"}, "4": {"label": "*1", "atom_type": "Cs"}, "5": {"label": "*0", "atom_type": "S2s"}, "9": {"label": "*2", "atom_type": "H0"}}

>  <type>  (7) 
unop_3

>  <geom_source>  (7) 
Heuristics

$$$$

     RDKit          3D

 12 10  0  0  0  0  0  0  0  0999 V2000
    1.0953   -0.8316    0.6280 C   0  0  0  0  0  0  0  0  0  0  0  0
    1.3034   -2.3828    0.3056 S   0  0  0  0  0  0  0  0  0  0  0  0
    1.4031   -0.3904    1.5746 H   0  0  0  0  0  0  0  0  0  0  0  0
   -0.9276    0.5265   -1.8385 C   0  0  0  0  0  0  0  0  0  0  0  0
   -0.9276    0.5265   -0.3198 C   0  0  0  0  0  3  0  0  0  0  0  0
   -0.9276    2.1838    0.4252 S   0  0  0  0  0  0  0  0  0  0  0  0
   -0.0209    0.9919   -2.2292 H   0  0  0  0  0  0  0  0  0  0  0  0
   -1.7835    1.0777   -2.2286 H   0  0  0  0  0  0  0  0  0  0  0  0
   -0.9706   -0.4969   -2.2188 H   0  0  0  0  0  0  0  0  0  0  0  0
    0.0843   -0.1529    0.1543 H   0  0  0  0  0  0  0  0  0  0  0  0
   -1.8352    0.0594    0.0653 H   0  0  0  0  0  0  0  0  0  0  0  0
    0.2472    2.5855   -0.0784 H   0  0  0  0  0  0  0  0  0  0  0  0
  1  2  2  0
  1  3  1  0
  1 10  1  0
  4  5  1  0
  4  7  1  0
  4  8  1  0
  4  9  1  0
  5  6  1  0
  5 11  1  0
  6 12  1  0
M  RAD  1   5   2
M  END
>  <reaction>  (8) 
rxn_1901

>  <mol_properties>  (8) 
{"0": {"label": "*3", "atom_type": "CS"}, "1": {"label": "*4", "atom_type": "S2d"}, "4": {"label": "*1", "atom_type": "Cs"}, "5": {"label": "*0", "atom_type": "S2s"}, "9": {"label": "*2", "atom_type": "H0"}}

>  <type>  (8) 
unop_4

>  <geom_source>  (8) 
Heuristics

$$$$

     RDKit          3D

 12 10  0  0  0  0  0  0  0  0999 V2000
    1.0793   -1.2365    0.0787 C   0  0  0  0  0  0  0  0  0  0  0  0
    1.3297   -1.4046    1.6479 S   0  0  0  0  0  0  0  0  0  0  0  0
    1.7403   -1.6803   -0.6641 H   0  0  0  0  0  0  0  0  0  0  0  0
   -0.9435    0.1215   -2.3878 C   0  0  0  0  0  0  0  0  0  0  0  0
   -0.9435    0.1215   -0.8692 C   0  0  0  0  0  3  0  0  0  0  0  0
   -0.9435    1.7789   -0.1242 S   0  0  0  0  0  0  0  0  0  0  0  0
   -0.0369    0.5869   -2.7786 H   0  0  0  0  0  0  0  0  0  0  0  0
   -1.7995    0.6727   -2.7779 H   0  0  0  0  0  0  0  0  0  0  0  0
   -0.9866   -0.9018   -2.7681 H   0  0  0  0  0  0  0  0  0  0  0  0
    0.0684   -0.5578   -0.3950 H   0  0  0  0  0  0  0  0  0  0  0  0
   -1.8511   -0.3455   -0.4840 H   0  0  0  0  0  0  0  0  0  0  0  0
    0.2313    2.1806   -0.6277 H   0  0  0  0  0  0  0  0  0  0  0  0
  1  2  2  0
  1  3  1  0
  1 10  1  0
  4  5  1  0
  4  7  1  0
  4  8  1  0
  4  9  1  0
  5  6  1  0
  5 11  1  0
  6 12  1  0
M  RAD  1   5   2
M  END
>  <reaction>  (9) 
rxn_1901

>  <mol_properties>  (9) 
{"0": {"label": "*3", "atom_type": "CS"}, "1": {"label": "*4", "atom_type": "S2d"}, "4": {"label": "*1", "atom_type": "Cs"}, "5": {"label": "*0", "atom_type": "S2s"}, "9": {"label": "*2", "atom_type": "H0"}}

>  <type>  (9) 
unop_5

>  <geom_source>  (9) 
Heuristics

$$$$

     RDKit          3D

 12 10  0  0  0  0  0  0  0  0999 V2000
    1.1845   -0.8298    0.4421 C   0  0  0  0  0  0  0  0  0  0  0  0
    1.0880   -2.3948    0.7503 S   0  0  0  0  0  0  0  0  0  0  0  0
    1.6844   -0.1365    1.1166 H   0  0  0  0  0  0  0  0  0  0  0  0
   -0.8383    0.5282   -2.0243 C   0  0  0  0  0  0  0  0  0  0  0  0
   -0.8383    0.5282   -0.5057 C   0  0  0  0  0  3  0  0  0  0  0  0
   -0.8383    2.1856    0.2393 S   0  0  0  0  0  0  0  0  0  0  0  0
    0.0683    0.9937   -2.4151 H   0  0  0  0  0  0  0  0  0  0  0  0
   -1.6943    1.0794   -2.4144 H   0  0  0  0  0  0  0  0  0  0  0  0
   -0.8814   -0.4951   -2.4046 H   0  0  0  0  0  0  0  0  0  0  0  0
    0.1736   -0.1511   -0.0315 H   0  0  0  0  0  0  0  0  0  0  0  0
   -1.7459    0.0612   -0.1205 H   0  0  0  0  0  0  0  0  0  0  0  0
    0.3365    2.5873   -0.2642 H   0  0  0  0  0  0  0  0  0  0  0  0
  1  2  2  0
  1  3  1  0
  1 10  1  0
  4  5  1  0
  4  7  1  0
  4  8  1  0
  4  9  1  0
  5  6  1  0
  5 11  1  0
  6 12  1  0
M  RAD  1   5   2
M  END
>  <reaction>  (10) 
rxn_1901

>  <mol_properties>  (10) 
{"0": {"label": "*3", "atom_type": "CS"}, "1": {"label": "*4", "atom_type": "S2d"}, "4": {"label": "*1", "atom_type": "Cs"}, "5": {"label": "*0", "atom_type": "S2s"}, "9": {"label": "*2", "atom_type": "H0"}}

>  <type>  (10) 
unop_6

>  <geom_source>  (10) 
Heuristics

$$$$

     RDKit          3D

 12 10  0  0  0  0  0  0  0  0999 V2000
    1.2131   -0.9165    0.2579 C   0  0  0  0  0  0  0  0  0  0  0  0
    1.0139   -2.1942    1.1966 S   0  0  0  0  0  0  0  0  0  0  0  0
    1.9342   -0.1343    0.4897 H   0  0  0  0  0  0  0  0  0  0  0  0
   -0.8098    0.4416   -2.2086 C   0  0  0  0  0  0  0  0  0  0  0  0
   -0.8098    0.4416   -0.6899 C   0  0  0  0  0  3  0  0  0  0  0  0
   -0.8098    2.0989    0.0551 S   0  0  0  0  0  0  0  0  0  0  0  0
    0.0969    0.9070   -2.5993 H   0  0  0  0  0  0  0  0  0  0  0  0
   -1.6657    0.9928   -2.5987 H   0  0  0  0  0  0  0  0  0  0  0  0
   -0.8528   -0.5818   -2.5889 H   0  0  0  0  0  0  0  0  0  0  0  0
    0.2021   -0.2378   -0.2158 H   0  0  0  0  0  0  0  0  0  0  0  0
   -1.7174   -0.0255   -0.3048 H   0  0  0  0  0  0  0  0  0  0  0  0
    0.3650    2.5006   -0.4485 H   0  0  0  0  0  0  0  0  0  0  0  0
  1  2  2  0
  1  3  1  0
  1 10  1  0
  4  5  1  0
  4  7  1  0
  4  8  1  0
  4  9  1  0
  5  6  1  0
  5 11  1  0
  6 12  1  0
M  RAD  1   5   2
M  END
>  <reaction>  (11) 
rxn_1901

>  <mol_properties>  (11) 
{"0": {"label": "*3", "atom_type": "CS"}, "1": {"label": "*4", "atom_type": "S2d"}, "4": {"label": "*1", "atom_type": "Cs"}, "5": {"label": "*0", "atom_type": "S2s"}, "9": {"label": "*2", "atom_type": "H0"}}

>  <type>  (11) 
unop_7

>  <geom_source>  (11) 
Heuristics

$$$$

     RDKit          3D

 12 10  0  0  0  0  0  0  0  0999 V2000
    0.7427   -1.4879    0.4421 C   0  0  0  0  0  0  0  0  0  0  0  0
    2.1547   -0.8059    0.7503 S   0  0  0  0  0  0  0  0  0  0  0  0
    0.2903   -2.2130    1.1166 H   0  0  0  0  0  0  0  0  0  0  0  0
   -1.2801   -0.1298   -2.0243 C   0  0  0  0  0  0  0  0  0  0  0  0
   -1.2801   -0.1298   -0.5057 C   0  0  0  0  0  3  0  0  0  0  0  0
   -1.2801    1.5275    0.2393 S   0  0  0  0  0  0  0  0  0  0  0  0
   -0.3735    0.3356   -2.4151 H   0  0  0  0  0  0  0  0  0  0  0  0
   -2.1361    0.4214   -2.4144 H   0  0  0  0  0  0  0  0  0  0  0  0
   -1.3232   -1.1532   -2.4046 H   0  0  0  0  0  0  0  0  0  0  0  0
   -0.2682   -0.8092   -0.0315 H   0  0  0  0  0  0  0  0  0  0  0  0
   -2.1877   -0.5969   -0.1205 H   0  0  0  0  0  0  0  0  0  0  0  0
   -0.1053    1.9292   -0.2642 H   0  0  0  0  0  0  0  0  0  0  0  0
  1  2  2  0
  1  3  1  0
  1 10  1  0
  4  5  1  0
  4  7  1  0
  4  8  1  0
  4  9  1  0
  5  6  1  0
  5 11  1  0
  6 12  1  0
M  RAD  1   5   2
M  END
>  <reaction>  (12) 
rxn_1901

>  <mol_properties>  (12) 
{"0": {"label": "*3", "atom_type": "CS"}, "1": {"label": "*4", "atom_type": "S2d"}, "4": {"label": "*1", "atom_type": "Cs"}, "5": {"label": "*0", "atom_type": "S2s"}, "9": {"label": "*2", "atom_type": "H0"}}

>  <type>  (12) 
unop_8

>  <geom_source>  (12) 
Heuristics

$$$$

     RDKit          3D

 12 10  0  0  0  0  0  0  0  0999 V2000
    0.9695   -0.9219    0.7648 C   0  0  0  0  0  0  0  0  0  0  0  0
    1.6028   -2.1620   -0.0192 S   0  0  0  0  0  0  0  0  0  0  0  0
    1.1464   -0.7564    1.8263 H   0  0  0  0  0  0  0  0  0  0  0  0
   -1.0534    0.4361   -1.7016 C   0  0  0  0  0  0  0  0  0  0  0  0
   -1.0534    0.4361   -0.1830 C   0  0  0  0  0  3  0  0  0  0  0  0
   -1.0534    2.0935    0.5620 S   0  0  0  0  0  0  0  0  0  0  0  0
   -0.1467    0.9015   -2.0924 H   0  0  0  0  0  0  0  0  0  0  0  0
   -1.9093    0.9873   -2.0917 H   0  0  0  0  0  0  0  0  0  0  0  0
   -1.0965   -0.5873   -2.0819 H   0  0  0  0  0  0  0  0  0  0  0  0
   -0.0415   -0.2432    0.2912 H   0  0  0  0  0  0  0  0  0  0  0  0
   -1.9610   -0.0309    0.2022 H   0  0  0  0  0  0  0  0  0  0  0  0
    0.1214    2.4952    0.0585 H   0  0  0  0  0  0  0  0  0  0  0  0
  1  2  2  0
  1  3  1  0
  1 10  1  0
  4  5  1  0
  4  7  1  0
  4  8  1  0
  4  9  1  0
  5  6  1  0
  5 11  1  0
  6 12  1  0
M  RAD  1   5   2
M  END
>  <reaction>  (13) 
rxn_1901

>  <mol_properties>  (13) 
{"0": {"label": "*3", "atom_type": "CS"}, "1": {"label": "*4", "atom_type": "S2d"}, "4": {"label": "*1", "atom_type": "Cs"}, "5": {"label": "*0", "atom_type": "S2s"}, "9": {"label": "*2", "atom_type": "H0"}}

>  <type>  (13) 
unop_9

>  <geom_source>  (13) 
Heuristics

$$$$

     RDKit          3D

 12 10  0  0  0  0  0  0  0  0999 V2000
    0.7106   -1.4046    0.6280 C   0  0  0  0  0  0  0  0  0  0  0  0
    2.2251   -1.0099    0.3056 S   0  0  0  0  0  0  0  0  0  0  0  0
    0.4188   -1.8565    1.5746 H   0  0  0  0  0  0  0  0  0  0  0  0
   -1.3123   -0.0466   -1.8385 C   0  0  0  0  0  0  0  0  0  0  0  0
   -1.3123   -0.0466   -0.3198 C   0  0  0  0  0  3  0  0  0  0  0  0
   -1.3123    1.6108    0.4252 S   0  0  0  0  0  0  0  0  0  0  0  0
   -0.4056    0.4189   -2.2292 H   0  0  0  0  0  0  0  0  0  0  0  0
   -2.1682    0.5046   -2.2286 H   0  0  0  0  0  0  0  0  0  0  0  0
   -1.3554   -1.0699   -2.2188 H   0  0  0  0  0  0  0  0  0  0  0  0
   -0.3004   -0.7259    0.1543 H   0  0  0  0  0  0  0  0  0  0  0  0
   -2.2199   -0.5136    0.0653 H   0  0  0  0  0  0  0  0  0  0  0  0
   -0.1375    2.0125   -0.0784 H   0  0  0  0  0  0  0  0  0  0  0  0
  1  2  2  0
  1  3  1  0
  1 10  1  0
  4  5  1  0
  4  7  1  0
  4  8  1  0
  4  9  1  0
  5  6  1  0
  5 11  1  0
  6 12  1  0
M  RAD  1   5   2
M  END
>  <reaction>  (14) 
rxn_1901

>  <mol_properties>  (14) 
{"0": {"label": "*3", "atom_type": "CS"}, "1": {"label": "*4", "atom_type": "S2d"}, "4": {"label": "*1", "atom_type": "Cs"}, "5": {"label": "*0", "atom_type": "S2s"}, "9": {"label": "*2", "atom_type": "H0"}}

>  <type>  (14) 
unop_10

>  <geom_source>  (14) 
Heuristics

$$$$

     RDKit          3D

 12 10  0  0  0  0  0  0  0  0999 V2000
    1.1735   -1.0667    0.1253 C   0  0  0  0  0  0  0  0  0  0  0  0
    1.1013   -1.8332    1.5256 S   0  0  0  0  0  0  0  0  0  0  0  0
    2.0739   -0.5536   -0.2083 H   0  0  0  0  0  0  0  0  0  0  0  0
   -0.8494    0.2913   -2.3412 C   0  0  0  0  0  0  0  0  0  0  0  0
   -0.8494    0.2913   -0.8225 C   0  0  0  0  0  3  0  0  0  0  0  0
   -0.8494    1.9487   -0.0775 S   0  0  0  0  0  0  0  0  0  0  0  0
    0.0572    0.7567   -2.7319 H   0  0  0  0  0  0  0  0  0  0  0  0
   -1.7054    0.8425   -2.7313 H   0  0  0  0  0  0  0  0  0  0  0  0
   -0.8925   -0.7320   -2.7215 H   0  0  0  0  0  0  0  0  0  0  0  0
    0.1625   -0.3880   -0.3484 H   0  0  0  0  0  0  0  0  0  0  0  0
   -1.7570   -0.1757   -0.4374 H   0  0  0  0  0  0  0  0  0  0  0  0
    0.3254    2.3504   -0.5811 H   0  0  0  0  0  0  0  0  0  0  0  0
  1  2  2  0
  1  3  1  0
  1 10  1  0
  4  5  1  0
  4  7  1  0
  4  8  1  0
  4  9  1  0
  5  6  1  0
  5 11  1  0
  6 12  1  0
M  RAD  1   5   2
M  END
>  <reaction>  (15) 
rxn_1901

>  <mol_properties>  (15) 
{"0": {"label": "*3", "atom_type": "CS"}, "1": {"label": "*4", "atom_type": "S2d"}, "4": {"label": "*1", "atom_type": "Cs"}, "5": {"label": "*0", "atom_type": "S2s"}, "9": {"label": "*2", "atom_type": "H0"}}

>  <type>  (15) 
unop_11

>  <geom_source>  (15) 
Heuristics

$$$$

     RDKit          3D

 12 10  0  0  0  0  0  0  0  0999 V2000
    0.8415   -1.0768    0.8151 C   0  0  0  0  0  0  0  0  0  0  0  0
    1.9065   -1.7918   -0.1379 S   0  0  0  0  0  0  0  0  0  0  0  0
    0.9120   -1.1242    1.9005 H   0  0  0  0  0  0  0  0  0  0  0  0
   -1.1814    0.2812   -1.6514 C   0  0  0  0  0  0  0  0  0  0  0  0
   -1.1814    0.2812   -0.1327 C   0  0  0  0  0  3  0  0  0  0  0  0
   -1.1814    1.9386    0.6123 S   0  0  0  0  0  0  0  0  0  0  0  0
   -0.2747    0.7466   -2.0421 H   0  0  0  0  0  0  0  0  0  0  0  0
   -2.0373    0.8324   -2.0415 H   0  0  0  0  0  0  0  0  0  0  0  0
   -1.2244   -0.7422   -2.0317 H   0  0  0  0  0  0  0  0  0  0  0  0
   -0.1695   -0.3981    0.3414 H   0  0  0  0  0  0  0  0  0  0  0  0
   -2.0890   -0.1858    0.2524 H   0  0  0  0  0  0  0  0  0  0  0  0
   -0.0066    2.3403    0.1087 H   0  0  0  0  0  0  0  0  0  0  0  0
  1  2  2  0
  1  3  1  0
  1 10  1  0
  4  5  1  0
  4  7  1  0
  4  8  1  0
  4  9  1  0
  5  6  1  0
  5 11  1  0
  6 12  1  0
M  RAD  1   5   2
M  END
>  <reaction>  (16) 
rxn_1901

>  <mol_properties>  (16) 
{"0": {"label": "*3", "atom_type": "CS"}, "1": {"label": "*4", "atom_type": "S2d"}, "4": {"label": "*1", "atom_type": "Cs"}, "5": {"label": "*0", "atom_type": "S2s"}, "9": {"label": "*2", "atom_type": "H0"}}

>  <type>  (16) 
unop_12

>  <geom_source>  (16) 
Heuristics

$$$$

     RDKit          3D

 12 10  0  0  0  0  0  0  0  0999 V2000
   -1.2245    1.5923   -0.9839 S   0  0  0  0  0  0  0  0  0  0  0  0
    3.1572    0.2775   -0.6073 S   0  0  0  0  0  0  0  0  0  0  0  0
   -1.4059   -0.9750   -0.0286 C   0  0  0  0  0  0  0  0  0  0  0  0
   -0.4862    0.2344   -0.0274 C   0  0  0  0  0  3  0  0  0  0  0  0
    2.0856   -0.0120    0.2990 C   0  0  0  0  0  0  0  0  0  0  0  0
   -0.9350   -1.7961    0.5509 H   0  0  0  0  0  0  0  0  0  0  0  0
   -2.3808   -0.7169    0.4366 H   0  0  0  0  0  0  0  0  0  0  0  0
   -1.5724   -1.3227   -1.0698 H   0  0  0  0  0  0  0  0  0  0  0  0
   -0.3041    0.5707    1.0153 H   0  0  0  0  0  0  0  0  0  0  0  0
    2.2857   -0.1156    1.3598 H   0  0  0  0  0  0  0  0  0  0  0  0
    0.8775   -0.1499   -0.1489 H   0  0  0  0  0  0  0  0  0  0  0  0
   -0.0971    2.4135   -0.7956 H   0  0  0  0  0  0  0  0  0  0  0  0
  1  4  1  0
  1 12  1  0
  2  5  2  0
  3  4  1  0
  3  6  1  0
  3  7  1  0
  3  8  1  0
  4  9  1  0
  5 10  1  0
  5 11  1  0
M  RAD  1   4   2
M  END
>  <reaction>  (17) 
rxn_1901

>  <mol_properties>  (17) 
{"0": {"label": "*3", "atom_type": "CS"}, "1": {"label": "*4", "atom_type": "S2d"}, "4": {"label": "*1", "atom_type": "Cs"}, "5": {"label": "*0", "atom_type": "S2s"}, "9": {"label": "*2", "atom_type": "H0"}}

>  <type>  (17) 
unop_13

>  <geom_source>  (17) 
AutoTST

$$$$
