
     RDKit          3D

  8  7  0  0  0  0  0  0  0  0999 V2000
    0.7610    0.0250    0.0051 C   0  0  0  0  0  0  0  0  0  0  0  0
   -0.7610   -0.0250   -0.0051 C   0  0  0  0  0  0  0  0  0  0  0  0
    1.1904   -0.9237   -0.3217 H   0  0  0  0  0  0  0  0  0  0  0  0
    1.1359    0.8041   -0.6609 H   0  0  0  0  0  0  0  0  0  0  0  0
    1.1435    0.2336    1.0058 H   0  0  0  0  0  0  0  0  0  0  0  0
   -1.1435   -0.2336   -1.0058 H   0  0  0  0  0  0  0  0  0  0  0  0
   -1.1904    0.9237    0.3216 H   0  0  0  0  0  0  0  0  0  0  0  0
   -1.1359   -0.8041    0.6609 H   0  0  0  0  0  0  0  0  0  0  0  0
  1  2  1  0
  1  3  1  0
  1  4  1  0
  1  5  1  0
  2  6  1  0
  2  7  1  0
  2  8  1  0
M  END
>  <reaction>  (1) 
rxn_890

>  <mol_properties>  (1) 
{"1": {"label": "donator", "atom_type": "Cs"}, "5": {"label": "d_hydrogen", "atom_type": "H0"}}

>  <type>  (1) 
r1h

$$$$

     RDKit          3D

 11 10  0  0  0  0  0  0  0  0999 V2000
    1.0781   -1.0166   -0.1159 C   0  0  0  0  0  0  0  0  0  0  0  0
    0.2180    0.1942   -0.2297 C   0  0  0  0  0  3  0  0  0  0  0  0
    0.9343    1.7769   -0.3011 S   0  0  0  0  0  0  0  0  0  0  0  0
   -1.1949    0.1490    0.2439 C   0  0  0  0  0  0  0  0  0  0  0  0
    1.4718   -1.1461    0.9024 H   0  0  0  0  0  0  0  0  0  0  0  0
    1.9367   -0.9751   -0.7902 H   0  0  0  0  0  0  0  0  0  0  0  0
    0.5033   -1.9136   -0.3576 H   0  0  0  0  0  0  0  0  0  0  0  0
    2.1166    1.4195   -0.8209 H   0  0  0  0  0  0  0  0  0  0  0  0
   -1.2620    0.0939    1.3399 H   0  0  0  0  0  0  0  0  0  0  0  0
   -1.7600    1.0270   -0.0739 H   0  0  0  0  0  0  0  0  0  0  0  0
   -1.6972   -0.7380   -0.1506 H   0  0  0  0  0  0  0  0  0  0  0  0
  1  2  1  0
  1  5  1  0
  1  6  1  0
  1  7  1  0
  2  4  1  0
  2  3  1  0
  3  8  1  0
  4  9  1  0
  4 10  1  0
  4 11  1  0
M  RAD  1   2   2
M  END
>  <reaction>  (2) 
rxn_890

>  <mol_properties>  (2) 
{"1": {"label": "acceptor", "atom_type": "Cs"}}

>  <type>  (2) 
r2

$$$$

     RDKit          3D

 12 11  0  0  0  0  0  0  0  0999 V2000
    1.2394   -0.3763   -0.3020 C   0  0  0  0  0  0  0  0  0  0  0  0
    0.1007    0.3023    0.4464 C   0  0  0  0  0  0  0  0  0  0  0  0
   -0.1187    2.0399   -0.0725 S   0  0  0  0  0  0  0  0  0  0  0  0
   -1.1974   -0.4877    0.3552 C   0  0  0  0  0  0  0  0  0  0  0  0
    2.1681    0.1849   -0.2048 H   0  0  0  0  0  0  0  0  0  0  0  0
    1.0031   -0.4606   -1.3656 H   0  0  0  0  0  0  0  0  0  0  0  0
    1.3994   -1.3856    0.0860 H   0  0  0  0  0  0  0  0  0  0  0  0
    0.3796    0.4050    1.4981 H   0  0  0  0  0  0  0  0  0  0  0  0
   -0.4500    1.7779   -1.3452 H   0  0  0  0  0  0  0  0  0  0  0  0
   -1.0545   -1.4978    0.7479 H   0  0  0  0  0  0  0  0  0  0  0  0
   -1.5206   -0.5759   -0.6849 H   0  0  0  0  0  0  0  0  0  0  0  0
   -1.9957   -0.0054    0.9183 H   0  0  0  0  0  0  0  0  0  0  0  0
  1  2  1  0
  1  5  1  0
  1  6  1  0
  1  7  1  0
  2  4  1  0
  2  3  1  0
  2  8  1  0
  3  9  1  0
  4 10  1  0
  4 11  1  0
  4 12  1  0
M  END
>  <reaction>  (3) 
rxn_890

>  <mol_properties>  (3) 
{"1": {"label": "acceptor", "atom_type": "Cs"}, "11": {"label": "a_hydrogen", "atom_type": "H0"}}

>  <type>  (3) 
r2h

$$$$

     RDKit          3D

 19 17  0  0  0  0  0  0  0  0999 V2000
   -2.0302    0.7796    0.5704 C   0  0  0  0  0  0  0  0  0  0  0  0
   -0.6080    0.3158    0.3644 C   0  0  0  0  0  0  0  0  0  0  0  0
    0.4868    1.5412   -0.3633 S   0  0  0  0  0  0  0  0  0  0  0  0
    0.0362   -0.2884    1.5912 C   0  0  0  0  0  0  0  0  0  0  0  0
   -2.4765    1.1255   -0.3637 H   0  0  0  0  0  0  0  0  0  0  0  0
   -2.0788    1.5996    1.2927 H   0  0  0  0  0  0  0  0  0  0  0  0
   -2.6389   -0.0460    0.9485 H   0  0  0  0  0  0  0  0  0  0  0  0
   -0.3012    1.8725   -1.3951 H   0  0  0  0  0  0  0  0  0  0  0  0
   -0.5628   -1.1316    1.9419 H   0  0  0  0  0  0  0  0  0  0  0  0
    1.0421   -0.6525    1.3762 H   0  0  0  0  0  0  0  0  0  0  0  0
    0.1032    0.4377    2.4075 H   0  0  0  0  0  0  0  0  0  0  0  0
    0.7038   -2.2451   -1.4036 C   0  0  0  0  0  0  0  0  0  0  0  0
   -0.7088   -1.7341   -1.3757 C   0  0  0  0  0  3  0  0  0  0  0  0
    1.4037   -1.4431   -1.6484 H   0  0  0  0  0  0  0  0  0  0  0  0
    0.9948   -2.6598   -0.4365 H   0  0  0  0  0  0  0  0  0  0  0  0
    0.8355   -3.0358   -2.1500 H   0  0  0  0  0  0  0  0  0  0  0  0
   -0.6853   -0.6554   -0.4872 H   0  0  0  0  0  0  0  0  0  0  0  0
   -1.4505   -2.4113   -0.9568 H   0  0  0  0  0  0  0  0  0  0  0  0
   -1.0534   -1.2644   -2.2951 H   0  0  0  0  0  0  0  0  0  0  0  0
  1  2  1  0
  1  5  1  0
  1  6  1  0
  1  7  1  0
  2  4  1  0
  2  3  1  0
  2 17  1  0
  3  8  1  0
  4  9  1  0
  4 10  1  0
  4 11  1  0
 12 13  1  0
 12 14  1  0
 12 15  1  0
 12 16  1  0
 13 18  1  0
 13 19  1  0
M  RAD  1  13   2
M  END
>  <reaction>  (4) 
rxn_890

>  <mol_properties>  (4) 
{"1": {"label": "*1", "atom_type": "Cs"}, "2": {"label": "*0", "atom_type": "S2s"}, "11": {"label": "*4", "atom_type": "Cs"}, "12": {"label": "*3", "atom_type": "Cs"}, "16": {"label": "*2", "atom_type": "H0"}}

>  <type>  (4) 
ts

$$$$

     RDKit          3D

 19 17  0  0  0  0  0  0  0  0999 V2000
   -1.4085    0.4739    1.3208 C   0  0  0  0  0  0  0  0  0  0  0  0
   -0.1612    0.2754    0.4708 C   0  0  0  0  0  3  0  0  0  0  0  0
    0.4086    1.8388   -0.2826 S   0  0  0  0  0  0  0  0  0  0  0  0
    0.9509   -0.4256    1.2384 C   0  0  0  0  0  0  0  0  0  0  0  0
   -2.2051    0.9508    0.7509 H   0  0  0  0  0  0  0  0  0  0  0  0
   -1.1866    1.1028    2.1865 H   0  0  0  0  0  0  0  0  0  0  0  0
   -1.7719   -0.4883    1.6908 H   0  0  0  0  0  0  0  0  0  0  0  0
    0.6889    2.4687    0.8676 H   0  0  0  0  0  0  0  0  0  0  0  0
    0.6040   -1.3941    1.6078 H   0  0  0  0  0  0  0  0  0  0  0  0
    1.8263   -0.5863    0.6101 H   0  0  0  0  0  0  0  0  0  0  0  0
    1.2568    0.1712    2.1012 H   0  0  0  0  0  0  0  0  0  0  0  0
   -0.1612   -2.1674   -2.0027 C   0  0  0  0  0  0  0  0  0  0  0  0
   -0.1612   -2.1674   -0.4799 C   0  0  0  0  0  0  0  0  0  0  0  0
   -1.0420   -1.6588   -2.3985 H   0  0  0  0  0  0  0  0  0  0  0  0
    0.7196   -1.6588   -2.3985 H   0  0  0  0  0  0  0  0  0  0  0  0
   -0.1612   -3.1845   -2.3985 H   0  0  0  0  0  0  0  0  0  0  0  0
   -0.1612   -0.9469   -0.0049 H   0  0  0  0  0  0  0  0  0  0  0  0
    0.7196   -2.6759   -0.0840 H   0  0  0  0  0  0  0  0  0  0  0  0
   -1.0421   -2.6759   -0.0840 H   0  0  0  0  0  0  0  0  0  0  0  0
  1  2  1  0
  1  5  1  0
  1  6  1  0
  1  7  1  0
  2  4  1  0
  2  3  1  0
  3  8  1  0
  4  9  1  0
  4 10  1  0
  4 11  1  0
 12 13  1  0
 12 14  1  0
 12 15  1  0
 12 16  1  0
 13 17  1  0
 13 18  1  0
 13 19  1  0
M  RAD  1   2   2
M  END
>  <reaction>  (5) 
rxn_890

>  <mol_properties>  (5) 
{"1": {"label": "*1", "atom_type": "Cs"}, "2": {"label": "*0", "atom_type": "S2s"}, "11": {"label": "*4", "atom_type": "Cs"}, "12": {"label": "*3", "atom_type": "Cs"}, "16": {"label": "*2", "atom_type": "H0"}}

>  <type>  (5) 
unop_1

>  <geom_source>  (5) 
Heuristics

$$$$

     RDKit          3D

 19 17  0  0  0  0  0  0  0  0999 V2000
   -0.9826    1.2996   -0.6928 C   0  0  0  0  0  0  0  0  0  0  0  0
   -0.2625    0.3876    0.2906 C   0  0  0  0  0  3  0  0  0  0  0  0
    1.3519    1.0724    0.8018 S   0  0  0  0  0  0  0  0  0  0  0  0
   -1.1343    0.0305    1.4864 C   0  0  0  0  0  0  0  0  0  0  0  0
   -0.3576    1.5239   -1.5565 H   0  0  0  0  0  0  0  0  0  0  0  0
   -1.2517    2.2442   -0.2136 H   0  0  0  0  0  0  0  0  0  0  0  0
   -1.9044    0.8274   -1.0423 H   0  0  0  0  0  0  0  0  0  0  0  0
    0.8681    2.1675    1.4059 H   0  0  0  0  0  0  0  0  0  0  0  0
   -2.0571   -0.4507    1.1522 H   0  0  0  0  0  0  0  0  0  0  0  0
   -0.6168   -0.6447    2.1670 H   0  0  0  0  0  0  0  0  0  0  0  0
   -1.4088    0.9298    2.0432 H   0  0  0  0  0  0  0  0  0  0  0  0
   -0.2625   -2.0552   -2.1829 C   0  0  0  0  0  0  0  0  0  0  0  0
   -0.2625   -2.0552   -0.6601 C   0  0  0  0  0  0  0  0  0  0  0  0
   -1.1434   -1.5467   -2.5788 H   0  0  0  0  0  0  0  0  0  0  0  0
    0.6183   -1.5467   -2.5787 H   0  0  0  0  0  0  0  0  0  0  0  0
   -0.2625   -3.0723   -2.5788 H   0  0  0  0  0  0  0  0  0  0  0  0
   -0.2625   -0.8347   -0.1851 H   0  0  0  0  0  0  0  0  0  0  0  0
    0.6183   -2.5638   -0.2643 H   0  0  0  0  0  0  0  0  0  0  0  0
   -1.1434   -2.5638   -0.2643 H   0  0  0  0  0  0  0  0  0  0  0  0
  1  2  1  0
  1  5  1  0
  1  6  1  0
  1  7  1  0
  2  4  1  0
  2  3  1  0
  3  8  1  0
  4  9  1  0
  4 10  1  0
  4 11  1  0
 12 13  1  0
 12 14  1  0
 12 15  1  0
 12 16  1  0
 13 17  1  0
 13 18  1  0
 13 19  1  0
M  RAD  1   2   2
M  END
>  <reaction>  (6) 
rxn_890

>  <mol_properties>  (6) 
{"1": {"label": "*1", "atom_type": "Cs"}, "2": {"label": "*0", "atom_type": "S2s"}, "11": {"label": "*4", "atom_type": "Cs"}, "12": {"label": "*3", "atom_type": "Cs"}, "16": {"label": "*2", "atom_type": "H0"}}

>  <type>  (6) 
unop_2

>  <geom_source>  (6) 
Heuristics

$$$$

     RDKit          3D

 19 17  0  0  0  0  0  0  0  0999 V2000
   -0.7146    0.2601    1.9116 C   0  0  0  0  0  0  0  0  0  0  0  0
    0.0055    0.2527    0.5704 C   0  0  0  0  0  3  0  0  0  0  0  0
   -0.4034    1.7232   -0.4331 S   0  0  0  0  0  0  0  0  0  0  0  0
    1.5086    0.0698    0.7269 C   0  0  0  0  0  0  0  0  0  0  0  0
   -1.7915    0.3632    1.7831 H   0  0  0  0  0  0  0  0  0  0  0  0
   -0.3651    1.0904    2.5301 H   0  0  0  0  0  0  0  0  0  0  0  0
   -0.5152   -0.6679    2.4537 H   0  0  0  0  0  0  0  0  0  0  0  0
    0.1206    2.6296    0.4047 H   0  0  0  0  0  0  0  0  0  0  0  0
    1.7236   -0.8595    1.2607 H   0  0  0  0  0  0  0  0  0  0  0  0
    2.0073    0.0381   -0.2412 H   0  0  0  0  0  0  0  0  0  0  0  0
    1.9374    0.8933    1.3032 H   0  0  0  0  0  0  0  0  0  0  0  0
    0.0055   -2.1901   -1.9031 C   0  0  0  0  0  0  0  0  0  0  0  0
    0.0055   -2.1901   -0.3804 C   0  0  0  0  0  0  0  0  0  0  0  0
   -0.8754   -1.6815   -2.2990 H   0  0  0  0  0  0  0  0  0  0  0  0
    0.8863   -1.6815   -2.2990 H   0  0  0  0  0  0  0  0  0  0  0  0
    0.0055   -3.2072   -2.2990 H   0  0  0  0  0  0  0  0  0  0  0  0
    0.0055   -0.9696    0.0947 H   0  0  0  0  0  0  0  0  0  0  0  0
    0.8863   -2.6986    0.0155 H   0  0  0  0  0  0  0  0  0  0  0  0
   -0.8754   -2.6986    0.0155 H   0  0  0  0  0  0  0  0  0  0  0  0
  1  2  1  0
  1  5  1  0
  1  6  1  0
  1  7  1  0
  2  4  1  0
  2  3  1  0
  3  8  1  0
  4  9  1  0
  4 10  1  0
  4 11  1  0
 12 13  1  0
 12 14  1  0
 12 15  1  0
 12 16  1  0
 13 17  1  0
 13 18  1  0
 13 19  1  0
M  RAD  1   2   2
M  END
>  <reaction>  (7) 
rxn_890

>  <mol_properties>  (7) 
{"1": {"label": "*1", "atom_type": "Cs"}, "2": {"label": "*0", "atom_type": "S2s"}, "11": {"label": "*4", "atom_type": "Cs"}, "12": {"label": "*3", "atom_type": "Cs"}, "16": {"label": "*2", "atom_type": "H0"}}

>  <type>  (7) 
unop_3

>  <geom_source>  (7) 
Heuristics

$$$$

     RDKit          3D

 19 17  0  0  0  0  0  0  0  0999 V2000
    1.1184    1.4911   -0.4296 C   0  0  0  0  0  0  0  0  0  0  0  0
   -0.1288    0.7702    0.0626 C   0  0  0  0  0  3  0  0  0  0  0  0
    0.2230   -0.3010    1.4997 S   0  0  0  0  0  0  0  0  0  0  0  0
   -1.2772    1.7315    0.3361 C   0  0  0  0  0  0  0  0  0  0  0  0
    1.9222    0.7889   -0.6480 H   0  0  0  0  0  0  0  0  0  0  0  0
    1.4778    2.1948    0.3253 H   0  0  0  0  0  0  0  0  0  0  0  0
    0.8948    2.0587   -1.3365 H   0  0  0  0  0  0  0  0  0  0  0  0
    0.5888    0.6815    2.3358 H   0  0  0  0  0  0  0  0  0  0  0  0
   -1.5175    2.3008   -0.5655 H   0  0  0  0  0  0  0  0  0  0  0  0
   -2.1710    1.1997    0.6602 H   0  0  0  0  0  0  0  0  0  0  0  0
   -1.0031    2.4438    1.1182 H   0  0  0  0  0  0  0  0  0  0  0  0
   -0.1288   -1.6726   -2.4109 C   0  0  0  0  0  0  0  0  0  0  0  0
   -0.1288   -1.6726   -0.8881 C   0  0  0  0  0  0  0  0  0  0  0  0
   -1.0097   -1.1640   -2.8067 H   0  0  0  0  0  0  0  0  0  0  0  0
    0.7520   -1.1640   -2.8067 H   0  0  0  0  0  0  0  0  0  0  0  0
   -0.1288   -2.6897   -2.8067 H   0  0  0  0  0  0  0  0  0  0  0  0
   -0.1288   -0.4520   -0.4131 H   0  0  0  0  0  0  0  0  0  0  0  0
    0.7520   -2.1811   -0.4923 H   0  0  0  0  0  0  0  0  0  0  0  0
   -1.0097   -2.1811   -0.4923 H   0  0  0  0  0  0  0  0  0  0  0  0
  1  2  1  0
  1  5  1  0
  1  6  1  0
  1  7  1  0
  2  4  1  0
  2  3  1  0
  3  8  1  0
  4  9  1  0
  4 10  1  0
  4 11  1  0
 12 13  1  0
 12 14  1  0
 12 15  1  0
 12 16  1  0
 13 17  1  0
 13 18  1  0
 13 19  1  0
M  RAD  1   2   2
M  END
>  <reaction>  (8) 
rxn_890

>  <mol_properties>  (8) 
{"1": {"label": "*1", "atom_type": "Cs"}, "2": {"label": "*0", "atom_type": "S2s"}, "11": {"label": "*4", "atom_type": "Cs"}, "12": {"label": "*3", "atom_type": "Cs"}, "16": {"label": "*2", "atom_type": "H0"}}

>  <type>  (8) 
unop_4

>  <geom_source>  (8) 
Heuristics

$$$$

     RDKit          3D

 19 17  0  0  0  0  0  0  0  0999 V2000
    0.3074    0.3079    2.0636 C   0  0  0  0  0  0  0  0  0  0  0  0
    0.3074    0.3705    0.5426 C   0  0  0  0  0  3  0  0  0  0  0  0
   -1.2574    1.0467   -0.1138 S   0  0  0  0  0  0  0  0  0  0  0  0
    1.5208    1.1116   -0.0014 C   0  0  0  0  0  0  0  0  0  0  0  0
   -0.5509   -0.2491    2.4377 H   0  0  0  0  0  0  0  0  0  0  0  0
    0.2714    1.3138    2.4890 H   0  0  0  0  0  0  0  0  0  0  0  0
    1.2200   -0.1747    2.4229 H   0  0  0  0  0  0  0  0  0  0  0  0
   -1.1368    2.2658    0.4315 H   0  0  0  0  0  0  0  0  0  0  0  0
    2.4419    0.6346    0.3434 H   0  0  0  0  0  0  0  0  0  0  0  0
    1.5224    1.1241   -1.0908 H   0  0  0  0  0  0  0  0  0  0  0  0
    1.5280    2.1461    0.3504 H   0  0  0  0  0  0  0  0  0  0  0  0
    0.3074   -2.0723   -1.9309 C   0  0  0  0  0  0  0  0  0  0  0  0
    0.3074   -2.0723   -0.4081 C   0  0  0  0  0  0  0  0  0  0  0  0
   -0.5734   -1.5637   -2.3268 H   0  0  0  0  0  0  0  0  0  0  0  0
    1.1882   -1.5637   -2.3268 H   0  0  0  0  0  0  0  0  0  0  0  0
    0.3074   -3.0894   -2.3268 H   0  0  0  0  0  0  0  0  0  0  0  0
    0.3074   -0.8517    0.0669 H   0  0  0  0  0  0  0  0  0  0  0  0
    1.1882   -2.5808   -0.0123 H   0  0  0  0  0  0  0  0  0  0  0  0
   -0.5734   -2.5808   -0.0123 H   0  0  0  0  0  0  0  0  0  0  0  0
  1  2  1  0
  1  5  1  0
  1  6  1  0
  1  7  1  0
  2  4  1  0
  2  3  1  0
  3  8  1  0
  4  9  1  0
  4 10  1  0
  4 11  1  0
 12 13  1  0
 12 14  1  0
 12 15  1  0
 12 16  1  0
 13 17  1  0
 13 18  1  0
 13 19  1  0
M  RAD  1   2   2
M  END
>  <reaction>  (9) 
rxn_890

>  <mol_properties>  (9) 
{"1": {"label": "*1", "atom_type": "Cs"}, "2": {"label": "*0", "atom_type": "S2s"}, "11": {"label": "*4", "atom_type": "Cs"}, "12": {"label": "*3", "atom_type": "Cs"}, "16": {"label": "*2", "atom_type": "H0"}}

>  <type>  (9) 
unop_5

>  <geom_source>  (9) 
Heuristics

$$$$

     RDKit          3D

 19 17  0  0  0  0  0  0  0  0999 V2000
    1.5228    1.2849    0.2431 C   0  0  0  0  0  0  0  0  0  0  0  0
    0.0826    0.8253    0.0642 C   0  0  0  0  0  3  0  0  0  0  0  0
   -0.4096   -0.3911    1.3349 S   0  0  0  0  0  0  0  0  0  0  0  0
   -0.8883    1.9954   -0.0108 C   0  0  0  0  0  0  0  0  0  0  0  0
    2.2091    0.4392    0.2667 H   0  0  0  0  0  0  0  0  0  0  0  0
    1.6351    1.8399    1.1777 H   0  0  0  0  0  0  0  0  0  0  0  0
    1.8135    1.9475   -0.5763 H   0  0  0  0  0  0  0  0  0  0  0  0
   -0.2791    0.4282    2.3884 H   0  0  0  0  0  0  0  0  0  0  0  0
   -0.6144    2.6628   -0.8319 H   0  0  0  0  0  0  0  0  0  0  0  0
   -1.9107    1.6531   -0.1671 H   0  0  0  0  0  0  0  0  0  0  0  0
   -0.8620    2.5756    0.9148 H   0  0  0  0  0  0  0  0  0  0  0  0
    0.0826   -1.6176   -2.4093 C   0  0  0  0  0  0  0  0  0  0  0  0
    0.0826   -1.6176   -0.8865 C   0  0  0  0  0  0  0  0  0  0  0  0
   -0.7982   -1.1090   -2.8052 H   0  0  0  0  0  0  0  0  0  0  0  0
    0.9635   -1.1090   -2.8052 H   0  0  0  0  0  0  0  0  0  0  0  0
    0.0826   -2.6347   -2.8052 H   0  0  0  0  0  0  0  0  0  0  0  0
    0.0826   -0.3970   -0.4115 H   0  0  0  0  0  0  0  0  0  0  0  0
    0.9635   -2.1261   -0.4907 H   0  0  0  0  0  0  0  0  0  0  0  0
   -0.7982   -2.1261   -0.4907 H   0  0  0  0  0  0  0  0  0  0  0  0
  1  2  1  0
  1  5  1  0
  1  6  1  0
  1  7  1  0
  2  4  1  0
  2  3  1  0
  3  8  1  0
  4  9  1  0
  4 10  1  0
  4 11  1  0
 12 13  1  0
 12 14  1  0
 12 15  1  0
 12 16  1  0
 13 17  1  0
 13 18  1  0
 13 19  1  0
M  RAD  1   2   2
M  END
>  <reaction>  (10) 
rxn_890

>  <mol_properties>  (10) 
{"1": {"label": "*1", "atom_type": "Cs"}, "2": {"label": "*0", "atom_type": "S2s"}, "11": {"label": "*4", "atom_type": "Cs"}, "12": {"label": "*3", "atom_type": "Cs"}, "16": {"label": "*2", "atom_type": "H0"}}

>  <type>  (10) 
unop_6

>  <geom_source>  (10) 
Heuristics

$$$$

     RDKit          3D

 19 17  0  0  0  0  0  0  0  0999 V2000
    1.5402    0.9865    1.0078 C   0  0  0  0  0  0  0  0  0  0  0  0
    0.2929    0.7879    0.1579 C   0  0  0  0  0  3  0  0  0  0  0  0
   -0.9473   -0.2576    0.9976 S   0  0  0  0  0  0  0  0  0  0  0  0
   -0.2993    2.1100   -0.3101 C   0  0  0  0  0  0  0  0  0  0  0  0
    1.9690    0.0322    1.3118 H   0  0  0  0  0  0  0  0  0  0  0  0
    1.3029    1.5553    1.9102 H   0  0  0  0  0  0  0  0  0  0  0  0
    2.2946    1.5458    0.4486 H   0  0  0  0  0  0  0  0  0  0  0  0
   -1.1760    0.5733    2.0251 H   0  0  0  0  0  0  0  0  0  0  0  0
    0.4423    2.6772   -0.8785 H   0  0  0  0  0  0  0  0  0  0  0  0
   -1.1739    1.9520   -0.9400 H   0  0  0  0  0  0  0  0  0  0  0  0
   -0.6021    2.7189    0.5454 H   0  0  0  0  0  0  0  0  0  0  0  0
    0.2929   -1.6549   -2.3156 C   0  0  0  0  0  0  0  0  0  0  0  0
    0.2929   -1.6549   -0.7929 C   0  0  0  0  0  0  0  0  0  0  0  0
   -0.5879   -1.1463   -2.7115 H   0  0  0  0  0  0  0  0  0  0  0  0
    1.1738   -1.1463   -2.7115 H   0  0  0  0  0  0  0  0  0  0  0  0
    0.2929   -2.6720   -2.7115 H   0  0  0  0  0  0  0  0  0  0  0  0
    0.2929   -0.4343   -0.3178 H   0  0  0  0  0  0  0  0  0  0  0  0
    1.1738   -2.1634   -0.3970 H   0  0  0  0  0  0  0  0  0  0  0  0
   -0.5879   -2.1634   -0.3970 H   0  0  0  0  0  0  0  0  0  0  0  0
  1  2  1  0
  1  5  1  0
  1  6  1  0
  1  7  1  0
  2  4  1  0
  2  3  1  0
  3  8  1  0
  4  9  1  0
  4 10  1  0
  4 11  1  0
 12 13  1  0
 12 14  1  0
 12 15  1  0
 12 16  1  0
 13 17  1  0
 13 18  1  0
 13 19  1  0
M  RAD  1   2   2
M  END
>  <reaction>  (11) 
rxn_890

>  <mol_properties>  (11) 
{"1": {"label": "*1", "atom_type": "Cs"}, "2": {"label": "*0", "atom_type": "S2s"}, "11": {"label": "*4", "atom_type": "Cs"}, "12": {"label": "*3", "atom_type": "Cs"}, "16": {"label": "*2", "atom_type": "H0"}}

>  <type>  (11) 
unop_7

>  <geom_source>  (11) 
Heuristics

$$$$

     RDKit          3D

 19 17  0  0  0  0  0  0  0  0999 V2000
   -1.6478    0.7712    0.5568 C   0  0  0  0  0  0  0  0  0  0  0  0
   -0.2076    0.3115    0.3779 C   0  0  0  0  0  3  0  0  0  0  0  0
    0.9209    1.7103    0.0516 S   0  0  0  0  0  0  0  0  0  0  0  0
    0.2699   -0.5463    1.5414 C   0  0  0  0  0  0  0  0  0  0  0  0
   -1.9851    1.3599   -0.2955 H   0  0  0  0  0  0  0  0  0  0  0  0
   -1.7454    1.3864    1.4547 H   0  0  0  0  0  0  0  0  0  0  0  0
   -2.3097   -0.0915    0.6689 H   0  0  0  0  0  0  0  0  0  0  0  0
    0.7414    2.3282    1.2281 H   0  0  0  0  0  0  0  0  0  0  0  0
   -0.3786   -1.4182    1.6603 H   0  0  0  0  0  0  0  0  0  0  0  0
    1.2916   -0.8913    1.3867 H   0  0  0  0  0  0  0  0  0  0  0  0
    0.2406    0.0219    2.4743 H   0  0  0  0  0  0  0  0  0  0  0  0
   -0.2076   -2.1313   -2.0956 C   0  0  0  0  0  0  0  0  0  0  0  0
   -0.2076   -2.1313   -0.5728 C   0  0  0  0  0  0  0  0  0  0  0  0
   -1.0885   -1.6227   -2.4914 H   0  0  0  0  0  0  0  0  0  0  0  0
    0.6732   -1.6228   -2.4914 H   0  0  0  0  0  0  0  0  0  0  0  0
   -0.2076   -3.1484   -2.4914 H   0  0  0  0  0  0  0  0  0  0  0  0
   -0.2076   -0.9108   -0.0978 H   0  0  0  0  0  0  0  0  0  0  0  0
    0.6732   -2.6399   -0.1769 H   0  0  0  0  0  0  0  0  0  0  0  0
   -1.0885   -2.6399   -0.1769 H   0  0  0  0  0  0  0  0  0  0  0  0
  1  2  1  0
  1  5  1  0
  1  6  1  0
  1  7  1  0
  2  4  1  0
  2  3  1  0
  3  8  1  0
  4  9  1  0
  4 10  1  0
  4 11  1  0
 12 13  1  0
 12 14  1  0
 12 15  1  0
 12 16  1  0
 13 17  1  0
 13 18  1  0
 13 19  1  0
M  RAD  1   2   2
M  END
>  <reaction>  (12) 
rxn_890

>  <mol_properties>  (12) 
{"1": {"label": "*1", "atom_type": "Cs"}, "2": {"label": "*0", "atom_type": "S2s"}, "11": {"label": "*4", "atom_type": "Cs"}, "12": {"label": "*3", "atom_type": "Cs"}, "16": {"label": "*2", "atom_type": "H0"}}

>  <type>  (12) 
unop_8

>  <geom_source>  (12) 
Heuristics

$$$$

     RDKit          3D

 19 17  0  0  0  0  0  0  0  0999 V2000
    0.4457    1.5553   -0.8489 C   0  0  0  0  0  0  0  0  0  0  0  0
   -0.2744    0.6432    0.1345 C   0  0  0  0  0  3  0  0  0  0  0  0
    0.8443    0.0268    1.4403 S   0  0  0  0  0  0  0  0  0  0  0  0
   -1.5220    1.2951    0.7141 C   0  0  0  0  0  0  0  0  0  0  0  0
    1.3199    1.0658   -1.2768 H   0  0  0  0  0  0  0  0  0  0  0  0
    0.7777    2.4698   -0.3514 H   0  0  0  0  0  0  0  0  0  0  0  0
   -0.2265    1.8418   -1.6618 H   0  0  0  0  0  0  0  0  0  0  0  0
    1.1175    1.2222    1.9832 H   0  0  0  0  0  0  0  0  0  0  0  0
   -2.2080    1.5798   -0.0878 H   0  0  0  0  0  0  0  0  0  0  0  0
   -2.0423    0.6213    1.3939 H   0  0  0  0  0  0  0  0  0  0  0  0
   -1.2601    2.2004    1.2673 H   0  0  0  0  0  0  0  0  0  0  0  0
   -0.2744   -1.7996   -2.3390 C   0  0  0  0  0  0  0  0  0  0  0  0
   -0.2744   -1.7996   -0.8162 C   0  0  0  0  0  0  0  0  0  0  0  0
   -1.1552   -1.2911   -2.7348 H   0  0  0  0  0  0  0  0  0  0  0  0
    0.6064   -1.2911   -2.7348 H   0  0  0  0  0  0  0  0  0  0  0  0
   -0.2744   -2.8167   -2.7348 H   0  0  0  0  0  0  0  0  0  0  0  0
   -0.2744   -0.5791   -0.3412 H   0  0  0  0  0  0  0  0  0  0  0  0
    0.6064   -2.3082   -0.4204 H   0  0  0  0  0  0  0  0  0  0  0  0
   -1.1552   -2.3082   -0.4204 H   0  0  0  0  0  0  0  0  0  0  0  0
  1  2  1  0
  1  5  1  0
  1  6  1  0
  1  7  1  0
  2  4  1  0
  2  3  1  0
  3  8  1  0
  4  9  1  0
  4 10  1  0
  4 11  1  0
 12 13  1  0
 12 14  1  0
 12 15  1  0
 12 16  1  0
 13 17  1  0
 13 18  1  0
 13 19  1  0
M  RAD  1   2   2
M  END
>  <reaction>  (13) 
rxn_890

>  <mol_properties>  (13) 
{"1": {"label": "*1", "atom_type": "Cs"}, "2": {"label": "*0", "atom_type": "S2s"}, "11": {"label": "*4", "atom_type": "Cs"}, "12": {"label": "*3", "atom_type": "Cs"}, "16": {"label": "*2", "atom_type": "H0"}}

>  <type>  (13) 
unop_9

>  <geom_source>  (13) 
Heuristics

$$$$

     RDKit          3D

 19 17  0  0  0  0  0  0  0  0999 V2000
   -1.4706    1.0610   -0.1669 C   0  0  0  0  0  0  0  0  0  0  0  0
   -0.2234    0.3402    0.3252 C   0  0  0  0  0  3  0  0  0  0  0  0
    1.2177    1.4582    0.4254 S   0  0  0  0  0  0  0  0  0  0  0  0
   -0.4653   -0.3962    1.6355 C   0  0  0  0  0  0  0  0  0  0  0  0
   -1.2910    1.5597   -1.1187 H   0  0  0  0  0  0  0  0  0  0  0  0
   -1.7887    1.8152    0.5571 H   0  0  0  0  0  0  0  0  0  0  0  0
   -2.2926    0.3519   -0.2942 H   0  0  0  0  0  0  0  0  0  0  0  0
    0.7137    2.2720    1.3645 H   0  0  0  0  0  0  0  0  0  0  0  0
   -1.2803   -1.1155    1.5208 H   0  0  0  0  0  0  0  0  0  0  0  0
    0.4267   -0.9302    1.9609 H   0  0  0  0  0  0  0  0  0  0  0  0
   -0.7476    0.3060    2.4237 H   0  0  0  0  0  0  0  0  0  0  0  0
   -0.2234   -2.1027   -2.1483 C   0  0  0  0  0  0  0  0  0  0  0  0
   -0.2234   -2.1027   -0.6255 C   0  0  0  0  0  0  0  0  0  0  0  0
   -1.1042   -1.5941   -2.5441 H   0  0  0  0  0  0  0  0  0  0  0  0
    0.6575   -1.5941   -2.5441 H   0  0  0  0  0  0  0  0  0  0  0  0
   -0.2234   -3.1198   -2.5441 H   0  0  0  0  0  0  0  0  0  0  0  0
   -0.2234   -0.8821   -0.1505 H   0  0  0  0  0  0  0  0  0  0  0  0
    0.6575   -2.6112   -0.2296 H   0  0  0  0  0  0  0  0  0  0  0  0
   -1.1042   -2.6112   -0.2296 H   0  0  0  0  0  0  0  0  0  0  0  0
  1  2  1  0
  1  5  1  0
  1  6  1  0
  1  7  1  0
  2  4  1  0
  2  3  1  0
  3  8  1  0
  4  9  1  0
  4 10  1  0
  4 11  1  0
 12 13  1  0
 12 14  1  0
 12 15  1  0
 12 16  1  0
 13 17  1  0
 13 18  1  0
 13 19  1  0
M  RAD  1   2   2
M  END
>  <reaction>  (14) 
rxn_890

>  <mol_properties>  (14) 
{"1": {"label": "*1", "atom_type": "Cs"}, "2": {"label": "*0", "atom_type": "S2s"}, "11": {"label": "*4", "atom_type": "Cs"}, "12": {"label": "*3", "atom_type": "Cs"}, "16": {"label": "*2", "atom_type": "H0"}}

>  <type>  (14) 
unop_10

>  <geom_source>  (14) 
Heuristics

$$$$

     RDKit          3D

 19 17  0  0  0  0  0  0  0  0999 V2000
    1.1409    0.6382    1.6807 C   0  0  0  0  0  0  0  0  0  0  0  0
    0.4208    0.6309    0.3395 C   0  0  0  0  0  3  0  0  0  0  0  0
   -1.3401    0.1765    0.5114 S   0  0  0  0  0  0  0  0  0  0  0  0
    0.6002    1.9405   -0.4156 C   0  0  0  0  0  0  0  0  0  0  0  0
    1.0276   -0.3145    2.1969 H   0  0  0  0  0  0  0  0  0  0  0  0
    0.7414    1.4241    2.3263 H   0  0  0  0  0  0  0  0  0  0  0  0
    2.2069    0.8328    1.5372 H   0  0  0  0  0  0  0  0  0  0  0  0
   -1.6970    1.2312    1.2587 H   0  0  0  0  0  0  0  0  0  0  0  0
    1.6624    2.1442   -0.5736 H   0  0  0  0  0  0  0  0  0  0  0  0
    0.1037    1.9108   -1.3849 H   0  0  0  0  0  0  0  0  0  0  0  0
    0.1814    2.7729    0.1553 H   0  0  0  0  0  0  0  0  0  0  0  0
    0.4208   -1.8120   -2.1341 C   0  0  0  0  0  0  0  0  0  0  0  0
    0.4208   -1.8120   -0.6113 C   0  0  0  0  0  0  0  0  0  0  0  0
   -0.4601   -1.3034   -2.5299 H   0  0  0  0  0  0  0  0  0  0  0  0
    1.3016   -1.3034   -2.5299 H   0  0  0  0  0  0  0  0  0  0  0  0
    0.4208   -2.8291   -2.5299 H   0  0  0  0  0  0  0  0  0  0  0  0
    0.4208   -0.5914   -0.1362 H   0  0  0  0  0  0  0  0  0  0  0  0
    1.3016   -2.3205   -0.2154 H   0  0  0  0  0  0  0  0  0  0  0  0
   -0.4601   -2.3205   -0.2154 H   0  0  0  0  0  0  0  0  0  0  0  0
  1  2  1  0
  1  5  1  0
  1  6  1  0
  1  7  1  0
  2  4  1  0
  2  3  1  0
  3  8  1  0
  4  9  1  0
  4 10  1  0
  4 11  1  0
 12 13  1  0
 12 14  1  0
 12 15  1  0
 12 16  1  0
 13 17  1  0
 13 18  1  0
 13 19  1  0
M  RAD  1   2   2
M  END
>  <reaction>  (15) 
rxn_890

>  <mol_properties>  (15) 
{"1": {"label": "*1", "atom_type": "Cs"}, "2": {"label": "*0", "atom_type": "S2s"}, "11": {"label": "*4", "atom_type": "Cs"}, "12": {"label": "*3", "atom_type": "Cs"}, "16": {"label": "*2", "atom_type": "H0"}}

>  <type>  (15) 
unop_11

>  <geom_source>  (15) 
Heuristics

$$$$

     RDKit          3D

 19 17  0  0  0  0  0  0  0  0999 V2000
   -0.3074    1.4747   -0.9344 C   0  0  0  0  0  0  0  0  0  0  0  0
   -0.3074    0.4926    0.2288 C   0  0  0  0  0  3  0  0  0  0  0  0
    1.2574    0.5472    1.1696 S   0  0  0  0  0  0  0  0  0  0  0  0
   -1.5208    0.6710    1.1306 C   0  0  0  0  0  0  0  0  0  0  0  0
    0.5509    1.3171   -1.5866 H   0  0  0  0  0  0  0  0  0  0  0  0
   -0.2714    2.5035   -0.5679 H   0  0  0  0  0  0  0  0  0  0  0  0
   -1.2200    1.3619   -1.5254 H   0  0  0  0  0  0  0  0  0  0  0  0
    1.1368    1.8143    1.5918 H   0  0  0  0  0  0  0  0  0  0  0  0
   -2.4419    0.5526    0.5541 H   0  0  0  0  0  0  0  0  0  0  0  0
   -1.5224   -0.0561    1.9419 H   0  0  0  0  0  0  0  0  0  0  0  0
   -1.5280    1.6712    1.5707 H   0  0  0  0  0  0  0  0  0  0  0  0
   -0.3074   -1.9502   -2.2447 C   0  0  0  0  0  0  0  0  0  0  0  0
   -0.3074   -1.9502   -0.7219 C   0  0  0  0  0  0  0  0  0  0  0  0
   -1.1882   -1.4416   -2.6405 H   0  0  0  0  0  0  0  0  0  0  0  0
    0.5734   -1.4416   -2.6405 H   0  0  0  0  0  0  0  0  0  0  0  0
   -0.3074   -2.9673   -2.6405 H   0  0  0  0  0  0  0  0  0  0  0  0
   -0.3074   -0.7296   -0.2469 H   0  0  0  0  0  0  0  0  0  0  0  0
    0.5734   -2.4587   -0.3260 H   0  0  0  0  0  0  0  0  0  0  0  0
   -1.1882   -2.4587   -0.3260 H   0  0  0  0  0  0  0  0  0  0  0  0
  1  2  1  0
  1  5  1  0
  1  6  1  0
  1  7  1  0
  2  4  1  0
  2  3  1  0
  3  8  1  0
  4  9  1  0
  4 10  1  0
  4 11  1  0
 12 13  1  0
 12 14  1  0
 12 15  1  0
 12 16  1  0
 13 17  1  0
 13 18  1  0
 13 19  1  0
M  RAD  1   2   2
M  END
>  <reaction>  (16) 
rxn_890

>  <mol_properties>  (16) 
{"1": {"label": "*1", "atom_type": "Cs"}, "2": {"label": "*0", "atom_type": "S2s"}, "11": {"label": "*4", "atom_type": "Cs"}, "12": {"label": "*3", "atom_type": "Cs"}, "16": {"label": "*2", "atom_type": "H0"}}

>  <type>  (16) 
unop_12

>  <geom_source>  (16) 
Heuristics

$$$$

     RDKit          3D

 19 17  0  0  0  0  0  0  0  0999 V2000
   -0.4517    1.3950    1.1565 S   0  0  0  0  0  0  0  0  0  0  0  0
   -0.7960    0.1003   -0.0830 C   0  0  0  0  0  3  0  0  0  0  0  0
   -1.6804   -0.9893    0.5207 C   0  0  0  0  0  0  0  0  0  0  0  0
   -1.4416    0.7136   -1.3243 C   0  0  0  0  0  0  0  0  0  0  0  0
    2.5205    0.0676    0.7787 C   0  0  0  0  0  0  0  0  0  0  0  0
    1.7036   -0.4621   -0.3851 C   0  0  0  0  0  0  0  0  0  0  0  0
    0.4084   -0.4702   -0.4536 H   0  0  0  0  0  0  0  0  0  0  0  0
   -1.1828   -1.4253    1.4123 H   0  0  0  0  0  0  0  0  0  0  0  0
   -1.8415   -1.8008   -0.2200 H   0  0  0  0  0  0  0  0  0  0  0  0
   -2.6658   -0.5747    0.8233 H   0  0  0  0  0  0  0  0  0  0  0  0
   -1.5986   -0.0692   -2.0962 H   0  0  0  0  0  0  0  0  0  0  0  0
   -0.7736    1.4923   -1.7488 H   0  0  0  0  0  0  0  0  0  0  0  0
   -2.4204    1.1750   -1.0726 H   0  0  0  0  0  0  0  0  0  0  0  0
    2.2126   -0.4455    1.7135 H   0  0  0  0  0  0  0  0  0  0  0  0
    2.3468    1.1583    0.8893 H   0  0  0  0  0  0  0  0  0  0  0  0
    3.6006   -0.1158    0.5976 H   0  0  0  0  0  0  0  0  0  0  0  0
    1.9998    0.0529   -1.3232 H   0  0  0  0  0  0  0  0  0  0  0  0
    1.8653   -1.5550   -0.4968 H   0  0  0  0  0  0  0  0  0  0  0  0
   -1.8050    1.7531    1.3118 H   0  0  0  0  0  0  0  0  0  0  0  0
  1  2  1  0
  1 19  1  0
  2  3  1  0
  2  4  1  0
  3  8  1  0
  3  9  1  0
  3 10  1  0
  4 11  1  0
  4 12  1  0
  4 13  1  0
  5  6  1  0
  5 14  1  0
  5 15  1  0
  5 16  1  0
  6  7  1  0
  6 17  1  0
  6 18  1  0
M  RAD  1   2   2
M  END
>  <reaction>  (17) 
rxn_890

>  <mol_properties>  (17) 
{"1": {"label": "*1", "atom_type": "Cs"}, "2": {"label": "*0", "atom_type": "S2s"}, "11": {"label": "*4", "atom_type": "Cs"}, "12": {"label": "*3", "atom_type": "Cs"}, "16": {"label": "*2", "atom_type": "H0"}}

>  <type>  (17) 
unop_13

>  <geom_source>  (17) 
AutoTST

$$$$
