
     RDKit          3D

  6  5  0  0  0  0  0  0  0  0999 V2000
   -0.3669    0.0060    0.0609 C   0  0  0  0  0  0  0  0  0  0  0  0
    0.9818   -0.0507    0.4695 O   0  0  0  0  0  0  0  0  0  0  0  0
   -0.6066    0.9462   -0.4488 H   0  0  0  0  0  0  0  0  0  0  0  0
   -0.5221   -0.8115   -0.6420 H   0  0  0  0  0  0  0  0  0  0  0  0
   -1.0602   -0.1268    0.8992 H   0  0  0  0  0  0  0  0  0  0  0  0
    1.1451    0.6595    1.0897 H   0  0  0  0  0  0  0  0  0  0  0  0
  1  2  1  0
  1  3  1  0
  1  4  1  0
  1  5  1  0
  2  6  1  0
M  END
>  <reaction>  (1) 
rxn_197

>  <mol_properties>  (1) 
{"0": {"label": "donator", "atom_type": "Cs"}, "2": {"label": "d_hydrogen", "atom_type": "H0"}}

>  <type>  (1) 
r1h

$$$$

     RDKit          3D

  3  2  0  0  0  0  0  0  0  0999 V2000
    0.9943   -0.1797    0.0000 O   0  0  0  0  0  1  0  0  0  0  0  0
   -0.1595    0.4394    0.0000 O   0  0  0  0  0  0  0  0  0  0  0  0
   -0.8348   -0.2597    0.0000 H   0  0  0  0  0  0  0  0  0  0  0  0
  1  2  1  0
  2  3  1  0
M  RAD  1   1   2
M  END
>  <reaction>  (2) 
rxn_197

>  <mol_properties>  (2) 
{"0": {"label": "acceptor", "atom_type": "O2s"}}

>  <type>  (2) 
r2

$$$$

     RDKit          3D

  4  3  0  0  0  0  0  0  0  0999 V2000
    0.5949   -0.3853    0.2659 O   0  0  0  0  0  0  0  0  0  0  0  0
   -0.5918    0.4028    0.2462 O   0  0  0  0  0  0  0  0  0  0  0  0
    1.1865    0.1539   -0.2689 H   0  0  0  0  0  0  0  0  0  0  0  0
   -1.1896   -0.1714   -0.2432 H   0  0  0  0  0  0  0  0  0  0  0  0
  1  2  1  0
  1  3  1  0
  2  4  1  0
M  END
>  <reaction>  (3) 
rxn_197

>  <mol_properties>  (3) 
{"0": {"label": "a_hydrogen", "atom_type": "H0"}, "1": {"label": "acceptor", "atom_type": "O2s"}}

>  <type>  (3) 
r2h

$$$$

     RDKit          3D

  9  7  0  0  0  0  0  0  0  0999 V2000
    0.1913   -1.4524    0.1855 C   0  0  0  0  0  3  0  0  0  0  0  0
   -0.1228   -1.1414   -1.1090 O   0  0  0  0  0  0  0  0  0  0  0  0
   -0.0255   -0.3488    0.8880 H   0  0  0  0  0  0  0  0  0  0  0  0
   -0.4780   -2.2191    0.5659 H   0  0  0  0  0  0  0  0  0  0  0  0
    1.2506   -1.6397    0.3792 H   0  0  0  0  0  0  0  0  0  0  0  0
    0.4625   -0.4397   -1.4100 H   0  0  0  0  0  0  0  0  0  0  0  0
   -0.1578    0.8068    1.2187 O   0  0  0  0  0  0  0  0  0  0  0  0
   -0.0500    1.4890    0.0143 O   0  0  0  0  0  0  0  0  0  0  0  0
   -0.9688    1.5943   -0.2600 H   0  0  0  0  0  0  0  0  0  0  0  0
  1  2  1  0
  1  4  1  0
  1  5  1  0
  2  6  1  0
  3  7  1  0
  7  8  1  0
  8  9  1  0
M  RAD  1   1   2
M  END
>  <reaction>  (4) 
rxn_197

>  <mol_properties>  (4) 
{"0": {"label": "*3", "atom_type": "Cs"}, "1": {"label": "*4", "atom_type": "O2s"}, "2": {"label": "*2", "atom_type": "H0"}, "6": {"label": "*1", "atom_type": "O2s"}, "7": {"label": "*0", "atom_type": "O2s"}}

>  <type>  (4) 
ts

$$$$

     RDKit          3D

  9  7  0  0  0  0  0  0  0  0999 V2000
    0.3012   -1.1592   -0.3282 C   0  0  0  0  0  3  0  0  0  0  0  0
    0.3012   -1.1592   -1.7386 O   0  0  0  0  0  0  0  0  0  0  0  0
    0.3012    0.0581    0.1695 H   0  0  0  0  0  0  0  0  0  0  0  0
   -0.6133   -1.6575   -0.0090 H   0  0  0  0  0  0  0  0  0  0  0  0
    1.1536   -1.7092    0.0866 H   0  0  0  0  0  0  0  0  0  0  0  0
    1.0971   -0.7255   -2.0458 H   0  0  0  0  0  0  0  0  0  0  0  0
    0.3012    1.1274    0.6067 O   0  0  0  0  0  0  0  0  0  0  0  0
   -0.9091    1.1192    1.3582 O   0  0  0  0  0  0  0  0  0  0  0  0
   -0.6561    0.5799    2.1144 H   0  0  0  0  0  0  0  0  0  0  0  0
  1  2  1  0
  1  4  1  0
  1  5  1  0
  2  6  1  0
  3  7  1  0
  7  8  1  0
  8  9  1  0
M  RAD  1   1   2
M  END
>  <reaction>  (5) 
rxn_197

>  <mol_properties>  (5) 
{"0": {"label": "*3", "atom_type": "Cs"}, "1": {"label": "*4", "atom_type": "O2s"}, "2": {"label": "*2", "atom_type": "H0"}, "6": {"label": "*1", "atom_type": "O2s"}, "7": {"label": "*0", "atom_type": "O2s"}}

>  <type>  (5) 
unop_1

>  <geom_source>  (5) 
Heuristics

$$$$

     RDKit          3D

  9  7  0  0  0  0  0  0  0  0999 V2000
    0.1853   -1.3559    0.1404 C   0  0  0  0  0  3  0  0  0  0  0  0
    0.1853   -1.3559   -1.2699 O   0  0  0  0  0  0  0  0  0  0  0  0
    0.1853   -0.1385    0.6382 H   0  0  0  0  0  0  0  0  0  0  0  0
   -0.7291   -1.8541    0.4596 H   0  0  0  0  0  0  0  0  0  0  0  0
    1.0377   -1.9059    0.5552 H   0  0  0  0  0  0  0  0  0  0  0  0
    0.9812   -0.9222   -1.5772 H   0  0  0  0  0  0  0  0  0  0  0  0
    0.1853    0.9307    1.0753 O   0  0  0  0  0  0  0  0  0  0  0  0
   -0.5134    1.6450    0.0598 O   0  0  0  0  0  0  0  0  0  0  0  0
   -1.4164    1.6058    0.3912 H   0  0  0  0  0  0  0  0  0  0  0  0
  1  2  1  0
  1  4  1  0
  1  5  1  0
  2  6  1  0
  3  7  1  0
  7  8  1  0
  8  9  1  0
M  RAD  1   1   2
M  END
>  <reaction>  (6) 
rxn_197

>  <mol_properties>  (6) 
{"0": {"label": "*3", "atom_type": "Cs"}, "1": {"label": "*4", "atom_type": "O2s"}, "2": {"label": "*2", "atom_type": "H0"}, "6": {"label": "*1", "atom_type": "O2s"}, "7": {"label": "*0", "atom_type": "O2s"}}

>  <type>  (6) 
unop_2

>  <geom_source>  (6) 
Heuristics

$$$$

     RDKit          3D

  9  7  0  0  0  0  0  0  0  0999 V2000
    0.1602   -1.1130   -0.4494 C   0  0  0  0  0  3  0  0  0  0  0  0
    0.1602   -1.1130   -1.8597 O   0  0  0  0  0  0  0  0  0  0  0  0
    0.1602    0.1043    0.0483 H   0  0  0  0  0  0  0  0  0  0  0  0
   -0.7543   -1.6113   -0.1302 H   0  0  0  0  0  0  0  0  0  0  0  0
    1.0126   -1.6630   -0.0346 H   0  0  0  0  0  0  0  0  0  0  0  0
    0.9561   -0.6793   -2.1670 H   0  0  0  0  0  0  0  0  0  0  0  0
    0.1602    1.1736    0.4855 O   0  0  0  0  0  0  0  0  0  0  0  0
   -0.5386    0.9718    1.7105 O   0  0  0  0  0  0  0  0  0  0  0  0
    0.1813    0.7170    2.2967 H   0  0  0  0  0  0  0  0  0  0  0  0
  1  2  1  0
  1  4  1  0
  1  5  1  0
  2  6  1  0
  3  7  1  0
  7  8  1  0
  8  9  1  0
M  RAD  1   1   2
M  END
>  <reaction>  (7) 
rxn_197

>  <mol_properties>  (7) 
{"0": {"label": "*3", "atom_type": "Cs"}, "1": {"label": "*4", "atom_type": "O2s"}, "2": {"label": "*2", "atom_type": "H0"}, "6": {"label": "*1", "atom_type": "O2s"}, "7": {"label": "*0", "atom_type": "O2s"}}

>  <type>  (7) 
unop_3

>  <geom_source>  (7) 
Heuristics

$$$$

     RDKit          3D

  9  7  0  0  0  0  0  0  0  0999 V2000
   -0.3245   -1.3203    0.0230 C   0  0  0  0  0  3  0  0  0  0  0  0
   -0.3245   -1.3203   -1.3874 O   0  0  0  0  0  0  0  0  0  0  0  0
   -0.3245   -0.1030    0.5207 H   0  0  0  0  0  0  0  0  0  0  0  0
   -1.2389   -1.8186    0.3422 H   0  0  0  0  0  0  0  0  0  0  0  0
    0.5280   -1.8703    0.4378 H   0  0  0  0  0  0  0  0  0  0  0  0
    0.4714   -0.8867   -1.6946 H   0  0  0  0  0  0  0  0  0  0  0  0
   -0.3245    0.9662    0.9579 O   0  0  0  0  0  0  0  0  0  0  0  0
    0.8858    1.4869    0.4159 O   0  0  0  0  0  0  0  0  0  0  0  0
    0.6677    2.4210    0.3346 H   0  0  0  0  0  0  0  0  0  0  0  0
  1  2  1  0
  1  4  1  0
  1  5  1  0
  2  6  1  0
  3  7  1  0
  7  8  1  0
  8  9  1  0
M  RAD  1   1   2
M  END
>  <reaction>  (8) 
rxn_197

>  <mol_properties>  (8) 
{"0": {"label": "*3", "atom_type": "Cs"}, "1": {"label": "*4", "atom_type": "O2s"}, "2": {"label": "*2", "atom_type": "H0"}, "6": {"label": "*1", "atom_type": "O2s"}, "7": {"label": "*0", "atom_type": "O2s"}}

>  <type>  (8) 
unop_4

>  <geom_source>  (8) 
Heuristics

$$$$

     RDKit          3D

  9  7  0  0  0  0  0  0  0  0999 V2000
   -0.0247   -1.1038   -0.4896 C   0  0  0  0  0  3  0  0  0  0  0  0
   -0.0247   -1.1038   -1.9000 O   0  0  0  0  0  0  0  0  0  0  0  0
   -0.0247    0.1136    0.0081 H   0  0  0  0  0  0  0  0  0  0  0  0
   -0.9392   -1.6020   -0.1704 H   0  0  0  0  0  0  0  0  0  0  0  0
    0.8277   -1.6538   -0.0748 H   0  0  0  0  0  0  0  0  0  0  0  0
    0.7712   -0.6701   -2.2072 H   0  0  0  0  0  0  0  0  0  0  0  0
   -0.0247    1.1828    0.4453 O   0  0  0  0  0  0  0  0  0  0  0  0
   -0.0247    0.9102    1.8436 O   0  0  0  0  0  0  0  0  0  0  0  0
    0.8360    1.2555    2.1015 H   0  0  0  0  0  0  0  0  0  0  0  0
  1  2  1  0
  1  4  1  0
  1  5  1  0
  2  6  1  0
  3  7  1  0
  7  8  1  0
  8  9  1  0
M  RAD  1   1   2
M  END
>  <reaction>  (9) 
rxn_197

>  <mol_properties>  (9) 
{"0": {"label": "*3", "atom_type": "Cs"}, "1": {"label": "*4", "atom_type": "O2s"}, "2": {"label": "*2", "atom_type": "H0"}, "6": {"label": "*1", "atom_type": "O2s"}, "7": {"label": "*0", "atom_type": "O2s"}}

>  <type>  (9) 
unop_5

>  <geom_source>  (9) 
Heuristics

$$$$

     RDKit          3D

  9  7  0  0  0  0  0  0  0  0999 V2000
   -0.3771   -1.2516   -0.1470 C   0  0  0  0  0  3  0  0  0  0  0  0
   -0.3771   -1.2516   -1.5573 O   0  0  0  0  0  0  0  0  0  0  0  0
   -0.3771   -0.0343    0.3508 H   0  0  0  0  0  0  0  0  0  0  0  0
   -1.2915   -1.7499    0.1722 H   0  0  0  0  0  0  0  0  0  0  0  0
    0.4754   -1.8016    0.2678 H   0  0  0  0  0  0  0  0  0  0  0  0
    0.4188   -0.8180   -1.8646 H   0  0  0  0  0  0  0  0  0  0  0  0
   -0.3771    1.0349    0.7879 O   0  0  0  0  0  0  0  0  0  0  0  0
    1.0205    1.2912    0.8927 O   0  0  0  0  0  0  0  0  0  0  0  0
    1.0367    2.2533    0.8664 H   0  0  0  0  0  0  0  0  0  0  0  0
  1  2  1  0
  1  4  1  0
  1  5  1  0
  2  6  1  0
  3  7  1  0
  7  8  1  0
  8  9  1  0
M  RAD  1   1   2
M  END
>  <reaction>  (10) 
rxn_197

>  <mol_properties>  (10) 
{"0": {"label": "*3", "atom_type": "Cs"}, "1": {"label": "*4", "atom_type": "O2s"}, "2": {"label": "*2", "atom_type": "H0"}, "6": {"label": "*1", "atom_type": "O2s"}, "7": {"label": "*0", "atom_type": "O2s"}}

>  <type>  (10) 
unop_6

>  <geom_source>  (10) 
Heuristics

$$$$

     RDKit          3D

  9  7  0  0  0  0  0  0  0  0999 V2000
   -0.3313   -1.1821   -0.3166 C   0  0  0  0  0  3  0  0  0  0  0  0
   -0.3313   -1.1821   -1.7270 O   0  0  0  0  0  0  0  0  0  0  0  0
   -0.3313    0.0353    0.1811 H   0  0  0  0  0  0  0  0  0  0  0  0
   -1.2458   -1.6803    0.0026 H   0  0  0  0  0  0  0  0  0  0  0  0
    0.5211   -1.7321    0.0982 H   0  0  0  0  0  0  0  0  0  0  0  0
    0.4646   -0.7484   -2.0342 H   0  0  0  0  0  0  0  0  0  0  0  0
   -0.3313    1.1045    0.6183 O   0  0  0  0  0  0  0  0  0  0  0  0
    0.8790    1.0963    1.3698 O   0  0  0  0  0  0  0  0  0  0  0  0
    1.1005    2.0330    1.3779 H   0  0  0  0  0  0  0  0  0  0  0  0
  1  2  1  0
  1  4  1  0
  1  5  1  0
  2  6  1  0
  3  7  1  0
  7  8  1  0
  8  9  1  0
M  RAD  1   1   2
M  END
>  <reaction>  (11) 
rxn_197

>  <mol_properties>  (11) 
{"0": {"label": "*3", "atom_type": "Cs"}, "1": {"label": "*4", "atom_type": "O2s"}, "2": {"label": "*2", "atom_type": "H0"}, "6": {"label": "*1", "atom_type": "O2s"}, "7": {"label": "*0", "atom_type": "O2s"}}

>  <type>  (11) 
unop_7

>  <geom_source>  (11) 
Heuristics

$$$$

     RDKit          3D

  9  7  0  0  0  0  0  0  0  0999 V2000
    0.3577   -1.2280   -0.1589 C   0  0  0  0  0  3  0  0  0  0  0  0
    0.3577   -1.2280   -1.5693 O   0  0  0  0  0  0  0  0  0  0  0  0
    0.3577   -0.0107    0.3388 H   0  0  0  0  0  0  0  0  0  0  0  0
   -0.5567   -1.7263    0.1602 H   0  0  0  0  0  0  0  0  0  0  0  0
    1.2101   -1.7780    0.2559 H   0  0  0  0  0  0  0  0  0  0  0  0
    1.1536   -0.7944   -1.8765 H   0  0  0  0  0  0  0  0  0  0  0  0
    0.3577    1.0585    0.7760 O   0  0  0  0  0  0  0  0  0  0  0  0
   -1.0398    1.3148    0.8807 O   0  0  0  0  0  0  0  0  0  0  0  0
   -1.2774    0.7542    1.6263 H   0  0  0  0  0  0  0  0  0  0  0  0
  1  2  1  0
  1  4  1  0
  1  5  1  0
  2  6  1  0
  3  7  1  0
  7  8  1  0
  8  9  1  0
M  RAD  1   1   2
M  END
>  <reaction>  (12) 
rxn_197

>  <mol_properties>  (12) 
{"0": {"label": "*3", "atom_type": "Cs"}, "1": {"label": "*4", "atom_type": "O2s"}, "2": {"label": "*2", "atom_type": "H0"}, "6": {"label": "*1", "atom_type": "O2s"}, "7": {"label": "*0", "atom_type": "O2s"}}

>  <type>  (12) 
unop_8

>  <geom_source>  (12) 
Heuristics

$$$$

     RDKit          3D

  9  7  0  0  0  0  0  0  0  0999 V2000
   -0.1856   -1.3687    0.1469 C   0  0  0  0  0  3  0  0  0  0  0  0
   -0.1856   -1.3687   -1.2635 O   0  0  0  0  0  0  0  0  0  0  0  0
   -0.1856   -0.1513    0.6446 H   0  0  0  0  0  0  0  0  0  0  0  0
   -1.1001   -1.8669    0.4661 H   0  0  0  0  0  0  0  0  0  0  0  0
    0.6668   -1.9187    0.5617 H   0  0  0  0  0  0  0  0  0  0  0  0
    0.6103   -0.9350   -1.5707 H   0  0  0  0  0  0  0  0  0  0  0  0
   -0.1856    0.9179    1.0818 O   0  0  0  0  0  0  0  0  0  0  0  0
    0.5132    1.6322    0.0663 O   0  0  0  0  0  0  0  0  0  0  0  0
   -0.0355    2.4183   -0.0207 H   0  0  0  0  0  0  0  0  0  0  0  0
  1  2  1  0
  1  4  1  0
  1  5  1  0
  2  6  1  0
  3  7  1  0
  7  8  1  0
  8  9  1  0
M  RAD  1   1   2
M  END
>  <reaction>  (13) 
rxn_197

>  <mol_properties>  (13) 
{"0": {"label": "*3", "atom_type": "Cs"}, "1": {"label": "*4", "atom_type": "O2s"}, "2": {"label": "*2", "atom_type": "H0"}, "6": {"label": "*1", "atom_type": "O2s"}, "7": {"label": "*0", "atom_type": "O2s"}}

>  <type>  (13) 
unop_9

>  <geom_source>  (13) 
Heuristics

$$$$

     RDKit          3D

  9  7  0  0  0  0  0  0  0  0999 V2000
    0.3152   -1.2998    0.0126 C   0  0  0  0  0  3  0  0  0  0  0  0
    0.3152   -1.2998   -1.3978 O   0  0  0  0  0  0  0  0  0  0  0  0
    0.3152   -0.0825    0.5103 H   0  0  0  0  0  0  0  0  0  0  0  0
   -0.5993   -1.7981    0.3318 H   0  0  0  0  0  0  0  0  0  0  0  0
    1.1676   -1.8498    0.4274 H   0  0  0  0  0  0  0  0  0  0  0  0
    1.1111   -0.8661   -1.7050 H   0  0  0  0  0  0  0  0  0  0  0  0
    0.3152    0.9868    0.9475 O   0  0  0  0  0  0  0  0  0  0  0  0
   -0.8951    1.5075    0.4055 O   0  0  0  0  0  0  0  0  0  0  0  0
   -1.5476    1.1169    0.9956 H   0  0  0  0  0  0  0  0  0  0  0  0
  1  2  1  0
  1  4  1  0
  1  5  1  0
  2  6  1  0
  3  7  1  0
  7  8  1  0
  8  9  1  0
M  RAD  1   1   2
M  END
>  <reaction>  (14) 
rxn_197

>  <mol_properties>  (14) 
{"0": {"label": "*3", "atom_type": "Cs"}, "1": {"label": "*4", "atom_type": "O2s"}, "2": {"label": "*2", "atom_type": "H0"}, "6": {"label": "*1", "atom_type": "O2s"}, "7": {"label": "*0", "atom_type": "O2s"}}

>  <type>  (14) 
unop_10

>  <geom_source>  (14) 
Heuristics

$$$$

     RDKit          3D

  9  7  0  0  0  0  0  0  0  0999 V2000
   -0.2023   -1.1294   -0.4411 C   0  0  0  0  0  3  0  0  0  0  0  0
   -0.2023   -1.1294   -1.8514 O   0  0  0  0  0  0  0  0  0  0  0  0
   -0.2023    0.0879    0.0567 H   0  0  0  0  0  0  0  0  0  0  0  0
   -1.1167   -1.6277   -0.1219 H   0  0  0  0  0  0  0  0  0  0  0  0
    0.6502   -1.6794   -0.0263 H   0  0  0  0  0  0  0  0  0  0  0  0
    0.5936   -0.6957   -2.1587 H   0  0  0  0  0  0  0  0  0  0  0  0
   -0.2023    1.1572    0.4938 O   0  0  0  0  0  0  0  0  0  0  0  0
    0.4965    0.9554    1.7189 O   0  0  0  0  0  0  0  0  0  0  0  0
    1.0234    1.7595    1.7683 H   0  0  0  0  0  0  0  0  0  0  0  0
  1  2  1  0
  1  4  1  0
  1  5  1  0
  2  6  1  0
  3  7  1  0
  7  8  1  0
  8  9  1  0
M  RAD  1   1   2
M  END
>  <reaction>  (15) 
rxn_197

>  <mol_properties>  (15) 
{"0": {"label": "*3", "atom_type": "Cs"}, "1": {"label": "*4", "atom_type": "O2s"}, "2": {"label": "*2", "atom_type": "H0"}, "6": {"label": "*1", "atom_type": "O2s"}, "7": {"label": "*0", "atom_type": "O2s"}}

>  <type>  (15) 
unop_11

>  <geom_source>  (15) 
Heuristics

$$$$

     RDKit          3D

  9  7  0  0  0  0  0  0  0  0999 V2000
    0.0020   -1.3816    0.1900 C   0  0  0  0  0  3  0  0  0  0  0  0
    0.0020   -1.3816   -1.2204 O   0  0  0  0  0  0  0  0  0  0  0  0
    0.0020   -0.1643    0.6877 H   0  0  0  0  0  0  0  0  0  0  0  0
   -0.9125   -1.8799    0.5091 H   0  0  0  0  0  0  0  0  0  0  0  0
    0.8544   -1.9316    0.6048 H   0  0  0  0  0  0  0  0  0  0  0  0
    0.7979   -0.9480   -1.5276 H   0  0  0  0  0  0  0  0  0  0  0  0
    0.0020    0.9049    1.1249 O   0  0  0  0  0  0  0  0  0  0  0  0
    0.0020    1.6901   -0.0639 O   0  0  0  0  0  0  0  0  0  0  0  0
   -0.8588    2.1172   -0.0060 H   0  0  0  0  0  0  0  0  0  0  0  0
  1  2  1  0
  1  4  1  0
  1  5  1  0
  2  6  1  0
  3  7  1  0
  7  8  1  0
  8  9  1  0
M  RAD  1   1   2
M  END
>  <reaction>  (16) 
rxn_197

>  <mol_properties>  (16) 
{"0": {"label": "*3", "atom_type": "Cs"}, "1": {"label": "*4", "atom_type": "O2s"}, "2": {"label": "*2", "atom_type": "H0"}, "6": {"label": "*1", "atom_type": "O2s"}, "7": {"label": "*0", "atom_type": "O2s"}}

>  <type>  (16) 
unop_12

>  <geom_source>  (16) 
Heuristics

$$$$

     RDKit          3D

  9  7  0  0  0  0  0  0  0  0999 V2000
   -1.6952   -0.8563   -0.1587 O   0  0  0  0  0  0  0  0  0  0  0  0
    2.1661   -0.2133    0.5529 O   0  0  0  0  0  0  0  0  0  0  0  0
    1.4238    0.7939    0.1441 O   0  0  0  0  0  1  0  0  0  0  0  0
   -0.8836    0.2760   -0.2181 C   0  0  0  0  0  0  0  0  0  0  0  0
   -0.5540    0.4398   -1.2648 H   0  0  0  0  0  0  0  0  0  0  0  0
   -1.4542    1.1623    0.1303 H   0  0  0  0  0  0  0  0  0  0  0  0
   -1.5118   -1.2503    0.7315 H   0  0  0  0  0  0  0  0  0  0  0  0
    2.3393   -0.7440   -0.2653 H   0  0  0  0  0  0  0  0  0  0  0  0
    0.1697    0.3920    0.3481 H   0  0  0  0  0  0  0  0  0  0  0  0
  1  4  1  0
  1  7  1  0
  2  3  1  0
  2  8  1  0
  4  5  1  0
  4  6  1  0
  4  9  1  0
M  RAD  1   3   2
M  END
>  <reaction>  (17) 
rxn_197

>  <mol_properties>  (17) 
{"0": {"label": "*3", "atom_type": "Cs"}, "1": {"label": "*4", "atom_type": "O2s"}, "2": {"label": "*2", "atom_type": "H0"}, "6": {"label": "*1", "atom_type": "O2s"}, "7": {"label": "*0", "atom_type": "O2s"}}

>  <type>  (17) 
unop_13

>  <geom_source>  (17) 
AutoTST

$$$$
