
     RDKit          3D

 22 23  0  0  0  0  0  0  0  0999 V2000
   -2.1093   -0.3263    0.3079 C   0  0  0  0  0  0  0  0  0  0  0  0
   -1.3270    0.9803    0.4115 C   0  0  0  0  0  0  0  0  0  0  0  0
   -0.1818    0.8289   -0.6044 C   0  0  0  0  0  0  0  0  0  0  0  0
    1.1682    1.3904   -0.1341 C   0  0  0  0  0  0  0  0  0  0  0  0
    1.8508    0.2041    0.5479 C   0  0  0  0  0  0  0  0  0  0  0  0
    1.4982   -0.9663   -0.3710 C   0  0  0  0  0  0  0  0  0  0  0  0
    0.0340   -0.7124   -0.7594 C   0  0  0  0  0  0  0  0  0  0  0  0
   -0.9986   -1.3650    0.1756 C   0  0  0  0  0  0  0  0  0  0  0  0
   -2.7686   -0.5042    1.1589 H   0  0  0  0  0  0  0  0  0  0  0  0
   -2.7285   -0.3223   -0.5943 H   0  0  0  0  0  0  0  0  0  0  0  0
   -1.9339    1.8682    0.2289 H   0  0  0  0  0  0  0  0  0  0  0  0
   -0.9144    1.0729    1.4218 H   0  0  0  0  0  0  0  0  0  0  0  0
   -0.4804    1.2763   -1.5535 H   0  0  0  0  0  0  0  0  0  0  0  0
    1.7667    1.7058   -0.9931 H   0  0  0  0  0  0  0  0  0  0  0  0
    1.0540    2.2578    0.5189 H   0  0  0  0  0  0  0  0  0  0  0  0
    1.4197    0.0438    1.5410 H   0  0  0  0  0  0  0  0  0  0  0  0
    2.9248    0.3413    0.6788 H   0  0  0  0  0  0  0  0  0  0  0  0
    2.1362   -0.9329   -1.2584 H   0  0  0  0  0  0  0  0  0  0  0  0
    1.6421   -1.9421    0.0966 H   0  0  0  0  0  0  0  0  0  0  0  0
   -0.1575   -1.0299   -1.7854 H   0  0  0  0  0  0  0  0  0  0  0  0
   -1.3459   -2.3310   -0.1933 H   0  0  0  0  0  0  0  0  0  0  0  0
   -0.5489   -1.5373    1.1593 H   0  0  0  0  0  0  0  0  0  0  0  0
  1  2  1  0
  1  8  1  0
  1  9  1  0
  1 10  1  0
  2  3  1  0
  2 11  1  0
  2 12  1  0
  3  4  1  0
  3  7  1  0
  3 13  1  0
  4  5  1  0
  4 14  1  0
  4 15  1  0
  5  6  1  0
  5 16  1  0
  5 17  1  0
  6  7  1  0
  6 18  1  0
  6 19  1  0
  7  8  1  0
  7 20  1  0
  8 21  1  0
  8 22  1  0
M  END
>  <reaction>  (1) 
rxn_571

>  <mol_properties>  (1) 
{"2": {"label": "donator", "atom_type": "Cs"}, "12": {"label": "d_hydrogen", "atom_type": "H0"}}

>  <type>  (1) 
r1h

$$$$

     RDKit          3D

 20 20  0  0  0  0  0  0  0  0999 V2000
   -2.4774    0.8083    0.1488 C   0  0  0  0  0  0  0  0  0  0  0  0
   -1.4172   -0.1696   -0.2476 C   0  0  0  0  0  3  0  0  0  0  0  0
   -0.2904    0.2932   -1.1156 C   0  0  0  0  0  0  0  0  0  0  0  0
   -1.4797   -1.5204    0.1947 C   0  0  0  0  0  0  0  0  0  0  0  0
   -0.4907   -2.4664   -0.1650 C   0  0  0  0  0  0  0  0  0  0  0  0
   -0.5559   -3.7750    0.2665 C   0  0  0  0  0  0  0  0  0  0  0  0
   -1.6038   -4.2041    1.0733 C   0  0  0  0  0  0  0  0  0  0  0  0
   -2.5899   -3.2959    1.4424 C   0  0  0  0  0  0  0  0  0  0  0  0
   -2.5339   -1.9852    1.0162 C   0  0  0  0  0  0  0  0  0  0  0  0
   -3.4697    0.4933   -0.1924 H   0  0  0  0  0  0  0  0  0  0  0  0
   -2.5434    0.9184    1.2368 H   0  0  0  0  0  0  0  0  0  0  0  0
   -2.2829    1.7944   -0.2706 H   0  0  0  0  0  0  0  0  0  0  0  0
   -0.2452   -0.2661   -2.0565 H   0  0  0  0  0  0  0  0  0  0  0  0
   -0.3905    1.3487   -1.3647 H   0  0  0  0  0  0  0  0  0  0  0  0
    0.6811    0.1589   -0.6274 H   0  0  0  0  0  0  0  0  0  0  0  0
    0.3373   -2.1635   -0.7918 H   0  0  0  0  0  0  0  0  0  0  0  0
    0.2187   -4.4725   -0.0281 H   0  0  0  0  0  0  0  0  0  0  0  0
   -1.6513   -5.2316    1.4097 H   0  0  0  0  0  0  0  0  0  0  0  0
   -3.4116   -3.6175    2.0706 H   0  0  0  0  0  0  0  0  0  0  0  0
   -3.3164   -1.3029    1.3205 H   0  0  0  0  0  0  0  0  0  0  0  0
  1  2  1  0
  1 10  1  0
  1 11  1  0
  1 12  1  0
  2  3  1  0
  2  4  1  0
  3 13  1  0
  3 14  1  0
  3 15  1  0
  4  5  2  0
  4  9  1  0
  5  6  1  0
  5 16  1  0
  6  7  2  0
  6 17  1  0
  7  8  1  0
  7 18  1  0
  8  9  2  0
  8 19  1  0
  9 20  1  0
M  RAD  1   2   2
M  END
>  <reaction>  (2) 
rxn_571

>  <mol_properties>  (2) 
{"1": {"label": "acceptor", "atom_type": "Cs"}}

>  <type>  (2) 
r2

$$$$

     RDKit          3D

 21 21  0  0  0  0  0  0  0  0999 V2000
   -1.3695    1.3367   -1.0719 C   0  0  0  0  0  0  0  0  0  0  0  0
   -1.4091   -0.0981   -0.5428 C   0  0  0  0  0  0  0  0  0  0  0  0
   -0.1819   -0.3999    0.3191 C   0  0  0  0  0  0  0  0  0  0  0  0
   -1.5636   -1.1028   -1.6652 C   0  0  0  0  0  0  0  0  0  0  0  0
   -0.5920   -1.2314   -2.6553 C   0  0  0  0  0  0  0  0  0  0  0  0
   -0.7353   -2.1509   -3.6809 C   0  0  0  0  0  0  0  0  0  0  0  0
   -1.8582   -2.9642   -3.7377 C   0  0  0  0  0  0  0  0  0  0  0  0
   -2.8325   -2.8475   -2.7602 C   0  0  0  0  0  0  0  0  0  0  0  0
   -2.6828   -1.9241   -1.7351 C   0  0  0  0  0  0  0  0  0  0  0  0
   -0.4920    1.4974   -1.7025 H   0  0  0  0  0  0  0  0  0  0  0  0
   -2.2553    1.5607   -1.6679 H   0  0  0  0  0  0  0  0  0  0  0  0
   -1.3211    2.0496   -0.2461 H   0  0  0  0  0  0  0  0  0  0  0  0
   -2.2930   -0.1918    0.0948 H   0  0  0  0  0  0  0  0  0  0  0  0
   -0.1215    0.2955    1.1588 H   0  0  0  0  0  0  0  0  0  0  0  0
   -0.2200   -1.4155    0.7159 H   0  0  0  0  0  0  0  0  0  0  0  0
    0.7383   -0.3016   -0.2615 H   0  0  0  0  0  0  0  0  0  0  0  0
    0.2915   -0.6040   -2.6263 H   0  0  0  0  0  0  0  0  0  0  0  0
    0.0326   -2.2338   -4.4401 H   0  0  0  0  0  0  0  0  0  0  0  0
   -1.9712   -3.6833   -4.5391 H   0  0  0  0  0  0  0  0  0  0  0  0
   -3.7135   -3.4765   -2.7932 H   0  0  0  0  0  0  0  0  0  0  0  0
   -3.4509   -1.8400   -0.9743 H   0  0  0  0  0  0  0  0  0  0  0  0
  1  2  1  0
  1 10  1  0
  1 11  1  0
  1 12  1  0
  2  3  1  0
  2  4  1  0
  2 13  1  0
  3 14  1  0
  3 15  1  0
  3 16  1  0
  4  5  2  0
  4  9  1  0
  5  6  1  0
  5 17  1  0
  6  7  2  0
  6 18  1  0
  7  8  1  0
  7 19  1  0
  8  9  2  0
  8 20  1  0
  9 21  1  0
M  END
>  <reaction>  (3) 
rxn_571

>  <mol_properties>  (3) 
{"1": {"label": "acceptor", "atom_type": "Cs"}, "20": {"label": "a_hydrogen", "atom_type": "H0"}}

>  <type>  (3) 
r2h

$$$$

     RDKit          3D

 42 43  0  0  0  0  0  0  0  0999 V2000
   -0.5340   -0.8392    2.7249 C   0  0  0  0  0  0  0  0  0  0  0  0
   -0.8958   -0.0512    1.4815 C   0  0  0  0  0  0  0  0  0  0  0  0
   -1.5755    1.2667    1.8002 C   0  0  0  0  0  0  0  0  0  0  0  0
   -1.4681   -0.8302    0.3501 C   0  0  0  0  0  0  0  0  0  0  0  0
   -2.1479   -0.1988   -0.6979 C   0  0  0  0  0  0  0  0  0  0  0  0
   -2.5801   -0.9021   -1.8093 C   0  0  0  0  0  0  0  0  0  0  0  0
   -2.3514   -2.2657   -1.9113 C   0  0  0  0  0  0  0  0  0  0  0  0
   -1.6958   -2.9148   -0.8768 C   0  0  0  0  0  0  0  0  0  0  0  0
   -1.2647   -2.2096    0.2344 C   0  0  0  0  0  0  0  0  0  0  0  0
    0.2010   -1.6189    2.5203 H   0  0  0  0  0  0  0  0  0  0  0  0
   -0.0963   -0.1764    3.4728 H   0  0  0  0  0  0  0  0  0  0  0  0
   -1.4126   -1.3163    3.1715 H   0  0  0  0  0  0  0  0  0  0  0  0
   -2.6203    1.1197    2.0929 H   0  0  0  0  0  0  0  0  0  0  0  0
   -1.0636    1.7621    2.6266 H   0  0  0  0  0  0  0  0  0  0  0  0
   -1.5613    1.9576    0.9564 H   0  0  0  0  0  0  0  0  0  0  0  0
   -2.3418    0.8642   -0.6528 H   0  0  0  0  0  0  0  0  0  0  0  0
   -3.0994   -0.3785   -2.6026 H   0  0  0  0  0  0  0  0  0  0  0  0
   -2.6857   -2.8158   -2.7814 H   0  0  0  0  0  0  0  0  0  0  0  0
   -1.5166   -3.9815   -0.9332 H   0  0  0  0  0  0  0  0  0  0  0  0
   -0.7559   -2.7483    1.0219 H   0  0  0  0  0  0  0  0  0  0  0  0
    1.6586   -0.5484   -1.6079 C   0  0  0  0  0  0  0  0  0  0  0  0
    2.0373   -0.6089   -0.1249 C   0  0  0  0  0  0  0  0  0  0  0  0
    1.4771    0.6741    0.4590 C   0  0  0  0  0  3  0  0  0  0  0  0
    2.2565    1.4454    1.5032 C   0  0  0  0  0  0  0  0  0  0  0  0
    2.8707    2.6037    0.7040 C   0  0  0  0  0  0  0  0  0  0  0  0
    1.7647    2.9755   -0.2884 C   0  0  0  0  0  0  0  0  0  0  0  0
    1.1497    1.6281   -0.6964 C   0  0  0  0  0  0  0  0  0  0  0  0
    1.7580    0.9426   -1.9298 C   0  0  0  0  0  0  0  0  0  0  0  0
    2.2979   -1.1688   -2.2372 H   0  0  0  0  0  0  0  0  0  0  0  0
    0.6283   -0.8900   -1.7402 H   0  0  0  0  0  0  0  0  0  0  0  0
    1.6584   -1.5058    0.3718 H   0  0  0  0  0  0  0  0  0  0  0  0
    3.1290   -0.6214   -0.0119 H   0  0  0  0  0  0  0  0  0  0  0  0
    0.2463    0.3048    1.0159 H   0  0  0  0  0  0  0  0  0  0  0  0
    1.5849    1.8486    2.2699 H   0  0  0  0  0  0  0  0  0  0  0  0
    2.9989    0.8305    2.0150 H   0  0  0  0  0  0  0  0  0  0  0  0
    3.7518    2.2462    0.1631 H   0  0  0  0  0  0  0  0  0  0  0  0
    3.1875    3.4404    1.3283 H   0  0  0  0  0  0  0  0  0  0  0  0
    1.0150    3.5906    0.2168 H   0  0  0  0  0  0  0  0  0  0  0  0
    2.1307    3.5453   -1.1442 H   0  0  0  0  0  0  0  0  0  0  0  0
    0.0700    1.7187   -0.8466 H   0  0  0  0  0  0  0  0  0  0  0  0
    1.2552    1.2199   -2.8573 H   0  0  0  0  0  0  0  0  0  0  0  0
    2.8109    1.2292   -2.0267 H   0  0  0  0  0  0  0  0  0  0  0  0
  1  2  1  0
  1 10  1  0
  1 11  1  0
  1 12  1  0
  2  3  1  0
  2  4  1  0
  2 33  1  0
  3 13  1  0
  3 14  1  0
  3 15  1  0
  4  5  2  0
  4  9  1  0
  5  6  1  0
  5 16  1  0
  6  7  2  0
  6 17  1  0
  7  8  1  0
  7 18  1  0
  8  9  2  0
  8 19  1  0
  9 20  1  0
 21 28  1  0
 21 22  1  0
 21 29  1  0
 21 30  1  0
 22 23  1  0
 22 31  1  0
 22 32  1  0
 23 24  1  0
 23 27  1  0
 24 25  1  0
 24 34  1  0
 24 35  1  0
 25 26  1  0
 25 36  1  0
 25 37  1  0
 26 27  1  0
 26 38  1  0
 26 39  1  0
 27 28  1  0
 27 40  1  0
 28 41  1  0
 28 42  1  0
M  RAD  1  23   2
M  END
>  <reaction>  (4) 
rxn_571

>  <mol_properties>  (4) 
{"1": {"label": "*1", "atom_type": "Cs"}, "3": {"label": "*0", "atom_type": "Cd"}, "22": {"label": "*3", "atom_type": "Cs"}, "26": {"label": "*4", "atom_type": "Cs"}, "32": {"label": "*2", "atom_type": "H0"}}

>  <type>  (4) 
ts

$$$$

     RDKit          3D

 42 43  0  0  0  0  0  0  0  0999 V2000
   -1.3313    0.2672    2.2259 C   0  0  0  0  0  0  0  0  0  0  0  0
   -0.9353   -0.0423    0.7812 C   0  0  0  0  0  3  0  0  0  0  0  0
   -1.1344    1.1798   -0.1170 C   0  0  0  0  0  0  0  0  0  0  0  0
   -1.6720   -1.2531    0.2477 C   0  0  0  0  0  0  0  0  0  0  0  0
   -3.0601   -1.2569    0.1295 C   0  0  0  0  0  0  0  0  0  0  0  0
   -3.7319   -2.3652   -0.3586 C   0  0  0  0  0  0  0  0  0  0  0  0
   -3.0261   -3.4974   -0.7403 C   0  0  0  0  0  0  0  0  0  0  0  0
   -1.6457   -3.5080   -0.6284 C   0  0  0  0  0  0  0  0  0  0  0  0
   -0.9786   -2.3941   -0.1385 C   0  0  0  0  0  0  0  0  0  0  0  0
   -1.1683   -0.5965    2.8721 H   0  0  0  0  0  0  0  0  0  0  0  0
   -0.7455    1.1029    2.6143 H   0  0  0  0  0  0  0  0  0  0  0  0
   -2.3868    0.5408    2.2926 H   0  0  0  0  0  0  0  0  0  0  0  0
   -2.1829    1.4862   -0.1346 H   0  0  0  0  0  0  0  0  0  0  0  0
   -0.5467    2.0247    0.2478 H   0  0  0  0  0  0  0  0  0  0  0  0
   -0.8309    0.9674   -1.1432 H   0  0  0  0  0  0  0  0  0  0  0  0
   -3.6272   -0.3809    0.4231 H   0  0  0  0  0  0  0  0  0  0  0  0
   -4.8116   -2.3461   -0.4419 H   0  0  0  0  0  0  0  0  0  0  0  0
   -3.5504   -4.3643   -1.1220 H   0  0  0  0  0  0  0  0  0  0  0  0
   -1.0834   -4.3855   -0.9229 H   0  0  0  0  0  0  0  0  0  0  0  0
    0.1024   -2.4118   -0.0546 H   0  0  0  0  0  0  0  0  0  0  0  0
    2.4214   -0.1831   -1.5315 C   0  0  0  0  0  0  0  0  0  0  0  0
    2.4214   -0.1831   -0.0051 C   0  0  0  0  0  0  0  0  0  0  0  0
    1.4580    0.9517    0.3833 C   0  0  0  0  0  0  0  0  0  0  0  0
    1.9108    1.7902    1.5877 C   0  0  0  0  0  0  0  0  0  0  0  0
    2.7228    2.9284    0.9683 C   0  0  0  0  0  0  0  0  0  0  0  0
    1.9108    3.2880   -0.2766 C   0  0  0  0  0  0  0  0  0  0  0  0
    1.4580    1.9312   -0.8359 C   0  0  0  0  0  0  0  0  0  0  0  0
    2.4214    1.3075   -1.8604 C   0  0  0  0  0  0  0  0  0  0  0  0
    3.2662   -0.7213   -1.9639 H   0  0  0  0  0  0  0  0  0  0  0  0
    1.5055   -0.6499   -1.9066 H   0  0  0  0  0  0  0  0  0  0  0  0
    2.1371   -1.1414    0.4315 H   0  0  0  0  0  0  0  0  0  0  0  0
    3.4295    0.0495    0.3542 H   0  0  0  0  0  0  0  0  0  0  0  0
    0.2630    0.4553    0.5820 H   0  0  0  0  0  0  0  0  0  0  0  0
    1.0430    2.2070    2.1062 H   0  0  0  0  0  0  0  0  0  0  0  0
    2.4739    1.2035    2.3160 H   0  0  0  0  0  0  0  0  0  0  0  0
    3.7139    2.5666    0.6776 H   0  0  0  0  0  0  0  0  0  0  0  0
    2.8707    3.7707    1.6451 H   0  0  0  0  0  0  0  0  0  0  0  0
    1.0430    3.8841    0.0188 H   0  0  0  0  0  0  0  0  0  0  0  0
    2.4739    3.8728   -1.0064 H   0  0  0  0  0  0  0  0  0  0  0  0
    0.4622    2.0038   -1.2755 H   0  0  0  0  0  0  0  0  0  0  0  0
    2.1371    1.5274   -2.8903 H   0  0  0  0  0  0  0  0  0  0  0  0
    3.4295    1.7085   -1.7107 H   0  0  0  0  0  0  0  0  0  0  0  0
  1  2  1  0
  1 10  1  0
  1 11  1  0
  1 12  1  0
  2  3  1  0
  2  4  1  0
  3 13  1  0
  3 14  1  0
  3 15  1  0
  4  5  2  0
  4  9  1  0
  5  6  1  0
  5 16  1  0
  6  7  2  0
  6 17  1  0
  7  8  1  0
  7 18  1  0
  8  9  2  0
  8 19  1  0
  9 20  1  0
 21 22  1  0
 21 28  1  0
 21 29  1  0
 21 30  1  0
 22 23  1  0
 22 31  1  0
 22 32  1  0
 23 24  1  0
 23 27  1  0
 23 33  1  0
 24 25  1  0
 24 34  1  0
 24 35  1  0
 25 26  1  0
 25 36  1  0
 25 37  1  0
 26 27  1  0
 26 38  1  0
 26 39  1  0
 27 28  1  0
 27 40  1  0
 28 41  1  0
 28 42  1  0
M  RAD  1   2   2
M  END
>  <reaction>  (5) 
rxn_571

>  <mol_properties>  (5) 
{"1": {"label": "*1", "atom_type": "Cs"}, "3": {"label": "*0", "atom_type": "Cd"}, "22": {"label": "*3", "atom_type": "Cs"}, "26": {"label": "*4", "atom_type": "Cs"}, "32": {"label": "*2", "atom_type": "H0"}}

>  <type>  (5) 
unop_1

>  <geom_source>  (5) 
Heuristics

$$$$

     RDKit          3D

 42 43  0  0  0  0  0  0  0  0999 V2000
   -0.5746   -2.1951    1.5530 C   0  0  0  0  0  0  0  0  0  0  0  0
   -0.7463   -0.7607    1.0500 C   0  0  0  0  0  3  0  0  0  0  0  0
   -1.0110    0.2004    2.2102 C   0  0  0  0  0  0  0  0  0  0  0  0
   -1.8237   -0.6662   -0.0100 C   0  0  0  0  0  0  0  0  0  0  0  0
   -3.1483   -0.9868    0.2791 C   0  0  0  0  0  0  0  0  0  0  0  0
   -4.1321   -0.8996   -0.6917 C   0  0  0  0  0  0  0  0  0  0  0  0
   -3.8100   -0.4883   -1.9772 C   0  0  0  0  0  0  0  0  0  0  0  0
   -2.4972   -0.1663   -2.2793 C   0  0  0  0  0  0  0  0  0  0  0  0
   -1.5161   -0.2557   -1.3018 C   0  0  0  0  0  0  0  0  0  0  0  0
   -0.3631   -2.8782    0.7291 H   0  0  0  0  0  0  0  0  0  0  0  0
    0.2473   -2.2553    2.2694 H   0  0  0  0  0  0  0  0  0  0  0  0
   -1.4799   -2.5453    2.0544 H   0  0  0  0  0  0  0  0  0  0  0  0
   -1.9319   -0.0636    2.7352 H   0  0  0  0  0  0  0  0  0  0  0  0
   -0.1935    0.1644    2.9333 H   0  0  0  0  0  0  0  0  0  0  0  0
   -1.1110    1.2272    1.8554 H   0  0  0  0  0  0  0  0  0  0  0  0
   -3.4176   -1.3099    1.2782 H   0  0  0  0  0  0  0  0  0  0  0  0
   -5.1555   -1.1538   -0.4446 H   0  0  0  0  0  0  0  0  0  0  0  0
   -4.5783   -0.4198   -2.7368 H   0  0  0  0  0  0  0  0  0  0  0  0
   -2.2329    0.1561   -3.2788 H   0  0  0  0  0  0  0  0  0  0  0  0
   -0.4911   -0.0015   -1.5477 H   0  0  0  0  0  0  0  0  0  0  0  0
    2.6103   -0.9015   -1.2627 C   0  0  0  0  0  0  0  0  0  0  0  0
    2.6103   -0.9015    0.2638 C   0  0  0  0  0  0  0  0  0  0  0  0
    1.6470    0.2333    0.6521 C   0  0  0  0  0  0  0  0  0  0  0  0
    2.0997    1.0719    1.8566 C   0  0  0  0  0  0  0  0  0  0  0  0
    2.9117    2.2100    1.2372 C   0  0  0  0  0  0  0  0  0  0  0  0
    2.0997    2.5697   -0.0077 C   0  0  0  0  0  0  0  0  0  0  0  0
    1.6470    1.2128   -0.5671 C   0  0  0  0  0  0  0  0  0  0  0  0
    2.6103    0.5891   -1.5915 C   0  0  0  0  0  0  0  0  0  0  0  0
    3.4552   -1.4396   -1.6951 H   0  0  0  0  0  0  0  0  0  0  0  0
    1.6945   -1.3683   -1.6377 H   0  0  0  0  0  0  0  0  0  0  0  0
    2.3260   -1.8598    0.7004 H   0  0  0  0  0  0  0  0  0  0  0  0
    3.6185   -0.6689    0.6231 H   0  0  0  0  0  0  0  0  0  0  0  0
    0.4519   -0.2630    0.8508 H   0  0  0  0  0  0  0  0  0  0  0  0
    1.2319    1.4887    2.3750 H   0  0  0  0  0  0  0  0  0  0  0  0
    2.6628    0.4851    2.5848 H   0  0  0  0  0  0  0  0  0  0  0  0
    3.9028    1.8482    0.9465 H   0  0  0  0  0  0  0  0  0  0  0  0
    3.0596    3.0524    1.9139 H   0  0  0  0  0  0  0  0  0  0  0  0
    1.2319    3.1657    0.2876 H   0  0  0  0  0  0  0  0  0  0  0  0
    2.6628    3.1544   -0.7376 H   0  0  0  0  0  0  0  0  0  0  0  0
    0.6511    1.2854   -1.0067 H   0  0  0  0  0  0  0  0  0  0  0  0
    2.3260    0.8090   -2.6214 H   0  0  0  0  0  0  0  0  0  0  0  0
    3.6185    0.9901   -1.4418 H   0  0  0  0  0  0  0  0  0  0  0  0
  1  2  1  0
  1 10  1  0
  1 11  1  0
  1 12  1  0
  2  3  1  0
  2  4  1  0
  3 13  1  0
  3 14  1  0
  3 15  1  0
  4  5  2  0
  4  9  1  0
  5  6  1  0
  5 16  1  0
  6  7  2  0
  6 17  1  0
  7  8  1  0
  7 18  1  0
  8  9  2  0
  8 19  1  0
  9 20  1  0
 21 22  1  0
 21 28  1  0
 21 29  1  0
 21 30  1  0
 22 23  1  0
 22 31  1  0
 22 32  1  0
 23 24  1  0
 23 27  1  0
 23 33  1  0
 24 25  1  0
 24 34  1  0
 24 35  1  0
 25 26  1  0
 25 36  1  0
 25 37  1  0
 26 27  1  0
 26 38  1  0
 26 39  1  0
 27 28  1  0
 27 40  1  0
 28 41  1  0
 28 42  1  0
M  RAD  1   2   2
M  END
>  <reaction>  (6) 
rxn_571

>  <mol_properties>  (6) 
{"1": {"label": "*1", "atom_type": "Cs"}, "3": {"label": "*0", "atom_type": "Cd"}, "22": {"label": "*3", "atom_type": "Cs"}, "26": {"label": "*4", "atom_type": "Cs"}, "32": {"label": "*2", "atom_type": "H0"}}

>  <type>  (6) 
unop_2

>  <geom_source>  (6) 
Heuristics

$$$$

     RDKit          3D

 42 43  0  0  0  0  0  0  0  0999 V2000
   -1.8454    1.0050    1.4363 C   0  0  0  0  0  0  0  0  0  0  0  0
   -1.1484    0.1311    0.3920 C   0  0  0  0  0  3  0  0  0  0  0  0
   -1.4308    0.6362   -1.0240 C   0  0  0  0  0  0  0  0  0  0  0  0
   -1.5197   -1.3287    0.5482 C   0  0  0  0  0  0  0  0  0  0  0  0
   -2.8357   -1.7578    0.3907 C   0  0  0  0  0  0  0  0  0  0  0  0
   -3.1731   -3.0933    0.5340 C   0  0  0  0  0  0  0  0  0  0  0  0
   -2.1970   -4.0312    0.8391 C   0  0  0  0  0  0  0  0  0  0  0  0
   -0.8843   -3.6192    0.9986 C   0  0  0  0  0  0  0  0  0  0  0  0
   -0.5529   -2.2795    0.8537 C   0  0  0  0  0  0  0  0  0  0  0  0
   -1.6264    0.6596    2.4477 H   0  0  0  0  0  0  0  0  0  0  0  0
   -1.5182    2.0431    1.3488 H   0  0  0  0  0  0  0  0  0  0  0  0
   -2.9295    0.9850    1.3030 H   0  0  0  0  0  0  0  0  0  0  0  0
   -2.5000    0.6030   -1.2458 H   0  0  0  0  0  0  0  0  0  0  0  0
   -1.0994    1.6706   -1.1363 H   0  0  0  0  0  0  0  0  0  0  0  0
   -0.9158    0.0276   -1.7688 H   0  0  0  0  0  0  0  0  0  0  0  0
   -3.6109   -1.0385    0.1523 H   0  0  0  0  0  0  0  0  0  0  0  0
   -4.2027   -3.4045    0.4072 H   0  0  0  0  0  0  0  0  0  0  0  0
   -2.4598   -5.0754    0.9514 H   0  0  0  0  0  0  0  0  0  0  0  0
   -0.1132   -4.3414    1.2368 H   0  0  0  0  0  0  0  0  0  0  0  0
    0.4775   -1.9664    0.9804 H   0  0  0  0  0  0  0  0  0  0  0  0
    2.2082   -0.0097   -1.9207 C   0  0  0  0  0  0  0  0  0  0  0  0
    2.2082   -0.0097   -0.3943 C   0  0  0  0  0  0  0  0  0  0  0  0
    1.2449    1.1251   -0.0059 C   0  0  0  0  0  0  0  0  0  0  0  0
    1.6976    1.9636    1.1985 C   0  0  0  0  0  0  0  0  0  0  0  0
    2.5096    3.1018    0.5792 C   0  0  0  0  0  0  0  0  0  0  0  0
    1.6976    3.4614   -0.6657 C   0  0  0  0  0  0  0  0  0  0  0  0
    1.2449    2.1046   -1.2251 C   0  0  0  0  0  0  0  0  0  0  0  0
    2.2082    1.4809   -2.2496 C   0  0  0  0  0  0  0  0  0  0  0  0
    3.0531   -0.5479   -2.3531 H   0  0  0  0  0  0  0  0  0  0  0  0
    1.2924   -0.4765   -2.2958 H   0  0  0  0  0  0  0  0  0  0  0  0
    1.9239   -0.9680    0.0423 H   0  0  0  0  0  0  0  0  0  0  0  0
    3.2164    0.2229   -0.0350 H   0  0  0  0  0  0  0  0  0  0  0  0
    0.0498    0.6287    0.1928 H   0  0  0  0  0  0  0  0  0  0  0  0
    0.8298    2.3805    1.7170 H   0  0  0  0  0  0  0  0  0  0  0  0
    2.2607    1.3769    1.9268 H   0  0  0  0  0  0  0  0  0  0  0  0
    3.5007    2.7400    0.2885 H   0  0  0  0  0  0  0  0  0  0  0  0
    2.6575    3.9442    1.2559 H   0  0  0  0  0  0  0  0  0  0  0  0
    0.8298    4.0575   -0.3704 H   0  0  0  0  0  0  0  0  0  0  0  0
    2.2607    4.0462   -1.3956 H   0  0  0  0  0  0  0  0  0  0  0  0
    0.2490    2.1772   -1.6647 H   0  0  0  0  0  0  0  0  0  0  0  0
    1.9239    1.7008   -3.2795 H   0  0  0  0  0  0  0  0  0  0  0  0
    3.2164    1.8819   -2.0998 H   0  0  0  0  0  0  0  0  0  0  0  0
  1  2  1  0
  1 10  1  0
  1 11  1  0
  1 12  1  0
  2  3  1  0
  2  4  1  0
  3 13  1  0
  3 14  1  0
  3 15  1  0
  4  5  2  0
  4  9  1  0
  5  6  1  0
  5 16  1  0
  6  7  2  0
  6 17  1  0
  7  8  1  0
  7 18  1  0
  8  9  2  0
  8 19  1  0
  9 20  1  0
 21 22  1  0
 21 28  1  0
 21 29  1  0
 21 30  1  0
 22 23  1  0
 22 31  1  0
 22 32  1  0
 23 24  1  0
 23 27  1  0
 23 33  1  0
 24 25  1  0
 24 34  1  0
 24 35  1  0
 25 26  1  0
 25 36  1  0
 25 37  1  0
 26 27  1  0
 26 38  1  0
 26 39  1  0
 27 28  1  0
 27 40  1  0
 28 41  1  0
 28 42  1  0
M  RAD  1   2   2
M  END
>  <reaction>  (7) 
rxn_571

>  <mol_properties>  (7) 
{"1": {"label": "*1", "atom_type": "Cs"}, "3": {"label": "*0", "atom_type": "Cd"}, "22": {"label": "*3", "atom_type": "Cs"}, "26": {"label": "*4", "atom_type": "Cs"}, "32": {"label": "*2", "atom_type": "H0"}}

>  <type>  (7) 
unop_3

>  <geom_source>  (7) 
Heuristics

$$$$

     RDKit          3D

 42 43  0  0  0  0  0  0  0  0999 V2000
   -1.6323   -2.2687   -0.8364 C   0  0  0  0  0  0  0  0  0  0  0  0
   -1.1824   -1.6078    0.4678 C   0  0  0  0  0  3  0  0  0  0  0  0
   -1.7838   -2.3199    1.6807 C   0  0  0  0  0  0  0  0  0  0  0  0
   -1.4943   -0.1260    0.4791 C   0  0  0  0  0  0  0  0  0  0  0  0
   -2.8075    0.3339    0.4094 C   0  0  0  0  0  0  0  0  0  0  0  0
   -3.0906    1.6895    0.4200 C   0  0  0  0  0  0  0  0  0  0  0  0
   -2.0617    2.6171    0.5008 C   0  0  0  0  0  0  0  0  0  0  0  0
   -0.7512    2.1745    0.5707 C   0  0  0  0  0  0  0  0  0  0  0  0
   -0.4743    0.8147    0.5597 C   0  0  0  0  0  0  0  0  0  0  0  0
   -1.1860   -1.7761   -1.7014 H   0  0  0  0  0  0  0  0  0  0  0  0
   -1.3436   -3.3217   -0.8531 H   0  0  0  0  0  0  0  0  0  0  0  0
   -2.7181   -2.2193   -0.9462 H   0  0  0  0  0  0  0  0  0  0  0  0
   -2.8751   -2.2723    1.6614 H   0  0  0  0  0  0  0  0  0  0  0  0
   -1.4967   -3.3734    1.6893 H   0  0  0  0  0  0  0  0  0  0  0  0
   -1.4456   -1.8638    2.6122 H   0  0  0  0  0  0  0  0  0  0  0  0
   -3.6235   -0.3769    0.3459 H   0  0  0  0  0  0  0  0  0  0  0  0
   -4.1191    2.0246    0.3649 H   0  0  0  0  0  0  0  0  0  0  0  0
   -2.2820    3.6770    0.5091 H   0  0  0  0  0  0  0  0  0  0  0  0
    0.0608    2.8884    0.6341 H   0  0  0  0  0  0  0  0  0  0  0  0
    0.5549    0.4778    0.6148 H   0  0  0  0  0  0  0  0  0  0  0  0
    2.1743   -1.7486   -1.8449 C   0  0  0  0  0  0  0  0  0  0  0  0
    2.1743   -1.7486   -0.3185 C   0  0  0  0  0  0  0  0  0  0  0  0
    1.2109   -0.6138    0.0699 C   0  0  0  0  0  0  0  0  0  0  0  0
    1.6637    0.2248    1.2743 C   0  0  0  0  0  0  0  0  0  0  0  0
    2.4757    1.3629    0.6550 C   0  0  0  0  0  0  0  0  0  0  0  0
    1.6637    1.7226   -0.5899 C   0  0  0  0  0  0  0  0  0  0  0  0
    1.2109    0.3657   -1.1493 C   0  0  0  0  0  0  0  0  0  0  0  0
    2.1743   -0.2580   -2.1738 C   0  0  0  0  0  0  0  0  0  0  0  0
    3.0191   -2.2867   -2.2773 H   0  0  0  0  0  0  0  0  0  0  0  0
    1.2584   -2.2154   -2.2200 H   0  0  0  0  0  0  0  0  0  0  0  0
    1.8900   -2.7069    0.1181 H   0  0  0  0  0  0  0  0  0  0  0  0
    3.1824   -1.5160    0.0408 H   0  0  0  0  0  0  0  0  0  0  0  0
    0.0159   -1.1102    0.2686 H   0  0  0  0  0  0  0  0  0  0  0  0
    0.7959    0.6416    1.7928 H   0  0  0  0  0  0  0  0  0  0  0  0
    2.2268   -0.3620    2.0026 H   0  0  0  0  0  0  0  0  0  0  0  0
    3.4668    1.0011    0.3642 H   0  0  0  0  0  0  0  0  0  0  0  0
    2.6236    2.2053    1.3317 H   0  0  0  0  0  0  0  0  0  0  0  0
    0.7959    2.3186   -0.2946 H   0  0  0  0  0  0  0  0  0  0  0  0
    2.2268    2.3073   -1.3198 H   0  0  0  0  0  0  0  0  0  0  0  0
    0.2151    0.4383   -1.5889 H   0  0  0  0  0  0  0  0  0  0  0  0
    1.8900   -0.0381   -3.2037 H   0  0  0  0  0  0  0  0  0  0  0  0
    3.1824    0.1430   -2.0240 H   0  0  0  0  0  0  0  0  0  0  0  0
  1  2  1  0
  1 10  1  0
  1 11  1  0
  1 12  1  0
  2  3  1  0
  2  4  1  0
  3 13  1  0
  3 14  1  0
  3 15  1  0
  4  5  2  0
  4  9  1  0
  5  6  1  0
  5 16  1  0
  6  7  2  0
  6 17  1  0
  7  8  1  0
  7 18  1  0
  8  9  2  0
  8 19  1  0
  9 20  1  0
 21 22  1  0
 21 28  1  0
 21 29  1  0
 21 30  1  0
 22 23  1  0
 22 31  1  0
 22 32  1  0
 23 24  1  0
 23 27  1  0
 23 33  1  0
 24 25  1  0
 24 34  1  0
 24 35  1  0
 25 26  1  0
 25 36  1  0
 25 37  1  0
 26 27  1  0
 26 38  1  0
 26 39  1  0
 27 28  1  0
 27 40  1  0
 28 41  1  0
 28 42  1  0
M  RAD  1   2   2
M  END
>  <reaction>  (8) 
rxn_571

>  <mol_properties>  (8) 
{"1": {"label": "*1", "atom_type": "Cs"}, "3": {"label": "*0", "atom_type": "Cd"}, "22": {"label": "*3", "atom_type": "Cs"}, "26": {"label": "*4", "atom_type": "Cs"}, "32": {"label": "*2", "atom_type": "H0"}}

>  <type>  (8) 
unop_4

>  <geom_source>  (8) 
Heuristics

$$$$

     RDKit          3D

 42 43  0  0  0  0  0  0  0  0999 V2000
   -2.3682    1.0545    0.1812 C   0  0  0  0  0  0  0  0  0  0  0  0
   -1.4437   -0.1025   -0.2016 C   0  0  0  0  0  3  0  0  0  0  0  0
   -1.8960   -0.7584   -1.5074 C   0  0  0  0  0  0  0  0  0  0  0  0
   -1.3227   -1.1144    0.9185 C   0  0  0  0  0  0  0  0  0  0  0  0
   -2.4329   -1.8245    1.3704 C   0  0  0  0  0  0  0  0  0  0  0  0
   -2.3201   -2.7495    2.3949 C   0  0  0  0  0  0  0  0  0  0  0  0
   -1.0893   -2.9843    2.9912 C   0  0  0  0  0  0  0  0  0  0  0  0
    0.0232   -2.2858    2.5524 C   0  0  0  0  0  0  0  0  0  0  0  0
   -0.0966   -1.3603    1.5253 C   0  0  0  0  0  0  0  0  0  0  0  0
   -2.0337    1.5378    1.1003 H   0  0  0  0  0  0  0  0  0  0  0  0
   -2.3941    1.8044   -0.6121 H   0  0  0  0  0  0  0  0  0  0  0  0
   -3.3902    0.7029    0.3406 H   0  0  0  0  0  0  0  0  0  0  0  0
   -2.9010   -1.1752   -1.4088 H   0  0  0  0  0  0  0  0  0  0  0  0
   -1.9171   -0.0267   -2.3178 H   0  0  0  0  0  0  0  0  0  0  0  0
   -1.2244   -1.5691   -1.7937 H   0  0  0  0  0  0  0  0  0  0  0  0
   -3.4020   -1.6535    0.9158 H   0  0  0  0  0  0  0  0  0  0  0  0
   -3.1966   -3.2901    2.7302 H   0  0  0  0  0  0  0  0  0  0  0  0
   -1.0001   -3.7072    3.7921 H   0  0  0  0  0  0  0  0  0  0  0  0
    0.9894   -2.4600    3.0095 H   0  0  0  0  0  0  0  0  0  0  0  0
    0.7801   -0.8182    1.1885 H   0  0  0  0  0  0  0  0  0  0  0  0
    1.9130   -0.2433   -2.5143 C   0  0  0  0  0  0  0  0  0  0  0  0
    1.9130   -0.2433   -0.9878 C   0  0  0  0  0  0  0  0  0  0  0  0
    0.9496    0.8915   -0.5995 C   0  0  0  0  0  0  0  0  0  0  0  0
    1.4024    1.7300    0.6050 C   0  0  0  0  0  0  0  0  0  0  0  0
    2.2144    2.8682   -0.0144 C   0  0  0  0  0  0  0  0  0  0  0  0
    1.4024    3.2278   -1.2593 C   0  0  0  0  0  0  0  0  0  0  0  0
    0.9496    1.8710   -1.8187 C   0  0  0  0  0  0  0  0  0  0  0  0
    1.9130    1.2473   -2.8431 C   0  0  0  0  0  0  0  0  0  0  0  0
    2.7578   -0.7815   -2.9467 H   0  0  0  0  0  0  0  0  0  0  0  0
    0.9971   -0.7101   -2.8893 H   0  0  0  0  0  0  0  0  0  0  0  0
    1.6287   -1.2016   -0.5512 H   0  0  0  0  0  0  0  0  0  0  0  0
    2.9211   -0.0107   -0.6286 H   0  0  0  0  0  0  0  0  0  0  0  0
   -0.2454    0.3951   -0.4008 H   0  0  0  0  0  0  0  0  0  0  0  0
    0.5346    2.1468    1.1234 H   0  0  0  0  0  0  0  0  0  0  0  0
    1.9655    1.1433    1.3332 H   0  0  0  0  0  0  0  0  0  0  0  0
    3.2055    2.5064   -0.3051 H   0  0  0  0  0  0  0  0  0  0  0  0
    2.3623    3.7105    0.6623 H   0  0  0  0  0  0  0  0  0  0  0  0
    0.5346    3.8239   -0.9640 H   0  0  0  0  0  0  0  0  0  0  0  0
    1.9655    3.8126   -1.9892 H   0  0  0  0  0  0  0  0  0  0  0  0
   -0.0462    1.9436   -2.2583 H   0  0  0  0  0  0  0  0  0  0  0  0
    1.6287    1.4672   -3.8730 H   0  0  0  0  0  0  0  0  0  0  0  0
    2.9211    1.6483   -2.6934 H   0  0  0  0  0  0  0  0  0  0  0  0
  1  2  1  0
  1 10  1  0
  1 11  1  0
  1 12  1  0
  2  3  1  0
  2  4  1  0
  3 13  1  0
  3 14  1  0
  3 15  1  0
  4  5  2  0
  4  9  1  0
  5  6  1  0
  5 16  1  0
  6  7  2  0
  6 17  1  0
  7  8  1  0
  7 18  1  0
  8  9  2  0
  8 19  1  0
  9 20  1  0
 21 22  1  0
 21 28  1  0
 21 29  1  0
 21 30  1  0
 22 23  1  0
 22 31  1  0
 22 32  1  0
 23 24  1  0
 23 27  1  0
 23 33  1  0
 24 25  1  0
 24 34  1  0
 24 35  1  0
 25 26  1  0
 25 36  1  0
 25 37  1  0
 26 27  1  0
 26 38  1  0
 26 39  1  0
 27 28  1  0
 27 40  1  0
 28 41  1  0
 28 42  1  0
M  RAD  1   2   2
M  END
>  <reaction>  (9) 
rxn_571

>  <mol_properties>  (9) 
{"1": {"label": "*1", "atom_type": "Cs"}, "3": {"label": "*0", "atom_type": "Cd"}, "22": {"label": "*3", "atom_type": "Cs"}, "26": {"label": "*4", "atom_type": "Cs"}, "32": {"label": "*2", "atom_type": "H0"}}

>  <type>  (9) 
unop_5

>  <geom_source>  (9) 
Heuristics

$$$$

     RDKit          3D

 42 41  0  0  0  0  0  0  0  0999 V2000
   -2.1258   -1.5192   -1.2722 C   0  0  0  0  0  0  0  0  0  0  0  0
   -1.3821   -1.5526    0.0642 C   0  0  0  0  0  3  0  0  0  0  0  0
   -1.9663   -2.6198    0.9915 C   0  0  0  0  0  0  0  0  0  0  0  0
   -1.3603   -0.1903    0.7250 C   0  0  0  0  0  0  0  0  0  0  0  0
   -2.5400    0.4400    1.1146 C   0  0  0  0  0  0  0  0  0  0  0  0
   -2.5178    1.6859    1.7188 C   0  0  0  0  0  0  0  0  0  0  0  0
   -1.3100    2.3299    1.9468 C   0  0  0  0  0  0  0  0  0  0  0  0
   -0.1290    1.7154    1.5648 C   0  0  0  0  0  2  0  0  0  0  0  0
   -0.1582    0.4669    0.9598 C   0  0  0  0  0  2  0  0  0  0  0  0
   -1.6957   -0.7742   -1.9432 H   0  0  0  0  0  0  0  0  0  0  0  0
   -2.0776   -2.4932   -1.7633 H   0  0  0  0  0  0  0  0  0  0  0  0
   -3.1798   -1.2709   -1.1277 H   0  0  0  0  0  0  0  0  0  0  0  0
   -3.0145   -2.4111    1.2174 H   0  0  0  0  0  0  0  0  0  0  0  0
   -1.9164   -3.6050    0.5231 H   0  0  0  0  0  0  0  0  0  0  0  0
   -1.4223   -2.6604    1.9363 H   0  0  0  0  0  0  0  0  0  0  0  0
   -3.4924   -0.0488    0.9441 H   0  0  0  0  0  0  0  0  0  0  0  0
   -3.4473    2.1574    2.0136 H   0  0  0  0  0  0  0  0  0  0  0  0
   -1.2916    3.3039    2.4191 H   0  0  0  0  0  0  0  0  0  0  0  0
    0.8202    2.2076    1.7372 H   0  0  0  0  0  0  0  0  0  0  0  0
    0.7716   -0.0064    0.6642 H   0  0  0  0  0  0  0  0  0  0  0  0
    1.9745   -1.6934   -2.2485 C   0  0  0  0  0  0  0  0  0  0  0  0
    1.9745   -1.6934   -0.7221 C   0  0  0  0  0  0  0  0  0  0  0  0
    1.0112   -0.5586   -0.3337 C   0  0  0  0  0  3  0  0  0  0  0  0
    1.4639    0.2799    0.8707 C   0  0  0  0  0  3  0  0  0  0  0  0
    2.2759    1.4181    0.2513 C   0  0  0  0  0  0  0  0  0  0  0  0
    1.4639    1.7777   -0.9936 C   0  0  0  0  0  0  0  0  0  0  0  0
    1.0112    0.4209   -1.5529 C   0  0  0  0  0  0  0  0  0  0  0  0
    1.9745   -0.2028   -2.5774 C   0  0  0  0  0  0  0  0  0  0  0  0
    2.8194   -2.2316   -2.6809 H   0  0  0  0  0  0  0  0  0  0  0  0
    1.0587   -2.1602   -2.6236 H   0  0  0  0  0  0  0  0  0  0  0  0
    1.6902   -2.6517   -0.2855 H   0  0  0  0  0  0  0  0  0  0  0  0
    2.9827   -1.4608   -0.3628 H   0  0  0  0  0  0  0  0  0  0  0  0
   -0.1839   -1.0550   -0.1350 H   0  0  0  0  0  0  0  0  0  0  0  0
    0.5961    0.6967    1.3892 H   0  0  0  0  0  0  0  0  0  0  0  0
    2.0270   -0.3068    1.5990 H   0  0  0  0  0  0  0  0  0  0  0  0
    3.2670    1.0563   -0.0394 H   0  0  0  0  0  0  0  0  0  0  0  0
    2.4238    2.2604    0.9281 H   0  0  0  0  0  0  0  0  0  0  0  0
    0.5961    2.3738   -0.6982 H   0  0  0  0  0  0  0  0  0  0  0  0
    2.0270    2.3625   -1.7234 H   0  0  0  0  0  0  0  0  0  0  0  0
    0.0153    0.4935   -1.9925 H   0  0  0  0  0  0  0  0  0  0  0  0
    1.6902    0.0171   -3.6073 H   0  0  0  0  0  0  0  0  0  0  0  0
    2.9827    0.1982   -2.4277 H   0  0  0  0  0  0  0  0  0  0  0  0
  1  2  1  0
  1 10  1  0
  1 11  1  0
  1 12  1  0
  2  3  1  0
  2  4  1  0
  3 13  1  0
  3 14  1  0
  3 15  1  0
  4  9  1  0
  4  5  2  3
  5  6  1  0
  5 16  1  0
  6  7  2  3
  6 17  1  0
  7  8  1  0
  7 18  1  0
  8 19  1  0
  9 34  1  0
 20 24  1  0
 21 22  1  0
 21 28  1  0
 21 29  1  0
 21 30  1  0
 22 23  1  0
 22 31  1  0
 22 32  1  0
 23 27  1  0
 23 33  1  0
 24 25  1  0
 24 35  1  0
 25 26  1  0
 25 36  1  0
 25 37  1  0
 26 27  1  0
 26 38  1  0
 26 39  1  0
 27 28  1  0
 27 40  1  0
 28 41  1  0
 28 42  1  0
M  CHG  4   8  -1   9   1  23   1  24  -1
M  RAD  3   2   2   8   2   9   2
M  END
>  <reaction>  (10) 
rxn_571

>  <mol_properties>  (10) 
{"1": {"label": "*1", "atom_type": "Cs"}, "3": {"label": "*0", "atom_type": "Cd"}, "22": {"label": "*3", "atom_type": "Cs"}, "26": {"label": "*4", "atom_type": "Cs"}, "32": {"label": "*2", "atom_type": "H0"}}

>  <type>  (10) 
unop_6

>  <geom_source>  (10) 
Heuristics

$$$$

     RDKit          3D

 42 41  0  0  0  0  0  0  0  0999 V2000
   -2.5002   -0.5981   -1.2617 C   0  0  0  0  0  0  0  0  0  0  0  0
   -1.5486   -1.2698   -0.2700 C   0  0  0  0  0  3  0  0  0  0  0  0
   -2.0867   -2.6322    0.1709 C   0  0  0  0  0  0  0  0  0  0  0  0
   -1.2557   -0.3751    0.9160 C   0  0  0  0  0  0  0  0  0  0  0  0
   -2.2700    0.0283    1.7816 C   0  0  0  0  0  0  0  0  0  0  0  0
   -2.0000    0.8467    2.8657 C   0  0  0  0  0  0  0  0  0  0  0  0
   -0.7041    1.2803    3.1074 C   0  0  0  0  0  0  0  0  0  0  0  0
    0.3146    0.8873    2.2554 C   0  0  0  0  0  2  0  0  0  0  0  0
    0.0372    0.0672    1.1708 C   0  0  0  0  0  2  0  0  0  0  0  0
   -2.1067    0.3635   -1.5945 H   0  0  0  0  0  0  0  0  0  0  0  0
   -2.6503   -1.2306   -2.1390 H   0  0  0  0  0  0  0  0  0  0  0  0
   -3.4778   -0.4208   -0.8076 H   0  0  0  0  0  0  0  0  0  0  0  0
   -3.0495   -2.5281    0.6765 H   0  0  0  0  0  0  0  0  0  0  0  0
   -2.2326   -3.2853   -0.6920 H   0  0  0  0  0  0  0  0  0  0  0  0
   -1.3981   -3.1226    0.8605 H   0  0  0  0  0  0  0  0  0  0  0  0
   -3.2880   -0.3011    1.6076 H   0  0  0  0  0  0  0  0  0  0  0  0
   -2.8041    1.1479    3.5256 H   0  0  0  0  0  0  0  0  0  0  0  0
   -0.4920    1.9201    3.9547 H   0  0  0  0  0  0  0  0  0  0  0  0
    1.3301    1.2190    2.4332 H   0  0  0  0  0  0  0  0  0  0  0  0
    0.8413   -0.2353    0.5092 H   0  0  0  0  0  0  0  0  0  0  0  0
    1.8080   -1.4106   -2.5827 C   0  0  0  0  0  0  0  0  0  0  0  0
    1.8080   -1.4106   -1.0563 C   0  0  0  0  0  0  0  0  0  0  0  0
    0.8447   -0.2758   -0.6679 C   0  0  0  0  0  3  0  0  0  0  0  0
    1.2974    0.5627    0.5365 C   0  0  0  0  0  3  0  0  0  0  0  0
    2.1094    1.7009   -0.0829 C   0  0  0  0  0  0  0  0  0  0  0  0
    1.2974    2.0605   -1.3278 C   0  0  0  0  0  0  0  0  0  0  0  0
    0.8447    0.7037   -1.8871 C   0  0  0  0  0  0  0  0  0  0  0  0
    1.8080    0.0800   -2.9116 C   0  0  0  0  0  0  0  0  0  0  0  0
    2.6529   -1.9488   -3.0151 H   0  0  0  0  0  0  0  0  0  0  0  0
    0.8922   -1.8774   -2.9578 H   0  0  0  0  0  0  0  0  0  0  0  0
    1.5237   -2.3690   -0.6197 H   0  0  0  0  0  0  0  0  0  0  0  0
    2.8162   -1.1780   -0.6970 H   0  0  0  0  0  0  0  0  0  0  0  0
   -0.3504   -0.7722   -0.4692 H   0  0  0  0  0  0  0  0  0  0  0  0
    0.4296    0.9795    1.0550 H   0  0  0  0  0  0  0  0  0  0  0  0
    1.8605   -0.0240    1.2648 H   0  0  0  0  0  0  0  0  0  0  0  0
    3.1005    1.3391   -0.3736 H   0  0  0  0  0  0  0  0  0  0  0  0
    2.2573    2.5432    0.5939 H   0  0  0  0  0  0  0  0  0  0  0  0
    0.4296    2.6566   -1.0324 H   0  0  0  0  0  0  0  0  0  0  0  0
    1.8605    2.6453   -2.0576 H   0  0  0  0  0  0  0  0  0  0  0  0
   -0.1512    0.7763   -2.3267 H   0  0  0  0  0  0  0  0  0  0  0  0
    1.5237    0.2999   -3.9415 H   0  0  0  0  0  0  0  0  0  0  0  0
    2.8162    0.4809   -2.7619 H   0  0  0  0  0  0  0  0  0  0  0  0
  1  2  1  0
  1 10  1  0
  1 11  1  0
  1 12  1  0
  2  3  1  0
  2  4  1  0
  3 13  1  0
  3 14  1  0
  3 15  1  0
  4  9  1  0
  4  5  2  3
  5  6  1  0
  5 16  1  0
  6  7  2  3
  6 17  1  0
  7  8  1  0
  7 18  1  0
  8 19  1  0
  9 34  1  0
 20 24  1  0
 21 22  1  0
 21 28  1  0
 21 29  1  0
 21 30  1  0
 22 23  1  0
 22 31  1  0
 22 32  1  0
 23 27  1  0
 23 33  1  0
 24 25  1  0
 24 35  1  0
 25 26  1  0
 25 36  1  0
 25 37  1  0
 26 27  1  0
 26 38  1  0
 26 39  1  0
 27 28  1  0
 27 40  1  0
 28 41  1  0
 28 42  1  0
M  CHG  4   8  -1   9   1  23   1  24  -1
M  RAD  3   2   2   8   2   9   2
M  END
>  <reaction>  (11) 
rxn_571

>  <mol_properties>  (11) 
{"1": {"label": "*1", "atom_type": "Cs"}, "3": {"label": "*0", "atom_type": "Cd"}, "22": {"label": "*3", "atom_type": "Cs"}, "26": {"label": "*4", "atom_type": "Cs"}, "32": {"label": "*2", "atom_type": "H0"}}

>  <type>  (11) 
unop_7

>  <geom_source>  (11) 
Heuristics

$$$$

     RDKit          3D

 42 43  0  0  0  0  0  0  0  0999 V2000
   -0.9077   -0.6712    2.4165 C   0  0  0  0  0  0  0  0  0  0  0  0
   -0.8054   -0.2864    0.9395 C   0  0  0  0  0  3  0  0  0  0  0  0
   -0.9942    1.2197    0.7498 C   0  0  0  0  0  0  0  0  0  0  0  0
   -1.7720   -1.0818    0.0873 C   0  0  0  0  0  0  0  0  0  0  0  0
   -3.1488   -0.9799    0.2743 C   0  0  0  0  0  0  0  0  0  0  0  0
   -4.0310   -1.7082   -0.5062 C   0  0  0  0  0  0  0  0  0  0  0  0
   -3.5524   -2.5571   -1.4941 C   0  0  0  0  0  0  0  0  0  0  0  0
   -2.1860   -2.6685   -1.6914 C   0  0  0  0  0  0  0  0  0  0  0  0
   -1.3073   -1.9359   -0.9059 C   0  0  0  0  0  0  0  0  0  0  0  0
   -0.7506   -1.7418    2.5559 H   0  0  0  0  0  0  0  0  0  0  0  0
   -0.1616   -0.1344    3.0061 H   0  0  0  0  0  0  0  0  0  0  0  0
   -1.8924   -0.4221    2.8188 H   0  0  0  0  0  0  0  0  0  0  0  0
   -1.9820    1.5368    1.0922 H   0  0  0  0  0  0  0  0  0  0  0  0
   -0.2490    1.7756    1.3226 H   0  0  0  0  0  0  0  0  0  0  0  0
   -0.8988    1.4989   -0.3005 H   0  0  0  0  0  0  0  0  0  0  0  0
   -3.5399   -0.3215    1.0416 H   0  0  0  0  0  0  0  0  0  0  0  0
   -5.0976   -1.6134   -0.3433 H   0  0  0  0  0  0  0  0  0  0  0  0
   -4.2412   -3.1268   -2.1047 H   0  0  0  0  0  0  0  0  0  0  0  0
   -1.7998   -3.3275   -2.4592 H   0  0  0  0  0  0  0  0  0  0  0  0
   -0.2393   -2.0298   -1.0678 H   0  0  0  0  0  0  0  0  0  0  0  0
    2.5512   -0.4271   -1.3731 C   0  0  0  0  0  0  0  0  0  0  0  0
    2.5512   -0.4271    0.1533 C   0  0  0  0  0  0  0  0  0  0  0  0
    1.5879    0.7076    0.5417 C   0  0  0  0  0  0  0  0  0  0  0  0
    2.0406    1.5462    1.7461 C   0  0  0  0  0  0  0  0  0  0  0  0
    2.8526    2.6844    1.1267 C   0  0  0  0  0  0  0  0  0  0  0  0
    2.0406    3.0440   -0.1182 C   0  0  0  0  0  0  0  0  0  0  0  0
    1.5879    1.6872   -0.6776 C   0  0  0  0  0  0  0  0  0  0  0  0
    2.5512    1.0635   -1.7020 C   0  0  0  0  0  0  0  0  0  0  0  0
    3.3961   -0.9653   -1.8055 H   0  0  0  0  0  0  0  0  0  0  0  0
    1.6354   -0.8940   -1.7482 H   0  0  0  0  0  0  0  0  0  0  0  0
    2.2669   -1.3855    0.5899 H   0  0  0  0  0  0  0  0  0  0  0  0
    3.5594   -0.1945    0.5126 H   0  0  0  0  0  0  0  0  0  0  0  0
    0.3928    0.2113    0.7403 H   0  0  0  0  0  0  0  0  0  0  0  0
    1.1728    1.9630    2.2645 H   0  0  0  0  0  0  0  0  0  0  0  0
    2.6037    0.9595    2.4744 H   0  0  0  0  0  0  0  0  0  0  0  0
    3.8437    2.3225    0.8360 H   0  0  0  0  0  0  0  0  0  0  0  0
    3.0005    3.5267    1.8035 H   0  0  0  0  0  0  0  0  0  0  0  0
    1.1728    3.6401    0.1772 H   0  0  0  0  0  0  0  0  0  0  0  0
    2.6037    3.6288   -0.8480 H   0  0  0  0  0  0  0  0  0  0  0  0
    0.5920    1.7597   -1.1171 H   0  0  0  0  0  0  0  0  0  0  0  0
    2.2669    1.2833   -2.7319 H   0  0  0  0  0  0  0  0  0  0  0  0
    3.5594    1.4644   -1.5523 H   0  0  0  0  0  0  0  0  0  0  0  0
  1  2  1  0
  1 10  1  0
  1 11  1  0
  1 12  1  0
  2  3  1  0
  2  4  1  0
  3 13  1  0
  3 14  1  0
  3 15  1  0
  4  5  2  0
  4  9  1  0
  5  6  1  0
  5 16  1  0
  6  7  2  0
  6 17  1  0
  7  8  1  0
  7 18  1  0
  8  9  2  0
  8 19  1  0
  9 20  1  0
 21 22  1  0
 21 28  1  0
 21 29  1  0
 21 30  1  0
 22 23  1  0
 22 31  1  0
 22 32  1  0
 23 24  1  0
 23 27  1  0
 23 33  1  0
 24 25  1  0
 24 34  1  0
 24 35  1  0
 25 26  1  0
 25 36  1  0
 25 37  1  0
 26 27  1  0
 26 38  1  0
 26 39  1  0
 27 28  1  0
 27 40  1  0
 28 41  1  0
 28 42  1  0
M  RAD  1   2   2
M  END
>  <reaction>  (12) 
rxn_571

>  <mol_properties>  (12) 
{"1": {"label": "*1", "atom_type": "Cs"}, "3": {"label": "*0", "atom_type": "Cd"}, "22": {"label": "*3", "atom_type": "Cs"}, "26": {"label": "*4", "atom_type": "Cs"}, "32": {"label": "*2", "atom_type": "H0"}}

>  <type>  (12) 
unop_8

>  <geom_source>  (12) 
Heuristics

$$$$

     RDKit          3D

 42 43  0  0  0  0  0  0  0  0999 V2000
   -1.1343   -2.6553   -0.0705 C   0  0  0  0  0  0  0  0  0  0  0  0
   -0.9853   -1.4301    0.8332 C   0  0  0  0  0  3  0  0  0  0  0  0
   -1.5209   -1.7147    2.2375 C   0  0  0  0  0  0  0  0  0  0  0  0
   -1.6363   -0.2056    0.2250 C   0  0  0  0  0  0  0  0  0  0  0  0
   -3.0071   -0.1660   -0.0207 C   0  0  0  0  0  0  0  0  0  0  0  0
   -3.6005    0.9548   -0.5770 C   0  0  0  0  0  0  0  0  0  0  0  0
   -2.8319    2.0640   -0.9003 C   0  0  0  0  0  0  0  0  0  0  0  0
   -1.4679    2.0391   -0.6617 C   0  0  0  0  0  0  0  0  0  0  0  0
   -0.8794    0.9128   -0.1040 C   0  0  0  0  0  0  0  0  0  0  0  0
   -0.7319   -2.4613   -1.0658 H   0  0  0  0  0  0  0  0  0  0  0  0
   -0.6059   -3.5119    0.3532 H   0  0  0  0  0  0  0  0  0  0  0  0
   -2.1846   -2.9340   -0.1824 H   0  0  0  0  0  0  0  0  0  0  0  0
   -2.5851   -1.9595    2.2085 H   0  0  0  0  0  0  0  0  0  0  0  0
   -0.9964   -2.5617    2.6845 H   0  0  0  0  0  0  0  0  0  0  0  0
   -1.3945   -0.8492    2.8896 H   0  0  0  0  0  0  0  0  0  0  0  0
   -3.6225   -1.0237    0.2257 H   0  0  0  0  0  0  0  0  0  0  0  0
   -4.6681    0.9636   -0.7594 H   0  0  0  0  0  0  0  0  0  0  0  0
   -3.2949    2.9407   -1.3352 H   0  0  0  0  0  0  0  0  0  0  0  0
   -0.8570    2.8984   -0.9095 H   0  0  0  0  0  0  0  0  0  0  0  0
    0.1893    0.9026    0.0792 H   0  0  0  0  0  0  0  0  0  0  0  0
    2.3714   -1.5708   -1.4795 C   0  0  0  0  0  0  0  0  0  0  0  0
    2.3714   -1.5708    0.0469 C   0  0  0  0  0  0  0  0  0  0  0  0
    1.4081   -0.4361    0.4353 C   0  0  0  0  0  0  0  0  0  0  0  0
    1.8608    0.4025    1.6397 C   0  0  0  0  0  0  0  0  0  0  0  0
    2.6728    1.5407    1.0203 C   0  0  0  0  0  0  0  0  0  0  0  0
    1.8608    1.9003   -0.2246 C   0  0  0  0  0  0  0  0  0  0  0  0
    1.4081    0.5435   -0.7839 C   0  0  0  0  0  0  0  0  0  0  0  0
    2.3714   -0.0802   -1.8084 C   0  0  0  0  0  0  0  0  0  0  0  0
    3.2162   -2.1090   -1.9119 H   0  0  0  0  0  0  0  0  0  0  0  0
    1.4556   -2.0377   -1.8546 H   0  0  0  0  0  0  0  0  0  0  0  0
    2.0871   -2.5292    0.4835 H   0  0  0  0  0  0  0  0  0  0  0  0
    3.3795   -1.3383    0.4062 H   0  0  0  0  0  0  0  0  0  0  0  0
    0.2130   -0.9324    0.6340 H   0  0  0  0  0  0  0  0  0  0  0  0
    0.9930    0.8193    2.1582 H   0  0  0  0  0  0  0  0  0  0  0  0
    2.4239   -0.1842    2.3680 H   0  0  0  0  0  0  0  0  0  0  0  0
    3.6639    1.1788    0.7296 H   0  0  0  0  0  0  0  0  0  0  0  0
    2.8207    2.3830    1.6971 H   0  0  0  0  0  0  0  0  0  0  0  0
    0.9930    2.4963    0.0708 H   0  0  0  0  0  0  0  0  0  0  0  0
    2.4239    2.4851   -0.9544 H   0  0  0  0  0  0  0  0  0  0  0  0
    0.4122    0.6160   -1.2235 H   0  0  0  0  0  0  0  0  0  0  0  0
    2.0871    0.1396   -2.8383 H   0  0  0  0  0  0  0  0  0  0  0  0
    3.3795    0.3207   -1.6587 H   0  0  0  0  0  0  0  0  0  0  0  0
  1  2  1  0
  1 10  1  0
  1 11  1  0
  1 12  1  0
  2  3  1  0
  2  4  1  0
  3 13  1  0
  3 14  1  0
  3 15  1  0
  4  5  2  0
  4  9  1  0
  5  6  1  0
  5 16  1  0
  6  7  2  0
  6 17  1  0
  7  8  1  0
  7 18  1  0
  8  9  2  0
  8 19  1  0
  9 20  1  0
 21 22  1  0
 21 28  1  0
 21 29  1  0
 21 30  1  0
 22 23  1  0
 22 31  1  0
 22 32  1  0
 23 24  1  0
 23 27  1  0
 23 33  1  0
 24 25  1  0
 24 34  1  0
 24 35  1  0
 25 26  1  0
 25 36  1  0
 25 37  1  0
 26 27  1  0
 26 38  1  0
 26 39  1  0
 27 28  1  0
 27 40  1  0
 28 41  1  0
 28 42  1  0
M  RAD  1   2   2
M  END
>  <reaction>  (13) 
rxn_571

>  <mol_properties>  (13) 
{"1": {"label": "*1", "atom_type": "Cs"}, "3": {"label": "*0", "atom_type": "Cd"}, "22": {"label": "*3", "atom_type": "Cs"}, "26": {"label": "*4", "atom_type": "Cs"}, "32": {"label": "*2", "atom_type": "H0"}}

>  <type>  (13) 
unop_9

>  <geom_source>  (13) 
Heuristics

$$$$

     RDKit          3D

 42 43  0  0  0  0  0  0  0  0999 V2000
   -0.6374   -1.5356    2.1358 C   0  0  0  0  0  0  0  0  0  0  0  0
   -0.7429   -0.5124    1.0036 C   0  0  0  0  0  3  0  0  0  0  0  0
   -0.9480    0.8992    1.5560 C   0  0  0  0  0  0  0  0  0  0  0  0
   -1.8248   -0.8865    0.0123 C   0  0  0  0  0  0  0  0  0  0  0  0
   -3.1607   -0.9646    0.4000 C   0  0  0  0  0  0  0  0  0  0  0  0
   -4.1487   -1.3069   -0.5082 C   0  0  0  0  0  0  0  0  0  0  0  0
   -3.8195   -1.5793   -1.8284 C   0  0  0  0  0  0  0  0  0  0  0  0
   -2.4955   -1.5057   -2.2282 C   0  0  0  0  0  0  0  0  0  0  0  0
   -1.5103   -1.1621   -1.3133 C   0  0  0  0  0  0  0  0  0  0  0  0
   -0.4683   -2.5397    1.7442 H   0  0  0  0  0  0  0  0  0  0  0  0
    0.1877   -1.2840    2.8054 H   0  0  0  0  0  0  0  0  0  0  0  0
   -1.5537   -1.5579    2.7301 H   0  0  0  0  0  0  0  0  0  0  0  0
   -1.8755    0.9645    2.1294 H   0  0  0  0  0  0  0  0  0  0  0  0
   -0.1260    1.1753    2.2197 H   0  0  0  0  0  0  0  0  0  0  0  0
   -1.0006    1.6331    0.7504 H   0  0  0  0  0  0  0  0  0  0  0  0
   -3.4356   -0.7550    1.4274 H   0  0  0  0  0  0  0  0  0  0  0  0
   -5.1809   -1.3616   -0.1848 H   0  0  0  0  0  0  0  0  0  0  0  0
   -4.5911   -1.8470   -2.5391 H   0  0  0  0  0  0  0  0  0  0  0  0
   -2.2256   -1.7159   -3.2558 H   0  0  0  0  0  0  0  0  0  0  0  0
   -0.4765   -1.1070   -1.6356 H   0  0  0  0  0  0  0  0  0  0  0  0
    2.6138   -0.6532   -1.3091 C   0  0  0  0  0  0  0  0  0  0  0  0
    2.6138   -0.6532    0.2173 C   0  0  0  0  0  0  0  0  0  0  0  0
    1.6504    0.4816    0.6057 C   0  0  0  0  0  0  0  0  0  0  0  0
    2.1032    1.3201    1.8101 C   0  0  0  0  0  0  0  0  0  0  0  0
    2.9152    2.4583    1.1908 C   0  0  0  0  0  0  0  0  0  0  0  0
    2.1032    2.8179   -0.0541 C   0  0  0  0  0  0  0  0  0  0  0  0
    1.6504    1.4611   -0.6135 C   0  0  0  0  0  0  0  0  0  0  0  0
    2.6138    0.8374   -1.6380 C   0  0  0  0  0  0  0  0  0  0  0  0
    3.4586   -1.1914   -1.7415 H   0  0  0  0  0  0  0  0  0  0  0  0
    1.6979   -1.1200   -1.6842 H   0  0  0  0  0  0  0  0  0  0  0  0
    2.3294   -1.6115    0.6539 H   0  0  0  0  0  0  0  0  0  0  0  0
    3.6219   -0.4206    0.5766 H   0  0  0  0  0  0  0  0  0  0  0  0
    0.4554   -0.0148    0.8044 H   0  0  0  0  0  0  0  0  0  0  0  0
    1.2354    1.7369    2.3286 H   0  0  0  0  0  0  0  0  0  0  0  0
    2.6663    0.7334    2.5384 H   0  0  0  0  0  0  0  0  0  0  0  0
    3.9063    2.0965    0.9000 H   0  0  0  0  0  0  0  0  0  0  0  0
    3.0631    3.3007    1.8675 H   0  0  0  0  0  0  0  0  0  0  0  0
    1.2354    3.4140    0.2412 H   0  0  0  0  0  0  0  0  0  0  0  0
    2.6662    3.4027   -0.7840 H   0  0  0  0  0  0  0  0  0  0  0  0
    0.6545    1.5337   -1.0531 H   0  0  0  0  0  0  0  0  0  0  0  0
    2.3294    1.0573   -2.6679 H   0  0  0  0  0  0  0  0  0  0  0  0
    3.6219    1.2384   -1.4883 H   0  0  0  0  0  0  0  0  0  0  0  0
  1  2  1  0
  1 10  1  0
  1 11  1  0
  1 12  1  0
  2  3  1  0
  2  4  1  0
  3 13  1  0
  3 14  1  0
  3 15  1  0
  4  5  2  0
  4  9  1  0
  5  6  1  0
  5 16  1  0
  6  7  2  0
  6 17  1  0
  7  8  1  0
  7 18  1  0
  8  9  2  0
  8 19  1  0
  9 20  1  0
 21 22  1  0
 21 28  1  0
 21 29  1  0
 21 30  1  0
 22 23  1  0
 22 31  1  0
 22 32  1  0
 23 24  1  0
 23 27  1  0
 23 33  1  0
 24 25  1  0
 24 34  1  0
 24 35  1  0
 25 26  1  0
 25 36  1  0
 25 37  1  0
 26 27  1  0
 26 38  1  0
 26 39  1  0
 27 28  1  0
 27 40  1  0
 28 41  1  0
 28 42  1  0
M  RAD  1   2   2
M  END
>  <reaction>  (14) 
rxn_571

>  <mol_properties>  (14) 
{"1": {"label": "*1", "atom_type": "Cs"}, "3": {"label": "*0", "atom_type": "Cd"}, "22": {"label": "*3", "atom_type": "Cs"}, "26": {"label": "*4", "atom_type": "Cs"}, "32": {"label": "*2", "atom_type": "H0"}}

>  <type>  (14) 
unop_10

>  <geom_source>  (14) 
Heuristics

$$$$

     RDKit          3D

 42 43  0  0  0  0  0  0  0  0999 V2000
   -2.6277    0.3281   -0.7995 C   0  0  0  0  0  0  0  0  0  0  0  0
   -1.6100   -0.7550   -0.4372 C   0  0  0  0  0  3  0  0  0  0  0  0
   -2.1263   -2.1436   -0.8182 C   0  0  0  0  0  0  0  0  0  0  0  0
   -1.2187   -0.6866    1.0241 C   0  0  0  0  0  0  0  0  0  0  0  0
   -2.1601   -0.8852    2.0317 C   0  0  0  0  0  0  0  0  0  0  0  0
   -1.8000   -0.8222    3.3675 C   0  0  0  0  0  0  0  0  0  0  0  0
   -0.4854   -0.5582    3.7246 C   0  0  0  0  0  0  0  0  0  0  0  0
    0.4615   -0.3586    2.7337 C   0  0  0  0  0  0  0  0  0  0  0  0
    0.0942   -0.4230    1.3970 C   0  0  0  0  0  0  0  0  0  0  0  0
   -2.2514    1.3210   -0.5493 H   0  0  0  0  0  0  0  0  0  0  0  0
   -2.8506    0.3039   -1.8682 H   0  0  0  0  0  0  0  0  0  0  0  0
   -3.5661    0.1799   -0.2602 H   0  0  0  0  0  0  0  0  0  0  0  0
   -3.0466   -2.3807   -0.2795 H   0  0  0  0  0  0  0  0  0  0  0  0
   -2.3440   -2.1927   -1.8871 H   0  0  0  0  0  0  0  0  0  0  0  0
   -1.3920   -2.9149   -0.5812 H   0  0  0  0  0  0  0  0  0  0  0  0
   -3.1915   -1.0925    1.7706 H   0  0  0  0  0  0  0  0  0  0  0  0
   -2.5485   -0.9799    4.1342 H   0  0  0  0  0  0  0  0  0  0  0  0
   -0.2029   -0.5088    4.7686 H   0  0  0  0  0  0  0  0  0  0  0  0
    1.4908   -0.1518    2.9994 H   0  0  0  0  0  0  0  0  0  0  0  0
    0.8425   -0.2654    0.6282 H   0  0  0  0  0  0  0  0  0  0  0  0
    1.7466   -0.8957   -2.7498 C   0  0  0  0  0  0  0  0  0  0  0  0
    1.7466   -0.8957   -1.2234 C   0  0  0  0  0  0  0  0  0  0  0  0
    0.7833    0.2390   -0.8350 C   0  0  0  0  0  0  0  0  0  0  0  0
    1.2360    1.0776    0.3694 C   0  0  0  0  0  0  0  0  0  0  0  0
    2.0480    2.2158   -0.2500 C   0  0  0  0  0  0  0  0  0  0  0  0
    1.2360    2.5754   -1.4949 C   0  0  0  0  0  0  0  0  0  0  0  0
    0.7833    1.2186   -2.0542 C   0  0  0  0  0  0  0  0  0  0  0  0
    1.7466    0.5949   -3.0787 C   0  0  0  0  0  0  0  0  0  0  0  0
    2.5915   -1.4339   -3.1822 H   0  0  0  0  0  0  0  0  0  0  0  0
    0.8308   -1.3626   -3.1249 H   0  0  0  0  0  0  0  0  0  0  0  0
    1.4623   -1.8541   -0.7868 H   0  0  0  0  0  0  0  0  0  0  0  0
    2.7548   -0.6631   -0.8641 H   0  0  0  0  0  0  0  0  0  0  0  0
   -0.4118   -0.2573   -0.6364 H   0  0  0  0  0  0  0  0  0  0  0  0
    0.3682    1.4944    0.8878 H   0  0  0  0  0  0  0  0  0  0  0  0
    1.7991    0.4909    1.0977 H   0  0  0  0  0  0  0  0  0  0  0  0
    3.0391    1.8539   -0.5407 H   0  0  0  0  0  0  0  0  0  0  0  0
    2.1959    3.0581    0.4268 H   0  0  0  0  0  0  0  0  0  0  0  0
    0.3682    3.1715   -1.1995 H   0  0  0  0  0  0  0  0  0  0  0  0
    1.7991    3.1602   -2.2247 H   0  0  0  0  0  0  0  0  0  0  0  0
   -0.2126    1.2911   -2.4938 H   0  0  0  0  0  0  0  0  0  0  0  0
    1.4623    0.8147   -4.1086 H   0  0  0  0  0  0  0  0  0  0  0  0
    2.7548    0.9958   -2.9290 H   0  0  0  0  0  0  0  0  0  0  0  0
  1  2  1  0
  1 10  1  0
  1 11  1  0
  1 12  1  0
  2  3  1  0
  2  4  1  0
  3 13  1  0
  3 14  1  0
  3 15  1  0
  4  5  2  0
  4  9  1  0
  5  6  1  0
  5 16  1  0
  6  7  2  0
  6 17  1  0
  7  8  1  0
  7 18  1  0
  8  9  2  0
  8 19  1  0
  9 20  1  0
 21 22  1  0
 21 28  1  0
 21 29  1  0
 21 30  1  0
 22 23  1  0
 22 31  1  0
 22 32  1  0
 23 24  1  0
 23 27  1  0
 23 33  1  0
 24 25  1  0
 24 34  1  0
 24 35  1  0
 25 26  1  0
 25 36  1  0
 25 37  1  0
 26 27  1  0
 26 38  1  0
 26 39  1  0
 27 28  1  0
 27 40  1  0
 28 41  1  0
 28 42  1  0
M  RAD  1   2   2
M  END
>  <reaction>  (15) 
rxn_571

>  <mol_properties>  (15) 
{"1": {"label": "*1", "atom_type": "Cs"}, "3": {"label": "*0", "atom_type": "Cd"}, "22": {"label": "*3", "atom_type": "Cs"}, "26": {"label": "*4", "atom_type": "Cs"}, "32": {"label": "*2", "atom_type": "H0"}}

>  <type>  (15) 
unop_11

>  <geom_source>  (15) 
Heuristics

$$$$

     RDKit          3D

 42 43  0  0  0  0  0  0  0  0999 V2000
   -0.7492   -2.6000    0.7903 C   0  0  0  0  0  0  0  0  0  0  0  0
   -0.8277   -1.0917    1.0325 C   0  0  0  0  0  3  0  0  0  0  0  0
   -1.2214   -0.7872    2.4790 C   0  0  0  0  0  0  0  0  0  0  0  0
   -1.7578   -0.4158    0.0469 C   0  0  0  0  0  0  0  0  0  0  0  0
   -3.1143   -0.7303    0.0051 C   0  0  0  0  0  0  0  0  0  0  0  0
   -3.9632   -0.1110   -0.8970 C   0  0  0  0  0  0  0  0  0  0  0  0
   -3.4706    0.8396   -1.7798 C   0  0  0  0  0  0  0  0  0  0  0  0
   -2.1241    1.1624   -1.7498 C   0  0  0  0  0  0  0  0  0  0  0  0
   -1.2788    0.5382   -0.8434 C   0  0  0  0  0  0  0  0  0  0  0  0
   -0.4463   -2.8186   -0.2347 H   0  0  0  0  0  0  0  0  0  0  0  0
   -0.0276   -3.0610    1.4680 H   0  0  0  0  0  0  0  0  0  0  0  0
   -1.7178   -3.0752    0.9618 H   0  0  0  0  0  0  0  0  0  0  0  0
   -2.2070   -1.1971    2.7112 H   0  0  0  0  0  0  0  0  0  0  0  0
   -0.5045   -1.2299    3.1736 H   0  0  0  0  0  0  0  0  0  0  0  0
   -1.2555    0.2883    2.6593 H   0  0  0  0  0  0  0  0  0  0  0  0
   -3.5159   -1.4706    0.6876 H   0  0  0  0  0  0  0  0  0  0  0  0
   -5.0145   -0.3710   -0.9119 H   0  0  0  0  0  0  0  0  0  0  0  0
   -4.1334    1.3243   -2.4855 H   0  0  0  0  0  0  0  0  0  0  0  0
   -1.7273    1.9026   -2.4336 H   0  0  0  0  0  0  0  0  0  0  0  0
   -0.2260    0.7975   -0.8273 H   0  0  0  0  0  0  0  0  0  0  0  0
    2.5289   -1.2324   -1.2802 C   0  0  0  0  0  0  0  0  0  0  0  0
    2.5289   -1.2324    0.2463 C   0  0  0  0  0  0  0  0  0  0  0  0
    1.5656   -0.0977    0.6346 C   0  0  0  0  0  0  0  0  0  0  0  0
    2.0183    0.7409    1.8391 C   0  0  0  0  0  0  0  0  0  0  0  0
    2.8303    1.8791    1.2197 C   0  0  0  0  0  0  0  0  0  0  0  0
    2.0183    2.2387   -0.0252 C   0  0  0  0  0  0  0  0  0  0  0  0
    1.5656    0.8819   -0.5846 C   0  0  0  0  0  0  0  0  0  0  0  0
    2.5289    0.2582   -1.6090 C   0  0  0  0  0  0  0  0  0  0  0  0
    3.3738   -1.7706   -1.7126 H   0  0  0  0  0  0  0  0  0  0  0  0
    1.6131   -1.6992   -1.6553 H   0  0  0  0  0  0  0  0  0  0  0  0
    2.2446   -2.1908    0.6828 H   0  0  0  0  0  0  0  0  0  0  0  0
    3.5371   -0.9998    0.6055 H   0  0  0  0  0  0  0  0  0  0  0  0
    0.3705   -0.5940    0.8333 H   0  0  0  0  0  0  0  0  0  0  0  0
    1.1505    1.1577    2.3575 H   0  0  0  0  0  0  0  0  0  0  0  0
    2.5814    0.1542    2.5673 H   0  0  0  0  0  0  0  0  0  0  0  0
    3.8214    1.5173    0.9290 H   0  0  0  0  0  0  0  0  0  0  0  0
    2.9783    2.7214    1.8964 H   0  0  0  0  0  0  0  0  0  0  0  0
    1.1505    2.8348    0.2701 H   0  0  0  0  0  0  0  0  0  0  0  0
    2.5814    2.8235   -0.7551 H   0  0  0  0  0  0  0  0  0  0  0  0
    0.5697    0.9545   -1.0242 H   0  0  0  0  0  0  0  0  0  0  0  0
    2.2446    0.4781   -2.6390 H   0  0  0  0  0  0  0  0  0  0  0  0
    3.5371    0.6591   -1.4593 H   0  0  0  0  0  0  0  0  0  0  0  0
  1  2  1  0
  1 10  1  0
  1 11  1  0
  1 12  1  0
  2  3  1  0
  2  4  1  0
  3 13  1  0
  3 14  1  0
  3 15  1  0
  4  5  2  0
  4  9  1  0
  5  6  1  0
  5 16  1  0
  6  7  2  0
  6 17  1  0
  7  8  1  0
  7 18  1  0
  8  9  2  0
  8 19  1  0
  9 20  1  0
 21 22  1  0
 21 28  1  0
 21 29  1  0
 21 30  1  0
 22 23  1  0
 22 31  1  0
 22 32  1  0
 23 24  1  0
 23 27  1  0
 23 33  1  0
 24 25  1  0
 24 34  1  0
 24 35  1  0
 25 26  1  0
 25 36  1  0
 25 37  1  0
 26 27  1  0
 26 38  1  0
 26 39  1  0
 27 28  1  0
 27 40  1  0
 28 41  1  0
 28 42  1  0
M  RAD  1   2   2
M  END
>  <reaction>  (16) 
rxn_571

>  <mol_properties>  (16) 
{"1": {"label": "*1", "atom_type": "Cs"}, "3": {"label": "*0", "atom_type": "Cd"}, "22": {"label": "*3", "atom_type": "Cs"}, "26": {"label": "*4", "atom_type": "Cs"}, "32": {"label": "*2", "atom_type": "H0"}}

>  <type>  (16) 
unop_12

>  <geom_source>  (16) 
Heuristics

$$$$

     RDKit          3D

 42 43  0  0  0  0  0  0  0  0999 V2000
   -2.6167    0.1711    0.3901 C   0  0  0  0  0  0  0  0  0  0  0  0
    0.9751    0.8392    0.5061 C   0  0  0  0  0  0  0  0  0  0  0  0
   -3.1757    1.1463   -0.6509 C   0  0  0  0  0  0  0  0  0  0  0  0
   -3.4597   -1.0894    0.6085 C   0  0  0  0  0  0  0  0  0  0  0  0
   -1.9734    1.5981   -1.4634 C   0  0  0  0  0  0  0  0  0  0  0  0
   -2.4597   -2.2308    0.6937 C   0  0  0  0  0  0  0  0  0  0  0  0
   -1.0180    0.4165   -1.4573 C   0  0  0  0  0  0  0  0  0  0  0  0
   -1.3017   -1.8171   -0.1989 C   0  0  0  0  0  0  0  0  0  0  0  0
    0.6529    0.7715    2.0024 C   0  0  0  0  0  0  0  0  0  0  0  0
    1.0606    2.2910    0.0237 C   0  0  0  0  0  0  0  0  0  0  0  0
   -1.2622   -0.2907   -0.1243 C   0  0  0  0  0  3  0  0  0  0  0  0
    2.2469    0.0797    0.1849 C   0  0  0  0  0  0  0  0  0  0  0  0
    2.2019   -1.0305   -0.6769 C   0  0  0  0  0  0  0  0  0  0  0  0
    3.4849    0.4654    0.7361 C   0  0  0  0  0  0  0  0  0  0  0  0
    3.3689   -1.7388   -0.9804 C   0  0  0  0  0  0  0  0  0  0  0  0
    4.5906   -1.3474   -0.4281 C   0  0  0  0  0  0  0  0  0  0  0  0
    4.6484   -0.2465    0.4292 C   0  0  0  0  0  0  0  0  0  0  0  0
   -0.0462    0.2829   -0.1315 H   0  0  0  0  0  0  0  0  0  0  0  0
   -2.4578    0.6961    1.3579 H   0  0  0  0  0  0  0  0  0  0  0  0
   -3.6746    2.0113   -0.1627 H   0  0  0  0  0  0  0  0  0  0  0  0
   -3.9015    0.6533   -1.3340 H   0  0  0  0  0  0  0  0  0  0  0  0
   -2.2641    1.8816   -2.4983 H   0  0  0  0  0  0  0  0  0  0  0  0
   -1.4929    2.4694   -0.9653 H   0  0  0  0  0  0  0  0  0  0  0  0
   -4.0590   -1.0142    1.5416 H   0  0  0  0  0  0  0  0  0  0  0  0
   -4.1471   -1.2820   -0.2439 H   0  0  0  0  0  0  0  0  0  0  0  0
   -2.9085   -3.1915    0.3598 H   0  0  0  0  0  0  0  0  0  0  0  0
   -2.1035   -2.3368    1.7425 H   0  0  0  0  0  0  0  0  0  0  0  0
   -1.2496   -0.2381   -2.3258 H   0  0  0  0  0  0  0  0  0  0  0  0
    0.0369    0.7562   -1.5269 H   0  0  0  0  0  0  0  0  0  0  0  0
   -0.3445   -2.2465    0.1651 H   0  0  0  0  0  0  0  0  0  0  0  0
   -1.4959   -2.1798   -1.2319 H   0  0  0  0  0  0  0  0  0  0  0  0
    1.4267    1.2935    2.6044 H   0  0  0  0  0  0  0  0  0  0  0  0
    0.5945   -0.2884    2.3295 H   0  0  0  0  0  0  0  0  0  0  0  0
   -0.3306    1.2488    2.1983 H   0  0  0  0  0  0  0  0  0  0  0  0
    0.0852    2.7983    0.1805 H   0  0  0  0  0  0  0  0  0  0  0  0
    1.2933    2.3160   -1.0621 H   0  0  0  0  0  0  0  0  0  0  0  0
    1.8449    2.8522    0.5746 H   0  0  0  0  0  0  0  0  0  0  0  0
    1.2662   -1.3517   -1.1164 H   0  0  0  0  0  0  0  0  0  0  0  0
    3.3256   -2.5923   -1.6447 H   0  0  0  0  0  0  0  0  0  0  0  0
    5.4924   -1.8973   -0.6645 H   0  0  0  0  0  0  0  0  0  0  0  0
    5.5956    0.0560    0.8567 H   0  0  0  0  0  0  0  0  0  0  0  0
    3.5518    1.3154    1.4027 H   0  0  0  0  0  0  0  0  0  0  0  0
  1  3  1  0
  1  4  1  0
  1 11  1  0
  1 19  1  0
  2  9  1  0
  2 10  1  0
  2 12  1  0
  2 18  1  0
  3  5  1  0
  3 20  1  0
  3 21  1  0
  4  6  1  0
  4 24  1  0
  4 25  1  0
  5  7  1  0
  5 22  1  0
  5 23  1  0
  6  8  1  0
  6 26  1  0
  6 27  1  0
  7 11  1  0
  7 28  1  0
  7 29  1  0
  8 11  1  0
  8 30  1  0
  8 31  1  0
  9 32  1  0
  9 33  1  0
  9 34  1  0
 10 35  1  0
 10 36  1  0
 10 37  1  0
 12 13  2  0
 12 14  1  0
 13 15  1  0
 13 38  1  0
 14 17  2  0
 14 42  1  0
 15 16  2  0
 15 39  1  0
 16 17  1  0
 16 40  1  0
 17 41  1  0
M  RAD  1  11   2
M  END
>  <reaction>  (17) 
rxn_571

>  <mol_properties>  (17) 
{"1": {"label": "*1", "atom_type": "Cs"}, "3": {"label": "*0", "atom_type": "Cd"}, "22": {"label": "*3", "atom_type": "Cs"}, "26": {"label": "*4", "atom_type": "Cs"}, "32": {"label": "*2", "atom_type": "H0"}}

>  <type>  (17) 
unop_13

>  <geom_source>  (17) 
AutoTST

$$$$

     RDKit          3D

 42 43  0  0  0  0  0  0  0  0999 V2000
   -0.5746   -2.1951    1.5530 C   0  0  0  0  0  0  0  0  0  0  0  0
   -0.7463   -0.7607    1.0500 C   0  0  0  0  0  3  0  0  0  0  0  0
   -1.0110    0.2004    2.2102 C   0  0  0  0  0  0  0  0  0  0  0  0
   -1.8237   -0.6662   -0.0100 C   0  0  0  0  0  0  0  0  0  0  0  0
   -3.1483   -0.9868    0.2791 C   0  0  0  0  0  0  0  0  0  0  0  0
   -4.1321   -0.8996   -0.6917 C   0  0  0  0  0  0  0  0  0  0  0  0
   -3.8100   -0.4883   -1.9772 C   0  0  0  0  0  0  0  0  0  0  0  0
   -2.4972   -0.1663   -2.2793 C   0  0  0  0  0  0  0  0  0  0  0  0
   -1.5161   -0.2557   -1.3018 C   0  0  0  0  0  0  0  0  0  0  0  0
   -0.3631   -2.8782    0.7291 H   0  0  0  0  0  0  0  0  0  0  0  0
    0.2473   -2.2553    2.2694 H   0  0  0  0  0  0  0  0  0  0  0  0
   -1.4799   -2.5453    2.0544 H   0  0  0  0  0  0  0  0  0  0  0  0
   -1.9319   -0.0636    2.7352 H   0  0  0  0  0  0  0  0  0  0  0  0
   -0.1935    0.1644    2.9333 H   0  0  0  0  0  0  0  0  0  0  0  0
   -1.1110    1.2272    1.8554 H   0  0  0  0  0  0  0  0  0  0  0  0
   -3.4176   -1.3099    1.2782 H   0  0  0  0  0  0  0  0  0  0  0  0
   -5.1555   -1.1538   -0.4446 H   0  0  0  0  0  0  0  0  0  0  0  0
   -4.5783   -0.4198   -2.7369 H   0  0  0  0  0  0  0  0  0  0  0  0
   -2.2329    0.1561   -3.2788 H   0  0  0  0  0  0  0  0  0  0  0  0
   -0.4911   -0.0015   -1.5477 H   0  0  0  0  0  0  0  0  0  0  0  0
    2.6103   -0.9015   -1.2627 C   0  0  0  0  0  0  0  0  0  0  0  0
    2.6103   -0.9015    0.2638 C   0  0  0  0  0  0  0  0  0  0  0  0
    1.6470    0.2333    0.6521 C   0  0  0  0  0  0  0  0  0  0  0  0
    2.0997    1.0718    1.8566 C   0  0  0  0  0  0  0  0  0  0  0  0
    2.9117    2.2100    1.2372 C   0  0  0  0  0  0  0  0  0  0  0  0
    2.0997    2.5697   -0.0077 C   0  0  0  0  0  0  0  0  0  0  0  0
    1.6470    1.2128   -0.5671 C   0  0  0  0  0  0  0  0  0  0  0  0
    2.6103    0.5891   -1.5915 C   0  0  0  0  0  0  0  0  0  0  0  0
    3.4552   -1.4397   -1.6951 H   0  0  0  0  0  0  0  0  0  0  0  0
    1.6945   -1.3683   -1.6377 H   0  0  0  0  0  0  0  0  0  0  0  0
    2.3260   -1.8598    0.7004 H   0  0  0  0  0  0  0  0  0  0  0  0
    3.6185   -0.6689    0.6230 H   0  0  0  0  0  0  0  0  0  0  0  0
    0.4519   -0.2631    0.8508 H   0  0  0  0  0  0  0  0  0  0  0  0
    1.2319    1.4887    2.3750 H   0  0  0  0  0  0  0  0  0  0  0  0
    2.6628    0.4851    2.5848 H   0  0  0  0  0  0  0  0  0  0  0  0
    3.9028    1.8482    0.9465 H   0  0  0  0  0  0  0  0  0  0  0  0
    3.0596    3.0524    1.9139 H   0  0  0  0  0  0  0  0  0  0  0  0
    1.2319    3.1657    0.2876 H   0  0  0  0  0  0  0  0  0  0  0  0
    2.6628    3.1544   -0.7376 H   0  0  0  0  0  0  0  0  0  0  0  0
    0.6511    1.2854   -1.0067 H   0  0  0  0  0  0  0  0  0  0  0  0
    2.3260    0.8090   -2.6214 H   0  0  0  0  0  0  0  0  0  0  0  0
    3.6185    0.9901   -1.4418 H   0  0  0  0  0  0  0  0  0  0  0  0
  1  2  1  0
  1 10  1  0
  1 11  1  0
  1 12  1  0
  2  3  1  0
  2  4  1  0
  3 13  1  0
  3 14  1  0
  3 15  1  0
  4  5  2  0
  4  9  1  0
  5  6  1  0
  5 16  1  0
  6  7  2  0
  6 17  1  0
  7  8  1  0
  7 18  1  0
  8  9  2  0
  8 19  1  0
  9 20  1  0
 21 22  1  0
 21 28  1  0
 21 29  1  0
 21 30  1  0
 22 23  1  0
 22 31  1  0
 22 32  1  0
 23 24  1  0
 23 27  1  0
 23 33  1  0
 24 25  1  0
 24 34  1  0
 24 35  1  0
 25 26  1  0
 25 36  1  0
 25 37  1  0
 26 27  1  0
 26 38  1  0
 26 39  1  0
 27 28  1  0
 27 40  1  0
 28 41  1  0
 28 42  1  0
M  RAD  1   2   2
M  END
>  <reaction>  (18) 
rxn_571

>  <mol_properties>  (18) 
{"1": {"label": "*1", "atom_type": "Cs"}, "3": {"label": "*0", "atom_type": "Cd"}, "22": {"label": "*3", "atom_type": "Cs"}, "26": {"label": "*4", "atom_type": "Cs"}, "32": {"label": "*2", "atom_type": "H0"}}

>  <type>  (18) 
unop_14

>  <geom_source>  (18) 
gaussian_log

$$$$
