
     RDKit          3D

  6  5  0  0  0  0  0  0  0  0999 V2000
   -0.5072   -0.0291   -0.0097 C   0  0  0  0  0  0  0  0  0  0  0  0
    1.1321   -0.1527   -0.7687 S   0  0  0  0  0  0  0  0  0  0  0  0
   -0.6174   -0.7330    0.8127 H   0  0  0  0  0  0  0  0  0  0  0  0
   -0.5863    0.9827    0.3845 H   0  0  0  0  0  0  0  0  0  0  0  0
   -1.2962   -0.1800   -0.7434 H   0  0  0  0  0  0  0  0  0  0  0  0
    1.0312   -1.4237   -1.1764 H   0  0  0  0  0  0  0  0  0  0  0  0
  1  2  1  0
  1  3  1  0
  1  4  1  0
  1  5  1  0
  2  6  1  0
M  END
>  <reaction>  (1) 
rxn_1809

>  <mol_properties>  (1) 
{"0": {"label": "donator", "atom_type": "Cs"}, "2": {"label": "d_hydrogen", "atom_type": "H0"}}

>  <type>  (1) 
r1h

$$$$

     RDKit          3D

 11 10  0  0  0  0  0  0  0  0999 V2000
    2.0591    0.2533   -0.1061 C   0  0  0  0  0  0  0  0  0  0  0  0
    0.8045   -0.3111   -0.1535 C   0  0  0  0  0  0  0  0  0  0  0  0
   -0.3816    0.3942   -0.1885 C   0  0  0  0  0  3  0  0  0  0  0  0
   -1.7316   -0.2294   -0.2396 C   0  0  0  0  0  0  0  0  0  0  0  0
    2.9505   -0.3576   -0.0805 H   0  0  0  0  0  0  0  0  0  0  0  0
    2.1872    1.3290   -0.0933 H   0  0  0  0  0  0  0  0  0  0  0  0
    0.7385   -1.3970   -0.1643 H   0  0  0  0  0  0  0  0  0  0  0  0
   -0.3340    1.4795   -0.1783 H   0  0  0  0  0  0  0  0  0  0  0  0
   -1.6704   -1.3186   -0.2461 H   0  0  0  0  0  0  0  0  0  0  0  0
   -2.3404    0.0713    0.6191 H   0  0  0  0  0  0  0  0  0  0  0  0
   -2.2805    0.0851   -1.1331 H   0  0  0  0  0  0  0  0  0  0  0  0
  1  2  2  3
  1  5  1  0
  1  6  1  0
  2  3  1  0
  2  7  1  0
  3  4  1  0
  3  8  1  0
  4  9  1  0
  4 10  1  0
  4 11  1  0
M  RAD  1   3   2
M  END
>  <reaction>  (2) 
rxn_1809

>  <mol_properties>  (2) 
{"2": {"label": "acceptor", "atom_type": "Cs"}}

>  <type>  (2) 
r2

$$$$

     RDKit          3D

 12 11  0  0  0  0  0  0  0  0999 V2000
    1.9877    0.1011    0.4814 C   0  0  0  0  0  0  0  0  0  0  0  0
    0.8179    0.5502    0.0525 C   0  0  0  0  0  0  0  0  0  0  0  0
   -0.2939   -0.2692   -0.5320 C   0  0  0  0  0  0  0  0  0  0  0  0
   -0.0292   -1.7631   -0.6328 C   0  0  0  0  0  0  0  0  0  0  0  0
    2.2522   -0.9490    0.4436 H   0  0  0  0  0  0  0  0  0  0  0  0
    2.7295    0.7757    0.8896 H   0  0  0  0  0  0  0  0  0  0  0  0
    0.6162    1.6164    0.1190 H   0  0  0  0  0  0  0  0  0  0  0  0
   -0.5268    0.1319   -1.5245 H   0  0  0  0  0  0  0  0  0  0  0  0
   -1.1959   -0.0938    0.0644 H   0  0  0  0  0  0  0  0  0  0  0  0
    0.1590   -2.1992    0.3502 H   0  0  0  0  0  0  0  0  0  0  0  0
    0.8382   -1.9701   -1.2626 H   0  0  0  0  0  0  0  0  0  0  0  0
   -0.8879   -2.2759   -1.0672 H   0  0  0  0  0  0  0  0  0  0  0  0
  1  2  2  3
  1  5  1  0
  1  6  1  0
  2  3  1  0
  2  7  1  0
  3  4  1  0
  3  8  1  0
  3  9  1  0
  4 10  1  0
  4 11  1  0
  4 12  1  0
M  END
>  <reaction>  (3) 
rxn_1809

>  <mol_properties>  (3) 
{"0": {"label": "a_hydrogen", "atom_type": "H0"}, "3": {"label": "acceptor", "atom_type": "Cs"}}

>  <type>  (3) 
r2h

$$$$

     RDKit          3D

 17 15  0  0  0  0  0  0  0  0999 V2000
    0.3071   -1.6376    0.1910 C   0  0  0  0  0  3  0  0  0  0  0  0
   -0.5273   -1.6879   -1.3562 S   0  0  0  0  0  0  0  0  0  0  0  0
   -0.0950   -0.4567    0.8565 H   0  0  0  0  0  0  0  0  0  0  0  0
   -0.0185   -2.4519    0.8317 H   0  0  0  0  0  0  0  0  0  0  0  0
    1.3875   -1.5342    0.1399 H   0  0  0  0  0  0  0  0  0  0  0  0
    0.0312   -0.5884   -1.8809 H   0  0  0  0  0  0  0  0  0  0  0  0
   -0.0600    2.4239   -0.3903 C   0  0  0  0  0  0  0  0  0  0  0  0
   -0.7885    1.5214    0.2722 C   0  0  0  0  0  0  0  0  0  0  0  0
   -0.3326    0.6976    1.3922 C   0  0  0  0  0  0  0  0  0  0  0  0
    0.9574    1.0654    2.0843 C   0  0  0  0  0  0  0  0  0  0  0  0
   -0.4727    2.9646   -1.2321 H   0  0  0  0  0  0  0  0  0  0  0  0
    0.9570    2.6657   -0.1051 H   0  0  0  0  0  0  0  0  0  0  0  0
   -1.8041    1.3337   -0.0642 H   0  0  0  0  0  0  0  0  0  0  0  0
   -1.1386    0.4454    2.0814 H   0  0  0  0  0  0  0  0  0  0  0  0
    0.8985    2.0586    2.5380 H   0  0  0  0  0  0  0  0  0  0  0  0
    1.1910    0.3482    2.8721 H   0  0  0  0  0  0  0  0  0  0  0  0
    1.7962    1.0732    1.3846 H   0  0  0  0  0  0  0  0  0  0  0  0
  1  2  1  0
  1  4  1  0
  1  5  1  0
  2  6  1  0
  3  9  1  0
  7  8  2  3
  7 11  1  0
  7 12  1  0
  8  9  1  0
  8 13  1  0
  9 10  1  0
  9 14  1  0
 10 15  1  0
 10 16  1  0
 10 17  1  0
M  RAD  1   1   2
M  END
>  <reaction>  (4) 
rxn_1809

>  <mol_properties>  (4) 
{"0": {"label": "*3", "atom_type": "Cs"}, "1": {"label": "*4", "atom_type": "S2s"}, "2": {"label": "*2", "atom_type": "H0"}, "7": {"label": "*0", "atom_type": "Cd"}, "8": {"label": "*1", "atom_type": "Cs"}}

>  <type>  (4) 
ts

$$$$

     RDKit          3D

 17 15  0  0  0  0  0  0  0  0999 V2000
    0.2853   -1.7045   -0.1527 C   0  0  0  0  0  0  0  0  0  0  0  0
    0.2853   -1.7045   -1.9634 S   0  0  0  0  0  0  0  0  0  0  0  0
    0.2853   -0.4887    0.3231 H   0  0  0  0  0  0  0  0  0  0  0  0
   -0.6354   -2.1986    0.1532 H   0  0  0  0  0  0  0  0  0  0  0  0
    1.1296   -2.2645    0.2438 H   0  0  0  0  0  0  0  0  0  0  0  0
    1.4556   -1.0764   -2.1298 H   0  0  0  0  0  0  0  0  0  0  0  0
   -1.4933    2.0580    2.0094 C   0  0  0  0  0  0  0  0  0  0  0  0
   -0.9492    0.9099    1.6357 C   0  0  0  0  0  0  0  0  0  0  0  0
    0.2853    0.7356    0.8021 C   0  0  0  0  0  3  0  0  0  0  0  0
    0.9636    2.0198    0.3522 C   0  0  0  0  0  0  0  0  0  0  0  0
   -2.3906    2.0802    2.6147 H   0  0  0  0  0  0  0  0  0  0  0  0
   -1.0702    3.0156    1.7297 H   0  0  0  0  0  0  0  0  0  0  0  0
   -1.4246   -0.0157    1.9508 H   0  0  0  0  0  0  0  0  0  0  0  0
    0.9948    0.1226    1.3686 H   0  0  0  0  0  0  0  0  0  0  0  0
    1.2800    2.6211    1.2067 H   0  0  0  0  0  0  0  0  0  0  0  0
    1.8481    1.7968   -0.2456 H   0  0  0  0  0  0  0  0  0  0  0  0
    0.2932    2.6297   -0.2565 H   0  0  0  0  0  0  0  0  0  0  0  0
  1  2  1  0
  1  3  1  0
  1  4  1  0
  1  5  1  0
  2  6  1  0
  7  8  2  3
  7 11  1  0
  7 12  1  0
  8  9  1  0
  8 13  1  0
  9 10  1  0
  9 14  1  0
 10 15  1  0
 10 16  1  0
 10 17  1  0
M  RAD  1   9   2
M  END
>  <reaction>  (5) 
rxn_1809

>  <mol_properties>  (5) 
{"0": {"label": "*3", "atom_type": "Cs"}, "1": {"label": "*4", "atom_type": "S2s"}, "2": {"label": "*2", "atom_type": "H0"}, "7": {"label": "*0", "atom_type": "Cd"}, "8": {"label": "*1", "atom_type": "Cs"}}

>  <type>  (5) 
unop_1

>  <geom_source>  (5) 
Heuristics

$$$$

     RDKit          3D

 17 15  0  0  0  0  0  0  0  0999 V2000
   -0.0420   -1.8085    0.2569 C   0  0  0  0  0  0  0  0  0  0  0  0
   -0.0420   -1.8085   -1.5537 S   0  0  0  0  0  0  0  0  0  0  0  0
   -0.0420   -0.5927    0.7327 H   0  0  0  0  0  0  0  0  0  0  0  0
   -0.9626   -2.3027    0.5629 H   0  0  0  0  0  0  0  0  0  0  0  0
    0.8024   -2.3685    0.6534 H   0  0  0  0  0  0  0  0  0  0  0  0
    1.1284   -1.1804   -1.7201 H   0  0  0  0  0  0  0  0  0  0  0  0
   -0.4281    2.7570   -0.0931 C   0  0  0  0  0  0  0  0  0  0  0  0
   -0.7547    1.5154    0.2321 C   0  0  0  0  0  0  0  0  0  0  0  0
   -0.0420    0.6316    1.2118 C   0  0  0  0  0  3  0  0  0  0  0  0
    1.1750    1.2433    1.8875 C   0  0  0  0  0  0  0  0  0  0  0  0
   -1.0087    3.3164   -0.8157 H   0  0  0  0  0  0  0  0  0  0  0  0
    0.4246    3.2631    0.3439 H   0  0  0  0  0  0  0  0  0  0  0  0
   -1.6228    1.0664   -0.2440 H   0  0  0  0  0  0  0  0  0  0  0  0
   -0.7644    0.3132    1.9713 H   0  0  0  0  0  0  0  0  0  0  0  0
    0.9062    2.1370    2.4540 H   0  0  0  0  0  0  0  0  0  0  0  0
    1.6270    0.5321    2.5797 H   0  0  0  0  0  0  0  0  0  0  0  0
    1.9340    1.5266    1.1556 H   0  0  0  0  0  0  0  0  0  0  0  0
  1  2  1  0
  1  3  1  0
  1  4  1  0
  1  5  1  0
  2  6  1  0
  7  8  2  3
  7 11  1  0
  7 12  1  0
  8  9  1  0
  8 13  1  0
  9 10  1  0
  9 14  1  0
 10 15  1  0
 10 16  1  0
 10 17  1  0
M  RAD  1   9   2
M  END
>  <reaction>  (6) 
rxn_1809

>  <mol_properties>  (6) 
{"0": {"label": "*3", "atom_type": "Cs"}, "1": {"label": "*4", "atom_type": "S2s"}, "2": {"label": "*2", "atom_type": "H0"}, "7": {"label": "*0", "atom_type": "Cd"}, "8": {"label": "*1", "atom_type": "Cs"}}

>  <type>  (6) 
unop_2

>  <geom_source>  (6) 
Heuristics

$$$$

     RDKit          3D

 17 15  0  0  0  0  0  0  0  0999 V2000
    0.2777   -1.6389   -0.2516 C   0  0  0  0  0  0  0  0  0  0  0  0
    0.2777   -1.6389   -2.0623 S   0  0  0  0  0  0  0  0  0  0  0  0
    0.2777   -0.4231    0.2242 H   0  0  0  0  0  0  0  0  0  0  0  0
   -0.6430   -2.1330    0.0543 H   0  0  0  0  0  0  0  0  0  0  0  0
    1.1220   -2.1989    0.1449 H   0  0  0  0  0  0  0  0  0  0  0  0
    1.4480   -1.0108   -2.2287 H   0  0  0  0  0  0  0  0  0  0  0  0
   -1.1211    1.7822    2.5608 C   0  0  0  0  0  0  0  0  0  0  0  0
   -0.4351    0.7854    2.0227 C   0  0  0  0  0  0  0  0  0  0  0  0
    0.2777    0.8012    0.7032 C   0  0  0  0  0  3  0  0  0  0  0  0
    0.1902    2.1029   -0.0777 C   0  0  0  0  0  0  0  0  0  0  0  0
   -1.6029    1.6727    3.5241 H   0  0  0  0  0  0  0  0  0  0  0  0
   -1.2300    2.7408    2.0675 H   0  0  0  0  0  0  0  0  0  0  0  0
   -0.3649   -0.1508    2.5709 H   0  0  0  0  0  0  0  0  0  0  0  0
    1.3285    0.5475    0.8809 H   0  0  0  0  0  0  0  0  0  0  0  0
    0.6188    2.9332    0.4870 H   0  0  0  0  0  0  0  0  0  0  0  0
    0.7349    2.0223   -1.0190 H   0  0  0  0  0  0  0  0  0  0  0  0
   -0.8458    2.3561   -0.3110 H   0  0  0  0  0  0  0  0  0  0  0  0
  1  2  1  0
  1  3  1  0
  1  4  1  0
  1  5  1  0
  2  6  1  0
  7  8  2  3
  7 11  1  0
  7 12  1  0
  8  9  1  0
  8 13  1  0
  9 10  1  0
  9 14  1  0
 10 15  1  0
 10 16  1  0
 10 17  1  0
M  RAD  1   9   2
M  END
>  <reaction>  (7) 
rxn_1809

>  <mol_properties>  (7) 
{"0": {"label": "*3", "atom_type": "Cs"}, "1": {"label": "*4", "atom_type": "S2s"}, "2": {"label": "*2", "atom_type": "H0"}, "7": {"label": "*0", "atom_type": "Cd"}, "8": {"label": "*1", "atom_type": "Cs"}}

>  <type>  (7) 
unop_3

>  <geom_source>  (7) 
Heuristics

$$$$

     RDKit          3D

 17 15  0  0  0  0  0  0  0  0999 V2000
   -0.5147   -1.4056   -0.0964 C   0  0  0  0  0  0  0  0  0  0  0  0
   -0.5147   -1.4056   -1.9070 S   0  0  0  0  0  0  0  0  0  0  0  0
   -0.5147   -0.1898    0.3794 H   0  0  0  0  0  0  0  0  0  0  0  0
   -1.4354   -1.8998    0.2095 H   0  0  0  0  0  0  0  0  0  0  0  0
    0.3296   -1.9656    0.3001 H   0  0  0  0  0  0  0  0  0  0  0  0
    0.6556   -0.7775   -2.0734 H   0  0  0  0  0  0  0  0  0  0  0  0
    1.8921    1.7844    0.9781 C   0  0  0  0  0  0  0  0  0  0  0  0
    0.7197    1.7282    0.3646 C   0  0  0  0  0  0  0  0  0  0  0  0
   -0.5147    1.0344    0.8584 C   0  0  0  0  0  3  0  0  0  0  0  0
   -0.3838    0.3318    2.2005 C   0  0  0  0  0  0  0  0  0  0  0  0
    2.7281    2.3131    0.5380 H   0  0  0  0  0  0  0  0  0  0  0  0
    2.0656    1.3097    1.9366 H   0  0  0  0  0  0  0  0  0  0  0  0
    0.6130    2.2265   -0.5957 H   0  0  0  0  0  0  0  0  0  0  0  0
   -1.3238    1.7716    0.9055 H   0  0  0  0  0  0  0  0  0  0  0  0
   -0.1172    1.0352    2.9916 H   0  0  0  0  0  0  0  0  0  0  0  0
   -1.3258   -0.1424    2.4782 H   0  0  0  0  0  0  0  0  0  0  0  0
    0.3844   -0.4432    2.1686 H   0  0  0  0  0  0  0  0  0  0  0  0
  1  2  1  0
  1  3  1  0
  1  4  1  0
  1  5  1  0
  2  6  1  0
  7  8  2  3
  7 11  1  0
  7 12  1  0
  8  9  1  0
  8 13  1  0
  9 10  1  0
  9 14  1  0
 10 15  1  0
 10 16  1  0
 10 17  1  0
M  RAD  1   9   2
M  END
>  <reaction>  (8) 
rxn_1809

>  <mol_properties>  (8) 
{"0": {"label": "*3", "atom_type": "Cs"}, "1": {"label": "*4", "atom_type": "S2s"}, "2": {"label": "*2", "atom_type": "H0"}, "7": {"label": "*0", "atom_type": "Cd"}, "8": {"label": "*1", "atom_type": "Cs"}}

>  <type>  (8) 
unop_4

>  <geom_source>  (8) 
Heuristics

$$$$

     RDKit          3D

 17 15  0  0  0  0  0  0  0  0999 V2000
    0.2755   -1.4865   -0.3585 C   0  0  0  0  0  0  0  0  0  0  0  0
    0.2755   -1.4865   -2.1691 S   0  0  0  0  0  0  0  0  0  0  0  0
    0.2755   -0.2707    0.1173 H   0  0  0  0  0  0  0  0  0  0  0  0
   -0.6452   -1.9807   -0.0525 H   0  0  0  0  0  0  0  0  0  0  0  0
    1.1198   -2.0465    0.0380 H   0  0  0  0  0  0  0  0  0  0  0  0
    1.4458   -0.8584   -2.3355 H   0  0  0  0  0  0  0  0  0  0  0  0
   -0.6126    1.4076    2.9147 C   0  0  0  0  0  0  0  0  0  0  0  0
    0.2755    0.8681    2.0936 C   0  0  0  0  0  0  0  0  0  0  0  0
    0.2755    0.9535    0.5964 C   0  0  0  0  0  3  0  0  0  0  0  0
   -0.8685    1.7440   -0.0188 C   0  0  0  0  0  0  0  0  0  0  0  0
   -0.5260    1.2893    3.9873 H   0  0  0  0  0  0  0  0  0  0  0  0
   -1.4559    1.9850    2.5546 H   0  0  0  0  0  0  0  0  0  0  0  0
    1.0983    0.3004    2.5209 H   0  0  0  0  0  0  0  0  0  0  0  0
    1.2324    1.3827    0.2798 H   0  0  0  0  0  0  0  0  0  0  0  0
   -0.8641    2.7801    0.3251 H   0  0  0  0  0  0  0  0  0  0  0  0
   -0.7872    1.7523   -1.1063 H   0  0  0  0  0  0  0  0  0  0  0  0
   -1.8355    1.3089    0.2412 H   0  0  0  0  0  0  0  0  0  0  0  0
  1  2  1  0
  1  3  1  0
  1  4  1  0
  1  5  1  0
  2  6  1  0
  7  8  2  3
  7 11  1  0
  7 12  1  0
  8  9  1  0
  8 13  1  0
  9 10  1  0
  9 14  1  0
 10 15  1  0
 10 16  1  0
 10 17  1  0
M  RAD  1   9   2
M  END
>  <reaction>  (9) 
rxn_1809

>  <mol_properties>  (9) 
{"0": {"label": "*3", "atom_type": "Cs"}, "1": {"label": "*4", "atom_type": "S2s"}, "2": {"label": "*2", "atom_type": "H0"}, "7": {"label": "*0", "atom_type": "Cd"}, "8": {"label": "*1", "atom_type": "Cs"}}

>  <type>  (9) 
unop_5

>  <geom_source>  (9) 
Heuristics

$$$$

     RDKit          3D

 17 15  0  0  0  0  0  0  0  0999 V2000
   -0.4051   -1.2815   -0.3023 C   0  0  0  0  0  0  0  0  0  0  0  0
   -0.4051   -1.2815   -2.1129 S   0  0  0  0  0  0  0  0  0  0  0  0
   -0.4051   -0.0657    0.1735 H   0  0  0  0  0  0  0  0  0  0  0  0
   -1.3258   -1.7757    0.0037 H   0  0  0  0  0  0  0  0  0  0  0  0
    0.4393   -1.8415    0.0942 H   0  0  0  0  0  0  0  0  0  0  0  0
    0.7652   -0.6534   -2.2793 H   0  0  0  0  0  0  0  0  0  0  0  0
    1.8007    1.3483    1.8642 C   0  0  0  0  0  0  0  0  0  0  0  0
    1.0203    1.5926    0.8224 C   0  0  0  0  0  0  0  0  0  0  0  0
   -0.4051    1.1585    0.6526 C   0  0  0  0  0  3  0  0  0  0  0  0
   -0.9925    0.3590    1.8048 C   0  0  0  0  0  0  0  0  0  0  0  0
    2.8220    1.7063    1.8934 H   0  0  0  0  0  0  0  0  0  0  0  0
    1.4566    0.7860    2.7242 H   0  0  0  0  0  0  0  0  0  0  0  0
    1.4283    2.1632   -0.0081 H   0  0  0  0  0  0  0  0  0  0  0  0
   -1.0141    2.0517    0.4752 H   0  0  0  0  0  0  0  0  0  0  0  0
   -0.9788    0.9334    2.7331 H   0  0  0  0  0  0  0  0  0  0  0  0
   -2.0277    0.0879    1.5946 H   0  0  0  0  0  0  0  0  0  0  0  0
   -0.4327   -0.5630    1.9733 H   0  0  0  0  0  0  0  0  0  0  0  0
  1  2  1  0
  1  3  1  0
  1  4  1  0
  1  5  1  0
  2  6  1  0
  7  8  2  3
  7 11  1  0
  7 12  1  0
  8  9  1  0
  8 13  1  0
  9 10  1  0
  9 14  1  0
 10 15  1  0
 10 16  1  0
 10 17  1  0
M  RAD  1   9   2
M  END
>  <reaction>  (10) 
rxn_1809

>  <mol_properties>  (10) 
{"0": {"label": "*3", "atom_type": "Cs"}, "1": {"label": "*4", "atom_type": "S2s"}, "2": {"label": "*2", "atom_type": "H0"}, "7": {"label": "*0", "atom_type": "Cd"}, "8": {"label": "*1", "atom_type": "Cs"}}

>  <type>  (10) 
unop_6

>  <geom_source>  (10) 
Heuristics

$$$$

     RDKit          3D

 17 15  0  0  0  0  0  0  0  0999 V2000
   -0.1779   -1.2284   -0.4430 C   0  0  0  0  0  0  0  0  0  0  0  0
   -0.1779   -1.2284   -2.2536 S   0  0  0  0  0  0  0  0  0  0  0  0
   -0.1779   -0.0126    0.0328 H   0  0  0  0  0  0  0  0  0  0  0  0
   -1.0986   -1.7225   -0.1370 H   0  0  0  0  0  0  0  0  0  0  0  0
    0.6665   -1.7884   -0.0465 H   0  0  0  0  0  0  0  0  0  0  0  0
    0.9924   -0.6003   -2.4200 H   0  0  0  0  0  0  0  0  0  0  0  0
    1.2010    1.0565    2.6200 C   0  0  0  0  0  0  0  0  0  0  0  0
    1.0566    1.3860    1.3454 C   0  0  0  0  0  0  0  0  0  0  0  0
   -0.1779    1.2117    0.5119 C   0  0  0  0  0  3  0  0  0  0  0  0
   -1.3711    0.5925    1.2223 C   0  0  0  0  0  0  0  0  0  0  0  0
    2.1373    1.2228    3.1374 H   0  0  0  0  0  0  0  0  0  0  0  0
    0.3984    0.6110    3.1957 H   0  0  0  0  0  0  0  0  0  0  0  0
    1.9023    1.8296    0.8258 H   0  0  0  0  0  0  0  0  0  0  0  0
   -0.4568    2.1910    0.1076 H   0  0  0  0  0  0  0  0  0  0  0  0
   -1.6855    1.2011    2.0724 H   0  0  0  0  0  0  0  0  0  0  0  0
   -2.2189    0.5048    0.5421 H   0  0  0  0  0  0  0  0  0  0  0  0
   -1.1359   -0.4065    1.5946 H   0  0  0  0  0  0  0  0  0  0  0  0
  1  2  1  0
  1  3  1  0
  1  4  1  0
  1  5  1  0
  2  6  1  0
  7  8  2  3
  7 11  1  0
  7 12  1  0
  8  9  1  0
  8 13  1  0
  9 10  1  0
  9 14  1  0
 10 15  1  0
 10 16  1  0
 10 17  1  0
M  RAD  1   9   2
M  END
>  <reaction>  (11) 
rxn_1809

>  <mol_properties>  (11) 
{"0": {"label": "*3", "atom_type": "Cs"}, "1": {"label": "*4", "atom_type": "S2s"}, "2": {"label": "*2", "atom_type": "H0"}, "7": {"label": "*0", "atom_type": "Cd"}, "8": {"label": "*1", "atom_type": "Cs"}}

>  <type>  (11) 
unop_7

>  <geom_source>  (11) 
Heuristics

$$$$

     RDKit          3D

 17 15  0  0  0  0  0  0  0  0999 V2000
    0.2726   -1.7609   -0.0100 C   0  0  0  0  0  0  0  0  0  0  0  0
    0.2726   -1.7609   -1.8206 S   0  0  0  0  0  0  0  0  0  0  0  0
    0.2726   -0.5451    0.4658 H   0  0  0  0  0  0  0  0  0  0  0  0
   -0.6481   -2.2550    0.2959 H   0  0  0  0  0  0  0  0  0  0  0  0
    1.1169   -2.3209    0.3865 H   0  0  0  0  0  0  0  0  0  0  0  0
    1.4429   -1.1328   -1.9870 H   0  0  0  0  0  0  0  0  0  0  0  0
   -1.5883    2.3566    1.2495 C   0  0  0  0  0  0  0  0  0  0  0  0
   -1.1529    1.1132    1.1147 C   0  0  0  0  0  0  0  0  0  0  0  0
    0.2726    0.6792    0.9448 C   0  0  0  0  0  3  0  0  0  0  0  0
    1.3043    1.7960    0.9287 C   0  0  0  0  0  0  0  0  0  0  0  0
   -2.6432    2.5695    1.3671 H   0  0  0  0  0  0  0  0  0  0  0  0
   -0.9167    3.2070    1.2482 H   0  0  0  0  0  0  0  0  0  0  0  0
   -1.8804    0.3055    1.1245 H   0  0  0  0  0  0  0  0  0  0  0  0
    0.5099   -0.0307    1.7448 H   0  0  0  0  0  0  0  0  0  0  0  0
    1.2889    2.3630    1.8615 H   0  0  0  0  0  0  0  0  0  0  0  0
    2.3079    1.3887    0.8016 H   0  0  0  0  0  0  0  0  0  0  0  0
    1.1200    2.4938    0.1096 H   0  0  0  0  0  0  0  0  0  0  0  0
  1  2  1  0
  1  3  1  0
  1  4  1  0
  1  5  1  0
  2  6  1  0
  7  8  2  3
  7 11  1  0
  7 12  1  0
  8  9  1  0
  8 13  1  0
  9 10  1  0
  9 14  1  0
 10 15  1  0
 10 16  1  0
 10 17  1  0
M  RAD  1   9   2
M  END
>  <reaction>  (12) 
rxn_1809

>  <mol_properties>  (12) 
{"0": {"label": "*3", "atom_type": "Cs"}, "1": {"label": "*4", "atom_type": "S2s"}, "2": {"label": "*2", "atom_type": "H0"}, "7": {"label": "*0", "atom_type": "Cd"}, "8": {"label": "*1", "atom_type": "Cs"}}

>  <type>  (12) 
unop_8

>  <geom_source>  (12) 
Heuristics

$$$$

     RDKit          3D

 17 15  0  0  0  0  0  0  0  0999 V2000
   -0.4780   -1.5686    0.1107 C   0  0  0  0  0  0  0  0  0  0  0  0
   -0.4780   -1.5686   -1.7000 S   0  0  0  0  0  0  0  0  0  0  0  0
   -0.4780   -0.3528    0.5864 H   0  0  0  0  0  0  0  0  0  0  0  0
   -1.3987   -2.0627    0.4166 H   0  0  0  0  0  0  0  0  0  0  0  0
    0.3663   -2.1286    0.5071 H   0  0  0  0  0  0  0  0  0  0  0  0
    0.6923   -0.9405   -1.8664 H   0  0  0  0  0  0  0  0  0  0  0  0
    1.4555    2.2524    0.2145 C   0  0  0  0  0  0  0  0  0  0  0  0
    0.2347    1.7554    0.0858 C   0  0  0  0  0  0  0  0  0  0  0  0
   -0.4780    0.8715    1.0655 C   0  0  0  0  0  3  0  0  0  0  0  0
    0.2982    0.5242    2.3260 C   0  0  0  0  0  0  0  0  0  0  0  0
    1.8851    2.8844   -0.5523 H   0  0  0  0  0  0  0  0  0  0  0  0
    2.0721    2.0515    1.0826 H   0  0  0  0  0  0  0  0  0  0  0  0
   -0.3309    1.9962   -0.8109 H   0  0  0  0  0  0  0  0  0  0  0  0
   -1.4230    1.3554    1.3359 H   0  0  0  0  0  0  0  0  0  0  0  0
    0.5594    1.4215    2.8902 H   0  0  0  0  0  0  0  0  0  0  0  0
   -0.2954   -0.1189    2.9766 H   0  0  0  0  0  0  0  0  0  0  0  0
    1.2241   -0.0033    2.0884 H   0  0  0  0  0  0  0  0  0  0  0  0
  1  2  1  0
  1  3  1  0
  1  4  1  0
  1  5  1  0
  2  6  1  0
  7  8  2  3
  7 11  1  0
  7 12  1  0
  8  9  1  0
  8 13  1  0
  9 10  1  0
  9 14  1  0
 10 15  1  0
 10 16  1  0
 10 17  1  0
M  RAD  1   9   2
M  END
>  <reaction>  (13) 
rxn_1809

>  <mol_properties>  (13) 
{"0": {"label": "*3", "atom_type": "Cs"}, "1": {"label": "*4", "atom_type": "S2s"}, "2": {"label": "*2", "atom_type": "H0"}, "7": {"label": "*0", "atom_type": "Cd"}, "8": {"label": "*1", "atom_type": "Cs"}}

>  <type>  (13) 
unop_9

>  <geom_source>  (13) 
Heuristics

$$$$

     RDKit          3D

 17 15  0  0  0  0  0  0  0  0999 V2000
    0.1689   -1.8082    0.1490 C   0  0  0  0  0  0  0  0  0  0  0  0
    0.1689   -1.8082   -1.6616 S   0  0  0  0  0  0  0  0  0  0  0  0
    0.1689   -0.5924    0.6248 H   0  0  0  0  0  0  0  0  0  0  0  0
   -0.7518   -2.3023    0.4550 H   0  0  0  0  0  0  0  0  0  0  0  0
    1.0133   -2.3682    0.5455 H   0  0  0  0  0  0  0  0  0  0  0  0
    1.3392   -1.1801   -1.8280 H   0  0  0  0  0  0  0  0  0  0  0  0
   -1.2310    2.6312    0.4618 C   0  0  0  0  0  0  0  0  0  0  0  0
   -1.0655    1.3256    0.6100 C   0  0  0  0  0  0  0  0  0  0  0  0
    0.1689    0.6319    1.1039 C   0  0  0  0  0  3  0  0  0  0  0  0
    1.3350    1.5385    1.4647 C   0  0  0  0  0  0  0  0  0  0  0  0
   -2.1653    3.0380    0.0960 H   0  0  0  0  0  0  0  0  0  0  0  0
   -0.4485    3.3429    0.6970 H   0  0  0  0  0  0  0  0  0  0  0  0
   -1.8917    0.6664    0.3555 H   0  0  0  0  0  0  0  0  0  0  0  0
   -0.1069    0.0228    1.9717 H   0  0  0  0  0  0  0  0  0  0  0  0
    1.0633    2.2359    2.2596 H   0  0  0  0  0  0  0  0  0  0  0  0
    2.1847    0.9500    1.8122 H   0  0  0  0  0  0  0  0  0  0  0  0
    1.6630    2.1239    0.6035 H   0  0  0  0  0  0  0  0  0  0  0  0
  1  2  1  0
  1  3  1  0
  1  4  1  0
  1  5  1  0
  2  6  1  0
  7  8  2  3
  7 11  1  0
  7 12  1  0
  8  9  1  0
  8 13  1  0
  9 10  1  0
  9 14  1  0
 10 15  1  0
 10 16  1  0
 10 17  1  0
M  RAD  1   9   2
M  END
>  <reaction>  (14) 
rxn_1809

>  <mol_properties>  (14) 
{"0": {"label": "*3", "atom_type": "Cs"}, "1": {"label": "*4", "atom_type": "S2s"}, "2": {"label": "*2", "atom_type": "H0"}, "7": {"label": "*0", "atom_type": "Cd"}, "8": {"label": "*1", "atom_type": "Cs"}}

>  <type>  (14) 
unop_10

>  <geom_source>  (14) 
Heuristics

$$$$

     RDKit          3D

 17 15  0  0  0  0  0  0  0  0999 V2000
    0.1021   -1.2903   -0.4641 C   0  0  0  0  0  0  0  0  0  0  0  0
    0.1021   -1.2903   -2.2747 S   0  0  0  0  0  0  0  0  0  0  0  0
    0.1021   -0.0745    0.0117 H   0  0  0  0  0  0  0  0  0  0  0  0
   -0.8186   -1.7845   -0.1582 H   0  0  0  0  0  0  0  0  0  0  0  0
    0.9464   -1.8503   -0.0676 H   0  0  0  0  0  0  0  0  0  0  0  0
    1.2724   -0.6622   -2.4411 H   0  0  0  0  0  0  0  0  0  0  0  0
    0.2559    1.0490    3.0078 C   0  0  0  0  0  0  0  0  0  0  0  0
    0.8148    1.1339    1.8102 C   0  0  0  0  0  0  0  0  0  0  0  0
    0.1021    1.1497    0.4907 C   0  0  0  0  0  3  0  0  0  0  0  0
   -1.4141    1.0581    0.5593 C   0  0  0  0  0  0  0  0  0  0  0  0
    0.8592    1.0451    3.9068 H   0  0  0  0  0  0  0  0  0  0  0  0
   -0.8173    0.9805    3.1407 H   0  0  0  0  0  0  0  0  0  0  0  0
    1.8981    1.2000    1.7474 H   0  0  0  0  0  0  0  0  0  0  0  0
    0.3927    2.0617   -0.0423 H   0  0  0  0  0  0  0  0  0  0  0  0
   -1.8365    1.8937    1.1208 H   0  0  0  0  0  0  0  0  0  0  0  0
   -1.8448    1.0765   -0.4424 H   0  0  0  0  0  0  0  0  0  0  0  0
   -1.7336    0.1335    1.0441 H   0  0  0  0  0  0  0  0  0  0  0  0
  1  2  1  0
  1  3  1  0
  1  4  1  0
  1  5  1  0
  2  6  1  0
  7  8  2  3
  7 11  1  0
  7 12  1  0
  8  9  1  0
  8 13  1  0
  9 10  1  0
  9 14  1  0
 10 15  1  0
 10 16  1  0
 10 17  1  0
M  RAD  1   9   2
M  END
>  <reaction>  (15) 
rxn_1809

>  <mol_properties>  (15) 
{"0": {"label": "*3", "atom_type": "Cs"}, "1": {"label": "*4", "atom_type": "S2s"}, "2": {"label": "*2", "atom_type": "H0"}, "7": {"label": "*0", "atom_type": "Cd"}, "8": {"label": "*1", "atom_type": "Cs"}}

>  <type>  (15) 
unop_11

>  <geom_source>  (15) 
Heuristics

$$$$

     RDKit          3D

 17 15  0  0  0  0  0  0  0  0999 V2000
   -0.2968   -1.7236    0.2474 C   0  0  0  0  0  0  0  0  0  0  0  0
   -0.2968   -1.7236   -1.5633 S   0  0  0  0  0  0  0  0  0  0  0  0
   -0.2968   -0.5078    0.7232 H   0  0  0  0  0  0  0  0  0  0  0  0
   -1.2175   -2.2178    0.5533 H   0  0  0  0  0  0  0  0  0  0  0  0
    0.5475   -2.2836    0.6439 H   0  0  0  0  0  0  0  0  0  0  0  0
    0.8735   -1.0955   -1.7297 H   0  0  0  0  0  0  0  0  0  0  0  0
    0.5912    2.6234   -0.1921 C   0  0  0  0  0  0  0  0  0  0  0  0
   -0.2968    1.6699    0.0447 C   0  0  0  0  0  0  0  0  0  0  0  0
   -0.2968    0.7165    1.2022 C   0  0  0  0  0  3  0  0  0  0  0  0
    0.8471    0.8794    2.1905 C   0  0  0  0  0  0  0  0  0  0  0  0
    0.5046    3.2645   -1.0603 H   0  0  0  0  0  0  0  0  0  0  0  0
    1.4345    2.8030    0.4642 H   0  0  0  0  0  0  0  0  0  0  0  0
   -1.1197    1.5430   -0.6544 H   0  0  0  0  0  0  0  0  0  0  0  0
   -1.2538    0.8168    1.7260 H   0  0  0  0  0  0  0  0  0  0  0  0
    0.8427    1.8738    2.6411 H   0  0  0  0  0  0  0  0  0  0  0  0
    0.7658    0.1475    2.9948 H   0  0  0  0  0  0  0  0  0  0  0  0
    1.8141    0.7364    1.7043 H   0  0  0  0  0  0  0  0  0  0  0  0
  1  2  1  0
  1  3  1  0
  1  4  1  0
  1  5  1  0
  2  6  1  0
  7  8  2  3
  7 11  1  0
  7 12  1  0
  8  9  1  0
  8 13  1  0
  9 10  1  0
  9 14  1  0
 10 15  1  0
 10 16  1  0
 10 17  1  0
M  RAD  1   9   2
M  END
>  <reaction>  (16) 
rxn_1809

>  <mol_properties>  (16) 
{"0": {"label": "*3", "atom_type": "Cs"}, "1": {"label": "*4", "atom_type": "S2s"}, "2": {"label": "*2", "atom_type": "H0"}, "7": {"label": "*0", "atom_type": "Cd"}, "8": {"label": "*1", "atom_type": "Cs"}}

>  <type>  (16) 
unop_12

>  <geom_source>  (16) 
Heuristics

$$$$

     RDKit          3D

 17 15  0  0  0  0  0  0  0  0999 V2000
    2.8242    1.2171   -0.3538 S   0  0  0  0  0  0  0  0  0  0  0  0
   -0.2162   -0.1259    0.3356 C   0  0  0  0  0  3  0  0  0  0  0  0
   -1.0438   -1.3019    0.8429 C   0  0  0  0  0  0  0  0  0  0  0  0
   -0.9673    0.6719   -0.6927 C   0  0  0  0  0  0  0  0  0  0  0  0
   -2.0142    1.4353   -0.3657 C   0  0  0  0  0  0  0  0  0  0  0  0
    2.1760   -0.4488   -0.6631 C   0  0  0  0  0  0  0  0  0  0  0  0
    0.0745    0.5283    1.1860 H   0  0  0  0  0  0  0  0  0  0  0  0
    0.9687   -0.6334   -0.2583 H   0  0  0  0  0  0  0  0  0  0  0  0
   -1.3325   -1.9600   -0.0041 H   0  0  0  0  0  0  0  0  0  0  0  0
   -0.4392   -1.8933    1.5616 H   0  0  0  0  0  0  0  0  0  0  0  0
   -1.9588   -0.9425    1.3599 H   0  0  0  0  0  0  0  0  0  0  0  0
   -0.6270    0.6499   -1.7232 H   0  0  0  0  0  0  0  0  0  0  0  0
   -2.3644    1.4945    0.6603 H   0  0  0  0  0  0  0  0  0  0  0  0
   -2.5257    2.0112   -1.1301 H   0  0  0  0  0  0  0  0  0  0  0  0
    2.3360   -0.7153   -1.7280 H   0  0  0  0  0  0  0  0  0  0  0  0
    2.7047   -1.1797   -0.0170 H   0  0  0  0  0  0  0  0  0  0  0  0
    2.4050    1.1926    0.9897 H   0  0  0  0  0  0  0  0  0  0  0  0
  1  6  1  0
  1 17  1  0
  2  3  1  0
  2  4  1  0
  2  7  1  0
  3  9  1  0
  3 10  1  0
  3 11  1  0
  4  5  2  3
  4 12  1  0
  5 13  1  0
  5 14  1  0
  6  8  1  0
  6 15  1  0
  6 16  1  0
M  RAD  1   2   2
M  END
>  <reaction>  (17) 
rxn_1809

>  <mol_properties>  (17) 
{"0": {"label": "*3", "atom_type": "Cs"}, "1": {"label": "*4", "atom_type": "S2s"}, "2": {"label": "*2", "atom_type": "H0"}, "7": {"label": "*0", "atom_type": "Cd"}, "8": {"label": "*1", "atom_type": "Cs"}}

>  <type>  (17) 
unop_13

>  <geom_source>  (17) 
AutoTST

$$$$
