
     RDKit          3D

 12 11  0  0  0  0  0  0  0  0999 V2000
    1.9877    0.1011    0.4814 C   0  0  0  0  0  0  0  0  0  0  0  0
    0.8179    0.5502    0.0525 C   0  0  0  0  0  0  0  0  0  0  0  0
   -0.2939   -0.2692   -0.5320 C   0  0  0  0  0  0  0  0  0  0  0  0
   -0.0292   -1.7631   -0.6328 C   0  0  0  0  0  0  0  0  0  0  0  0
    2.2522   -0.9490    0.4436 H   0  0  0  0  0  0  0  0  0  0  0  0
    2.7295    0.7757    0.8896 H   0  0  0  0  0  0  0  0  0  0  0  0
    0.6162    1.6164    0.1190 H   0  0  0  0  0  0  0  0  0  0  0  0
   -0.5268    0.1319   -1.5245 H   0  0  0  0  0  0  0  0  0  0  0  0
   -1.1959   -0.0938    0.0644 H   0  0  0  0  0  0  0  0  0  0  0  0
    0.1590   -2.1992    0.3502 H   0  0  0  0  0  0  0  0  0  0  0  0
    0.8382   -1.9701   -1.2626 H   0  0  0  0  0  0  0  0  0  0  0  0
   -0.8879   -2.2759   -1.0672 H   0  0  0  0  0  0  0  0  0  0  0  0
  1  2  2  3
  1  5  1  0
  1  6  1  0
  2  3  1  0
  2  7  1  0
  3  4  1  0
  3  8  1  0
  3  9  1  0
  4 10  1  0
  4 11  1  0
  4 12  1  0
M  END
>  <reaction>  (1) 
rxn_1043

>  <mol_properties>  (1) 
{"2": {"label": "donator", "atom_type": "Cs"}, "7": {"label": "d_hydrogen", "atom_type": "H0"}}

>  <type>  (1) 
r1h

$$$$

     RDKit          3D

 14 13  0  0  0  0  0  0  0  0999 V2000
    1.0767   -1.6838    1.2931 C   0  0  0  0  0  0  0  0  0  0  0  0
    1.0020   -0.3665    0.9163 C   0  0  0  0  0  0  0  0  0  0  0  0
    1.3965    0.7260    1.6806 C   0  0  0  0  0  3  0  0  0  0  0  0
    1.2666    2.1197    1.1619 C   0  0  0  0  0  0  0  0  0  0  0  0
    1.9670    0.5479    3.0536 C   0  0  0  0  0  0  0  0  0  0  0  0
    0.7448   -2.4705    0.6300 H   0  0  0  0  0  0  0  0  0  0  0  0
    1.4663   -1.9826    2.2578 H   0  0  0  0  0  0  0  0  0  0  0  0
    0.5980   -0.1511   -0.0695 H   0  0  0  0  0  0  0  0  0  0  0  0
    0.6296    2.7241    1.8172 H   0  0  0  0  0  0  0  0  0  0  0  0
    2.2410    2.6200    1.1341 H   0  0  0  0  0  0  0  0  0  0  0  0
    0.8426    2.1448    0.1579 H   0  0  0  0  0  0  0  0  0  0  0  0
    2.8745   -0.0634    3.0328 H   0  0  0  0  0  0  0  0  0  0  0  0
    1.2599    0.0408    3.7173 H   0  0  0  0  0  0  0  0  0  0  0  0
    2.2205    1.5071    3.5054 H   0  0  0  0  0  0  0  0  0  0  0  0
  1  2  2  3
  1  6  1  0
  1  7  1  0
  2  3  1  0
  2  8  1  0
  3  4  1  0
  3  5  1  0
  4  9  1  0
  4 10  1  0
  4 11  1  0
  5 12  1  0
  5 13  1  0
  5 14  1  0
M  RAD  1   3   2
M  END
>  <reaction>  (2) 
rxn_1043

>  <mol_properties>  (2) 
{"2": {"label": "acceptor", "atom_type": "Cs"}}

>  <type>  (2) 
r2

$$$$

     RDKit          3D

 15 14  0  0  0  0  0  0  0  0999 V2000
    2.1256    0.4849   -0.6284 C   0  0  0  0  0  0  0  0  0  0  0  0
    1.1128    0.2141    0.1794 C   0  0  0  0  0  0  0  0  0  0  0  0
   -0.3017   -0.0425   -0.2513 C   0  0  0  0  0  0  0  0  0  0  0  0
   -1.2427    1.0075    0.3423 C   0  0  0  0  0  0  0  0  0  0  0  0
   -0.7381   -1.4526    0.1504 C   0  0  0  0  0  0  0  0  0  0  0  0
    3.1243    0.6602   -0.2486 H   0  0  0  0  0  0  0  0  0  0  0  0
    1.9908    0.5411   -1.7036 H   0  0  0  0  0  0  0  0  0  0  0  0
    1.2888    0.1665    1.2533 H   0  0  0  0  0  0  0  0  0  0  0  0
   -0.3426    0.0343   -1.3424 H   0  0  0  0  0  0  0  0  0  0  0  0
   -0.9570    2.0133    0.0315 H   0  0  0  0  0  0  0  0  0  0  0  0
   -1.2189    0.9728    1.4350 H   0  0  0  0  0  0  0  0  0  0  0  0
   -2.2723    0.8287    0.0254 H   0  0  0  0  0  0  0  0  0  0  0  0
   -0.6964   -1.5744    1.2363 H   0  0  0  0  0  0  0  0  0  0  0  0
   -0.0911   -2.2079   -0.2978 H   0  0  0  0  0  0  0  0  0  0  0  0
   -1.7646   -1.6461   -0.1677 H   0  0  0  0  0  0  0  0  0  0  0  0
  1  2  2  3
  1  6  1  0
  1  7  1  0
  2  3  1  0
  2  8  1  0
  3  4  1  0
  3  5  1  0
  3  9  1  0
  4 10  1  0
  4 11  1  0
  4 12  1  0
  5 13  1  0
  5 14  1  0
  5 15  1  0
M  END
>  <reaction>  (3) 
rxn_1043

>  <mol_properties>  (3) 
{"2": {"label": "acceptor", "atom_type": "Cs"}, "14": {"label": "a_hydrogen", "atom_type": "H0"}}

>  <type>  (3) 
r2h

$$$$

     RDKit          3D

 26 24  0  0  0  0  0  0  0  0999 V2000
    2.3718   -0.3742   -0.6035 C   0  0  0  0  0  0  0  0  0  0  0  0
    1.6913    0.5589    0.0691 C   0  0  0  0  0  0  0  0  0  0  0  0
    0.6834    0.3327    1.1022 C   0  0  0  0  0  0  0  0  0  0  0  0
    0.5138    1.4599    2.0960 C   0  0  0  0  0  0  0  0  0  0  0  0
    0.6036   -1.0511    1.6993 C   0  0  0  0  0  0  0  0  0  0  0  0
    3.0726   -0.0984   -1.3806 H   0  0  0  0  0  0  0  0  0  0  0  0
    2.2562   -1.4318   -0.4019 H   0  0  0  0  0  0  0  0  0  0  0  0
    1.8625    1.6010   -0.1914 H   0  0  0  0  0  0  0  0  0  0  0  0
   -0.4201    1.3530    2.6524 H   0  0  0  0  0  0  0  0  0  0  0  0
    1.3322    1.4698    2.8236 H   0  0  0  0  0  0  0  0  0  0  0  0
    0.5020    2.4309    1.5967 H   0  0  0  0  0  0  0  0  0  0  0  0
    1.5162   -1.2941    2.2525 H   0  0  0  0  0  0  0  0  0  0  0  0
    0.4642   -1.8113    0.9287 H   0  0  0  0  0  0  0  0  0  0  0  0
   -0.2385   -1.1208    2.3905 H   0  0  0  0  0  0  0  0  0  0  0  0
   -1.3804   -1.4520   -1.9619 C   0  0  0  0  0  0  0  0  0  0  0  0
   -1.7737   -0.9630   -0.7790 C   0  0  0  0  0  0  0  0  0  0  0  0
   -1.6063    0.4041   -0.3196 C   0  0  0  0  0  3  0  0  0  0  0  0
   -1.2836    1.4865   -1.3152 C   0  0  0  0  0  0  0  0  0  0  0  0
   -0.9226   -0.8270   -2.7186 H   0  0  0  0  0  0  0  0  0  0  0  0
   -1.5142   -2.4978   -2.2053 H   0  0  0  0  0  0  0  0  0  0  0  0
   -2.2236   -1.6487   -0.0660 H   0  0  0  0  0  0  0  0  0  0  0  0
   -0.4616    0.3711    0.4156 H   0  0  0  0  0  0  0  0  0  0  0  0
   -2.3168    0.6985    0.4513 H   0  0  0  0  0  0  0  0  0  0  0  0
   -2.0812    1.5990   -2.0551 H   0  0  0  0  0  0  0  0  0  0  0  0
   -0.3602    1.2622   -1.8539 H   0  0  0  0  0  0  0  0  0  0  0  0
   -1.1494    2.4459   -0.8135 H   0  0  0  0  0  0  0  0  0  0  0  0
  1  2  2  3
  1  6  1  0
  1  7  1  0
  2  3  1  0
  2  8  1  0
  3  4  1  0
  3  5  1  0
  3 22  1  0
  4  9  1  0
  4 10  1  0
  4 11  1  0
  5 12  1  0
  5 13  1  0
  5 14  1  0
 15 16  2  3
 15 19  1  0
 15 20  1  0
 16 17  1  0
 16 21  1  0
 17 18  1  0
 17 23  1  0
 18 24  1  0
 18 25  1  0
 18 26  1  0
M  RAD  1  17   2
M  END
>  <reaction>  (4) 
rxn_1043

>  <mol_properties>  (4) 
{"1": {"label": "*0", "atom_type": "Cd"}, "2": {"label": "*1", "atom_type": "Cs"}, "15": {"label": "*4", "atom_type": "Cd"}, "16": {"label": "*3", "atom_type": "Cs"}, "21": {"label": "*2", "atom_type": "H0"}}

>  <type>  (4) 
ts

$$$$

     RDKit          3D

 26 24  0  0  0  0  0  0  0  0999 V2000
    1.8527    1.5565   -0.2889 C   0  0  0  0  0  0  0  0  0  0  0  0
    1.6229    0.9991    0.8892 C   0  0  0  0  0  0  0  0  0  0  0  0
    0.7594   -0.2043    1.1310 C   0  0  0  0  0  0  0  0  0  0  0  0
   -0.4144    0.1518    2.0452 C   0  0  0  0  0  0  0  0  0  0  0  0
    1.5847   -1.3467    1.7262 C   0  0  0  0  0  0  0  0  0  0  0  0
    2.4888    2.4269   -0.3915 H   0  0  0  0  0  0  0  0  0  0  0  0
    1.4106    1.1600   -1.1970 H   0  0  0  0  0  0  0  0  0  0  0  0
    2.0853    1.4269    1.7778 H   0  0  0  0  0  0  0  0  0  0  0  0
   -1.0495   -0.7196    2.2178 H   0  0  0  0  0  0  0  0  0  0  0  0
   -0.0542    0.5003    3.0170 H   0  0  0  0  0  0  0  0  0  0  0  0
   -1.0267    0.9428    1.6100 H   0  0  0  0  0  0  0  0  0  0  0  0
    2.0156   -1.0512    2.6867 H   0  0  0  0  0  0  0  0  0  0  0  0
    2.4035   -1.6284    1.0627 H   0  0  0  0  0  0  0  0  0  0  0  0
    0.9616   -2.2270    1.8969 H   0  0  0  0  0  0  0  0  0  0  0  0
   -1.3261   -1.2457   -2.6776 C   0  0  0  0  0  0  0  0  0  0  0  0
   -1.3261   -1.2457   -1.3532 C   0  0  0  0  0  0  0  0  0  0  0  0
   -1.3261   -0.0412   -0.4598 C   0  0  0  0  0  3  0  0  0  0  0  0
   -1.3261    1.3045   -1.1675 C   0  0  0  0  0  0  0  0  0  0  0  0
   -1.3261   -0.3288   -3.2550 H   0  0  0  0  0  0  0  0  0  0  0  0
   -1.3261   -2.1731   -3.2363 H   0  0  0  0  0  0  0  0  0  0  0  0
   -1.3261   -2.2015   -0.8351 H   0  0  0  0  0  0  0  0  0  0  0  0
   -0.2829   -0.1228    0.3360 H   0  0  0  0  0  0  0  0  0  0  0  0
   -2.1955   -0.1092    0.2033 H   0  0  0  0  0  0  0  0  0  0  0  0
   -2.2086    1.4195   -1.7999 H   0  0  0  0  0  0  0  0  0  0  0  0
   -0.4437    1.4195   -1.7999 H   0  0  0  0  0  0  0  0  0  0  0  0
   -1.3261    2.1189   -0.4422 H   0  0  0  0  0  0  0  0  0  0  0  0
  1  2  2  3
  1  6  1  0
  1  7  1  0
  2  3  1  0
  2  8  1  0
  3  4  1  0
  3  5  1  0
  3 22  1  0
  4  9  1  0
  4 10  1  0
  4 11  1  0
  5 12  1  0
  5 13  1  0
  5 14  1  0
 15 16  2  3
 15 19  1  0
 15 20  1  0
 16 17  1  0
 16 21  1  0
 17 18  1  0
 17 23  1  0
 18 24  1  0
 18 25  1  0
 18 26  1  0
M  RAD  1  17   2
M  END
>  <reaction>  (5) 
rxn_1043

>  <mol_properties>  (5) 
{"1": {"label": "*0", "atom_type": "Cd"}, "2": {"label": "*1", "atom_type": "Cs"}, "15": {"label": "*4", "atom_type": "Cd"}, "16": {"label": "*3", "atom_type": "Cs"}, "21": {"label": "*2", "atom_type": "H0"}}

>  <type>  (5) 
unop_1

>  <geom_source>  (5) 
Heuristics

$$$$

     RDKit          3D

 26 24  0  0  0  0  0  0  0  0999 V2000
    1.5983   -1.3658   -0.5488 C   0  0  0  0  0  0  0  0  0  0  0  0
    1.7748   -0.5957    0.5130 C   0  0  0  0  0  0  0  0  0  0  0  0
    0.6930    0.1477    1.2406 C   0  0  0  0  0  0  0  0  0  0  0  0
    0.9473    1.6552    1.1864 C   0  0  0  0  0  0  0  0  0  0  0  0
    0.5906   -0.3345    2.6888 C   0  0  0  0  0  0  0  0  0  0  0  0
    2.4267   -1.8745   -1.0258 H   0  0  0  0  0  0  0  0  0  0  0  0
    0.6142   -1.5153   -0.9805 H   0  0  0  0  0  0  0  0  0  0  0  0
    2.7786   -0.4707    0.9168 H   0  0  0  0  0  0  0  0  0  0  0  0
    0.1583    2.2004    1.7085 H   0  0  0  0  0  0  0  0  0  0  0  0
    1.8982    1.9033    1.6659 H   0  0  0  0  0  0  0  0  0  0  0  0
    0.9873    2.0112    0.1560 H   0  0  0  0  0  0  0  0  0  0  0  0
    1.5289   -0.1569    3.2215 H   0  0  0  0  0  0  0  0  0  0  0  0
    0.3753   -1.4030    2.7340 H   0  0  0  0  0  0  0  0  0  0  0  0
   -0.2005    0.1988    3.2199 H   0  0  0  0  0  0  0  0  0  0  0  0
   -1.3926   -0.8938   -2.5680 C   0  0  0  0  0  0  0  0  0  0  0  0
   -1.3926   -0.8938   -1.2436 C   0  0  0  0  0  0  0  0  0  0  0  0
   -1.3926    0.3107   -0.3502 C   0  0  0  0  0  3  0  0  0  0  0  0
   -1.3926    1.6565   -1.0579 C   0  0  0  0  0  0  0  0  0  0  0  0
   -1.3926    0.0231   -3.1454 H   0  0  0  0  0  0  0  0  0  0  0  0
   -1.3926   -1.8211   -3.1267 H   0  0  0  0  0  0  0  0  0  0  0  0
   -1.3926   -1.8495   -0.7255 H   0  0  0  0  0  0  0  0  0  0  0  0
   -0.3493    0.2292    0.4456 H   0  0  0  0  0  0  0  0  0  0  0  0
   -2.2620    0.2427    0.3129 H   0  0  0  0  0  0  0  0  0  0  0  0
   -2.2750    1.7715   -1.6903 H   0  0  0  0  0  0  0  0  0  0  0  0
   -0.5102    1.7715   -1.6903 H   0  0  0  0  0  0  0  0  0  0  0  0
   -1.3926    2.4708   -0.3326 H   0  0  0  0  0  0  0  0  0  0  0  0
  1  2  2  3
  1  6  1  0
  1  7  1  0
  2  3  1  0
  2  8  1  0
  3  4  1  0
  3  5  1  0
  3 22  1  0
  4  9  1  0
  4 10  1  0
  4 11  1  0
  5 12  1  0
  5 13  1  0
  5 14  1  0
 15 16  2  3
 15 19  1  0
 15 20  1  0
 16 17  1  0
 16 21  1  0
 17 18  1  0
 17 23  1  0
 18 24  1  0
 18 25  1  0
 18 26  1  0
M  RAD  1  17   2
M  END
>  <reaction>  (6) 
rxn_1043

>  <mol_properties>  (6) 
{"1": {"label": "*0", "atom_type": "Cd"}, "2": {"label": "*1", "atom_type": "Cs"}, "15": {"label": "*4", "atom_type": "Cd"}, "16": {"label": "*3", "atom_type": "Cs"}, "21": {"label": "*2", "atom_type": "H0"}}

>  <type>  (6) 
unop_2

>  <geom_source>  (6) 
Heuristics

$$$$

     RDKit          3D

 26 24  0  0  0  0  0  0  0  0999 V2000
    1.0831    2.2421    0.6008 C   0  0  0  0  0  0  0  0  0  0  0  0
    1.2701    1.1749    1.3610 C   0  0  0  0  0  0  0  0  0  0  0  0
    0.8297   -0.2206    1.0284 C   0  0  0  0  0  0  0  0  0  0  0  0
   -0.1694   -0.7308    2.0686 C   0  0  0  0  0  0  0  0  0  0  0  0
    2.0365   -1.1555    0.9298 C   0  0  0  0  0  0  0  0  0  0  0  0
    1.4282    3.2229    0.9033 H   0  0  0  0  0  0  0  0  0  0  0  0
    0.5758    2.1720   -0.3557 H   0  0  0  0  0  0  0  0  0  0  0  0
    1.7840    1.2865    2.3148 H   0  0  0  0  0  0  0  0  0  0  0  0
   -0.4981   -1.7435    1.8263 H   0  0  0  0  0  0  0  0  0  0  0  0
    0.2875   -0.7566    3.0617 H   0  0  0  0  0  0  0  0  0  0  0  0
   -1.0485   -0.0869    2.1195 H   0  0  0  0  0  0  0  0  0  0  0  0
    2.5715   -1.1964    1.8825 H   0  0  0  0  0  0  0  0  0  0  0  0
    2.7367   -0.8157    0.1653 H   0  0  0  0  0  0  0  0  0  0  0  0
    1.7210   -2.1708    0.6807 H   0  0  0  0  0  0  0  0  0  0  0  0
   -1.2559   -1.2621   -2.7801 C   0  0  0  0  0  0  0  0  0  0  0  0
   -1.2559   -1.2621   -1.4558 C   0  0  0  0  0  0  0  0  0  0  0  0
   -1.2559   -0.0576   -0.5623 C   0  0  0  0  0  3  0  0  0  0  0  0
   -1.2559    1.2882   -1.2700 C   0  0  0  0  0  0  0  0  0  0  0  0
   -1.2559   -0.3452   -3.3576 H   0  0  0  0  0  0  0  0  0  0  0  0
   -1.2559   -2.1894   -3.3388 H   0  0  0  0  0  0  0  0  0  0  0  0
   -1.2559   -2.2178   -0.9376 H   0  0  0  0  0  0  0  0  0  0  0  0
   -0.2126   -0.1391    0.2334 H   0  0  0  0  0  0  0  0  0  0  0  0
   -2.1253   -0.1255    0.1008 H   0  0  0  0  0  0  0  0  0  0  0  0
   -2.1383    1.4032   -1.9025 H   0  0  0  0  0  0  0  0  0  0  0  0
   -0.3735    1.4032   -1.9025 H   0  0  0  0  0  0  0  0  0  0  0  0
   -1.2559    2.1025   -0.5447 H   0  0  0  0  0  0  0  0  0  0  0  0
  1  2  2  3
  1  6  1  0
  1  7  1  0
  2  3  1  0
  2  8  1  0
  3  4  1  0
  3  5  1  0
  3 22  1  0
  4  9  1  0
  4 10  1  0
  4 11  1  0
  5 12  1  0
  5 13  1  0
  5 14  1  0
 15 16  2  3
 15 19  1  0
 15 20  1  0
 16 17  1  0
 16 21  1  0
 17 18  1  0
 17 23  1  0
 18 24  1  0
 18 25  1  0
 18 26  1  0
M  RAD  1  17   2
M  END
>  <reaction>  (7) 
rxn_1043

>  <mol_properties>  (7) 
{"1": {"label": "*0", "atom_type": "Cd"}, "2": {"label": "*1", "atom_type": "Cs"}, "15": {"label": "*4", "atom_type": "Cd"}, "16": {"label": "*3", "atom_type": "Cs"}, "21": {"label": "*2", "atom_type": "H0"}}

>  <type>  (7) 
unop_3

>  <geom_source>  (7) 
Heuristics

$$$$

     RDKit          3D

 26 24  0  0  0  0  0  0  0  0999 V2000
    0.2333   -2.1397    1.3367 C   0  0  0  0  0  0  0  0  0  0  0  0
    0.8056   -1.0196    1.7483 C   0  0  0  0  0  0  0  0  0  0  0  0
    0.9323    0.2414    0.9446 C   0  0  0  0  0  0  0  0  0  0  0  0
    2.4049    0.5941    0.7271 C   0  0  0  0  0  0  0  0  0  0  0  0
    0.1935    1.3920    1.6306 C   0  0  0  0  0  0  0  0  0  0  0  0
    0.1765   -3.0153    1.9711 H   0  0  0  0  0  0  0  0  0  0  0  0
   -0.2009   -2.2208    0.3456 H   0  0  0  0  0  0  0  0  0  0  0  0
    1.2301   -0.9780    2.7506 H   0  0  0  0  0  0  0  0  0  0  0  0
    2.5017    1.5073    0.1363 H   0  0  0  0  0  0  0  0  0  0  0  0
    2.9068    0.7608    1.6842 H   0  0  0  0  0  0  0  0  0  0  0  0
    2.9297   -0.2088    0.2075 H   0  0  0  0  0  0  0  0  0  0  0  0
    0.6171    1.5870    2.6196 H   0  0  0  0  0  0  0  0  0  0  0  0
   -0.8649    1.1604    1.7577 H   0  0  0  0  0  0  0  0  0  0  0  0
    0.2770    2.3101    1.0451 H   0  0  0  0  0  0  0  0  0  0  0  0
   -1.1533   -0.8000   -2.8640 C   0  0  0  0  0  0  0  0  0  0  0  0
   -1.1533   -0.8000   -1.5397 C   0  0  0  0  0  0  0  0  0  0  0  0
   -1.1533    0.4045   -0.6462 C   0  0  0  0  0  3  0  0  0  0  0  0
   -1.1533    1.7502   -1.3539 C   0  0  0  0  0  0  0  0  0  0  0  0
   -1.1533    0.1169   -3.4414 H   0  0  0  0  0  0  0  0  0  0  0  0
   -1.1533   -1.7274   -3.4227 H   0  0  0  0  0  0  0  0  0  0  0  0
   -1.1533   -1.7558   -1.0215 H   0  0  0  0  0  0  0  0  0  0  0  0
   -0.1100    0.3229    0.1496 H   0  0  0  0  0  0  0  0  0  0  0  0
   -2.0227    0.3365    0.0169 H   0  0  0  0  0  0  0  0  0  0  0  0
   -2.0357    1.8652   -1.9863 H   0  0  0  0  0  0  0  0  0  0  0  0
   -0.2709    1.8652   -1.9863 H   0  0  0  0  0  0  0  0  0  0  0  0
   -1.1533    2.5646   -0.6286 H   0  0  0  0  0  0  0  0  0  0  0  0
  1  2  2  3
  1  6  1  0
  1  7  1  0
  2  3  1  0
  2  8  1  0
  3  4  1  0
  3  5  1  0
  3 22  1  0
  4  9  1  0
  4 10  1  0
  4 11  1  0
  5 12  1  0
  5 13  1  0
  5 14  1  0
 15 16  2  3
 15 19  1  0
 15 20  1  0
 16 17  1  0
 16 21  1  0
 17 18  1  0
 17 23  1  0
 18 24  1  0
 18 25  1  0
 18 26  1  0
M  RAD  1  17   2
M  END
>  <reaction>  (8) 
rxn_1043

>  <mol_properties>  (8) 
{"1": {"label": "*0", "atom_type": "Cd"}, "2": {"label": "*1", "atom_type": "Cs"}, "15": {"label": "*4", "atom_type": "Cd"}, "16": {"label": "*3", "atom_type": "Cs"}, "21": {"label": "*2", "atom_type": "H0"}}

>  <type>  (8) 
unop_4

>  <geom_source>  (8) 
Heuristics

$$$$

     RDKit          3D

 26 24  0  0  0  0  0  0  0  0999 V2000
   -0.0126    1.9912    1.8181 C   0  0  0  0  0  0  0  0  0  0  0  0
    0.8877    1.0213    1.8376 C   0  0  0  0  0  0  0  0  0  0  0  0
    0.8896   -0.1848    0.9445 C   0  0  0  0  0  0  0  0  0  0  0  0
    0.7672   -1.4658    1.7717 C   0  0  0  0  0  0  0  0  0  0  0  0
    2.1534   -0.2131    0.0828 C   0  0  0  0  0  0  0  0  0  0  0  0
    0.0471    2.8355    2.4934 H   0  0  0  0  0  0  0  0  0  0  0  0
   -0.8452    1.9748    1.1226 H   0  0  0  0  0  0  0  0  0  0  0  0
    1.7091    1.0741    2.5510 H   0  0  0  0  0  0  0  0  0  0  0  0
    0.7608   -2.3457    1.1251 H   0  0  0  0  0  0  0  0  0  0  0  0
    1.6118   -1.5629    2.4594 H   0  0  0  0  0  0  0  0  0  0  0  0
   -0.1496   -1.4669    2.3629 H   0  0  0  0  0  0  0  0  0  0  0  0
    3.0470   -0.2658    0.7107 H   0  0  0  0  0  0  0  0  0  0  0  0
    2.2289    0.6827   -0.5351 H   0  0  0  0  0  0  0  0  0  0  0  0
    2.1553   -1.0855   -0.5739 H   0  0  0  0  0  0  0  0  0  0  0  0
   -1.1959   -1.2263   -2.8640 C   0  0  0  0  0  0  0  0  0  0  0  0
   -1.1959   -1.2263   -1.5397 C   0  0  0  0  0  0  0  0  0  0  0  0
   -1.1959   -0.0218   -0.6463 C   0  0  0  0  0  3  0  0  0  0  0  0
   -1.1959    1.3240   -1.3540 C   0  0  0  0  0  0  0  0  0  0  0  0
   -1.1959   -0.3094   -3.4415 H   0  0  0  0  0  0  0  0  0  0  0  0
   -1.1959   -2.1536   -3.4227 H   0  0  0  0  0  0  0  0  0  0  0  0
   -1.1959   -2.1820   -1.0215 H   0  0  0  0  0  0  0  0  0  0  0  0
   -0.1527   -0.1033    0.1495 H   0  0  0  0  0  0  0  0  0  0  0  0
   -2.0653   -0.0897    0.0169 H   0  0  0  0  0  0  0  0  0  0  0  0
   -2.0784    1.4390   -1.9864 H   0  0  0  0  0  0  0  0  0  0  0  0
   -0.3135    1.4390   -1.9864 H   0  0  0  0  0  0  0  0  0  0  0  0
   -1.1959    2.1384   -0.6287 H   0  0  0  0  0  0  0  0  0  0  0  0
  1  2  2  3
  1  6  1  0
  1  7  1  0
  2  3  1  0
  2  8  1  0
  3  4  1  0
  3  5  1  0
  3 22  1  0
  4  9  1  0
  4 10  1  0
  4 11  1  0
  5 12  1  0
  5 13  1  0
  5 14  1  0
 15 16  2  3
 15 19  1  0
 15 20  1  0
 16 17  1  0
 16 21  1  0
 17 18  1  0
 17 23  1  0
 18 24  1  0
 18 25  1  0
 18 26  1  0
M  RAD  1  17   2
M  END
>  <reaction>  (9) 
rxn_1043

>  <mol_properties>  (9) 
{"1": {"label": "*0", "atom_type": "Cd"}, "2": {"label": "*1", "atom_type": "Cs"}, "15": {"label": "*4", "atom_type": "Cd"}, "16": {"label": "*3", "atom_type": "Cs"}, "21": {"label": "*2", "atom_type": "H0"}}

>  <type>  (9) 
unop_5

>  <geom_source>  (9) 
Heuristics

$$$$

     RDKit          3D

 26 24  0  0  0  0  0  0  0  0999 V2000
   -0.2513   -1.6460    2.1475 C   0  0  0  0  0  0  0  0  0  0  0  0
    0.5655   -0.6052    2.1114 C   0  0  0  0  0  0  0  0  0  0  0  0
    0.9825    0.1335    0.8734 C   0  0  0  0  0  0  0  0  0  0  0  0
    2.4970    0.0417    0.6777 C   0  0  0  0  0  0  0  0  0  0  0  0
    0.5309    1.5936    0.9414 C   0  0  0  0  0  0  0  0  0  0  0  0
   -0.5106   -2.1328    3.0793 H   0  0  0  0  0  0  0  0  0  0  0  0
   -0.6915   -2.0498    1.2418 H   0  0  0  0  0  0  0  0  0  0  0  0
    0.9871   -0.2292    3.0427 H   0  0  0  0  0  0  0  0  0  0  0  0
    2.8039    0.5718   -0.2262 H   0  0  0  0  0  0  0  0  0  0  0  0
    3.0231    0.4921    1.5239 H   0  0  0  0  0  0  0  0  0  0  0  0
    2.8212   -0.9966    0.5942 H   0  0  0  0  0  0  0  0  0  0  0  0
    0.9874    2.0989    1.7969 H   0  0  0  0  0  0  0  0  0  0  0  0
   -0.5525    1.6663    1.0467 H   0  0  0  0  0  0  0  0  0  0  0  0
    0.8261    2.1330    0.0390 H   0  0  0  0  0  0  0  0  0  0  0  0
   -1.1031   -0.9079   -2.9351 C   0  0  0  0  0  0  0  0  0  0  0  0
   -1.1031   -0.9079   -1.6108 C   0  0  0  0  0  0  0  0  0  0  0  0
   -1.1031    0.2966   -0.7173 C   0  0  0  0  0  3  0  0  0  0  0  0
   -1.1031    1.6423   -1.4250 C   0  0  0  0  0  0  0  0  0  0  0  0
   -1.1031    0.0090   -3.5126 H   0  0  0  0  0  0  0  0  0  0  0  0
   -1.1031   -1.8353   -3.4938 H   0  0  0  0  0  0  0  0  0  0  0  0
   -1.1031   -1.8636   -1.0926 H   0  0  0  0  0  0  0  0  0  0  0  0
   -0.0598    0.2150    0.0784 H   0  0  0  0  0  0  0  0  0  0  0  0
   -1.9724    0.2286   -0.0542 H   0  0  0  0  0  0  0  0  0  0  0  0
   -1.9855    1.7573   -2.0575 H   0  0  0  0  0  0  0  0  0  0  0  0
   -0.2206    1.7573   -2.0575 H   0  0  0  0  0  0  0  0  0  0  0  0
   -1.1031    2.4567   -0.6997 H   0  0  0  0  0  0  0  0  0  0  0  0
  1  2  2  3
  1  6  1  0
  1  7  1  0
  2  3  1  0
  2  8  1  0
  3  4  1  0
  3  5  1  0
  3 22  1  0
  4  9  1  0
  4 10  1  0
  4 11  1  0
  5 12  1  0
  5 13  1  0
  5 14  1  0
 15 16  2  3
 15 19  1  0
 15 20  1  0
 16 17  1  0
 16 21  1  0
 17 18  1  0
 17 23  1  0
 18 24  1  0
 18 25  1  0
 18 26  1  0
M  RAD  1  17   2
M  END
>  <reaction>  (10) 
rxn_1043

>  <mol_properties>  (10) 
{"1": {"label": "*0", "atom_type": "Cd"}, "2": {"label": "*1", "atom_type": "Cs"}, "15": {"label": "*4", "atom_type": "Cd"}, "16": {"label": "*3", "atom_type": "Cs"}, "21": {"label": "*2", "atom_type": "H0"}}

>  <type>  (10) 
unop_6

>  <geom_source>  (10) 
Heuristics

$$$$

     RDKit          3D

 26 24  0  0  0  0  0  0  0  0999 V2000
   -0.5946   -0.6553    2.6929 C   0  0  0  0  0  0  0  0  0  0  0  0
    0.4896   -0.0251    2.2700 C   0  0  0  0  0  0  0  0  0  0  0  0
    0.9866    0.0010    0.8542 C   0  0  0  0  0  0  0  0  0  0  0  0
    2.3767   -0.6308    0.7612 C   0  0  0  0  0  0  0  0  0  0  0  0
    1.0037    1.4335    0.3173 C   0  0  0  0  0  0  0  0  0  0  0  0
   -0.8961   -0.6323    3.7327 H   0  0  0  0  0  0  0  0  0  0  0  0
   -1.2221   -1.2193    2.0107 H   0  0  0  0  0  0  0  0  0  0  0  0
    1.0936    0.5306    2.9862 H   0  0  0  0  0  0  0  0  0  0  0  0
    2.7391   -0.6205   -0.2689 H   0  0  0  0  0  0  0  0  0  0  0  0
    3.0938   -0.0767    1.3730 H   0  0  0  0  0  0  0  0  0  0  0  0
    2.3640   -1.6641    1.1108 H   0  0  0  0  0  0  0  0  0  0  0  0
    1.6722    2.0606    0.9135 H   0  0  0  0  0  0  0  0  0  0  0  0
    0.0081    1.8781    0.3492 H   0  0  0  0  0  0  0  0  0  0  0  0
    1.3579    1.4562   -0.7154 H   0  0  0  0  0  0  0  0  0  0  0  0
   -1.0990   -1.0404   -2.9544 C   0  0  0  0  0  0  0  0  0  0  0  0
   -1.0990   -1.0404   -1.6300 C   0  0  0  0  0  0  0  0  0  0  0  0
   -1.0990    0.1641   -0.7366 C   0  0  0  0  0  3  0  0  0  0  0  0
   -1.0990    1.5098   -1.4443 C   0  0  0  0  0  0  0  0  0  0  0  0
   -1.0990   -0.1235   -3.5318 H   0  0  0  0  0  0  0  0  0  0  0  0
   -1.0990   -1.9677   -3.5131 H   0  0  0  0  0  0  0  0  0  0  0  0
   -1.0990   -1.9961   -1.1119 H   0  0  0  0  0  0  0  0  0  0  0  0
   -0.0557    0.0825    0.0592 H   0  0  0  0  0  0  0  0  0  0  0  0
   -1.9683    0.0961   -0.0735 H   0  0  0  0  0  0  0  0  0  0  0  0
   -1.9814    1.6249   -2.0767 H   0  0  0  0  0  0  0  0  0  0  0  0
   -0.2165    1.6249   -2.0767 H   0  0  0  0  0  0  0  0  0  0  0  0
   -1.0990    2.3242   -0.7190 H   0  0  0  0  0  0  0  0  0  0  0  0
  1  2  2  3
  1  6  1  0
  1  7  1  0
  2  3  1  0
  2  8  1  0
  3  4  1  0
  3  5  1  0
  3 22  1  0
  4  9  1  0
  4 10  1  0
  4 11  1  0
  5 12  1  0
  5 13  1  0
  5 14  1  0
 15 16  2  3
 15 19  1  0
 15 20  1  0
 16 17  1  0
 16 21  1  0
 17 18  1  0
 17 23  1  0
 18 24  1  0
 18 25  1  0
 18 26  1  0
M  RAD  1  17   2
M  END
>  <reaction>  (11) 
rxn_1043

>  <mol_properties>  (11) 
{"1": {"label": "*0", "atom_type": "Cd"}, "2": {"label": "*1", "atom_type": "Cs"}, "15": {"label": "*4", "atom_type": "Cd"}, "16": {"label": "*3", "atom_type": "Cs"}, "21": {"label": "*2", "atom_type": "H0"}}

>  <type>  (11) 
unop_7

>  <geom_source>  (11) 
Heuristics

$$$$

     RDKit          3D

 26 24  0  0  0  0  0  0  0  0999 V2000
    2.1279    0.5042   -0.7513 C   0  0  0  0  0  0  0  0  0  0  0  0
    1.8533    0.5588    0.5423 C   0  0  0  0  0  0  0  0  0  0  0  0
    0.6995   -0.1223    1.2183 C   0  0  0  0  0  0  0  0  0  0  0  0
   -0.2278    0.9079    1.8658 C   0  0  0  0  0  0  0  0  0  0  0  0
    1.2023   -1.1284    2.2552 C   0  0  0  0  0  0  0  0  0  0  0  0
    2.9800    1.0219   -1.1737 H   0  0  0  0  0  0  0  0  0  0  0  0
    1.5069   -0.0630   -1.4368 H   0  0  0  0  0  0  0  0  0  0  0  0
    2.5011    1.1391    1.1981 H   0  0  0  0  0  0  0  0  0  0  0  0
   -1.0729    0.4168    2.3527 H   0  0  0  0  0  0  0  0  0  0  0  0
    0.3069    1.4839    2.6260 H   0  0  0  0  0  0  0  0  0  0  0  0
   -0.6170    1.6080    1.1252 H   0  0  0  0  0  0  0  0  0  0  0  0
    1.7876   -0.6245    3.0292 H   0  0  0  0  0  0  0  0  0  0  0  0
    1.8369   -1.8861    1.7934 H   0  0  0  0  0  0  0  0  0  0  0  0
    0.3657   -1.6317    2.7444 H   0  0  0  0  0  0  0  0  0  0  0  0
   -1.3861   -1.1637   -2.5903 C   0  0  0  0  0  0  0  0  0  0  0  0
   -1.3861   -1.1637   -1.2659 C   0  0  0  0  0  0  0  0  0  0  0  0
   -1.3861    0.0408   -0.3725 C   0  0  0  0  0  3  0  0  0  0  0  0
   -1.3861    1.3865   -1.0802 C   0  0  0  0  0  0  0  0  0  0  0  0
   -1.3861   -0.2468   -3.1677 H   0  0  0  0  0  0  0  0  0  0  0  0
   -1.3861   -2.0911   -3.1490 H   0  0  0  0  0  0  0  0  0  0  0  0
   -1.3861   -2.1195   -0.7478 H   0  0  0  0  0  0  0  0  0  0  0  0
   -0.3428   -0.0408    0.4233 H   0  0  0  0  0  0  0  0  0  0  0  0
   -2.2555   -0.0272    0.2906 H   0  0  0  0  0  0  0  0  0  0  0  0
   -2.2685    1.5015   -1.7126 H   0  0  0  0  0  0  0  0  0  0  0  0
   -0.5036    1.5015   -1.7126 H   0  0  0  0  0  0  0  0  0  0  0  0
   -1.3861    2.2009   -0.3549 H   0  0  0  0  0  0  0  0  0  0  0  0
  1  2  2  3
  1  6  1  0
  1  7  1  0
  2  3  1  0
  2  8  1  0
  3  4  1  0
  3  5  1  0
  3 22  1  0
  4  9  1  0
  4 10  1  0
  4 11  1  0
  5 12  1  0
  5 13  1  0
  5 14  1  0
 15 16  2  3
 15 19  1  0
 15 20  1  0
 16 17  1  0
 16 21  1  0
 17 18  1  0
 17 23  1  0
 18 24  1  0
 18 25  1  0
 18 26  1  0
M  RAD  1  17   2
M  END
>  <reaction>  (12) 
rxn_1043

>  <mol_properties>  (12) 
{"1": {"label": "*0", "atom_type": "Cd"}, "2": {"label": "*1", "atom_type": "Cs"}, "15": {"label": "*4", "atom_type": "Cd"}, "16": {"label": "*3", "atom_type": "Cs"}, "21": {"label": "*2", "atom_type": "H0"}}

>  <type>  (12) 
unop_8

>  <geom_source>  (12) 
Heuristics

$$$$

     RDKit          3D

 26 24  0  0  0  0  0  0  0  0999 V2000
    0.7133   -2.1656    0.5295 C   0  0  0  0  0  0  0  0  0  0  0  0
    1.1450   -1.1649    1.2804 C   0  0  0  0  0  0  0  0  0  0  0  0
    0.8486    0.2883    1.0509 C   0  0  0  0  0  0  0  0  0  0  0  0
    2.1412    1.0669    0.7995 C   0  0  0  0  0  0  0  0  0  0  0  0
    0.0835    0.8745    2.2389 C   0  0  0  0  0  0  0  0  0  0  0  0
    0.9663   -3.1944    0.7536 H   0  0  0  0  0  0  0  0  0  0  0  0
    0.0886   -1.9904   -0.3401 H   0  0  0  0  0  0  0  0  0  0  0  0
    1.7703   -1.3820    2.1454 H   0  0  0  0  0  0  0  0  0  0  0  0
    1.9294    2.1238    0.6248 H   0  0  0  0  0  0  0  0  0  0  0  0
    2.8070    0.9983    1.6642 H   0  0  0  0  0  0  0  0  0  0  0  0
    2.6747    0.6752   -0.0677 H   0  0  0  0  0  0  0  0  0  0  0  0
    0.6764    0.7990    3.1545 H   0  0  0  0  0  0  0  0  0  0  0  0
   -0.8562    0.3450    2.4022 H   0  0  0  0  0  0  0  0  0  0  0  0
   -0.1407    1.9302    2.0728 H   0  0  0  0  0  0  0  0  0  0  0  0
   -1.2370   -0.7531   -2.7576 C   0  0  0  0  0  0  0  0  0  0  0  0
   -1.2370   -0.7531   -1.4333 C   0  0  0  0  0  0  0  0  0  0  0  0
   -1.2370    0.4514   -0.5398 C   0  0  0  0  0  3  0  0  0  0  0  0
   -1.2370    1.7971   -1.2475 C   0  0  0  0  0  0  0  0  0  0  0  0
   -1.2370    0.1638   -3.3351 H   0  0  0  0  0  0  0  0  0  0  0  0
   -1.2370   -1.6804   -3.3163 H   0  0  0  0  0  0  0  0  0  0  0  0
   -1.2370   -1.7088   -0.9151 H   0  0  0  0  0  0  0  0  0  0  0  0
   -0.1937    0.3698    0.2559 H   0  0  0  0  0  0  0  0  0  0  0  0
   -2.1064    0.3834    0.1233 H   0  0  0  0  0  0  0  0  0  0  0  0
   -2.1194    1.9122   -1.8799 H   0  0  0  0  0  0  0  0  0  0  0  0
   -0.3545    1.9122   -1.8799 H   0  0  0  0  0  0  0  0  0  0  0  0
   -1.2370    2.6115   -0.5222 H   0  0  0  0  0  0  0  0  0  0  0  0
  1  2  2  3
  1  6  1  0
  1  7  1  0
  2  3  1  0
  2  8  1  0
  3  4  1  0
  3  5  1  0
  3 22  1  0
  4  9  1  0
  4 10  1  0
  4 11  1  0
  5 12  1  0
  5 13  1  0
  5 14  1  0
 15 16  2  3
 15 19  1  0
 15 20  1  0
 16 17  1  0
 16 21  1  0
 17 18  1  0
 17 23  1  0
 18 24  1  0
 18 25  1  0
 18 26  1  0
M  RAD  1  17   2
M  END
>  <reaction>  (13) 
rxn_1043

>  <mol_properties>  (13) 
{"1": {"label": "*0", "atom_type": "Cd"}, "2": {"label": "*1", "atom_type": "Cs"}, "15": {"label": "*4", "atom_type": "Cd"}, "16": {"label": "*3", "atom_type": "Cs"}, "21": {"label": "*2", "atom_type": "H0"}}

>  <type>  (13) 
unop_9

>  <geom_source>  (13) 
Heuristics

$$$$

     RDKit          3D

 26 24  0  0  0  0  0  0  0  0999 V2000
    1.9907   -0.5514   -0.8046 C   0  0  0  0  0  0  0  0  0  0  0  0
    1.9069   -0.0243    0.4065 C   0  0  0  0  0  0  0  0  0  0  0  0
    0.6731    0.0072    1.2603 C   0  0  0  0  0  0  0  0  0  0  0  0
    0.2582    1.4506    1.5516 C   0  0  0  0  0  0  0  0  0  0  0  0
    0.9000   -0.7660    2.5607 C   0  0  0  0  0  0  0  0  0  0  0  0
    2.9161   -0.5394   -1.3668 H   0  0  0  0  0  0  0  0  0  0  0  0
    1.1324   -1.0158   -1.2789 H   0  0  0  0  0  0  0  0  0  0  0  0
    2.7912    0.4329    0.8485 H   0  0  0  0  0  0  0  0  0  0  0  0
   -0.6436    1.4781    2.1668 H   0  0  0  0  0  0  0  0  0  0  0  0
    1.0485    1.9769    2.0939 H   0  0  0  0  0  0  0  0  0  0  0  0
    0.0617    1.9979    0.6287 H   0  0  0  0  0  0  0  0  0  0  0  0
    1.7130   -0.3182    3.1387 H   0  0  0  0  0  0  0  0  0  0  0  0
    1.1629   -1.8056    2.3602 H   0  0  0  0  0  0  0  0  0  0  0  0
    0.0020   -0.7518    3.1819 H   0  0  0  0  0  0  0  0  0  0  0  0
   -1.4125   -1.0343   -2.5482 C   0  0  0  0  0  0  0  0  0  0  0  0
   -1.4125   -1.0343   -1.2239 C   0  0  0  0  0  0  0  0  0  0  0  0
   -1.4125    0.1702   -0.3304 C   0  0  0  0  0  3  0  0  0  0  0  0
   -1.4125    1.5160   -1.0381 C   0  0  0  0  0  0  0  0  0  0  0  0
   -1.4125   -0.1173   -3.1257 H   0  0  0  0  0  0  0  0  0  0  0  0
   -1.4125   -1.9616   -3.1069 H   0  0  0  0  0  0  0  0  0  0  0  0
   -1.4125   -1.9900   -0.7057 H   0  0  0  0  0  0  0  0  0  0  0  0
   -0.3692    0.0887    0.4653 H   0  0  0  0  0  0  0  0  0  0  0  0
   -2.2819    0.1023    0.3327 H   0  0  0  0  0  0  0  0  0  0  0  0
   -2.2949    1.6310   -1.6706 H   0  0  0  0  0  0  0  0  0  0  0  0
   -0.5300    1.6310   -1.6706 H   0  0  0  0  0  0  0  0  0  0  0  0
   -1.4125    2.3304   -0.3128 H   0  0  0  0  0  0  0  0  0  0  0  0
  1  2  2  3
  1  6  1  0
  1  7  1  0
  2  3  1  0
  2  8  1  0
  3  4  1  0
  3  5  1  0
  3 22  1  0
  4  9  1  0
  4 10  1  0
  4 11  1  0
  5 12  1  0
  5 13  1  0
  5 14  1  0
 15 16  2  3
 15 19  1  0
 15 20  1  0
 16 17  1  0
 16 21  1  0
 17 18  1  0
 17 23  1  0
 18 24  1  0
 18 25  1  0
 18 26  1  0
M  RAD  1  17   2
M  END
>  <reaction>  (14) 
rxn_1043

>  <mol_properties>  (14) 
{"1": {"label": "*0", "atom_type": "Cd"}, "2": {"label": "*1", "atom_type": "Cs"}, "15": {"label": "*4", "atom_type": "Cd"}, "16": {"label": "*3", "atom_type": "Cs"}, "21": {"label": "*2", "atom_type": "H0"}}

>  <type>  (14) 
unop_10

>  <geom_source>  (14) 
Heuristics

$$$$

     RDKit          3D

 26 24  0  0  0  0  0  0  0  0999 V2000
   -0.6166    0.7059    2.6717 C   0  0  0  0  0  0  0  0  0  0  0  0
    0.6025    0.5716    2.1744 C   0  0  0  0  0  0  0  0  0  0  0  0
    0.9475   -0.1141    0.8848 C   0  0  0  0  0  0  0  0  0  0  0  0
    1.8623   -1.3130    1.1420 C   0  0  0  0  0  0  0  0  0  0  0  0
    1.6009    0.8691   -0.0882 C   0  0  0  0  0  0  0  0  0  0  0  0
   -0.7943    1.2143    3.6111 H   0  0  0  0  0  0  0  0  0  0  0  0
   -1.4843    0.3102    2.1542 H   0  0  0  0  0  0  0  0  0  0  0  0
    1.4481    0.9829    2.7242 H   0  0  0  0  0  0  0  0  0  0  0  0
    2.1100   -1.8193    0.2067 H   0  0  0  0  0  0  0  0  0  0  0  0
    2.7989   -0.9909    1.6055 H   0  0  0  0  0  0  0  0  0  0  0  0
    1.3880   -2.0346    1.8086 H   0  0  0  0  0  0  0  0  0  0  0  0
    2.5282    1.2684    0.3317 H   0  0  0  0  0  0  0  0  0  0  0  0
    0.9394    1.7097   -0.3024 H   0  0  0  0  0  0  0  0  0  0  0  0
    1.8470    0.3758   -1.0309 H   0  0  0  0  0  0  0  0  0  0  0  0
   -1.1380   -1.1555   -2.9238 C   0  0  0  0  0  0  0  0  0  0  0  0
   -1.1380   -1.1555   -1.5994 C   0  0  0  0  0  0  0  0  0  0  0  0
   -1.1380    0.0490   -0.7060 C   0  0  0  0  0  3  0  0  0  0  0  0
   -1.1380    1.3947   -1.4137 C   0  0  0  0  0  0  0  0  0  0  0  0
   -1.1380   -0.2386   -3.5012 H   0  0  0  0  0  0  0  0  0  0  0  0
   -1.1380   -2.0829   -3.4824 H   0  0  0  0  0  0  0  0  0  0  0  0
   -1.1380   -2.1113   -1.0812 H   0  0  0  0  0  0  0  0  0  0  0  0
   -0.0948   -0.0326    0.0898 H   0  0  0  0  0  0  0  0  0  0  0  0
   -2.0074   -0.0190   -0.0428 H   0  0  0  0  0  0  0  0  0  0  0  0
   -2.0205    1.5097   -2.0461 H   0  0  0  0  0  0  0  0  0  0  0  0
   -0.2556    1.5097   -2.0461 H   0  0  0  0  0  0  0  0  0  0  0  0
   -1.1380    2.2091   -0.6884 H   0  0  0  0  0  0  0  0  0  0  0  0
  1  2  2  3
  1  6  1  0
  1  7  1  0
  2  3  1  0
  2  8  1  0
  3  4  1  0
  3  5  1  0
  3 22  1  0
  4  9  1  0
  4 10  1  0
  4 11  1  0
  5 12  1  0
  5 13  1  0
  5 14  1  0
 15 16  2  3
 15 19  1  0
 15 20  1  0
 16 17  1  0
 16 21  1  0
 17 18  1  0
 17 23  1  0
 18 24  1  0
 18 25  1  0
 18 26  1  0
M  RAD  1  17   2
M  END
>  <reaction>  (15) 
rxn_1043

>  <mol_properties>  (15) 
{"1": {"label": "*0", "atom_type": "Cd"}, "2": {"label": "*1", "atom_type": "Cs"}, "15": {"label": "*4", "atom_type": "Cd"}, "16": {"label": "*3", "atom_type": "Cs"}, "21": {"label": "*2", "atom_type": "H0"}}

>  <type>  (15) 
unop_11

>  <geom_source>  (15) 
Heuristics

$$$$

     RDKit          3D

 26 24  0  0  0  0  0  0  0  0999 V2000
    1.1489   -1.8820   -0.1016 C   0  0  0  0  0  0  0  0  0  0  0  0
    1.4967   -1.0097    0.8309 C   0  0  0  0  0  0  0  0  0  0  0  0
    0.7580    0.2540    1.1620 C   0  0  0  0  0  0  0  0  0  0  0  0
    1.6471    1.4751    0.9196 C   0  0  0  0  0  0  0  0  0  0  0  0
    0.2610    0.2223    2.6085 C   0  0  0  0  0  0  0  0  0  0  0  0
    1.7299   -2.7764   -0.2882 H   0  0  0  0  0  0  0  0  0  0  0  0
    0.2662   -1.7315   -0.7144 H   0  0  0  0  0  0  0  0  0  0  0  0
    2.3901   -1.1966    1.4255 H   0  0  0  0  0  0  0  0  0  0  0  0
    1.1109    2.3974    1.1524 H   0  0  0  0  0  0  0  0  0  0  0  0
    2.5365    1.4366    1.5545 H   0  0  0  0  0  0  0  0  0  0  0  0
    1.9772    1.5221   -0.1191 H   0  0  0  0  0  0  0  0  0  0  0  0
    1.1013    0.1395    3.3032 H   0  0  0  0  0  0  0  0  0  0  0  0
   -0.4013   -0.6276    2.7789 H   0  0  0  0  0  0  0  0  0  0  0  0
   -0.2836    1.1372    2.8514 H   0  0  0  0  0  0  0  0  0  0  0  0
   -1.3275   -0.7874   -2.6465 C   0  0  0  0  0  0  0  0  0  0  0  0
   -1.3275   -0.7874   -1.3222 C   0  0  0  0  0  0  0  0  0  0  0  0
   -1.3275    0.4171   -0.4287 C   0  0  0  0  0  3  0  0  0  0  0  0
   -1.3275    1.7628   -1.1364 C   0  0  0  0  0  0  0  0  0  0  0  0
   -1.3275    0.1295   -3.2240 H   0  0  0  0  0  0  0  0  0  0  0  0
   -1.3275   -1.7147   -3.2052 H   0  0  0  0  0  0  0  0  0  0  0  0
   -1.3275   -1.7431   -0.8040 H   0  0  0  0  0  0  0  0  0  0  0  0
   -0.2843    0.3355    0.3670 H   0  0  0  0  0  0  0  0  0  0  0  0
   -2.1969    0.3491    0.2344 H   0  0  0  0  0  0  0  0  0  0  0  0
   -2.2100    1.8779   -1.7689 H   0  0  0  0  0  0  0  0  0  0  0  0
   -0.4451    1.8779   -1.7689 H   0  0  0  0  0  0  0  0  0  0  0  0
   -1.3275    2.5772   -0.4111 H   0  0  0  0  0  0  0  0  0  0  0  0
  1  2  2  3
  1  6  1  0
  1  7  1  0
  2  3  1  0
  2  8  1  0
  3  4  1  0
  3  5  1  0
  3 22  1  0
  4  9  1  0
  4 10  1  0
  4 11  1  0
  5 12  1  0
  5 13  1  0
  5 14  1  0
 15 16  2  3
 15 19  1  0
 15 20  1  0
 16 17  1  0
 16 21  1  0
 17 18  1  0
 17 23  1  0
 18 24  1  0
 18 25  1  0
 18 26  1  0
M  RAD  1  17   2
M  END
>  <reaction>  (16) 
rxn_1043

>  <mol_properties>  (16) 
{"1": {"label": "*0", "atom_type": "Cd"}, "2": {"label": "*1", "atom_type": "Cs"}, "15": {"label": "*4", "atom_type": "Cd"}, "16": {"label": "*3", "atom_type": "Cs"}, "21": {"label": "*2", "atom_type": "H0"}}

>  <type>  (16) 
unop_12

>  <geom_source>  (16) 
Heuristics

$$$$

     RDKit          3D

 26 24  0  0  0  0  0  0  0  0999 V2000
   -1.1159   -0.2831    0.2047 C   0  0  0  0  0  0  0  0  0  0  0  0
   -1.5790   -1.3955    1.1510 C   0  0  0  0  0  0  0  0  0  0  0  0
   -1.7360   -0.4429   -1.1872 C   0  0  0  0  0  0  0  0  0  0  0  0
    1.7252    1.2742   -1.1991 C   0  0  0  0  0  0  0  0  0  0  0  0
   -1.3974    1.0855    0.7811 C   0  0  0  0  0  0  0  0  0  0  0  0
    1.3652   -0.0894   -0.6219 C   0  0  0  0  0  3  0  0  0  0  0  0
    2.3106   -0.5048    0.4677 C   0  0  0  0  0  0  0  0  0  0  0  0
   -2.6341    1.5250    1.0432 C   0  0  0  0  0  0  0  0  0  0  0  0
    3.5715   -0.8619    0.2075 C   0  0  0  0  0  0  0  0  0  0  0  0
    0.1733   -0.3948    0.0726 H   0  0  0  0  0  0  0  0  0  0  0  0
   -1.1122   -1.2626    2.1502 H   0  0  0  0  0  0  0  0  0  0  0  0
   -1.2677   -2.3841    0.7521 H   0  0  0  0  0  0  0  0  0  0  0  0
   -2.6840   -1.3896    1.2645 H   0  0  0  0  0  0  0  0  0  0  0  0
   -2.8452   -0.4114   -1.1368 H   0  0  0  0  0  0  0  0  0  0  0  0
   -1.3812    0.3696   -1.8563 H   0  0  0  0  0  0  0  0  0  0  0  0
   -1.4275   -1.4144   -1.6283 H   0  0  0  0  0  0  0  0  0  0  0  0
    2.7189    1.2381   -1.6940 H   0  0  0  0  0  0  0  0  0  0  0  0
    1.7401    2.0379   -0.3930 H   0  0  0  0  0  0  0  0  0  0  0  0
    0.9625    1.5660   -1.9505 H   0  0  0  0  0  0  0  0  0  0  0  0
   -0.5560    1.7388    0.9908 H   0  0  0  0  0  0  0  0  0  0  0  0
    1.3257   -0.8591   -1.4228 H   0  0  0  0  0  0  0  0  0  0  0  0
    1.9445   -0.5432    1.4885 H   0  0  0  0  0  0  0  0  0  0  0  0
   -2.7795    2.5174    1.4573 H   0  0  0  0  0  0  0  0  0  0  0  0
   -3.5050    0.9072    0.8500 H   0  0  0  0  0  0  0  0  0  0  0  0
    3.9572   -0.8519   -0.8074 H   0  0  0  0  0  0  0  0  0  0  0  0
    4.2259   -1.1711    1.0160 H   0  0  0  0  0  0  0  0  0  0  0  0
  1  2  1  0
  1  3  1  0
  1  5  1  0
  1 10  1  0
  2 11  1  0
  2 12  1  0
  2 13  1  0
  3 14  1  0
  3 15  1  0
  3 16  1  0
  4  6  1  0
  4 17  1  0
  4 18  1  0
  4 19  1  0
  5  8  2  3
  5 20  1  0
  6  7  1  0
  6 21  1  0
  7  9  2  3
  7 22  1  0
  8 23  1  0
  8 24  1  0
  9 25  1  0
  9 26  1  0
M  RAD  1   6   2
M  END
>  <reaction>  (17) 
rxn_1043

>  <mol_properties>  (17) 
{"1": {"label": "*0", "atom_type": "Cd"}, "2": {"label": "*1", "atom_type": "Cs"}, "15": {"label": "*4", "atom_type": "Cd"}, "16": {"label": "*3", "atom_type": "Cs"}, "21": {"label": "*2", "atom_type": "H0"}}

>  <type>  (17) 
unop_13

>  <geom_source>  (17) 
AutoTST

$$$$
