
     RDKit          3D

  6  5  0  0  0  0  0  0  0  0999 V2000
   -0.5072   -0.0291   -0.0097 C   0  0  0  0  0  0  0  0  0  0  0  0
    1.1321   -0.1527   -0.7687 S   0  0  0  0  0  0  0  0  0  0  0  0
   -0.6174   -0.7330    0.8127 H   0  0  0  0  0  0  0  0  0  0  0  0
   -0.5863    0.9827    0.3845 H   0  0  0  0  0  0  0  0  0  0  0  0
   -1.2962   -0.1800   -0.7434 H   0  0  0  0  0  0  0  0  0  0  0  0
    1.0312   -1.4237   -1.1764 H   0  0  0  0  0  0  0  0  0  0  0  0
  1  2  1  0
  1  3  1  0
  1  4  1  0
  1  5  1  0
  2  6  1  0
M  END
>  <reaction>  (1) 
rxn_1829

>  <mol_properties>  (1) 
{"0": {"label": "donator", "atom_type": "Cs"}, "2": {"label": "d_hydrogen", "atom_type": "H0"}}

>  <type>  (1) 
r1h

$$$$

     RDKit          3D

 17 17  0  0  0  0  0  0  0  0999 V2000
    2.7069    0.2860   -0.1817 C   0  0  0  0  0  0  0  0  0  0  0  0
    1.6304   -0.7245    0.0085 C   0  0  0  0  0  0  0  0  0  0  0  0
    1.4786   -1.8800   -0.7837 C   0  0  0  0  0  0  0  0  0  0  0  0
    0.4231   -2.7891   -0.5312 C   0  0  0  0  0  3  0  0  0  0  0  0
    0.2582   -3.9235   -1.2940 C   0  0  0  0  0  0  0  0  0  0  0  0
    1.1348   -4.2030   -2.3401 C   0  0  0  0  0  0  0  0  0  0  0  0
    2.1804   -3.3260   -2.6093 C   0  0  0  0  0  0  0  0  0  0  0  0
    2.3549   -2.1866   -1.8513 C   0  0  0  0  0  0  0  0  0  0  0  0
    2.6698    0.7343   -1.1808 H   0  0  0  0  0  0  0  0  0  0  0  0
    3.7029   -0.1584   -0.0766 H   0  0  0  0  0  0  0  0  0  0  0  0
    2.6250    1.0917    0.5463 H   0  0  0  0  0  0  0  0  0  0  0  0
    0.9136   -0.5677    0.8059 H   0  0  0  0  0  0  0  0  0  0  0  0
   -0.2629   -2.5783    0.2811 H   0  0  0  0  0  0  0  0  0  0  0  0
   -0.5582   -4.6017   -1.0785 H   0  0  0  0  0  0  0  0  0  0  0  0
    1.0033   -5.0952   -2.9384 H   0  0  0  0  0  0  0  0  0  0  0  0
    2.8650   -3.5382   -3.4214 H   0  0  0  0  0  0  0  0  0  0  0  0
    3.1750   -1.5169   -2.0772 H   0  0  0  0  0  0  0  0  0  0  0  0
  1  2  1  0
  1  9  1  0
  1 10  1  0
  1 11  1  0
  2  3  2  3
  2 12  1  0
  3  4  1  0
  3  8  1  0
  4  5  1  0
  4 13  1  0
  5  6  2  0
  5 14  1  0
  6  7  1  0
  6 15  1  0
  7  8  2  0
  7 16  1  0
  8 17  1  0
M  RAD  1   4   2
M  END
>  <reaction>  (2) 
rxn_1829

>  <mol_properties>  (2) 
{"1": {"label": "acceptor", "atom_type": "Cs"}}

>  <type>  (2) 
r2

$$$$

     RDKit          3D

 18 18  0  0  0  0  0  0  0  0999 V2000
   -2.4852    0.3210   -0.3966 C   0  0  0  0  0  0  0  0  0  0  0  0
   -1.5917   -0.2708    0.6941 C   0  0  0  0  0  0  0  0  0  0  0  0
   -0.1292   -0.1692    0.3493 C   0  0  0  0  0  0  0  0  0  0  0  0
    0.6099    0.9558    0.7015 C   0  0  0  0  0  0  0  0  0  0  0  0
    1.9447    1.0728    0.3458 C   0  0  0  0  0  0  0  0  0  0  0  0
    2.5646    0.0613   -0.3720 C   0  0  0  0  0  0  0  0  0  0  0  0
    1.8399   -1.0657   -0.7287 C   0  0  0  0  0  0  0  0  0  0  0  0
    0.5055   -1.1769   -0.3700 C   0  0  0  0  0  0  0  0  0  0  0  0
   -2.3325   -0.1971   -1.3452 H   0  0  0  0  0  0  0  0  0  0  0  0
   -2.2554    1.3763   -0.5546 H   0  0  0  0  0  0  0  0  0  0  0  0
   -3.5397    0.2376   -0.1280 H   0  0  0  0  0  0  0  0  0  0  0  0
   -1.7801    0.2462    1.6380 H   0  0  0  0  0  0  0  0  0  0  0  0
   -1.8568   -1.3190    0.8516 H   0  0  0  0  0  0  0  0  0  0  0  0
    0.1327    1.7497    1.2656 H   0  0  0  0  0  0  0  0  0  0  0  0
    2.5033    1.9550    0.6330 H   0  0  0  0  0  0  0  0  0  0  0  0
    3.6077    0.1491   -0.6484 H   0  0  0  0  0  0  0  0  0  0  0  0
    2.3163   -1.8632   -1.2854 H   0  0  0  0  0  0  0  0  0  0  0  0
   -0.0540   -2.0629   -0.6500 H   0  0  0  0  0  0  0  0  0  0  0  0
  1  2  1  0
  1  9  1  0
  1 10  1  0
  1 11  1  0
  2  3  1  0
  2 12  1  0
  2 13  1  0
  3  4  2  0
  3  8  1  0
  4  5  1  0
  4 14  1  0
  5  6  2  0
  5 15  1  0
  6  7  1  0
  6 16  1  0
  7  8  2  0
  7 17  1  0
  8 18  1  0
M  END
>  <reaction>  (3) 
rxn_1829

>  <mol_properties>  (3) 
{"0": {"label": "a_hydrogen", "atom_type": "H0"}, "2": {"label": "acceptor", "atom_type": "Cs"}}

>  <type>  (3) 
r2h

$$$$

     RDKit          3D

 23 22  0  0  0  0  0  0  0  0999 V2000
   -1.6277   -1.6995   -0.6584 C   0  0  0  0  0  3  0  0  0  0  0  0
   -0.1012   -2.3110   -1.2895 S   0  0  0  0  0  0  0  0  0  0  0  0
   -1.4813   -0.3200   -0.4502 H   0  0  0  0  0  0  0  0  0  0  0  0
   -2.4166   -1.8030   -1.3979 H   0  0  0  0  0  0  0  0  0  0  0  0
   -1.9061   -2.0700    0.3243 H   0  0  0  0  0  0  0  0  0  0  0  0
    0.6490   -2.0282   -0.2151 H   0  0  0  0  0  0  0  0  0  0  0  0
   -1.0579    1.4725   -1.6853 C   0  0  0  0  0  0  0  0  0  0  0  0
   -1.1742    0.9333   -0.2815 C   0  0  0  0  0  0  0  0  0  0  0  0
    0.0287    0.8758    0.5687 C   0  0  0  0  0  0  0  0  0  0  0  0
   -0.1067    0.6583    1.9444 C   0  0  0  0  0  0  0  0  0  0  0  0
    1.0001    0.5214    2.7621 C   0  0  0  0  0  0  0  0  0  0  0  0
    2.2787    0.5989    2.2254 C   0  0  0  0  0  0  0  0  0  0  0  0
    2.4319    0.8169    0.8649 C   0  0  0  0  0  0  0  0  0  0  0  0
    1.3220    0.9510    0.0453 C   0  0  0  0  0  0  0  0  0  0  0  0
   -0.3977    0.8511   -2.2950 H   0  0  0  0  0  0  0  0  0  0  0  0
   -0.6613    2.4920   -1.6962 H   0  0  0  0  0  0  0  0  0  0  0  0
   -2.0346    1.4872   -2.1699 H   0  0  0  0  0  0  0  0  0  0  0  0
   -2.0431    1.3097    0.2583 H   0  0  0  0  0  0  0  0  0  0  0  0
   -1.1015    0.5981    2.3721 H   0  0  0  0  0  0  0  0  0  0  0  0
    0.8670    0.3564    3.8242 H   0  0  0  0  0  0  0  0  0  0  0  0
    3.1466    0.4944    2.8638 H   0  0  0  0  0  0  0  0  0  0  0  0
    3.4241    0.8834    0.4359 H   0  0  0  0  0  0  0  0  0  0  0  0
    1.4643    1.1154   -1.0148 H   0  0  0  0  0  0  0  0  0  0  0  0
  1  2  1  0
  1  4  1  0
  1  5  1  0
  2  6  1  0
  3  8  1  0
  7  8  1  0
  7 15  1  0
  7 16  1  0
  7 17  1  0
  8  9  1  0
  8 18  1  0
  9 10  2  0
  9 14  1  0
 10 11  1  0
 10 19  1  0
 11 12  2  0
 11 20  1  0
 12 13  1  0
 12 21  1  0
 13 14  2  0
 13 22  1  0
 14 23  1  0
M  RAD  1   1   2
M  END
>  <reaction>  (4) 
rxn_1829

>  <mol_properties>  (4) 
{"0": {"label": "*3", "atom_type": "Cs"}, "1": {"label": "*4", "atom_type": "S2s"}, "2": {"label": "*2", "atom_type": "H0"}, "7": {"label": "*1", "atom_type": "Cs"}, "8": {"label": "*0", "atom_type": "Cd"}}

>  <type>  (4) 
ts

$$$$

     RDKit          3D

 23 22  0  0  0  0  0  0  0  0999 V2000
   -0.4689   -2.9883    0.0600 C   0  0  0  0  0  0  0  0  0  0  0  0
   -0.4689   -2.9883   -1.7507 S   0  0  0  0  0  0  0  0  0  0  0  0
   -0.4689   -1.7725    0.5357 H   0  0  0  0  0  0  0  0  0  0  0  0
   -1.3896   -3.4824    0.3659 H   0  0  0  0  0  0  0  0  0  0  0  0
    0.3755   -3.5483    0.4564 H   0  0  0  0  0  0  0  0  0  0  0  0
    0.7014   -2.3602   -1.9171 H   0  0  0  0  0  0  0  0  0  0  0  0
   -1.7179   -0.3410    1.8702 C   0  0  0  0  0  0  0  0  0  0  0  0
   -0.4689   -0.5515    1.0135 C   0  0  0  0  0  0  0  0  0  0  0  0
    0.1444    0.7510    0.5712 C   0  0  0  0  0  0  0  0  0  0  0  0
    1.0952    1.3946    1.3571 C   0  0  0  0  0  3  0  0  0  0  0  0
    1.6280    2.6161    0.9754 C   0  0  0  0  0  0  0  0  0  0  0  0
    1.2159    3.2167   -0.2045 C   0  0  0  0  0  0  0  0  0  0  0  0
    0.2696    2.5858   -0.9976 C   0  0  0  0  0  0  0  0  0  0  0  0
   -0.2596    1.3643   -0.6105 C   0  0  0  0  0  0  0  0  0  0  0  0
   -2.4788    0.2112    1.3156 H   0  0  0  0  0  0  0  0  0  0  0  0
   -1.4794    0.2335    2.7672 H   0  0  0  0  0  0  0  0  0  0  0  0
   -2.1465   -1.2956    2.1801 H   0  0  0  0  0  0  0  0  0  0  0  0
    0.2672   -1.1268    1.5799 H   0  0  0  0  0  0  0  0  0  0  0  0
    1.4247    0.9295    2.2798 H   0  0  0  0  0  0  0  0  0  0  0  0
    2.3699    3.0988    1.5995 H   0  0  0  0  0  0  0  0  0  0  0  0
    1.6328    4.1693   -0.5062 H   0  0  0  0  0  0  0  0  0  0  0  0
   -0.0555    3.0446   -1.9232 H   0  0  0  0  0  0  0  0  0  0  0  0
   -0.9971    0.8754   -1.2376 H   0  0  0  0  0  0  0  0  0  0  0  0
  1  2  1  0
  1  3  1  0
  1  4  1  0
  1  5  1  0
  2  6  1  0
  7  8  1  0
  7 15  1  0
  7 16  1  0
  7 17  1  0
  8  9  2  3
  8 18  1  0
  9 10  1  0
  9 14  1  0
 10 11  1  0
 10 19  1  0
 11 12  2  0
 11 20  1  0
 12 13  1  0
 12 21  1  0
 13 14  2  0
 13 22  1  0
 14 23  1  0
M  RAD  1  10   2
M  END
>  <reaction>  (5) 
rxn_1829

>  <mol_properties>  (5) 
{"0": {"label": "*3", "atom_type": "Cs"}, "1": {"label": "*4", "atom_type": "S2s"}, "2": {"label": "*2", "atom_type": "H0"}, "7": {"label": "*1", "atom_type": "Cs"}, "8": {"label": "*0", "atom_type": "Cd"}}

>  <type>  (5) 
unop_1

>  <geom_source>  (5) 
Heuristics

$$$$

     RDKit          3D

 23 22  0  0  0  0  0  0  0  0999 V2000
   -1.1272   -2.4233   -0.7506 C   0  0  0  0  0  0  0  0  0  0  0  0
   -1.1272   -2.4233   -2.5612 S   0  0  0  0  0  0  0  0  0  0  0  0
   -1.1272   -1.2074   -0.2748 H   0  0  0  0  0  0  0  0  0  0  0  0
   -2.0479   -2.9174   -0.4446 H   0  0  0  0  0  0  0  0  0  0  0  0
   -0.2829   -2.9833   -0.3541 H   0  0  0  0  0  0  0  0  0  0  0  0
    0.0431   -1.7951   -2.7276 H   0  0  0  0  0  0  0  0  0  0  0  0
   -1.8483    0.9419   -0.7749 C   0  0  0  0  0  0  0  0  0  0  0  0
   -1.1272    0.0135    0.2030 C   0  0  0  0  0  0  0  0  0  0  0  0
    0.0967    0.6560    0.8009 C   0  0  0  0  0  0  0  0  0  0  0  0
    0.0088    1.4088    1.9677 C   0  0  0  0  0  3  0  0  0  0  0  0
    1.1247    2.0395    2.4957 C   0  0  0  0  0  0  0  0  0  0  0  0
    2.3527    1.9270    1.8615 C   0  0  0  0  0  0  0  0  0  0  0  0
    2.4544    1.1791    0.6983 C   0  0  0  0  0  0  0  0  0  0  0  0
    1.3349    0.5507    0.1752 C   0  0  0  0  0  0  0  0  0  0  0  0
   -1.1887    1.2253   -1.5971 H   0  0  0  0  0  0  0  0  0  0  0  0
   -2.1670    1.8584   -0.2747 H   0  0  0  0  0  0  0  0  0  0  0  0
   -2.7312    0.4583   -1.1965 H   0  0  0  0  0  0  0  0  0  0  0  0
   -1.8138   -0.2761    1.0022 H   0  0  0  0  0  0  0  0  0  0  0  0
   -0.9476    1.4988    2.4711 H   0  0  0  0  0  0  0  0  0  0  0  0
    1.0359    2.6177    3.4071 H   0  0  0  0  0  0  0  0  0  0  0  0
    3.2261    2.4162    2.2735 H   0  0  0  0  0  0  0  0  0  0  0  0
    3.4100    1.0815    0.1980 H   0  0  0  0  0  0  0  0  0  0  0  0
    1.4230   -0.0351   -0.7332 H   0  0  0  0  0  0  0  0  0  0  0  0
  1  2  1  0
  1  3  1  0
  1  4  1  0
  1  5  1  0
  2  6  1  0
  7  8  1  0
  7 15  1  0
  7 16  1  0
  7 17  1  0
  8  9  2  3
  8 18  1  0
  9 10  1  0
  9 14  1  0
 10 11  1  0
 10 19  1  0
 11 12  2  0
 11 20  1  0
 12 13  1  0
 12 21  1  0
 13 14  2  0
 13 22  1  0
 14 23  1  0
M  RAD  1  10   2
M  END
>  <reaction>  (6) 
rxn_1829

>  <mol_properties>  (6) 
{"0": {"label": "*3", "atom_type": "Cs"}, "1": {"label": "*4", "atom_type": "S2s"}, "2": {"label": "*2", "atom_type": "H0"}, "7": {"label": "*1", "atom_type": "Cs"}, "8": {"label": "*0", "atom_type": "Cd"}}

>  <type>  (6) 
unop_2

>  <geom_source>  (6) 
Heuristics

$$$$

     RDKit          3D

 23 22  0  0  0  0  0  0  0  0999 V2000
    0.2156   -2.9684    0.2989 C   0  0  0  0  0  0  0  0  0  0  0  0
    0.2156   -2.9684   -1.5118 S   0  0  0  0  0  0  0  0  0  0  0  0
    0.2156   -1.7526    0.7746 H   0  0  0  0  0  0  0  0  0  0  0  0
   -0.7051   -3.4625    0.6048 H   0  0  0  0  0  0  0  0  0  0  0  0
    1.0599   -3.5284    0.6954 H   0  0  0  0  0  0  0  0  0  0  0  0
    1.3859   -2.3403   -1.6782 H   0  0  0  0  0  0  0  0  0  0  0  0
   -0.5055   -0.5135    2.6007 C   0  0  0  0  0  0  0  0  0  0  0  0
    0.2156   -0.5316    1.2524 C   0  0  0  0  0  0  0  0  0  0  0  0
    0.0709    0.7718    0.5118 C   0  0  0  0  0  0  0  0  0  0  0  0
    0.9816    1.8059    0.7040 C   0  0  0  0  0  3  0  0  0  0  0  0
    0.8259    3.0230    0.0589 C   0  0  0  0  0  0  0  0  0  0  0  0
   -0.2491    3.2263   -0.7930 C   0  0  0  0  0  0  0  0  0  0  0  0
   -1.1638    2.2038   -0.9942 C   0  0  0  0  0  0  0  0  0  0  0  0
   -1.0026    0.9889   -0.3462 C   0  0  0  0  0  0  0  0  0  0  0  0
   -1.5725   -0.3263    2.4663 H   0  0  0  0  0  0  0  0  0  0  0  0
   -0.1086    0.2764    3.2411 H   0  0  0  0  0  0  0  0  0  0  0  0
   -0.3887   -1.4658    3.1209 H   0  0  0  0  0  0  0  0  0  0  0  0
    1.2754   -0.7451    1.4103 H   0  0  0  0  0  0  0  0  0  0  0  0
    1.8267    1.6533    1.3664 H   0  0  0  0  0  0  0  0  0  0  0  0
    1.5481    3.8139    0.2191 H   0  0  0  0  0  0  0  0  0  0  0  0
   -0.3713    4.1749   -1.3002 H   0  0  0  0  0  0  0  0  0  0  0  0
   -2.0043    2.3512   -1.6611 H   0  0  0  0  0  0  0  0  0  0  0  0
   -1.7204    0.1927   -0.5111 H   0  0  0  0  0  0  0  0  0  0  0  0
  1  2  1  0
  1  3  1  0
  1  4  1  0
  1  5  1  0
  2  6  1  0
  7  8  1  0
  7 15  1  0
  7 16  1  0
  7 17  1  0
  8  9  2  3
  8 18  1  0
  9 10  1  0
  9 14  1  0
 10 11  1  0
 10 19  1  0
 11 12  2  0
 11 20  1  0
 12 13  1  0
 12 21  1  0
 13 14  2  0
 13 22  1  0
 14 23  1  0
M  RAD  1  10   2
M  END
>  <reaction>  (7) 
rxn_1829

>  <mol_properties>  (7) 
{"0": {"label": "*3", "atom_type": "Cs"}, "1": {"label": "*4", "atom_type": "S2s"}, "2": {"label": "*2", "atom_type": "H0"}, "7": {"label": "*1", "atom_type": "Cs"}, "8": {"label": "*0", "atom_type": "Cd"}}

>  <type>  (7) 
unop_3

>  <geom_source>  (7) 
Heuristics

$$$$

     RDKit          3D

 23 22  0  0  0  0  0  0  0  0999 V2000
   -0.3813   -1.0647   -1.5057 C   0  0  0  0  0  0  0  0  0  0  0  0
   -0.3813   -1.0647   -3.3163 S   0  0  0  0  0  0  0  0  0  0  0  0
   -0.3813    0.1511   -1.0299 H   0  0  0  0  0  0  0  0  0  0  0  0
   -1.3020   -1.5588   -1.1997 H   0  0  0  0  0  0  0  0  0  0  0  0
    0.4631   -1.6247   -1.1092 H   0  0  0  0  0  0  0  0  0  0  0  0
    0.7890   -0.4366   -3.4827 H   0  0  0  0  0  0  0  0  0  0  0  0
    0.8677    2.1081   -1.0384 C   0  0  0  0  0  0  0  0  0  0  0  0
   -0.3813    1.3721   -0.5521 C   0  0  0  0  0  0  0  0  0  0  0  0
   -0.1494    0.6584    0.7537 C   0  0  0  0  0  0  0  0  0  0  0  0
   -0.3614    1.3052    1.9672 C   0  0  0  0  0  3  0  0  0  0  0  0
   -0.1052    0.6665    3.1706 C   0  0  0  0  0  0  0  0  0  0  0  0
    0.3699   -0.6361    3.1795 C   0  0  0  0  0  0  0  0  0  0  0  0
    0.5848   -1.2928    1.9772 C   0  0  0  0  0  0  0  0  0  0  0  0
    0.3267   -0.6487    0.7771 C   0  0  0  0  0  0  0  0  0  0  0  0
    1.6949    1.4112   -1.1850 H   0  0  0  0  0  0  0  0  0  0  0  0
    1.1873    2.8527   -0.3070 H   0  0  0  0  0  0  0  0  0  0  0  0
    0.6790    2.6181   -1.9847 H   0  0  0  0  0  0  0  0  0  0  0  0
   -1.2012    2.0851   -0.4369 H   0  0  0  0  0  0  0  0  0  0  0  0
   -0.7359    2.3231    1.9683 H   0  0  0  0  0  0  0  0  0  0  0  0
   -0.2805    1.1864    4.1043 H   0  0  0  0  0  0  0  0  0  0  0  0
    0.5679   -1.1381    4.1180 H   0  0  0  0  0  0  0  0  0  0  0  0
    0.9514   -2.3118    1.9737 H   0  0  0  0  0  0  0  0  0  0  0  0
    0.4942   -1.1698   -0.1592 H   0  0  0  0  0  0  0  0  0  0  0  0
  1  2  1  0
  1  3  1  0
  1  4  1  0
  1  5  1  0
  2  6  1  0
  7  8  1  0
  7 15  1  0
  7 16  1  0
  7 17  1  0
  8  9  2  3
  8 18  1  0
  9 10  1  0
  9 14  1  0
 10 11  1  0
 10 19  1  0
 11 12  2  0
 11 20  1  0
 12 13  1  0
 12 21  1  0
 13 14  2  0
 13 22  1  0
 14 23  1  0
M  RAD  1  10   2
M  END
>  <reaction>  (8) 
rxn_1829

>  <mol_properties>  (8) 
{"0": {"label": "*3", "atom_type": "Cs"}, "1": {"label": "*4", "atom_type": "S2s"}, "2": {"label": "*2", "atom_type": "H0"}, "7": {"label": "*1", "atom_type": "Cs"}, "8": {"label": "*0", "atom_type": "Cd"}}

>  <type>  (8) 
unop_4

>  <geom_source>  (8) 
Heuristics

$$$$

     RDKit          3D

 23 22  0  0  0  0  0  0  0  0999 V2000
    1.1605   -2.4188    0.0860 C   0  0  0  0  0  0  0  0  0  0  0  0
    1.1605   -2.4188   -1.7247 S   0  0  0  0  0  0  0  0  0  0  0  0
    1.1605   -1.2030    0.5618 H   0  0  0  0  0  0  0  0  0  0  0  0
    0.2398   -2.9129    0.3919 H   0  0  0  0  0  0  0  0  0  0  0  0
    2.0049   -2.9788    0.4825 H   0  0  0  0  0  0  0  0  0  0  0  0
    2.3308   -1.7907   -1.8911 H   0  0  0  0  0  0  0  0  0  0  0  0
    1.1605   -0.0343    2.5678 C   0  0  0  0  0  0  0  0  0  0  0  0
    1.1605    0.0180    1.0396 C   0  0  0  0  0  0  0  0  0  0  0  0
   -0.0256    0.7700    0.4955 C   0  0  0  0  0  0  0  0  0  0  0  0
    0.0332    2.1454    0.2947 C   0  0  0  0  0  3  0  0  0  0  0  0
   -1.0711    2.8477   -0.1625 C   0  0  0  0  0  0  0  0  0  0  0  0
   -2.2583    2.1819   -0.4272 C   0  0  0  0  0  0  0  0  0  0  0  0
   -2.3304    0.8110   -0.2322 C   0  0  0  0  0  0  0  0  0  0  0  0
   -1.2226    0.1143    0.2252 C   0  0  0  0  0  0  0  0  0  0  0  0
    0.2591   -0.5262    2.9380 H   0  0  0  0  0  0  0  0  0  0  0  0
    1.1856    0.9723    2.9893 H   0  0  0  0  0  0  0  0  0  0  0  0
    2.0269   -0.5827    2.9415 H   0  0  0  0  0  0  0  0  0  0  0  0
    2.0821    0.4912    0.6924 H   0  0  0  0  0  0  0  0  0  0  0  0
    0.9593    2.6727    0.4966 H   0  0  0  0  0  0  0  0  0  0  0  0
   -1.0034    3.9177   -0.3159 H   0  0  0  0  0  0  0  0  0  0  0  0
   -3.1212    2.7277   -0.7871 H   0  0  0  0  0  0  0  0  0  0  0  0
   -3.2517    0.2812   -0.4403 H   0  0  0  0  0  0  0  0  0  0  0  0
   -1.2857   -0.9584    0.3724 H   0  0  0  0  0  0  0  0  0  0  0  0
  1  2  1  0
  1  3  1  0
  1  4  1  0
  1  5  1  0
  2  6  1  0
  7  8  1  0
  7 15  1  0
  7 16  1  0
  7 17  1  0
  8  9  2  3
  8 18  1  0
  9 10  1  0
  9 14  1  0
 10 11  1  0
 10 19  1  0
 11 12  2  0
 11 20  1  0
 12 13  1  0
 12 21  1  0
 13 14  2  0
 13 22  1  0
 14 23  1  0
M  RAD  1  10   2
M  END
>  <reaction>  (9) 
rxn_1829

>  <mol_properties>  (9) 
{"0": {"label": "*3", "atom_type": "Cs"}, "1": {"label": "*4", "atom_type": "S2s"}, "2": {"label": "*2", "atom_type": "H0"}, "7": {"label": "*1", "atom_type": "Cs"}, "8": {"label": "*0", "atom_type": "Cd"}}

>  <type>  (9) 
unop_5

>  <geom_source>  (9) 
Heuristics

$$$$

     RDKit          3D

 23 21  0  0  0  0  0  0  0  0999 V2000
    0.2975   -0.9143   -1.4391 C   0  0  0  0  0  3  0  0  0  0  0  0
    0.2975   -0.9143   -3.2497 S   0  0  0  0  0  1  0  0  0  0  0  0
    0.2975    0.3016   -0.9633 H   0  0  0  0  0  0  0  0  0  0  0  0
   -0.6232   -1.4084   -1.1331 H   0  0  0  0  0  0  0  0  0  0  0  0
    1.1418   -1.4743   -1.0426 H   0  0  0  0  0  0  0  0  0  0  0  0
    1.4678   -0.2861   -3.4161 H   0  0  0  0  0  0  0  0  0  0  0  0
    1.7396    1.9958   -0.3003 C   0  0  0  0  0  0  0  0  0  0  0  0
    0.2975    1.5225   -0.4855 C   0  0  0  0  0  0  0  0  0  0  0  0
   -0.1811    0.6877    0.6731 C   0  0  0  0  0  0  0  0  0  0  0  0
   -0.7805    1.2809    1.7797 C   0  0  0  0  0  3  0  0  0  0  0  0
   -1.1807    0.5206    2.8676 C   0  0  0  0  0  0  0  0  0  0  0  0
   -0.9863   -0.8523    2.8662 C   0  0  0  0  0  0  0  0  0  0  0  0
   -0.3909   -1.4564    1.7693 C   0  0  0  0  0  0  0  0  0  0  0  0
    0.0071   -0.6907    0.6844 C   0  0  0  0  0  0  0  0  0  0  0  0
    2.4166    1.1449   -0.2040 H   0  0  0  0  0  0  0  0  0  0  0  0
    1.8355    2.5996    0.6040 H   0  0  0  0  0  0  0  0  0  0  0  0
    2.0669    2.5983   -1.1495 H   0  0  0  0  0  0  0  0  0  0  0  0
   -0.3568    2.3895   -0.6045 H   0  0  0  0  0  0  0  0  0  0  0  0
   -0.9387    2.3539    1.7868 H   0  0  0  0  0  0  0  0  0  0  0  0
   -1.6489    1.0013    3.7177 H   0  0  0  0  0  0  0  0  0  0  0  0
   -1.3006   -1.4485    3.7134 H   0  0  0  0  0  0  0  0  0  0  0  0
   -0.2387   -2.5286    1.7567 H   0  0  0  0  0  0  0  0  0  0  0  0
    0.4694   -1.1708   -0.1713 H   0  0  0  0  0  0  0  0  0  0  0  0
  1  3  1  0
  1  4  1  0
  1  5  1  0
  2  6  1  0
  7  8  1  0
  7 15  1  0
  7 16  1  0
  7 17  1  0
  8  9  2  3
  8 18  1  0
  9 10  1  0
  9 14  1  0
 10 11  1  0
 10 19  1  0
 11 12  2  0
 11 20  1  0
 12 13  1  0
 12 21  1  0
 13 14  2  0
 13 22  1  0
 14 23  1  0
M  RAD  3   1   2   2   2  10   2
M  END
>  <reaction>  (10) 
rxn_1829

>  <mol_properties>  (10) 
{"0": {"label": "*3", "atom_type": "Cs"}, "1": {"label": "*4", "atom_type": "S2s"}, "2": {"label": "*2", "atom_type": "H0"}, "7": {"label": "*1", "atom_type": "Cs"}, "8": {"label": "*0", "atom_type": "Cd"}}

>  <type>  (10) 
unop_6

>  <geom_source>  (10) 
Heuristics

$$$$

     RDKit          3D

 23 21  0  0  0  0  0  0  0  0999 V2000
    0.9395   -1.0362   -1.1267 C   0  0  0  0  0  3  0  0  0  0  0  0
    0.9395   -1.0362   -2.9374 S   0  0  0  0  0  1  0  0  0  0  0  0
    0.9395    0.1797   -0.6510 H   0  0  0  0  0  0  0  0  0  0  0  0
    0.0188   -1.5303   -0.8208 H   0  0  0  0  0  0  0  0  0  0  0  0
    1.7839   -1.5962   -0.7302 H   0  0  0  0  0  0  0  0  0  0  0  0
    2.1098   -0.4080   -3.1038 H   0  0  0  0  0  0  0  0  0  0  0  0
    2.1885    1.6111    0.6835 C   0  0  0  0  0  0  0  0  0  0  0  0
    0.9395    1.4006   -0.1732 C   0  0  0  0  0  0  0  0  0  0  0  0
   -0.1664    0.7203    0.5899 C   0  0  0  0  0  0  0  0  0  0  0  0
   -1.0928    1.4622    1.3160 C   0  0  0  0  0  3  0  0  0  0  0  0
   -2.0843    0.8375    2.0566 C   0  0  0  0  0  0  0  0  0  0  0  0
   -2.1653   -0.5465    2.0832 C   0  0  0  0  0  0  0  0  0  0  0  0
   -1.2489   -1.2980    1.3634 C   0  0  0  0  0  0  0  0  0  0  0  0
   -0.2596   -0.6675    0.6246 C   0  0  0  0  0  0  0  0  0  0  0  0
    2.5750    0.6564    1.0450 H   0  0  0  0  0  0  0  0  0  0  0  0
    1.9604    2.2276    1.5550 H   0  0  0  0  0  0  0  0  0  0  0  0
    2.9770    2.1048    0.1129 H   0  0  0  0  0  0  0  0  0  0  0  0
    0.5861    2.3660   -0.5433 H   0  0  0  0  0  0  0  0  0  0  0  0
   -1.0377    2.5452    1.2976 H   0  0  0  0  0  0  0  0  0  0  0  0
   -2.7981    1.4334    2.6118 H   0  0  0  0  0  0  0  0  0  0  0  0
   -2.9405   -1.0365    2.6584 H   0  0  0  0  0  0  0  0  0  0  0  0
   -1.3065   -2.3794    1.3741 H   0  0  0  0  0  0  0  0  0  0  0  0
    0.4517   -1.2620    0.0617 H   0  0  0  0  0  0  0  0  0  0  0  0
  1  3  1  0
  1  4  1  0
  1  5  1  0
  2  6  1  0
  7  8  1  0
  7 15  1  0
  7 16  1  0
  7 17  1  0
  8  9  2  3
  8 18  1  0
  9 10  1  0
  9 14  1  0
 10 11  1  0
 10 19  1  0
 11 12  2  0
 11 20  1  0
 12 13  1  0
 12 21  1  0
 13 14  2  0
 13 22  1  0
 14 23  1  0
M  RAD  3   1   2   2   2  10   2
M  END
>  <reaction>  (11) 
rxn_1829

>  <mol_properties>  (11) 
{"0": {"label": "*3", "atom_type": "Cs"}, "1": {"label": "*4", "atom_type": "S2s"}, "2": {"label": "*2", "atom_type": "H0"}, "7": {"label": "*1", "atom_type": "Cs"}, "8": {"label": "*0", "atom_type": "Cd"}}

>  <type>  (11) 
unop_7

>  <geom_source>  (11) 
Heuristics

$$$$

     RDKit          3D

 23 22  0  0  0  0  0  0  0  0999 V2000
   -0.7999   -2.8658   -0.2527 C   0  0  0  0  0  0  0  0  0  0  0  0
   -0.7999   -2.8658   -2.0634 S   0  0  0  0  0  0  0  0  0  0  0  0
   -0.7999   -1.6500    0.2230 H   0  0  0  0  0  0  0  0  0  0  0  0
   -1.7206   -3.3600    0.0532 H   0  0  0  0  0  0  0  0  0  0  0  0
    0.0444   -3.4258    0.1437 H   0  0  0  0  0  0  0  0  0  0  0  0
    0.3704   -2.2377   -2.2298 H   0  0  0  0  0  0  0  0  0  0  0  0
   -2.2421    0.0442    0.8860 C   0  0  0  0  0  0  0  0  0  0  0  0
   -0.7999   -0.4290    0.7008 C   0  0  0  0  0  0  0  0  0  0  0  0
    0.1744    0.7185    0.6544 C   0  0  0  0  0  0  0  0  0  0  0  0
    0.7492    1.2133    1.8207 C   0  0  0  0  0  3  0  0  0  0  0  0
    1.6110    2.2988    1.7867 C   0  0  0  0  0  0  0  0  0  0  0  0
    1.9128    2.9099    0.5792 C   0  0  0  0  0  0  0  0  0  0  0  0
    1.3475    2.4262   -0.5909 C   0  0  0  0  0  0  0  0  0  0  0  0
    0.4865    1.3405   -0.5504 C   0  0  0  0  0  0  0  0  0  0  0  0
   -2.5424    0.6999    0.0665 H   0  0  0  0  0  0  0  0  0  0  0  0
   -2.3485    0.6061    1.8159 H   0  0  0  0  0  0  0  0  0  0  0  0
   -2.9315   -0.8012    0.9171 H   0  0  0  0  0  0  0  0  0  0  0  0
   -0.5309   -1.1023    1.5182 H   0  0  0  0  0  0  0  0  0  0  0  0
    0.5204    0.7386    2.7686 H   0  0  0  0  0  0  0  0  0  0  0  0
    2.0509    2.6662    2.7056 H   0  0  0  0  0  0  0  0  0  0  0  0
    2.5878    3.7558    0.5497 H   0  0  0  0  0  0  0  0  0  0  0  0
    1.5805    2.8938   -1.5396 H   0  0  0  0  0  0  0  0  0  0  0  0
    0.0506    0.9659   -1.4702 H   0  0  0  0  0  0  0  0  0  0  0  0
  1  2  1  0
  1  3  1  0
  1  4  1  0
  1  5  1  0
  2  6  1  0
  7  8  1  0
  7 15  1  0
  7 16  1  0
  7 17  1  0
  8  9  2  3
  8 18  1  0
  9 10  1  0
  9 14  1  0
 10 11  1  0
 10 19  1  0
 11 12  2  0
 11 20  1  0
 12 13  1  0
 12 21  1  0
 13 14  2  0
 13 22  1  0
 14 23  1  0
M  RAD  1  10   2
M  END
>  <reaction>  (12) 
rxn_1829

>  <mol_properties>  (12) 
{"0": {"label": "*3", "atom_type": "Cs"}, "1": {"label": "*4", "atom_type": "S2s"}, "2": {"label": "*2", "atom_type": "H0"}, "7": {"label": "*1", "atom_type": "Cs"}, "8": {"label": "*0", "atom_type": "Cd"}}

>  <type>  (12) 
unop_8

>  <geom_source>  (12) 
Heuristics

$$$$

     RDKit          3D

 23 22  0  0  0  0  0  0  0  0999 V2000
   -0.9299   -1.4560   -1.3386 C   0  0  0  0  0  0  0  0  0  0  0  0
   -0.9299   -1.4560   -3.1492 S   0  0  0  0  0  0  0  0  0  0  0  0
   -0.9299   -0.2402   -0.8628 H   0  0  0  0  0  0  0  0  0  0  0  0
   -1.8506   -1.9502   -1.0326 H   0  0  0  0  0  0  0  0  0  0  0  0
   -0.0856   -2.0160   -0.9421 H   0  0  0  0  0  0  0  0  0  0  0  0
    0.2404   -0.8279   -3.3156 H   0  0  0  0  0  0  0  0  0  0  0  0
   -0.2088    1.9092   -1.3629 C   0  0  0  0  0  0  0  0  0  0  0  0
   -0.9299    0.9808   -0.3850 C   0  0  0  0  0  0  0  0  0  0  0  0
   -0.0789    0.6408    0.8102 C   0  0  0  0  0  0  0  0  0  0  0  0
   -0.0940    1.4423    1.9473 C   0  0  0  0  0  3  0  0  0  0  0  0
    0.7221    1.1582    3.0314 C   0  0  0  0  0  0  0  0  0  0  0  0
    1.5709    0.0624    2.9950 C   0  0  0  0  0  0  0  0  0  0  0  0
    1.5953   -0.7453    1.8682 C   0  0  0  0  0  0  0  0  0  0  0  0
    0.7768   -0.4560    0.7873 C   0  0  0  0  0  0  0  0  0  0  0  0
    0.7084    1.4459   -1.7312 H   0  0  0  0  0  0  0  0  0  0  0  0
    0.0659    2.8464   -0.8753 H   0  0  0  0  0  0  0  0  0  0  0  0
   -0.8416    2.1432   -2.2208 H   0  0  0  0  0  0  0  0  0  0  0  0
   -1.8556    1.4546   -0.0499 H   0  0  0  0  0  0  0  0  0  0  0  0
   -0.7575    2.2993    1.9844 H   0  0  0  0  0  0  0  0  0  0  0  0
    0.6924    1.7925    3.9087 H   0  0  0  0  0  0  0  0  0  0  0  0
    2.2069   -0.1632    3.8416 H   0  0  0  0  0  0  0  0  0  0  0  0
    2.2515   -1.6060    1.8318 H   0  0  0  0  0  0  0  0  0  0  0  0
    0.7992   -1.0941   -0.0894 H   0  0  0  0  0  0  0  0  0  0  0  0
  1  2  1  0
  1  3  1  0
  1  4  1  0
  1  5  1  0
  2  6  1  0
  7  8  1  0
  7 15  1  0
  7 16  1  0
  7 17  1  0
  8  9  2  3
  8 18  1  0
  9 10  1  0
  9 14  1  0
 10 11  1  0
 10 19  1  0
 11 12  2  0
 11 20  1  0
 12 13  1  0
 12 21  1  0
 13 14  2  0
 13 22  1  0
 14 23  1  0
M  RAD  1  10   2
M  END
>  <reaction>  (13) 
rxn_1829

>  <mol_properties>  (13) 
{"0": {"label": "*3", "atom_type": "Cs"}, "1": {"label": "*4", "atom_type": "S2s"}, "2": {"label": "*2", "atom_type": "H0"}, "7": {"label": "*1", "atom_type": "Cs"}, "8": {"label": "*0", "atom_type": "Cd"}}

>  <type>  (13) 
unop_9

>  <geom_source>  (13) 
Heuristics

$$$$

     RDKit          3D

 23 22  0  0  0  0  0  0  0  0999 V2000
   -0.9798   -2.6951   -0.5145 C   0  0  0  0  0  0  0  0  0  0  0  0
   -0.9798   -2.6951   -2.3252 S   0  0  0  0  0  0  0  0  0  0  0  0
   -0.9798   -1.4793   -0.0388 H   0  0  0  0  0  0  0  0  0  0  0  0
   -1.9005   -3.1892   -0.2086 H   0  0  0  0  0  0  0  0  0  0  0  0
   -0.1355   -3.2551   -0.1181 H   0  0  0  0  0  0  0  0  0  0  0  0
    0.1905   -2.0669   -2.4916 H   0  0  0  0  0  0  0  0  0  0  0  0
   -2.2288    0.4778   -0.0473 C   0  0  0  0  0  0  0  0  0  0  0  0
   -0.9798   -0.2583    0.4390 C   0  0  0  0  0  0  0  0  0  0  0  0
    0.1562    0.6841    0.7381 C   0  0  0  0  0  0  0  0  0  0  0  0
    0.3004    1.2488    2.0015 C   0  0  0  0  0  3  0  0  0  0  0  0
    1.3179    2.1520    2.2675 C   0  0  0  0  0  0  0  0  0  0  0  0
    2.2119    2.5069    1.2688 C   0  0  0  0  0  0  0  0  0  0  0  0
    2.0802    1.9509    0.0054 C   0  0  0  0  0  0  0  0  0  0  0  0
    1.0606    1.0483   -0.2545 C   0  0  0  0  0  0  0  0  0  0  0  0
   -2.0165    1.0394   -0.9589 H   0  0  0  0  0  0  0  0  0  0  0  0
   -2.5773    1.1873    0.7055 H   0  0  0  0  0  0  0  0  0  0  0  0
   -3.0393   -0.2220   -0.2582 H   0  0  0  0  0  0  0  0  0  0  0  0
   -1.2229   -0.8321    1.3365 H   0  0  0  0  0  0  0  0  0  0  0  0
   -0.3932    0.9737    2.7886 H   0  0  0  0  0  0  0  0  0  0  0  0
    1.4151    2.5773    3.2588 H   0  0  0  0  0  0  0  0  0  0  0  0
    3.0091    3.2098    1.4750 H   0  0  0  0  0  0  0  0  0  0  0  0
    2.7761    2.2183   -0.7801 H   0  0  0  0  0  0  0  0  0  0  0  0
    0.9659    0.6152   -1.2443 H   0  0  0  0  0  0  0  0  0  0  0  0
  1  2  1  0
  1  3  1  0
  1  4  1  0
  1  5  1  0
  2  6  1  0
  7  8  1  0
  7 15  1  0
  7 16  1  0
  7 17  1  0
  8  9  2  3
  8 18  1  0
  9 10  1  0
  9 14  1  0
 10 11  1  0
 10 19  1  0
 11 12  2  0
 11 20  1  0
 12 13  1  0
 12 21  1  0
 13 14  2  0
 13 22  1  0
 14 23  1  0
M  RAD  1  10   2
M  END
>  <reaction>  (14) 
rxn_1829

>  <mol_properties>  (14) 
{"0": {"label": "*3", "atom_type": "Cs"}, "1": {"label": "*4", "atom_type": "S2s"}, "2": {"label": "*2", "atom_type": "H0"}, "7": {"label": "*1", "atom_type": "Cs"}, "8": {"label": "*0", "atom_type": "Cd"}}

>  <type>  (14) 
unop_10

>  <geom_source>  (14) 
Heuristics

$$$$

     RDKit          3D

 23 22  0  0  0  0  0  0  0  0999 V2000
    1.3783   -1.5214   -0.5808 C   0  0  0  0  0  0  0  0  0  0  0  0
    1.3783   -1.5214   -2.3914 S   0  0  0  0  0  0  0  0  0  0  0  0
    1.3783   -0.3056   -0.1050 H   0  0  0  0  0  0  0  0  0  0  0  0
    0.4577   -2.0156   -0.2748 H   0  0  0  0  0  0  0  0  0  0  0  0
    2.2227   -2.0814   -0.1843 H   0  0  0  0  0  0  0  0  0  0  0  0
    2.5486   -0.8933   -2.5578 H   0  0  0  0  0  0  0  0  0  0  0  0
    2.0994    0.9335    1.7211 C   0  0  0  0  0  0  0  0  0  0  0  0
    1.3783    0.9154    0.3728 C   0  0  0  0  0  0  0  0  0  0  0  0
   -0.1107    0.7489    0.5256 C   0  0  0  0  0  0  0  0  0  0  0  0
   -0.9404    1.8560    0.6735 C   0  0  0  0  0  3  0  0  0  0  0  0
   -2.3057    1.7046    0.8603 C   0  0  0  0  0  0  0  0  0  0  0  0
   -2.8657    0.4369    0.9027 C   0  0  0  0  0  0  0  0  0  0  0  0
   -2.0504   -0.6750    0.7558 C   0  0  0  0  0  0  0  0  0  0  0  0
   -0.6858   -0.5172    0.5693 C   0  0  0  0  0  0  0  0  0  0  0  0
    1.9249    0.0037    2.2657 H   0  0  0  0  0  0  0  0  0  0  0  0
    1.7371    1.7545    2.3426 H   0  0  0  0  0  0  0  0  0  0  0  0
    3.1759    1.0548    1.5887 H   0  0  0  0  0  0  0  0  0  0  0  0
    1.5879    1.8439   -0.1636 H   0  0  0  0  0  0  0  0  0  0  0  0
   -0.5100    2.8509    0.6384 H   0  0  0  0  0  0  0  0  0  0  0  0
   -2.9346    2.5795    0.9696 H   0  0  0  0  0  0  0  0  0  0  0  0
   -3.9321    0.3162    1.0455 H   0  0  0  0  0  0  0  0  0  0  0  0
   -2.4789   -1.6693    0.7830 H   0  0  0  0  0  0  0  0  0  0  0  0
   -0.0550   -1.3916    0.4520 H   0  0  0  0  0  0  0  0  0  0  0  0
  1  2  1  0
  1  3  1  0
  1  4  1  0
  1  5  1  0
  2  6  1  0
  7  8  1  0
  7 15  1  0
  7 16  1  0
  7 17  1  0
  8  9  2  3
  8 18  1  0
  9 10  1  0
  9 14  1  0
 10 11  1  0
 10 19  1  0
 11 12  2  0
 11 20  1  0
 12 13  1  0
 12 21  1  0
 13 14  2  0
 13 22  1  0
 14 23  1  0
M  RAD  1  10   2
M  END
>  <reaction>  (15) 
rxn_1829

>  <mol_properties>  (15) 
{"0": {"label": "*3", "atom_type": "Cs"}, "1": {"label": "*4", "atom_type": "S2s"}, "2": {"label": "*2", "atom_type": "H0"}, "7": {"label": "*1", "atom_type": "Cs"}, "8": {"label": "*0", "atom_type": "Cd"}}

>  <type>  (15) 
unop_11

>  <geom_source>  (15) 
Heuristics

$$$$

     RDKit          3D

 23 22  0  0  0  0  0  0  0  0999 V2000
   -1.1749   -1.9796   -1.0362 C   0  0  0  0  0  0  0  0  0  0  0  0
   -1.1749   -1.9796   -2.8469 S   0  0  0  0  0  0  0  0  0  0  0  0
   -1.1749   -0.7638   -0.5604 H   0  0  0  0  0  0  0  0  0  0  0  0
   -2.0956   -2.4738   -0.7303 H   0  0  0  0  0  0  0  0  0  0  0  0
   -0.3305   -2.5396   -0.6397 H   0  0  0  0  0  0  0  0  0  0  0  0
   -0.0046   -1.3515   -3.0133 H   0  0  0  0  0  0  0  0  0  0  0  0
   -1.1749    1.4560   -1.2405 C   0  0  0  0  0  0  0  0  0  0  0  0
   -1.1749    0.4571   -0.0827 C   0  0  0  0  0  0  0  0  0  0  0  0
    0.0112    0.6402    0.8272 C   0  0  0  0  0  0  0  0  0  0  0  0
   -0.0476    1.5140    1.9083 C   0  0  0  0  0  3  0  0  0  0  0  0
    1.0567    1.7195    2.7207 C   0  0  0  0  0  0  0  0  0  0  0  0
    2.2439    1.0508    2.4632 C   0  0  0  0  0  0  0  0  0  0  0  0
    2.3160    0.1764    1.3895 C   0  0  0  0  0  0  0  0  0  0  0  0
    1.2082   -0.0249    0.5807 C   0  0  0  0  0  0  0  0  0  0  0  0
   -0.2735    1.3460   -1.8462 H   0  0  0  0  0  0  0  0  0  0  0  0
   -1.2000    2.4813   -0.8668 H   0  0  0  0  0  0  0  0  0  0  0  0
   -2.0413    1.3069   -1.8872 H   0  0  0  0  0  0  0  0  0  0  0  0
   -2.0965    0.5690    0.4934 H   0  0  0  0  0  0  0  0  0  0  0  0
   -0.9737    2.0382    2.1178 H   0  0  0  0  0  0  0  0  0  0  0  0
    0.9890    2.4011    3.5595 H   0  0  0  0  0  0  0  0  0  0  0  0
    3.1068    1.2074    3.0980 H   0  0  0  0  0  0  0  0  0  0  0  0
    3.2373   -0.3540    1.1828 H   0  0  0  0  0  0  0  0  0  0  0  0
    1.2713   -0.7128   -0.2554 H   0  0  0  0  0  0  0  0  0  0  0  0
  1  2  1  0
  1  3  1  0
  1  4  1  0
  1  5  1  0
  2  6  1  0
  7  8  1  0
  7 15  1  0
  7 16  1  0
  7 17  1  0
  8  9  2  3
  8 18  1  0
  9 10  1  0
  9 14  1  0
 10 11  1  0
 10 19  1  0
 11 12  2  0
 11 20  1  0
 12 13  1  0
 12 21  1  0
 13 14  2  0
 13 22  1  0
 14 23  1  0
M  RAD  1  10   2
M  END
>  <reaction>  (16) 
rxn_1829

>  <mol_properties>  (16) 
{"0": {"label": "*3", "atom_type": "Cs"}, "1": {"label": "*4", "atom_type": "S2s"}, "2": {"label": "*2", "atom_type": "H0"}, "7": {"label": "*1", "atom_type": "Cs"}, "8": {"label": "*0", "atom_type": "Cd"}}

>  <type>  (16) 
unop_12

>  <geom_source>  (16) 
Heuristics

$$$$

     RDKit          3D

 23 22  0  0  0  0  0  0  0  0999 V2000
   -2.0591    2.5915   -0.5801 S   0  0  0  0  0  0  0  0  0  0  0  0
   -0.8651   -0.8353    0.4296 C   0  0  0  0  0  0  0  0  0  0  0  0
   -0.9479   -2.2455   -0.1419 C   0  0  0  0  0  0  0  0  0  0  0  0
    0.5157   -0.2674    0.2528 C   0  0  0  0  0  0  0  0  0  0  0  0
    0.8391    0.4514   -0.9091 C   0  0  0  0  0  3  0  0  0  0  0  0
    1.5069   -0.4939    1.2224 C   0  0  0  0  0  0  0  0  0  0  0  0
    2.1314    0.9553   -1.0878 C   0  0  0  0  0  0  0  0  0  0  0  0
    3.1095    0.7374   -0.1133 C   0  0  0  0  0  0  0  0  0  0  0  0
    2.7980    0.0118    1.0399 C   0  0  0  0  0  0  0  0  0  0  0  0
   -2.6838    0.9441   -0.1445 C   0  0  0  0  0  0  0  0  0  0  0  0
   -1.1350   -0.8578    1.5079 H   0  0  0  0  0  0  0  0  0  0  0  0
   -1.7990   -0.0265   -0.2201 H   0  0  0  0  0  0  0  0  0  0  0  0
   -0.2347   -2.9176    0.3817 H   0  0  0  0  0  0  0  0  0  0  0  0
   -0.7138   -2.2332   -1.2276 H   0  0  0  0  0  0  0  0  0  0  0  0
   -1.9766   -2.6391   -0.0049 H   0  0  0  0  0  0  0  0  0  0  0  0
    0.0932    0.6195   -1.6760 H   0  0  0  0  0  0  0  0  0  0  0  0
    2.3755    1.5120   -1.9834 H   0  0  0  0  0  0  0  0  0  0  0  0
    1.2799   -1.0615    2.1163 H   0  0  0  0  0  0  0  0  0  0  0  0
    4.1095    1.1271   -0.2538 H   0  0  0  0  0  0  0  0  0  0  0  0
    3.5577   -0.1616    1.7911 H   0  0  0  0  0  0  0  0  0  0  0  0
   -3.4736    0.6419   -0.8630 H   0  0  0  0  0  0  0  0  0  0  0  0
   -3.1019    0.9625    0.8832 H   0  0  0  0  0  0  0  0  0  0  0  0
   -3.3258    3.1847   -0.4193 H   0  0  0  0  0  0  0  0  0  0  0  0
  1 10  1  0
  1 23  1  0
  2  3  1  0
  2  4  2  3
  2 11  1  0
  3 13  1  0
  3 14  1  0
  3 15  1  0
  4  5  1  0
  4  6  1  0
  5  7  1  0
  5 16  1  0
  6  9  2  0
  6 18  1  0
  7  8  2  0
  7 17  1  0
  8  9  1  0
  8 19  1  0
  9 20  1  0
 10 12  1  0
 10 21  1  0
 10 22  1  0
M  RAD  1   5   2
M  END
>  <reaction>  (17) 
rxn_1829

>  <mol_properties>  (17) 
{"0": {"label": "*3", "atom_type": "Cs"}, "1": {"label": "*4", "atom_type": "S2s"}, "2": {"label": "*2", "atom_type": "H0"}, "7": {"label": "*1", "atom_type": "Cs"}, "8": {"label": "*0", "atom_type": "Cd"}}

>  <type>  (17) 
unop_13

>  <geom_source>  (17) 
AutoTST

$$$$
