
     RDKit          3D

  5  4  0  0  0  0  0  0  0  0999 V2000
   -0.4535    0.0104   -0.2352 N   0  0  0  0  0  0  0  0  0  0  0  0
    0.8506   -0.0148    0.3346 O   0  0  0  0  0  0  0  0  0  0  0  0
   -0.9090    0.8045    0.2022 H   0  0  0  0  0  0  0  0  0  0  0  0
   -0.9099   -0.8179    0.1325 H   0  0  0  0  0  0  0  0  0  0  0  0
    1.4218    0.0179   -0.4341 H   0  0  0  0  0  0  0  0  0  0  0  0
  1  2  1  0
  1  3  1  0
  1  4  1  0
  2  5  1  0
M  END
>  <reaction>  (1) 
rxn_711

>  <mol_properties>  (1) 
{"0": {"label": "donator", "atom_type": "N3s"}, "2": {"label": "d_hydrogen", "atom_type": "H0"}}

>  <type>  (1) 
r1h

$$$$

     RDKit          3D

  3  2  0  0  0  0  0  0  0  0999 V2000
    0.9943   -0.1797    0.0000 O   0  0  0  0  0  1  0  0  0  0  0  0
   -0.1595    0.4394    0.0000 O   0  0  0  0  0  0  0  0  0  0  0  0
   -0.8348   -0.2597    0.0000 H   0  0  0  0  0  0  0  0  0  0  0  0
  1  2  1  0
  2  3  1  0
M  RAD  1   1   2
M  END
>  <reaction>  (2) 
rxn_711

>  <mol_properties>  (2) 
{"0": {"label": "acceptor", "atom_type": "O2s"}}

>  <type>  (2) 
r2

$$$$

     RDKit          3D

  4  3  0  0  0  0  0  0  0  0999 V2000
    0.5949   -0.3853    0.2659 O   0  0  0  0  0  0  0  0  0  0  0  0
   -0.5918    0.4028    0.2462 O   0  0  0  0  0  0  0  0  0  0  0  0
    1.1865    0.1539   -0.2689 H   0  0  0  0  0  0  0  0  0  0  0  0
   -1.1896   -0.1714   -0.2432 H   0  0  0  0  0  0  0  0  0  0  0  0
  1  2  1  0
  1  3  1  0
  2  4  1  0
M  END
>  <reaction>  (3) 
rxn_711

>  <mol_properties>  (3) 
{"0": {"label": "acceptor", "atom_type": "O2s"}, "3": {"label": "a_hydrogen", "atom_type": "H0"}}

>  <type>  (3) 
r2h

$$$$

     RDKit          3D

  8  6  0  0  0  0  0  0  0  0999 V2000
    0.5293    1.0757    0.4932 O   0  0  0  0  0  1  0  0  0  0  0  0
   -0.3590    1.3561   -0.5167 O   0  0  0  0  0  0  0  0  0  0  0  0
   -1.1441    1.6751   -0.0526 H   0  0  0  0  0  0  0  0  0  0  0  0
   -0.0760   -1.2876    0.4871 N   0  0  0  0  0  0  0  0  0  0  0  0
    0.0924   -1.5197   -0.8573 O   0  0  0  0  0  0  0  0  0  0  0  0
    0.2082   -0.2083    0.6870 H   0  0  0  0  0  0  0  0  0  0  0  0
    0.6257   -1.8888    0.9144 H   0  0  0  0  0  0  0  0  0  0  0  0
   -0.5087   -0.8979   -1.2834 H   0  0  0  0  0  0  0  0  0  0  0  0
  1  2  1  0
  2  3  1  0
  4  5  1  0
  4  6  1  0
  4  7  1  0
  5  8  1  0
M  RAD  1   1   2
M  END
>  <reaction>  (4) 
rxn_711

>  <mol_properties>  (4) 
{"0": {"label": "*3", "atom_type": "O2s"}, "1": {"label": "*4", "atom_type": "O2s"}, "3": {"label": "*1", "atom_type": "N3s"}, "4": {"label": "*0", "atom_type": "O2s"}, "5": {"label": "*2", "atom_type": "H0"}}

>  <type>  (4) 
ts

$$$$

     RDKit          3D

  8  6  0  0  0  0  0  0  0  0999 V2000
    0.3057    1.1269    0.4564 O   0  0  0  0  0  0  0  0  0  0  0  0
   -0.9046    1.2183    1.2024 O   0  0  0  0  0  0  0  0  0  0  0  0
   -0.6515    0.7838    2.0233 H   0  0  0  0  0  0  0  0  0  0  0  0
    0.3057   -1.1688   -0.1430 N   0  0  0  0  0  2  0  0  0  0  0  0
    0.3057   -1.1688   -1.5664 O   0  0  0  0  0  0  0  0  0  0  0  0
    0.3057    0.0093    0.1646 H   0  0  0  0  0  0  0  0  0  0  0  0
    1.2185   -1.5302    0.1133 H   0  0  0  0  0  0  0  0  0  0  0  0
   -0.4666   -1.6936   -1.7815 H   0  0  0  0  0  0  0  0  0  0  0  0
  1  2  1  0
  1  6  1  0
  2  3  1  0
  4  5  1  0
  4  7  1  0
  5  8  1  0
M  RAD  1   4   2
M  END
>  <reaction>  (5) 
rxn_711

>  <mol_properties>  (5) 
{"0": {"label": "*3", "atom_type": "O2s"}, "1": {"label": "*4", "atom_type": "O2s"}, "3": {"label": "*1", "atom_type": "N3s"}, "4": {"label": "*0", "atom_type": "O2s"}, "5": {"label": "*2", "atom_type": "H0"}}

>  <type>  (5) 
unop_1

>  <geom_source>  (5) 
Heuristics

$$$$

     RDKit          3D

  8  6  0  0  0  0  0  0  0  0999 V2000
    0.1916    0.9960    0.9396 O   0  0  0  0  0  0  0  0  0  0  0  0
   -0.5072    1.5696   -0.1615 O   0  0  0  0  0  0  0  0  0  0  0  0
   -1.4101    1.5746    0.1721 H   0  0  0  0  0  0  0  0  0  0  0  0
    0.1916   -1.2997    0.3401 N   0  0  0  0  0  2  0  0  0  0  0  0
    0.1916   -1.2997   -1.0833 O   0  0  0  0  0  0  0  0  0  0  0  0
    0.1916   -0.1217    0.6477 H   0  0  0  0  0  0  0  0  0  0  0  0
    1.1044   -1.6611    0.5965 H   0  0  0  0  0  0  0  0  0  0  0  0
   -0.5807   -1.8246   -1.2984 H   0  0  0  0  0  0  0  0  0  0  0  0
  1  2  1  0
  1  6  1  0
  2  3  1  0
  4  5  1  0
  4  7  1  0
  5  8  1  0
M  RAD  1   4   2
M  END
>  <reaction>  (6) 
rxn_711

>  <mol_properties>  (6) 
{"0": {"label": "*3", "atom_type": "O2s"}, "1": {"label": "*4", "atom_type": "O2s"}, "3": {"label": "*1", "atom_type": "N3s"}, "4": {"label": "*0", "atom_type": "O2s"}, "5": {"label": "*2", "atom_type": "H0"}}

>  <type>  (6) 
unop_2

>  <geom_source>  (6) 
Heuristics

$$$$

     RDKit          3D

  8  6  0  0  0  0  0  0  0  0999 V2000
    0.1668    1.1563    0.3321 O   0  0  0  0  0  0  0  0  0  0  0  0
   -0.5319    1.1184    1.5731 O   0  0  0  0  0  0  0  0  0  0  0  0
    0.1879    0.9434    2.1878 H   0  0  0  0  0  0  0  0  0  0  0  0
    0.1668   -1.1395   -0.2673 N   0  0  0  0  0  2  0  0  0  0  0  0
    0.1668   -1.1395   -1.6907 O   0  0  0  0  0  0  0  0  0  0  0  0
    0.1668    0.0386    0.0403 H   0  0  0  0  0  0  0  0  0  0  0  0
    1.0796   -1.5009   -0.0110 H   0  0  0  0  0  0  0  0  0  0  0  0
   -0.6055   -1.6643   -1.9059 H   0  0  0  0  0  0  0  0  0  0  0  0
  1  2  1  0
  1  6  1  0
  2  3  1  0
  4  5  1  0
  4  7  1  0
  5  8  1  0
M  RAD  1   4   2
M  END
>  <reaction>  (7) 
rxn_711

>  <mol_properties>  (7) 
{"0": {"label": "*3", "atom_type": "O2s"}, "1": {"label": "*4", "atom_type": "O2s"}, "3": {"label": "*1", "atom_type": "N3s"}, "4": {"label": "*0", "atom_type": "O2s"}, "5": {"label": "*2", "atom_type": "H0"}}

>  <type>  (7) 
unop_3

>  <geom_source>  (7) 
Heuristics

$$$$

     RDKit          3D

  8  6  0  0  0  0  0  0  0  0999 V2000
   -0.3105    1.0154    0.8203 O   0  0  0  0  0  0  0  0  0  0  0  0
    0.8998    1.4598    0.2142 O   0  0  0  0  0  0  0  0  0  0  0  0
    0.6817    2.3749    0.0100 H   0  0  0  0  0  0  0  0  0  0  0  0
   -0.3105   -1.2803    0.2209 N   0  0  0  0  0  2  0  0  0  0  0  0
   -0.3105   -1.2803   -1.2025 O   0  0  0  0  0  0  0  0  0  0  0  0
   -0.3105   -0.1023    0.5285 H   0  0  0  0  0  0  0  0  0  0  0  0
    0.6023   -1.6417    0.4772 H   0  0  0  0  0  0  0  0  0  0  0  0
   -1.0828   -1.8052   -1.4176 H   0  0  0  0  0  0  0  0  0  0  0  0
  1  2  1  0
  1  6  1  0
  2  3  1  0
  4  5  1  0
  4  7  1  0
  5  8  1  0
M  RAD  1   4   2
M  END
>  <reaction>  (8) 
rxn_711

>  <mol_properties>  (8) 
{"0": {"label": "*3", "atom_type": "O2s"}, "1": {"label": "*4", "atom_type": "O2s"}, "3": {"label": "*1", "atom_type": "N3s"}, "4": {"label": "*0", "atom_type": "O2s"}, "5": {"label": "*2", "atom_type": "H0"}}

>  <type>  (8) 
unop_4

>  <geom_source>  (8) 
Heuristics

$$$$

     RDKit          3D

  8  6  0  0  0  0  0  0  0  0999 V2000
   -0.0153    1.1600    0.2916 O   0  0  0  0  0  0  0  0  0  0  0  0
   -0.0153    1.0748    1.7137 O   0  0  0  0  0  0  0  0  0  0  0  0
    0.8455    1.4512    1.9237 H   0  0  0  0  0  0  0  0  0  0  0  0
   -0.0153   -1.1357   -0.3078 N   0  0  0  0  0  2  0  0  0  0  0  0
   -0.0153   -1.1357   -1.7312 O   0  0  0  0  0  0  0  0  0  0  0  0
   -0.0153    0.0424   -0.0002 H   0  0  0  0  0  0  0  0  0  0  0  0
    0.8975   -1.4971   -0.0515 H   0  0  0  0  0  0  0  0  0  0  0  0
   -0.7876   -1.6606   -1.9463 H   0  0  0  0  0  0  0  0  0  0  0  0
  1  2  1  0
  1  6  1  0
  2  3  1  0
  4  5  1  0
  4  7  1  0
  5  8  1  0
M  RAD  1   4   2
M  END
>  <reaction>  (9) 
rxn_711

>  <mol_properties>  (9) 
{"0": {"label": "*3", "atom_type": "O2s"}, "1": {"label": "*4", "atom_type": "O2s"}, "3": {"label": "*1", "atom_type": "N3s"}, "4": {"label": "*0", "atom_type": "O2s"}, "5": {"label": "*2", "atom_type": "H0"}}

>  <type>  (9) 
unop_5

>  <geom_source>  (9) 
Heuristics

$$$$

     RDKit          3D

  8  6  0  0  0  0  0  0  0  0999 V2000
   -0.3623    1.0603    0.6454 O   0  0  0  0  0  0  0  0  0  0  0  0
    1.0352    1.3282    0.7154 O   0  0  0  0  0  0  0  0  0  0  0  0
    1.0514    2.2784    0.5620 H   0  0  0  0  0  0  0  0  0  0  0  0
   -0.3623   -1.2354    0.0460 N   0  0  0  0  0  2  0  0  0  0  0  0
   -0.3623   -1.2354   -1.3774 O   0  0  0  0  0  0  0  0  0  0  0  0
   -0.3623   -0.0573    0.3536 H   0  0  0  0  0  0  0  0  0  0  0  0
    0.5505   -1.5968    0.3023 H   0  0  0  0  0  0  0  0  0  0  0  0
   -1.1346   -1.7602   -1.5925 H   0  0  0  0  0  0  0  0  0  0  0  0
  1  2  1  0
  1  6  1  0
  2  3  1  0
  4  5  1  0
  4  7  1  0
  5  8  1  0
M  RAD  1   4   2
M  END
>  <reaction>  (10) 
rxn_711

>  <mol_properties>  (10) 
{"0": {"label": "*3", "atom_type": "O2s"}, "1": {"label": "*4", "atom_type": "O2s"}, "3": {"label": "*1", "atom_type": "N3s"}, "4": {"label": "*0", "atom_type": "O2s"}, "5": {"label": "*2", "atom_type": "H0"}}

>  <type>  (10) 
unop_6

>  <geom_source>  (10) 
Heuristics

$$$$

     RDKit          3D

  8  6  0  0  0  0  0  0  0  0999 V2000
   -0.3172    1.1061    0.4707 O   0  0  0  0  0  0  0  0  0  0  0  0
    0.8930    1.1974    1.2168 O   0  0  0  0  0  0  0  0  0  0  0  0
    1.1146    2.1270    1.1008 H   0  0  0  0  0  0  0  0  0  0  0  0
   -0.3172   -1.1896   -0.1287 N   0  0  0  0  0  2  0  0  0  0  0  0
   -0.3172   -1.1896   -1.5521 O   0  0  0  0  0  0  0  0  0  0  0  0
   -0.3172   -0.0116    0.1789 H   0  0  0  0  0  0  0  0  0  0  0  0
    0.5956   -1.5510    0.1276 H   0  0  0  0  0  0  0  0  0  0  0  0
   -1.0895   -1.7145   -1.7672 H   0  0  0  0  0  0  0  0  0  0  0  0
  1  2  1  0
  1  6  1  0
  2  3  1  0
  4  5  1  0
  4  7  1  0
  5  8  1  0
M  RAD  1   4   2
M  END
>  <reaction>  (11) 
rxn_711

>  <mol_properties>  (11) 
{"0": {"label": "*3", "atom_type": "O2s"}, "1": {"label": "*4", "atom_type": "O2s"}, "3": {"label": "*1", "atom_type": "N3s"}, "4": {"label": "*0", "atom_type": "O2s"}, "5": {"label": "*2", "atom_type": "H0"}}

>  <type>  (11) 
unop_7

>  <geom_source>  (11) 
Heuristics

$$$$

     RDKit          3D

  8  6  0  0  0  0  0  0  0  0999 V2000
    0.3614    1.0818    0.6307 O   0  0  0  0  0  0  0  0  0  0  0  0
   -1.0361    1.3497    0.7006 O   0  0  0  0  0  0  0  0  0  0  0  0
   -1.2737    0.8926    1.5138 H   0  0  0  0  0  0  0  0  0  0  0  0
    0.3614   -1.2139    0.0312 N   0  0  0  0  0  2  0  0  0  0  0  0
    0.3614   -1.2139   -1.3922 O   0  0  0  0  0  0  0  0  0  0  0  0
    0.3614   -0.0359    0.3388 H   0  0  0  0  0  0  0  0  0  0  0  0
    1.2742   -1.5753    0.2876 H   0  0  0  0  0  0  0  0  0  0  0  0
   -0.4109   -1.7388   -1.6073 H   0  0  0  0  0  0  0  0  0  0  0  0
  1  2  1  0
  1  6  1  0
  2  3  1  0
  4  5  1  0
  4  7  1  0
  5  8  1  0
M  RAD  1   4   2
M  END
>  <reaction>  (12) 
rxn_711

>  <mol_properties>  (12) 
{"0": {"label": "*3", "atom_type": "O2s"}, "1": {"label": "*4", "atom_type": "O2s"}, "3": {"label": "*1", "atom_type": "N3s"}, "4": {"label": "*0", "atom_type": "O2s"}, "5": {"label": "*2", "atom_type": "H0"}}

>  <type>  (12) 
unop_8

>  <geom_source>  (12) 
Heuristics

$$$$

     RDKit          3D

  8  6  0  0  0  0  0  0  0  0999 V2000
   -0.1737    0.9844    0.9476 O   0  0  0  0  0  0  0  0  0  0  0  0
    0.5250    1.5580   -0.1535 O   0  0  0  0  0  0  0  0  0  0  0  0
   -0.0237    2.3257   -0.3438 H   0  0  0  0  0  0  0  0  0  0  0  0
   -0.1737   -1.3114    0.3481 N   0  0  0  0  0  2  0  0  0  0  0  0
   -0.1737   -1.3114   -1.0753 O   0  0  0  0  0  0  0  0  0  0  0  0
   -0.1737   -0.1333    0.6557 H   0  0  0  0  0  0  0  0  0  0  0  0
    0.7391   -1.6727    0.6045 H   0  0  0  0  0  0  0  0  0  0  0  0
   -0.9460   -1.8362   -1.2904 H   0  0  0  0  0  0  0  0  0  0  0  0
  1  2  1  0
  1  6  1  0
  2  3  1  0
  4  5  1  0
  4  7  1  0
  5  8  1  0
M  RAD  1   4   2
M  END
>  <reaction>  (13) 
rxn_711

>  <mol_properties>  (13) 
{"0": {"label": "*3", "atom_type": "O2s"}, "1": {"label": "*4", "atom_type": "O2s"}, "3": {"label": "*1", "atom_type": "N3s"}, "4": {"label": "*0", "atom_type": "O2s"}, "5": {"label": "*2", "atom_type": "H0"}}

>  <type>  (13) 
unop_9

>  <geom_source>  (13) 
Heuristics

$$$$

     RDKit          3D

  8  6  0  0  0  0  0  0  0  0999 V2000
    0.3195    1.0341    0.8075 O   0  0  0  0  0  0  0  0  0  0  0  0
   -0.8908    1.4785    0.2013 O   0  0  0  0  0  0  0  0  0  0  0  0
   -1.5433    1.1694    0.8380 H   0  0  0  0  0  0  0  0  0  0  0  0
    0.3195   -1.2616    0.2080 N   0  0  0  0  0  2  0  0  0  0  0  0
    0.3195   -1.2616   -1.2154 O   0  0  0  0  0  0  0  0  0  0  0  0
    0.3195   -0.0836    0.5156 H   0  0  0  0  0  0  0  0  0  0  0  0
    1.2323   -1.6230    0.4644 H   0  0  0  0  0  0  0  0  0  0  0  0
   -0.4528   -1.7865   -1.4305 H   0  0  0  0  0  0  0  0  0  0  0  0
  1  2  1  0
  1  6  1  0
  2  3  1  0
  4  5  1  0
  4  7  1  0
  5  8  1  0
M  RAD  1   4   2
M  END
>  <reaction>  (14) 
rxn_711

>  <mol_properties>  (14) 
{"0": {"label": "*3", "atom_type": "O2s"}, "1": {"label": "*4", "atom_type": "O2s"}, "3": {"label": "*1", "atom_type": "N3s"}, "4": {"label": "*0", "atom_type": "O2s"}, "5": {"label": "*2", "atom_type": "H0"}}

>  <type>  (14) 
unop_10

>  <geom_source>  (14) 
Heuristics

$$$$

     RDKit          3D

  8  6  0  0  0  0  0  0  0  0999 V2000
   -0.1901    1.1413    0.3424 O   0  0  0  0  0  0  0  0  0  0  0  0
    0.5086    1.1034    1.5833 O   0  0  0  0  0  0  0  0  0  0  0  0
    1.0355    1.9070    1.5259 H   0  0  0  0  0  0  0  0  0  0  0  0
   -0.1901   -1.1544   -0.2571 N   0  0  0  0  0  2  0  0  0  0  0  0
   -0.1901   -1.1544   -1.6805 O   0  0  0  0  0  0  0  0  0  0  0  0
   -0.1901    0.0237    0.0505 H   0  0  0  0  0  0  0  0  0  0  0  0
    0.7226   -1.5158   -0.0007 H   0  0  0  0  0  0  0  0  0  0  0  0
   -0.9624   -1.6793   -1.8956 H   0  0  0  0  0  0  0  0  0  0  0  0
  1  2  1  0
  1  6  1  0
  2  3  1  0
  4  5  1  0
  4  7  1  0
  5  8  1  0
M  RAD  1   4   2
M  END
>  <reaction>  (15) 
rxn_711

>  <mol_properties>  (15) 
{"0": {"label": "*3", "atom_type": "O2s"}, "1": {"label": "*4", "atom_type": "O2s"}, "3": {"label": "*1", "atom_type": "N3s"}, "4": {"label": "*0", "atom_type": "O2s"}, "5": {"label": "*2", "atom_type": "H0"}}

>  <type>  (15) 
unop_11

>  <geom_source>  (15) 
Heuristics

$$$$

     RDKit          3D

  8  6  0  0  0  0  0  0  0  0999 V2000
    0.0110    0.9773    0.9913 O   0  0  0  0  0  0  0  0  0  0  0  0
    0.0110    1.5983   -0.2909 O   0  0  0  0  0  0  0  0  0  0  0  0
   -0.8497    2.0293   -0.2900 H   0  0  0  0  0  0  0  0  0  0  0  0
    0.0110   -1.3184    0.3919 N   0  0  0  0  0  2  0  0  0  0  0  0
    0.0110   -1.3184   -1.0315 O   0  0  0  0  0  0  0  0  0  0  0  0
    0.0110   -0.1403    0.6995 H   0  0  0  0  0  0  0  0  0  0  0  0
    0.9238   -1.6798    0.6482 H   0  0  0  0  0  0  0  0  0  0  0  0
   -0.7613   -1.8432   -1.2467 H   0  0  0  0  0  0  0  0  0  0  0  0
  1  2  1  0
  1  6  1  0
  2  3  1  0
  4  5  1  0
  4  7  1  0
  5  8  1  0
M  RAD  1   4   2
M  END
>  <reaction>  (16) 
rxn_711

>  <mol_properties>  (16) 
{"0": {"label": "*3", "atom_type": "O2s"}, "1": {"label": "*4", "atom_type": "O2s"}, "3": {"label": "*1", "atom_type": "N3s"}, "4": {"label": "*0", "atom_type": "O2s"}, "5": {"label": "*2", "atom_type": "H0"}}

>  <type>  (16) 
unop_12

>  <geom_source>  (16) 
Heuristics

$$$$
