
     RDKit          3D

  2  1  0  0  0  0  0  0  0  0999 V2000
    0.0000    0.0000    0.3721 H   0  0  0  0  0  0  0  0  0  0  0  0
    0.0000    0.0000   -0.3721 H   0  0  0  0  0  0  0  0  0  0  0  0
  1  2  1  0
M  END
>  <reaction>  (1) 
rxn_792

>  <mol_properties>  (1) 
{"0": {"label": "donator", "atom_type": "H0"}, "1": {"label": "d_hydrogen", "atom_type": "H0"}}

>  <type>  (1) 
r1h

$$$$

     RDKit          3D

 12 11  0  0  0  0  0  0  0  0999 V2000
   -2.3791    0.4612   -0.5870 C   0  0  0  0  0  0  0  0  0  0  0  0
   -1.3422   -0.3138   -0.1893 C   0  0  0  0  0  0  0  0  0  0  0  0
   -1.4723   -1.6058    0.3589 C   0  0  0  0  0  3  0  0  0  0  0  0
   -0.3798   -2.3973    0.7671 C   0  0  0  0  0  0  0  0  0  0  0  0
   -0.4849   -3.6397    1.2956 C   0  0  0  0  0  0  0  0  0  0  0  0
   -2.2205    1.4472   -1.0017 H   0  0  0  0  0  0  0  0  0  0  0  0
   -3.4026    0.1153   -0.5011 H   0  0  0  0  0  0  0  0  0  0  0  0
   -0.3330    0.0765   -0.2952 H   0  0  0  0  0  0  0  0  0  0  0  0
   -2.4723   -2.0151    0.4735 H   0  0  0  0  0  0  0  0  0  0  0  0
    0.6117   -1.9687    0.6436 H   0  0  0  0  0  0  0  0  0  0  0  0
    0.3893   -4.2030    1.5920 H   0  0  0  0  0  0  0  0  0  0  0  0
   -1.4516   -4.1084    1.4378 H   0  0  0  0  0  0  0  0  0  0  0  0
  1  2  2  3
  1  6  1  0
  1  7  1  0
  2  3  1  0
  2  8  1  0
  3  4  1  0
  3  9  1  0
  4  5  2  3
  4 10  1  0
  5 11  1  0
  5 12  1  0
M  RAD  1   3   2
M  END
>  <reaction>  (2) 
rxn_792

>  <mol_properties>  (2) 
{"2": {"label": "acceptor", "atom_type": "Cs"}}

>  <type>  (2) 
r2

$$$$

     RDKit          3D

 13 12  0  0  0  0  0  0  0  0999 V2000
    3.0977   -0.3549   -0.5105 C   0  0  0  0  0  0  0  0  0  0  0  0
    2.0556    0.4221   -0.2627 C   0  0  0  0  0  0  0  0  0  0  0  0
    0.6313   -0.0354   -0.2366 C   0  0  0  0  0  0  0  0  0  0  0  0
   -0.2567    0.6038   -1.2694 C   0  0  0  0  0  0  0  0  0  0  0  0
    0.1459    1.3456   -2.2891 C   0  0  0  0  0  0  0  0  0  0  0  0
    4.1081    0.0344   -0.5074 H   0  0  0  0  0  0  0  0  0  0  0  0
    2.9777   -1.4116   -0.7243 H   0  0  0  0  0  0  0  0  0  0  0  0
    2.2171    1.4781   -0.0618 H   0  0  0  0  0  0  0  0  0  0  0  0
    0.5865   -1.1233   -0.3540 H   0  0  0  0  0  0  0  0  0  0  0  0
    0.2065    0.1743    0.7521 H   0  0  0  0  0  0  0  0  0  0  0  0
   -1.3190    0.4126   -1.1445 H   0  0  0  0  0  0  0  0  0  0  0  0
    1.1948    1.5564   -2.4628 H   0  0  0  0  0  0  0  0  0  0  0  0
   -0.5644    1.7621   -2.9918 H   0  0  0  0  0  0  0  0  0  0  0  0
  1  2  2  3
  1  6  1  0
  1  7  1  0
  2  3  1  0
  2  8  1  0
  3  4  1  0
  3  9  1  0
  3 10  1  0
  4  5  2  3
  4 11  1  0
  5 12  1  0
  5 13  1  0
M  END
>  <reaction>  (3) 
rxn_792

>  <mol_properties>  (3) 
{"0": {"label": "a_hydrogen", "atom_type": "H0"}, "3": {"label": "acceptor", "atom_type": "Cs"}}

>  <type>  (3) 
r2h

$$$$

     RDKit          3D

 14 12  0  0  0  0  0  0  0  0999 V2000
   -0.4462   -0.3644   -2.9151 H   0  0  0  0  0 15  0  0  0  0  0  0
   -0.4285   -0.3624   -1.7633 H   0  0  0  0  0  0  0  0  0  0  0  0
   -1.4838    1.5859    0.4904 C   0  0  0  0  0  0  0  0  0  0  0  0
   -0.4453    0.9940   -0.0833 C   0  0  0  0  0  0  0  0  0  0  0  0
   -0.4376   -0.4060   -0.5648 C   0  0  0  0  0  0  0  0  0  0  0  0
    0.7221   -1.2605   -0.1925 C   0  0  0  0  0  0  0  0  0  0  0  0
    1.7072   -0.9232    0.6282 C   0  0  0  0  0  0  0  0  0  0  0  0
   -1.4425    2.6218    0.8020 H   0  0  0  0  0  0  0  0  0  0  0  0
   -2.4113    1.0534    0.6707 H   0  0  0  0  0  0  0  0  0  0  0  0
    0.4660    1.5622   -0.2474 H   0  0  0  0  0  0  0  0  0  0  0  0
   -1.3854   -0.9131   -0.3676 H   0  0  0  0  0  0  0  0  0  0  0  0
    0.7345   -2.2439   -0.6536 H   0  0  0  0  0  0  0  0  0  0  0  0
    2.5157   -1.6111    0.8398 H   0  0  0  0  0  0  0  0  0  0  0  0
    1.7363    0.0381    1.1273 H   0  0  0  0  0  0  0  0  0  0  0  0
  2  5  1  0
  3  4  2  3
  3  8  1  0
  3  9  1  0
  4  5  1  0
  4 10  1  0
  5  6  1  0
  5 11  1  0
  6  7  2  3
  6 12  1  0
  7 13  1  0
  7 14  1  0
M  END
>  <reaction>  (4) 
rxn_792

>  <mol_properties>  (4) 
{"0": {"label": "*1", "atom_type": "H0"}, "1": {"label": "*2", "atom_type": "H0"}, "3": {"label": "*4", "atom_type": "Cd"}, "4": {"label": "*3", "atom_type": "Cs"}}

>  <type>  (4) 
ts

$$$$

     RDKit          3D

 14 12  0  0  0  0  0  0  0  0999 V2000
   -0.4446   -0.4055   -2.8908 H   0  0  0  0  0 15  0  0  0  0  0  0
   -0.4446   -0.4055   -1.9978 H   0  0  0  0  0  0  0  0  0  0  0  0
   -1.3734    1.5440    0.5816 C   0  0  0  0  0  0  0  0  0  0  0  0
   -0.4446    1.0090   -0.1943 C   0  0  0  0  0  0  0  0  0  0  0  0
   -0.4446   -0.4055   -0.6823 C   0  0  0  0  0  0  0  0  0  0  0  0
    0.7219   -1.2343   -0.2172 C   0  0  0  0  0  0  0  0  0  0  0  0
    1.5956   -0.8922    0.7165 C   0  0  0  0  0  0  0  0  0  0  0  0
   -1.3220    2.5789    0.8958 H   0  0  0  0  0  0  0  0  0  0  0  0
   -2.2222    0.9651    0.9299 H   0  0  0  0  0  0  0  0  0  0  0  0
    0.3953    1.6200   -0.5149 H   0  0  0  0  0  0  0  0  0  0  0  0
   -1.3741   -0.9026   -0.3856 H   0  0  0  0  0  0  0  0  0  0  0  0
    0.8236   -2.1999   -0.7048 H   0  0  0  0  0  0  0  0  0  0  0  0
    2.4040   -1.5560    0.9954 H   0  0  0  0  0  0  0  0  0  0  0  0
    1.5310    0.0551    1.2393 H   0  0  0  0  0  0  0  0  0  0  0  0
  2  5  1  0
  3  4  2  3
  3  8  1  0
  3  9  1  0
  4  5  1  0
  4 10  1  0
  5  6  1  0
  5 11  1  0
  6  7  2  3
  6 12  1  0
  7 13  1  0
  7 14  1  0
M  END
>  <reaction>  (5) 
rxn_792

>  <mol_properties>  (5) 
{"0": {"label": "*1", "atom_type": "H0"}, "1": {"label": "*2", "atom_type": "H0"}, "3": {"label": "*4", "atom_type": "Cd"}, "4": {"label": "*3", "atom_type": "Cs"}}

>  <type>  (5) 
unop_1

>  <geom_source>  (5) 
Heuristics

$$$$

     RDKit          3D

 14 12  0  0  0  0  0  0  0  0999 V2000
    0.3284   -0.4321    0.2355 C   0  0  0  0  0  0  0  0  0  0  0  0
    0.5269    0.7583   -0.6628 C   0  0  0  0  0  0  0  0  0  0  0  0
   -1.1308   -0.7505    0.4052 C   0  0  0  0  0  0  0  0  0  0  0  0
    1.7521    1.2131   -0.9357 C   0  0  0  0  0  0  0  0  0  0  0  0
   -1.9407    0.0350    1.1215 C   0  0  0  0  0  0  0  0  0  0  0  0
    0.7864   -0.2388    1.2301 H   0  0  0  0  0  0  0  0  0  0  0  0
    0.8324   -1.3055   -0.2127 H   0  0  0  0  0  0  0  0  0  0  0  0
   -0.3298    1.2632   -1.1019 H   0  0  0  0  0  0  0  0  0  0  0  0
   -1.5327   -1.6497   -0.0526 H   0  0  0  0  0  0  0  0  0  0  0  0
    2.6316    0.7343   -0.5155 H   0  0  0  0  0  0  0  0  0  0  0  0
    1.8804    2.0727   -1.5855 H   0  0  0  0  0  0  0  0  0  0  0  0
   -1.5660    0.9362    1.5976 H   0  0  0  0  0  0  0  0  0  0  0  0
   -2.9886   -0.2233    1.2335 H   0  0  0  0  0  0  0  0  0  0  0  0
    0.7503   -2.4130   -0.7567 H   0  0  0  0  0 15  0  0  0  0  0  0
  1  2  1  0
  1  3  1  0
  1  6  1  0
  1  7  1  0
  2  4  2  3
  2  8  1  0
  3  5  2  3
  3  9  1  0
  4 10  1  0
  4 11  1  0
  5 12  1  0
  5 13  1  0
M  END
>  <reaction>  (6) 
rxn_792

>  <mol_properties>  (6) 
{"0": {"label": "*1", "atom_type": "H0"}, "1": {"label": "*2", "atom_type": "H0"}, "3": {"label": "*4", "atom_type": "Cd"}, "4": {"label": "*3", "atom_type": "Cs"}}

>  <type>  (6) 
unop_2

>  <geom_source>  (6) 
AutoTST

$$$$

     RDKit          3D

 14 12  0  0  0  0  0  0  0  0999 V2000
    0.0557    0.3674   -0.7208 C   0  0  0  0  0  0  0  0  0  0  0  0
   -1.2847   -0.0623   -0.2033 C   0  0  0  0  0  0  0  0  0  0  0  0
    1.0741   -0.7275   -0.6053 C   0  0  0  0  0  0  0  0  0  0  0  0
   -1.5818   -0.0200    1.0982 C   0  0  0  0  0  0  0  0  0  0  0  0
    1.7347   -0.9552    0.5330 C   0  0  0  0  0  0  0  0  0  0  0  0
   -2.0276   -0.4180   -0.9100 H   0  0  0  0  0  0  0  0  0  0  0  0
    0.4021    1.3228   -0.2693 H   0  0  0  0  0  0  0  0  0  0  0  0
    1.2733   -1.3489   -1.4725 H   0  0  0  0  0  0  0  0  0  0  0  0
   -2.5600   -0.3400    1.4420 H   0  0  0  0  0  0  0  0  0  0  0  0
   -0.8591    0.3358    1.8259 H   0  0  0  0  0  0  0  0  0  0  0  0
    1.5583   -0.3459    1.4139 H   0  0  0  0  0  0  0  0  0  0  0  0
    2.4642   -1.7568    0.5859 H   0  0  0  0  0  0  0  0  0  0  0  0
   -0.3407    2.3973   -1.6157 H   0  0  0  0  0 15  0  0  0  0  0  0
    0.0915    1.5513   -1.1021 H   0  0  0  0  0  0  0  0  0  0  0  0
  1  2  1  0
  1  3  1  0
  1  7  1  0
  1 14  1  0
  2  4  2  3
  2  6  1  0
  3  5  2  3
  3  8  1  0
  4  9  1  0
  4 10  1  0
  5 11  1  0
  5 12  1  0
M  END
>  <reaction>  (7) 
rxn_792

>  <mol_properties>  (7) 
{"0": {"label": "*1", "atom_type": "H0"}, "1": {"label": "*2", "atom_type": "H0"}, "3": {"label": "*4", "atom_type": "Cd"}, "4": {"label": "*3", "atom_type": "Cs"}}

>  <type>  (7) 
unop_3

>  <geom_source>  (7) 
gaussian_log

$$$$
