
     RDKit          3D

 14 13  0  0  0  0  0  0  0  0999 V2000
   -0.7648   -1.2351   -0.0349 C   0  0  0  0  0  0  0  0  0  0  0  0
    0.0570   -0.0126    0.3624 C   0  0  0  0  0  0  0  0  0  0  0  0
    1.4161   -0.0194   -0.3307 C   0  0  0  0  0  0  0  0  0  0  0  0
   -0.7022    1.2765    0.0630 C   0  0  0  0  0  0  0  0  0  0  0  0
   -0.2387   -2.1618    0.2039 H   0  0  0  0  0  0  0  0  0  0  0  0
   -0.9625   -1.2315   -1.1108 H   0  0  0  0  0  0  0  0  0  0  0  0
   -1.7273   -1.2512    0.4806 H   0  0  0  0  0  0  0  0  0  0  0  0
    0.2295   -0.0590    1.4432 H   0  0  0  0  0  0  0  0  0  0  0  0
    1.2933    0.0258   -1.4168 H   0  0  0  0  0  0  0  0  0  0  0  0
    2.0206    0.8382   -0.0279 H   0  0  0  0  0  0  0  0  0  0  0  0
    1.9767   -0.9268   -0.0965 H   0  0  0  0  0  0  0  0  0  0  0  0
   -1.6639    1.3001    0.5799 H   0  0  0  0  0  0  0  0  0  0  0  0
   -0.8977    1.3664   -1.0096 H   0  0  0  0  0  0  0  0  0  0  0  0
   -0.1313    2.1545    0.3722 H   0  0  0  0  0  0  0  0  0  0  0  0
  1  2  1  0
  1  5  1  0
  1  6  1  0
  1  7  1  0
  2  3  1  0
  2  4  1  0
  2  8  1  0
  3  9  1  0
  3 10  1  0
  3 11  1  0
  4 12  1  0
  4 13  1  0
  4 14  1  0
M  END
>  <reaction>  (1) 
rxn_987

>  <mol_properties>  (1) 
{"1": {"label": "donator", "atom_type": "Cs"}, "7": {"label": "d_hydrogen", "atom_type": "H0"}}

>  <type>  (1) 
r1h

$$$$

     RDKit          3D

 10  9  0  0  0  0  0  0  0  0999 V2000
   -1.2648    0.1959    0.8197 C   0  0  0  0  0  0  0  0  0  0  0  0
   -0.2805    0.0995   -0.3030 C   0  0  0  0  0  3  0  0  0  0  0  0
   -0.0444    1.1347   -1.1797 C   0  0  0  0  0  0  0  0  0  0  0  0
    0.1640    2.0467   -1.9525 C   0  0  0  0  0  0  0  0  0  0  0  0
    0.5686   -1.4168   -0.4488 S   0  0  0  0  0  0  0  0  0  0  0  0
   -2.0466   -0.5638    0.7258 H   0  0  0  0  0  0  0  0  0  0  0  0
   -0.7765    0.0454    1.7871 H   0  0  0  0  0  0  0  0  0  0  0  0
   -1.7371    1.1762    0.8222 H   0  0  0  0  0  0  0  0  0  0  0  0
    0.3433    2.8484   -2.6273 H   0  0  0  0  0  0  0  0  0  0  0  0
    1.3075   -1.0953   -1.5176 H   0  0  0  0  0  0  0  0  0  0  0  0
  1  2  1  0
  1  6  1  0
  1  7  1  0
  1  8  1  0
  2  3  1  0
  2  5  1  0
  3  4  3  0
  4  9  1  0
  5 10  1  0
M  RAD  1   2   2
M  END
>  <reaction>  (2) 
rxn_987

>  <mol_properties>  (2) 
{"1": {"label": "acceptor", "atom_type": "Cs"}}

>  <type>  (2) 
r2

$$$$

     RDKit          3D

 11 10  0  0  0  0  0  0  0  0999 V2000
   -1.2582   -0.5130    0.2160 C   0  0  0  0  0  0  0  0  0  0  0  0
   -0.1109    0.0509   -0.6210 C   0  0  0  0  0  0  0  0  0  0  0  0
    1.1862   -0.2025   -0.0072 C   0  0  0  0  0  0  0  0  0  0  0  0
    2.2351   -0.4206    0.5274 C   0  0  0  0  0  0  0  0  0  0  0  0
   -0.3298    1.8272   -1.0120 S   0  0  0  0  0  0  0  0  0  0  0  0
   -1.2875   -0.0327    1.1945 H   0  0  0  0  0  0  0  0  0  0  0  0
   -2.2088   -0.3391   -0.2866 H   0  0  0  0  0  0  0  0  0  0  0  0
   -1.1220   -1.5854    0.3655 H   0  0  0  0  0  0  0  0  0  0  0  0
   -0.1222   -0.4181   -1.6078 H   0  0  0  0  0  0  0  0  0  0  0  0
    3.1729   -0.6098    0.9920 H   0  0  0  0  0  0  0  0  0  0  0  0
   -0.1942    2.2663    0.2466 H   0  0  0  0  0  0  0  0  0  0  0  0
  1  2  1  0
  1  6  1  0
  1  7  1  0
  1  8  1  0
  2  3  1  0
  2  5  1  0
  2  9  1  0
  3  4  3  0
  4 10  1  0
  5 11  1  0
M  END
>  <reaction>  (3) 
rxn_987

>  <mol_properties>  (3) 
{"1": {"label": "acceptor", "atom_type": "Cs"}, "10": {"label": "a_hydrogen", "atom_type": "H0"}}

>  <type>  (3) 
r2h

$$$$

     RDKit          3D

 24 22  0  0  0  0  0  0  0  0999 V2000
    0.5811   -0.4264    2.0486 C   0  0  0  0  0  0  0  0  0  0  0  0
    0.7255   -0.4157    0.5403 C   0  0  0  0  0  0  0  0  0  0  0  0
    0.6877   -1.6982   -0.0883 C   0  0  0  0  0  0  0  0  0  0  0  0
    0.6096   -2.7755   -0.6164 C   0  0  0  0  0  0  0  0  0  0  0  0
    1.9961    0.6900   -0.1079 S   0  0  0  0  0  0  0  0  0  0  0  0
    1.4658   -0.8563    2.5250 H   0  0  0  0  0  0  0  0  0  0  0  0
    0.4544    0.5906    2.4203 H   0  0  0  0  0  0  0  0  0  0  0  0
   -0.2855   -1.0228    2.3398 H   0  0  0  0  0  0  0  0  0  0  0  0
    0.5575   -3.7284   -1.0850 H   0  0  0  0  0  0  0  0  0  0  0  0
    3.0592   -0.0815    0.1679 H   0  0  0  0  0  0  0  0  0  0  0  0
   -1.4223    0.6297   -1.8125 C   0  0  0  0  0  0  0  0  0  0  0  0
   -1.5353    0.7733   -0.3174 C   0  0  0  0  0  3  0  0  0  0  0  0
   -1.4808    2.1882    0.1963 C   0  0  0  0  0  0  0  0  0  0  0  0
   -2.5820   -0.1016    0.3212 C   0  0  0  0  0  0  0  0  0  0  0  0
   -0.5699    1.1882   -2.2033 H   0  0  0  0  0  0  0  0  0  0  0  0
   -2.3260    1.0105   -2.3042 H   0  0  0  0  0  0  0  0  0  0  0  0
   -1.3027   -0.4170   -2.0986 H   0  0  0  0  0  0  0  0  0  0  0  0
   -0.3699    0.2023    0.1130 H   0  0  0  0  0  0  0  0  0  0  0  0
   -2.3762    2.7430   -0.1109 H   0  0  0  0  0  0  0  0  0  0  0  0
   -1.4372    2.2167    1.2870 H   0  0  0  0  0  0  0  0  0  0  0  0
   -0.6134    2.7227   -0.1958 H   0  0  0  0  0  0  0  0  0  0  0  0
   -2.4359   -1.1498    0.0517 H   0  0  0  0  0  0  0  0  0  0  0  0
   -3.5850    0.1899   -0.0140 H   0  0  0  0  0  0  0  0  0  0  0  0
   -2.5629   -0.0195    1.4098 H   0  0  0  0  0  0  0  0  0  0  0  0
  1  2  1  0
  1  6  1  0
  1  7  1  0
  1  8  1  0
  2  3  1  0
  2  5  1  0
  2 18  1  0
  3  4  3  0
  4  9  1  0
  5 10  1  0
 11 12  1  0
 11 15  1  0
 11 16  1  0
 11 17  1  0
 12 13  1  0
 12 14  1  0
 13 19  1  0
 13 20  1  0
 13 21  1  0
 14 22  1  0
 14 23  1  0
 14 24  1  0
M  RAD  1  12   2
M  END
>  <reaction>  (4) 
rxn_987

>  <mol_properties>  (4) 
{"1": {"label": "*1", "atom_type": "Cs"}, "4": {"label": "*0", "atom_type": "S2s"}, "10": {"label": "*4", "atom_type": "Cs"}, "11": {"label": "*3", "atom_type": "Cs"}, "17": {"label": "*2", "atom_type": "H0"}}

>  <type>  (4) 
ts

$$$$

     RDKit          3D

 24 22  0  0  0  0  0  0  0  0999 V2000
    1.7674    0.7828    1.1055 C   0  0  0  0  0  0  0  0  0  0  0  0
    0.9540   -0.1998    0.2644 C   0  0  0  0  0  0  0  0  0  0  0  0
   -0.1113   -0.8256    1.0371 C   0  0  0  0  0  0  0  0  0  0  0  0
   -0.9717   -1.3267    1.7021 C   0  0  0  0  0  0  0  0  0  0  0  0
    2.0012   -1.4523   -0.5666 S   0  0  0  0  0  0  0  0  0  0  0  0
    2.2567    0.2638    1.9303 H   0  0  0  0  0  0  0  0  0  0  0  0
    2.5306    1.2589    0.4911 H   0  0  0  0  0  0  0  0  0  0  0  0
    1.1134    1.5497    1.5240 H   0  0  0  0  0  0  0  0  0  0  0  0
   -1.7359   -1.7718    2.2928 H   0  0  0  0  0  0  0  0  0  0  0  0
    2.3931   -2.0740    0.5537 H   0  0  0  0  0  0  0  0  0  0  0  0
   -1.2507    0.9755   -2.0695 C   0  0  0  0  0  0  0  0  0  0  0  0
   -1.2507    0.9755   -0.5438 C   0  0  0  0  0  3  0  0  0  0  0  0
   -1.2507    2.4001    0.0023 C   0  0  0  0  0  0  0  0  0  0  0  0
   -2.4335    0.1814    0.0023 C   0  0  0  0  0  0  0  0  0  0  0  0
   -0.3900    1.5178   -2.4665 H   0  0  0  0  0  0  0  0  0  0  0  0
   -2.1546    1.4574   -2.4533 H   0  0  0  0  0  0  0  0  0  0  0  0
   -1.2211   -0.0414   -2.4665 H   0  0  0  0  0  0  0  0  0  0  0  0
   -0.1470    0.3871   -0.1392 H   0  0  0  0  0  0  0  0  0  0  0  0
   -2.1546    2.9310   -0.3105 H   0  0  0  0  0  0  0  0  0  0  0  0
   -1.2213    2.4069    1.0939 H   0  0  0  0  0  0  0  0  0  0  0  0
   -0.3899    2.9649   -0.3619 H   0  0  0  0  0  0  0  0  0  0  0  0
   -2.4227   -0.8480   -0.3621 H   0  0  0  0  0  0  0  0  0  0  0  0
   -3.3781    0.6361   -0.3103 H   0  0  0  0  0  0  0  0  0  0  0  0
   -2.4226    0.1530    1.0939 H   0  0  0  0  0  0  0  0  0  0  0  0
  1  2  1  0
  1  6  1  0
  1  7  1  0
  1  8  1  0
  2  3  1  0
  2  5  1  0
  2 18  1  0
  3  4  3  0
  4  9  1  0
  5 10  1  0
 11 12  1  0
 11 15  1  0
 11 16  1  0
 11 17  1  0
 12 13  1  0
 12 14  1  0
 13 19  1  0
 13 20  1  0
 13 21  1  0
 14 22  1  0
 14 23  1  0
 14 24  1  0
M  RAD  1  12   2
M  END
>  <reaction>  (5) 
rxn_987

>  <mol_properties>  (5) 
{"1": {"label": "*1", "atom_type": "Cs"}, "4": {"label": "*0", "atom_type": "S2s"}, "10": {"label": "*4", "atom_type": "Cs"}, "11": {"label": "*3", "atom_type": "Cs"}, "17": {"label": "*2", "atom_type": "H0"}}

>  <type>  (5) 
unop_1

>  <geom_source>  (5) 
Heuristics

$$$$

     RDKit          3D

 24 22  0  0  0  0  0  0  0  0999 V2000
    1.9792   -0.1570   -0.9618 C   0  0  0  0  0  0  0  0  0  0  0  0
    0.8788   -0.3881    0.0728 C   0  0  0  0  0  0  0  0  0  0  0  0
    1.0227    0.4912    1.2259 C   0  0  0  0  0  0  0  0  0  0  0  0
    1.1738    1.2225    2.1619 C   0  0  0  0  0  0  0  0  0  0  0  0
    0.7471   -2.1427    0.5825 S   0  0  0  0  0  0  0  0  0  0  0  0
    2.9573   -0.3777   -0.5332 H   0  0  0  0  0  0  0  0  0  0  0  0
    1.8229   -0.8026   -1.8250 H   0  0  0  0  0  0  0  0  0  0  0  0
    1.9758    0.8847   -1.2872 H   0  0  0  0  0  0  0  0  0  0  0  0
    1.3081    1.8721    2.9931 H   0  0  0  0  0  0  0  0  0  0  0  0
    1.9332   -2.1986    1.2032 H   0  0  0  0  0  0  0  0  0  0  0  0
   -1.3258    0.7872   -2.2611 C   0  0  0  0  0  0  0  0  0  0  0  0
   -1.3258    0.7872   -0.7354 C   0  0  0  0  0  3  0  0  0  0  0  0
   -1.3258    2.2119   -0.1893 C   0  0  0  0  0  0  0  0  0  0  0  0
   -2.5086   -0.0069   -0.1893 C   0  0  0  0  0  0  0  0  0  0  0  0
   -0.4651    1.3295   -2.6581 H   0  0  0  0  0  0  0  0  0  0  0  0
   -2.2298    1.2691   -2.6449 H   0  0  0  0  0  0  0  0  0  0  0  0
   -1.2963   -0.2296   -2.6581 H   0  0  0  0  0  0  0  0  0  0  0  0
   -0.2221    0.1988   -0.3308 H   0  0  0  0  0  0  0  0  0  0  0  0
   -2.2297    2.7427   -0.5021 H   0  0  0  0  0  0  0  0  0  0  0  0
   -1.2964    2.2187    0.9023 H   0  0  0  0  0  0  0  0  0  0  0  0
   -0.4650    2.7767   -0.5535 H   0  0  0  0  0  0  0  0  0  0  0  0
   -2.4979   -1.0363   -0.5537 H   0  0  0  0  0  0  0  0  0  0  0  0
   -3.4532    0.4478   -0.5019 H   0  0  0  0  0  0  0  0  0  0  0  0
   -2.4978   -0.0353    0.9023 H   0  0  0  0  0  0  0  0  0  0  0  0
  1  2  1  0
  1  6  1  0
  1  7  1  0
  1  8  1  0
  2  3  1  0
  2  5  1  0
  2 18  1  0
  3  4  3  0
  4  9  1  0
  5 10  1  0
 11 12  1  0
 11 15  1  0
 11 16  1  0
 11 17  1  0
 12 13  1  0
 12 14  1  0
 13 19  1  0
 13 20  1  0
 13 21  1  0
 14 22  1  0
 14 23  1  0
 14 24  1  0
M  RAD  1  12   2
M  END
>  <reaction>  (6) 
rxn_987

>  <mol_properties>  (6) 
{"1": {"label": "*1", "atom_type": "Cs"}, "4": {"label": "*0", "atom_type": "S2s"}, "10": {"label": "*4", "atom_type": "Cs"}, "11": {"label": "*3", "atom_type": "Cs"}, "17": {"label": "*2", "atom_type": "H0"}}

>  <type>  (6) 
unop_2

>  <geom_source>  (6) 
Heuristics

$$$$

     RDKit          3D

 24 22  0  0  0  0  0  0  0  0999 V2000
    1.2739    0.3715    1.7709 C   0  0  0  0  0  0  0  0  0  0  0  0
    0.8524   -0.2216    0.4273 C   0  0  0  0  0  0  0  0  0  0  0  0
    0.0118   -1.4003    0.5924 C   0  0  0  0  0  0  0  0  0  0  0  0
   -0.6703   -2.3695    0.7630 C   0  0  0  0  0  0  0  0  0  0  0  0
    2.2782   -0.5658   -0.6702 S   0  0  0  0  0  0  0  0  0  0  0  0
    1.8687   -0.3478    2.3348 H   0  0  0  0  0  0  0  0  0  0  0  0
    1.8698    1.2695    1.6133 H   0  0  0  0  0  0  0  0  0  0  0  0
    0.3925    0.6246    2.3626 H   0  0  0  0  0  0  0  0  0  0  0  0
   -1.2761   -3.2303    0.9145 H   0  0  0  0  0  0  0  0  0  0  0  0
    2.8015   -1.5440    0.0812 H   0  0  0  0  0  0  0  0  0  0  0  0
   -1.3522    0.9537   -1.9066 C   0  0  0  0  0  0  0  0  0  0  0  0
   -1.3522    0.9537   -0.3809 C   0  0  0  0  0  3  0  0  0  0  0  0
   -1.3522    2.3784    0.1652 C   0  0  0  0  0  0  0  0  0  0  0  0
   -2.5350    0.1596    0.1652 C   0  0  0  0  0  0  0  0  0  0  0  0
   -0.4915    1.4960   -2.3036 H   0  0  0  0  0  0  0  0  0  0  0  0
   -2.2562    1.4356   -2.2904 H   0  0  0  0  0  0  0  0  0  0  0  0
   -1.3227   -0.0631   -2.3036 H   0  0  0  0  0  0  0  0  0  0  0  0
   -0.2485    0.3654    0.0237 H   0  0  0  0  0  0  0  0  0  0  0  0
   -2.2562    2.9093   -0.1476 H   0  0  0  0  0  0  0  0  0  0  0  0
   -1.3229    2.3852    1.2568 H   0  0  0  0  0  0  0  0  0  0  0  0
   -0.4915    2.9432   -0.1990 H   0  0  0  0  0  0  0  0  0  0  0  0
   -2.5243   -0.8697   -0.1992 H   0  0  0  0  0  0  0  0  0  0  0  0
   -3.4796    0.6144   -0.1474 H   0  0  0  0  0  0  0  0  0  0  0  0
   -2.5242    0.1312    1.2568 H   0  0  0  0  0  0  0  0  0  0  0  0
  1  2  1  0
  1  6  1  0
  1  7  1  0
  1  8  1  0
  2  3  1  0
  2  5  1  0
  2 18  1  0
  3  4  3  0
  4  9  1  0
  5 10  1  0
 11 12  1  0
 11 15  1  0
 11 16  1  0
 11 17  1  0
 12 13  1  0
 12 14  1  0
 13 19  1  0
 13 20  1  0
 13 21  1  0
 14 22  1  0
 14 23  1  0
 14 24  1  0
M  RAD  1  12   2
M  END
>  <reaction>  (7) 
rxn_987

>  <mol_properties>  (7) 
{"1": {"label": "*1", "atom_type": "Cs"}, "4": {"label": "*0", "atom_type": "S2s"}, "10": {"label": "*4", "atom_type": "Cs"}, "11": {"label": "*3", "atom_type": "Cs"}, "17": {"label": "*2", "atom_type": "H0"}}

>  <type>  (7) 
unop_3

>  <geom_source>  (7) 
Heuristics

$$$$

     RDKit          3D

 24 22  0  0  0  0  0  0  0  0999 V2000
    0.9289   -1.9839   -0.5043 C   0  0  0  0  0  0  0  0  0  0  0  0
    0.8994   -0.5518    0.0278 C   0  0  0  0  0  0  0  0  0  0  0  0
    2.2403   -0.0151    0.2203 C   0  0  0  0  0  0  0  0  0  0  0  0
    3.3556    0.3928    0.3741 C   0  0  0  0  0  0  0  0  0  0  0  0
   -0.1121   -0.3840    1.5459 S   0  0  0  0  0  0  0  0  0  0  0  0
    1.4199   -2.6454    0.2101 H   0  0  0  0  0  0  0  0  0  0  0  0
   -0.0861   -2.3422   -0.6710 H   0  0  0  0  0  0  0  0  0  0  0  0
    1.4827   -2.0239   -1.4438 H   0  0  0  0  0  0  0  0  0  0  0  0
    4.3460    0.7551    0.5106 H   0  0  0  0  0  0  0  0  0  0  0  0
    0.6913   -1.1134    2.3318 H   0  0  0  0  0  0  0  0  0  0  0  0
   -1.3052    0.6235   -2.3061 C   0  0  0  0  0  0  0  0  0  0  0  0
   -1.3052    0.6235   -0.7804 C   0  0  0  0  0  3  0  0  0  0  0  0
   -1.3052    2.0481   -0.2344 C   0  0  0  0  0  0  0  0  0  0  0  0
   -2.4881   -0.1706   -0.2344 C   0  0  0  0  0  0  0  0  0  0  0  0
   -0.4446    1.1658   -2.7032 H   0  0  0  0  0  0  0  0  0  0  0  0
   -2.2092    1.1054   -2.6899 H   0  0  0  0  0  0  0  0  0  0  0  0
   -1.2757   -0.3934   -2.7032 H   0  0  0  0  0  0  0  0  0  0  0  0
   -0.2016    0.0351   -0.3758 H   0  0  0  0  0  0  0  0  0  0  0  0
   -2.2092    2.5790   -0.5471 H   0  0  0  0  0  0  0  0  0  0  0  0
   -1.2759    2.0549    0.8572 H   0  0  0  0  0  0  0  0  0  0  0  0
   -0.4445    2.6129   -0.5985 H   0  0  0  0  0  0  0  0  0  0  0  0
   -2.4773   -1.2000   -0.5988 H   0  0  0  0  0  0  0  0  0  0  0  0
   -3.4327    0.2841   -0.5469 H   0  0  0  0  0  0  0  0  0  0  0  0
   -2.4772   -0.1990    0.8572 H   0  0  0  0  0  0  0  0  0  0  0  0
  1  2  1  0
  1  6  1  0
  1  7  1  0
  1  8  1  0
  2  3  1  0
  2  5  1  0
  2 18  1  0
  3  4  3  0
  4  9  1  0
  5 10  1  0
 11 12  1  0
 11 15  1  0
 11 16  1  0
 11 17  1  0
 12 13  1  0
 12 14  1  0
 13 19  1  0
 13 20  1  0
 13 21  1  0
 14 22  1  0
 14 23  1  0
 14 24  1  0
M  RAD  1  12   2
M  END
>  <reaction>  (8) 
rxn_987

>  <mol_properties>  (8) 
{"1": {"label": "*1", "atom_type": "Cs"}, "4": {"label": "*0", "atom_type": "S2s"}, "10": {"label": "*4", "atom_type": "Cs"}, "11": {"label": "*3", "atom_type": "Cs"}, "17": {"label": "*2", "atom_type": "H0"}}

>  <type>  (8) 
unop_4

>  <geom_source>  (8) 
Heuristics

$$$$

     RDKit          3D

 24 22  0  0  0  0  0  0  0  0999 V2000
    0.7250   -0.4510    2.0347 C   0  0  0  0  0  0  0  0  0  0  0  0
    0.6955   -0.4353    0.5071 C   0  0  0  0  0  0  0  0  0  0  0  0
    0.7298   -1.7806   -0.0518 C   0  0  0  0  0  0  0  0  0  0  0  0
    0.7665   -2.8988   -0.4784 C   0  0  0  0  0  0  0  0  0  0  0  0
    2.0074    0.6213   -0.2129 S   0  0  0  0  0  0  0  0  0  0  0  0
    1.6499   -0.9040    2.3930 H   0  0  0  0  0  0  0  0  0  0  0  0
    0.6620    0.5656    2.4208 H   0  0  0  0  0  0  0  0  0  0  0  0
   -0.1130   -1.0341    2.4203 H   0  0  0  0  0  0  0  0  0  0  0  0
    0.7991   -3.8919   -0.8573 H   0  0  0  0  0  0  0  0  0  0  0  0
    3.0357   -0.1401    0.1849 H   0  0  0  0  0  0  0  0  0  0  0  0
   -1.5091    0.7400   -1.8268 C   0  0  0  0  0  0  0  0  0  0  0  0
   -1.5091    0.7400   -0.3011 C   0  0  0  0  0  3  0  0  0  0  0  0
   -1.5091    2.1647    0.2450 C   0  0  0  0  0  0  0  0  0  0  0  0
   -2.6919   -0.0541    0.2450 C   0  0  0  0  0  0  0  0  0  0  0  0
   -0.6484    1.2823   -2.2238 H   0  0  0  0  0  0  0  0  0  0  0  0
   -2.4131    1.2219   -2.2106 H   0  0  0  0  0  0  0  0  0  0  0  0
   -1.4796   -0.2768   -2.2239 H   0  0  0  0  0  0  0  0  0  0  0  0
   -0.4054    0.1517    0.1035 H   0  0  0  0  0  0  0  0  0  0  0  0
   -2.4131    2.6956   -0.0678 H   0  0  0  0  0  0  0  0  0  0  0  0
   -1.4798    2.1715    1.3366 H   0  0  0  0  0  0  0  0  0  0  0  0
   -0.6484    2.7295   -0.1192 H   0  0  0  0  0  0  0  0  0  0  0  0
   -2.6812   -1.0834   -0.1194 H   0  0  0  0  0  0  0  0  0  0  0  0
   -3.6366    0.4007   -0.0676 H   0  0  0  0  0  0  0  0  0  0  0  0
   -2.6811   -0.0825    1.3366 H   0  0  0  0  0  0  0  0  0  0  0  0
  1  2  1  0
  1  6  1  0
  1  7  1  0
  1  8  1  0
  2  3  1  0
  2  5  1  0
  2 18  1  0
  3  4  3  0
  4  9  1  0
  5 10  1  0
 11 12  1  0
 11 15  1  0
 11 16  1  0
 11 17  1  0
 12 13  1  0
 12 14  1  0
 13 19  1  0
 13 20  1  0
 13 21  1  0
 14 22  1  0
 14 23  1  0
 14 24  1  0
M  RAD  1  12   2
M  END
>  <reaction>  (9) 
rxn_987

>  <mol_properties>  (9) 
{"1": {"label": "*1", "atom_type": "Cs"}, "4": {"label": "*0", "atom_type": "S2s"}, "10": {"label": "*4", "atom_type": "Cs"}, "11": {"label": "*3", "atom_type": "Cs"}, "17": {"label": "*2", "atom_type": "H0"}}

>  <type>  (9) 
unop_5

>  <geom_source>  (9) 
Heuristics

$$$$

     RDKit          3D

 24 22  0  0  0  0  0  0  0  0999 V2000
    0.5936   -2.1719    0.2303 C   0  0  0  0  0  0  0  0  0  0  0  0
    0.8511   -0.6737    0.0758 C   0  0  0  0  0  0  0  0  0  0  0  0
    2.2699   -0.3781   -0.0759 C   0  0  0  0  0  0  0  0  0  0  0  0
    3.4432   -0.1691   -0.1908 C   0  0  0  0  0  0  0  0  0  0  0  0
    0.1033    0.3134    1.4257 S   0  0  0  0  0  0  0  0  0  0  0  0
    1.0795   -2.5509    1.1299 H   0  0  0  0  0  0  0  0  0  0  0  0
   -0.4763   -2.3621    0.3052 H   0  0  0  0  0  0  0  0  0  0  0  0
    0.9951   -2.7123   -0.6286 H   0  0  0  0  0  0  0  0  0  0  0  0
    4.4854    0.0166   -0.2928 H   0  0  0  0  0  0  0  0  0  0  0  0
    0.8953   -0.1562    2.3991 H   0  0  0  0  0  0  0  0  0  0  0  0
   -1.3536    0.5016   -2.2581 C   0  0  0  0  0  0  0  0  0  0  0  0
   -1.3536    0.5016   -0.7324 C   0  0  0  0  0  3  0  0  0  0  0  0
   -1.3536    1.9262   -0.1863 C   0  0  0  0  0  0  0  0  0  0  0  0
   -2.5364   -0.2925   -0.1863 C   0  0  0  0  0  0  0  0  0  0  0  0
   -0.4929    1.0439   -2.6551 H   0  0  0  0  0  0  0  0  0  0  0  0
   -2.2576    0.9835   -2.6419 H   0  0  0  0  0  0  0  0  0  0  0  0
   -1.3240   -0.5153   -2.6551 H   0  0  0  0  0  0  0  0  0  0  0  0
   -0.2499   -0.0868   -0.3278 H   0  0  0  0  0  0  0  0  0  0  0  0
   -2.2575    2.4571   -0.4991 H   0  0  0  0  0  0  0  0  0  0  0  0
   -1.3242    1.9330    0.9053 H   0  0  0  0  0  0  0  0  0  0  0  0
   -0.4928    2.4910   -0.5505 H   0  0  0  0  0  0  0  0  0  0  0  0
   -2.5256   -1.3219   -0.5507 H   0  0  0  0  0  0  0  0  0  0  0  0
   -3.4810    0.1622   -0.4989 H   0  0  0  0  0  0  0  0  0  0  0  0
   -2.5255   -0.3209    0.9053 H   0  0  0  0  0  0  0  0  0  0  0  0
  1  2  1  0
  1  6  1  0
  1  7  1  0
  1  8  1  0
  2  3  1  0
  2  5  1  0
  2 18  1  0
  3  4  3  0
  4  9  1  0
  5 10  1  0
 11 12  1  0
 11 15  1  0
 11 16  1  0
 11 17  1  0
 12 13  1  0
 12 14  1  0
 13 19  1  0
 13 20  1  0
 13 21  1  0
 14 22  1  0
 14 23  1  0
 14 24  1  0
M  RAD  1  12   2
M  END
>  <reaction>  (10) 
rxn_987

>  <mol_properties>  (10) 
{"1": {"label": "*1", "atom_type": "Cs"}, "4": {"label": "*0", "atom_type": "S2s"}, "10": {"label": "*4", "atom_type": "Cs"}, "11": {"label": "*3", "atom_type": "Cs"}, "17": {"label": "*2", "atom_type": "H0"}}

>  <type>  (10) 
unop_6

>  <geom_source>  (10) 
Heuristics

$$$$

     RDKit          3D

 24 22  0  0  0  0  0  0  0  0999 V2000
    0.4046   -1.9679    1.0421 C   0  0  0  0  0  0  0  0  0  0  0  0
    0.7670   -0.7448    0.2010 C   0  0  0  0  0  0  0  0  0  0  0  0
    2.1208   -0.8320   -0.3311 C   0  0  0  0  0  0  0  0  0  0  0  0
    3.2395   -0.9315   -0.7463 C   0  0  0  0  0  0  0  0  0  0  0  0
    0.5011    0.8310    1.0965 S   0  0  0  0  0  0  0  0  0  0  0  0
    1.0650   -2.0449    1.9063 H   0  0  0  0  0  0  0  0  0  0  0  0
   -0.6231   -1.8888    1.3943 H   0  0  0  0  0  0  0  0  0  0  0  0
    0.5116   -2.8771    0.4480 H   0  0  0  0  0  0  0  0  0  0  0  0
    4.2330   -1.0198   -1.1151 H   0  0  0  0  0  0  0  0  0  0  0  0
    1.4651    0.6401    2.0072 H   0  0  0  0  0  0  0  0  0  0  0  0
   -1.4376    0.4305   -2.1329 C   0  0  0  0  0  0  0  0  0  0  0  0
   -1.4376    0.4305   -0.6072 C   0  0  0  0  0  3  0  0  0  0  0  0
   -1.4376    1.8551   -0.0611 C   0  0  0  0  0  0  0  0  0  0  0  0
   -2.6204   -0.3636   -0.0611 C   0  0  0  0  0  0  0  0  0  0  0  0
   -0.5769    0.9728   -2.5299 H   0  0  0  0  0  0  0  0  0  0  0  0
   -2.3416    0.9124   -2.5167 H   0  0  0  0  0  0  0  0  0  0  0  0
   -1.4080   -0.5864   -2.5299 H   0  0  0  0  0  0  0  0  0  0  0  0
   -0.3339   -0.1579   -0.2026 H   0  0  0  0  0  0  0  0  0  0  0  0
   -2.3415    2.3860   -0.3739 H   0  0  0  0  0  0  0  0  0  0  0  0
   -1.4082    1.8619    1.0305 H   0  0  0  0  0  0  0  0  0  0  0  0
   -0.5768    2.4199   -0.4253 H   0  0  0  0  0  0  0  0  0  0  0  0
   -2.6096   -1.3930   -0.4255 H   0  0  0  0  0  0  0  0  0  0  0  0
   -3.5650    0.0911   -0.3737 H   0  0  0  0  0  0  0  0  0  0  0  0
   -2.6095   -0.3920    1.0305 H   0  0  0  0  0  0  0  0  0  0  0  0
  1  2  1  0
  1  6  1  0
  1  7  1  0
  1  8  1  0
  2  3  1  0
  2  5  1  0
  2 18  1  0
  3  4  3  0
  4  9  1  0
  5 10  1  0
 11 12  1  0
 11 15  1  0
 11 16  1  0
 11 17  1  0
 12 13  1  0
 12 14  1  0
 13 19  1  0
 13 20  1  0
 13 21  1  0
 14 22  1  0
 14 23  1  0
 14 24  1  0
M  RAD  1  12   2
M  END
>  <reaction>  (11) 
rxn_987

>  <mol_properties>  (11) 
{"1": {"label": "*1", "atom_type": "Cs"}, "4": {"label": "*0", "atom_type": "S2s"}, "10": {"label": "*4", "atom_type": "Cs"}, "11": {"label": "*3", "atom_type": "Cs"}, "17": {"label": "*2", "atom_type": "H0"}}

>  <type>  (11) 
unop_7

>  <geom_source>  (11) 
Heuristics

$$$$

     RDKit          3D

 24 22  0  0  0  0  0  0  0  0999 V2000
    2.0644    0.7815    0.2938 C   0  0  0  0  0  0  0  0  0  0  0  0
    0.9640   -0.2673    0.1393 C   0  0  0  0  0  0  0  0  0  0  0  0
    0.0752   -0.2976    1.2936 C   0  0  0  0  0  0  0  0  0  0  0  0
   -0.6318   -0.3018    2.2600 C   0  0  0  0  0  0  0  0  0  0  0  0
    1.6255   -1.9332   -0.2389 S   0  0  0  0  0  0  0  0  0  0  0  0
    2.6933    0.5497    1.1539 H   0  0  0  0  0  0  0  0  0  0  0  0
    2.6884    0.8036   -0.5988 H   0  0  0  0  0  0  0  0  0  0  0  0
    1.6238    1.7679    0.4484 H   0  0  0  0  0  0  0  0  0  0  0  0
   -1.2597   -0.3055    3.1183 H   0  0  0  0  0  0  0  0  0  0  0  0
    2.2264   -2.1182    0.9442 H   0  0  0  0  0  0  0  0  0  0  0  0
   -1.2406    0.9080   -2.1946 C   0  0  0  0  0  0  0  0  0  0  0  0
   -1.2406    0.9080   -0.6689 C   0  0  0  0  0  3  0  0  0  0  0  0
   -1.2406    2.3327   -0.1229 C   0  0  0  0  0  0  0  0  0  0  0  0
   -2.4234    0.1139   -0.1229 C   0  0  0  0  0  0  0  0  0  0  0  0
   -0.3799    1.4503   -2.5916 H   0  0  0  0  0  0  0  0  0  0  0  0
   -2.1446    1.3899   -2.5784 H   0  0  0  0  0  0  0  0  0  0  0  0
   -1.2111   -0.1088   -2.5917 H   0  0  0  0  0  0  0  0  0  0  0  0
   -0.1369    0.3196   -0.2643 H   0  0  0  0  0  0  0  0  0  0  0  0
   -2.1445    2.8636   -0.4356 H   0  0  0  0  0  0  0  0  0  0  0  0
   -1.2112    2.3395    0.9688 H   0  0  0  0  0  0  0  0  0  0  0  0
   -0.3798    2.8975   -0.4870 H   0  0  0  0  0  0  0  0  0  0  0  0
   -2.4127   -0.9154   -0.4872 H   0  0  0  0  0  0  0  0  0  0  0  0
   -3.3680    0.5687   -0.4354 H   0  0  0  0  0  0  0  0  0  0  0  0
   -2.4126    0.0855    0.9687 H   0  0  0  0  0  0  0  0  0  0  0  0
  1  2  1  0
  1  6  1  0
  1  7  1  0
  1  8  1  0
  2  3  1  0
  2  5  1  0
  2 18  1  0
  3  4  3  0
  4  9  1  0
  5 10  1  0
 11 12  1  0
 11 15  1  0
 11 16  1  0
 11 17  1  0
 12 13  1  0
 12 14  1  0
 13 19  1  0
 13 20  1  0
 13 21  1  0
 14 22  1  0
 14 23  1  0
 14 24  1  0
M  RAD  1  12   2
M  END
>  <reaction>  (12) 
rxn_987

>  <mol_properties>  (12) 
{"1": {"label": "*1", "atom_type": "Cs"}, "4": {"label": "*0", "atom_type": "S2s"}, "10": {"label": "*4", "atom_type": "Cs"}, "11": {"label": "*3", "atom_type": "Cs"}, "17": {"label": "*2", "atom_type": "H0"}}

>  <type>  (12) 
unop_8

>  <geom_source>  (12) 
Heuristics

$$$$

     RDKit          3D

 24 22  0  0  0  0  0  0  0  0999 V2000
    1.3204   -1.4893   -0.9933 C   0  0  0  0  0  0  0  0  0  0  0  0
    0.8990   -0.4469    0.0413 C   0  0  0  0  0  0  0  0  0  0  0  0
    2.0372    0.3101    0.5460 C   0  0  0  0  0  0  0  0  0  0  0  0
    2.9946    0.9084    0.9451 C   0  0  0  0  0  0  0  0  0  0  0  0
   -0.0837   -1.1678    1.4090 S   0  0  0  0  0  0  0  0  0  0  0  0
    1.9948   -2.2196   -0.5451 H   0  0  0  0  0  0  0  0  0  0  0  0
    0.4448   -2.0120   -1.3762 H   0  0  0  0  0  0  0  0  0  0  0  0
    1.8413   -1.0065   -1.8219 H   0  0  0  0  0  0  0  0  0  0  0  0
    3.8448    1.4397    1.2995 H   0  0  0  0  0  0  0  0  0  0  0  0
    0.9111   -1.9019    1.9256 H   0  0  0  0  0  0  0  0  0  0  0  0
   -1.3057    0.7284   -2.2926 C   0  0  0  0  0  0  0  0  0  0  0  0
   -1.3057    0.7284   -0.7669 C   0  0  0  0  0  3  0  0  0  0  0  0
   -1.3057    2.1530   -0.2208 C   0  0  0  0  0  0  0  0  0  0  0  0
   -2.4885   -0.0657   -0.2208 C   0  0  0  0  0  0  0  0  0  0  0  0
   -0.4450    1.2707   -2.6896 H   0  0  0  0  0  0  0  0  0  0  0  0
   -2.2097    1.2103   -2.6764 H   0  0  0  0  0  0  0  0  0  0  0  0
   -1.2761   -0.2885   -2.6896 H   0  0  0  0  0  0  0  0  0  0  0  0
   -0.2020    0.1400   -0.3623 H   0  0  0  0  0  0  0  0  0  0  0  0
   -2.2096    2.6839   -0.5336 H   0  0  0  0  0  0  0  0  0  0  0  0
   -1.2763    2.1598    0.8708 H   0  0  0  0  0  0  0  0  0  0  0  0
   -0.4449    2.7178   -0.5850 H   0  0  0  0  0  0  0  0  0  0  0  0
   -2.4777   -1.0951   -0.5852 H   0  0  0  0  0  0  0  0  0  0  0  0
   -3.4331    0.3890   -0.5334 H   0  0  0  0  0  0  0  0  0  0  0  0
   -2.4776   -0.0941    0.8708 H   0  0  0  0  0  0  0  0  0  0  0  0
  1  2  1  0
  1  6  1  0
  1  7  1  0
  1  8  1  0
  2  3  1  0
  2  5  1  0
  2 18  1  0
  3  4  3  0
  4  9  1  0
  5 10  1  0
 11 12  1  0
 11 15  1  0
 11 16  1  0
 11 17  1  0
 12 13  1  0
 12 14  1  0
 13 19  1  0
 13 20  1  0
 13 21  1  0
 14 22  1  0
 14 23  1  0
 14 24  1  0
M  RAD  1  12   2
M  END
>  <reaction>  (13) 
rxn_987

>  <mol_properties>  (13) 
{"1": {"label": "*1", "atom_type": "Cs"}, "4": {"label": "*0", "atom_type": "S2s"}, "10": {"label": "*4", "atom_type": "Cs"}, "11": {"label": "*3", "atom_type": "Cs"}, "17": {"label": "*2", "atom_type": "H0"}}

>  <type>  (13) 
unop_9

>  <geom_source>  (13) 
Heuristics

$$$$

     RDKit          3D

 24 22  0  0  0  0  0  0  0  0999 V2000
    2.1281    0.4283   -0.4512 C   0  0  0  0  0  0  0  0  0  0  0  0
    0.9227   -0.3454    0.0808 C   0  0  0  0  0  0  0  0  0  0  0  0
    0.4684    0.1710    1.3655 C   0  0  0  0  0  0  0  0  0  0  0  0
    0.1254    0.6147    2.4234 C   0  0  0  0  0  0  0  0  0  0  0  0
    1.2201   -2.1515    0.1539 S   0  0  0  0  0  0  0  0  0  0  0  0
    2.9739    0.3311    0.2302 H   0  0  0  0  0  0  0  0  0  0  0  0
    2.4200    0.0419   -1.4269 H   0  0  0  0  0  0  0  0  0  0  0  0
    1.8833    1.4878   -0.5432 H   0  0  0  0  0  0  0  0  0  0  0  0
   -0.1792    1.0088    3.3630 H   0  0  0  0  0  0  0  0  0  0  0  0
    2.1520   -2.1022    1.1153 H   0  0  0  0  0  0  0  0  0  0  0  0
   -1.2819    0.8299   -2.2531 C   0  0  0  0  0  0  0  0  0  0  0  0
   -1.2819    0.8299   -0.7274 C   0  0  0  0  0  3  0  0  0  0  0  0
   -1.2819    2.2546   -0.1813 C   0  0  0  0  0  0  0  0  0  0  0  0
   -2.4647    0.0358   -0.1813 C   0  0  0  0  0  0  0  0  0  0  0  0
   -0.4212    1.3722   -2.6501 H   0  0  0  0  0  0  0  0  0  0  0  0
   -2.1859    1.3118   -2.6369 H   0  0  0  0  0  0  0  0  0  0  0  0
   -1.2524   -0.1869   -2.6501 H   0  0  0  0  0  0  0  0  0  0  0  0
   -0.1782    0.2415   -0.3228 H   0  0  0  0  0  0  0  0  0  0  0  0
   -2.1858    2.7854   -0.4941 H   0  0  0  0  0  0  0  0  0  0  0  0
   -1.2525    2.2614    0.9103 H   0  0  0  0  0  0  0  0  0  0  0  0
   -0.4212    2.8194   -0.5455 H   0  0  0  0  0  0  0  0  0  0  0  0
   -2.4540   -0.9936   -0.5457 H   0  0  0  0  0  0  0  0  0  0  0  0
   -3.4093    0.4905   -0.4939 H   0  0  0  0  0  0  0  0  0  0  0  0
   -2.4539    0.0074    0.9103 H   0  0  0  0  0  0  0  0  0  0  0  0
  1  2  1  0
  1  6  1  0
  1  7  1  0
  1  8  1  0
  2  3  1  0
  2  5  1  0
  2 18  1  0
  3  4  3  0
  4  9  1  0
  5 10  1  0
 11 12  1  0
 11 15  1  0
 11 16  1  0
 11 17  1  0
 12 13  1  0
 12 14  1  0
 13 19  1  0
 13 20  1  0
 13 21  1  0
 14 22  1  0
 14 23  1  0
 14 24  1  0
M  RAD  1  12   2
M  END
>  <reaction>  (14) 
rxn_987

>  <mol_properties>  (14) 
{"1": {"label": "*1", "atom_type": "Cs"}, "4": {"label": "*0", "atom_type": "S2s"}, "10": {"label": "*4", "atom_type": "Cs"}, "11": {"label": "*3", "atom_type": "Cs"}, "17": {"label": "*2", "atom_type": "H0"}}

>  <type>  (14) 
unop_10

>  <geom_source>  (14) 
Heuristics

$$$$

     RDKit          3D

 24 22  0  0  0  0  0  0  0  0999 V2000
    0.4243   -1.3659    1.7240 C   0  0  0  0  0  0  0  0  0  0  0  0
    0.6817   -0.6854    0.3804 C   0  0  0  0  0  0  0  0  0  0  0  0
    1.6587   -1.4127   -0.4196 C   0  0  0  0  0  0  0  0  0  0  0  0
    2.4697   -2.0301   -1.0481 C   0  0  0  0  0  0  0  0  0  0  0  0
    1.1446    1.0780    0.5599 S   0  0  0  0  0  0  0  0  0  0  0  0
    1.3389   -1.3958    2.3170 H   0  0  0  0  0  0  0  0  0  0  0  0
   -0.3350   -0.8187    2.2813 H   0  0  0  0  0  0  0  0  0  0  0  0
    0.0852   -2.3911    1.5667 H   0  0  0  0  0  0  0  0  0  0  0  0
    3.1899   -2.5784   -1.6062 H   0  0  0  0  0  0  0  0  0  0  0  0
    2.3234    0.8543    1.1563 H   0  0  0  0  0  0  0  0  0  0  0  0
   -1.5229    0.4899   -1.9535 C   0  0  0  0  0  0  0  0  0  0  0  0
   -1.5229    0.4899   -0.4278 C   0  0  0  0  0  3  0  0  0  0  0  0
   -1.5229    1.9145    0.1183 C   0  0  0  0  0  0  0  0  0  0  0  0
   -2.7057   -0.3042    0.1183 C   0  0  0  0  0  0  0  0  0  0  0  0
   -0.6622    1.0322   -2.3505 H   0  0  0  0  0  0  0  0  0  0  0  0
   -2.4269    0.9718   -2.3373 H   0  0  0  0  0  0  0  0  0  0  0  0
   -1.4933   -0.5270   -2.3506 H   0  0  0  0  0  0  0  0  0  0  0  0
   -0.4192   -0.0985   -0.0232 H   0  0  0  0  0  0  0  0  0  0  0  0
   -2.4268    2.4454   -0.1945 H   0  0  0  0  0  0  0  0  0  0  0  0
   -1.4935    1.9214    1.2099 H   0  0  0  0  0  0  0  0  0  0  0  0
   -0.6621    2.4793   -0.2459 H   0  0  0  0  0  0  0  0  0  0  0  0
   -2.6949   -1.3336   -0.2461 H   0  0  0  0  0  0  0  0  0  0  0  0
   -3.6503    0.1505   -0.1943 H   0  0  0  0  0  0  0  0  0  0  0  0
   -2.6948   -0.3326    1.2099 H   0  0  0  0  0  0  0  0  0  0  0  0
  1  2  1  0
  1  6  1  0
  1  7  1  0
  1  8  1  0
  2  3  1  0
  2  5  1  0
  2 18  1  0
  3  4  3  0
  4  9  1  0
  5 10  1  0
 11 12  1  0
 11 15  1  0
 11 16  1  0
 11 17  1  0
 12 13  1  0
 12 14  1  0
 13 19  1  0
 13 20  1  0
 13 21  1  0
 14 22  1  0
 14 23  1  0
 14 24  1  0
M  RAD  1  12   2
M  END
>  <reaction>  (15) 
rxn_987

>  <mol_properties>  (15) 
{"1": {"label": "*1", "atom_type": "Cs"}, "4": {"label": "*0", "atom_type": "S2s"}, "10": {"label": "*4", "atom_type": "Cs"}, "11": {"label": "*3", "atom_type": "Cs"}, "17": {"label": "*2", "atom_type": "H0"}}

>  <type>  (15) 
unop_11

>  <geom_source>  (15) 
Heuristics

$$$$

     RDKit          3D

 24 22  0  0  0  0  0  0  0  0999 V2000
    1.6877   -0.8352   -1.1502 C   0  0  0  0  0  0  0  0  0  0  0  0
    0.8743   -0.4016    0.0684 C   0  0  0  0  0  0  0  0  0  0  0  0
    1.6106    0.5329    0.9098 C   0  0  0  0  0  0  0  0  0  0  0  0
    2.2456    1.2930    1.5826 C   0  0  0  0  0  0  0  0  0  0  0  0
    0.2458   -1.8225    1.0389 S   0  0  0  0  0  0  0  0  0  0  0  0
    2.5924   -1.3577   -0.8378 H   0  0  0  0  0  0  0  0  0  0  0  0
    1.0974   -1.5036   -1.7758 H   0  0  0  0  0  0  0  0  0  0  0  0
    1.9819    0.0378   -1.7352 H   0  0  0  0  0  0  0  0  0  0  0  0
    2.8096    1.9681    2.1802 H   0  0  0  0  0  0  0  0  0  0  0  0
    1.4450   -2.2486    1.4577 H   0  0  0  0  0  0  0  0  0  0  0  0
   -1.3303    0.7737   -2.2655 C   0  0  0  0  0  0  0  0  0  0  0  0
   -1.3303    0.7737   -0.7398 C   0  0  0  0  0  3  0  0  0  0  0  0
   -1.3303    2.1984   -0.1938 C   0  0  0  0  0  0  0  0  0  0  0  0
   -2.5132   -0.0204   -0.1938 C   0  0  0  0  0  0  0  0  0  0  0  0
   -0.4697    1.3160   -2.6626 H   0  0  0  0  0  0  0  0  0  0  0  0
   -2.2343    1.2556   -2.6493 H   0  0  0  0  0  0  0  0  0  0  0  0
   -1.3008   -0.2431   -2.6626 H   0  0  0  0  0  0  0  0  0  0  0  0
   -0.2267    0.1853   -0.3352 H   0  0  0  0  0  0  0  0  0  0  0  0
   -2.2343    2.7292   -0.5065 H   0  0  0  0  0  0  0  0  0  0  0  0
   -1.3010    2.2052    0.8978 H   0  0  0  0  0  0  0  0  0  0  0  0
   -0.4696    2.7632   -0.5579 H   0  0  0  0  0  0  0  0  0  0  0  0
   -2.5024   -1.0498   -0.5582 H   0  0  0  0  0  0  0  0  0  0  0  0
   -3.4578    0.4343   -0.5063 H   0  0  0  0  0  0  0  0  0  0  0  0
   -2.5023   -0.0488    0.8978 H   0  0  0  0  0  0  0  0  0  0  0  0
  1  2  1  0
  1  6  1  0
  1  7  1  0
  1  8  1  0
  2  3  1  0
  2  5  1  0
  2 18  1  0
  3  4  3  0
  4  9  1  0
  5 10  1  0
 11 12  1  0
 11 15  1  0
 11 16  1  0
 11 17  1  0
 12 13  1  0
 12 14  1  0
 13 19  1  0
 13 20  1  0
 13 21  1  0
 14 22  1  0
 14 23  1  0
 14 24  1  0
M  RAD  1  12   2
M  END
>  <reaction>  (16) 
rxn_987

>  <mol_properties>  (16) 
{"1": {"label": "*1", "atom_type": "Cs"}, "4": {"label": "*0", "atom_type": "S2s"}, "10": {"label": "*4", "atom_type": "Cs"}, "11": {"label": "*3", "atom_type": "Cs"}, "17": {"label": "*2", "atom_type": "H0"}}

>  <type>  (16) 
unop_12

>  <geom_source>  (16) 
Heuristics

$$$$

     RDKit          3D

 24 22  0  0  0  0  0  0  0  0999 V2000
    1.0491   -0.8846    2.1863 S   0  0  0  0  0  0  0  0  0  0  0  0
    1.3650   -0.2655    0.5044 C   0  0  0  0  0  0  0  0  0  0  0  0
    1.8543   -1.4022   -0.3863 C   0  0  0  0  0  0  0  0  0  0  0  0
   -1.6622   -1.2860   -0.5270 C   0  0  0  0  0  0  0  0  0  0  0  0
   -1.7475    0.7700    0.9394 C   0  0  0  0  0  0  0  0  0  0  0  0
   -1.1678    0.9886   -1.5102 C   0  0  0  0  0  0  0  0  0  0  0  0
   -1.0791    0.1041   -0.2650 C   0  0  0  0  0  3  0  0  0  0  0  0
    2.3653    0.8078    0.5578 C   0  0  0  0  0  0  0  0  0  0  0  0
    3.1858    1.6902    0.6010 C   0  0  0  0  0  0  0  0  0  0  0  0
    0.2361    0.2211    0.0042 H   0  0  0  0  0  0  0  0  0  0  0  0
    2.7986   -1.8342    0.0103 H   0  0  0  0  0  0  0  0  0  0  0  0
    2.0301   -1.0298   -1.4181 H   0  0  0  0  0  0  0  0  0  0  0  0
    1.0842   -2.2010   -0.4313 H   0  0  0  0  0  0  0  0  0  0  0  0
   -1.5375   -1.9247    0.3727 H   0  0  0  0  0  0  0  0  0  0  0  0
   -2.7430   -1.2171   -0.7766 H   0  0  0  0  0  0  0  0  0  0  0  0
   -1.1251   -1.7693   -1.3701 H   0  0  0  0  0  0  0  0  0  0  0  0
   -1.2711    1.7524    1.1417 H   0  0  0  0  0  0  0  0  0  0  0  0
   -1.6229    0.1343    1.8412 H   0  0  0  0  0  0  0  0  0  0  0  0
   -2.8317    0.9241    0.7507 H   0  0  0  0  0  0  0  0  0  0  0  0
   -2.2280    1.1517   -1.8006 H   0  0  0  0  0  0  0  0  0  0  0  0
   -0.6905    1.9713   -1.3115 H   0  0  0  0  0  0  0  0  0  0  0  0
   -0.6299    0.5086   -2.3548 H   0  0  0  0  0  0  0  0  0  0  0  0
    0.4617    0.3257    2.6026 H   0  0  0  0  0  0  0  0  0  0  0  0
    3.9060    2.4646    0.6391 H   0  0  0  0  0  0  0  0  0  0  0  0
  1  2  1  0
  1 23  1  0
  2  3  1  0
  2  8  1  0
  2 10  1  0
  3 11  1  0
  3 12  1  0
  3 13  1  0
  4  7  1  0
  4 14  1  0
  4 15  1  0
  4 16  1  0
  5  7  1  0
  5 17  1  0
  5 18  1  0
  5 19  1  0
  6  7  1  0
  6 20  1  0
  6 21  1  0
  6 22  1  0
  8  9  3  0
  9 24  1  0
M  RAD  1   7   2
M  END
>  <reaction>  (17) 
rxn_987

>  <mol_properties>  (17) 
{"1": {"label": "*1", "atom_type": "Cs"}, "4": {"label": "*0", "atom_type": "S2s"}, "10": {"label": "*4", "atom_type": "Cs"}, "11": {"label": "*3", "atom_type": "Cs"}, "17": {"label": "*2", "atom_type": "H0"}}

>  <type>  (17) 
unop_13

>  <geom_source>  (17) 
AutoTST

$$$$
