
     RDKit          3D

 13 12  0  0  0  0  0  0  0  0999 V2000
    3.0977   -0.3549   -0.5105 C   0  0  0  0  0  0  0  0  0  0  0  0
    2.0556    0.4221   -0.2627 C   0  0  0  0  0  0  0  0  0  0  0  0
    0.6313   -0.0354   -0.2366 C   0  0  0  0  0  0  0  0  0  0  0  0
   -0.2567    0.6038   -1.2694 C   0  0  0  0  0  0  0  0  0  0  0  0
    0.1459    1.3456   -2.2891 C   0  0  0  0  0  0  0  0  0  0  0  0
    4.1081    0.0344   -0.5074 H   0  0  0  0  0  0  0  0  0  0  0  0
    2.9777   -1.4116   -0.7243 H   0  0  0  0  0  0  0  0  0  0  0  0
    2.2171    1.4781   -0.0618 H   0  0  0  0  0  0  0  0  0  0  0  0
    0.5865   -1.1233   -0.3540 H   0  0  0  0  0  0  0  0  0  0  0  0
    0.2065    0.1743    0.7521 H   0  0  0  0  0  0  0  0  0  0  0  0
   -1.3190    0.4126   -1.1445 H   0  0  0  0  0  0  0  0  0  0  0  0
    1.1948    1.5564   -2.4628 H   0  0  0  0  0  0  0  0  0  0  0  0
   -0.5644    1.7621   -2.9918 H   0  0  0  0  0  0  0  0  0  0  0  0
  1  2  2  3
  1  6  1  0
  1  7  1  0
  2  3  1  0
  2  8  1  0
  3  4  1  0
  3  9  1  0
  3 10  1  0
  4  5  2  3
  4 11  1  0
  5 12  1  0
  5 13  1  0
M  END
>  <reaction>  (1) 
rxn_1151

>  <mol_properties>  (1) 
{"2": {"label": "donator", "atom_type": "Cs"}, "8": {"label": "d_hydrogen", "atom_type": "H0"}}

>  <type>  (1) 
r1h

$$$$

     RDKit          3D

  9  8  0  0  0  0  0  0  0  0999 V2000
   -1.2704   -0.1236    0.1096 C   0  0  0  0  0  0  0  0  0  0  0  0
    0.0713   -0.5323    0.5887 C   0  0  0  0  0  0  0  0  0  0  0  0
    0.9521   -1.3639   -0.0464 C   0  0  0  0  0  0  0  0  0  0  0  0
    0.6900   -2.1109   -1.5335 S   0  0  0  0  0  1  0  0  0  0  0  0
   -1.3201    0.9657    0.0241 H   0  0  0  0  0  0  0  0  0  0  0  0
   -1.5103   -0.5706   -0.8526 H   0  0  0  0  0  0  0  0  0  0  0  0
   -2.0312   -0.4112    0.8411 H   0  0  0  0  0  0  0  0  0  0  0  0
    0.3863   -0.1265    1.5468 H   0  0  0  0  0  0  0  0  0  0  0  0
    1.8971   -1.5543    0.4552 H   0  0  0  0  0  0  0  0  0  0  0  0
  1  2  1  0
  1  5  1  0
  1  6  1  0
  1  7  1  0
  2  3  2  3
  2  8  1  0
  3  4  1  0
  3  9  1  0
M  RAD  1   4   2
M  END
>  <reaction>  (2) 
rxn_1151

>  <mol_properties>  (2) 
{"1": {"label": "acceptor", "atom_type": "Cs"}}

>  <type>  (2) 
r2

$$$$

     RDKit          3D

 10  9  0  0  0  0  0  0  0  0999 V2000
   -1.1508    0.0666    0.2839 C   0  0  0  0  0  0  0  0  0  0  0  0
    0.1022   -0.3749   -0.4771 C   0  0  0  0  0  0  0  0  0  0  0  0
    1.3428    0.1620    0.1542 C   0  0  0  0  0  0  0  0  0  0  0  0
    2.5613   -0.6971    0.7526 S   0  0  0  0  0  0  0  0  0  0  0  0
   -1.2137    1.1546    0.3481 H   0  0  0  0  0  0  0  0  0  0  0  0
   -2.0472   -0.2935   -0.2212 H   0  0  0  0  0  0  0  0  0  0  0  0
   -1.1467   -0.3334    1.2987 H   0  0  0  0  0  0  0  0  0  0  0  0
    0.1602   -1.4616   -0.5369 H   0  0  0  0  0  0  0  0  0  0  0  0
    0.0536    0.0174   -1.4997 H   0  0  0  0  0  0  0  0  0  0  0  0
    1.3824    1.2528    0.2110 H   0  0  0  0  0  0  0  0  0  0  0  0
  1  2  1  0
  1  5  1  0
  1  6  1  0
  1  7  1  0
  2  3  1  0
  2  8  1  0
  2  9  1  0
  3  4  2  0
  3 10  1  0
M  END
>  <reaction>  (3) 
rxn_1151

>  <mol_properties>  (3) 
{"1": {"label": "acceptor", "atom_type": "Cs"}, "9": {"label": "a_hydrogen", "atom_type": "H0"}}

>  <type>  (3) 
r2h

$$$$

     RDKit          3D

 22 20  0  0  0  0  0  0  0  0999 V2000
    1.6105    1.9779   -0.0779 C   0  0  0  0  0  0  0  0  0  0  0  0
    0.2771    1.3456   -0.3636 C   0  0  0  0  0  0  0  0  0  0  0  0
   -0.0066    0.7395   -1.6269 C   0  0  0  0  0  0  0  0  0  0  0  0
    1.0970    0.1989   -2.7127 S   0  0  0  0  0  1  0  0  0  0  0  0
    2.4259    1.3307   -0.3977 H   0  0  0  0  0  0  0  0  0  0  0  0
    1.7030    2.9228   -0.6191 H   0  0  0  0  0  0  0  0  0  0  0  0
    1.7200    2.1843    0.9876 H   0  0  0  0  0  0  0  0  0  0  0  0
   -0.5788    1.8455    0.0889 H   0  0  0  0  0  0  0  0  0  0  0  0
   -1.0622    0.5702   -1.8332 H   0  0  0  0  0  0  0  0  0  0  0  0
   -1.4213   -2.1472    0.1907 C   0  0  0  0  0  0  0  0  0  0  0  0
   -0.1213   -1.8814    0.3083 C   0  0  0  0  0  0  0  0  0  0  0  0
    0.4160   -0.8608    1.2044 C   0  0  0  0  0  0  0  0  0  0  0  0
    1.8219   -0.8664    1.6047 C   0  0  0  0  0  0  0  0  0  0  0  0
    2.8319   -1.4374    0.9443 C   0  0  0  0  0  0  0  0  0  0  0  0
   -1.7835   -2.8886   -0.5089 H   0  0  0  0  0  0  0  0  0  0  0  0
   -2.1612   -1.6371    0.7982 H   0  0  0  0  0  0  0  0  0  0  0  0
    0.5790   -2.4074   -0.3303 H   0  0  0  0  0  0  0  0  0  0  0  0
    0.3105    0.2441    0.4309 H   0  0  0  0  0  0  0  0  0  0  0  0
   -0.2713   -0.5640    1.9947 H   0  0  0  0  0  0  0  0  0  0  0  0
    2.0514   -0.3042    2.5044 H   0  0  0  0  0  0  0  0  0  0  0  0
    2.6895   -1.9897    0.0241 H   0  0  0  0  0  0  0  0  0  0  0  0
    3.8463   -1.3568    1.3112 H   0  0  0  0  0  0  0  0  0  0  0  0
  1  2  1  0
  1  5  1  0
  1  6  1  0
  1  7  1  0
  2  3  2  3
  2  8  1  0
  3  4  1  0
  3  9  1  0
 10 11  2  3
 10 15  1  0
 10 16  1  0
 11 12  1  0
 11 17  1  0
 12 13  1  0
 12 18  1  0
 12 19  1  0
 13 14  2  3
 13 20  1  0
 14 21  1  0
 14 22  1  0
M  RAD  1   4   2
M  END
>  <reaction>  (4) 
rxn_1151

>  <mol_properties>  (4) 
{"1": {"label": "*3", "atom_type": "Cd"}, "2": {"label": "*4", "atom_type": "Cd"}, "10": {"label": "*0", "atom_type": "Cd"}, "11": {"label": "*1", "atom_type": "Cs"}, "17": {"label": "*2", "atom_type": "H0"}}

>  <type>  (4) 
ts

$$$$

     RDKit          3D

 22 20  0  0  0  0  0  0  0  0999 V2000
   -2.1202    2.1258   -0.7586 C   0  0  0  0  0  0  0  0  0  0  0  0
   -0.8617    1.3358   -1.1277 C   0  0  0  0  0  0  0  0  0  0  0  0
    0.2756    1.6638   -0.2196 C   0  0  0  0  0  2  0  0  0  0  0  0
    1.0654    0.6400    0.7339 S   0  0  0  0  0  1  0  0  0  0  0  0
   -2.4632    1.8593    0.2419 H   0  0  0  0  0  0  0  0  0  0  0  0
   -1.9340    3.2013   -0.7785 H   0  0  0  0  0  0  0  0  0  0  0  0
   -2.9232    1.9098   -1.4635 H   0  0  0  0  0  0  0  0  0  0  0  0
   -0.5604    1.6034   -2.1472 H   0  0  0  0  0  0  0  0  0  0  0  0
    0.5606    2.7190   -0.2193 H   0  0  0  0  0  0  0  0  0  0  0  0
   -0.6221   -2.0289   -1.8115 C   0  0  0  0  0  0  0  0  0  0  0  0
   -0.6221   -2.0289   -0.4882 C   0  0  0  0  0  0  0  0  0  0  0  0
   -0.6221   -0.8031    0.3698 C   0  0  0  0  0  3  0  0  0  0  0  0
    0.5876   -0.6487    1.2510 C   0  0  0  0  0  0  0  0  0  0  0  0
    1.6987   -1.3644    1.1785 C   0  0  0  0  0  3  0  0  0  0  0  0
   -0.6303   -2.9516   -2.3780 H   0  0  0  0  0  0  0  0  0  0  0  0
   -0.6158   -1.1034   -2.3775 H   0  0  0  0  0  0  0  0  0  0  0  0
   -0.6196   -2.9776    0.0423 H   0  0  0  0  0  0  0  0  0  0  0  0
   -0.7422    0.2689   -0.3808 H   0  0  0  0  0  0  0  0  0  0  0  0
   -1.5101   -0.8166    1.0125 H   0  0  0  0  0  0  0  0  0  0  0  0
    0.5149    0.1363    1.9987 H   0  0  0  0  0  0  0  0  0  0  0  0
    1.8242   -2.1513    0.4437 H   0  0  0  0  0  0  0  0  0  0  0  0
    2.5269   -1.1801    1.8509 H   0  0  0  0  0  0  0  0  0  0  0  0
  1  2  1  0
  1  5  1  0
  1  6  1  0
  1  7  1  0
  2  3  1  0
  2  8  1  0
  2 18  1  0
  3  9  1  0
  4 13  1  0
 10 11  2  3
 10 15  1  0
 10 16  1  0
 11 12  1  0
 11 17  1  0
 12 13  1  0
 12 19  1  0
 13 14  1  0
 13 20  1  0
 14 21  1  0
 14 22  1  0
M  CHG  2   4  -1  14   1
M  RAD  2   3   3  12   2
M  END
>  <reaction>  (5) 
rxn_1151

>  <mol_properties>  (5) 
{"1": {"label": "*3", "atom_type": "Cd"}, "2": {"label": "*4", "atom_type": "Cd"}, "10": {"label": "*0", "atom_type": "Cd"}, "11": {"label": "*1", "atom_type": "Cs"}, "17": {"label": "*2", "atom_type": "H0"}}

>  <type>  (5) 
unop_1

>  <geom_source>  (5) 
Heuristics

$$$$

     RDKit          3D

 22 20  0  0  0  0  0  0  0  0999 V2000
   -0.8292    0.8859   -2.3636 C   0  0  0  0  0  0  0  0  0  0  0  0
   -0.0268    1.1909   -1.0959 C   0  0  0  0  0  0  0  0  0  0  0  0
   -0.8397    1.9541   -0.1047 C   0  0  0  0  0  0  0  0  0  0  0  0
   -1.2129    1.4901    1.3875 S   0  0  0  0  0  0  0  0  0  0  0  0
   -1.6823    0.2457   -2.1354 H   0  0  0  0  0  0  0  0  0  0  0  0
   -1.2053    1.8009   -2.8253 H   0  0  0  0  0  0  0  0  0  0  0  0
   -0.2032    0.3729   -3.0938 H   0  0  0  0  0  0  0  0  0  0  0  0
    0.8379    1.8096   -1.3628 H   0  0  0  0  0  0  0  0  0  0  0  0
   -1.2139    2.9126   -0.4732 H   0  0  0  0  0  0  0  0  0  0  0  0
    0.2128   -2.1738   -1.7796 C   0  0  0  0  0  0  0  0  0  0  0  0
    0.2128   -2.1738   -0.4563 C   0  0  0  0  0  0  0  0  0  0  0  0
    0.2128   -0.9480    0.4017 C   0  0  0  0  0  3  0  0  0  0  0  0
    1.4225   -0.7936    1.2829 C   0  0  0  0  0  0  0  0  0  0  0  0
    2.5337   -1.5093    1.2104 C   0  0  0  0  0  0  0  0  0  0  0  0
    0.2046   -3.0965   -2.3461 H   0  0  0  0  0  0  0  0  0  0  0  0
    0.2192   -1.2484   -2.3456 H   0  0  0  0  0  0  0  0  0  0  0  0
    0.2154   -3.1226    0.0742 H   0  0  0  0  0  0  0  0  0  0  0  0
    0.0927    0.1240   -0.3489 H   0  0  0  0  0  0  0  0  0  0  0  0
   -0.6752   -0.9615    1.0444 H   0  0  0  0  0  0  0  0  0  0  0  0
    1.3498   -0.0086    2.0306 H   0  0  0  0  0  0  0  0  0  0  0  0
    2.6592   -2.2962    0.4756 H   0  0  0  0  0  0  0  0  0  0  0  0
    3.3619   -1.3250    1.8828 H   0  0  0  0  0  0  0  0  0  0  0  0
  1  2  1  0
  1  5  1  0
  1  6  1  0
  1  7  1  0
  2  3  1  0
  2  8  1  0
  2 18  1  0
  3  4  2  0
  3  9  1  0
 10 11  2  3
 10 15  1  0
 10 16  1  0
 11 12  1  0
 11 17  1  0
 12 13  1  0
 12 19  1  0
 13 14  2  3
 13 20  1  0
 14 21  1  0
 14 22  1  0
M  RAD  1  12   2
M  END
>  <reaction>  (6) 
rxn_1151

>  <mol_properties>  (6) 
{"1": {"label": "*3", "atom_type": "Cd"}, "2": {"label": "*4", "atom_type": "Cd"}, "10": {"label": "*0", "atom_type": "Cd"}, "11": {"label": "*1", "atom_type": "Cs"}, "17": {"label": "*2", "atom_type": "H0"}}

>  <type>  (6) 
unop_2

>  <geom_source>  (6) 
Heuristics

$$$$

     RDKit          3D

 22 21  0  0  0  0  0  0  0  0999 V2000
   -1.7965    2.5007   -0.0921 C   0  0  0  0  0  0  0  0  0  0  0  0
   -1.0761    1.3803   -0.8470 C   0  0  0  0  0  0  0  0  0  0  0  0
    0.4056    1.5020   -0.7223 C   0  0  0  0  0  3  0  0  0  0  0  0
    1.4046    0.4185   -0.0826 S   0  0  0  0  0  0  0  0  0  0  0  0
   -1.5906    2.4396    0.9772 H   0  0  0  0  0  0  0  0  0  0  0  0
   -1.4788    3.4843   -0.4434 H   0  0  0  0  0  0  0  0  0  0  0  0
   -2.8741    2.4230   -0.2372 H   0  0  0  0  0  0  0  0  0  0  0  0
   -1.3265    1.4511   -1.9120 H   0  0  0  0  0  0  0  0  0  0  0  0
    0.8128    2.4430   -1.1008 H   0  0  0  0  0  0  0  0  0  0  0  0
   -0.8365   -1.9843   -1.5308 C   0  0  0  0  0  3  0  0  0  0  0  0
   -0.8365   -1.9843   -0.2075 C   0  0  0  0  0  0  0  0  0  0  0  0
   -0.8365   -0.7585    0.6505 C   0  0  0  0  0  0  0  0  0  0  0  0
    0.3732   -0.6042    1.5317 C   0  0  0  0  0  0  0  0  0  0  0  0
    1.4844   -1.3199    1.4593 C   0  0  0  0  0  3  0  0  0  0  0  0
   -0.8447   -2.9071   -2.0973 H   0  0  0  0  0  0  0  0  0  0  0  0
   -0.8302   -1.0589   -2.0967 H   0  0  0  0  0  0  0  0  0  0  0  0
   -0.8339   -2.9331    0.3230 H   0  0  0  0  0  0  0  0  0  0  0  0
   -0.9566    0.3135   -0.1001 H   0  0  0  0  0  0  0  0  0  0  0  0
   -1.7245   -0.7720    1.2933 H   0  0  0  0  0  0  0  0  0  0  0  0
    0.3005    0.1809    2.2794 H   0  0  0  0  0  0  0  0  0  0  0  0
    1.6098   -2.1067    0.7244 H   0  0  0  0  0  0  0  0  0  0  0  0
    2.3126   -1.1356    2.1316 H   0  0  0  0  0  0  0  0  0  0  0  0
  1  2  1  0
  1  5  1  0
  1  6  1  0
  1  7  1  0
  2  3  1  0
  2  8  1  0
  2 18  1  0
  3  4  1  0
  3  9  1  0
  4 13  1  0
 10 11  1  0
 10 15  1  0
 10 16  1  0
 11 12  2  3
 11 17  1  0
 12 13  1  0
 12 19  1  0
 13 14  1  0
 13 20  1  0
 14 21  1  0
 14 22  1  0
M  CHG  2  10   1  14  -1
M  RAD  1   3   2
M  END
>  <reaction>  (7) 
rxn_1151

>  <mol_properties>  (7) 
{"1": {"label": "*3", "atom_type": "Cd"}, "2": {"label": "*4", "atom_type": "Cd"}, "10": {"label": "*0", "atom_type": "Cd"}, "11": {"label": "*1", "atom_type": "Cs"}, "17": {"label": "*2", "atom_type": "H0"}}

>  <type>  (7) 
unop_3

>  <geom_source>  (7) 
Heuristics

$$$$

     RDKit          3D

 22 20  0  0  0  0  0  0  0  0999 V2000
    1.2822    1.3110   -1.2542 C   0  0  0  0  0  0  0  0  0  0  0  0
    0.1240    1.2059   -0.2584 C   0  0  0  0  0  0  0  0  0  0  0  0
   -1.0912    1.9140   -0.7564 C   0  0  0  0  0  0  0  0  0  0  0  0
   -2.5304    1.2599   -1.0426 S   0  0  0  0  0  0  0  0  0  0  0  0
    1.0276    0.8212   -2.1949 H   0  0  0  0  0  0  0  0  0  0  0  0
    1.5276    2.3527   -1.4694 H   0  0  0  0  0  0  0  0  0  0  0  0
    2.1737    0.8314   -0.8501 H   0  0  0  0  0  0  0  0  0  0  0  0
    0.4215    1.6801    0.6842 H   0  0  0  0  0  0  0  0  0  0  0  0
   -0.9432    2.9796   -0.9490 H   0  0  0  0  0  0  0  0  0  0  0  0
    0.3636   -2.1587   -0.9421 C   0  0  0  0  0  0  0  0  0  0  0  0
    0.3636   -2.1587    0.3811 C   0  0  0  0  0  0  0  0  0  0  0  0
    0.3636   -0.9329    1.2391 C   0  0  0  0  0  3  0  0  0  0  0  0
    1.5733   -0.7786    2.1203 C   0  0  0  0  0  0  0  0  0  0  0  0
    2.6844   -1.4943    2.0479 C   0  0  0  0  0  0  0  0  0  0  0  0
    0.3554   -3.0815   -1.5087 H   0  0  0  0  0  0  0  0  0  0  0  0
    0.3699   -1.2333   -1.5081 H   0  0  0  0  0  0  0  0  0  0  0  0
    0.3661   -3.1075    0.9117 H   0  0  0  0  0  0  0  0  0  0  0  0
    0.2435    0.1391    0.4886 H   0  0  0  0  0  0  0  0  0  0  0  0
   -0.5244   -0.9464    1.8819 H   0  0  0  0  0  0  0  0  0  0  0  0
    1.5006    0.0065    2.8681 H   0  0  0  0  0  0  0  0  0  0  0  0
    2.8099   -2.2811    1.3130 H   0  0  0  0  0  0  0  0  0  0  0  0
    3.5126   -1.3100    2.7202 H   0  0  0  0  0  0  0  0  0  0  0  0
  1  2  1  0
  1  5  1  0
  1  6  1  0
  1  7  1  0
  2  3  1  0
  2  8  1  0
  2 18  1  0
  3  4  2  0
  3  9  1  0
 10 11  2  3
 10 15  1  0
 10 16  1  0
 11 12  1  0
 11 17  1  0
 12 13  1  0
 12 19  1  0
 13 14  2  3
 13 20  1  0
 14 21  1  0
 14 22  1  0
M  RAD  1  12   2
M  END
>  <reaction>  (8) 
rxn_1151

>  <mol_properties>  (8) 
{"1": {"label": "*3", "atom_type": "Cd"}, "2": {"label": "*4", "atom_type": "Cd"}, "10": {"label": "*0", "atom_type": "Cd"}, "11": {"label": "*1", "atom_type": "Cs"}, "17": {"label": "*2", "atom_type": "H0"}}

>  <type>  (8) 
unop_4

>  <geom_source>  (8) 
Heuristics

$$$$

     RDKit          3D

 22 20  0  0  0  0  0  0  0  0999 V2000
   -1.0741    2.6577    0.5344 C   0  0  0  0  0  0  0  0  0  0  0  0
   -1.0713    1.3872   -0.3200 C   0  0  0  0  0  0  0  0  0  0  0  0
    0.0197    1.4150   -1.3373 C   0  0  0  0  0  0  0  0  0  0  0  0
    1.2295    0.3666   -1.4724 S   0  0  0  0  0  0  0  0  0  0  0  0
   -0.1485    2.7404    1.1056 H   0  0  0  0  0  0  0  0  0  0  0  0
   -1.1724    3.5520   -0.0840 H   0  0  0  0  0  0  0  0  0  0  0  0
   -1.9079    2.6401    1.2364 H   0  0  0  0  0  0  0  0  0  0  0  0
   -2.0244    1.3181   -0.8572 H   0  0  0  0  0  0  0  0  0  0  0  0
   -0.0354    2.2564   -2.0326 H   0  0  0  0  0  0  0  0  0  0  0  0
   -0.8317   -1.9774   -1.0037 C   0  0  0  0  0  0  0  0  0  0  0  0
   -0.8317   -1.9774    0.3195 C   0  0  0  0  0  0  0  0  0  0  0  0
   -0.8317   -0.7516    1.1775 C   0  0  0  0  0  3  0  0  0  0  0  0
    0.3780   -0.5972    2.0587 C   0  0  0  0  0  0  0  0  0  0  0  0
    1.4891   -1.3129    1.9863 C   0  0  0  0  0  0  0  0  0  0  0  0
   -0.8399   -2.9002   -1.5703 H   0  0  0  0  0  0  0  0  0  0  0  0
   -0.8254   -1.0520   -1.5697 H   0  0  0  0  0  0  0  0  0  0  0  0
   -0.8292   -2.9262    0.8500 H   0  0  0  0  0  0  0  0  0  0  0  0
   -0.9518    0.3204    0.4270 H   0  0  0  0  0  0  0  0  0  0  0  0
   -1.7197   -0.7651    1.8203 H   0  0  0  0  0  0  0  0  0  0  0  0
    0.3053    0.1878    2.8064 H   0  0  0  0  0  0  0  0  0  0  0  0
    1.6146   -2.0998    1.2514 H   0  0  0  0  0  0  0  0  0  0  0  0
    2.3174   -1.1286    2.6586 H   0  0  0  0  0  0  0  0  0  0  0  0
  1  2  1  0
  1  5  1  0
  1  6  1  0
  1  7  1  0
  2  3  1  0
  2  8  1  0
  2 18  1  0
  3  4  2  0
  3  9  1  0
 10 11  2  3
 10 15  1  0
 10 16  1  0
 11 12  1  0
 11 17  1  0
 12 13  1  0
 12 19  1  0
 13 14  2  3
 13 20  1  0
 14 21  1  0
 14 22  1  0
M  RAD  1  12   2
M  END
>  <reaction>  (9) 
rxn_1151

>  <mol_properties>  (9) 
{"1": {"label": "*3", "atom_type": "Cd"}, "2": {"label": "*4", "atom_type": "Cd"}, "10": {"label": "*0", "atom_type": "Cd"}, "11": {"label": "*1", "atom_type": "Cs"}, "17": {"label": "*2", "atom_type": "H0"}}

>  <type>  (9) 
unop_5

>  <geom_source>  (9) 
Heuristics

$$$$

     RDKit          3D

 22 20  0  0  0  0  0  0  0  0999 V2000
    1.3407    1.7835   -0.4928 C   0  0  0  0  0  0  0  0  0  0  0  0
   -0.0318    1.2563   -0.0656 C   0  0  0  0  0  0  0  0  0  0  0  0
   -1.1196    1.8002   -0.9298 C   0  0  0  0  0  0  0  0  0  0  0  0
   -2.1337    0.9503   -1.8410 S   0  0  0  0  0  0  0  0  0  0  0  0
    1.5828    1.4538   -1.5039 H   0  0  0  0  0  0  0  0  0  0  0  0
    1.3699    2.8747   -0.4754 H   0  0  0  0  0  0  0  0  0  0  0  0
    2.1143    1.4149    0.1808 H   0  0  0  0  0  0  0  0  0  0  0  0
   -0.2322    1.5790    0.9627 H   0  0  0  0  0  0  0  0  0  0  0  0
   -1.1919    2.8907   -0.9284 H   0  0  0  0  0  0  0  0  0  0  0  0
    0.2078   -2.1084   -0.7494 C   0  0  0  0  0  0  0  0  0  0  0  0
    0.2078   -2.1084    0.5739 C   0  0  0  0  0  0  0  0  0  0  0  0
    0.2078   -0.8825    1.4319 C   0  0  0  0  0  3  0  0  0  0  0  0
    1.4175   -0.7282    2.3131 C   0  0  0  0  0  0  0  0  0  0  0  0
    2.5286   -1.4439    2.2406 C   0  0  0  0  0  0  0  0  0  0  0  0
    0.1996   -3.0311   -1.3159 H   0  0  0  0  0  0  0  0  0  0  0  0
    0.2141   -1.1829   -1.3154 H   0  0  0  0  0  0  0  0  0  0  0  0
    0.2103   -3.0571    1.1044 H   0  0  0  0  0  0  0  0  0  0  0  0
    0.0877    0.1894    0.6813 H   0  0  0  0  0  0  0  0  0  0  0  0
   -0.6802   -0.8960    2.0747 H   0  0  0  0  0  0  0  0  0  0  0  0
    1.3448    0.0568    3.0608 H   0  0  0  0  0  0  0  0  0  0  0  0
    2.6541   -2.2307    1.5058 H   0  0  0  0  0  0  0  0  0  0  0  0
    3.3568   -1.2596    2.9130 H   0  0  0  0  0  0  0  0  0  0  0  0
  1  2  1  0
  1  5  1  0
  1  6  1  0
  1  7  1  0
  2  3  1  0
  2  8  1  0
  2 18  1  0
  3  4  2  0
  3  9  1  0
 10 11  2  3
 10 15  1  0
 10 16  1  0
 11 12  1  0
 11 17  1  0
 12 13  1  0
 12 19  1  0
 13 14  2  3
 13 20  1  0
 14 21  1  0
 14 22  1  0
M  RAD  1  12   2
M  END
>  <reaction>  (10) 
rxn_1151

>  <mol_properties>  (10) 
{"1": {"label": "*3", "atom_type": "Cd"}, "2": {"label": "*4", "atom_type": "Cd"}, "10": {"label": "*0", "atom_type": "Cd"}, "11": {"label": "*1", "atom_type": "Cs"}, "17": {"label": "*2", "atom_type": "H0"}}

>  <type>  (10) 
unop_6

>  <geom_source>  (10) 
Heuristics

$$$$

     RDKit          3D

 22 20  0  0  0  0  0  0  0  0999 V2000
    0.9254    2.2436    0.2356 C   0  0  0  0  0  0  0  0  0  0  0  0
   -0.2801    1.3156    0.0636 C   0  0  0  0  0  0  0  0  0  0  0  0
   -1.0435    1.6353   -1.1778 C   0  0  0  0  0  0  0  0  0  0  0  0
   -1.3110    0.6493   -2.4177 S   0  0  0  0  0  0  0  0  0  0  0  0
    1.6347    2.1100   -0.5822 H   0  0  0  0  0  0  0  0  0  0  0  0
    0.6205    3.2917    0.2527 H   0  0  0  0  0  0  0  0  0  0  0  0
    1.4395    2.0269    1.1721 H   0  0  0  0  0  0  0  0  0  0  0  0
   -0.9579    1.4520    0.9144 H   0  0  0  0  0  0  0  0  0  0  0  0
   -1.4300    2.6568   -1.2171 H   0  0  0  0  0  0  0  0  0  0  0  0
   -0.0406   -2.0491   -0.6201 C   0  0  0  0  0  0  0  0  0  0  0  0
   -0.0406   -2.0491    0.7032 C   0  0  0  0  0  0  0  0  0  0  0  0
   -0.0406   -0.8233    1.5612 C   0  0  0  0  0  3  0  0  0  0  0  0
    1.1692   -0.6689    2.4424 C   0  0  0  0  0  0  0  0  0  0  0  0
    2.2803   -1.3846    2.3699 C   0  0  0  0  0  0  0  0  0  0  0  0
   -0.0487   -2.9718   -1.1866 H   0  0  0  0  0  0  0  0  0  0  0  0
   -0.0342   -1.1236   -1.1861 H   0  0  0  0  0  0  0  0  0  0  0  0
   -0.0380   -2.9978    1.2337 H   0  0  0  0  0  0  0  0  0  0  0  0
   -0.1606    0.2487    0.8106 H   0  0  0  0  0  0  0  0  0  0  0  0
   -0.9285   -0.8368    2.2039 H   0  0  0  0  0  0  0  0  0  0  0  0
    1.0965    0.1161    3.1901 H   0  0  0  0  0  0  0  0  0  0  0  0
    2.4058   -2.1715    1.6351 H   0  0  0  0  0  0  0  0  0  0  0  0
    3.1085   -1.2003    3.0423 H   0  0  0  0  0  0  0  0  0  0  0  0
  1  2  1  0
  1  5  1  0
  1  6  1  0
  1  7  1  0
  2  3  1  0
  2  8  1  0
  2 18  1  0
  3  4  2  0
  3  9  1  0
 10 11  2  3
 10 15  1  0
 10 16  1  0
 11 12  1  0
 11 17  1  0
 12 13  1  0
 12 19  1  0
 13 14  2  3
 13 20  1  0
 14 21  1  0
 14 22  1  0
M  RAD  1  12   2
M  END
>  <reaction>  (11) 
rxn_1151

>  <mol_properties>  (11) 
{"1": {"label": "*3", "atom_type": "Cd"}, "2": {"label": "*4", "atom_type": "Cd"}, "10": {"label": "*0", "atom_type": "Cd"}, "11": {"label": "*1", "atom_type": "Cs"}, "17": {"label": "*2", "atom_type": "H0"}}

>  <type>  (11) 
unop_7

>  <geom_source>  (11) 
Heuristics

$$$$

     RDKit          3D

 22 20  0  0  0  0  0  0  0  0999 V2000
   -2.0743    1.6446   -1.4466 C   0  0  0  0  0  0  0  0  0  0  0  0
   -0.6015    1.2767   -1.2471 C   0  0  0  0  0  0  0  0  0  0  0  0
   -0.0735    1.8139    0.0408 C   0  0  0  0  0  0  0  0  0  0  0  0
    0.5329    0.9584    1.2579 S   0  0  0  0  0  0  0  0  0  0  0  0
   -2.6931    1.1934   -0.6700 H   0  0  0  0  0  0  0  0  0  0  0  0
   -2.2217    2.7257   -1.4127 H   0  0  0  0  0  0  0  0  0  0  0  0
   -2.4262    1.2867   -2.4142 H   0  0  0  0  0  0  0  0  0  0  0  0
   -0.0116    1.7193   -2.0581 H   0  0  0  0  0  0  0  0  0  0  0  0
   -0.1372    2.9009    0.1342 H   0  0  0  0  0  0  0  0  0  0  0  0
   -0.3620   -2.0880   -1.9308 C   0  0  0  0  0  0  0  0  0  0  0  0
   -0.3620   -2.0880   -0.6075 C   0  0  0  0  0  0  0  0  0  0  0  0
   -0.3620   -0.8622    0.2505 C   0  0  0  0  0  3  0  0  0  0  0  0
    0.8478   -0.7078    1.1317 C   0  0  0  0  0  0  0  0  0  0  0  0
    1.9589   -1.4235    1.0592 C   0  0  0  0  0  0  0  0  0  0  0  0
   -0.3701   -3.0107   -2.4973 H   0  0  0  0  0  0  0  0  0  0  0  0
   -0.3556   -1.1625   -2.4968 H   0  0  0  0  0  0  0  0  0  0  0  0
   -0.3594   -3.0367   -0.0770 H   0  0  0  0  0  0  0  0  0  0  0  0
   -0.4820    0.2098   -0.5001 H   0  0  0  0  0  0  0  0  0  0  0  0
   -1.2499   -0.8756    0.8932 H   0  0  0  0  0  0  0  0  0  0  0  0
    0.7751    0.0772    1.8794 H   0  0  0  0  0  0  0  0  0  0  0  0
    2.0844   -2.2103    0.3244 H   0  0  0  0  0  0  0  0  0  0  0  0
    2.7871   -1.2392    1.7316 H   0  0  0  0  0  0  0  0  0  0  0  0
  1  2  1  0
  1  5  1  0
  1  6  1  0
  1  7  1  0
  2  3  1  0
  2  8  1  0
  2 18  1  0
  3  4  2  0
  3  9  1  0
 10 11  2  3
 10 15  1  0
 10 16  1  0
 11 12  1  0
 11 17  1  0
 12 13  1  0
 12 19  1  0
 13 14  2  3
 13 20  1  0
 14 21  1  0
 14 22  1  0
M  RAD  1  12   2
M  END
>  <reaction>  (12) 
rxn_1151

>  <mol_properties>  (12) 
{"1": {"label": "*3", "atom_type": "Cd"}, "2": {"label": "*4", "atom_type": "Cd"}, "10": {"label": "*0", "atom_type": "Cd"}, "11": {"label": "*1", "atom_type": "Cs"}, "17": {"label": "*2", "atom_type": "H0"}}

>  <type>  (12) 
unop_8

>  <geom_source>  (12) 
Heuristics

$$$$

     RDKit          3D

 22 20  0  0  0  0  0  0  0  0999 V2000
    0.8222    0.9528   -1.8947 C   0  0  0  0  0  0  0  0  0  0  0  0
    0.2020    1.1780   -0.5131 C   0  0  0  0  0  0  0  0  0  0  0  0
   -1.0632    1.9636   -0.6033 C   0  0  0  0  0  0  0  0  0  0  0  0
   -2.5224    1.4860   -0.1304 S   0  0  0  0  0  0  0  0  0  0  0  0
    0.1576    0.3590   -2.5236 H   0  0  0  0  0  0  0  0  0  0  0  0
    1.0143    1.8996   -2.4029 H   0  0  0  0  0  0  0  0  0  0  0  0
    1.7696    0.4216   -1.8024 H   0  0  0  0  0  0  0  0  0  0  0  0
    0.9051    1.7507    0.1030 H   0  0  0  0  0  0  0  0  0  0  0  0
   -0.9475    2.9515   -1.0564 H   0  0  0  0  0  0  0  0  0  0  0  0
    0.4416   -2.1866   -1.1968 C   0  0  0  0  0  0  0  0  0  0  0  0
    0.4416   -2.1866    0.1264 C   0  0  0  0  0  0  0  0  0  0  0  0
    0.4416   -0.9608    0.9844 C   0  0  0  0  0  3  0  0  0  0  0  0
    1.6513   -0.8064    1.8656 C   0  0  0  0  0  0  0  0  0  0  0  0
    2.7624   -1.5221    1.7932 C   0  0  0  0  0  0  0  0  0  0  0  0
    0.4334   -3.1094   -1.7634 H   0  0  0  0  0  0  0  0  0  0  0  0
    0.4479   -1.2612   -1.7628 H   0  0  0  0  0  0  0  0  0  0  0  0
    0.4441   -3.1354    0.6569 H   0  0  0  0  0  0  0  0  0  0  0  0
    0.3215    0.1112    0.2339 H   0  0  0  0  0  0  0  0  0  0  0  0
   -0.4464   -0.9743    1.6272 H   0  0  0  0  0  0  0  0  0  0  0  0
    1.5786   -0.0214    2.6133 H   0  0  0  0  0  0  0  0  0  0  0  0
    2.8879   -2.3090    1.0583 H   0  0  0  0  0  0  0  0  0  0  0  0
    3.5907   -1.3378    2.4655 H   0  0  0  0  0  0  0  0  0  0  0  0
  1  2  1  0
  1  5  1  0
  1  6  1  0
  1  7  1  0
  2  3  1  0
  2  8  1  0
  2 18  1  0
  3  4  2  0
  3  9  1  0
 10 11  2  3
 10 15  1  0
 10 16  1  0
 11 12  1  0
 11 17  1  0
 12 13  1  0
 12 19  1  0
 13 14  2  3
 13 20  1  0
 14 21  1  0
 14 22  1  0
M  RAD  1  12   2
M  END
>  <reaction>  (13) 
rxn_1151

>  <mol_properties>  (13) 
{"1": {"label": "*3", "atom_type": "Cd"}, "2": {"label": "*4", "atom_type": "Cd"}, "10": {"label": "*0", "atom_type": "Cd"}, "11": {"label": "*1", "atom_type": "Cs"}, "17": {"label": "*2", "atom_type": "H0"}}

>  <type>  (13) 
unop_9

>  <geom_source>  (13) 
Heuristics

$$$$

     RDKit          3D

 22 20  0  0  0  0  0  0  0  0999 V2000
   -1.6161    1.1921   -2.0410 C   0  0  0  0  0  0  0  0  0  0  0  0
   -0.3103    1.2250   -1.2423 C   0  0  0  0  0  0  0  0  0  0  0  0
   -0.4896    1.9104    0.0707 C   0  0  0  0  0  0  0  0  0  0  0  0
   -0.2520    1.2703    1.5250 S   0  0  0  0  0  0  0  0  0  0  0  0
   -2.3758    0.6132   -1.5143 H   0  0  0  0  0  0  0  0  0  0  0  0
   -2.0078    2.1981   -2.2033 H   0  0  0  0  0  0  0  0  0  0  0  0
   -1.4522    0.7330   -3.0160 H   0  0  0  0  0  0  0  0  0  0  0  0
    0.4398    1.7874   -1.8105 H   0  0  0  0  0  0  0  0  0  0  0  0
   -0.8329    2.9452   -0.0056 H   0  0  0  0  0  0  0  0  0  0  0  0
   -0.0707   -2.1396   -1.9260 C   0  0  0  0  0  0  0  0  0  0  0  0
   -0.0707   -2.1396   -0.6028 C   0  0  0  0  0  0  0  0  0  0  0  0
   -0.0707   -0.9138    0.2552 C   0  0  0  0  0  3  0  0  0  0  0  0
    1.1390   -0.7595    1.1364 C   0  0  0  0  0  0  0  0  0  0  0  0
    2.2502   -1.4752    1.0640 C   0  0  0  0  0  0  0  0  0  0  0  0
   -0.0789   -3.0624   -2.4926 H   0  0  0  0  0  0  0  0  0  0  0  0
   -0.0643   -1.2142   -2.4920 H   0  0  0  0  0  0  0  0  0  0  0  0
   -0.0681   -3.0884   -0.0723 H   0  0  0  0  0  0  0  0  0  0  0  0
   -0.1908    0.1581   -0.4953 H   0  0  0  0  0  0  0  0  0  0  0  0
   -0.9586   -0.9273    0.8980 H   0  0  0  0  0  0  0  0  0  0  0  0
    1.0663    0.0255    1.8841 H   0  0  0  0  0  0  0  0  0  0  0  0
    2.3757   -2.2620    0.3291 H   0  0  0  0  0  0  0  0  0  0  0  0
    3.0784   -1.2909    1.7363 H   0  0  0  0  0  0  0  0  0  0  0  0
  1  2  1  0
  1  5  1  0
  1  6  1  0
  1  7  1  0
  2  3  1  0
  2  8  1  0
  2 18  1  0
  3  4  2  0
  3  9  1  0
 10 11  2  3
 10 15  1  0
 10 16  1  0
 11 12  1  0
 11 17  1  0
 12 13  1  0
 12 19  1  0
 13 14  2  3
 13 20  1  0
 14 21  1  0
 14 22  1  0
M  RAD  1  12   2
M  END
>  <reaction>  (14) 
rxn_1151

>  <mol_properties>  (14) 
{"1": {"label": "*3", "atom_type": "Cd"}, "2": {"label": "*4", "atom_type": "Cd"}, "10": {"label": "*0", "atom_type": "Cd"}, "11": {"label": "*1", "atom_type": "Cs"}, "17": {"label": "*2", "atom_type": "H0"}}

>  <type>  (14) 
unop_10

>  <geom_source>  (14) 
Heuristics

$$$$

     RDKit          3D

 22 20  0  0  0  0  0  0  0  0999 V2000
    0.0380    2.5637    0.6931 C   0  0  0  0  0  0  0  0  0  0  0  0
   -0.6641    1.3637    0.0520 C   0  0  0  0  0  0  0  0  0  0  0  0
   -0.6881    1.4749   -1.4356 C   0  0  0  0  0  0  0  0  0  0  0  0
   -0.0376    0.4450   -2.4831 S   0  0  0  0  0  0  0  0  0  0  0  0
    1.0849    2.6054    0.3896 H   0  0  0  0  0  0  0  0  0  0  0  0
   -0.4370    3.5030    0.4035 H   0  0  0  0  0  0  0  0  0  0  0  0
    0.0005    2.4882    1.7799 H   0  0  0  0  0  0  0  0  0  0  0  0
   -1.7035    1.3328    0.3993 H   0  0  0  0  0  0  0  0  0  0  0  0
   -1.1941    2.3677   -1.8115 H   0  0  0  0  0  0  0  0  0  0  0  0
   -0.4246   -2.0010   -0.6317 C   0  0  0  0  0  0  0  0  0  0  0  0
   -0.4246   -2.0010    0.6915 C   0  0  0  0  0  0  0  0  0  0  0  0
   -0.4246   -0.7752    1.5495 C   0  0  0  0  0  3  0  0  0  0  0  0
    0.7852   -0.6208    2.4307 C   0  0  0  0  0  0  0  0  0  0  0  0
    1.8963   -1.3365    2.3583 C   0  0  0  0  0  0  0  0  0  0  0  0
   -0.4327   -2.9237   -1.1982 H   0  0  0  0  0  0  0  0  0  0  0  0
   -0.4182   -1.0755   -1.1977 H   0  0  0  0  0  0  0  0  0  0  0  0
   -0.4220   -2.9497    1.2221 H   0  0  0  0  0  0  0  0  0  0  0  0
   -0.5446    0.2968    0.7990 H   0  0  0  0  0  0  0  0  0  0  0  0
   -1.3125   -0.7887    2.1923 H   0  0  0  0  0  0  0  0  0  0  0  0
    0.7125    0.1642    3.1785 H   0  0  0  0  0  0  0  0  0  0  0  0
    2.0218   -2.1234    1.6234 H   0  0  0  0  0  0  0  0  0  0  0  0
    2.7245   -1.1522    3.0307 H   0  0  0  0  0  0  0  0  0  0  0  0
  1  2  1  0
  1  5  1  0
  1  6  1  0
  1  7  1  0
  2  3  1  0
  2  8  1  0
  2 18  1  0
  3  4  2  0
  3  9  1  0
 10 11  2  3
 10 15  1  0
 10 16  1  0
 11 12  1  0
 11 17  1  0
 12 13  1  0
 12 19  1  0
 13 14  2  3
 13 20  1  0
 14 21  1  0
 14 22  1  0
M  RAD  1  12   2
M  END
>  <reaction>  (15) 
rxn_1151

>  <mol_properties>  (15) 
{"1": {"label": "*3", "atom_type": "Cd"}, "2": {"label": "*4", "atom_type": "Cd"}, "10": {"label": "*0", "atom_type": "Cd"}, "11": {"label": "*1", "atom_type": "Cs"}, "17": {"label": "*2", "atom_type": "H0"}}

>  <type>  (15) 
unop_11

>  <geom_source>  (15) 
Heuristics

$$$$

     RDKit          3D

 22 20  0  0  0  0  0  0  0  0999 V2000
    0.0658    0.7994   -2.3021 C   0  0  0  0  0  0  0  0  0  0  0  0
    0.1633    1.1748   -0.8210 C   0  0  0  0  0  0  0  0  0  0  0  0
   -1.0198    1.9693   -0.3794 C   0  0  0  0  0  0  0  0  0  0  0  0
   -2.0672    1.5678    0.7708 S   0  0  0  0  0  0  0  0  0  0  0  0
   -0.7970    0.1566   -2.4811 H   0  0  0  0  0  0  0  0  0  0  0  0
   -0.0353    1.6862   -2.9307 H   0  0  0  0  0  0  0  0  0  0  0  0
    0.9616    0.2638   -2.6168 H   0  0  0  0  0  0  0  0  0  0  0  0
    1.0547    1.7946   -0.6693 H   0  0  0  0  0  0  0  0  0  0  0  0
   -1.1636    2.9037   -0.9275 H   0  0  0  0  0  0  0  0  0  0  0  0
    0.4029   -2.1899   -1.5047 C   0  0  0  0  0  0  0  0  0  0  0  0
    0.4029   -2.1899   -0.1815 C   0  0  0  0  0  0  0  0  0  0  0  0
    0.4029   -0.9641    0.6765 C   0  0  0  0  0  3  0  0  0  0  0  0
    1.6126   -0.8097    1.5577 C   0  0  0  0  0  0  0  0  0  0  0  0
    2.7238   -1.5254    1.4853 C   0  0  0  0  0  0  0  0  0  0  0  0
    0.3947   -3.1126   -2.0713 H   0  0  0  0  0  0  0  0  0  0  0  0
    0.4092   -1.2644   -2.0707 H   0  0  0  0  0  0  0  0  0  0  0  0
    0.4055   -3.1386    0.3491 H   0  0  0  0  0  0  0  0  0  0  0  0
    0.2828    0.1079   -0.0740 H   0  0  0  0  0  0  0  0  0  0  0  0
   -0.4851   -0.9776    1.3193 H   0  0  0  0  0  0  0  0  0  0  0  0
    1.5399   -0.0247    2.3055 H   0  0  0  0  0  0  0  0  0  0  0  0
    2.8492   -2.3123    0.7504 H   0  0  0  0  0  0  0  0  0  0  0  0
    3.5520   -1.3411    2.1576 H   0  0  0  0  0  0  0  0  0  0  0  0
  1  2  1  0
  1  5  1  0
  1  6  1  0
  1  7  1  0
  2  3  1  0
  2  8  1  0
  2 18  1  0
  3  4  2  0
  3  9  1  0
 10 11  2  3
 10 15  1  0
 10 16  1  0
 11 12  1  0
 11 17  1  0
 12 13  1  0
 12 19  1  0
 13 14  2  3
 13 20  1  0
 14 21  1  0
 14 22  1  0
M  RAD  1  12   2
M  END
>  <reaction>  (16) 
rxn_1151

>  <mol_properties>  (16) 
{"1": {"label": "*3", "atom_type": "Cd"}, "2": {"label": "*4", "atom_type": "Cd"}, "10": {"label": "*0", "atom_type": "Cd"}, "11": {"label": "*1", "atom_type": "Cs"}, "17": {"label": "*2", "atom_type": "H0"}}

>  <type>  (16) 
unop_12

>  <geom_source>  (16) 
Heuristics

$$$$

     RDKit          3D

 22 20  0  0  0  0  0  0  0  0999 V2000
   -3.8807    1.5332    0.1153 S   0  0  0  0  0  0  0  0  0  0  0  0
   -1.7555    0.1527   -0.2778 C   0  0  0  0  0  0  0  0  0  0  0  0
   -2.3321   -1.1901   -0.7178 C   0  0  0  0  0  0  0  0  0  0  0  0
    0.7882   -0.2526    0.3477 C   0  0  0  0  0  3  0  0  0  0  0  0
    0.9822    1.0147   -0.4304 C   0  0  0  0  0  0  0  0  0  0  0  0
    1.8391   -1.2719    0.0226 C   0  0  0  0  0  0  0  0  0  0  0  0
   -2.7005    0.8921    0.6285 C   0  0  0  0  0  0  0  0  0  0  0  0
    1.8352    1.9613   -0.0301 C   0  0  0  0  0  0  0  0  0  0  0  0
    3.0400   -1.2537    0.6068 C   0  0  0  0  0  0  0  0  0  0  0  0
   -1.5090    0.7699   -1.1698 H   0  0  0  0  0  0  0  0  0  0  0  0
   -0.6308   -0.0738    0.3812 H   0  0  0  0  0  0  0  0  0  0  0  0
   -1.5838   -1.7268   -1.3376 H   0  0  0  0  0  0  0  0  0  0  0  0
   -2.5714   -1.8136    0.1698 H   0  0  0  0  0  0  0  0  0  0  0  0
   -3.2517   -1.0403   -1.3225 H   0  0  0  0  0  0  0  0  0  0  0  0
    0.4131    1.1593   -1.3431 H   0  0  0  0  0  0  0  0  0  0  0  0
    0.6909   -0.0725    1.4407 H   0  0  0  0  0  0  0  0  0  0  0  0
    1.6121   -2.0406   -0.7092 H   0  0  0  0  0  0  0  0  0  0  0  0
   -2.4261    1.0446    1.6668 H   0  0  0  0  0  0  0  0  0  0  0  0
    2.4135    1.8444    0.8812 H   0  0  0  0  0  0  0  0  0  0  0  0
    1.9553    2.8665   -0.6163 H   0  0  0  0  0  0  0  0  0  0  0  0
    3.2916   -0.4990    1.3454 H   0  0  0  0  0  0  0  0  0  0  0  0
    3.7804   -2.0038    0.3486 H   0  0  0  0  0  0  0  0  0  0  0  0
  1  7  2  0
  2  3  1  0
  2  7  1  0
  2 10  1  0
  2 11  1  0
  3 12  1  0
  3 13  1  0
  3 14  1  0
  4  5  1  0
  4  6  1  0
  4 16  1  0
  5  8  2  3
  5 15  1  0
  6  9  2  3
  6 17  1  0
  7 18  1  0
  8 19  1  0
  8 20  1  0
  9 21  1  0
  9 22  1  0
M  RAD  1   4   2
M  END
>  <reaction>  (17) 
rxn_1151

>  <mol_properties>  (17) 
{"1": {"label": "*3", "atom_type": "Cd"}, "2": {"label": "*4", "atom_type": "Cd"}, "10": {"label": "*0", "atom_type": "Cd"}, "11": {"label": "*1", "atom_type": "Cs"}, "17": {"label": "*2", "atom_type": "H0"}}

>  <type>  (17) 
unop_13

>  <geom_source>  (17) 
AutoTST

$$$$
