
     RDKit          3D

  6  5  0  0  0  0  0  0  0  0999 V2000
   -0.5072   -0.0291   -0.0097 C   0  0  0  0  0  0  0  0  0  0  0  0
    1.1321   -0.1527   -0.7687 S   0  0  0  0  0  0  0  0  0  0  0  0
   -0.6174   -0.7330    0.8127 H   0  0  0  0  0  0  0  0  0  0  0  0
   -0.5863    0.9827    0.3845 H   0  0  0  0  0  0  0  0  0  0  0  0
   -1.2962   -0.1800   -0.7434 H   0  0  0  0  0  0  0  0  0  0  0  0
    1.0312   -1.4237   -1.1764 H   0  0  0  0  0  0  0  0  0  0  0  0
  1  2  1  0
  1  3  1  0
  1  4  1  0
  1  5  1  0
  2  6  1  0
M  END
>  <reaction>  (1) 
rxn_1799

>  <mol_properties>  (1) 
{"0": {"label": "donator", "atom_type": "Cs"}, "2": {"label": "d_hydrogen", "atom_type": "H0"}}

>  <type>  (1) 
r1h

$$$$

     RDKit          3D

  4  3  0  0  0  0  0  0  0  0999 V2000
    0.0000    0.0000    0.0000 C   0  0  0  0  0  3  0  0  0  0  0  0
    1.0638   -0.1747    0.0540 H   0  0  0  0  0  0  0  0  0  0  0  0
   -0.6833   -0.8351   -0.0280 H   0  0  0  0  0  0  0  0  0  0  0  0
   -0.3805    1.0098   -0.0260 H   0  0  0  0  0  0  0  0  0  0  0  0
  1  2  1  0
  1  3  1  0
  1  4  1  0
M  RAD  1   1   2
M  END
>  <reaction>  (2) 
rxn_1799

>  <mol_properties>  (2) 
{"0": {"label": "acceptor", "atom_type": "Cs"}}

>  <type>  (2) 
r2

$$$$

     RDKit          3D

  5  4  0  0  0  0  0  0  0  0999 V2000
    0.0000    0.0000    0.0000 C   0  0  0  0  0  0  0  0  0  0  0  0
   -0.6486   -0.7720   -0.4113 H   0  0  0  0  0  0  0  0  0  0  0  0
   -0.3482    0.9787   -0.3267 H   0  0  0  0  0  0  0  0  0  0  0  0
   -0.0223   -0.0487    1.0876 H   0  0  0  0  0  0  0  0  0  0  0  0
    1.0191   -0.1580   -0.3496 H   0  0  0  0  0  0  0  0  0  0  0  0
  1  2  1  0
  1  3  1  0
  1  4  1  0
  1  5  1  0
M  END
>  <reaction>  (3) 
rxn_1799

>  <mol_properties>  (3) 
{"0": {"label": "a_hydrogen", "atom_type": "H0"}, "1": {"label": "acceptor", "atom_type": "Cs"}}

>  <type>  (3) 
r2h

$$$$

     RDKit          3D

 10  8  0  0  0  0  0  0  0  0999 V2000
   -0.0906   -0.5981    0.6320 C   0  0  0  0  0  0  0  0  0  0  0  0
    0.0809   -0.4447   -1.1292 S   0  0  0  0  0  0  0  0  0  0  0  0
   -0.0205    0.5613    1.2007 H   0  0  0  0  0  0  0  0  0  0  0  0
   -1.0897   -0.9622    0.8604 H   0  0  0  0  0  0  0  0  0  0  0  0
    0.6756   -1.2098    1.1026 H   0  0  0  0  0  0  0  0  0  0  0  0
    1.3679   -0.0748   -1.1436 H   0  0  0  0  0  0  0  0  0  0  0  0
    0.0488    1.8214    1.7997 C   0  0  0  0  0  3  0  0  0  0  0  0
   -0.4097    1.7027    2.7767 H   0  0  0  0  0  0  0  0  0  0  0  0
   -0.5152    2.4468    1.1145 H   0  0  0  0  0  0  0  0  0  0  0  0
    1.1103    2.0476    1.8338 H   0  0  0  0  0  0  0  0  0  0  0  0
  1  2  1  0
  1  3  1  0
  1  4  1  0
  1  5  1  0
  2  6  1  0
  7  8  1  0
  7  9  1  0
  7 10  1  0
M  RAD  1   7   2
M  END
>  <reaction>  (4) 
rxn_1799

>  <mol_properties>  (4) 
{"0": {"label": "*1", "atom_type": "Cs"}, "1": {"label": "*0", "atom_type": "S2s"}, "2": {"label": "*2", "atom_type": "H0"}, "6": {"label": "*3", "atom_type": "Cs"}, "7": {"label": "*4", "atom_type": "H0"}}

>  <type>  (4) 
ts

$$$$

     RDKit          3D

 10  8  0  0  0  0  0  0  0  0999 V2000
   -0.0197   -0.6024    0.6881 C   0  0  0  0  0  0  0  0  0  0  0  0
   -0.0197   -0.6024   -1.1226 S   0  0  0  0  0  0  0  0  0  0  0  0
   -0.0197    0.6135    1.1638 H   0  0  0  0  0  0  0  0  0  0  0  0
   -0.9404   -1.0965    0.9940 H   0  0  0  0  0  0  0  0  0  0  0  0
    0.8246   -1.1624    1.0845 H   0  0  0  0  0  0  0  0  0  0  0  0
    1.1506    0.0258   -1.2890 H   0  0  0  0  0  0  0  0  0  0  0  0
   -0.0197    1.8303    1.6400 C   0  0  0  0  0  3  0  0  0  0  0  0
   -0.9088    1.9813    2.2503 H   0  0  0  0  0  0  0  0  0  0  0  0
    0.3705    2.7959    1.3220 H   0  0  0  0  0  0  0  0  0  0  0  0
    0.6194    1.3311    2.3667 H   0  0  0  0  0  0  0  0  0  0  0  0
  1  2  1  0
  1  3  1  0
  1  4  1  0
  1  5  1  0
  2  6  1  0
  7  8  1  0
  7  9  1  0
  7 10  1  0
M  RAD  1   7   2
M  END
>  <reaction>  (5) 
rxn_1799

>  <mol_properties>  (5) 
{"0": {"label": "*1", "atom_type": "Cs"}, "1": {"label": "*0", "atom_type": "S2s"}, "2": {"label": "*2", "atom_type": "H0"}, "6": {"label": "*3", "atom_type": "Cs"}, "7": {"label": "*4", "atom_type": "H0"}}

>  <type>  (5) 
unop_1

>  <geom_source>  (5) 
Heuristics

$$$$

     RDKit          3D

 10  8  0  0  0  0  0  0  0  0999 V2000
   -0.0191   -0.6005    0.6962 C   0  0  0  0  0  0  0  0  0  0  0  0
   -0.0191   -0.6005   -1.1144 S   0  0  0  0  0  0  0  0  0  0  0  0
   -0.0191    0.6153    1.1720 H   0  0  0  0  0  0  0  0  0  0  0  0
   -0.9398   -1.0947    1.0022 H   0  0  0  0  0  0  0  0  0  0  0  0
    0.8253   -1.1605    1.0927 H   0  0  0  0  0  0  0  0  0  0  0  0
    1.1512    0.0276   -1.2808 H   0  0  0  0  0  0  0  0  0  0  0  0
   -0.0191    1.8322    1.6482 C   0  0  0  0  0  3  0  0  0  0  0  0
   -0.5324    2.4942    0.9525 H   0  0  0  0  0  0  0  0  0  0  0  0
    0.8722    2.3277    2.0302 H   0  0  0  0  0  0  0  0  0  0  0  0
   -0.2982    1.1752    2.4705 H   0  0  0  0  0  0  0  0  0  0  0  0
  1  2  1  0
  1  3  1  0
  1  4  1  0
  1  5  1  0
  2  6  1  0
  7  8  1  0
  7  9  1  0
  7 10  1  0
M  RAD  1   7   2
M  END
>  <reaction>  (6) 
rxn_1799

>  <mol_properties>  (6) 
{"0": {"label": "*1", "atom_type": "Cs"}, "1": {"label": "*0", "atom_type": "S2s"}, "2": {"label": "*2", "atom_type": "H0"}, "6": {"label": "*3", "atom_type": "Cs"}, "7": {"label": "*4", "atom_type": "H0"}}

>  <type>  (6) 
unop_2

>  <geom_source>  (6) 
Heuristics

$$$$

     RDKit          3D

 10  8  0  0  0  0  0  0  0  0999 V2000
   -0.0220   -0.6057    0.6890 C   0  0  0  0  0  0  0  0  0  0  0  0
   -0.0220   -0.6057   -1.1216 S   0  0  0  0  0  0  0  0  0  0  0  0
   -0.0220    0.6101    1.1648 H   0  0  0  0  0  0  0  0  0  0  0  0
   -0.9427   -1.0999    0.9950 H   0  0  0  0  0  0  0  0  0  0  0  0
    0.8223   -1.1657    1.0855 H   0  0  0  0  0  0  0  0  0  0  0  0
    1.1483    0.0224   -1.2880 H   0  0  0  0  0  0  0  0  0  0  0  0
   -0.0220    1.8270    1.6410 C   0  0  0  0  0  3  0  0  0  0  0  0
   -0.5354    1.8410    2.6012 H   0  0  0  0  0  0  0  0  0  0  0  0
   -0.1781    2.7769    1.1321 H   0  0  0  0  0  0  0  0  0  0  0  0
    0.9315    1.6896    2.1485 H   0  0  0  0  0  0  0  0  0  0  0  0
  1  2  1  0
  1  3  1  0
  1  4  1  0
  1  5  1  0
  2  6  1  0
  7  8  1  0
  7  9  1  0
  7 10  1  0
M  RAD  1   7   2
M  END
>  <reaction>  (7) 
rxn_1799

>  <mol_properties>  (7) 
{"0": {"label": "*1", "atom_type": "Cs"}, "1": {"label": "*0", "atom_type": "S2s"}, "2": {"label": "*2", "atom_type": "H0"}, "6": {"label": "*3", "atom_type": "Cs"}, "7": {"label": "*4", "atom_type": "H0"}}

>  <type>  (7) 
unop_3

>  <geom_source>  (7) 
Heuristics

$$$$

     RDKit          3D

 10  8  0  0  0  0  0  0  0  0999 V2000
   -0.0196   -0.5995    0.6925 C   0  0  0  0  0  0  0  0  0  0  0  0
   -0.0196   -0.5995   -1.1182 S   0  0  0  0  0  0  0  0  0  0  0  0
   -0.0196    0.6164    1.1683 H   0  0  0  0  0  0  0  0  0  0  0  0
   -0.9402   -1.0936    0.9984 H   0  0  0  0  0  0  0  0  0  0  0  0
    0.8248   -1.1595    1.0890 H   0  0  0  0  0  0  0  0  0  0  0  0
    1.1507    0.0287   -1.2846 H   0  0  0  0  0  0  0  0  0  0  0  0
   -0.0196    1.8332    1.6445 C   0  0  0  0  0  3  0  0  0  0  0  0
    0.8695    2.3583    1.2987 H   0  0  0  0  0  0  0  0  0  0  0  0
    0.2063    1.3085    2.5715 H   0  0  0  0  0  0  0  0  0  0  0  0
   -1.0048    2.2683    1.8053 H   0  0  0  0  0  0  0  0  0  0  0  0
  1  2  1  0
  1  3  1  0
  1  4  1  0
  1  5  1  0
  2  6  1  0
  7  8  1  0
  7  9  1  0
  7 10  1  0
M  RAD  1   7   2
M  END
>  <reaction>  (8) 
rxn_1799

>  <mol_properties>  (8) 
{"0": {"label": "*1", "atom_type": "Cs"}, "1": {"label": "*0", "atom_type": "S2s"}, "2": {"label": "*2", "atom_type": "H0"}, "6": {"label": "*3", "atom_type": "Cs"}, "7": {"label": "*4", "atom_type": "H0"}}

>  <type>  (8) 
unop_4

>  <geom_source>  (8) 
Heuristics

$$$$

     RDKit          3D

 10  8  0  0  0  0  0  0  0  0999 V2000
   -0.0182   -0.6092    0.6911 C   0  0  0  0  0  0  0  0  0  0  0  0
   -0.0182   -0.6092   -1.1196 S   0  0  0  0  0  0  0  0  0  0  0  0
   -0.0182    0.6066    1.1669 H   0  0  0  0  0  0  0  0  0  0  0  0
   -0.9389   -1.1034    0.9970 H   0  0  0  0  0  0  0  0  0  0  0  0
    0.8262   -1.1692    1.0876 H   0  0  0  0  0  0  0  0  0  0  0  0
    1.1521    0.0189   -1.2860 H   0  0  0  0  0  0  0  0  0  0  0  0
   -0.0182    1.8235    1.6430 C   0  0  0  0  0  3  0  0  0  0  0  0
   -0.0182    1.7874    2.7314 H   0  0  0  0  0  0  0  0  0  0  0  0
   -0.9073    2.3486    1.2973 H   0  0  0  0  0  0  0  0  0  0  0  0
    0.9141    2.3792    1.7308 H   0  0  0  0  0  0  0  0  0  0  0  0
  1  2  1  0
  1  3  1  0
  1  4  1  0
  1  5  1  0
  2  6  1  0
  7  8  1  0
  7  9  1  0
  7 10  1  0
M  RAD  1   7   2
M  END
>  <reaction>  (9) 
rxn_1799

>  <mol_properties>  (9) 
{"0": {"label": "*1", "atom_type": "Cs"}, "1": {"label": "*0", "atom_type": "S2s"}, "2": {"label": "*2", "atom_type": "H0"}, "6": {"label": "*3", "atom_type": "Cs"}, "7": {"label": "*4", "atom_type": "H0"}}

>  <type>  (9) 
unop_5

>  <geom_source>  (9) 
Heuristics

$$$$

     RDKit          3D

 10  8  0  0  0  0  0  0  0  0999 V2000
   -0.0180   -0.6011    0.6899 C   0  0  0  0  0  0  0  0  0  0  0  0
   -0.0180   -0.6011   -1.1207 S   0  0  0  0  0  0  0  0  0  0  0  0
   -0.0180    0.6147    1.1657 H   0  0  0  0  0  0  0  0  0  0  0  0
   -0.9387   -1.0953    0.9959 H   0  0  0  0  0  0  0  0  0  0  0  0
    0.8264   -1.1611    1.0864 H   0  0  0  0  0  0  0  0  0  0  0  0
    1.1523    0.0270   -1.2871 H   0  0  0  0  0  0  0  0  0  0  0  0
   -0.0180    1.8316    1.6419 C   0  0  0  0  0  3  0  0  0  0  0  0
    1.0086    2.1696    1.7742 H   0  0  0  0  0  0  0  0  0  0  0  0
   -0.3063    1.2074    2.4863 H   0  0  0  0  0  0  0  0  0  0  0  0
   -0.7243    2.6569    1.5664 H   0  0  0  0  0  0  0  0  0  0  0  0
  1  2  1  0
  1  3  1  0
  1  4  1  0
  1  5  1  0
  2  6  1  0
  7  8  1  0
  7  9  1  0
  7 10  1  0
M  RAD  1   7   2
M  END
>  <reaction>  (10) 
rxn_1799

>  <mol_properties>  (10) 
{"0": {"label": "*1", "atom_type": "Cs"}, "1": {"label": "*0", "atom_type": "S2s"}, "2": {"label": "*2", "atom_type": "H0"}, "6": {"label": "*3", "atom_type": "Cs"}, "7": {"label": "*4", "atom_type": "H0"}}

>  <type>  (10) 
unop_6

>  <geom_source>  (10) 
Heuristics

$$$$

     RDKit          3D

 10  8  0  0  0  0  0  0  0  0999 V2000
   -0.0154   -0.6031    0.6885 C   0  0  0  0  0  0  0  0  0  0  0  0
   -0.0154   -0.6031   -1.1221 S   0  0  0  0  0  0  0  0  0  0  0  0
   -0.0154    0.6127    1.1643 H   0  0  0  0  0  0  0  0  0  0  0  0
   -0.9361   -1.0973    0.9945 H   0  0  0  0  0  0  0  0  0  0  0  0
    0.8289   -1.1631    1.0850 H   0  0  0  0  0  0  0  0  0  0  0  0
    1.1549    0.0250   -1.2885 H   0  0  0  0  0  0  0  0  0  0  0  0
   -0.0154    1.8295    1.6405 C   0  0  0  0  0  3  0  0  0  0  0  0
    0.8737    1.9805    2.2508 H   0  0  0  0  0  0  0  0  0  0  0  0
   -0.7717    1.3068    2.2240 H   0  0  0  0  0  0  0  0  0  0  0  0
   -0.2766    2.8668    1.4366 H   0  0  0  0  0  0  0  0  0  0  0  0
  1  2  1  0
  1  3  1  0
  1  4  1  0
  1  5  1  0
  2  6  1  0
  7  8  1  0
  7  9  1  0
  7 10  1  0
M  RAD  1   7   2
M  END
>  <reaction>  (11) 
rxn_1799

>  <mol_properties>  (11) 
{"0": {"label": "*1", "atom_type": "Cs"}, "1": {"label": "*0", "atom_type": "S2s"}, "2": {"label": "*2", "atom_type": "H0"}, "6": {"label": "*3", "atom_type": "Cs"}, "7": {"label": "*4", "atom_type": "H0"}}

>  <type>  (11) 
unop_7

>  <geom_source>  (11) 
Heuristics

$$$$

     RDKit          3D

 10  8  0  0  0  0  0  0  0  0999 V2000
   -0.0171   -0.6015    0.6901 C   0  0  0  0  0  0  0  0  0  0  0  0
   -0.0171   -0.6015   -1.1205 S   0  0  0  0  0  0  0  0  0  0  0  0
   -0.0171    0.6144    1.1659 H   0  0  0  0  0  0  0  0  0  0  0  0
   -0.9377   -1.0956    0.9961 H   0  0  0  0  0  0  0  0  0  0  0  0
    0.8273   -1.1615    1.0866 H   0  0  0  0  0  0  0  0  0  0  0  0
    1.1532    0.0267   -1.2869 H   0  0  0  0  0  0  0  0  0  0  0  0
   -0.0171    1.8312    1.6421 C   0  0  0  0  0  3  0  0  0  0  0  0
   -1.0437    2.1693    1.7744 H   0  0  0  0  0  0  0  0  0  0  0  0
    0.6448    2.6941    1.5859 H   0  0  0  0  0  0  0  0  0  0  0  0
    0.3208    1.1901    2.4548 H   0  0  0  0  0  0  0  0  0  0  0  0
  1  2  1  0
  1  3  1  0
  1  4  1  0
  1  5  1  0
  2  6  1  0
  7  8  1  0
  7  9  1  0
  7 10  1  0
M  RAD  1   7   2
M  END
>  <reaction>  (12) 
rxn_1799

>  <mol_properties>  (12) 
{"0": {"label": "*1", "atom_type": "Cs"}, "1": {"label": "*0", "atom_type": "S2s"}, "2": {"label": "*2", "atom_type": "H0"}, "6": {"label": "*3", "atom_type": "Cs"}, "7": {"label": "*4", "atom_type": "H0"}}

>  <type>  (12) 
unop_8

>  <geom_source>  (12) 
Heuristics

$$$$

     RDKit          3D

 10  8  0  0  0  0  0  0  0  0999 V2000
   -0.0206   -0.5983    0.6949 C   0  0  0  0  0  0  0  0  0  0  0  0
   -0.0206   -0.5983   -1.1158 S   0  0  0  0  0  0  0  0  0  0  0  0
   -0.0206    0.6175    1.1707 H   0  0  0  0  0  0  0  0  0  0  0  0
   -0.9412   -1.0924    1.0008 H   0  0  0  0  0  0  0  0  0  0  0  0
    0.8238   -1.1583    1.0914 H   0  0  0  0  0  0  0  0  0  0  0  0
    1.1497    0.0298   -1.2822 H   0  0  0  0  0  0  0  0  0  0  0  0
   -0.0206    1.8344    1.6469 C   0  0  0  0  0  3  0  0  0  0  0  0
    0.4928    2.4964    0.9512 H   0  0  0  0  0  0  0  0  0  0  0  0
    0.6437    1.5928    2.4752 H   0  0  0  0  0  0  0  0  0  0  0  0
   -1.0062    1.7767    2.1062 H   0  0  0  0  0  0  0  0  0  0  0  0
  1  2  1  0
  1  3  1  0
  1  4  1  0
  1  5  1  0
  2  6  1  0
  7  8  1  0
  7  9  1  0
  7 10  1  0
M  RAD  1   7   2
M  END
>  <reaction>  (13) 
rxn_1799

>  <mol_properties>  (13) 
{"0": {"label": "*1", "atom_type": "Cs"}, "1": {"label": "*0", "atom_type": "S2s"}, "2": {"label": "*2", "atom_type": "H0"}, "6": {"label": "*3", "atom_type": "Cs"}, "7": {"label": "*4", "atom_type": "H0"}}

>  <type>  (13) 
unop_9

>  <geom_source>  (13) 
Heuristics

$$$$

     RDKit          3D

 10  8  0  0  0  0  0  0  0  0999 V2000
   -0.0170   -0.6014    0.6936 C   0  0  0  0  0  0  0  0  0  0  0  0
   -0.0170   -0.6014   -1.1170 S   0  0  0  0  0  0  0  0  0  0  0  0
   -0.0170    0.6145    1.1694 H   0  0  0  0  0  0  0  0  0  0  0  0
   -0.9377   -1.0955    0.9996 H   0  0  0  0  0  0  0  0  0  0  0  0
    0.8274   -1.1614    1.0901 H   0  0  0  0  0  0  0  0  0  0  0  0
    1.1533    0.0268   -1.2834 H   0  0  0  0  0  0  0  0  0  0  0  0
   -0.0170    1.8313    1.6456 C   0  0  0  0  0  3  0  0  0  0  0  0
   -0.9061    2.3564    1.2998 H   0  0  0  0  0  0  0  0  0  0  0  0
    0.7833    2.5488    1.8203 H   0  0  0  0  0  0  0  0  0  0  0  0
    0.0398    1.1426    2.4871 H   0  0  0  0  0  0  0  0  0  0  0  0
  1  2  1  0
  1  3  1  0
  1  4  1  0
  1  5  1  0
  2  6  1  0
  7  8  1  0
  7  9  1  0
  7 10  1  0
M  RAD  1   7   2
M  END
>  <reaction>  (14) 
rxn_1799

>  <mol_properties>  (14) 
{"0": {"label": "*1", "atom_type": "Cs"}, "1": {"label": "*0", "atom_type": "S2s"}, "2": {"label": "*2", "atom_type": "H0"}, "6": {"label": "*3", "atom_type": "Cs"}, "7": {"label": "*4", "atom_type": "H0"}}

>  <type>  (14) 
unop_10

>  <geom_source>  (14) 
Heuristics

$$$$

     RDKit          3D

 10  8  0  0  0  0  0  0  0  0999 V2000
   -0.0139   -0.6066    0.6895 C   0  0  0  0  0  0  0  0  0  0  0  0
   -0.0139   -0.6066   -1.1211 S   0  0  0  0  0  0  0  0  0  0  0  0
   -0.0139    0.6093    1.1653 H   0  0  0  0  0  0  0  0  0  0  0  0
   -0.9346   -1.1007    0.9955 H   0  0  0  0  0  0  0  0  0  0  0  0
    0.8305   -1.1666    1.0860 H   0  0  0  0  0  0  0  0  0  0  0  0
    1.1564    0.0216   -1.2875 H   0  0  0  0  0  0  0  0  0  0  0  0
   -0.0139    1.8261    1.6415 C   0  0  0  0  0  3  0  0  0  0  0  0
    0.4994    1.8401    2.6017 H   0  0  0  0  0  0  0  0  0  0  0  0
   -1.0797    1.6710    1.8019 H   0  0  0  0  0  0  0  0  0  0  0  0
    0.3128    2.8467    1.4477 H   0  0  0  0  0  0  0  0  0  0  0  0
  1  2  1  0
  1  3  1  0
  1  4  1  0
  1  5  1  0
  2  6  1  0
  7  8  1  0
  7  9  1  0
  7 10  1  0
M  RAD  1   7   2
M  END
>  <reaction>  (15) 
rxn_1799

>  <mol_properties>  (15) 
{"0": {"label": "*1", "atom_type": "Cs"}, "1": {"label": "*0", "atom_type": "S2s"}, "2": {"label": "*2", "atom_type": "H0"}, "6": {"label": "*3", "atom_type": "Cs"}, "7": {"label": "*4", "atom_type": "H0"}}

>  <type>  (15) 
unop_11

>  <geom_source>  (15) 
Heuristics

$$$$

     RDKit          3D

 10  8  0  0  0  0  0  0  0  0999 V2000
   -0.0208   -0.5989    0.6965 C   0  0  0  0  0  0  0  0  0  0  0  0
   -0.0208   -0.5989   -1.1142 S   0  0  0  0  0  0  0  0  0  0  0  0
   -0.0208    0.6170    1.1723 H   0  0  0  0  0  0  0  0  0  0  0  0
   -0.9414   -1.0930    1.0024 H   0  0  0  0  0  0  0  0  0  0  0  0
    0.8236   -1.1589    1.0930 H   0  0  0  0  0  0  0  0  0  0  0  0
    1.1496    0.0293   -1.2806 H   0  0  0  0  0  0  0  0  0  0  0  0
   -0.0208    1.8338    1.6484 C   0  0  0  0  0  3  0  0  0  0  0  0
   -0.0208    2.5460    0.8247 H   0  0  0  0  0  0  0  0  0  0  0  0
    0.8684    1.9848    2.2587 H   0  0  0  0  0  0  0  0  0  0  0  0
   -0.7061    1.3681    2.3549 H   0  0  0  0  0  0  0  0  0  0  0  0
  1  2  1  0
  1  3  1  0
  1  4  1  0
  1  5  1  0
  2  6  1  0
  7  8  1  0
  7  9  1  0
  7 10  1  0
M  RAD  1   7   2
M  END
>  <reaction>  (16) 
rxn_1799

>  <mol_properties>  (16) 
{"0": {"label": "*1", "atom_type": "Cs"}, "1": {"label": "*0", "atom_type": "S2s"}, "2": {"label": "*2", "atom_type": "H0"}, "6": {"label": "*3", "atom_type": "Cs"}, "7": {"label": "*4", "atom_type": "H0"}}

>  <type>  (16) 
unop_12

>  <geom_source>  (16) 
Heuristics

$$$$

     RDKit          3D

 10  8  0  0  0  0  0  0  0  0999 V2000
    2.1051   -0.9088    0.3903 S   0  0  0  0  0  0  0  0  0  0  0  0
   -1.4924   -0.1646   -0.2245 C   0  0  0  0  0  0  0  0  0  0  0  0
    0.9559    0.4949    0.3961 C   0  0  0  0  0  3  0  0  0  0  0  0
   -2.2040    0.2110    0.5394 H   0  0  0  0  0  0  0  0  0  0  0  0
   -1.8853    0.0592   -1.2376 H   0  0  0  0  0  0  0  0  0  0  0  0
   -1.3707   -1.2612   -0.1090 H   0  0  0  0  0  0  0  0  0  0  0  0
   -0.3595    0.4088   -0.0703 H   0  0  0  0  0  0  0  0  0  0  0  0
    0.7127    0.7686    1.4433 H   0  0  0  0  0  0  0  0  0  0  0  0
    1.4256    1.3625   -0.1118 H   0  0  0  0  0  0  0  0  0  0  0  0
    2.1126   -0.9703   -1.0159 H   0  0  0  0  0  0  0  0  0  0  0  0
  1  3  1  0
  1 10  1  0
  2  4  1  0
  2  5  1  0
  2  6  1  0
  2  7  1  0
  3  8  1  0
  3  9  1  0
M  RAD  1   3   2
M  END
>  <reaction>  (17) 
rxn_1799

>  <mol_properties>  (17) 
{"0": {"label": "*1", "atom_type": "Cs"}, "1": {"label": "*0", "atom_type": "S2s"}, "2": {"label": "*2", "atom_type": "H0"}, "6": {"label": "*3", "atom_type": "Cs"}, "7": {"label": "*4", "atom_type": "H0"}}

>  <type>  (17) 
unop_13

>  <geom_source>  (17) 
AutoTST

$$$$
