
     RDKit          3D

  6  5  0  0  0  0  0  0  0  0999 V2000
   -0.5072   -0.0291   -0.0097 C   0  0  0  0  0  0  0  0  0  0  0  0
    1.1321   -0.1527   -0.7687 S   0  0  0  0  0  0  0  0  0  0  0  0
   -0.6174   -0.7330    0.8127 H   0  0  0  0  0  0  0  0  0  0  0  0
   -0.5863    0.9827    0.3845 H   0  0  0  0  0  0  0  0  0  0  0  0
   -1.2962   -0.1800   -0.7434 H   0  0  0  0  0  0  0  0  0  0  0  0
    1.0312   -1.4237   -1.1764 H   0  0  0  0  0  0  0  0  0  0  0  0
  1  2  1  0
  1  3  1  0
  1  4  1  0
  1  5  1  0
  2  6  1  0
M  END
>  <reaction>  (1) 
rxn_1850

>  <mol_properties>  (1) 
{"0": {"label": "donator", "atom_type": "Cs"}, "2": {"label": "d_hydrogen", "atom_type": "H0"}}

>  <type>  (1) 
r1h

$$$$

     RDKit          3D

  9  8  0  0  0  0  0  0  0  0999 V2000
    2.3991   -0.1292   -0.2384 S   0  0  0  0  0  0  0  0  0  0  0  0
    0.7460    0.2807    0.0931 C   0  0  0  0  0  3  0  0  0  0  0  0
   -0.3131   -0.5719   -0.2043 C   0  0  0  0  0  0  0  0  0  0  0  0
   -0.2286   -1.8095   -0.7775 C   0  0  0  0  0  0  0  0  0  0  0  0
    2.9373    1.0009    0.2312 H   0  0  0  0  0  0  0  0  0  0  0  0
    0.5618    1.2421    0.5487 H   0  0  0  0  0  0  0  0  0  0  0  0
   -1.2978   -0.1954    0.0537 H   0  0  0  0  0  0  0  0  0  0  0  0
    0.7207   -2.2479   -1.0607 H   0  0  0  0  0  0  0  0  0  0  0  0
   -1.1177   -2.3938   -0.9670 H   0  0  0  0  0  0  0  0  0  0  0  0
  1  2  1  0
  1  5  1  0
  2  3  1  0
  2  6  1  0
  3  4  2  3
  3  7  1  0
  4  8  1  0
  4  9  1  0
M  RAD  1   2   2
M  END
>  <reaction>  (2) 
rxn_1850

>  <mol_properties>  (2) 
{"1": {"label": "acceptor", "atom_type": "Cs"}}

>  <type>  (2) 
r2

$$$$

     RDKit          3D

 10  9  0  0  0  0  0  0  0  0999 V2000
    2.2097   -0.5315    0.2575 S   0  0  0  0  0  0  0  0  0  0  0  0
    0.5401   -0.7188   -0.4494 C   0  0  0  0  0  0  0  0  0  0  0  0
   -0.5263   -0.1678    0.4365 C   0  0  0  0  0  0  0  0  0  0  0  0
   -1.3394    0.8185    0.0912 C   0  0  0  0  0  0  0  0  0  0  0  0
    2.1701    0.8016    0.3806 H   0  0  0  0  0  0  0  0  0  0  0  0
    0.4238   -1.7978   -0.5701 H   0  0  0  0  0  0  0  0  0  0  0  0
    0.5053   -0.2663   -1.4400 H   0  0  0  0  0  0  0  0  0  0  0  0
   -0.6005   -0.6141    1.4236 H   0  0  0  0  0  0  0  0  0  0  0  0
   -2.0960    1.1907    0.7700 H   0  0  0  0  0  0  0  0  0  0  0  0
   -1.2784    1.2877   -0.8850 H   0  0  0  0  0  0  0  0  0  0  0  0
  1  2  1  0
  1  5  1  0
  2  3  1  0
  2  6  1  0
  2  7  1  0
  3  4  2  3
  3  8  1  0
  4  9  1  0
  4 10  1  0
M  END
>  <reaction>  (3) 
rxn_1850

>  <mol_properties>  (3) 
{"1": {"label": "acceptor", "atom_type": "Cs"}, "9": {"label": "a_hydrogen", "atom_type": "H0"}}

>  <type>  (3) 
r2h

$$$$

     RDKit          3D

 15 13  0  0  0  0  0  0  0  0999 V2000
   -1.8094    0.7479    1.2274 S   0  0  0  0  0  0  0  0  0  0  0  0
   -0.0453    0.4336    1.2532 C   0  0  0  0  0  0  0  0  0  0  0  0
    0.8243    1.4221    0.6253 C   0  0  0  0  0  0  0  0  0  0  0  0
    2.0693    1.6874    1.0277 C   0  0  0  0  0  0  0  0  0  0  0  0
   -1.7985    1.9167    1.8860 H   0  0  0  0  0  0  0  0  0  0  0  0
    0.3114    0.0615    2.2123 H   0  0  0  0  0  0  0  0  0  0  0  0
    0.4211    1.9287   -0.2462 H   0  0  0  0  0  0  0  0  0  0  0  0
    2.4985    1.2048    1.8990 H   0  0  0  0  0  0  0  0  0  0  0  0
    2.6892    2.4025    0.5030 H   0  0  0  0  0  0  0  0  0  0  0  0
    0.1674   -1.7267   -0.3578 C   0  0  0  0  0  3  0  0  0  0  0  0
    0.8159   -1.1426   -1.8812 S   0  0  0  0  0  0  0  0  0  0  0  0
    0.0274   -0.6364    0.4896 H   0  0  0  0  0  0  0  0  0  0  0  0
   -0.8459   -2.0964   -0.4873 H   0  0  0  0  0  0  0  0  0  0  0  0
    0.8070   -2.4075    0.1963 H   0  0  0  0  0  0  0  0  0  0  0  0
    2.0524   -0.8670   -1.4459 H   0  0  0  0  0  0  0  0  0  0  0  0
  1  2  1  0
  1  5  1  0
  2  3  1  0
  2  6  1  0
  2 12  1  0
  3  4  2  3
  3  7  1  0
  4  8  1  0
  4  9  1  0
 10 11  1  0
 10 13  1  0
 10 14  1  0
 11 15  1  0
M  RAD  1  10   2
M  END
>  <reaction>  (4) 
rxn_1850

>  <mol_properties>  (4) 
{"0": {"label": "*0", "atom_type": "S2s"}, "1": {"label": "*1", "atom_type": "Cs"}, "9": {"label": "*3", "atom_type": "Cs"}, "10": {"label": "*4", "atom_type": "S2s"}, "11": {"label": "*2", "atom_type": "H0"}}

>  <type>  (4) 
ts

$$$$

     RDKit          3D

 15 13  0  0  0  0  0  0  0  0999 V2000
   -1.3797    0.6543    1.6282 S   0  0  0  0  0  0  0  0  0  0  0  0
    0.1520    0.5659    0.6440 C   0  0  0  0  0  3  0  0  0  0  0  0
    0.6332    1.9078    0.2045 C   0  0  0  0  0  0  0  0  0  0  0  0
    1.8057    2.4215    0.5432 C   0  0  0  0  0  0  0  0  0  0  0  0
   -0.8943    1.4541    2.5866 H   0  0  0  0  0  0  0  0  0  0  0  0
    0.9204    0.0330    1.2032 H   0  0  0  0  0  0  0  0  0  0  0  0
   -0.0522    2.4780   -0.4152 H   0  0  0  0  0  0  0  0  0  0  0  0
    2.5035    1.8762    1.1697 H   0  0  0  0  0  0  0  0  0  0  0  0
    2.1110    3.4034    0.2052 H   0  0  0  0  0  0  0  0  0  0  0  0
    0.1520   -1.8702   -0.3093 C   0  0  0  0  0  0  0  0  0  0  0  0
    0.1520   -1.8702   -2.1199 S   0  0  0  0  0  0  0  0  0  0  0  0
    0.1520   -0.6543    0.1665 H   0  0  0  0  0  0  0  0  0  0  0  0
   -0.7687   -2.3643   -0.0033 H   0  0  0  0  0  0  0  0  0  0  0  0
    0.9963   -2.4302    0.0872 H   0  0  0  0  0  0  0  0  0  0  0  0
    1.3223   -1.2420   -2.2863 H   0  0  0  0  0  0  0  0  0  0  0  0
  1  2  1  0
  1  5  1  0
  2  3  1  0
  2  6  1  0
  3  4  2  3
  3  7  1  0
  4  8  1  0
  4  9  1  0
 10 11  1  0
 10 12  1  0
 10 13  1  0
 10 14  1  0
 11 15  1  0
M  RAD  1   2   2
M  END
>  <reaction>  (5) 
rxn_1850

>  <mol_properties>  (5) 
{"0": {"label": "*0", "atom_type": "S2s"}, "1": {"label": "*1", "atom_type": "Cs"}, "9": {"label": "*3", "atom_type": "Cs"}, "10": {"label": "*4", "atom_type": "S2s"}, "11": {"label": "*2", "atom_type": "H0"}}

>  <type>  (5) 
unop_1

>  <geom_source>  (5) 
Heuristics

$$$$

     RDKit          3D

 15 13  0  0  0  0  0  0  0  0999 V2000
   -0.9349    1.4554   -0.3427 S   0  0  0  0  0  0  0  0  0  0  0  0
   -0.0506    0.4866    0.9229 C   0  0  0  0  0  3  0  0  0  0  0  0
    1.1407    1.2007    1.4675 C   0  0  0  0  0  0  0  0  0  0  0  0
    1.2861    1.5340    2.7407 C   0  0  0  0  0  0  0  0  0  0  0  0
   -1.1833    2.5196    0.4316 H   0  0  0  0  0  0  0  0  0  0  0  0
   -0.7391    0.2012    1.7177 H   0  0  0  0  0  0  0  0  0  0  0  0
    1.9076    1.4632    0.7452 H   0  0  0  0  0  0  0  0  0  0  0  0
    0.5296    1.2923    3.4797 H   0  0  0  0  0  0  0  0  0  0  0  0
    2.1664    2.0578    3.0904 H   0  0  0  0  0  0  0  0  0  0  0  0
   -0.0506   -1.9494   -0.0304 C   0  0  0  0  0  0  0  0  0  0  0  0
   -0.0506   -1.9494   -1.8410 S   0  0  0  0  0  0  0  0  0  0  0  0
   -0.0506   -0.7336    0.4454 H   0  0  0  0  0  0  0  0  0  0  0  0
   -0.9713   -2.4435    0.2756 H   0  0  0  0  0  0  0  0  0  0  0  0
    0.7938   -2.5094    0.3661 H   0  0  0  0  0  0  0  0  0  0  0  0
    1.1197   -1.3213   -2.0074 H   0  0  0  0  0  0  0  0  0  0  0  0
  1  2  1  0
  1  5  1  0
  2  3  1  0
  2  6  1  0
  3  4  2  3
  3  7  1  0
  4  8  1  0
  4  9  1  0
 10 11  1  0
 10 12  1  0
 10 13  1  0
 10 14  1  0
 11 15  1  0
M  RAD  1   2   2
M  END
>  <reaction>  (6) 
rxn_1850

>  <mol_properties>  (6) 
{"0": {"label": "*0", "atom_type": "S2s"}, "1": {"label": "*1", "atom_type": "Cs"}, "9": {"label": "*3", "atom_type": "Cs"}, "10": {"label": "*4", "atom_type": "S2s"}, "11": {"label": "*2", "atom_type": "H0"}}

>  <type>  (6) 
unop_2

>  <geom_source>  (6) 
Heuristics

$$$$

     RDKit          3D

 15 13  0  0  0  0  0  0  0  0999 V2000
   -0.7138    0.4440    2.2027 S   0  0  0  0  0  0  0  0  0  0  0  0
    0.1705    0.5915    0.6157 C   0  0  0  0  0  3  0  0  0  0  0  0
   -0.0922    1.8889   -0.0723 C   0  0  0  0  0  0  0  0  0  0  0  0
    0.8462    2.7778   -0.3597 C   0  0  0  0  0  0  0  0  0  0  0  0
   -0.1832    1.5350    2.7702 H   0  0  0  0  0  0  0  0  0  0  0  0
    1.2374    0.4343    0.7711 H   0  0  0  0  0  0  0  0  0  0  0  0
   -1.1291    2.0919   -0.3222 H   0  0  0  0  0  0  0  0  0  0  0  0
    1.8875    2.6031   -0.1110 H   0  0  0  0  0  0  0  0  0  0  0  0
    0.6080    3.7102   -0.8554 H   0  0  0  0  0  0  0  0  0  0  0  0
    0.1705   -1.8446   -0.3376 C   0  0  0  0  0  0  0  0  0  0  0  0
    0.1705   -1.8446   -2.1482 S   0  0  0  0  0  0  0  0  0  0  0  0
    0.1705   -0.6287    0.1382 H   0  0  0  0  0  0  0  0  0  0  0  0
   -0.7502   -2.3387   -0.0316 H   0  0  0  0  0  0  0  0  0  0  0  0
    1.0149   -2.4046    0.0589 H   0  0  0  0  0  0  0  0  0  0  0  0
    1.3408   -1.2164   -2.3146 H   0  0  0  0  0  0  0  0  0  0  0  0
  1  2  1  0
  1  5  1  0
  2  3  1  0
  2  6  1  0
  3  4  2  3
  3  7  1  0
  4  8  1  0
  4  9  1  0
 10 11  1  0
 10 12  1  0
 10 13  1  0
 10 14  1  0
 11 15  1  0
M  RAD  1   2   2
M  END
>  <reaction>  (7) 
rxn_1850

>  <mol_properties>  (7) 
{"0": {"label": "*0", "atom_type": "S2s"}, "1": {"label": "*1", "atom_type": "Cs"}, "9": {"label": "*3", "atom_type": "Cs"}, "10": {"label": "*4", "atom_type": "S2s"}, "11": {"label": "*2", "atom_type": "H0"}}

>  <type>  (7) 
unop_3

>  <geom_source>  (7) 
Heuristics

$$$$

     RDKit          3D

 15 13  0  0  0  0  0  0  0  0999 V2000
    1.1295    1.6025   -0.0575 S   0  0  0  0  0  0  0  0  0  0  0  0
   -0.4022    0.8696    0.6053 C   0  0  0  0  0  3  0  0  0  0  0  0
   -0.1898    0.1657    1.9034 C   0  0  0  0  0  0  0  0  0  0  0  0
   -0.7870    0.5043    3.0357 C   0  0  0  0  0  0  0  0  0  0  0  0
    1.3936    2.3780    1.0021 H   0  0  0  0  0  0  0  0  0  0  0  0
   -1.1716    1.6362    0.6916 H   0  0  0  0  0  0  0  0  0  0  0  0
    0.5171   -0.6582    1.8862 H   0  0  0  0  0  0  0  0  0  0  0  0
   -1.4892    1.3299    3.0811 H   0  0  0  0  0  0  0  0  0  0  0  0
   -0.5977   -0.0323    3.9565 H   0  0  0  0  0  0  0  0  0  0  0  0
   -0.4022   -1.5664   -0.3479 C   0  0  0  0  0  0  0  0  0  0  0  0
   -0.4022   -1.5664   -2.1586 S   0  0  0  0  0  0  0  0  0  0  0  0
   -0.4022   -0.3506    0.1278 H   0  0  0  0  0  0  0  0  0  0  0  0
   -1.3229   -2.0606   -0.0420 H   0  0  0  0  0  0  0  0  0  0  0  0
    0.4422   -2.1264    0.0485 H   0  0  0  0  0  0  0  0  0  0  0  0
    0.7681   -0.9383   -2.3250 H   0  0  0  0  0  0  0  0  0  0  0  0
  1  2  1  0
  1  5  1  0
  2  3  1  0
  2  6  1  0
  3  4  2  3
  3  7  1  0
  4  8  1  0
  4  9  1  0
 10 11  1  0
 10 12  1  0
 10 13  1  0
 10 14  1  0
 11 15  1  0
M  RAD  1   2   2
M  END
>  <reaction>  (8) 
rxn_1850

>  <mol_properties>  (8) 
{"0": {"label": "*0", "atom_type": "S2s"}, "1": {"label": "*1", "atom_type": "Cs"}, "9": {"label": "*3", "atom_type": "Cs"}, "10": {"label": "*4", "atom_type": "S2s"}, "11": {"label": "*2", "atom_type": "H0"}}

>  <type>  (8) 
unop_4

>  <geom_source>  (8) 
Heuristics

$$$$

     RDKit          3D

 15 13  0  0  0  0  0  0  0  0999 V2000
    0.2493    0.4668    2.3622 S   0  0  0  0  0  0  0  0  0  0  0  0
    0.2493    0.7006    0.5546 C   0  0  0  0  0  3  0  0  0  0  0  0
   -0.9419    1.4577    0.0711 C   0  0  0  0  0  0  0  0  0  0  0  0
   -0.8743    2.6183   -0.5626 C   0  0  0  0  0  0  0  0  0  0  0  0
    0.2031    1.7671    2.6801 H   0  0  0  0  0  0  0  0  0  0  0  0
    1.1767    1.1808    0.2440 H   0  0  0  0  0  0  0  0  0  0  0  0
   -1.9075    1.0094    0.2844 H   0  0  0  0  0  0  0  0  0  0  0  0
    0.0776    3.0917   -0.7782 H   0  0  0  0  0  0  0  0  0  0  0  0
   -1.7669    3.1356   -0.8905 H   0  0  0  0  0  0  0  0  0  0  0  0
    0.2493   -1.7354   -0.3987 C   0  0  0  0  0  0  0  0  0  0  0  0
    0.2493   -1.7354   -2.2093 S   0  0  0  0  0  0  0  0  0  0  0  0
    0.2493   -0.5196    0.0771 H   0  0  0  0  0  0  0  0  0  0  0  0
   -0.6714   -2.2295   -0.0928 H   0  0  0  0  0  0  0  0  0  0  0  0
    1.0936   -2.2954   -0.0022 H   0  0  0  0  0  0  0  0  0  0  0  0
    1.4196   -1.1073   -2.3757 H   0  0  0  0  0  0  0  0  0  0  0  0
  1  2  1  0
  1  5  1  0
  2  3  1  0
  2  6  1  0
  3  4  2  3
  3  7  1  0
  4  8  1  0
  4  9  1  0
 10 11  1  0
 10 12  1  0
 10 13  1  0
 10 14  1  0
 11 15  1  0
M  RAD  1   2   2
M  END
>  <reaction>  (9) 
rxn_1850

>  <mol_properties>  (9) 
{"0": {"label": "*0", "atom_type": "S2s"}, "1": {"label": "*1", "atom_type": "Cs"}, "9": {"label": "*3", "atom_type": "Cs"}, "10": {"label": "*4", "atom_type": "S2s"}, "11": {"label": "*2", "atom_type": "H0"}}

>  <type>  (9) 
unop_5

>  <geom_source>  (9) 
Heuristics

$$$$

     RDKit          3D

 15 13  0  0  0  0  0  0  0  0999 V2000
    1.5125    1.3835    0.6140 S   0  0  0  0  0  0  0  0  0  0  0  0
   -0.2561    0.9728    0.4533 C   0  0  0  0  0  3  0  0  0  0  0  0
   -0.7683    0.1703    1.6019 C   0  0  0  0  0  0  0  0  0  0  0  0
   -1.7362    0.5710    2.4119 C   0  0  0  0  0  0  0  0  0  0  0  0
    1.4105    2.0229    1.7864 H   0  0  0  0  0  0  0  0  0  0  0  0
   -0.8364    1.8849    0.3171 H   0  0  0  0  0  0  0  0  0  0  0  0
   -0.2835   -0.7874    1.7652 H   0  0  0  0  0  0  0  0  0  0  0  0
   -2.2289    1.5278    2.2761 H   0  0  0  0  0  0  0  0  0  0  0  0
   -2.0721   -0.0431    3.2376 H   0  0  0  0  0  0  0  0  0  0  0  0
   -0.2561   -1.4632   -0.4999 C   0  0  0  0  0  0  0  0  0  0  0  0
   -0.2561   -1.4632   -2.3106 S   0  0  0  0  0  0  0  0  0  0  0  0
   -0.2561   -0.2474   -0.0242 H   0  0  0  0  0  0  0  0  0  0  0  0
   -1.1768   -1.9574   -0.1940 H   0  0  0  0  0  0  0  0  0  0  0  0
    0.5883   -2.0232   -0.1035 H   0  0  0  0  0  0  0  0  0  0  0  0
    0.9142   -0.8351   -2.4770 H   0  0  0  0  0  0  0  0  0  0  0  0
  1  2  1  0
  1  5  1  0
  2  3  1  0
  2  6  1  0
  3  4  2  3
  3  7  1  0
  4  8  1  0
  4  9  1  0
 10 11  1  0
 10 12  1  0
 10 13  1  0
 10 14  1  0
 11 15  1  0
M  RAD  1   2   2
M  END
>  <reaction>  (10) 
rxn_1850

>  <mol_properties>  (10) 
{"0": {"label": "*0", "atom_type": "S2s"}, "1": {"label": "*1", "atom_type": "Cs"}, "9": {"label": "*3", "atom_type": "Cs"}, "10": {"label": "*4", "atom_type": "S2s"}, "11": {"label": "*2", "atom_type": "H0"}}

>  <type>  (10) 
unop_6

>  <geom_source>  (10) 
Heuristics

$$$$

     RDKit          3D

 15 13  0  0  0  0  0  0  0  0999 V2000
    1.5028    1.0791    1.3701 S   0  0  0  0  0  0  0  0  0  0  0  0
   -0.0289    0.9907    0.3859 C   0  0  0  0  0  3  0  0  0  0  0  0
   -1.1615    0.3742    1.1361 C   0  0  0  0  0  0  0  0  0  0  0  0
   -2.2971    0.9989    1.4074 C   0  0  0  0  0  0  0  0  0  0  0  0
    0.9921    1.8030    2.3747 H   0  0  0  0  0  0  0  0  0  0  0  0
   -0.2901    1.9827    0.0188 H   0  0  0  0  0  0  0  0  0  0  0  0
   -1.0042   -0.6432    1.4809 H   0  0  0  0  0  0  0  0  0  0  0  0
   -2.4742    2.0188    1.0831 H   0  0  0  0  0  0  0  0  0  0  0  0
   -3.0905    0.5133    1.9608 H   0  0  0  0  0  0  0  0  0  0  0  0
   -0.0289   -1.4453   -0.5674 C   0  0  0  0  0  0  0  0  0  0  0  0
   -0.0289   -1.4453   -2.3780 S   0  0  0  0  0  0  0  0  0  0  0  0
   -0.0289   -0.2295   -0.0916 H   0  0  0  0  0  0  0  0  0  0  0  0
   -0.9496   -1.9395   -0.2614 H   0  0  0  0  0  0  0  0  0  0  0  0
    0.8155   -2.0053   -0.1709 H   0  0  0  0  0  0  0  0  0  0  0  0
    1.1414   -0.8172   -2.5444 H   0  0  0  0  0  0  0  0  0  0  0  0
  1  2  1  0
  1  5  1  0
  2  3  1  0
  2  6  1  0
  3  4  2  3
  3  7  1  0
  4  8  1  0
  4  9  1  0
 10 11  1  0
 10 12  1  0
 10 13  1  0
 10 14  1  0
 11 15  1  0
M  RAD  1   2   2
M  END
>  <reaction>  (11) 
rxn_1850

>  <mol_properties>  (11) 
{"0": {"label": "*0", "atom_type": "S2s"}, "1": {"label": "*1", "atom_type": "Cs"}, "9": {"label": "*3", "atom_type": "Cs"}, "10": {"label": "*4", "atom_type": "S2s"}, "11": {"label": "*2", "atom_type": "H0"}}

>  <type>  (11) 
unop_7

>  <geom_source>  (11) 
Heuristics

$$$$

     RDKit          3D

 15 13  0  0  0  0  0  0  0  0999 V2000
   -1.6080    0.9468    0.8793 S   0  0  0  0  0  0  0  0  0  0  0  0
    0.1606    0.5361    0.7186 C   0  0  0  0  0  3  0  0  0  0  0  0
    1.0291    1.7468    0.6443 C   0  0  0  0  0  0  0  0  0  0  0  0
    1.9768    2.0333    1.5236 C   0  0  0  0  0  0  0  0  0  0  0  0
   -1.4922    1.6644    2.0043 H   0  0  0  0  0  0  0  0  0  0  0  0
    0.4634   -0.1193    1.5346 H   0  0  0  0  0  0  0  0  0  0  0  0
    0.8332    2.4211   -0.1839 H   0  0  0  0  0  0  0  0  0  0  0  0
    2.1848    1.3812    2.3652 H   0  0  0  0  0  0  0  0  0  0  0  0
    2.5797    2.9277    1.4329 H   0  0  0  0  0  0  0  0  0  0  0  0
    0.1606   -1.8999   -0.2347 C   0  0  0  0  0  0  0  0  0  0  0  0
    0.1606   -1.8999   -2.0453 S   0  0  0  0  0  0  0  0  0  0  0  0
    0.1606   -0.6841    0.2411 H   0  0  0  0  0  0  0  0  0  0  0  0
   -0.7601   -2.3940    0.0713 H   0  0  0  0  0  0  0  0  0  0  0  0
    1.0049   -2.4599    0.1618 H   0  0  0  0  0  0  0  0  0  0  0  0
    1.3309   -1.2718   -2.2117 H   0  0  0  0  0  0  0  0  0  0  0  0
  1  2  1  0
  1  5  1  0
  2  3  1  0
  2  6  1  0
  3  4  2  3
  3  7  1  0
  4  8  1  0
  4  9  1  0
 10 11  1  0
 10 12  1  0
 10 13  1  0
 10 14  1  0
 11 15  1  0
M  RAD  1   2   2
M  END
>  <reaction>  (12) 
rxn_1850

>  <mol_properties>  (12) 
{"0": {"label": "*0", "atom_type": "S2s"}, "1": {"label": "*1", "atom_type": "Cs"}, "9": {"label": "*3", "atom_type": "Cs"}, "10": {"label": "*4", "atom_type": "S2s"}, "11": {"label": "*2", "atom_type": "H0"}}

>  <type>  (12) 
unop_8

>  <geom_source>  (12) 
Heuristics

$$$$

     RDKit          3D

 15 13  0  0  0  0  0  0  0  0999 V2000
    0.4727    1.6814   -0.4800 S   0  0  0  0  0  0  0  0  0  0  0  0
   -0.4116    0.7126    0.7856 C   0  0  0  0  0  3  0  0  0  0  0  0
    0.4440    0.3850    1.9630 C   0  0  0  0  0  0  0  0  0  0  0  0
    0.1825    0.7773    3.2004 C   0  0  0  0  0  0  0  0  0  0  0  0
    0.8005    2.7052    0.3189 H   0  0  0  0  0  0  0  0  0  0  0  0
   -1.3170    1.2382    1.0877 H   0  0  0  0  0  0  0  0  0  0  0  0
    1.3364   -0.1970    1.7537 H   0  0  0  0  0  0  0  0  0  0  0  0
   -0.6968    1.3682    3.4336 H   0  0  0  0  0  0  0  0  0  0  0  0
    0.8360    0.5206    4.0242 H   0  0  0  0  0  0  0  0  0  0  0  0
   -0.4116   -1.7234   -0.1676 C   0  0  0  0  0  0  0  0  0  0  0  0
   -0.4116   -1.7234   -1.9783 S   0  0  0  0  0  0  0  0  0  0  0  0
   -0.4116   -0.5076    0.3081 H   0  0  0  0  0  0  0  0  0  0  0  0
   -1.3323   -2.2176    0.1383 H   0  0  0  0  0  0  0  0  0  0  0  0
    0.4327   -2.2834    0.2288 H   0  0  0  0  0  0  0  0  0  0  0  0
    0.7587   -1.0953   -2.1447 H   0  0  0  0  0  0  0  0  0  0  0  0
  1  2  1  0
  1  5  1  0
  2  3  1  0
  2  6  1  0
  3  4  2  3
  3  7  1  0
  4  8  1  0
  4  9  1  0
 10 11  1  0
 10 12  1  0
 10 13  1  0
 10 14  1  0
 11 15  1  0
M  RAD  1   2   2
M  END
>  <reaction>  (13) 
rxn_1850

>  <mol_properties>  (13) 
{"0": {"label": "*0", "atom_type": "S2s"}, "1": {"label": "*1", "atom_type": "Cs"}, "9": {"label": "*3", "atom_type": "Cs"}, "10": {"label": "*4", "atom_type": "S2s"}, "11": {"label": "*2", "atom_type": "H0"}}

>  <type>  (13) 
unop_9

>  <geom_source>  (13) 
Heuristics

$$$$

     RDKit          3D

 15 13  0  0  0  0  0  0  0  0999 V2000
   -1.4243    1.2294    0.1692 S   0  0  0  0  0  0  0  0  0  0  0  0
    0.1074    0.4965    0.8320 C   0  0  0  0  0  3  0  0  0  0  0  0
    1.1701    1.5125    1.0853 C   0  0  0  0  0  0  0  0  0  0  0  0
    1.6950    1.7536    2.2768 C   0  0  0  0  0  0  0  0  0  0  0  0
   -1.6389    2.0716    1.1882 H   0  0  0  0  0  0  0  0  0  0  0  0
   -0.1160   -0.0760    1.7317 H   0  0  0  0  0  0  0  0  0  0  0  0
    1.4968    2.0828    0.2211 H   0  0  0  0  0  0  0  0  0  0  0  0
    1.3781    1.2047    3.1572 H   0  0  0  0  0  0  0  0  0  0  0  0
    2.4611    2.5057    2.4147 H   0  0  0  0  0  0  0  0  0  0  0  0
    0.1074   -1.9395   -0.1213 C   0  0  0  0  0  0  0  0  0  0  0  0
    0.1074   -1.9395   -1.9319 S   0  0  0  0  0  0  0  0  0  0  0  0
    0.1074   -0.7237    0.3545 H   0  0  0  0  0  0  0  0  0  0  0  0
   -0.8133   -2.4337    0.1846 H   0  0  0  0  0  0  0  0  0  0  0  0
    0.9518   -2.4995    0.2752 H   0  0  0  0  0  0  0  0  0  0  0  0
    1.2777   -1.3114   -2.0983 H   0  0  0  0  0  0  0  0  0  0  0  0
  1  2  1  0
  1  5  1  0
  2  3  1  0
  2  6  1  0
  3  4  2  3
  3  7  1  0
  4  8  1  0
  4  9  1  0
 10 11  1  0
 10 12  1  0
 10 13  1  0
 10 14  1  0
 11 15  1  0
M  RAD  1   2   2
M  END
>  <reaction>  (14) 
rxn_1850

>  <mol_properties>  (14) 
{"0": {"label": "*0", "atom_type": "S2s"}, "1": {"label": "*1", "atom_type": "Cs"}, "9": {"label": "*3", "atom_type": "Cs"}, "10": {"label": "*4", "atom_type": "S2s"}, "11": {"label": "*2", "atom_type": "H0"}}

>  <type>  (14) 
unop_10

>  <geom_source>  (14) 
Heuristics

$$$$

     RDKit          3D

 15 13  0  0  0  0  0  0  0  0999 V2000
    1.0738    0.7449    2.0199 S   0  0  0  0  0  0  0  0  0  0  0  0
    0.1895    0.8924    0.4329 C   0  0  0  0  0  3  0  0  0  0  0  0
   -1.2916    0.8026    0.5876 C   0  0  0  0  0  0  0  0  0  0  0  0
   -2.1311    1.7702    0.2524 C   0  0  0  0  0  0  0  0  0  0  0  0
    0.4756    1.7821    2.6201 H   0  0  0  0  0  0  0  0  0  0  0  0
    0.4804    1.8153   -0.0679 H   0  0  0  0  0  0  0  0  0  0  0  0
   -1.6683   -0.1190    1.0208 H   0  0  0  0  0  0  0  0  0  0  0  0
   -1.7788    2.7041   -0.1724 H   0  0  0  0  0  0  0  0  0  0  0  0
   -3.1996    1.6630    0.3882 H   0  0  0  0  0  0  0  0  0  0  0  0
    0.1895   -1.5436   -0.5204 C   0  0  0  0  0  0  0  0  0  0  0  0
    0.1895   -1.5436   -2.3310 S   0  0  0  0  0  0  0  0  0  0  0  0
    0.1895   -0.3278   -0.0446 H   0  0  0  0  0  0  0  0  0  0  0  0
   -0.7312   -2.0378   -0.2144 H   0  0  0  0  0  0  0  0  0  0  0  0
    1.0339   -2.1036   -0.1239 H   0  0  0  0  0  0  0  0  0  0  0  0
    1.3598   -0.9155   -2.4974 H   0  0  0  0  0  0  0  0  0  0  0  0
  1  2  1  0
  1  5  1  0
  2  3  1  0
  2  6  1  0
  3  4  2  3
  3  7  1  0
  4  8  1  0
  4  9  1  0
 10 11  1  0
 10 12  1  0
 10 13  1  0
 10 14  1  0
 11 15  1  0
M  RAD  1   2   2
M  END
>  <reaction>  (15) 
rxn_1850

>  <mol_properties>  (15) 
{"0": {"label": "*0", "atom_type": "S2s"}, "1": {"label": "*1", "atom_type": "Cs"}, "9": {"label": "*3", "atom_type": "Cs"}, "10": {"label": "*4", "atom_type": "S2s"}, "11": {"label": "*2", "atom_type": "H0"}}

>  <type>  (15) 
unop_11

>  <geom_source>  (15) 
Heuristics

$$$$

     RDKit          3D

 15 13  0  0  0  0  0  0  0  0999 V2000
   -0.2675    1.6152   -0.5723 S   0  0  0  0  0  0  0  0  0  0  0  0
   -0.2675    0.5600    0.9139 C   0  0  0  0  0  3  0  0  0  0  0  0
    0.9237    0.7879    1.7828 C   0  0  0  0  0  0  0  0  0  0  0  0
    0.8561    1.2101    3.0360 C   0  0  0  0  0  0  0  0  0  0  0  0
   -0.2213    2.7858    0.0767 H   0  0  0  0  0  0  0  0  0  0  0  0
   -1.1950    0.7018    1.4679 H   0  0  0  0  0  0  0  0  0  0  0  0
    1.8893    0.6034    1.3219 H   0  0  0  0  0  0  0  0  0  0  0  0
   -0.0958    1.4114    3.5156 H   0  0  0  0  0  0  0  0  0  0  0  0
    1.7487    1.3675    3.6278 H   0  0  0  0  0  0  0  0  0  0  0  0
   -0.2675   -1.8760   -0.0393 C   0  0  0  0  0  0  0  0  0  0  0  0
   -0.2675   -1.8760   -1.8500 S   0  0  0  0  0  0  0  0  0  0  0  0
   -0.2675   -0.6602    0.4365 H   0  0  0  0  0  0  0  0  0  0  0  0
   -1.1882   -2.3702    0.2666 H   0  0  0  0  0  0  0  0  0  0  0  0
    0.5769   -2.4360    0.3572 H   0  0  0  0  0  0  0  0  0  0  0  0
    0.9028   -1.2479   -2.0164 H   0  0  0  0  0  0  0  0  0  0  0  0
  1  2  1  0
  1  5  1  0
  2  3  1  0
  2  6  1  0
  3  4  2  3
  3  7  1  0
  4  8  1  0
  4  9  1  0
 10 11  1  0
 10 12  1  0
 10 13  1  0
 10 14  1  0
 11 15  1  0
M  RAD  1   2   2
M  END
>  <reaction>  (16) 
rxn_1850

>  <mol_properties>  (16) 
{"0": {"label": "*0", "atom_type": "S2s"}, "1": {"label": "*1", "atom_type": "Cs"}, "9": {"label": "*3", "atom_type": "Cs"}, "10": {"label": "*4", "atom_type": "S2s"}, "11": {"label": "*2", "atom_type": "H0"}}

>  <type>  (16) 
unop_12

>  <geom_source>  (16) 
Heuristics

$$$$

     RDKit          3D

 15 13  0  0  0  0  0  0  0  0999 V2000
    0.1834    1.7967   -1.4043 S   0  0  0  0  0  0  0  0  0  0  0  0
   -3.1217    0.4042   -0.3515 S   0  0  0  0  0  0  0  0  0  0  0  0
    0.5130    0.6099   -0.0670 C   0  0  0  0  0  3  0  0  0  0  0  0
    1.8668   -0.0109   -0.2384 C   0  0  0  0  0  0  0  0  0  0  0  0
    2.3040   -0.9382    0.6158 C   0  0  0  0  0  0  0  0  0  0  0  0
   -1.7331   -0.7321   -0.0830 C   0  0  0  0  0  0  0  0  0  0  0  0
    0.4651    1.1404    0.9078 H   0  0  0  0  0  0  0  0  0  0  0  0
   -0.4590   -0.3838   -0.0943 H   0  0  0  0  0  0  0  0  0  0  0  0
    2.5050    0.2858   -1.0661 H   0  0  0  0  0  0  0  0  0  0  0  0
    3.2847   -1.3825    0.4803 H   0  0  0  0  0  0  0  0  0  0  0  0
    1.6909   -1.2600    1.4525 H   0  0  0  0  0  0  0  0  0  0  0  0
   -1.8902   -1.2954    0.8600 H   0  0  0  0  0  0  0  0  0  0  0  0
   -1.6696   -1.4442   -0.9312 H   0  0  0  0  0  0  0  0  0  0  0  0
   -1.1005    2.0908   -0.9079 H   0  0  0  0  0  0  0  0  0  0  0  0
   -2.8386    1.1193    0.8274 H   0  0  0  0  0  0  0  0  0  0  0  0
  1  3  1  0
  1 14  1  0
  2  6  1  0
  2 15  1  0
  3  4  1  0
  3  7  1  0
  4  5  2  3
  4  9  1  0
  5 10  1  0
  5 11  1  0
  6  8  1  0
  6 12  1  0
  6 13  1  0
M  RAD  1   3   2
M  END
>  <reaction>  (17) 
rxn_1850

>  <mol_properties>  (17) 
{"0": {"label": "*0", "atom_type": "S2s"}, "1": {"label": "*1", "atom_type": "Cs"}, "9": {"label": "*3", "atom_type": "Cs"}, "10": {"label": "*4", "atom_type": "S2s"}, "11": {"label": "*2", "atom_type": "H0"}}

>  <type>  (17) 
unop_13

>  <geom_source>  (17) 
AutoTST

$$$$
