
     RDKit          3D

  7  6  0  0  0  0  0  0  0  0999 V2000
    1.6964   -0.0938    0.0583 C   0  0  0  0  0  0  0  0  0  0  0  0
    0.5019   -0.0278    0.0173 C   0  0  0  0  0  0  0  0  0  0  0  0
   -0.9505    0.0525   -0.0327 C   0  0  0  0  0  0  0  0  0  0  0  0
    2.7574   -0.1524    0.0947 H   0  0  0  0  0  0  0  0  0  0  0  0
   -1.2692    0.9972   -0.4754 H   0  0  0  0  0  0  0  0  0  0  0  0
   -1.3749   -0.0147    0.9700 H   0  0  0  0  0  0  0  0  0  0  0  0
   -1.3610   -0.7611   -0.6323 H   0  0  0  0  0  0  0  0  0  0  0  0
  1  2  3  0
  1  4  1  0
  2  3  1  0
  3  5  1  0
  3  6  1  0
  3  7  1  0
M  END
>  <reaction>  (1) 
rxn_1222

>  <mol_properties>  (1) 
{"2": {"label": "donator", "atom_type": "Cs"}, "4": {"label": "d_hydrogen", "atom_type": "H0"}}

>  <type>  (1) 
r1h

$$$$

     RDKit          3D

 15 14  0  0  0  0  0  0  0  0999 V2000
    2.4381    0.5770   -0.2356 C   0  0  0  0  0  0  0  0  0  0  0  0
    1.4430   -0.3367   -0.1409 C   0  0  0  0  0  0  0  0  0  0  0  0
    0.0521   -0.0957   -0.0045 C   0  0  0  0  0  3  0  0  0  0  0  0
   -0.5167    1.2867    0.0548 C   0  0  0  0  0  0  0  0  0  0  0  0
   -0.8226   -1.2147    0.0778 C   0  0  0  0  0  0  0  0  0  0  0  0
   -2.1666   -1.1669    0.2092 C   0  0  0  0  0  0  0  0  0  0  0  0
    3.4666    0.2585   -0.3369 H   0  0  0  0  0  0  0  0  0  0  0  0
    2.2594    1.6438   -0.2152 H   0  0  0  0  0  0  0  0  0  0  0  0
    1.7306   -1.3845   -0.1719 H   0  0  0  0  0  0  0  0  0  0  0  0
   -1.2300    1.4469   -0.7583 H   0  0  0  0  0  0  0  0  0  0  0  0
    0.2481    2.0557   -0.0178 H   0  0  0  0  0  0  0  0  0  0  0  0
   -1.0592    1.4421    0.9914 H   0  0  0  0  0  0  0  0  0  0  0  0
   -0.3519   -2.1929    0.0292 H   0  0  0  0  0  0  0  0  0  0  0  0
   -2.7080   -0.2310    0.2646 H   0  0  0  0  0  0  0  0  0  0  0  0
   -2.7513   -2.0751    0.2638 H   0  0  0  0  0  0  0  0  0  0  0  0
  1  2  2  3
  1  7  1  0
  1  8  1  0
  2  3  1  0
  2  9  1  0
  3  4  1  0
  3  5  1  0
  4 10  1  0
  4 11  1  0
  4 12  1  0
  5  6  2  3
  5 13  1  0
  6 14  1  0
  6 15  1  0
M  RAD  1   3   2
M  END
>  <reaction>  (2) 
rxn_1222

>  <mol_properties>  (2) 
{"2": {"label": "acceptor", "atom_type": "Cs"}}

>  <type>  (2) 
r2

$$$$

     RDKit          3D

 16 15  0  0  0  0  0  0  0  0999 V2000
    1.7961   -0.3807    1.6176 C   0  0  0  0  0  0  0  0  0  0  0  0
    0.8562   -0.8708    0.8256 C   0  0  0  0  0  0  0  0  0  0  0  0
    0.0895   -0.0826   -0.2048 C   0  0  0  0  0  0  0  0  0  0  0  0
   -1.4061   -0.1111    0.0982 C   0  0  0  0  0  0  0  0  0  0  0  0
    0.4476   -0.5902   -1.5797 C   0  0  0  0  0  0  0  0  0  0  0  0
   -0.3793   -1.1113   -2.4728 C   0  0  0  0  0  0  0  0  0  0  0  0
    2.3110   -1.0032    2.3386 H   0  0  0  0  0  0  0  0  0  0  0  0
    2.0846    0.6643    1.5737 H   0  0  0  0  0  0  0  0  0  0  0  0
    0.5921   -1.9241    0.8925 H   0  0  0  0  0  0  0  0  0  0  0  0
    0.4358    0.9557   -0.1462 H   0  0  0  0  0  0  0  0  0  0  0  0
   -1.5968    0.3080    1.0865 H   0  0  0  0  0  0  0  0  0  0  0  0
   -1.9674    0.4693   -0.6359 H   0  0  0  0  0  0  0  0  0  0  0  0
   -1.7902   -1.1338    0.0883 H   0  0  0  0  0  0  0  0  0  0  0  0
    1.5049   -0.5197   -1.8214 H   0  0  0  0  0  0  0  0  0  0  0  0
   -1.4421   -1.2131   -2.2889 H   0  0  0  0  0  0  0  0  0  0  0  0
   -0.0162   -1.4558   -3.4328 H   0  0  0  0  0  0  0  0  0  0  0  0
  1  2  2  3
  1  7  1  0
  1  8  1  0
  2  3  1  0
  2  9  1  0
  3  4  1  0
  3  5  1  0
  3 10  1  0
  4 11  1  0
  4 12  1  0
  4 13  1  0
  5  6  2  3
  5 14  1  0
  6 15  1  0
  6 16  1  0
M  END
>  <reaction>  (3) 
rxn_1222

>  <mol_properties>  (3) 
{"0": {"label": "a_hydrogen", "atom_type": "H0"}, "3": {"label": "acceptor", "atom_type": "Cs"}}

>  <type>  (3) 
r2h

$$$$

     RDKit          3D

 22 20  0  0  0  0  0  0  0  0999 V2000
   -1.6201   -1.3098   -2.5868 C   0  0  0  0  0  0  0  0  0  0  0  0
   -0.7316   -1.5542   -1.8083 C   0  0  0  0  0  0  0  0  0  0  0  0
    0.2868   -1.7729   -0.8641 C   0  0  0  0  0  3  0  0  0  0  0  0
   -2.4007   -1.1167   -3.2822 H   0  0  0  0  0  0  0  0  0  0  0  0
    0.2247   -0.6388    0.0538 H   0  0  0  0  0  0  0  0  0  0  0  0
    1.3097   -1.6677   -1.2124 H   0  0  0  0  0  0  0  0  0  0  0  0
    0.1298   -2.5833   -0.1588 H   0  0  0  0  0  0  0  0  0  0  0  0
    2.4890    0.9049    1.5706 C   0  0  0  0  0  0  0  0  0  0  0  0
    1.3012    0.3144    1.6578 C   0  0  0  0  0  0  0  0  0  0  0  0
    0.1722    0.4469    0.7100 C   0  0  0  0  0  0  0  0  0  0  0  0
    0.3159    1.4747   -0.3880 C   0  0  0  0  0  0  0  0  0  0  0  0
   -1.1540    0.3450    1.3558 C   0  0  0  0  0  0  0  0  0  0  0  0
   -2.2823    0.9154    0.9444 C   0  0  0  0  0  0  0  0  0  0  0  0
    3.2553    0.7192    2.3119 H   0  0  0  0  0  0  0  0  0  0  0  0
    2.7361    1.5986    0.7767 H   0  0  0  0  0  0  0  0  0  0  0  0
    1.1222   -0.3597    2.4921 H   0  0  0  0  0  0  0  0  0  0  0  0
   -0.4609    1.3434   -1.1414 H   0  0  0  0  0  0  0  0  0  0  0  0
    1.2770    1.3721   -0.8926 H   0  0  0  0  0  0  0  0  0  0  0  0
    0.2442    2.4892    0.0120 H   0  0  0  0  0  0  0  0  0  0  0  0
   -1.1903   -0.2924    2.2359 H   0  0  0  0  0  0  0  0  0  0  0  0
   -2.3225    1.5634    0.0782 H   0  0  0  0  0  0  0  0  0  0  0  0
   -3.2107    0.7515    1.4756 H   0  0  0  0  0  0  0  0  0  0  0  0
  1  2  3  0
  1  4  1  0
  2  3  1  0
  3  6  1  0
  3  7  1  0
  5 10  1  0
  8  9  2  3
  8 14  1  0
  8 15  1  0
  9 10  1  0
  9 16  1  0
 10 11  1  0
 10 12  1  0
 11 17  1  0
 11 18  1  0
 11 19  1  0
 12 13  2  3
 12 20  1  0
 13 21  1  0
 13 22  1  0
M  RAD  1   3   2
M  END
>  <reaction>  (4) 
rxn_1222

>  <mol_properties>  (4) 
{"1": {"label": "*4", "atom_type": "Ct"}, "2": {"label": "*3", "atom_type": "Cs"}, "4": {"label": "*2", "atom_type": "H0"}, "8": {"label": "*0", "atom_type": "Cd"}, "9": {"label": "*1", "atom_type": "Cs"}}

>  <type>  (4) 
ts

$$$$

     RDKit          3D

 22 20  0  0  0  0  0  0  0  0999 V2000
   -0.1215   -1.9105   -3.0085 C   0  0  0  0  0  0  0  0  0  0  0  0
   -0.1215   -1.9105   -1.8115 C   0  0  0  0  0  0  0  0  0  0  0  0
   -0.1215   -1.9105   -0.3561 C   0  0  0  0  0  0  0  0  0  0  0  0
   -0.1215   -1.9105   -4.0718 H   0  0  0  0  0  0  0  0  0  0  0  0
   -0.0100   -0.6909    0.1063 H   0  0  0  0  0  0  0  0  0  0  0  0
    0.7122   -2.4991    0.0293 H   0  0  0  0  0  0  0  0  0  0  0  0
   -1.0481   -2.3382    0.0293 H   0  0  0  0  0  0  0  0  0  0  0  0
   -2.3542    0.4332    1.0998 C   0  0  0  0  0  0  0  0  0  0  0  0
   -1.1234    0.8134    1.4025 C   0  0  0  0  0  0  0  0  0  0  0  0
    0.1020    0.5345    0.5710 C   0  0  0  0  0  3  0  0  0  0  0  0
    1.1175   -0.2823    1.3652 C   0  0  0  0  0  0  0  0  0  0  0  0
    0.6434    1.8384    0.0390 C   0  0  0  0  0  0  0  0  0  0  0  0
    1.8445    2.3485    0.2628 C   0  0  0  0  0  0  0  0  0  0  0  0
   -3.1937    0.6673    1.7422 H   0  0  0  0  0  0  0  0  0  0  0  0
   -2.5666   -0.1285    0.1962 H   0  0  0  0  0  0  0  0  0  0  0  0
   -0.9443    1.3782    2.3149 H   0  0  0  0  0  0  0  0  0  0  0  0
    2.0025   -0.5006    0.7652 H   0  0  0  0  0  0  0  0  0  0  0  0
    0.6746   -1.2272    1.6809 H   0  0  0  0  0  0  0  0  0  0  0  0
    1.4387    0.2532    2.2617 H   0  0  0  0  0  0  0  0  0  0  0  0
   -0.0585    2.3974   -0.5743 H   0  0  0  0  0  0  0  0  0  0  0  0
    2.5856    1.8420    0.8694 H   0  0  0  0  0  0  0  0  0  0  0  0
    2.1319    3.3021   -0.1617 H   0  0  0  0  0  0  0  0  0  0  0  0
  1  2  3  0
  1  4  1  0
  2  3  1  0
  3  5  1  0
  3  6  1  0
  3  7  1  0
  8  9  2  3
  8 14  1  0
  8 15  1  0
  9 10  1  0
  9 16  1  0
 10 11  1  0
 10 12  1  0
 11 17  1  0
 11 18  1  0
 11 19  1  0
 12 13  2  3
 12 20  1  0
 13 21  1  0
 13 22  1  0
M  RAD  1  10   2
M  END
>  <reaction>  (5) 
rxn_1222

>  <mol_properties>  (5) 
{"1": {"label": "*4", "atom_type": "Ct"}, "2": {"label": "*3", "atom_type": "Cs"}, "4": {"label": "*2", "atom_type": "H0"}, "8": {"label": "*0", "atom_type": "Cd"}, "9": {"label": "*1", "atom_type": "Cs"}}

>  <type>  (5) 
unop_1

>  <geom_source>  (5) 
Heuristics

$$$$

     RDKit          3D

 22 20  0  0  0  0  0  0  0  0999 V2000
   -0.2005   -1.9527   -2.8565 C   0  0  0  0  0  0  0  0  0  0  0  0
   -0.2005   -1.9527   -1.6595 C   0  0  0  0  0  0  0  0  0  0  0  0
   -0.2005   -1.9527   -0.2041 C   0  0  0  0  0  0  0  0  0  0  0  0
   -0.2005   -1.9527   -3.9198 H   0  0  0  0  0  0  0  0  0  0  0  0
   -0.0890   -0.7331    0.2584 H   0  0  0  0  0  0  0  0  0  0  0  0
    0.6332   -2.5412    0.1813 H   0  0  0  0  0  0  0  0  0  0  0  0
   -1.1271   -2.3804    0.1813 H   0  0  0  0  0  0  0  0  0  0  0  0
   -0.8391    1.1201   -1.5541 C   0  0  0  0  0  0  0  0  0  0  0  0
   -0.6149    1.4145   -0.2836 C   0  0  0  0  0  0  0  0  0  0  0  0
    0.0230    0.4923    0.7230 C   0  0  0  0  0  3  0  0  0  0  0  0
   -0.9303    0.2191    1.8832 C   0  0  0  0  0  0  0  0  0  0  0  0
    1.3534    1.0665    1.1432 C   0  0  0  0  0  0  0  0  0  0  0  0
    1.7156    1.4144    2.3682 C   0  0  0  0  0  0  0  0  0  0  0  0
   -1.3022    1.8306   -2.2273 H   0  0  0  0  0  0  0  0  0  0  0  0
   -0.5675    0.1545   -1.9675 H   0  0  0  0  0  0  0  0  0  0  0  0
   -0.8966    2.3931    0.0992 H   0  0  0  0  0  0  0  0  0  0  0  0
   -0.4809   -0.4595    2.6101 H   0  0  0  0  0  0  0  0  0  0  0  0
   -1.8509   -0.2335    1.5139 H   0  0  0  0  0  0  0  0  0  0  0  0
   -1.1958    1.1438    2.4007 H   0  0  0  0  0  0  0  0  0  0  0  0
    2.0565    1.2105    0.3269 H   0  0  0  0  0  0  0  0  0  0  0  0
    1.0581    1.3001    3.2216 H   0  0  0  0  0  0  0  0  0  0  0  0
    2.6971    1.8283    2.5618 H   0  0  0  0  0  0  0  0  0  0  0  0
  1  2  3  0
  1  4  1  0
  2  3  1  0
  3  5  1  0
  3  6  1  0
  3  7  1  0
  8  9  2  3
  8 14  1  0
  8 15  1  0
  9 10  1  0
  9 16  1  0
 10 11  1  0
 10 12  1  0
 11 17  1  0
 11 18  1  0
 11 19  1  0
 12 13  2  3
 12 20  1  0
 13 21  1  0
 13 22  1  0
M  RAD  1  10   2
M  END
>  <reaction>  (6) 
rxn_1222

>  <mol_properties>  (6) 
{"1": {"label": "*4", "atom_type": "Ct"}, "2": {"label": "*3", "atom_type": "Cs"}, "4": {"label": "*2", "atom_type": "H0"}, "8": {"label": "*0", "atom_type": "Cd"}, "9": {"label": "*1", "atom_type": "Cs"}}

>  <type>  (6) 
unop_2

>  <geom_source>  (6) 
Heuristics

$$$$

     RDKit          3D

 22 20  0  0  0  0  0  0  0  0999 V2000
   -0.1105   -1.9138   -3.0005 C   0  0  0  0  0  0  0  0  0  0  0  0
   -0.1105   -1.9138   -1.8035 C   0  0  0  0  0  0  0  0  0  0  0  0
   -0.1105   -1.9138   -0.3481 C   0  0  0  0  0  0  0  0  0  0  0  0
   -0.1105   -1.9138   -4.0638 H   0  0  0  0  0  0  0  0  0  0  0  0
    0.0009   -0.6942    0.1144 H   0  0  0  0  0  0  0  0  0  0  0  0
    0.7232   -2.5024    0.0373 H   0  0  0  0  0  0  0  0  0  0  0  0
   -1.0371   -2.3415    0.0373 H   0  0  0  0  0  0  0  0  0  0  0  0
   -1.6289   -0.1892    2.2432 C   0  0  0  0  0  0  0  0  0  0  0  0
   -0.6051    0.5769    1.9031 C   0  0  0  0  0  0  0  0  0  0  0  0
    0.1129    0.5312    0.5790 C   0  0  0  0  0  3  0  0  0  0  0  0
    1.5871    0.1890    0.7771 C   0  0  0  0  0  0  0  0  0  0  0  0
   -0.1235    1.8282   -0.1545 C   0  0  0  0  0  0  0  0  0  0  0  0
    0.7961    2.6949   -0.5494 C   0  0  0  0  0  0  0  0  0  0  0  0
   -2.1019   -0.1052    3.2136 H   0  0  0  0  0  0  0  0  0  0  0  0
   -2.0315   -0.9310    1.5614 H   0  0  0  0  0  0  0  0  0  0  0  0
   -0.2269    1.3134    2.6089 H   0  0  0  0  0  0  0  0  0  0  0  0
    2.1114    0.1401   -0.1787 H   0  0  0  0  0  0  0  0  0  0  0  0
    1.6847   -0.7773    1.2726 H   0  0  0  0  0  0  0  0  0  0  0  0
    2.0844    0.9365    1.3996 H   0  0  0  0  0  0  0  0  0  0  0  0
   -1.1702    2.0487   -0.3476 H   0  0  0  0  0  0  0  0  0  0  0  0
    1.8543    2.5341   -0.3816 H   0  0  0  0  0  0  0  0  0  0  0  0
    0.5176    3.6061   -1.0636 H   0  0  0  0  0  0  0  0  0  0  0  0
  1  2  3  0
  1  4  1  0
  2  3  1  0
  3  5  1  0
  3  6  1  0
  3  7  1  0
  8  9  2  3
  8 14  1  0
  8 15  1  0
  9 10  1  0
  9 16  1  0
 10 11  1  0
 10 12  1  0
 11 17  1  0
 11 18  1  0
 11 19  1  0
 12 13  2  3
 12 20  1  0
 13 21  1  0
 13 22  1  0
M  RAD  1  10   2
M  END
>  <reaction>  (7) 
rxn_1222

>  <mol_properties>  (7) 
{"1": {"label": "*4", "atom_type": "Ct"}, "2": {"label": "*3", "atom_type": "Cs"}, "4": {"label": "*2", "atom_type": "H0"}, "8": {"label": "*0", "atom_type": "Cd"}, "9": {"label": "*1", "atom_type": "Cs"}}

>  <type>  (7) 
unop_3

>  <geom_source>  (7) 
Heuristics

$$$$

     RDKit          3D

 22 20  0  0  0  0  0  0  0  0999 V2000
   -0.3860   -1.7128   -3.0455 C   0  0  0  0  0  0  0  0  0  0  0  0
   -0.3860   -1.7128   -1.8485 C   0  0  0  0  0  0  0  0  0  0  0  0
   -0.3860   -1.7128   -0.3931 C   0  0  0  0  0  0  0  0  0  0  0  0
   -0.3860   -1.7128   -4.1088 H   0  0  0  0  0  0  0  0  0  0  0  0
   -0.2746   -0.4932    0.0694 H   0  0  0  0  0  0  0  0  0  0  0  0
    0.4477   -2.3013   -0.0077 H   0  0  0  0  0  0  0  0  0  0  0  0
   -1.3126   -2.1405   -0.0077 H   0  0  0  0  0  0  0  0  0  0  0  0
    1.7140    0.9569   -1.1244 C   0  0  0  0  0  0  0  0  0  0  0  0
    1.1393    1.2904    0.0199 C   0  0  0  0  0  0  0  0  0  0  0  0
   -0.1626    0.7322    0.5340 C   0  0  0  0  0  3  0  0  0  0  0  0
   -1.1882    1.8462    0.7253 C   0  0  0  0  0  0  0  0  0  0  0  0
    0.1058   -0.0763    1.7792 C   0  0  0  0  0  0  0  0  0  0  0  0
   -0.3886    0.1416    2.9879 C   0  0  0  0  0  0  0  0  0  0  0  0
    2.6534    1.3962   -1.4360 H   0  0  0  0  0  0  0  0  0  0  0  0
    1.2636    0.2310   -1.7933 H   0  0  0  0  0  0  0  0  0  0  0  0
    1.6184    2.0196    0.6697 H   0  0  0  0  0  0  0  0  0  0  0  0
   -2.1388    1.4483    1.0843 H   0  0  0  0  0  0  0  0  0  0  0  0
   -1.3655    2.3594   -0.2201 H   0  0  0  0  0  0  0  0  0  0  0  0
   -0.8354    2.5863    1.4472 H   0  0  0  0  0  0  0  0  0  0  0  0
    0.7930   -0.9059    1.6346 H   0  0  0  0  0  0  0  0  0  0  0  0
   -1.0736    0.9546    3.1963 H   0  0  0  0  0  0  0  0  0  0  0  0
   -0.1233   -0.4970    3.8210 H   0  0  0  0  0  0  0  0  0  0  0  0
  1  2  3  0
  1  4  1  0
  2  3  1  0
  3  5  1  0
  3  6  1  0
  3  7  1  0
  8  9  2  3
  8 14  1  0
  8 15  1  0
  9 10  1  0
  9 16  1  0
 10 11  1  0
 10 12  1  0
 11 17  1  0
 11 18  1  0
 11 19  1  0
 12 13  2  3
 12 20  1  0
 13 21  1  0
 13 22  1  0
M  RAD  1  10   2
M  END
>  <reaction>  (8) 
rxn_1222

>  <mol_properties>  (8) 
{"1": {"label": "*4", "atom_type": "Ct"}, "2": {"label": "*3", "atom_type": "Cs"}, "4": {"label": "*2", "atom_type": "H0"}, "8": {"label": "*0", "atom_type": "Cd"}, "9": {"label": "*1", "atom_type": "Cs"}}

>  <type>  (8) 
unop_4

>  <geom_source>  (8) 
Heuristics

$$$$

     RDKit          3D

 22 20  0  0  0  0  0  0  0  0999 V2000
   -0.0211   -1.8703   -3.0218 C   0  0  0  0  0  0  0  0  0  0  0  0
   -0.0211   -1.8703   -1.8248 C   0  0  0  0  0  0  0  0  0  0  0  0
   -0.0211   -1.8703   -0.3693 C   0  0  0  0  0  0  0  0  0  0  0  0
   -0.0211   -1.8703   -4.0851 H   0  0  0  0  0  0  0  0  0  0  0  0
    0.0904   -0.6507    0.0931 H   0  0  0  0  0  0  0  0  0  0  0  0
    0.8126   -2.4588    0.0160 H   0  0  0  0  0  0  0  0  0  0  0  0
   -0.9477   -2.2980    0.0160 H   0  0  0  0  0  0  0  0  0  0  0  0
    0.0608   -0.6283    2.7612 C   0  0  0  0  0  0  0  0  0  0  0  0
    0.1944    0.4872    2.0620 C   0  0  0  0  0  0  0  0  0  0  0  0
    0.2024    0.5747    0.5577 C   0  0  0  0  0  3  0  0  0  0  0  0
    1.5199    1.1622    0.0592 C   0  0  0  0  0  0  0  0  0  0  0  0
   -1.0198    1.3329    0.1020 C   0  0  0  0  0  0  0  0  0  0  0  0
   -1.0406    2.4598   -0.5927 C   0  0  0  0  0  0  0  0  0  0  0  0
    0.0626   -0.6221    3.8439 H   0  0  0  0  0  0  0  0  0  0  0  0
   -0.0546   -1.5908    2.2741 H   0  0  0  0  0  0  0  0  0  0  0  0
    0.3052    1.4370    2.5810 H   0  0  0  0  0  0  0  0  0  0  0  0
    1.5393    1.2160   -1.0305 H   0  0  0  0  0  0  0  0  0  0  0  0
    2.3550    0.5430    0.3878 H   0  0  0  0  0  0  0  0  0  0  0  0
    1.6751    2.1698    0.4519 H   0  0  0  0  0  0  0  0  0  0  0  0
   -1.9628    0.8868    0.4074 H   0  0  0  0  0  0  0  0  0  0  0  0
   -0.1348    2.9550   -0.9214 H   0  0  0  0  0  0  0  0  0  0  0  0
   -1.9778    2.9300   -0.8623 H   0  0  0  0  0  0  0  0  0  0  0  0
  1  2  3  0
  1  4  1  0
  2  3  1  0
  3  5  1  0
  3  6  1  0
  3  7  1  0
  8  9  2  3
  8 14  1  0
  8 15  1  0
  9 10  1  0
  9 16  1  0
 10 11  1  0
 10 12  1  0
 11 17  1  0
 11 18  1  0
 11 19  1  0
 12 13  2  3
 12 20  1  0
 13 21  1  0
 13 22  1  0
M  RAD  1  10   2
M  END
>  <reaction>  (9) 
rxn_1222

>  <mol_properties>  (9) 
{"1": {"label": "*4", "atom_type": "Ct"}, "2": {"label": "*3", "atom_type": "Cs"}, "4": {"label": "*2", "atom_type": "H0"}, "8": {"label": "*0", "atom_type": "Cd"}, "9": {"label": "*1", "atom_type": "Cs"}}

>  <type>  (9) 
unop_5

>  <geom_source>  (9) 
Heuristics

$$$$

     RDKit          3D

 22 20  0  0  0  0  0  0  0  0999 V2000
   -0.2823   -1.6574   -3.1343 C   0  0  0  0  0  0  0  0  0  0  0  0
   -0.2823   -1.6574   -1.9373 C   0  0  0  0  0  0  0  0  0  0  0  0
   -0.2823   -1.6574   -0.4819 C   0  0  0  0  0  0  0  0  0  0  0  0
   -0.2823   -1.6574   -4.1976 H   0  0  0  0  0  0  0  0  0  0  0  0
   -0.1708   -0.4378   -0.0194 H   0  0  0  0  0  0  0  0  0  0  0  0
    0.5515   -2.2459   -0.0965 H   0  0  0  0  0  0  0  0  0  0  0  0
   -1.2088   -2.0851   -0.0965 H   0  0  0  0  0  0  0  0  0  0  0  0
    2.3642    0.6566   -0.2139 C   0  0  0  0  0  0  0  0  0  0  0  0
    1.4118    1.0752    0.6039 C   0  0  0  0  0  0  0  0  0  0  0  0
   -0.0588    0.7876    0.4452 C   0  0  0  0  0  3  0  0  0  0  0  0
   -0.8493    2.0854    0.3030 C   0  0  0  0  0  0  0  0  0  0  0  0
   -0.5153   -0.0880    1.5859 C   0  0  0  0  0  0  0  0  0  0  0  0
   -1.4458    0.1994    2.4828 C   0  0  0  0  0  0  0  0  0  0  0  0
    3.4055    0.8985   -0.0420 H   0  0  0  0  0  0  0  0  0  0  0  0
    2.1356    0.0559   -1.0880 H   0  0  0  0  0  0  0  0  0  0  0  0
    1.6747    1.6737    1.4736 H   0  0  0  0  0  0  0  0  0  0  0  0
   -1.9142    1.8853    0.1736 H   0  0  0  0  0  0  0  0  0  0  0  0
   -0.4971    2.6463   -0.5630 H   0  0  0  0  0  0  0  0  0  0  0  0
   -0.7275    2.7191    1.1846 H   0  0  0  0  0  0  0  0  0  0  0  0
    0.0070   -1.0385    1.6571 H   0  0  0  0  0  0  0  0  0  0  0  0
   -1.9971    1.1318    2.4679 H   0  0  0  0  0  0  0  0  0  0  0  0
   -1.6929   -0.4998    3.2717 H   0  0  0  0  0  0  0  0  0  0  0  0
  1  2  3  0
  1  4  1  0
  2  3  1  0
  3  5  1  0
  3  6  1  0
  3  7  1  0
  8  9  2  3
  8 14  1  0
  8 15  1  0
  9 10  1  0
  9 16  1  0
 10 11  1  0
 10 12  1  0
 11 17  1  0
 11 18  1  0
 11 19  1  0
 12 13  2  3
 12 20  1  0
 13 21  1  0
 13 22  1  0
M  RAD  1  10   2
M  END
>  <reaction>  (10) 
rxn_1222

>  <mol_properties>  (10) 
{"1": {"label": "*4", "atom_type": "Ct"}, "2": {"label": "*3", "atom_type": "Cs"}, "4": {"label": "*2", "atom_type": "H0"}, "8": {"label": "*0", "atom_type": "Cd"}, "9": {"label": "*1", "atom_type": "Cs"}}

>  <type>  (10) 
unop_6

>  <geom_source>  (10) 
Heuristics

$$$$

     RDKit          3D

 22 20  0  0  0  0  0  0  0  0999 V2000
   -0.1347   -1.6624   -3.1626 C   0  0  0  0  0  0  0  0  0  0  0  0
   -0.1347   -1.6624   -1.9655 C   0  0  0  0  0  0  0  0  0  0  0  0
   -0.1347   -1.6624   -0.5101 C   0  0  0  0  0  0  0  0  0  0  0  0
   -0.1347   -1.6624   -4.2258 H   0  0  0  0  0  0  0  0  0  0  0  0
   -0.0233   -0.4428   -0.0477 H   0  0  0  0  0  0  0  0  0  0  0  0
    0.6990   -2.2510   -0.1247 H   0  0  0  0  0  0  0  0  0  0  0  0
   -1.0613   -2.0901   -0.1247 H   0  0  0  0  0  0  0  0  0  0  0  0
    2.4663    0.1874    0.9783 C   0  0  0  0  0  0  0  0  0  0  0  0
    1.3443    0.8347    1.2485 C   0  0  0  0  0  0  0  0  0  0  0  0
    0.0887    0.7826    0.4170 C   0  0  0  0  0  3  0  0  0  0  0  0
   -0.2813    2.1746   -0.0879 C   0  0  0  0  0  0  0  0  0  0  0  0
   -1.0012    0.1078    1.2126 C   0  0  0  0  0  0  0  0  0  0  0  0
   -2.1660    0.6303    1.5636 C   0  0  0  0  0  0  0  0  0  0  0  0
    3.3352    0.2675    1.6194 H   0  0  0  0  0  0  0  0  0  0  0  0
    2.5566   -0.4471    0.1029 H   0  0  0  0  0  0  0  0  0  0  0  0
    1.2853    1.4609    2.1362 H   0  0  0  0  0  0  0  0  0  0  0  0
   -1.1822    2.1434   -0.7029 H   0  0  0  0  0  0  0  0  0  0  0  0
    0.5311    2.5840   -0.6888 H   0  0  0  0  0  0  0  0  0  0  0  0
   -0.4612    2.8599    0.7436 H   0  0  0  0  0  0  0  0  0  0  0  0
   -0.7641   -0.9053    1.5266 H   0  0  0  0  0  0  0  0  0  0  0  0
   -2.4577    1.6359    1.2856 H   0  0  0  0  0  0  0  0  0  0  0  0
   -2.8783    0.0603    2.1467 H   0  0  0  0  0  0  0  0  0  0  0  0
  1  2  3  0
  1  4  1  0
  2  3  1  0
  3  5  1  0
  3  6  1  0
  3  7  1  0
  8  9  2  3
  8 14  1  0
  8 15  1  0
  9 10  1  0
  9 16  1  0
 10 11  1  0
 10 12  1  0
 11 17  1  0
 11 18  1  0
 11 19  1  0
 12 13  2  3
 12 20  1  0
 13 21  1  0
 13 22  1  0
M  RAD  1  10   2
M  END
>  <reaction>  (11) 
rxn_1222

>  <mol_properties>  (11) 
{"1": {"label": "*4", "atom_type": "Ct"}, "2": {"label": "*3", "atom_type": "Cs"}, "4": {"label": "*2", "atom_type": "H0"}, "8": {"label": "*0", "atom_type": "Cd"}, "9": {"label": "*1", "atom_type": "Cs"}}

>  <type>  (11) 
unop_7

>  <geom_source>  (11) 
Heuristics

$$$$

     RDKit          3D

 22 20  0  0  0  0  0  0  0  0999 V2000
   -0.1007   -1.9235   -2.9786 C   0  0  0  0  0  0  0  0  0  0  0  0
   -0.1007   -1.9235   -1.7816 C   0  0  0  0  0  0  0  0  0  0  0  0
   -0.1007   -1.9235   -0.3262 C   0  0  0  0  0  0  0  0  0  0  0  0
   -0.1007   -1.9235   -4.0419 H   0  0  0  0  0  0  0  0  0  0  0  0
    0.0108   -0.7039    0.1363 H   0  0  0  0  0  0  0  0  0  0  0  0
    0.7330   -2.5121    0.0592 H   0  0  0  0  0  0  0  0  0  0  0  0
   -1.0273   -2.3512    0.0592 H   0  0  0  0  0  0  0  0  0  0  0  0
   -2.2674    0.8831   -0.0911 C   0  0  0  0  0  0  0  0  0  0  0  0
   -1.2714    1.0709    0.7596 C   0  0  0  0  0  0  0  0  0  0  0  0
    0.1228    0.5215    0.6009 C   0  0  0  0  0  3  0  0  0  0  0  0
    0.4791   -0.3902    1.7719 C   0  0  0  0  0  0  0  0  0  0  0  0
    1.0836    1.6671    0.3997 C   0  0  0  0  0  0  0  0  0  0  0  0
    2.1151    1.9812    1.1680 C   0  0  0  0  0  0  0  0  0  0  0  0
   -3.2483    1.3076    0.0822 H   0  0  0  0  0  0  0  0  0  0  0  0
   -2.1373    0.2952   -0.9936 H   0  0  0  0  0  0  0  0  0  0  0  0
   -1.4339    1.6682    1.6543 H   0  0  0  0  0  0  0  0  0  0  0  0
    1.4826   -0.8035    1.6575 H   0  0  0  0  0  0  0  0  0  0  0  0
   -0.2286   -1.2174    1.8324 H   0  0  0  0  0  0  0  0  0  0  0  0
    0.4414    0.1528    2.7191 H   0  0  0  0  0  0  0  0  0  0  0  0
    0.8663    2.2866   -0.4666 H   0  0  0  0  0  0  0  0  0  0  0  0
    2.3795    1.4061    2.0472 H   0  0  0  0  0  0  0  0  0  0  0  0
    2.7404    2.8347    0.9384 H   0  0  0  0  0  0  0  0  0  0  0  0
  1  2  3  0
  1  4  1  0
  2  3  1  0
  3  5  1  0
  3  6  1  0
  3  7  1  0
  8  9  2  3
  8 14  1  0
  8 15  1  0
  9 10  1  0
  9 16  1  0
 10 11  1  0
 10 12  1  0
 11 17  1  0
 11 18  1  0
 11 19  1  0
 12 13  2  3
 12 20  1  0
 13 21  1  0
 13 22  1  0
M  RAD  1  10   2
M  END
>  <reaction>  (12) 
rxn_1222

>  <mol_properties>  (12) 
{"1": {"label": "*4", "atom_type": "Ct"}, "2": {"label": "*3", "atom_type": "Cs"}, "4": {"label": "*2", "atom_type": "H0"}, "8": {"label": "*0", "atom_type": "Cd"}, "9": {"label": "*1", "atom_type": "Cs"}}

>  <type>  (12) 
unop_8

>  <geom_source>  (12) 
Heuristics

$$$$

     RDKit          3D

 22 20  0  0  0  0  0  0  0  0999 V2000
   -0.4037   -1.8085   -2.9349 C   0  0  0  0  0  0  0  0  0  0  0  0
   -0.4037   -1.8085   -1.7379 C   0  0  0  0  0  0  0  0  0  0  0  0
   -0.4037   -1.8085   -0.2824 C   0  0  0  0  0  0  0  0  0  0  0  0
   -0.4037   -1.8085   -3.9982 H   0  0  0  0  0  0  0  0  0  0  0  0
   -0.2923   -0.5889    0.1800 H   0  0  0  0  0  0  0  0  0  0  0  0
    0.4300   -2.3970    0.1029 H   0  0  0  0  0  0  0  0  0  0  0  0
   -1.3303   -2.2362    0.1029 H   0  0  0  0  0  0  0  0  0  0  0  0
    0.8334    1.0663   -1.6159 C   0  0  0  0  0  0  0  0  0  0  0  0
    0.6142    1.4278   -0.3620 C   0  0  0  0  0  0  0  0  0  0  0  0
   -0.1803    0.6365    0.6446 C   0  0  0  0  0  3  0  0  0  0  0  0
   -1.3748    1.4449    1.1437 C   0  0  0  0  0  0  0  0  0  0  0  0
    0.7435    0.1651    1.7404 C   0  0  0  0  0  0  0  0  0  0  0  0
    0.6543    0.4505    3.0302 C   0  0  0  0  0  0  0  0  0  0  0  0
    1.4155    1.6824   -2.2898 H   0  0  0  0  0  0  0  0  0  0  0  0
    0.4364    0.1389   -2.0150 H   0  0  0  0  0  0  0  0  0  0  0  0
    1.0290    2.3629    0.0083 H   0  0  0  0  0  0  0  0  0  0  0  0
   -1.9636    0.8734    1.8631 H   0  0  0  0  0  0  0  0  0  0  0  0
   -2.0208    1.7148    0.3079 H   0  0  0  0  0  0  0  0  0  0  0  0
   -1.0501    2.3687    1.6281 H   0  0  0  0  0  0  0  0  0  0  0  0
    1.5647   -0.4581    1.3961 H   0  0  0  0  0  0  0  0  0  0  0  0
   -0.1377    1.0700    3.4334 H   0  0  0  0  0  0  0  0  0  0  0  0
    1.3792    0.0661    3.7365 H   0  0  0  0  0  0  0  0  0  0  0  0
  1  2  3  0
  1  4  1  0
  2  3  1  0
  3  5  1  0
  3  6  1  0
  3  7  1  0
  8  9  2  3
  8 14  1  0
  8 15  1  0
  9 10  1  0
  9 16  1  0
 10 11  1  0
 10 12  1  0
 11 17  1  0
 11 18  1  0
 11 19  1  0
 12 13  2  3
 12 20  1  0
 13 21  1  0
 13 22  1  0
M  RAD  1  10   2
M  END
>  <reaction>  (13) 
rxn_1222

>  <mol_properties>  (13) 
{"1": {"label": "*4", "atom_type": "Ct"}, "2": {"label": "*3", "atom_type": "Cs"}, "4": {"label": "*2", "atom_type": "H0"}, "8": {"label": "*0", "atom_type": "Cd"}, "9": {"label": "*1", "atom_type": "Cs"}}

>  <type>  (13) 
unop_9

>  <geom_source>  (13) 
Heuristics

$$$$

     RDKit          3D

 22 20  0  0  0  0  0  0  0  0999 V2000
   -0.1167   -1.9476   -2.9144 C   0  0  0  0  0  0  0  0  0  0  0  0
   -0.1167   -1.9476   -1.7173 C   0  0  0  0  0  0  0  0  0  0  0  0
   -0.1167   -1.9476   -0.2619 C   0  0  0  0  0  0  0  0  0  0  0  0
   -0.1167   -1.9476   -3.9776 H   0  0  0  0  0  0  0  0  0  0  0  0
   -0.0052   -0.7280    0.2005 H   0  0  0  0  0  0  0  0  0  0  0  0
    0.7171   -2.5362    0.1235 H   0  0  0  0  0  0  0  0  0  0  0  0
   -1.0432   -2.3753    0.1235 H   0  0  0  0  0  0  0  0  0  0  0  0
   -1.6587    1.0993   -1.0210 C   0  0  0  0  0  0  0  0  0  0  0  0
   -1.0723    1.2823    0.1510 C   0  0  0  0  0  0  0  0  0  0  0  0
    0.1068    0.4974    0.6652 C   0  0  0  0  0  3  0  0  0  0  0  0
   -0.2498   -0.2228    1.9627 C   0  0  0  0  0  0  0  0  0  0  0  0
    1.2978    1.4163    0.7799 C   0  0  0  0  0  0  0  0  0  0  0  0
    1.9770    1.7006    1.8803 C   0  0  0  0  0  0  0  0  0  0  0  0
   -2.5045    1.6999   -1.3314 H   0  0  0  0  0  0  0  0  0  0  0  0
   -1.3134    0.3391   -1.7138 H   0  0  0  0  0  0  0  0  0  0  0  0
   -1.4411    2.0553    0.8219 H   0  0  0  0  0  0  0  0  0  0  0  0
    0.5949   -0.8051    2.3344 H   0  0  0  0  0  0  0  0  0  0  0  0
   -1.0882   -0.9000    1.7978 H   0  0  0  0  0  0  0  0  0  0  0  0
   -0.5410    0.4876    2.7399 H   0  0  0  0  0  0  0  0  0  0  0  0
    1.5904    1.8885   -0.1544 H   0  0  0  0  0  0  0  0  0  0  0  0
    1.7309    1.2663    2.8418 H   0  0  0  0  0  0  0  0  0  0  0  0
    2.8158    2.3847    1.8554 H   0  0  0  0  0  0  0  0  0  0  0  0
  1  2  3  0
  1  4  1  0
  2  3  1  0
  3  5  1  0
  3  6  1  0
  3  7  1  0
  8  9  2  3
  8 14  1  0
  8 15  1  0
  9 10  1  0
  9 16  1  0
 10 11  1  0
 10 12  1  0
 11 17  1  0
 11 18  1  0
 11 19  1  0
 12 13  2  3
 12 20  1  0
 13 21  1  0
 13 22  1  0
M  RAD  1  10   2
M  END
>  <reaction>  (14) 
rxn_1222

>  <mol_properties>  (14) 
{"1": {"label": "*4", "atom_type": "Ct"}, "2": {"label": "*3", "atom_type": "Cs"}, "4": {"label": "*2", "atom_type": "H0"}, "8": {"label": "*0", "atom_type": "Cd"}, "9": {"label": "*1", "atom_type": "Cs"}}

>  <type>  (14) 
unop_10

>  <geom_source>  (14) 
Heuristics

$$$$

     RDKit          3D

 22 20  0  0  0  0  0  0  0  0999 V2000
   -0.0117   -1.7433   -3.1125 C   0  0  0  0  0  0  0  0  0  0  0  0
   -0.0117   -1.7433   -1.9155 C   0  0  0  0  0  0  0  0  0  0  0  0
   -0.0117   -1.7433   -0.4601 C   0  0  0  0  0  0  0  0  0  0  0  0
   -0.0117   -1.7433   -4.1758 H   0  0  0  0  0  0  0  0  0  0  0  0
    0.0997   -0.5238    0.0024 H   0  0  0  0  0  0  0  0  0  0  0  0
    0.8220   -2.3319   -0.0747 H   0  0  0  0  0  0  0  0  0  0  0  0
   -0.9383   -2.1710   -0.0747 H   0  0  0  0  0  0  0  0  0  0  0  0
    1.7464   -0.3561    2.1548 C   0  0  0  0  0  0  0  0  0  0  0  0
    0.9261    0.6165    1.7911 C   0  0  0  0  0  0  0  0  0  0  0  0
    0.2117    0.7017    0.4670 C   0  0  0  0  0  3  0  0  0  0  0  0
    0.6104    1.9717   -0.2795 C   0  0  0  0  0  0  0  0  0  0  0  0
   -1.2728    0.5656    0.6988 C   0  0  0  0  0  0  0  0  0  0  0  0
   -2.2072    1.4535    0.3964 C   0  0  0  0  0  0  0  0  0  0  0  0
    2.2286   -0.3578    3.1243 H   0  0  0  0  0  0  0  0  0  0  0  0
    1.9664   -1.1875    1.4935 H   0  0  0  0  0  0  0  0  0  0  0  0
    0.7241    1.4348    2.4789 H   0  0  0  0  0  0  0  0  0  0  0  0
    0.1078    2.0341   -1.2461 H   0  0  0  0  0  0  0  0  0  0  0  0
    1.6871    1.9842   -0.4505 H   0  0  0  0  0  0  0  0  0  0  0  0
    0.3523    2.8639    0.2957 H   0  0  0  0  0  0  0  0  0  0  0  0
   -1.5673   -0.3633    1.1801 H   0  0  0  0  0  0  0  0  0  0  0  0
   -1.9762    2.3992   -0.0790 H   0  0  0  0  0  0  0  0  0  0  0  0
   -3.2499    1.2603    0.6148 H   0  0  0  0  0  0  0  0  0  0  0  0
  1  2  3  0
  1  4  1  0
  2  3  1  0
  3  5  1  0
  3  6  1  0
  3  7  1  0
  8  9  2  3
  8 14  1  0
  8 15  1  0
  9 10  1  0
  9 16  1  0
 10 11  1  0
 10 12  1  0
 11 17  1  0
 11 18  1  0
 11 19  1  0
 12 13  2  3
 12 20  1  0
 13 21  1  0
 13 22  1  0
M  RAD  1  10   2
M  END
>  <reaction>  (15) 
rxn_1222

>  <mol_properties>  (15) 
{"1": {"label": "*4", "atom_type": "Ct"}, "2": {"label": "*3", "atom_type": "Cs"}, "4": {"label": "*2", "atom_type": "H0"}, "8": {"label": "*0", "atom_type": "Cd"}, "9": {"label": "*1", "atom_type": "Cs"}}

>  <type>  (15) 
unop_11

>  <geom_source>  (15) 
Heuristics

$$$$

     RDKit          3D

 22 20  0  0  0  0  0  0  0  0999 V2000
   -0.3239   -1.9048   -2.8578 C   0  0  0  0  0  0  0  0  0  0  0  0
   -0.3239   -1.9048   -1.6608 C   0  0  0  0  0  0  0  0  0  0  0  0
   -0.3239   -1.9048   -0.2053 C   0  0  0  0  0  0  0  0  0  0  0  0
   -0.3239   -1.9048   -3.9211 H   0  0  0  0  0  0  0  0  0  0  0  0
   -0.2125   -0.6852    0.2571 H   0  0  0  0  0  0  0  0  0  0  0  0
    0.5098   -2.4934    0.1800 H   0  0  0  0  0  0  0  0  0  0  0  0
   -1.2505   -2.3325    0.1800 H   0  0  0  0  0  0  0  0  0  0  0  0
   -0.0192    1.0828   -1.7321 C   0  0  0  0  0  0  0  0  0  0  0  0
   -0.0160    1.4647   -0.4652 C   0  0  0  0  0  0  0  0  0  0  0  0
   -0.1005    0.5402    0.7217 C   0  0  0  0  0  3  0  0  0  0  0  0
   -1.3357    0.8534    1.5617 C   0  0  0  0  0  0  0  0  0  0  0  0
    1.1969    0.6043    1.4892 C   0  0  0  0  0  0  0  0  0  0  0  0
    1.3543    0.9730    2.7510 C   0  0  0  0  0  0  0  0  0  0  0  0
    0.0450    1.8003   -2.5405 H   0  0  0  0  0  0  0  0  0  0  0  0
   -0.0876    0.0355   -2.0071 H   0  0  0  0  0  0  0  0  0  0  0  0
    0.0567    2.5228   -0.2228 H   0  0  0  0  0  0  0  0  0  0  0  0
   -1.4118    0.1788    2.4161 H   0  0  0  0  0  0  0  0  0  0  0  0
   -2.2371    0.7465    0.9579 H   0  0  0  0  0  0  0  0  0  0  0  0
   -1.3052    1.8780    1.9396 H   0  0  0  0  0  0  0  0  0  0  0  0
    2.0737    0.3275    0.9097 H   0  0  0  0  0  0  0  0  0  0  0  0
    0.5205    1.2648    3.3781 H   0  0  0  0  0  0  0  0  0  0  0  0
    2.3363    0.9929    3.2065 H   0  0  0  0  0  0  0  0  0  0  0  0
  1  2  3  0
  1  4  1  0
  2  3  1  0
  3  5  1  0
  3  6  1  0
  3  7  1  0
  8  9  2  3
  8 14  1  0
  8 15  1  0
  9 10  1  0
  9 16  1  0
 10 11  1  0
 10 12  1  0
 11 17  1  0
 11 18  1  0
 11 19  1  0
 12 13  2  3
 12 20  1  0
 13 21  1  0
 13 22  1  0
M  RAD  1  10   2
M  END
>  <reaction>  (16) 
rxn_1222

>  <mol_properties>  (16) 
{"1": {"label": "*4", "atom_type": "Ct"}, "2": {"label": "*3", "atom_type": "Cs"}, "4": {"label": "*2", "atom_type": "H0"}, "8": {"label": "*0", "atom_type": "Cd"}, "9": {"label": "*1", "atom_type": "Cs"}}

>  <type>  (16) 
unop_12

>  <geom_source>  (16) 
Heuristics

$$$$

     RDKit          3D

 22 20  0  0  0  0  0  0  0  0999 V2000
   -0.4736    0.2036    0.0489 C   0  0  0  0  0  3  0  0  0  0  0  0
   -0.8026    0.8684   -1.2923 C   0  0  0  0  0  0  0  0  0  0  0  0
   -1.6227   -0.6480    0.5341 C   0  0  0  0  0  0  0  0  0  0  0  0
   -0.0746    1.2273    1.0863 C   0  0  0  0  0  0  0  0  0  0  0  0
   -1.9067   -1.8209   -0.0387 C   0  0  0  0  0  0  0  0  0  0  0  0
   -0.8962    2.1980    1.5039 C   0  0  0  0  0  0  0  0  0  0  0  0
    1.5340   -1.1474   -0.9277 C   0  0  0  0  0  0  0  0  0  0  0  0
    2.7583   -0.7858   -0.2129 C   0  0  0  0  0  0  0  0  0  0  0  0
    3.7669   -0.4876    0.3761 C   0  0  0  0  0  0  0  0  0  0  0  0
    0.5982   -0.6053   -0.1427 H   0  0  0  0  0  0  0  0  0  0  0  0
   -1.7189    1.4916   -1.2143 H   0  0  0  0  0  0  0  0  0  0  0  0
    0.0448    1.5092   -1.6164 H   0  0  0  0  0  0  0  0  0  0  0  0
   -0.9649    0.0936   -2.0709 H   0  0  0  0  0  0  0  0  0  0  0  0
   -2.2333   -0.3164    1.3697 H   0  0  0  0  0  0  0  0  0  0  0  0
    0.9237    1.1698    1.5091 H   0  0  0  0  0  0  0  0  0  0  0  0
   -1.3185   -2.1938   -0.8718 H   0  0  0  0  0  0  0  0  0  0  0  0
   -2.7350   -2.4181    0.3283 H   0  0  0  0  0  0  0  0  0  0  0  0
   -1.9041    2.2888    1.1116 H   0  0  0  0  0  0  0  0  0  0  0  0
   -0.5594    2.9089    2.2513 H   0  0  0  0  0  0  0  0  0  0  0  0
    1.7311   -1.1544   -2.0195 H   0  0  0  0  0  0  0  0  0  0  0  0
    1.2012   -2.1555   -0.6055 H   0  0  0  0  0  0  0  0  0  0  0  0
    4.6524   -0.2259    0.8933 H   0  0  0  0  0  0  0  0  0  0  0  0
  1  2  1  0
  1  3  1  0
  1  4  1  0
  2 11  1  0
  2 12  1  0
  2 13  1  0
  3  5  2  3
  3 14  1  0
  4  6  2  3
  4 15  1  0
  5 16  1  0
  5 17  1  0
  6 18  1  0
  6 19  1  0
  7  8  1  0
  7 10  1  0
  7 20  1  0
  7 21  1  0
  8  9  3  0
  9 22  1  0
M  RAD  1   1   2
M  END
>  <reaction>  (17) 
rxn_1222

>  <mol_properties>  (17) 
{"1": {"label": "*4", "atom_type": "Ct"}, "2": {"label": "*3", "atom_type": "Cs"}, "4": {"label": "*2", "atom_type": "H0"}, "8": {"label": "*0", "atom_type": "Cd"}, "9": {"label": "*1", "atom_type": "Cs"}}

>  <type>  (17) 
unop_13

>  <geom_source>  (17) 
AutoTST

$$$$

     RDKit          3D

 22 20  0  0  0  0  0  0  0  0999 V2000
   -0.2005   -1.9526   -2.8565 C   0  0  0  0  0  0  0  0  0  0  0  0
   -0.2005   -1.9526   -1.6595 C   0  0  0  0  0  0  0  0  0  0  0  0
   -0.2005   -1.9526   -0.2041 C   0  0  0  0  0  0  0  0  0  0  0  0
   -0.2005   -1.9526   -3.9198 H   0  0  0  0  0  0  0  0  0  0  0  0
   -0.0890   -0.7331    0.2584 H   0  0  0  0  0  0  0  0  0  0  0  0
    0.6332   -2.5412    0.1813 H   0  0  0  0  0  0  0  0  0  0  0  0
   -1.1271   -2.3804    0.1813 H   0  0  0  0  0  0  0  0  0  0  0  0
   -0.8391    1.1201   -1.5541 C   0  0  0  0  0  0  0  0  0  0  0  0
   -0.6149    1.4145   -0.2837 C   0  0  0  0  0  0  0  0  0  0  0  0
    0.0230    0.4923    0.7230 C   0  0  0  0  0  3  0  0  0  0  0  0
   -0.9303    0.2191    1.8832 C   0  0  0  0  0  0  0  0  0  0  0  0
    1.3534    1.0665    1.1432 C   0  0  0  0  0  0  0  0  0  0  0  0
    1.7156    1.4144    2.3682 C   0  0  0  0  0  0  0  0  0  0  0  0
   -1.3022    1.8305   -2.2273 H   0  0  0  0  0  0  0  0  0  0  0  0
   -0.5675    0.1545   -1.9675 H   0  0  0  0  0  0  0  0  0  0  0  0
   -0.8966    2.3931    0.0993 H   0  0  0  0  0  0  0  0  0  0  0  0
   -0.4809   -0.4595    2.6101 H   0  0  0  0  0  0  0  0  0  0  0  0
   -1.8509   -0.2335    1.5138 H   0  0  0  0  0  0  0  0  0  0  0  0
   -1.1958    1.1439    2.4007 H   0  0  0  0  0  0  0  0  0  0  0  0
    2.0565    1.2105    0.3269 H   0  0  0  0  0  0  0  0  0  0  0  0
    1.0581    1.3001    3.2216 H   0  0  0  0  0  0  0  0  0  0  0  0
    2.6971    1.8283    2.5618 H   0  0  0  0  0  0  0  0  0  0  0  0
  1  2  3  0
  1  4  1  0
  2  3  1  0
  3  5  1  0
  3  6  1  0
  3  7  1  0
  8  9  2  3
  8 14  1  0
  8 15  1  0
  9 10  1  0
  9 16  1  0
 10 11  1  0
 10 12  1  0
 11 17  1  0
 11 18  1  0
 11 19  1  0
 12 13  2  3
 12 20  1  0
 13 21  1  0
 13 22  1  0
M  RAD  1  10   2
M  END
>  <reaction>  (18) 
rxn_1222

>  <mol_properties>  (18) 
{"1": {"label": "*4", "atom_type": "Ct"}, "2": {"label": "*3", "atom_type": "Cs"}, "4": {"label": "*2", "atom_type": "H0"}, "8": {"label": "*0", "atom_type": "Cd"}, "9": {"label": "*1", "atom_type": "Cs"}}

>  <type>  (18) 
unop_14

>  <geom_source>  (18) 
gaussian_log

$$$$
