
     RDKit          3D

 18 18  0  0  0  0  0  0  0  0999 V2000
   -2.4852    0.3210   -0.3966 C   0  0  0  0  0  0  0  0  0  0  0  0
   -1.5917   -0.2708    0.6941 C   0  0  0  0  0  0  0  0  0  0  0  0
   -0.1292   -0.1692    0.3493 C   0  0  0  0  0  0  0  0  0  0  0  0
    0.6099    0.9558    0.7015 C   0  0  0  0  0  0  0  0  0  0  0  0
    1.9447    1.0728    0.3458 C   0  0  0  0  0  0  0  0  0  0  0  0
    2.5646    0.0613   -0.3720 C   0  0  0  0  0  0  0  0  0  0  0  0
    1.8399   -1.0657   -0.7287 C   0  0  0  0  0  0  0  0  0  0  0  0
    0.5055   -1.1769   -0.3700 C   0  0  0  0  0  0  0  0  0  0  0  0
   -2.3325   -0.1971   -1.3452 H   0  0  0  0  0  0  0  0  0  0  0  0
   -2.2554    1.3763   -0.5546 H   0  0  0  0  0  0  0  0  0  0  0  0
   -3.5397    0.2376   -0.1280 H   0  0  0  0  0  0  0  0  0  0  0  0
   -1.7801    0.2462    1.6380 H   0  0  0  0  0  0  0  0  0  0  0  0
   -1.8568   -1.3190    0.8516 H   0  0  0  0  0  0  0  0  0  0  0  0
    0.1327    1.7497    1.2656 H   0  0  0  0  0  0  0  0  0  0  0  0
    2.5033    1.9550    0.6330 H   0  0  0  0  0  0  0  0  0  0  0  0
    3.6077    0.1491   -0.6484 H   0  0  0  0  0  0  0  0  0  0  0  0
    2.3163   -1.8632   -1.2854 H   0  0  0  0  0  0  0  0  0  0  0  0
   -0.0540   -2.0629   -0.6500 H   0  0  0  0  0  0  0  0  0  0  0  0
  1  2  1  0
  1  9  1  0
  1 10  1  0
  1 11  1  0
  2  3  1  0
  2 12  1  0
  2 13  1  0
  3  4  2  0
  3  8  1  0
  4  5  1  0
  4 14  1  0
  5  6  2  0
  5 15  1  0
  6  7  1  0
  6 16  1  0
  7  8  2  0
  7 17  1  0
  8 18  1  0
M  END
>  <reaction>  (1) 
rxn_1499

>  <mol_properties>  (1) 
{"2": {"label": "donator", "atom_type": "Cs"}, "11": {"label": "d_hydrogen", "atom_type": "H0"}}

>  <type>  (1) 
r1h

$$$$

     RDKit          3D

  5  4  0  0  0  0  0  0  0  0999 V2000
   -0.5642    0.0794    0.0348 C   0  0  0  0  0  3  0  0  0  0  0  0
    1.0624    0.5420    0.2853 S   0  0  0  0  0  0  0  0  0  0  0  0
   -1.3257    0.7631    0.3741 H   0  0  0  0  0  0  0  0  0  0  0  0
   -0.8236   -0.8519   -0.4401 H   0  0  0  0  0  0  0  0  0  0  0  0
    1.6511   -0.5325   -0.2540 H   0  0  0  0  0  0  0  0  0  0  0  0
  1  2  1  0
  1  3  1  0
  1  4  1  0
  2  5  1  0
M  RAD  1   1   2
M  END
>  <reaction>  (2) 
rxn_1499

>  <mol_properties>  (2) 
{"1": {"label": "acceptor", "atom_type": "Cs"}}

>  <type>  (2) 
r2

$$$$

     RDKit          3D

  6  5  0  0  0  0  0  0  0  0999 V2000
   -0.5072   -0.0291   -0.0097 C   0  0  0  0  0  0  0  0  0  0  0  0
    1.1321   -0.1527   -0.7687 S   0  0  0  0  0  0  0  0  0  0  0  0
   -0.6174   -0.7330    0.8127 H   0  0  0  0  0  0  0  0  0  0  0  0
   -0.5863    0.9827    0.3845 H   0  0  0  0  0  0  0  0  0  0  0  0
   -1.2962   -0.1800   -0.7434 H   0  0  0  0  0  0  0  0  0  0  0  0
    1.0312   -1.4237   -1.1764 H   0  0  0  0  0  0  0  0  0  0  0  0
  1  2  1  0
  1  3  1  0
  1  4  1  0
  1  5  1  0
  2  6  1  0
M  END
>  <reaction>  (3) 
rxn_1499

>  <mol_properties>  (3) 
{"1": {"label": "acceptor", "atom_type": "Cs"}, "4": {"label": "a_hydrogen", "atom_type": "H0"}}

>  <type>  (3) 
r2h

$$$$

     RDKit          3D

 23 22  0  0  0  0  0  0  0  0999 V2000
    2.3038    0.4928    1.8535 S   0  0  0  0  0  0  0  0  0  0  0  0
    1.1639   -2.0123   -0.9416 C   0  0  0  0  0  0  0  0  0  0  0  0
    2.5736    0.8612    0.1523 C   0  0  0  0  0  3  0  0  0  0  0  0
   -0.5158   -0.1280   -0.4465 C   0  0  0  0  0  0  0  0  0  0  0  0
    0.7010   -0.5904   -1.1383 C   0  0  0  0  0  0  0  0  0  0  0  0
   -1.1178    1.0739   -0.8353 C   0  0  0  0  0  0  0  0  0  0  0  0
   -1.0596   -0.8046    0.6484 C   0  0  0  0  0  0  0  0  0  0  0  0
   -2.2144    1.5790   -0.1607 C   0  0  0  0  0  0  0  0  0  0  0  0
   -2.7424    0.8936    0.9257 C   0  0  0  0  0  0  0  0  0  0  0  0
   -2.1607   -0.3004    1.3231 C   0  0  0  0  0  0  0  0  0  0  0  0
    1.4288   -2.2021    0.1013 H   0  0  0  0  0  0  0  0  0  0  0  0
    0.3917   -2.7329   -1.2266 H   0  0  0  0  0  0  0  0  0  0  0  0
    2.0490   -2.2120   -1.5464 H   0  0  0  0  0  0  0  0  0  0  0  0
    2.3691    1.8878   -0.1390 H   0  0  0  0  0  0  0  0  0  0  0  0
    3.5509    0.5091   -0.1653 H   0  0  0  0  0  0  0  0  0  0  0  0
    1.6432    0.1253   -0.5964 H   0  0  0  0  0  0  0  0  0  0  0  0
    0.7348   -0.2618   -2.1771 H   0  0  0  0  0  0  0  0  0  0  0  0
   -0.7130    1.6148   -1.6836 H   0  0  0  0  0  0  0  0  0  0  0  0
   -2.6628    2.5102   -0.4843 H   0  0  0  0  0  0  0  0  0  0  0  0
   -0.6178   -1.7356    0.9787 H   0  0  0  0  0  0  0  0  0  0  0  0
   -3.6021    1.2856    1.4538 H   0  0  0  0  0  0  0  0  0  0  0  0
   -2.5664   -0.8458    2.1663 H   0  0  0  0  0  0  0  0  0  0  0  0
    1.0627    0.9925    1.9379 H   0  0  0  0  0  0  0  0  0  0  0  0
  1  3  1  0
  1 23  1  0
  2  5  1  0
  2 11  1  0
  2 12  1  0
  2 13  1  0
  3 14  1  0
  3 15  1  0
  4  5  1  0
  4  6  2  0
  4  7  1  0
  5 16  1  0
  5 17  1  0
  6  8  1  0
  6 18  1  0
  7 10  2  0
  7 20  1  0
  8  9  2  0
  8 19  1  0
  9 10  1  0
  9 21  1  0
 10 22  1  0
M  RAD  1   3   2
M  END
>  <reaction>  (4) 
rxn_1499

>  <mol_properties>  (4) 
{"0": {"label": "*4", "atom_type": "S2s"}, "2": {"label": "*3", "atom_type": "Cs"}, "3": {"label": "*0", "atom_type": "Cd"}, "4": {"label": "*1", "atom_type": "Cs"}, "15": {"label": "*2", "atom_type": "H0"}}

>  <type>  (4) 
ts

$$$$

     RDKit          3D

 23 22  0  0  0  0  0  0  0  0999 V2000
   -1.5490   -1.9637    0.0031 C   0  0  0  0  0  0  0  0  0  0  0  0
   -1.0725   -3.3857    1.0176 S   0  0  0  0  0  0  0  0  0  0  0  0
   -1.4430   -1.0856    0.6381 H   0  0  0  0  0  0  0  0  0  0  0  0
   -2.5853   -2.0367   -0.3202 H   0  0  0  0  0  0  0  0  0  0  0  0
   -1.2659   -4.3271    0.0858 H   0  0  0  0  0  0  0  0  0  0  0  0
    0.5505   -0.6664   -2.3957 C   0  0  0  0  0  0  0  0  0  0  0  0
    0.5505   -0.6664   -0.8666 C   0  0  0  0  0  0  0  0  0  0  0  0
    0.5505    0.7279   -0.2971 C   0  0  0  0  0  0  0  0  0  0  0  0
   -0.6441    1.3969   -0.0494 C   0  0  0  0  0  3  0  0  0  0  0  0
   -0.6473    2.6971    0.4315 C   0  0  0  0  0  0  0  0  0  0  0  0
    0.5505    3.3524    0.6733 C   0  0  0  0  0  0  0  0  0  0  0  0
    1.7483    2.6971    0.4315 C   0  0  0  0  0  0  0  0  0  0  0  0
    1.7450    1.3969   -0.0494 C   0  0  0  0  0  0  0  0  0  0  0  0
    1.4317   -0.1513   -2.7825 H   0  0  0  0  0  0  0  0  0  0  0  0
   -0.3308   -0.1513   -2.7825 H   0  0  0  0  0  0  0  0  0  0  0  0
    0.5505   -1.6848   -2.7880 H   0  0  0  0  0  0  0  0  0  0  0  0
   -0.5015   -1.3164   -0.4308 H   0  0  0  0  0  0  0  0  0  0  0  0
    1.4271   -1.2080   -0.5034 H   0  0  0  0  0  0  0  0  0  0  0  0
   -1.5850    0.8897   -0.2331 H   0  0  0  0  0  0  0  0  0  0  0  0
   -1.5881    3.1988    0.6214 H   0  0  0  0  0  0  0  0  0  0  0  0
    0.5505    4.3668    1.0517 H   0  0  0  0  0  0  0  0  0  0  0  0
    2.6890    3.1988    0.6214 H   0  0  0  0  0  0  0  0  0  0  0  0
    2.6859    0.8897   -0.2331 H   0  0  0  0  0  0  0  0  0  0  0  0
  1  2  1  0
  1  3  1  0
  1  4  1  0
  1 17  1  0
  2  5  1  0
  6  7  1  0
  6 14  1  0
  6 15  1  0
  6 16  1  0
  7  8  2  3
  7 18  1  0
  8  9  1  0
  8 13  1  0
  9 10  1  0
  9 19  1  0
 10 11  2  0
 10 20  1  0
 11 12  1  0
 11 21  1  0
 12 13  2  0
 12 22  1  0
 13 23  1  0
M  RAD  1   9   2
M  END
>  <reaction>  (5) 
rxn_1499

>  <mol_properties>  (5) 
{"0": {"label": "*4", "atom_type": "S2s"}, "2": {"label": "*3", "atom_type": "Cs"}, "3": {"label": "*0", "atom_type": "Cd"}, "4": {"label": "*1", "atom_type": "Cs"}, "15": {"label": "*2", "atom_type": "H0"}}

>  <type>  (5) 
unop_1

>  <geom_source>  (5) 
Heuristics

$$$$

     RDKit          3D

 23 22  0  0  0  0  0  0  0  0999 V2000
   -1.3400   -1.9962    0.4647 C   0  0  0  0  0  0  0  0  0  0  0  0
   -1.8391   -3.2956   -0.6933 S   0  0  0  0  0  0  0  0  0  0  0  0
   -0.7807   -2.4908    1.2571 H   0  0  0  0  0  0  0  0  0  0  0  0
   -2.2046   -1.5031    0.9040 H   0  0  0  0  0  0  0  0  0  0  0  0
   -2.4887   -2.5071   -1.5582 H   0  0  0  0  0  0  0  0  0  0  0  0
    0.7595   -0.6989   -1.9341 C   0  0  0  0  0  0  0  0  0  0  0  0
    0.7595   -0.6989   -0.4050 C   0  0  0  0  0  0  0  0  0  0  0  0
    0.7595    0.6954    0.1644 C   0  0  0  0  0  0  0  0  0  0  0  0
   -0.4350    1.3644    0.4121 C   0  0  0  0  0  3  0  0  0  0  0  0
   -0.4383    2.6646    0.8931 C   0  0  0  0  0  0  0  0  0  0  0  0
    0.7595    3.3199    1.1349 C   0  0  0  0  0  0  0  0  0  0  0  0
    1.9573    2.6646    0.8931 C   0  0  0  0  0  0  0  0  0  0  0  0
    1.9541    1.3644    0.4121 C   0  0  0  0  0  0  0  0  0  0  0  0
    1.6408   -0.1838   -2.3209 H   0  0  0  0  0  0  0  0  0  0  0  0
   -0.1217   -0.1838   -2.3209 H   0  0  0  0  0  0  0  0  0  0  0  0
    0.7595   -1.7173   -2.3264 H   0  0  0  0  0  0  0  0  0  0  0  0
   -0.2924   -1.3489    0.0307 H   0  0  0  0  0  0  0  0  0  0  0  0
    1.6362   -1.2405   -0.0419 H   0  0  0  0  0  0  0  0  0  0  0  0
   -1.3759    0.8572    0.2284 H   0  0  0  0  0  0  0  0  0  0  0  0
   -1.3790    3.1663    1.0830 H   0  0  0  0  0  0  0  0  0  0  0  0
    0.7595    4.3343    1.5132 H   0  0  0  0  0  0  0  0  0  0  0  0
    2.8981    3.1663    1.0830 H   0  0  0  0  0  0  0  0  0  0  0  0
    2.8950    0.8572    0.2284 H   0  0  0  0  0  0  0  0  0  0  0  0
  1  2  1  0
  1  3  1  0
  1  4  1  0
  1 17  1  0
  2  5  1  0
  6  7  1  0
  6 14  1  0
  6 15  1  0
  6 16  1  0
  7  8  2  3
  7 18  1  0
  8  9  1  0
  8 13  1  0
  9 10  1  0
  9 19  1  0
 10 11  2  0
 10 20  1  0
 11 12  1  0
 11 21  1  0
 12 13  2  0
 12 22  1  0
 13 23  1  0
M  RAD  1   9   2
M  END
>  <reaction>  (6) 
rxn_1499

>  <mol_properties>  (6) 
{"0": {"label": "*4", "atom_type": "S2s"}, "2": {"label": "*3", "atom_type": "Cs"}, "3": {"label": "*0", "atom_type": "Cd"}, "4": {"label": "*1", "atom_type": "Cs"}, "15": {"label": "*2", "atom_type": "H0"}}

>  <type>  (6) 
unop_2

>  <geom_source>  (6) 
Heuristics

$$$$

     RDKit          3D

 23 22  0  0  0  0  0  0  0  0999 V2000
   -1.5195   -2.0962   -0.1210 C   0  0  0  0  0  0  0  0  0  0  0  0
   -1.1929   -2.8854    1.4755 S   0  0  0  0  0  0  0  0  0  0  0  0
   -1.8886   -1.0964    0.1018 H   0  0  0  0  0  0  0  0  0  0  0  0
   -2.2832   -2.6331   -0.6798 H   0  0  0  0  0  0  0  0  0  0  0  0
   -0.7639   -4.0593    0.9962 H   0  0  0  0  0  0  0  0  0  0  0  0
    0.5800   -0.7989   -2.5198 C   0  0  0  0  0  0  0  0  0  0  0  0
    0.5800   -0.7989   -0.9907 C   0  0  0  0  0  0  0  0  0  0  0  0
    0.5800    0.5953   -0.4213 C   0  0  0  0  0  0  0  0  0  0  0  0
   -0.6145    1.2643   -0.1735 C   0  0  0  0  0  3  0  0  0  0  0  0
   -0.6178    2.5645    0.3074 C   0  0  0  0  0  0  0  0  0  0  0  0
    0.5800    3.2199    0.5492 C   0  0  0  0  0  0  0  0  0  0  0  0
    1.7778    2.5645    0.3074 C   0  0  0  0  0  0  0  0  0  0  0  0
    1.7745    1.2643   -0.1735 C   0  0  0  0  0  0  0  0  0  0  0  0
    1.4613   -0.2839   -2.9066 H   0  0  0  0  0  0  0  0  0  0  0  0
   -0.3013   -0.2839   -2.9066 H   0  0  0  0  0  0  0  0  0  0  0  0
    0.5800   -1.8174   -2.9121 H   0  0  0  0  0  0  0  0  0  0  0  0
   -0.4720   -1.4489   -0.5549 H   0  0  0  0  0  0  0  0  0  0  0  0
    1.4566   -1.3406   -0.6275 H   0  0  0  0  0  0  0  0  0  0  0  0
   -1.5554    0.7571   -0.3573 H   0  0  0  0  0  0  0  0  0  0  0  0
   -1.5586    3.0662    0.4973 H   0  0  0  0  0  0  0  0  0  0  0  0
    0.5800    4.2342    0.9276 H   0  0  0  0  0  0  0  0  0  0  0  0
    2.7186    3.0662    0.4973 H   0  0  0  0  0  0  0  0  0  0  0  0
    2.7154    0.7571   -0.3573 H   0  0  0  0  0  0  0  0  0  0  0  0
  1  2  1  0
  1  3  1  0
  1  4  1  0
  1 17  1  0
  2  5  1  0
  6  7  1  0
  6 14  1  0
  6 15  1  0
  6 16  1  0
  7  8  2  3
  7 18  1  0
  8  9  1  0
  8 13  1  0
  9 10  1  0
  9 19  1  0
 10 11  2  0
 10 20  1  0
 11 12  1  0
 11 21  1  0
 12 13  2  0
 12 22  1  0
 13 23  1  0
M  RAD  1   9   2
M  END
>  <reaction>  (7) 
rxn_1499

>  <mol_properties>  (7) 
{"0": {"label": "*4", "atom_type": "S2s"}, "2": {"label": "*3", "atom_type": "Cs"}, "3": {"label": "*0", "atom_type": "Cd"}, "4": {"label": "*1", "atom_type": "Cs"}, "15": {"label": "*2", "atom_type": "H0"}}

>  <type>  (7) 
unop_3

>  <geom_source>  (7) 
Heuristics

$$$$

     RDKit          3D

 23 22  0  0  0  0  0  0  0  0999 V2000
   -1.1266   -2.4402    0.3350 C   0  0  0  0  0  0  0  0  0  0  0  0
   -2.6619   -1.6724   -0.2408 S   0  0  0  0  0  0  0  0  0  0  0  0
   -1.3372   -3.5032    0.4412 H   0  0  0  0  0  0  0  0  0  0  0  0
   -0.8252   -2.0463    1.3034 H   0  0  0  0  0  0  0  0  0  0  0  0
   -2.2056   -0.4156   -0.3050 H   0  0  0  0  0  0  0  0  0  0  0  0
    0.9729   -1.1429   -2.0638 C   0  0  0  0  0  0  0  0  0  0  0  0
    0.9729   -1.1429   -0.5347 C   0  0  0  0  0  0  0  0  0  0  0  0
    0.9729    0.2513    0.0347 C   0  0  0  0  0  0  0  0  0  0  0  0
   -0.2216    0.9203    0.2825 C   0  0  0  0  0  3  0  0  0  0  0  0
   -0.2249    2.2205    0.7634 C   0  0  0  0  0  0  0  0  0  0  0  0
    0.9729    2.8759    1.0052 C   0  0  0  0  0  0  0  0  0  0  0  0
    2.1707    2.2205    0.7634 C   0  0  0  0  0  0  0  0  0  0  0  0
    2.1674    0.9203    0.2825 C   0  0  0  0  0  0  0  0  0  0  0  0
    1.8542   -0.6279   -2.4506 H   0  0  0  0  0  0  0  0  0  0  0  0
    0.0916   -0.6279   -2.4506 H   0  0  0  0  0  0  0  0  0  0  0  0
    0.9729   -2.1614   -2.4561 H   0  0  0  0  0  0  0  0  0  0  0  0
   -0.0790   -1.7930   -0.0989 H   0  0  0  0  0  0  0  0  0  0  0  0
    1.8496   -1.6846   -0.1715 H   0  0  0  0  0  0  0  0  0  0  0  0
   -1.1625    0.4131    0.0987 H   0  0  0  0  0  0  0  0  0  0  0  0
   -1.1657    2.7222    0.9533 H   0  0  0  0  0  0  0  0  0  0  0  0
    0.9729    3.8902    1.3836 H   0  0  0  0  0  0  0  0  0  0  0  0
    3.1115    2.7222    0.9533 H   0  0  0  0  0  0  0  0  0  0  0  0
    3.1083    0.4131    0.0987 H   0  0  0  0  0  0  0  0  0  0  0  0
  1  2  1  0
  1  3  1  0
  1  4  1  0
  1 17  1  0
  2  5  1  0
  6  7  1  0
  6 14  1  0
  6 15  1  0
  6 16  1  0
  7  8  2  3
  7 18  1  0
  8  9  1  0
  8 13  1  0
  9 10  1  0
  9 19  1  0
 10 11  2  0
 10 20  1  0
 11 12  1  0
 11 21  1  0
 12 13  2  0
 12 22  1  0
 13 23  1  0
M  RAD  1   9   2
M  END
>  <reaction>  (8) 
rxn_1499

>  <mol_properties>  (8) 
{"0": {"label": "*4", "atom_type": "S2s"}, "2": {"label": "*3", "atom_type": "Cs"}, "3": {"label": "*0", "atom_type": "Cd"}, "4": {"label": "*1", "atom_type": "Cs"}, "15": {"label": "*2", "atom_type": "H0"}}

>  <type>  (8) 
unop_4

>  <geom_source>  (8) 
Heuristics

$$$$

     RDKit          3D

 23 22  0  0  0  0  0  0  0  0999 V2000
   -1.4439   -2.2564   -0.1686 C   0  0  0  0  0  0  0  0  0  0  0  0
   -1.4966   -2.2889    1.6409 S   0  0  0  0  0  0  0  0  0  0  0  0
   -2.3391   -1.7273   -0.4913 H   0  0  0  0  0  0  0  0  0  0  0  0
   -1.4647   -3.2618   -0.5840 H   0  0  0  0  0  0  0  0  0  0  0  0
   -0.3522   -2.9575    1.8287 H   0  0  0  0  0  0  0  0  0  0  0  0
    0.6556   -0.9591   -2.5674 C   0  0  0  0  0  0  0  0  0  0  0  0
    0.6556   -0.9591   -1.0383 C   0  0  0  0  0  0  0  0  0  0  0  0
    0.6556    0.4352   -0.4689 C   0  0  0  0  0  0  0  0  0  0  0  0
   -0.5390    1.1041   -0.2212 C   0  0  0  0  0  3  0  0  0  0  0  0
   -0.5422    2.4043    0.2598 C   0  0  0  0  0  0  0  0  0  0  0  0
    0.6556    3.0597    0.5016 C   0  0  0  0  0  0  0  0  0  0  0  0
    1.8534    2.4043    0.2598 C   0  0  0  0  0  0  0  0  0  0  0  0
    1.8501    1.1041   -0.2212 C   0  0  0  0  0  0  0  0  0  0  0  0
    1.5369   -0.4440   -2.9543 H   0  0  0  0  0  0  0  0  0  0  0  0
   -0.2257   -0.4440   -2.9543 H   0  0  0  0  0  0  0  0  0  0  0  0
    0.6556   -1.9775   -2.9598 H   0  0  0  0  0  0  0  0  0  0  0  0
   -0.3964   -1.6091   -0.6026 H   0  0  0  0  0  0  0  0  0  0  0  0
    1.5322   -1.5008   -0.6752 H   0  0  0  0  0  0  0  0  0  0  0  0
   -1.4798    0.5970   -0.4049 H   0  0  0  0  0  0  0  0  0  0  0  0
   -1.4830    2.9060    0.4497 H   0  0  0  0  0  0  0  0  0  0  0  0
    0.6556    4.0740    0.8799 H   0  0  0  0  0  0  0  0  0  0  0  0
    2.7942    2.9060    0.4497 H   0  0  0  0  0  0  0  0  0  0  0  0
    2.7910    0.5970   -0.4049 H   0  0  0  0  0  0  0  0  0  0  0  0
  1  2  1  0
  1  3  1  0
  1  4  1  0
  1 17  1  0
  2  5  1  0
  6  7  1  0
  6 14  1  0
  6 15  1  0
  6 16  1  0
  7  8  2  3
  7 18  1  0
  8  9  1  0
  8 13  1  0
  9 10  1  0
  9 19  1  0
 10 11  2  0
 10 20  1  0
 11 12  1  0
 11 21  1  0
 12 13  2  0
 12 22  1  0
 13 23  1  0
M  RAD  1   9   2
M  END
>  <reaction>  (9) 
rxn_1499

>  <mol_properties>  (9) 
{"0": {"label": "*4", "atom_type": "S2s"}, "2": {"label": "*3", "atom_type": "Cs"}, "3": {"label": "*0", "atom_type": "Cd"}, "4": {"label": "*1", "atom_type": "Cs"}, "15": {"label": "*2", "atom_type": "H0"}}

>  <type>  (9) 
unop_5

>  <geom_source>  (9) 
Heuristics

$$$$

     RDKit          3D

 23 22  0  0  0  0  0  0  0  0999 V2000
   -1.1549   -2.5105    0.1646 C   0  0  0  0  0  0  0  0  0  0  0  0
   -2.5707   -1.4032    0.3839 S   0  0  0  0  0  0  0  0  0  0  0  0
   -1.5650   -3.5128    0.0521 H   0  0  0  0  0  0  0  0  0  0  0  0
   -0.5023   -2.4967    1.0350 H   0  0  0  0  0  0  0  0  0  0  0  0
   -1.8754   -0.2652    0.5000 H   0  0  0  0  0  0  0  0  0  0  0  0
    0.9446   -1.2132   -2.2342 C   0  0  0  0  0  0  0  0  0  0  0  0
    0.9446   -1.2132   -0.7051 C   0  0  0  0  0  0  0  0  0  0  0  0
    0.9446    0.1811   -0.1357 C   0  0  0  0  0  0  0  0  0  0  0  0
   -0.2500    0.8500    0.1121 C   0  0  0  0  0  3  0  0  0  0  0  0
   -0.2532    2.1502    0.5930 C   0  0  0  0  0  0  0  0  0  0  0  0
    0.9446    2.8056    0.8348 C   0  0  0  0  0  0  0  0  0  0  0  0
    2.1424    2.1502    0.5930 C   0  0  0  0  0  0  0  0  0  0  0  0
    2.1391    0.8500    0.1121 C   0  0  0  0  0  0  0  0  0  0  0  0
    1.8259   -0.6981   -2.6210 H   0  0  0  0  0  0  0  0  0  0  0  0
    0.0633   -0.6981   -2.6210 H   0  0  0  0  0  0  0  0  0  0  0  0
    0.9446   -2.2316   -2.6265 H   0  0  0  0  0  0  0  0  0  0  0  0
   -0.1074   -1.8632   -0.2693 H   0  0  0  0  0  0  0  0  0  0  0  0
    1.8212   -1.7549   -0.3419 H   0  0  0  0  0  0  0  0  0  0  0  0
   -1.1908    0.3429   -0.0717 H   0  0  0  0  0  0  0  0  0  0  0  0
   -1.1940    2.6519    0.7829 H   0  0  0  0  0  0  0  0  0  0  0  0
    0.9446    3.8199    1.2132 H   0  0  0  0  0  0  0  0  0  0  0  0
    3.0832    2.6519    0.7829 H   0  0  0  0  0  0  0  0  0  0  0  0
    3.0800    0.3429   -0.0717 H   0  0  0  0  0  0  0  0  0  0  0  0
  1  2  1  0
  1  3  1  0
  1  4  1  0
  1 17  1  0
  2  5  1  0
  6  7  1  0
  6 14  1  0
  6 15  1  0
  6 16  1  0
  7  8  2  3
  7 18  1  0
  8  9  1  0
  8 13  1  0
  9 10  1  0
  9 19  1  0
 10 11  2  0
 10 20  1  0
 11 12  1  0
 11 21  1  0
 12 13  2  0
 12 22  1  0
 13 23  1  0
M  RAD  1   9   2
M  END
>  <reaction>  (10) 
rxn_1499

>  <mol_properties>  (10) 
{"0": {"label": "*4", "atom_type": "S2s"}, "2": {"label": "*3", "atom_type": "Cs"}, "3": {"label": "*0", "atom_type": "Cd"}, "4": {"label": "*1", "atom_type": "Cs"}, "15": {"label": "*2", "atom_type": "H0"}}

>  <type>  (10) 
unop_6

>  <geom_source>  (10) 
Heuristics

$$$$

     RDKit          3D

 23 22  0  0  0  0  0  0  0  0999 V2000
   -1.2330   -2.4976   -0.0046 C   0  0  0  0  0  0  0  0  0  0  0  0
   -2.2917   -1.4353    1.0098 S   0  0  0  0  0  0  0  0  0  0  0  0
   -1.8652   -3.3099   -0.3597 H   0  0  0  0  0  0  0  0  0  0  0  0
   -0.4185   -2.9201    0.5801 H   0  0  0  0  0  0  0  0  0  0  0  0
   -1.3580   -0.5333    1.3365 H   0  0  0  0  0  0  0  0  0  0  0  0
    0.8665   -1.2003   -2.4034 C   0  0  0  0  0  0  0  0  0  0  0  0
    0.8665   -1.2003   -0.8743 C   0  0  0  0  0  0  0  0  0  0  0  0
    0.8665    0.1939   -0.3049 C   0  0  0  0  0  0  0  0  0  0  0  0
   -0.3281    0.8629   -0.0571 C   0  0  0  0  0  3  0  0  0  0  0  0
   -0.3313    2.1631    0.4238 C   0  0  0  0  0  0  0  0  0  0  0  0
    0.8665    2.8184    0.6656 C   0  0  0  0  0  0  0  0  0  0  0  0
    2.0643    2.1631    0.4238 C   0  0  0  0  0  0  0  0  0  0  0  0
    2.0610    0.8629   -0.0571 C   0  0  0  0  0  0  0  0  0  0  0  0
    1.7477   -0.6853   -2.7902 H   0  0  0  0  0  0  0  0  0  0  0  0
   -0.0148   -0.6853   -2.7902 H   0  0  0  0  0  0  0  0  0  0  0  0
    0.8665   -2.2188   -2.7957 H   0  0  0  0  0  0  0  0  0  0  0  0
   -0.1855   -1.8504   -0.4385 H   0  0  0  0  0  0  0  0  0  0  0  0
    1.7431   -1.7420   -0.5112 H   0  0  0  0  0  0  0  0  0  0  0  0
   -1.2690    0.3557   -0.2409 H   0  0  0  0  0  0  0  0  0  0  0  0
   -1.2721    2.6648    0.6137 H   0  0  0  0  0  0  0  0  0  0  0  0
    0.8665    3.8328    1.0439 H   0  0  0  0  0  0  0  0  0  0  0  0
    3.0051    2.6648    0.6137 H   0  0  0  0  0  0  0  0  0  0  0  0
    3.0019    0.3557   -0.2409 H   0  0  0  0  0  0  0  0  0  0  0  0
  1  2  1  0
  1  3  1  0
  1  4  1  0
  1 17  1  0
  2  5  1  0
  6  7  1  0
  6 14  1  0
  6 15  1  0
  6 16  1  0
  7  8  2  3
  7 18  1  0
  8  9  1  0
  8 13  1  0
  9 10  1  0
  9 19  1  0
 10 11  2  0
 10 20  1  0
 11 12  1  0
 11 21  1  0
 12 13  2  0
 12 22  1  0
 13 23  1  0
M  RAD  1   9   2
M  END
>  <reaction>  (11) 
rxn_1499

>  <mol_properties>  (11) 
{"0": {"label": "*4", "atom_type": "S2s"}, "2": {"label": "*3", "atom_type": "Cs"}, "3": {"label": "*0", "atom_type": "Cd"}, "4": {"label": "*1", "atom_type": "Cs"}, "15": {"label": "*2", "atom_type": "H0"}}

>  <type>  (11) 
unop_7

>  <geom_source>  (11) 
Heuristics

$$$$

     RDKit          3D

 23 22  0  0  0  0  0  0  0  0999 V2000
   -1.5226   -1.8932    0.1723 C   0  0  0  0  0  0  0  0  0  0  0  0
   -1.1657   -3.6547    0.3916 S   0  0  0  0  0  0  0  0  0  0  0  0
   -1.1024   -1.3856    1.0390 H   0  0  0  0  0  0  0  0  0  0  0  0
   -2.5940   -1.7062    0.1446 H   0  0  0  0  0  0  0  0  0  0  0  0
   -1.7437   -4.0834   -0.7371 H   0  0  0  0  0  0  0  0  0  0  0  0
    0.5769   -0.5959   -2.2265 C   0  0  0  0  0  0  0  0  0  0  0  0
    0.5769   -0.5959   -0.6974 C   0  0  0  0  0  0  0  0  0  0  0  0
    0.5769    0.7984   -0.1280 C   0  0  0  0  0  0  0  0  0  0  0  0
   -0.6176    1.4673    0.1197 C   0  0  0  0  0  3  0  0  0  0  0  0
   -0.6209    2.7676    0.6007 C   0  0  0  0  0  0  0  0  0  0  0  0
    0.5769    3.4229    0.8425 C   0  0  0  0  0  0  0  0  0  0  0  0
    1.7747    2.7676    0.6007 C   0  0  0  0  0  0  0  0  0  0  0  0
    1.7714    1.4673    0.1197 C   0  0  0  0  0  0  0  0  0  0  0  0
    1.4582   -0.0808   -2.6134 H   0  0  0  0  0  0  0  0  0  0  0  0
   -0.3044   -0.0808   -2.6134 H   0  0  0  0  0  0  0  0  0  0  0  0
    0.5769   -1.6143   -2.6188 H   0  0  0  0  0  0  0  0  0  0  0  0
   -0.4750   -1.2459   -0.2617 H   0  0  0  0  0  0  0  0  0  0  0  0
    1.4536   -1.1376   -0.3343 H   0  0  0  0  0  0  0  0  0  0  0  0
   -1.5585    0.9602   -0.0640 H   0  0  0  0  0  0  0  0  0  0  0  0
   -1.5617    3.2693    0.7906 H   0  0  0  0  0  0  0  0  0  0  0  0
    0.5769    4.4373    1.2208 H   0  0  0  0  0  0  0  0  0  0  0  0
    2.7155    3.2693    0.7906 H   0  0  0  0  0  0  0  0  0  0  0  0
    2.7123    0.9602   -0.0640 H   0  0  0  0  0  0  0  0  0  0  0  0
  1  2  1  0
  1  3  1  0
  1  4  1  0
  1 17  1  0
  2  5  1  0
  6  7  1  0
  6 14  1  0
  6 15  1  0
  6 16  1  0
  7  8  2  3
  7 18  1  0
  8  9  1  0
  8 13  1  0
  9 10  1  0
  9 19  1  0
 10 11  2  0
 10 20  1  0
 11 12  1  0
 11 21  1  0
 12 13  2  0
 12 22  1  0
 13 23  1  0
M  RAD  1   9   2
M  END
>  <reaction>  (12) 
rxn_1499

>  <mol_properties>  (12) 
{"0": {"label": "*4", "atom_type": "S2s"}, "2": {"label": "*3", "atom_type": "Cs"}, "3": {"label": "*0", "atom_type": "Cd"}, "4": {"label": "*1", "atom_type": "Cs"}, "15": {"label": "*2", "atom_type": "H0"}}

>  <type>  (12) 
unop_8

>  <geom_source>  (12) 
Heuristics

$$$$

     RDKit          3D

 23 22  0  0  0  0  0  0  0  0999 V2000
   -1.1553   -2.3059    0.4609 C   0  0  0  0  0  0  0  0  0  0  0  0
   -2.5407   -2.1709   -0.6970 S   0  0  0  0  0  0  0  0  0  0  0  0
   -1.1194   -3.3478    0.7749 H   0  0  0  0  0  0  0  0  0  0  0  0
   -1.3104   -1.6825    1.3391 H   0  0  0  0  0  0  0  0  0  0  0  0
   -2.4162   -0.8631   -0.9538 H   0  0  0  0  0  0  0  0  0  0  0  0
    0.9442   -1.0086   -1.9379 C   0  0  0  0  0  0  0  0  0  0  0  0
    0.9442   -1.0086   -0.4088 C   0  0  0  0  0  0  0  0  0  0  0  0
    0.9442    0.3857    0.1607 C   0  0  0  0  0  0  0  0  0  0  0  0
   -0.2503    1.0546    0.4084 C   0  0  0  0  0  3  0  0  0  0  0  0
   -0.2536    2.3549    0.8893 C   0  0  0  0  0  0  0  0  0  0  0  0
    0.9442    3.0102    1.1311 C   0  0  0  0  0  0  0  0  0  0  0  0
    2.1420    2.3549    0.8893 C   0  0  0  0  0  0  0  0  0  0  0  0
    2.1387    1.0546    0.4084 C   0  0  0  0  0  0  0  0  0  0  0  0
    1.8255   -0.4935   -2.3247 H   0  0  0  0  0  0  0  0  0  0  0  0
    0.0629   -0.4935   -2.3247 H   0  0  0  0  0  0  0  0  0  0  0  0
    0.9442   -2.0270   -2.3302 H   0  0  0  0  0  0  0  0  0  0  0  0
   -0.1078   -1.6586    0.0270 H   0  0  0  0  0  0  0  0  0  0  0  0
    1.8208   -1.5503   -0.0456 H   0  0  0  0  0  0  0  0  0  0  0  0
   -1.1912    0.5475    0.2247 H   0  0  0  0  0  0  0  0  0  0  0  0
   -1.1944    2.8566    1.0792 H   0  0  0  0  0  0  0  0  0  0  0  0
    0.9442    4.0246    1.5095 H   0  0  0  0  0  0  0  0  0  0  0  0
    3.0828    2.8566    1.0792 H   0  0  0  0  0  0  0  0  0  0  0  0
    3.0796    0.5475    0.2247 H   0  0  0  0  0  0  0  0  0  0  0  0
  1  2  1  0
  1  3  1  0
  1  4  1  0
  1 17  1  0
  2  5  1  0
  6  7  1  0
  6 14  1  0
  6 15  1  0
  6 16  1  0
  7  8  2  3
  7 18  1  0
  8  9  1  0
  8 13  1  0
  9 10  1  0
  9 19  1  0
 10 11  2  0
 10 20  1  0
 11 12  1  0
 11 21  1  0
 12 13  2  0
 12 22  1  0
 13 23  1  0
M  RAD  1   9   2
M  END
>  <reaction>  (13) 
rxn_1499

>  <mol_properties>  (13) 
{"0": {"label": "*4", "atom_type": "S2s"}, "2": {"label": "*3", "atom_type": "Cs"}, "3": {"label": "*0", "atom_type": "Cd"}, "4": {"label": "*1", "atom_type": "Cs"}, "15": {"label": "*2", "atom_type": "H0"}}

>  <type>  (13) 
unop_9

>  <geom_source>  (13) 
Heuristics

$$$$

     RDKit          3D

 23 22  0  0  0  0  0  0  0  0999 V2000
   -1.4461   -1.9047    0.3414 C   0  0  0  0  0  0  0  0  0  0  0  0
   -1.4462   -3.6213   -0.2345 S   0  0  0  0  0  0  0  0  0  0  0  0
   -0.8608   -1.8900    1.2593 H   0  0  0  0  0  0  0  0  0  0  0  0
   -2.4539   -1.5615    0.5652 H   0  0  0  0  0  0  0  0  0  0  0  0
   -2.1902   -3.4291   -1.3306 H   0  0  0  0  0  0  0  0  0  0  0  0
    0.6534   -0.6074   -2.0574 C   0  0  0  0  0  0  0  0  0  0  0  0
    0.6534   -0.6074   -0.5283 C   0  0  0  0  0  0  0  0  0  0  0  0
    0.6534    0.7869    0.0411 C   0  0  0  0  0  0  0  0  0  0  0  0
   -0.5411    1.4558    0.2888 C   0  0  0  0  0  3  0  0  0  0  0  0
   -0.5444    2.7560    0.7698 C   0  0  0  0  0  0  0  0  0  0  0  0
    0.6534    3.4114    1.0116 C   0  0  0  0  0  0  0  0  0  0  0  0
    1.8513    2.7560    0.7698 C   0  0  0  0  0  0  0  0  0  0  0  0
    1.8480    1.4558    0.2888 C   0  0  0  0  0  0  0  0  0  0  0  0
    1.5347   -0.0924   -2.4442 H   0  0  0  0  0  0  0  0  0  0  0  0
   -0.2278   -0.0924   -2.4442 H   0  0  0  0  0  0  0  0  0  0  0  0
    0.6534   -1.6258   -2.4497 H   0  0  0  0  0  0  0  0  0  0  0  0
   -0.3985   -1.2574   -0.0925 H   0  0  0  0  0  0  0  0  0  0  0  0
    1.5301   -1.1491   -0.1652 H   0  0  0  0  0  0  0  0  0  0  0  0
   -1.4820    0.9486    0.1051 H   0  0  0  0  0  0  0  0  0  0  0  0
   -1.4851    3.2577    0.9597 H   0  0  0  0  0  0  0  0  0  0  0  0
    0.6534    4.4257    1.3899 H   0  0  0  0  0  0  0  0  0  0  0  0
    2.7920    3.2577    0.9597 H   0  0  0  0  0  0  0  0  0  0  0  0
    2.7889    0.9486    0.1051 H   0  0  0  0  0  0  0  0  0  0  0  0
  1  2  1  0
  1  3  1  0
  1  4  1  0
  1 17  1  0
  2  5  1  0
  6  7  1  0
  6 14  1  0
  6 15  1  0
  6 16  1  0
  7  8  2  3
  7 18  1  0
  8  9  1  0
  8 13  1  0
  9 10  1  0
  9 19  1  0
 10 11  2  0
 10 20  1  0
 11 12  1  0
 11 21  1  0
 12 13  2  0
 12 22  1  0
 13 23  1  0
M  RAD  1   9   2
M  END
>  <reaction>  (14) 
rxn_1499

>  <mol_properties>  (14) 
{"0": {"label": "*4", "atom_type": "S2s"}, "2": {"label": "*3", "atom_type": "Cs"}, "3": {"label": "*0", "atom_type": "Cd"}, "4": {"label": "*1", "atom_type": "Cs"}, "15": {"label": "*2", "atom_type": "H0"}}

>  <type>  (14) 
unop_10

>  <geom_source>  (14) 
Heuristics

$$$$

     RDKit          3D

 23 22  0  0  0  0  0  0  0  0999 V2000
   -1.3396   -2.4044   -0.1268 C   0  0  0  0  0  0  0  0  0  0  0  0
   -1.8993   -1.7592    1.4697 S   0  0  0  0  0  0  0  0  0  0  0  0
   -2.2331   -2.7371   -0.6526 H   0  0  0  0  0  0  0  0  0  0  0  0
   -0.6734   -3.2551    0.0008 H   0  0  0  0  0  0  0  0  0  0  0  0
   -0.6948   -1.4156    1.9418 H   0  0  0  0  0  0  0  0  0  0  0  0
    0.7599   -1.1071   -2.5256 C   0  0  0  0  0  0  0  0  0  0  0  0
    0.7599   -1.1071   -0.9965 C   0  0  0  0  0  0  0  0  0  0  0  0
    0.7599    0.2872   -0.4271 C   0  0  0  0  0  0  0  0  0  0  0  0
   -0.4346    0.9561   -0.1794 C   0  0  0  0  0  3  0  0  0  0  0  0
   -0.4379    2.2563    0.3016 C   0  0  0  0  0  0  0  0  0  0  0  0
    0.7599    2.9117    0.5433 C   0  0  0  0  0  0  0  0  0  0  0  0
    1.9577    2.2563    0.3016 C   0  0  0  0  0  0  0  0  0  0  0  0
    1.9544    0.9561   -0.1794 C   0  0  0  0  0  0  0  0  0  0  0  0
    1.6412   -0.5921   -2.9125 H   0  0  0  0  0  0  0  0  0  0  0  0
   -0.1214   -0.5921   -2.9125 H   0  0  0  0  0  0  0  0  0  0  0  0
    0.7599   -2.1255   -2.9180 H   0  0  0  0  0  0  0  0  0  0  0  0
   -0.2921   -1.7571   -0.5608 H   0  0  0  0  0  0  0  0  0  0  0  0
    1.6365   -1.6488   -0.6334 H   0  0  0  0  0  0  0  0  0  0  0  0
   -1.3755    0.4489   -0.3631 H   0  0  0  0  0  0  0  0  0  0  0  0
   -1.3787    2.7580    0.4915 H   0  0  0  0  0  0  0  0  0  0  0  0
    0.7599    3.9260    0.9217 H   0  0  0  0  0  0  0  0  0  0  0  0
    2.8985    2.7580    0.4915 H   0  0  0  0  0  0  0  0  0  0  0  0
    2.8953    0.4489   -0.3631 H   0  0  0  0  0  0  0  0  0  0  0  0
  1  2  1  0
  1  3  1  0
  1  4  1  0
  1 17  1  0
  2  5  1  0
  6  7  1  0
  6 14  1  0
  6 15  1  0
  6 16  1  0
  7  8  2  3
  7 18  1  0
  8  9  1  0
  8 13  1  0
  9 10  1  0
  9 19  1  0
 10 11  2  0
 10 20  1  0
 11 12  1  0
 11 21  1  0
 12 13  2  0
 12 22  1  0
 13 23  1  0
M  RAD  1   9   2
M  END
>  <reaction>  (15) 
rxn_1499

>  <mol_properties>  (15) 
{"0": {"label": "*4", "atom_type": "S2s"}, "2": {"label": "*3", "atom_type": "Cs"}, "3": {"label": "*0", "atom_type": "Cd"}, "4": {"label": "*1", "atom_type": "Cs"}, "15": {"label": "*2", "atom_type": "H0"}}

>  <type>  (15) 
unop_11

>  <geom_source>  (15) 
Heuristics

$$$$

     RDKit          3D

 23 22  0  0  0  0  0  0  0  0999 V2000
   -1.2334   -2.1432    0.5085 C   0  0  0  0  0  0  0  0  0  0  0  0
   -2.2395   -2.7649   -0.8625 S   0  0  0  0  0  0  0  0  0  0  0  0
   -0.8977   -3.0181    1.0629 H   0  0  0  0  0  0  0  0  0  0  0  0
   -1.8176   -1.5117    1.1745 H   0  0  0  0  0  0  0  0  0  0  0  0
   -2.5425   -1.5765   -1.3988 H   0  0  0  0  0  0  0  0  0  0  0  0
    0.8661   -0.8459   -1.8903 C   0  0  0  0  0  0  0  0  0  0  0  0
    0.8661   -0.8459   -0.3612 C   0  0  0  0  0  0  0  0  0  0  0  0
    0.8661    0.5484    0.2082 C   0  0  0  0  0  0  0  0  0  0  0  0
   -0.3284    1.2173    0.4560 C   0  0  0  0  0  3  0  0  0  0  0  0
   -0.3317    2.5175    0.9369 C   0  0  0  0  0  0  0  0  0  0  0  0
    0.8661    3.1729    1.1787 C   0  0  0  0  0  0  0  0  0  0  0  0
    2.0639    2.5175    0.9369 C   0  0  0  0  0  0  0  0  0  0  0  0
    2.0607    1.2173    0.4560 C   0  0  0  0  0  0  0  0  0  0  0  0
    1.7474   -0.3309   -2.2771 H   0  0  0  0  0  0  0  0  0  0  0  0
   -0.0152   -0.3309   -2.2771 H   0  0  0  0  0  0  0  0  0  0  0  0
    0.8661   -1.8643   -2.2826 H   0  0  0  0  0  0  0  0  0  0  0  0
   -0.1858   -1.4959    0.0746 H   0  0  0  0  0  0  0  0  0  0  0  0
    1.7428   -1.3876    0.0019 H   0  0  0  0  0  0  0  0  0  0  0  0
   -1.2693    0.7101    0.2722 H   0  0  0  0  0  0  0  0  0  0  0  0
   -1.2725    3.0192    1.1268 H   0  0  0  0  0  0  0  0  0  0  0  0
    0.8661    4.1872    1.5570 H   0  0  0  0  0  0  0  0  0  0  0  0
    3.0047    3.0192    1.1268 H   0  0  0  0  0  0  0  0  0  0  0  0
    3.0015    0.7101    0.2722 H   0  0  0  0  0  0  0  0  0  0  0  0
  1  2  1  0
  1  3  1  0
  1  4  1  0
  1 17  1  0
  2  5  1  0
  6  7  1  0
  6 14  1  0
  6 15  1  0
  6 16  1  0
  7  8  2  3
  7 18  1  0
  8  9  1  0
  8 13  1  0
  9 10  1  0
  9 19  1  0
 10 11  2  0
 10 20  1  0
 11 12  1  0
 11 21  1  0
 12 13  2  0
 12 22  1  0
 13 23  1  0
M  RAD  1   9   2
M  END
>  <reaction>  (16) 
rxn_1499

>  <mol_properties>  (16) 
{"0": {"label": "*4", "atom_type": "S2s"}, "2": {"label": "*3", "atom_type": "Cs"}, "3": {"label": "*0", "atom_type": "Cd"}, "4": {"label": "*1", "atom_type": "Cs"}, "15": {"label": "*2", "atom_type": "H0"}}

>  <type>  (16) 
unop_12

>  <geom_source>  (16) 
Heuristics

$$$$

     RDKit          3D

 23 22  0  0  0  0  0  0  0  0999 V2000
    2.8869    1.6224    1.9524 S   0  0  0  0  0  0  0  0  0  0  0  0
    0.7680   -1.7844   -1.4437 C   0  0  0  0  0  0  0  0  0  0  0  0
    2.8437    0.7872    0.3418 C   0  0  0  0  0  0  0  0  0  0  0  0
   -0.6087   -0.1918   -0.1027 C   0  0  0  0  0  0  0  0  0  0  0  0
    0.7786   -0.5668   -0.5286 C   0  0  0  0  0  0  0  0  0  0  0  0
   -1.4410    0.5574   -0.9501 C   0  0  0  0  0  3  0  0  0  0  0  0
   -1.0920   -0.6202    1.1416 C   0  0  0  0  0  0  0  0  0  0  0  0
   -2.7403    0.8834   -0.5480 C   0  0  0  0  0  0  0  0  0  0  0  0
   -3.2152    0.4596    0.6969 C   0  0  0  0  0  0  0  0  0  0  0  0
   -2.3920   -0.2924    1.5406 C   0  0  0  0  0  0  0  0  0  0  0  0
    0.2965   -2.6466   -0.9263 H   0  0  0  0  0  0  0  0  0  0  0  0
    0.2091   -1.5619   -2.3776 H   0  0  0  0  0  0  0  0  0  0  0  0
    1.8119   -2.0550   -1.7057 H   0  0  0  0  0  0  0  0  0  0  0  0
    2.9581    1.5359   -0.4692 H   0  0  0  0  0  0  0  0  0  0  0  0
    3.6692    0.0481    0.2832 H   0  0  0  0  0  0  0  0  0  0  0  0
    1.7117    0.1771    0.2050 H   0  0  0  0  0  0  0  0  0  0  0  0
    1.2829    0.2894   -1.0268 H   0  0  0  0  0  0  0  0  0  0  0  0
   -1.0838    0.8863   -1.9182 H   0  0  0  0  0  0  0  0  0  0  0  0
   -3.3794    1.4626   -1.2018 H   0  0  0  0  0  0  0  0  0  0  0  0
   -0.4633   -1.2068    1.8001 H   0  0  0  0  0  0  0  0  0  0  0  0
   -4.2211    0.7119    1.0067 H   0  0  0  0  0  0  0  0  0  0  0  0
   -2.7617   -0.6227    2.5027 H   0  0  0  0  0  0  0  0  0  0  0  0
    4.1817    2.1275    1.7275 H   0  0  0  0  0  0  0  0  0  0  0  0
  1  3  1  0
  1 23  1  0
  2  5  1  0
  2 11  1  0
  2 12  1  0
  2 13  1  0
  3 14  1  0
  3 15  1  0
  3 16  1  0
  4  5  2  3
  4  6  1  0
  4  7  1  0
  5 17  1  0
  6  8  1  0
  6 18  1  0
  7 10  2  0
  7 20  1  0
  8  9  2  0
  8 19  1  0
  9 10  1  0
  9 21  1  0
 10 22  1  0
M  RAD  1   6   2
M  END
>  <reaction>  (17) 
rxn_1499

>  <mol_properties>  (17) 
{"0": {"label": "*4", "atom_type": "S2s"}, "2": {"label": "*3", "atom_type": "Cs"}, "3": {"label": "*0", "atom_type": "Cd"}, "4": {"label": "*1", "atom_type": "Cs"}, "15": {"label": "*2", "atom_type": "H0"}}

>  <type>  (17) 
unop_13

>  <geom_source>  (17) 
AutoTST

$$$$
