
     RDKit          3D

 16 15  0  0  0  0  0  0  0  0999 V2000
    1.7961   -0.3807    1.6176 C   0  0  0  0  0  0  0  0  0  0  0  0
    0.8562   -0.8708    0.8256 C   0  0  0  0  0  0  0  0  0  0  0  0
    0.0895   -0.0826   -0.2048 C   0  0  0  0  0  0  0  0  0  0  0  0
   -1.4061   -0.1111    0.0982 C   0  0  0  0  0  0  0  0  0  0  0  0
    0.4476   -0.5902   -1.5797 C   0  0  0  0  0  0  0  0  0  0  0  0
   -0.3793   -1.1113   -2.4728 C   0  0  0  0  0  0  0  0  0  0  0  0
    2.3110   -1.0032    2.3386 H   0  0  0  0  0  0  0  0  0  0  0  0
    2.0846    0.6643    1.5737 H   0  0  0  0  0  0  0  0  0  0  0  0
    0.5921   -1.9241    0.8925 H   0  0  0  0  0  0  0  0  0  0  0  0
    0.4358    0.9557   -0.1462 H   0  0  0  0  0  0  0  0  0  0  0  0
   -1.5968    0.3080    1.0865 H   0  0  0  0  0  0  0  0  0  0  0  0
   -1.9674    0.4693   -0.6359 H   0  0  0  0  0  0  0  0  0  0  0  0
   -1.7902   -1.1338    0.0883 H   0  0  0  0  0  0  0  0  0  0  0  0
    1.5049   -0.5197   -1.8214 H   0  0  0  0  0  0  0  0  0  0  0  0
   -1.4421   -1.2131   -2.2889 H   0  0  0  0  0  0  0  0  0  0  0  0
   -0.0162   -1.4558   -3.4328 H   0  0  0  0  0  0  0  0  0  0  0  0
  1  2  2  3
  1  7  1  0
  1  8  1  0
  2  3  1  0
  2  9  1  0
  3  4  1  0
  3  5  1  0
  3 10  1  0
  4 11  1  0
  4 12  1  0
  4 13  1  0
  5  6  2  3
  5 14  1  0
  6 15  1  0
  6 16  1  0
M  END
>  <reaction>  (1) 
rxn_1180

>  <mol_properties>  (1) 
{"2": {"label": "donator", "atom_type": "Cs"}, "9": {"label": "d_hydrogen", "atom_type": "H0"}}

>  <type>  (1) 
r1h

$$$$

     RDKit          3D

 12 11  0  0  0  0  0  0  0  0999 V2000
    2.5164   -0.5559   -0.0242 C   0  0  0  0  0  0  0  0  0  0  0  0
    1.3287   -0.2938   -0.0132 C   0  0  0  0  0  0  0  0  0  0  0  0
   -0.0146    0.0027   -0.0006 C   0  0  0  0  0  3  0  0  0  0  0  0
   -1.0396   -1.0729   -0.1642 C   0  0  0  0  0  0  0  0  0  0  0  0
   -0.4887    1.4091    0.1769 C   0  0  0  0  0  0  0  0  0  0  0  0
    3.5543   -0.7850   -0.0339 H   0  0  0  0  0  0  0  0  0  0  0  0
   -1.7064   -1.1056    0.7044 H   0  0  0  0  0  0  0  0  0  0  0  0
   -0.5831   -2.0533   -0.2854 H   0  0  0  0  0  0  0  0  0  0  0  0
   -1.6716   -0.8741   -1.0367 H   0  0  0  0  0  0  0  0  0  0  0  0
   -1.0951    1.7228   -0.6798 H   0  0  0  0  0  0  0  0  0  0  0  0
    0.3401    2.1059    0.2861 H   0  0  0  0  0  0  0  0  0  0  0  0
   -1.1300    1.4913    1.0613 H   0  0  0  0  0  0  0  0  0  0  0  0
  1  2  3  0
  1  6  1  0
  2  3  1  0
  3  4  1  0
  3  5  1  0
  4  7  1  0
  4  8  1  0
  4  9  1  0
  5 10  1  0
  5 11  1  0
  5 12  1  0
M  RAD  1   3   2
M  END
>  <reaction>  (2) 
rxn_1180

>  <mol_properties>  (2) 
{"2": {"label": "acceptor", "atom_type": "Cs"}}

>  <type>  (2) 
r2

$$$$

     RDKit          3D

 13 12  0  0  0  0  0  0  0  0999 V2000
    2.2975   -0.6134    0.7685 C   0  0  0  0  0  0  0  0  0  0  0  0
    1.1676   -0.5248    0.3802 C   0  0  0  0  0  0  0  0  0  0  0  0
   -0.2109   -0.3926   -0.0948 C   0  0  0  0  0  0  0  0  0  0  0  0
   -0.2501    0.2584   -1.4808 C   0  0  0  0  0  0  0  0  0  0  0  0
   -1.0633    0.3831    0.9141 C   0  0  0  0  0  0  0  0  0  0  0  0
    3.2999   -0.6974    1.1133 H   0  0  0  0  0  0  0  0  0  0  0  0
   -0.6209   -1.4038   -0.1814 H   0  0  0  0  0  0  0  0  0  0  0  0
    0.3402   -0.3102   -2.1992 H   0  0  0  0  0  0  0  0  0  0  0  0
    0.1511    1.2724   -1.4369 H   0  0  0  0  0  0  0  0  0  0  0  0
   -1.2791    0.3109   -1.8407 H   0  0  0  0  0  0  0  0  0  0  0  0
   -0.6861    1.4008    1.0287 H   0  0  0  0  0  0  0  0  0  0  0  0
   -1.0492   -0.0971    1.8924 H   0  0  0  0  0  0  0  0  0  0  0  0
   -2.0971    0.4363    0.5680 H   0  0  0  0  0  0  0  0  0  0  0  0
  1  2  3  0
  1  6  1  0
  2  3  1  0
  3  4  1  0
  3  5  1  0
  3  7  1  0
  4  8  1  0
  4  9  1  0
  4 10  1  0
  5 11  1  0
  5 12  1  0
  5 13  1  0
M  END
>  <reaction>  (3) 
rxn_1180

>  <mol_properties>  (3) 
{"2": {"label": "acceptor", "atom_type": "Cs"}, "12": {"label": "a_hydrogen", "atom_type": "H0"}}

>  <type>  (3) 
r2h

$$$$

     RDKit          3D

 28 26  0  0  0  0  0  0  0  0999 V2000
    2.2316    1.7944   -1.3692 C   0  0  0  0  0  0  0  0  0  0  0  0
    1.0805    1.6371   -1.0494 C   0  0  0  0  0  0  0  0  0  0  0  0
   -0.2607    1.4000   -0.6497 C   0  0  0  0  0  3  0  0  0  0  0  0
   -1.2534    1.1519   -1.7605 C   0  0  0  0  0  0  0  0  0  0  0  0
   -0.7670    2.2106    0.5196 C   0  0  0  0  0  0  0  0  0  0  0  0
    3.2434    1.9429   -1.6596 H   0  0  0  0  0  0  0  0  0  0  0  0
   -2.1787    0.7400   -1.3509 H   0  0  0  0  0  0  0  0  0  0  0  0
   -0.8527    0.4528   -2.4947 H   0  0  0  0  0  0  0  0  0  0  0  0
   -1.5014    2.0836   -2.2780 H   0  0  0  0  0  0  0  0  0  0  0  0
   -1.0284    3.2255    0.2026 H   0  0  0  0  0  0  0  0  0  0  0  0
   -0.0136    2.2867    1.3033 H   0  0  0  0  0  0  0  0  0  0  0  0
   -1.6612    1.7463    0.9402 H   0  0  0  0  0  0  0  0  0  0  0  0
    1.3978   -2.3022   -1.1337 C   0  0  0  0  0  0  0  0  0  0  0  0
    0.1925   -1.9190   -0.7196 C   0  0  0  0  0  0  0  0  0  0  0  0
   -0.1108   -1.0732    0.4506 C   0  0  0  0  0  0  0  0  0  0  0  0
    1.0105   -0.8400    1.4359 C   0  0  0  0  0  0  0  0  0  0  0  0
   -1.4615   -1.2886    1.0031 C   0  0  0  0  0  0  0  0  0  0  0  0
   -1.8462   -1.1327    2.2684 C   0  0  0  0  0  0  0  0  0  0  0  0
    1.5112   -2.8990   -2.0293 H   0  0  0  0  0  0  0  0  0  0  0  0
    2.3038   -2.0434   -0.6008 H   0  0  0  0  0  0  0  0  0  0  0  0
   -0.6716   -2.2185   -1.3080 H   0  0  0  0  0  0  0  0  0  0  0  0
   -0.1984    0.0943   -0.0965 H   0  0  0  0  0  0  0  0  0  0  0  0
    1.8994   -0.4684    0.9258 H   0  0  0  0  0  0  0  0  0  0  0  0
    0.7278   -0.0930    2.1779 H   0  0  0  0  0  0  0  0  0  0  0  0
    1.2710   -1.7629    1.9605 H   0  0  0  0  0  0  0  0  0  0  0  0
   -2.2116   -1.5881    0.2746 H   0  0  0  0  0  0  0  0  0  0  0  0
   -1.1573   -0.8500    3.0545 H   0  0  0  0  0  0  0  0  0  0  0  0
   -2.8754   -1.2996    2.5584 H   0  0  0  0  0  0  0  0  0  0  0  0
  1  2  3  0
  1  6  1  0
  2  3  1  0
  3  4  1  0
  3  5  1  0
  4  7  1  0
  4  8  1  0
  4  9  1  0
  5 10  1  0
  5 11  1  0
  5 12  1  0
 13 14  2  3
 13 19  1  0
 13 20  1  0
 14 15  1  0
 14 21  1  0
 15 16  1  0
 15 17  1  0
 15 22  1  0
 16 23  1  0
 16 24  1  0
 16 25  1  0
 17 18  2  3
 17 26  1  0
 18 27  1  0
 18 28  1  0
M  RAD  1   3   2
M  END
>  <reaction>  (4) 
rxn_1180

>  <mol_properties>  (4) 
{"1": {"label": "*4", "atom_type": "Ct"}, "2": {"label": "*3", "atom_type": "Cs"}, "13": {"label": "*0", "atom_type": "Cd"}, "14": {"label": "*1", "atom_type": "Cs"}, "21": {"label": "*2", "atom_type": "H0"}}

>  <type>  (4) 
ts

$$$$

     RDKit          3D

 28 26  0  0  0  0  0  0  0  0999 V2000
   -1.8906    2.5542   -0.4946 C   0  0  0  0  0  0  0  0  0  0  0  0
   -0.9149    1.8927   -0.7087 C   0  0  0  0  0  0  0  0  0  0  0  0
    0.2901    1.1045   -0.9731 C   0  0  0  0  0  0  0  0  0  0  0  0
    1.3605    1.3716    0.0895 C   0  0  0  0  0  0  0  0  0  0  0  0
    0.8201    1.3753   -2.3844 C   0  0  0  0  0  0  0  0  0  0  0  0
   -2.7566    3.1413   -0.3046 H   0  0  0  0  0  0  0  0  0  0  0  0
    2.2355    0.7459   -0.0951 H   0  0  0  0  0  0  0  0  0  0  0  0
    0.9845    1.1561    1.0895 H   0  0  0  0  0  0  0  0  0  0  0  0
    1.6730    2.4169    0.0610 H   0  0  0  0  0  0  0  0  0  0  0  0
    1.1167    2.4207   -2.4859 H   0  0  0  0  0  0  0  0  0  0  0  0
    0.0612    1.1623   -3.1372 H   0  0  0  0  0  0  0  0  0  0  0  0
    1.6920    0.7495   -2.5833 H   0  0  0  0  0  0  0  0  0  0  0  0
    0.2169   -2.2136   -1.5691 C   0  0  0  0  0  0  0  0  0  0  0  0
    0.2169   -2.2136   -0.2459 C   0  0  0  0  0  0  0  0  0  0  0  0
    0.2169   -0.9828    0.6235 C   0  0  0  0  0  3  0  0  0  0  0  0
    1.4553   -0.9530    1.5151 C   0  0  0  0  0  0  0  0  0  0  0  0
   -1.0866   -0.9142    1.3800 C   0  0  0  0  0  0  0  0  0  0  0  0
   -1.2412   -0.9140    2.6949 C   0  0  0  0  0  0  0  0  0  0  0  0
    0.2162   -3.1362   -2.1359 H   0  0  0  0  0  0  0  0  0  0  0  0
    0.2187   -1.2878   -2.1349 H   0  0  0  0  0  0  0  0  0  0  0  0
    0.2122   -3.1594    0.2917 H   0  0  0  0  0  0  0  0  0  0  0  0
    0.2535    0.0615   -0.1753 H   0  0  0  0  0  0  0  0  0  0  0  0
    2.3581   -0.9614    0.9038 H   0  0  0  0  0  0  0  0  0  0  0  0
    1.4700   -0.0573    2.1382 H   0  0  0  0  0  0  0  0  0  0  0  0
    1.4879   -1.8248    2.1727 H   0  0  0  0  0  0  0  0  0  0  0  0
   -1.9697   -0.8785    0.7475 H   0  0  0  0  0  0  0  0  0  0  0  0
   -0.4008   -0.9533    3.3775 H   0  0  0  0  0  0  0  0  0  0  0  0
   -2.2276   -0.8709    3.1392 H   0  0  0  0  0  0  0  0  0  0  0  0
  1  2  3  0
  1  6  1  0
  2  3  1  0
  3  4  1  0
  3  5  1  0
  3 22  1  0
  4  7  1  0
  4  8  1  0
  4  9  1  0
  5 10  1  0
  5 11  1  0
  5 12  1  0
 13 14  2  3
 13 19  1  0
 13 20  1  0
 14 15  1  0
 14 21  1  0
 15 16  1  0
 15 17  1  0
 16 23  1  0
 16 24  1  0
 16 25  1  0
 17 18  2  3
 17 26  1  0
 18 27  1  0
 18 28  1  0
M  RAD  1  15   2
M  END
>  <reaction>  (5) 
rxn_1180

>  <mol_properties>  (5) 
{"1": {"label": "*4", "atom_type": "Ct"}, "2": {"label": "*3", "atom_type": "Cs"}, "13": {"label": "*0", "atom_type": "Cd"}, "14": {"label": "*1", "atom_type": "Cs"}, "21": {"label": "*2", "atom_type": "H0"}}

>  <type>  (5) 
unop_1

>  <geom_source>  (5) 
Heuristics

$$$$

     RDKit          3D

 28 26  0  0  0  0  0  0  0  0999 V2000
   -0.9384    0.6050   -2.9679 C   0  0  0  0  0  0  0  0  0  0  0  0
   -0.3826    0.8984   -1.9479 C   0  0  0  0  0  0  0  0  0  0  0  0
    0.2940    1.2800   -0.7070 C   0  0  0  0  0  0  0  0  0  0  0  0
   -0.6416    2.0868    0.1985 C   0  0  0  0  0  0  0  0  0  0  0  0
    1.5865    2.0465   -1.0041 C   0  0  0  0  0  0  0  0  0  0  0  0
   -1.4316    0.3446   -3.8732 H   0  0  0  0  0  0  0  0  0  0  0  0
   -0.1391    2.3269    1.1371 H   0  0  0  0  0  0  0  0  0  0  0  0
   -1.5494    1.5274    0.4242 H   0  0  0  0  0  0  0  0  0  0  0  0
   -0.9290    3.0212   -0.2867 H   0  0  0  0  0  0  0  0  0  0  0  0
    1.3649    2.9798   -1.5247 H   0  0  0  0  0  0  0  0  0  0  0  0
    2.2574    1.4586   -1.6303 H   0  0  0  0  0  0  0  0  0  0  0  0
    2.1020    2.2864   -0.0724 H   0  0  0  0  0  0  0  0  0  0  0  0
    0.2209   -2.0380   -1.3030 C   0  0  0  0  0  0  0  0  0  0  0  0
    0.2209   -2.0380    0.0202 C   0  0  0  0  0  0  0  0  0  0  0  0
    0.2209   -0.8072    0.8896 C   0  0  0  0  0  3  0  0  0  0  0  0
    1.4593   -0.7775    1.7812 C   0  0  0  0  0  0  0  0  0  0  0  0
   -1.0826   -0.7387    1.6461 C   0  0  0  0  0  0  0  0  0  0  0  0
   -1.2372   -0.7384    2.9610 C   0  0  0  0  0  0  0  0  0  0  0  0
    0.2202   -2.9606   -1.8698 H   0  0  0  0  0  0  0  0  0  0  0  0
    0.2227   -1.1122   -1.8687 H   0  0  0  0  0  0  0  0  0  0  0  0
    0.2162   -2.9838    0.5578 H   0  0  0  0  0  0  0  0  0  0  0  0
    0.2575    0.2371    0.0908 H   0  0  0  0  0  0  0  0  0  0  0  0
    2.3620   -0.7858    1.1699 H   0  0  0  0  0  0  0  0  0  0  0  0
    1.4740    0.1183    2.4043 H   0  0  0  0  0  0  0  0  0  0  0  0
    1.4919   -1.6492    2.4388 H   0  0  0  0  0  0  0  0  0  0  0  0
   -1.9658   -0.7029    1.0136 H   0  0  0  0  0  0  0  0  0  0  0  0
   -0.3969   -0.7778    3.6436 H   0  0  0  0  0  0  0  0  0  0  0  0
   -2.2236   -0.6953    3.4053 H   0  0  0  0  0  0  0  0  0  0  0  0
  1  2  3  0
  1  6  1  0
  2  3  1  0
  3  4  1  0
  3  5  1  0
  3 22  1  0
  4  7  1  0
  4  8  1  0
  4  9  1  0
  5 10  1  0
  5 11  1  0
  5 12  1  0
 13 14  2  3
 13 19  1  0
 13 20  1  0
 14 15  1  0
 14 21  1  0
 15 16  1  0
 15 17  1  0
 16 23  1  0
 16 24  1  0
 16 25  1  0
 17 18  2  3
 17 26  1  0
 18 27  1  0
 18 28  1  0
M  RAD  1  15   2
M  END
>  <reaction>  (6) 
rxn_1180

>  <mol_properties>  (6) 
{"1": {"label": "*4", "atom_type": "Ct"}, "2": {"label": "*3", "atom_type": "Cs"}, "13": {"label": "*0", "atom_type": "Cd"}, "14": {"label": "*1", "atom_type": "Cs"}, "21": {"label": "*2", "atom_type": "H0"}}

>  <type>  (6) 
unop_2

>  <geom_source>  (6) 
Heuristics

$$$$

     RDKit          3D

 28 26  0  0  0  0  0  0  0  0999 V2000
   -1.0539    3.0762    0.2468 C   0  0  0  0  0  0  0  0  0  0  0  0
   -0.4937    2.1705   -0.3022 C   0  0  0  0  0  0  0  0  0  0  0  0
    0.2040    1.0797   -0.9854 C   0  0  0  0  0  0  0  0  0  0  0  0
    1.7018    1.1059   -0.6662 C   0  0  0  0  0  0  0  0  0  0  0  0
   -0.0493    1.1314   -2.4952 C   0  0  0  0  0  0  0  0  0  0  0  0
   -1.5511    3.8799    0.7340 H   0  0  0  0  0  0  0  0  0  0  0  0
    2.2017    0.2627   -1.1463 H   0  0  0  0  0  0  0  0  0  0  0  0
    1.8761    1.0466    0.4081 H   0  0  0  0  0  0  0  0  0  0  0  0
    2.1537    2.0286   -1.0342 H   0  0  0  0  0  0  0  0  0  0  0  0
    0.3509    2.0549   -2.9172 H   0  0  0  0  0  0  0  0  0  0  0  0
   -1.1156    1.0901   -2.7167 H   0  0  0  0  0  0  0  0  0  0  0  0
    0.4404    0.2884   -2.9859 H   0  0  0  0  0  0  0  0  0  0  0  0
    0.1308   -2.2384   -1.5815 C   0  0  0  0  0  0  0  0  0  0  0  0
    0.1308   -2.2384   -0.2582 C   0  0  0  0  0  0  0  0  0  0  0  0
    0.1308   -1.0076    0.6112 C   0  0  0  0  0  3  0  0  0  0  0  0
    1.3692   -0.9778    1.5028 C   0  0  0  0  0  0  0  0  0  0  0  0
   -1.1727   -0.9390    1.3677 C   0  0  0  0  0  0  0  0  0  0  0  0
   -1.3273   -0.9388    2.6826 C   0  0  0  0  0  0  0  0  0  0  0  0
    0.1301   -3.1610   -2.1482 H   0  0  0  0  0  0  0  0  0  0  0  0
    0.1326   -1.3126   -2.1472 H   0  0  0  0  0  0  0  0  0  0  0  0
    0.1261   -3.1842    0.2794 H   0  0  0  0  0  0  0  0  0  0  0  0
    0.1674    0.0368   -0.1876 H   0  0  0  0  0  0  0  0  0  0  0  0
    2.2720   -0.9862    0.8915 H   0  0  0  0  0  0  0  0  0  0  0  0
    1.3839   -0.0820    2.1259 H   0  0  0  0  0  0  0  0  0  0  0  0
    1.4018   -1.8496    2.1604 H   0  0  0  0  0  0  0  0  0  0  0  0
   -2.0559   -0.9033    0.7352 H   0  0  0  0  0  0  0  0  0  0  0  0
   -0.4870   -0.9781    3.3652 H   0  0  0  0  0  0  0  0  0  0  0  0
   -2.3137   -0.8957    3.1269 H   0  0  0  0  0  0  0  0  0  0  0  0
  1  2  3  0
  1  6  1  0
  2  3  1  0
  3  4  1  0
  3  5  1  0
  3 22  1  0
  4  7  1  0
  4  8  1  0
  4  9  1  0
  5 10  1  0
  5 11  1  0
  5 12  1  0
 13 14  2  3
 13 19  1  0
 13 20  1  0
 14 15  1  0
 14 21  1  0
 15 16  1  0
 15 17  1  0
 16 23  1  0
 16 24  1  0
 16 25  1  0
 17 18  2  3
 17 26  1  0
 18 27  1  0
 18 28  1  0
M  RAD  1  15   2
M  END
>  <reaction>  (7) 
rxn_1180

>  <mol_properties>  (7) 
{"1": {"label": "*4", "atom_type": "Ct"}, "2": {"label": "*3", "atom_type": "Cs"}, "13": {"label": "*0", "atom_type": "Cd"}, "14": {"label": "*1", "atom_type": "Cs"}, "21": {"label": "*2", "atom_type": "H0"}}

>  <type>  (7) 
unop_3

>  <geom_source>  (7) 
Heuristics

$$$$

     RDKit          3D

 28 26  0  0  0  0  0  0  0  0999 V2000
    2.1906    1.0623   -2.2459 C   0  0  0  0  0  0  0  0  0  0  0  0
    1.1837    1.1267   -1.5998 C   0  0  0  0  0  0  0  0  0  0  0  0
   -0.0453    1.2294   -0.8110 C   0  0  0  0  0  0  0  0  0  0  0  0
   -1.1445    1.9427   -1.6042 C   0  0  0  0  0  0  0  0  0  0  0  0
    0.2221    1.9244    0.5275 C   0  0  0  0  0  0  0  0  0  0  0  0
    3.0842    1.0051   -2.8192 H   0  0  0  0  0  0  0  0  0  0  0  0
   -2.0668    1.9735   -1.0214 H   0  0  0  0  0  0  0  0  0  0  0  0
   -1.3456    1.4310   -2.5453 H   0  0  0  0  0  0  0  0  0  0  0  0
   -0.8465    2.9679   -1.8308 H   0  0  0  0  0  0  0  0  0  0  0  0
    0.5605    2.9490    0.3638 H   0  0  0  0  0  0  0  0  0  0  0  0
    0.9893    1.3996    1.0968 H   0  0  0  0  0  0  0  0  0  0  0  0
   -0.6922    1.9550    1.1227 H   0  0  0  0  0  0  0  0  0  0  0  0
   -0.1185   -2.0887   -1.4070 C   0  0  0  0  0  0  0  0  0  0  0  0
   -0.1185   -2.0887   -0.0838 C   0  0  0  0  0  0  0  0  0  0  0  0
   -0.1185   -0.8579    0.7856 C   0  0  0  0  0  3  0  0  0  0  0  0
    1.1199   -0.8281    1.6772 C   0  0  0  0  0  0  0  0  0  0  0  0
   -1.4220   -0.7893    1.5421 C   0  0  0  0  0  0  0  0  0  0  0  0
   -1.5766   -0.7891    2.8570 C   0  0  0  0  0  0  0  0  0  0  0  0
   -0.1192   -3.0113   -1.9737 H   0  0  0  0  0  0  0  0  0  0  0  0
   -0.1167   -1.1629   -1.9727 H   0  0  0  0  0  0  0  0  0  0  0  0
   -0.1232   -3.0345    0.4538 H   0  0  0  0  0  0  0  0  0  0  0  0
   -0.0819    0.1864   -0.0132 H   0  0  0  0  0  0  0  0  0  0  0  0
    2.0227   -0.8365    1.0660 H   0  0  0  0  0  0  0  0  0  0  0  0
    1.1346    0.0676    2.3003 H   0  0  0  0  0  0  0  0  0  0  0  0
    1.1525   -1.6999    2.3348 H   0  0  0  0  0  0  0  0  0  0  0  0
   -2.3052   -0.7536    0.9096 H   0  0  0  0  0  0  0  0  0  0  0  0
   -0.7363   -0.8284    3.5396 H   0  0  0  0  0  0  0  0  0  0  0  0
   -2.5630   -0.7460    3.3013 H   0  0  0  0  0  0  0  0  0  0  0  0
  1  2  3  0
  1  6  1  0
  2  3  1  0
  3  4  1  0
  3  5  1  0
  3 22  1  0
  4  7  1  0
  4  8  1  0
  4  9  1  0
  5 10  1  0
  5 11  1  0
  5 12  1  0
 13 14  2  3
 13 19  1  0
 13 20  1  0
 14 15  1  0
 14 21  1  0
 15 16  1  0
 15 17  1  0
 16 23  1  0
 16 24  1  0
 16 25  1  0
 17 18  2  3
 17 26  1  0
 18 27  1  0
 18 28  1  0
M  RAD  1  15   2
M  END
>  <reaction>  (8) 
rxn_1180

>  <mol_properties>  (8) 
{"1": {"label": "*4", "atom_type": "Ct"}, "2": {"label": "*3", "atom_type": "Cs"}, "13": {"label": "*0", "atom_type": "Cd"}, "14": {"label": "*1", "atom_type": "Cs"}, "21": {"label": "*2", "atom_type": "H0"}}

>  <type>  (8) 
unop_4

>  <geom_source>  (8) 
Heuristics

$$$$

     RDKit          3D

 28 26  0  0  0  0  0  0  0  0999 V2000
    0.1627    3.2558    0.5579 C   0  0  0  0  0  0  0  0  0  0  0  0
    0.1623    2.2683   -0.1205 C   0  0  0  0  0  0  0  0  0  0  0  0
    0.1624    1.0754   -0.9692 C   0  0  0  0  0  0  0  0  0  0  0  0
    1.4475    0.9966   -1.7989 C   0  0  0  0  0  0  0  0  0  0  0  0
   -1.0837    1.0391   -1.8592 C   0  0  0  0  0  0  0  0  0  0  0  0
    0.1631    4.1322    1.1600 H   0  0  0  0  0  0  0  0  0  0  0  0
    1.4536    0.0813   -2.3935 H   0  0  0  0  0  0  0  0  0  0  0  0
    2.3297    1.0005   -1.1590 H   0  0  0  0  0  0  0  0  0  0  0  0
    1.5154    1.8483   -2.4779 H   0  0  0  0  0  0  0  0  0  0  0  0
   -1.0905    1.8921   -2.5400 H   0  0  0  0  0  0  0  0  0  0  0  0
   -1.9947    1.0732   -1.2620 H   0  0  0  0  0  0  0  0  0  0  0  0
   -1.0922    0.1241   -2.4542 H   0  0  0  0  0  0  0  0  0  0  0  0
    0.0893   -2.2427   -1.5652 C   0  0  0  0  0  0  0  0  0  0  0  0
    0.0893   -2.2427   -0.2420 C   0  0  0  0  0  0  0  0  0  0  0  0
    0.0893   -1.0119    0.6274 C   0  0  0  0  0  3  0  0  0  0  0  0
    1.3276   -0.9821    1.5190 C   0  0  0  0  0  0  0  0  0  0  0  0
   -1.2143   -0.9433    1.3839 C   0  0  0  0  0  0  0  0  0  0  0  0
   -1.3689   -0.9431    2.6989 C   0  0  0  0  0  0  0  0  0  0  0  0
    0.0885   -3.1653   -2.1319 H   0  0  0  0  0  0  0  0  0  0  0  0
    0.0910   -1.3169   -2.1309 H   0  0  0  0  0  0  0  0  0  0  0  0
    0.0845   -3.1885    0.2956 H   0  0  0  0  0  0  0  0  0  0  0  0
    0.1259    0.0324   -0.1714 H   0  0  0  0  0  0  0  0  0  0  0  0
    2.2304   -0.9905    0.9078 H   0  0  0  0  0  0  0  0  0  0  0  0
    1.3423   -0.0864    2.1421 H   0  0  0  0  0  0  0  0  0  0  0  0
    1.3602   -1.8539    2.1766 H   0  0  0  0  0  0  0  0  0  0  0  0
   -2.0974   -0.9076    0.7514 H   0  0  0  0  0  0  0  0  0  0  0  0
   -0.5285   -0.9824    3.3814 H   0  0  0  0  0  0  0  0  0  0  0  0
   -2.3553   -0.9000    3.1431 H   0  0  0  0  0  0  0  0  0  0  0  0
  1  2  3  0
  1  6  1  0
  2  3  1  0
  3  4  1  0
  3  5  1  0
  3 22  1  0
  4  7  1  0
  4  8  1  0
  4  9  1  0
  5 10  1  0
  5 11  1  0
  5 12  1  0
 13 14  2  3
 13 19  1  0
 13 20  1  0
 14 15  1  0
 14 21  1  0
 15 16  1  0
 15 17  1  0
 16 23  1  0
 16 24  1  0
 16 25  1  0
 17 18  2  3
 17 26  1  0
 18 27  1  0
 18 28  1  0
M  RAD  1  15   2
M  END
>  <reaction>  (9) 
rxn_1180

>  <mol_properties>  (9) 
{"1": {"label": "*4", "atom_type": "Ct"}, "2": {"label": "*3", "atom_type": "Cs"}, "13": {"label": "*0", "atom_type": "Cd"}, "14": {"label": "*1", "atom_type": "Cs"}, "21": {"label": "*2", "atom_type": "H0"}}

>  <type>  (9) 
unop_5

>  <geom_source>  (9) 
Heuristics

$$$$

     RDKit          3D

 28 26  0  0  0  0  0  0  0  0999 V2000
    2.5246    1.7625   -1.3286 C   0  0  0  0  0  0  0  0  0  0  0  0
    1.3749    1.4821   -1.1419 C   0  0  0  0  0  0  0  0  0  0  0  0
   -0.0354    1.1628   -0.9130 C   0  0  0  0  0  0  0  0  0  0  0  0
   -0.9074    1.6961   -2.0538 C   0  0  0  0  0  0  0  0  0  0  0  0
   -0.5014    1.6948    0.4457 C   0  0  0  0  0  0  0  0  0  0  0  0
    3.5451    2.0113   -1.4942 H   0  0  0  0  0  0  0  0  0  0  0  0
   -1.9492    1.4135   -1.8922 H   0  0  0  0  0  0  0  0  0  0  0  0
   -0.5848    1.2967   -3.0152 H   0  0  0  0  0  0  0  0  0  0  0  0
   -0.8497    2.7849   -2.1005 H   0  0  0  0  0  0  0  0  0  0  0  0
   -0.4317    2.7836    0.4727 H   0  0  0  0  0  0  0  0  0  0  0  0
    0.1089    1.2945    1.2551 H   0  0  0  0  0  0  0  0  0  0  0  0
   -1.5409    1.4122    0.6218 H   0  0  0  0  0  0  0  0  0  0  0  0
   -0.1086   -2.1553   -1.5091 C   0  0  0  0  0  0  0  0  0  0  0  0
   -0.1086   -2.1553   -0.1859 C   0  0  0  0  0  0  0  0  0  0  0  0
   -0.1086   -0.9245    0.6836 C   0  0  0  0  0  3  0  0  0  0  0  0
    1.1298   -0.8947    1.5752 C   0  0  0  0  0  0  0  0  0  0  0  0
   -1.4121   -0.8559    1.4401 C   0  0  0  0  0  0  0  0  0  0  0  0
   -1.5667   -0.8557    2.7550 C   0  0  0  0  0  0  0  0  0  0  0  0
   -0.1093   -3.0779   -2.0758 H   0  0  0  0  0  0  0  0  0  0  0  0
   -0.1068   -1.2295   -2.0748 H   0  0  0  0  0  0  0  0  0  0  0  0
   -0.1133   -3.1011    0.3518 H   0  0  0  0  0  0  0  0  0  0  0  0
   -0.0720    0.1199   -0.1153 H   0  0  0  0  0  0  0  0  0  0  0  0
    2.0326   -0.9031    0.9639 H   0  0  0  0  0  0  0  0  0  0  0  0
    1.1445    0.0011    2.1983 H   0  0  0  0  0  0  0  0  0  0  0  0
    1.1624   -1.7665    2.2328 H   0  0  0  0  0  0  0  0  0  0  0  0
   -2.2953   -0.8202    0.8075 H   0  0  0  0  0  0  0  0  0  0  0  0
   -0.7264   -0.8950    3.4375 H   0  0  0  0  0  0  0  0  0  0  0  0
   -2.5531   -0.8126    3.1992 H   0  0  0  0  0  0  0  0  0  0  0  0
  1  2  3  0
  1  6  1  0
  2  3  1  0
  3  4  1  0
  3  5  1  0
  3 22  1  0
  4  7  1  0
  4  8  1  0
  4  9  1  0
  5 10  1  0
  5 11  1  0
  5 12  1  0
 13 14  2  3
 13 19  1  0
 13 20  1  0
 14 15  1  0
 14 21  1  0
 15 16  1  0
 15 17  1  0
 16 23  1  0
 16 24  1  0
 16 25  1  0
 17 18  2  3
 17 26  1  0
 18 27  1  0
 18 28  1  0
M  RAD  1  15   2
M  END
>  <reaction>  (10) 
rxn_1180

>  <mol_properties>  (10) 
{"1": {"label": "*4", "atom_type": "Ct"}, "2": {"label": "*3", "atom_type": "Cs"}, "13": {"label": "*0", "atom_type": "Cd"}, "14": {"label": "*1", "atom_type": "Cs"}, "21": {"label": "*2", "atom_type": "H0"}}

>  <type>  (10) 
unop_6

>  <geom_source>  (10) 
Heuristics

$$$$

     RDKit          3D

 28 26  0  0  0  0  0  0  0  0999 V2000
    2.2391    2.4848   -0.3963 C   0  0  0  0  0  0  0  0  0  0  0  0
    1.2530    1.8563   -0.6571 C   0  0  0  0  0  0  0  0  0  0  0  0
    0.0361    1.1088   -0.9791 C   0  0  0  0  0  0  0  0  0  0  0  0
   -0.4168    1.3961   -2.4139 C   0  0  0  0  0  0  0  0  0  0  0  0
   -1.0741    1.4126    0.0315 C   0  0  0  0  0  0  0  0  0  0  0  0
    3.1142    3.0426   -0.1648 H   0  0  0  0  0  0  0  0  0  0  0  0
   -1.2987    0.7998   -2.6545 H   0  0  0  0  0  0  0  0  0  0  0  0
    0.3695    1.1571   -3.1298 H   0  0  0  0  0  0  0  0  0  0  0  0
   -0.6729    2.4508   -2.5286 H   0  0  0  0  0  0  0  0  0  0  0  0
   -1.3496    2.4678   -0.0110 H   0  0  0  0  0  0  0  0  0  0  0  0
   -0.7535    1.1853    1.0481 H   0  0  0  0  0  0  0  0  0  0  0  0
   -1.9599    0.8164   -0.1950 H   0  0  0  0  0  0  0  0  0  0  0  0
   -0.0371   -2.2093   -1.5752 C   0  0  0  0  0  0  0  0  0  0  0  0
   -0.0371   -2.2093   -0.2520 C   0  0  0  0  0  0  0  0  0  0  0  0
   -0.0371   -0.9785    0.6174 C   0  0  0  0  0  3  0  0  0  0  0  0
    1.2013   -0.9487    1.5090 C   0  0  0  0  0  0  0  0  0  0  0  0
   -1.3406   -0.9100    1.3740 C   0  0  0  0  0  0  0  0  0  0  0  0
   -1.4952   -0.9097    2.6889 C   0  0  0  0  0  0  0  0  0  0  0  0
   -0.0378   -3.1319   -2.1419 H   0  0  0  0  0  0  0  0  0  0  0  0
   -0.0353   -1.2835   -2.1409 H   0  0  0  0  0  0  0  0  0  0  0  0
   -0.0418   -3.1551    0.2857 H   0  0  0  0  0  0  0  0  0  0  0  0
   -0.0005    0.0658   -0.1814 H   0  0  0  0  0  0  0  0  0  0  0  0
    2.1041   -0.9571    0.8978 H   0  0  0  0  0  0  0  0  0  0  0  0
    1.2160   -0.0530    2.1321 H   0  0  0  0  0  0  0  0  0  0  0  0
    1.2339   -1.8205    2.1667 H   0  0  0  0  0  0  0  0  0  0  0  0
   -2.2237   -0.8742    0.7414 H   0  0  0  0  0  0  0  0  0  0  0  0
   -0.6548   -0.9490    3.3714 H   0  0  0  0  0  0  0  0  0  0  0  0
   -2.4816   -0.8666    3.1331 H   0  0  0  0  0  0  0  0  0  0  0  0
  1  2  3  0
  1  6  1  0
  2  3  1  0
  3  4  1  0
  3  5  1  0
  3 22  1  0
  4  7  1  0
  4  8  1  0
  4  9  1  0
  5 10  1  0
  5 11  1  0
  5 12  1  0
 13 14  2  3
 13 19  1  0
 13 20  1  0
 14 15  1  0
 14 21  1  0
 15 16  1  0
 15 17  1  0
 16 23  1  0
 16 24  1  0
 16 25  1  0
 17 18  2  3
 17 26  1  0
 18 27  1  0
 18 28  1  0
M  RAD  1  15   2
M  END
>  <reaction>  (11) 
rxn_1180

>  <mol_properties>  (11) 
{"1": {"label": "*4", "atom_type": "Ct"}, "2": {"label": "*3", "atom_type": "Cs"}, "13": {"label": "*0", "atom_type": "Cd"}, "14": {"label": "*1", "atom_type": "Cs"}, "21": {"label": "*2", "atom_type": "H0"}}

>  <type>  (11) 
unop_7

>  <geom_source>  (11) 
Heuristics

$$$$

     RDKit          3D

 28 26  0  0  0  0  0  0  0  0999 V2000
   -2.1556    1.8412   -1.4400 C   0  0  0  0  0  0  0  0  0  0  0  0
   -1.0261    1.5225   -1.1991 C   0  0  0  0  0  0  0  0  0  0  0  0
    0.3602    1.1562   -0.9036 C   0  0  0  0  0  0  0  0  0  0  0  0
    0.7786    1.6732    0.4761 C   0  0  0  0  0  0  0  0  0  0  0  0
    1.3029    1.6589   -2.0012 C   0  0  0  0  0  0  0  0  0  0  0  0
   -3.1581    2.1241   -1.6538 H   0  0  0  0  0  0  0  0  0  0  0  0
    1.7984    1.3560    0.7013 H   0  0  0  0  0  0  0  0  0  0  0  0
    0.1173    1.2944    1.2553 H   0  0  0  0  0  0  0  0  0  0  0  0
    0.7443    2.7638    0.5008 H   0  0  0  0  0  0  0  0  0  0  0  0
    1.2841    2.7490   -2.0497 H   0  0  0  0  0  0  0  0  0  0  0  0
    1.0132    1.2698   -2.9772 H   0  0  0  0  0  0  0  0  0  0  0  0
    2.3257    1.3416   -1.7904 H   0  0  0  0  0  0  0  0  0  0  0  0
    0.2870   -2.1619   -1.4997 C   0  0  0  0  0  0  0  0  0  0  0  0
    0.2870   -2.1619   -0.1764 C   0  0  0  0  0  0  0  0  0  0  0  0
    0.2870   -0.9311    0.6930 C   0  0  0  0  0  3  0  0  0  0  0  0
    1.5254   -0.9013    1.5846 C   0  0  0  0  0  0  0  0  0  0  0  0
   -1.0165   -0.8626    1.4495 C   0  0  0  0  0  0  0  0  0  0  0  0
   -1.1711   -0.8623    2.7644 C   0  0  0  0  0  0  0  0  0  0  0  0
    0.2863   -3.0845   -2.0664 H   0  0  0  0  0  0  0  0  0  0  0  0
    0.2888   -1.2361   -2.0654 H   0  0  0  0  0  0  0  0  0  0  0  0
    0.2823   -3.1077    0.3612 H   0  0  0  0  0  0  0  0  0  0  0  0
    0.3236    0.1132   -0.1058 H   0  0  0  0  0  0  0  0  0  0  0  0
    2.4282   -0.9097    0.9733 H   0  0  0  0  0  0  0  0  0  0  0  0
    1.5401   -0.0056    2.2077 H   0  0  0  0  0  0  0  0  0  0  0  0
    1.5580   -1.7731    2.2422 H   0  0  0  0  0  0  0  0  0  0  0  0
   -1.8997   -0.8268    0.8170 H   0  0  0  0  0  0  0  0  0  0  0  0
   -0.3308   -0.9016    3.4470 H   0  0  0  0  0  0  0  0  0  0  0  0
   -2.1575   -0.8192    3.2086 H   0  0  0  0  0  0  0  0  0  0  0  0
  1  2  3  0
  1  6  1  0
  2  3  1  0
  3  4  1  0
  3  5  1  0
  3 22  1  0
  4  7  1  0
  4  8  1  0
  4  9  1  0
  5 10  1  0
  5 11  1  0
  5 12  1  0
 13 14  2  3
 13 19  1  0
 13 20  1  0
 14 15  1  0
 14 21  1  0
 15 16  1  0
 15 17  1  0
 16 23  1  0
 16 24  1  0
 16 25  1  0
 17 18  2  3
 17 26  1  0
 18 27  1  0
 18 28  1  0
M  RAD  1  15   2
M  END
>  <reaction>  (12) 
rxn_1180

>  <mol_properties>  (12) 
{"1": {"label": "*4", "atom_type": "Ct"}, "2": {"label": "*3", "atom_type": "Cs"}, "13": {"label": "*0", "atom_type": "Cd"}, "14": {"label": "*1", "atom_type": "Cs"}, "21": {"label": "*2", "atom_type": "H0"}}

>  <type>  (12) 
unop_8

>  <geom_source>  (12) 
Heuristics

$$$$

     RDKit          3D

 28 26  0  0  0  0  0  0  0  0999 V2000
    1.3406    0.5667   -2.9136 C   0  0  0  0  0  0  0  0  0  0  0  0
    0.7471    0.8794   -1.9210 C   0  0  0  0  0  0  0  0  0  0  0  0
    0.0254    1.2846   -0.7134 C   0  0  0  0  0  0  0  0  0  0  0  0
   -1.2250    2.0938   -1.0710 C   0  0  0  0  0  0  0  0  0  0  0  0
    0.9435    2.0601    0.2362 C   0  0  0  0  0  0  0  0  0  0  0  0
    1.8674    0.2891   -3.7946 H   0  0  0  0  0  0  0  0  0  0  0  0
   -1.7758    2.3517   -0.1648 H   0  0  0  0  0  0  0  0  0  0  0  0
   -1.8846    1.5283   -1.7290 H   0  0  0  0  0  0  0  0  0  0  0  0
   -0.9475    3.0187   -1.5797 H   0  0  0  0  0  0  0  0  0  0  0  0
    1.2849    2.9840   -0.2339 H   0  0  0  0  0  0  0  0  0  0  0  0
    1.8202    1.4707    0.5044 H   0  0  0  0  0  0  0  0  0  0  0  0
    0.4052    2.3178    1.1500 H   0  0  0  0  0  0  0  0  0  0  0  0
   -0.0478   -2.0335   -1.3094 C   0  0  0  0  0  0  0  0  0  0  0  0
   -0.0478   -2.0335    0.0138 C   0  0  0  0  0  0  0  0  0  0  0  0
   -0.0478   -0.8027    0.8832 C   0  0  0  0  0  3  0  0  0  0  0  0
    1.1906   -0.7729    1.7748 C   0  0  0  0  0  0  0  0  0  0  0  0
   -1.3513   -0.7342    1.6397 C   0  0  0  0  0  0  0  0  0  0  0  0
   -1.5059   -0.7339    2.9546 C   0  0  0  0  0  0  0  0  0  0  0  0
   -0.0485   -2.9561   -1.8761 H   0  0  0  0  0  0  0  0  0  0  0  0
   -0.0460   -1.1077   -1.8751 H   0  0  0  0  0  0  0  0  0  0  0  0
   -0.0525   -2.9793    0.5514 H   0  0  0  0  0  0  0  0  0  0  0  0
   -0.0112    0.2416    0.0844 H   0  0  0  0  0  0  0  0  0  0  0  0
    2.0934   -0.7813    1.1635 H   0  0  0  0  0  0  0  0  0  0  0  0
    1.2053    0.1228    2.3979 H   0  0  0  0  0  0  0  0  0  0  0  0
    1.2232   -1.6447    2.4324 H   0  0  0  0  0  0  0  0  0  0  0  0
   -2.2344   -0.6984    1.0072 H   0  0  0  0  0  0  0  0  0  0  0  0
   -0.6655   -0.7732    3.6372 H   0  0  0  0  0  0  0  0  0  0  0  0
   -2.4923   -0.6908    3.3989 H   0  0  0  0  0  0  0  0  0  0  0  0
  1  2  3  0
  1  6  1  0
  2  3  1  0
  3  4  1  0
  3  5  1  0
  3 22  1  0
  4  7  1  0
  4  8  1  0
  4  9  1  0
  5 10  1  0
  5 11  1  0
  5 12  1  0
 13 14  2  3
 13 19  1  0
 13 20  1  0
 14 15  1  0
 14 21  1  0
 15 16  1  0
 15 17  1  0
 16 23  1  0
 16 24  1  0
 16 25  1  0
 17 18  2  3
 17 26  1  0
 18 27  1  0
 18 28  1  0
M  RAD  1  15   2
M  END
>  <reaction>  (13) 
rxn_1180

>  <mol_properties>  (13) 
{"1": {"label": "*4", "atom_type": "Ct"}, "2": {"label": "*3", "atom_type": "Cs"}, "13": {"label": "*0", "atom_type": "Cd"}, "14": {"label": "*1", "atom_type": "Cs"}, "21": {"label": "*2", "atom_type": "H0"}}

>  <type>  (13) 
unop_9

>  <geom_source>  (13) 
Heuristics

$$$$

     RDKit          3D

 28 26  0  0  0  0  0  0  0  0999 V2000
   -1.8020    1.1295   -2.3410 C   0  0  0  0  0  0  0  0  0  0  0  0
   -0.8254    1.1605   -1.6476 C   0  0  0  0  0  0  0  0  0  0  0  0
    0.3674    1.2224   -0.8011 C   0  0  0  0  0  0  0  0  0  0  0  0
    0.0601    1.9271    0.5237 C   0  0  0  0  0  0  0  0  0  0  0  0
    1.5264    1.8978   -1.5406 C   0  0  0  0  0  0  0  0  0  0  0  0
   -2.6688    1.1019   -2.9563 H   0  0  0  0  0  0  0  0  0  0  0  0
    0.9456    1.9275    1.1617 H   0  0  0  0  0  0  0  0  0  0  0  0
   -0.7505    1.4289    1.0554 H   0  0  0  0  0  0  0  0  0  0  0  0
   -0.2355    2.9624    0.3448 H   0  0  0  0  0  0  0  0  0  0  0  0
    1.2742    2.9322   -1.7803 H   0  0  0  0  0  0  0  0  0  0  0  0
    1.7548    1.3788   -2.4714 H   0  0  0  0  0  0  0  0  0  0  0  0
    2.4205    1.8980   -0.9145 H   0  0  0  0  0  0  0  0  0  0  0  0
    0.2943   -2.0956   -1.3972 C   0  0  0  0  0  0  0  0  0  0  0  0
    0.2943   -2.0956   -0.0740 C   0  0  0  0  0  0  0  0  0  0  0  0
    0.2943   -0.8649    0.7954 C   0  0  0  0  0  3  0  0  0  0  0  0
    1.5327   -0.8351    1.6870 C   0  0  0  0  0  0  0  0  0  0  0  0
   -1.0092   -0.7963    1.5519 C   0  0  0  0  0  0  0  0  0  0  0  0
   -1.1638   -0.7961    2.8669 C   0  0  0  0  0  0  0  0  0  0  0  0
    0.2936   -3.0183   -1.9639 H   0  0  0  0  0  0  0  0  0  0  0  0
    0.2961   -1.1699   -1.9629 H   0  0  0  0  0  0  0  0  0  0  0  0
    0.2896   -3.0415    0.4637 H   0  0  0  0  0  0  0  0  0  0  0  0
    0.3309    0.1795   -0.0034 H   0  0  0  0  0  0  0  0  0  0  0  0
    2.4354   -0.8435    1.0758 H   0  0  0  0  0  0  0  0  0  0  0  0
    1.5473    0.0607    2.3101 H   0  0  0  0  0  0  0  0  0  0  0  0
    1.5653   -1.7069    2.3446 H   0  0  0  0  0  0  0  0  0  0  0  0
   -1.8924   -0.7606    0.9194 H   0  0  0  0  0  0  0  0  0  0  0  0
   -0.3235   -0.8354    3.5494 H   0  0  0  0  0  0  0  0  0  0  0  0
   -2.1502   -0.7529    3.3111 H   0  0  0  0  0  0  0  0  0  0  0  0
  1  2  3  0
  1  6  1  0
  2  3  1  0
  3  4  1  0
  3  5  1  0
  3 22  1  0
  4  7  1  0
  4  8  1  0
  4  9  1  0
  5 10  1  0
  5 11  1  0
  5 12  1  0
 13 14  2  3
 13 19  1  0
 13 20  1  0
 14 15  1  0
 14 21  1  0
 15 16  1  0
 15 17  1  0
 16 23  1  0
 16 24  1  0
 16 25  1  0
 17 18  2  3
 17 26  1  0
 18 27  1  0
 18 28  1  0
M  RAD  1  15   2
M  END
>  <reaction>  (14) 
rxn_1180

>  <mol_properties>  (14) 
{"1": {"label": "*4", "atom_type": "Ct"}, "2": {"label": "*3", "atom_type": "Cs"}, "13": {"label": "*0", "atom_type": "Cd"}, "14": {"label": "*1", "atom_type": "Cs"}, "21": {"label": "*2", "atom_type": "H0"}}

>  <type>  (14) 
unop_10

>  <geom_source>  (14) 
Heuristics

$$$$

     RDKit          3D

 28 26  0  0  0  0  0  0  0  0999 V2000
    1.3860    3.0351    0.3049 C   0  0  0  0  0  0  0  0  0  0  0  0
    0.8225    2.1484   -0.2709 C   0  0  0  0  0  0  0  0  0  0  0  0
    0.1218    1.0811   -0.9874 C   0  0  0  0  0  0  0  0  0  0  0  0
    0.4482    1.1230   -2.4833 C   0  0  0  0  0  0  0  0  0  0  0  0
   -1.3878    1.1578   -0.7398 C   0  0  0  0  0  0  0  0  0  0  0  0
    1.8862    3.8221    0.8159 H   0  0  0  0  0  0  0  0  0  0  0  0
   -0.0456    0.2966   -2.9975 H   0  0  0  0  0  0  0  0  0  0  0  0
    1.5219    1.0458   -2.6539 H   0  0  0  0  0  0  0  0  0  0  0  0
    0.0998    2.0591   -2.9232 H   0  0  0  0  0  0  0  0  0  0  0  0
   -1.7904    2.0950   -1.1282 H   0  0  0  0  0  0  0  0  0  0  0  0
   -1.6149    1.1053    0.3249 H   0  0  0  0  0  0  0  0  0  0  0  0
   -1.8923    0.3316   -1.2438 H   0  0  0  0  0  0  0  0  0  0  0  0
    0.0487   -2.2370   -1.5834 C   0  0  0  0  0  0  0  0  0  0  0  0
    0.0487   -2.2370   -0.2602 C   0  0  0  0  0  0  0  0  0  0  0  0
    0.0487   -1.0062    0.6092 C   0  0  0  0  0  3  0  0  0  0  0  0
    1.2870   -0.9764    1.5008 C   0  0  0  0  0  0  0  0  0  0  0  0
   -1.2548   -0.9376    1.3657 C   0  0  0  0  0  0  0  0  0  0  0  0
   -1.4095   -0.9374    2.6807 C   0  0  0  0  0  0  0  0  0  0  0  0
    0.0479   -3.1596   -2.1501 H   0  0  0  0  0  0  0  0  0  0  0  0
    0.0504   -1.3112   -2.1491 H   0  0  0  0  0  0  0  0  0  0  0  0
    0.0439   -3.1828    0.2774 H   0  0  0  0  0  0  0  0  0  0  0  0
    0.0853    0.0381   -0.1896 H   0  0  0  0  0  0  0  0  0  0  0  0
    2.1898   -0.9848    0.8896 H   0  0  0  0  0  0  0  0  0  0  0  0
    1.3017   -0.0807    2.1239 H   0  0  0  0  0  0  0  0  0  0  0  0
    1.3196   -1.8482    2.1584 H   0  0  0  0  0  0  0  0  0  0  0  0
   -2.1380   -0.9019    0.7332 H   0  0  0  0  0  0  0  0  0  0  0  0
   -0.5691   -0.9767    3.3632 H   0  0  0  0  0  0  0  0  0  0  0  0
   -2.3959   -0.8943    3.1249 H   0  0  0  0  0  0  0  0  0  0  0  0
  1  2  3  0
  1  6  1  0
  2  3  1  0
  3  4  1  0
  3  5  1  0
  3 22  1  0
  4  7  1  0
  4  8  1  0
  4  9  1  0
  5 10  1  0
  5 11  1  0
  5 12  1  0
 13 14  2  3
 13 19  1  0
 13 20  1  0
 14 15  1  0
 14 21  1  0
 15 16  1  0
 15 17  1  0
 16 23  1  0
 16 24  1  0
 16 25  1  0
 17 18  2  3
 17 26  1  0
 18 27  1  0
 18 28  1  0
M  RAD  1  15   2
M  END
>  <reaction>  (15) 
rxn_1180

>  <mol_properties>  (15) 
{"1": {"label": "*4", "atom_type": "Ct"}, "2": {"label": "*3", "atom_type": "Cs"}, "13": {"label": "*0", "atom_type": "Cd"}, "14": {"label": "*1", "atom_type": "Cs"}, "21": {"label": "*2", "atom_type": "H0"}}

>  <type>  (15) 
unop_11

>  <geom_source>  (15) 
Heuristics

$$$$

     RDKit          3D

 28 26  0  0  0  0  0  0  0  0999 V2000
    0.2035    0.4007   -3.1729 C   0  0  0  0  0  0  0  0  0  0  0  0
    0.1833    0.7974   -2.0426 C   0  0  0  0  0  0  0  0  0  0  0  0
    0.1591    1.3047   -0.6695 C   0  0  0  0  0  0  0  0  0  0  0  0
   -1.0994    2.1411   -0.4192 C   0  0  0  0  0  0  0  0  0  0  0  0
    1.4317    2.0985   -0.3590 C   0  0  0  0  0  0  0  0  0  0  0  0
    0.2215    0.0486   -4.1761 H   0  0  0  0  0  0  0  0  0  0  0  0
   -1.1259    2.4761    0.6192 H   0  0  0  0  0  0  0  0  0  0  0  0
   -2.0018    1.5640   -0.6207 H   0  0  0  0  0  0  0  0  0  0  0  0
   -1.1066    3.0211   -1.0648 H   0  0  0  0  0  0  0  0  0  0  0  0
    1.4992    2.9773   -1.0027 H   0  0  0  0  0  0  0  0  0  0  0  0
    2.3227    1.4912   -0.5177 H   0  0  0  0  0  0  0  0  0  0  0  0
    1.4200    2.4333    0.6798 H   0  0  0  0  0  0  0  0  0  0  0  0
    0.0860   -2.0134   -1.2656 C   0  0  0  0  0  0  0  0  0  0  0  0
    0.0860   -2.0134    0.0577 C   0  0  0  0  0  0  0  0  0  0  0  0
    0.0860   -0.7826    0.9271 C   0  0  0  0  0  3  0  0  0  0  0  0
    1.3243   -0.7528    1.8187 C   0  0  0  0  0  0  0  0  0  0  0  0
   -1.2175   -0.7140    1.6836 C   0  0  0  0  0  0  0  0  0  0  0  0
   -1.3722   -0.7138    2.9985 C   0  0  0  0  0  0  0  0  0  0  0  0
    0.0852   -2.9360   -1.8323 H   0  0  0  0  0  0  0  0  0  0  0  0
    0.0877   -1.0876   -1.8313 H   0  0  0  0  0  0  0  0  0  0  0  0
    0.0812   -2.9592    0.5953 H   0  0  0  0  0  0  0  0  0  0  0  0
    0.1226    0.2618    0.1283 H   0  0  0  0  0  0  0  0  0  0  0  0
    2.2271   -0.7612    1.2074 H   0  0  0  0  0  0  0  0  0  0  0  0
    1.3390    0.1430    2.4418 H   0  0  0  0  0  0  0  0  0  0  0  0
    1.3569   -1.6246    2.4763 H   0  0  0  0  0  0  0  0  0  0  0  0
   -2.1007   -0.6783    1.0511 H   0  0  0  0  0  0  0  0  0  0  0  0
   -0.5318   -0.7531    3.6811 H   0  0  0  0  0  0  0  0  0  0  0  0
   -2.3586   -0.6707    3.4427 H   0  0  0  0  0  0  0  0  0  0  0  0
  1  2  3  0
  1  6  1  0
  2  3  1  0
  3  4  1  0
  3  5  1  0
  3 22  1  0
  4  7  1  0
  4  8  1  0
  4  9  1  0
  5 10  1  0
  5 11  1  0
  5 12  1  0
 13 14  2  3
 13 19  1  0
 13 20  1  0
 14 15  1  0
 14 21  1  0
 15 16  1  0
 15 17  1  0
 16 23  1  0
 16 24  1  0
 16 25  1  0
 17 18  2  3
 17 26  1  0
 18 27  1  0
 18 28  1  0
M  RAD  1  15   2
M  END
>  <reaction>  (16) 
rxn_1180

>  <mol_properties>  (16) 
{"1": {"label": "*4", "atom_type": "Ct"}, "2": {"label": "*3", "atom_type": "Cs"}, "13": {"label": "*0", "atom_type": "Cd"}, "14": {"label": "*1", "atom_type": "Cs"}, "21": {"label": "*2", "atom_type": "H0"}}

>  <type>  (16) 
unop_12

>  <geom_source>  (16) 
Heuristics

$$$$

     RDKit          3D

 28 26  0  0  0  0  0  0  0  0999 V2000
    1.2869    0.0030    0.2049 C   0  0  0  0  0  0  0  0  0  0  0  0
    1.5951    1.4970    0.0972 C   0  0  0  0  0  0  0  0  0  0  0  0
    1.9041   -0.7699   -0.9613 C   0  0  0  0  0  0  0  0  0  0  0  0
   -0.9840    0.4340   -1.8737 C   0  0  0  0  0  0  0  0  0  0  0  0
   -1.2277    0.0705   -0.4115 C   0  0  0  0  0  3  0  0  0  0  0  0
   -1.6785   -1.3530   -0.2776 C   0  0  0  0  0  0  0  0  0  0  0  0
   -2.2300    0.9935    0.2139 C   0  0  0  0  0  0  0  0  0  0  0  0
   -0.9699   -2.2226    0.4432 C   0  0  0  0  0  0  0  0  0  0  0  0
   -1.8999    1.7346    1.2720 C   0  0  0  0  0  0  0  0  0  0  0  0
    1.7889   -0.5252    1.4826 C   0  0  0  0  0  0  0  0  0  0  0  0
    2.1994   -0.9584    2.5302 C   0  0  0  0  0  0  0  0  0  0  0  0
   -0.0316   -0.1613    0.1721 H   0  0  0  0  0  0  0  0  0  0  0  0
    2.6919    1.6774    0.1239 H   0  0  0  0  0  0  0  0  0  0  0  0
    1.1185    2.0456    0.9377 H   0  0  0  0  0  0  0  0  0  0  0  0
    1.1870    1.9007   -0.8536 H   0  0  0  0  0  0  0  0  0  0  0  0
    1.4993   -0.3911   -1.9237 H   0  0  0  0  0  0  0  0  0  0  0  0
    1.6492   -1.8484   -0.8806 H   0  0  0  0  0  0  0  0  0  0  0  0
    3.0104   -0.6597   -0.9674 H   0  0  0  0  0  0  0  0  0  0  0  0
   -1.9202    0.3380   -2.4654 H   0  0  0  0  0  0  0  0  0  0  0  0
   -0.2116   -0.2375   -2.3048 H   0  0  0  0  0  0  0  0  0  0  0  0
   -0.6151    1.4791   -1.9452 H   0  0  0  0  0  0  0  0  0  0  0  0
   -2.5924   -1.6791   -0.7667 H   0  0  0  0  0  0  0  0  0  0  0  0
   -3.2353    1.0563   -0.1938 H   0  0  0  0  0  0  0  0  0  0  0  0
   -1.3048   -3.2505    0.5372 H   0  0  0  0  0  0  0  0  0  0  0  0
   -0.0552   -1.9176    0.9429 H   0  0  0  0  0  0  0  0  0  0  0  0
   -2.6323    2.3981    1.7203 H   0  0  0  0  0  0  0  0  0  0  0  0
   -0.9020    1.6853    1.6976 H   0  0  0  0  0  0  0  0  0  0  0  0
    2.5598   -1.3387    3.4497 H   0  0  0  0  0  0  0  0  0  0  0  0
  1  2  1  0
  1  3  1  0
  1 10  1  0
  1 12  1  0
  2 13  1  0
  2 14  1  0
  2 15  1  0
  3 16  1  0
  3 17  1  0
  3 18  1  0
  4  5  1  0
  4 19  1  0
  4 20  1  0
  4 21  1  0
  5  6  1  0
  5  7  1  0
  6  8  2  3
  6 22  1  0
  7  9  2  3
  7 23  1  0
  8 24  1  0
  8 25  1  0
  9 26  1  0
  9 27  1  0
 10 11  3  0
 11 28  1  0
M  RAD  1   5   2
M  END
>  <reaction>  (17) 
rxn_1180

>  <mol_properties>  (17) 
{"1": {"label": "*4", "atom_type": "Ct"}, "2": {"label": "*3", "atom_type": "Cs"}, "13": {"label": "*0", "atom_type": "Cd"}, "14": {"label": "*1", "atom_type": "Cs"}, "21": {"label": "*2", "atom_type": "H0"}}

>  <type>  (17) 
unop_13

>  <geom_source>  (17) 
AutoTST

$$$$
