
     RDKit          3D

 15 14  0  0  0  0  0  0  0  0999 V2000
    2.1256    0.4849   -0.6284 C   0  0  0  0  0  0  0  0  0  0  0  0
    1.1128    0.2141    0.1794 C   0  0  0  0  0  0  0  0  0  0  0  0
   -0.3017   -0.0425   -0.2513 C   0  0  0  0  0  0  0  0  0  0  0  0
   -1.2427    1.0075    0.3423 C   0  0  0  0  0  0  0  0  0  0  0  0
   -0.7381   -1.4526    0.1504 C   0  0  0  0  0  0  0  0  0  0  0  0
    3.1243    0.6602   -0.2486 H   0  0  0  0  0  0  0  0  0  0  0  0
    1.9908    0.5411   -1.7036 H   0  0  0  0  0  0  0  0  0  0  0  0
    1.2888    0.1665    1.2533 H   0  0  0  0  0  0  0  0  0  0  0  0
   -0.3426    0.0343   -1.3424 H   0  0  0  0  0  0  0  0  0  0  0  0
   -0.9570    2.0133    0.0315 H   0  0  0  0  0  0  0  0  0  0  0  0
   -1.2189    0.9728    1.4350 H   0  0  0  0  0  0  0  0  0  0  0  0
   -2.2723    0.8287    0.0254 H   0  0  0  0  0  0  0  0  0  0  0  0
   -0.6964   -1.5744    1.2363 H   0  0  0  0  0  0  0  0  0  0  0  0
   -0.0911   -2.2079   -0.2978 H   0  0  0  0  0  0  0  0  0  0  0  0
   -1.7646   -1.6461   -0.1677 H   0  0  0  0  0  0  0  0  0  0  0  0
  1  2  2  3
  1  6  1  0
  1  7  1  0
  2  3  1  0
  2  8  1  0
  3  4  1  0
  3  5  1  0
  3  9  1  0
  4 10  1  0
  4 11  1  0
  4 12  1  0
  5 13  1  0
  5 14  1  0
  5 15  1  0
M  END
>  <reaction>  (1) 
rxn_1111

>  <mol_properties>  (1) 
{"2": {"label": "donator", "atom_type": "Cs"}, "8": {"label": "d_hydrogen", "atom_type": "H0"}}

>  <type>  (1) 
r1h

$$$$

     RDKit          3D

  7  6  0  0  0  0  0  0  0  0999 V2000
   -1.3496    0.0255    0.0758 C   0  0  0  0  0  0  0  0  0  0  0  0
   -0.0636   -0.0704   -0.0033 C   0  0  0  0  0  0  0  0  0  0  0  0
    1.2597   -0.1602   -0.0839 C   0  0  0  0  0  0  0  0  0  0  0  0
    2.2616    1.2090   -0.0064 S   0  0  0  0  0  1  0  0  0  0  0  0
   -1.8547   -0.0180    1.0345 H   0  0  0  0  0  0  0  0  0  0  0  0
   -1.9552    0.1601   -0.8138 H   0  0  0  0  0  0  0  0  0  0  0  0
    1.7017   -1.1460   -0.2029 H   0  0  0  0  0  0  0  0  0  0  0  0
  1  2  2  0
  1  5  1  0
  1  6  1  0
  2  3  2  0
  3  4  1  0
  3  7  1  0
M  RAD  1   4   2
M  END
>  <reaction>  (2) 
rxn_1111

>  <mol_properties>  (2) 
{"1": {"label": "acceptor", "atom_type": "Cd"}}

>  <type>  (2) 
r2

$$$$

     RDKit          3D

  8  7  0  0  0  0  0  0  0  0999 V2000
   -1.1617    0.0338    0.5053 C   0  0  0  0  0  0  0  0  0  0  0  0
   -0.1023    0.4503   -0.1863 C   0  0  0  0  0  0  0  0  0  0  0  0
    1.0978   -0.3557   -0.3104 C   0  0  0  0  0  0  0  0  0  0  0  0
    2.4251    0.0667   -1.1256 S   0  0  0  0  0  0  0  0  0  0  0  0
   -1.1653   -0.9292    1.0039 H   0  0  0  0  0  0  0  0  0  0  0  0
   -2.0546    0.6389    0.5948 H   0  0  0  0  0  0  0  0  0  0  0  0
   -0.0991    1.4132   -0.6847 H   0  0  0  0  0  0  0  0  0  0  0  0
    1.0601   -1.3180    0.2032 H   0  0  0  0  0  0  0  0  0  0  0  0
  1  2  2  3
  1  5  1  0
  1  6  1  0
  2  3  1  0
  2  7  1  0
  3  4  2  0
  3  8  1  0
M  END
>  <reaction>  (3) 
rxn_1111

>  <mol_properties>  (3) 
{"1": {"label": "acceptor", "atom_type": "Cd"}, "7": {"label": "a_hydrogen", "atom_type": "H0"}}

>  <type>  (3) 
r2h

$$$$

     RDKit          3D

 22 20  0  0  0  0  0  0  0  0999 V2000
   -0.8746    0.8012   -2.1285 C   0  0  0  0  0  0  0  0  0  0  0  0
   -0.2545    0.9989   -0.9897 C   0  0  0  0  0  0  0  0  0  0  0  0
    0.2859    2.0335   -0.2025 C   0  0  0  0  0  0  0  0  0  0  0  0
   -0.4933    2.7807    1.0325 S   0  0  0  0  0  1  0  0  0  0  0  0
   -1.1384    1.6277   -2.7797 H   0  0  0  0  0  0  0  0  0  0  0  0
   -1.1452   -0.1981   -2.4512 H   0  0  0  0  0  0  0  0  0  0  0  0
    1.3325    2.2727   -0.3971 H   0  0  0  0  0  0  0  0  0  0  0  0
    0.7996   -3.0306   -1.3177 C   0  0  0  0  0  0  0  0  0  0  0  0
   -0.1822   -2.3395   -0.7374 C   0  0  0  0  0  0  0  0  0  0  0  0
   -0.0337   -1.3136    0.3003 C   0  0  0  0  0  0  0  0  0  0  0  0
    1.3178   -1.1504    0.9489 C   0  0  0  0  0  0  0  0  0  0  0  0
   -1.2050   -1.1866    1.2478 C   0  0  0  0  0  0  0  0  0  0  0  0
    0.5851   -3.7589   -2.0887 H   0  0  0  0  0  0  0  0  0  0  0  0
    1.8389   -2.9046   -1.0407 H   0  0  0  0  0  0  0  0  0  0  0  0
   -1.2040   -2.5273   -1.0575 H   0  0  0  0  0  0  0  0  0  0  0  0
   -0.1076   -0.1886   -0.3670 H   0  0  0  0  0  0  0  0  0  0  0  0
    2.1170   -1.0657    0.2118 H   0  0  0  0  0  0  0  0  0  0  0  0
    1.5381   -2.0062    1.5935 H   0  0  0  0  0  0  0  0  0  0  0  0
    1.3325   -0.2517    1.5681 H   0  0  0  0  0  0  0  0  0  0  0  0
   -1.1957   -2.0094    1.9699 H   0  0  0  0  0  0  0  0  0  0  0  0
   -2.1540   -1.2176    0.7111 H   0  0  0  0  0  0  0  0  0  0  0  0
   -1.1592   -0.2480    1.8014 H   0  0  0  0  0  0  0  0  0  0  0  0
  1  2  2  0
  1  5  1  0
  1  6  1  0
  2  3  2  0
  3  4  1  0
  3  7  1  0
  8  9  2  3
  8 13  1  0
  8 14  1  0
  9 10  1  0
  9 15  1  0
 10 11  1  0
 10 12  1  0
 10 16  1  0
 11 17  1  0
 11 18  1  0
 11 19  1  0
 12 20  1  0
 12 21  1  0
 12 22  1  0
M  RAD  1   4   2
M  END
>  <reaction>  (4) 
rxn_1111

>  <mol_properties>  (4) 
{"1": {"label": "*3", "atom_type": "Cdd"}, "2": {"label": "*4", "atom_type": "Cd"}, "8": {"label": "*0", "atom_type": "Cd"}, "9": {"label": "*1", "atom_type": "Cs"}, "15": {"label": "*2", "atom_type": "H0"}}

>  <type>  (4) 
ts

$$$$

     RDKit          3D

 22 20  0  0  0  0  0  0  0  0999 V2000
   -1.6131    2.1631   -0.5911 C   0  0  0  0  0  0  0  0  0  0  0  0
   -0.6270    1.2690   -0.6384 C   0  0  0  0  0  0  0  0  0  0  0  0
    0.7680    1.6668   -0.6738 C   0  0  0  0  0  0  0  0  0  0  0  0
    2.0251    0.6564   -0.7317 S   0  0  0  0  0  0  0  0  0  0  0  0
   -1.4075    3.2277   -0.5772 H   0  0  0  0  0  0  0  0  0  0  0  0
   -2.6521    1.8611   -0.5649 H   0  0  0  0  0  0  0  0  0  0  0  0
    0.9389    2.7448   -0.6586 H   0  0  0  0  0  0  0  0  0  0  0  0
   -0.6270   -2.0553   -1.2804 C   0  0  0  0  0  0  0  0  0  0  0  0
   -0.6270   -2.0553    0.0431 C   0  0  0  0  0  0  0  0  0  0  0  0
   -0.6270   -0.8339    0.9151 C   0  0  0  0  0  3  0  0  0  0  0  0
    0.6323   -0.7934    1.7828 C   0  0  0  0  0  0  0  0  0  0  0  0
   -1.8863   -0.7934    1.7828 C   0  0  0  0  0  0  0  0  0  0  0  0
   -0.6270   -2.9770   -1.8487 H   0  0  0  0  0  0  0  0  0  0  0  0
   -0.6270   -1.1287   -1.8450 H   0  0  0  0  0  0  0  0  0  0  0  0
   -0.6270   -3.0066    0.5736 H   0  0  0  0  0  0  0  0  0  0  0  0
   -0.6270    0.2225    0.1347 H   0  0  0  0  0  0  0  0  0  0  0  0
    1.5339   -0.7875    1.1686 H   0  0  0  0  0  0  0  0  0  0  0  0
    0.6769   -1.6673    2.4386 H   0  0  0  0  0  0  0  0  0  0  0  0
    0.6399    0.0978    2.4138 H   0  0  0  0  0  0  0  0  0  0  0  0
   -1.9309   -1.6673    2.4386 H   0  0  0  0  0  0  0  0  0  0  0  0
   -2.7878   -0.7875    1.1686 H   0  0  0  0  0  0  0  0  0  0  0  0
   -1.8938    0.0978    2.4138 H   0  0  0  0  0  0  0  0  0  0  0  0
  1  2  2  3
  1  5  1  0
  1  6  1  0
  2  3  1  0
  2 16  1  0
  3  4  2  0
  3  7  1  0
  8  9  2  3
  8 13  1  0
  8 14  1  0
  9 10  1  0
  9 15  1  0
 10 11  1  0
 10 12  1  0
 11 17  1  0
 11 18  1  0
 11 19  1  0
 12 20  1  0
 12 21  1  0
 12 22  1  0
M  RAD  1  10   2
M  END
>  <reaction>  (5) 
rxn_1111

>  <mol_properties>  (5) 
{"1": {"label": "*3", "atom_type": "Cdd"}, "2": {"label": "*4", "atom_type": "Cd"}, "8": {"label": "*0", "atom_type": "Cd"}, "9": {"label": "*1", "atom_type": "Cs"}, "15": {"label": "*2", "atom_type": "H0"}}

>  <type>  (5) 
unop_1

>  <geom_source>  (5) 
Heuristics

$$$$

     RDKit          3D

 22 20  0  0  0  0  0  0  0  0999 V2000
   -0.7609    0.8072   -2.2746 C   0  0  0  0  0  0  0  0  0  0  0  0
   -0.1916    0.8374   -1.0708 C   0  0  0  0  0  0  0  0  0  0  0  0
    0.1153    2.0861   -0.3986 C   0  0  0  0  0  0  0  0  0  0  0  0
    0.8023    2.2185    1.0558 S   0  0  0  0  0  0  0  0  0  0  0  0
   -1.0173    1.7211   -2.7990 H   0  0  0  0  0  0  0  0  0  0  0  0
   -0.9878   -0.1270   -2.7717 H   0  0  0  0  0  0  0  0  0  0  0  0
   -0.1557    2.9857   -0.9542 H   0  0  0  0  0  0  0  0  0  0  0  0
   -0.1916   -2.4869   -1.7128 C   0  0  0  0  0  0  0  0  0  0  0  0
   -0.1916   -2.4869   -0.3893 C   0  0  0  0  0  0  0  0  0  0  0  0
   -0.1916   -1.2655    0.4827 C   0  0  0  0  0  3  0  0  0  0  0  0
    1.0677   -1.2250    1.3504 C   0  0  0  0  0  0  0  0  0  0  0  0
   -1.4509   -1.2250    1.3504 C   0  0  0  0  0  0  0  0  0  0  0  0
   -0.1916   -3.4086   -2.2811 H   0  0  0  0  0  0  0  0  0  0  0  0
   -0.1916   -1.5603   -2.2774 H   0  0  0  0  0  0  0  0  0  0  0  0
   -0.1916   -3.4382    0.1413 H   0  0  0  0  0  0  0  0  0  0  0  0
   -0.1916   -0.2091   -0.2977 H   0  0  0  0  0  0  0  0  0  0  0  0
    1.9693   -1.2191    0.7362 H   0  0  0  0  0  0  0  0  0  0  0  0
    1.1123   -2.0989    2.0062 H   0  0  0  0  0  0  0  0  0  0  0  0
    1.0752   -0.3338    1.9814 H   0  0  0  0  0  0  0  0  0  0  0  0
   -1.4955   -2.0989    2.0062 H   0  0  0  0  0  0  0  0  0  0  0  0
   -2.3524   -1.2191    0.7362 H   0  0  0  0  0  0  0  0  0  0  0  0
   -1.4584   -0.3338    1.9814 H   0  0  0  0  0  0  0  0  0  0  0  0
  1  2  2  3
  1  5  1  0
  1  6  1  0
  2  3  1  0
  2 16  1  0
  3  4  2  0
  3  7  1  0
  8  9  2  3
  8 13  1  0
  8 14  1  0
  9 10  1  0
  9 15  1  0
 10 11  1  0
 10 12  1  0
 11 17  1  0
 11 18  1  0
 11 19  1  0
 12 20  1  0
 12 21  1  0
 12 22  1  0
M  RAD  1  10   2
M  END
>  <reaction>  (6) 
rxn_1111

>  <mol_properties>  (6) 
{"1": {"label": "*3", "atom_type": "Cdd"}, "2": {"label": "*4", "atom_type": "Cd"}, "8": {"label": "*0", "atom_type": "Cd"}, "9": {"label": "*1", "atom_type": "Cs"}, "15": {"label": "*2", "atom_type": "H0"}}

>  <type>  (6) 
unop_2

>  <geom_source>  (6) 
Heuristics

$$$$

     RDKit          3D

 22 20  0  0  0  0  0  0  0  0999 V2000
   -1.0748    2.5925    0.0487 C   0  0  0  0  0  0  0  0  0  0  0  0
   -0.5055    1.4507   -0.3339 C   0  0  0  0  0  0  0  0  0  0  0  0
    0.7197    1.4273   -1.1109 C   0  0  0  0  0  0  0  0  0  0  0  0
    1.4782    0.0956   -1.6170 S   0  0  0  0  0  0  0  0  0  0  0  0
   -0.6402    3.5520   -0.2085 H   0  0  0  0  0  0  0  0  0  0  0  0
   -1.9888    2.6044    0.6282 H   0  0  0  0  0  0  0  0  0  0  0  0
    1.1297    2.4097   -1.3521 H   0  0  0  0  0  0  0  0  0  0  0  0
   -0.5055   -1.8736   -0.9759 C   0  0  0  0  0  0  0  0  0  0  0  0
   -0.5055   -1.8736    0.3476 C   0  0  0  0  0  0  0  0  0  0  0  0
   -0.5055   -0.6522    1.2197 C   0  0  0  0  0  3  0  0  0  0  0  0
    0.7538   -0.6117    2.0873 C   0  0  0  0  0  0  0  0  0  0  0  0
   -1.7648   -0.6117    2.0873 C   0  0  0  0  0  0  0  0  0  0  0  0
   -0.5055   -2.7953   -1.5441 H   0  0  0  0  0  0  0  0  0  0  0  0
   -0.5055   -0.9470   -1.5404 H   0  0  0  0  0  0  0  0  0  0  0  0
   -0.5055   -2.8249    0.8782 H   0  0  0  0  0  0  0  0  0  0  0  0
   -0.5055    0.4042    0.4392 H   0  0  0  0  0  0  0  0  0  0  0  0
    1.6554   -0.6058    1.4732 H   0  0  0  0  0  0  0  0  0  0  0  0
    0.7984   -1.4856    2.7431 H   0  0  0  0  0  0  0  0  0  0  0  0
    0.7614    0.2795    2.7183 H   0  0  0  0  0  0  0  0  0  0  0  0
   -1.8094   -1.4856    2.7431 H   0  0  0  0  0  0  0  0  0  0  0  0
   -2.6663   -0.6058    1.4732 H   0  0  0  0  0  0  0  0  0  0  0  0
   -1.7723    0.2795    2.7183 H   0  0  0  0  0  0  0  0  0  0  0  0
  1  2  2  3
  1  5  1  0
  1  6  1  0
  2  3  1  0
  2 16  1  0
  3  4  2  0
  3  7  1  0
  8  9  2  3
  8 13  1  0
  8 14  1  0
  9 10  1  0
  9 15  1  0
 10 11  1  0
 10 12  1  0
 11 17  1  0
 11 18  1  0
 11 19  1  0
 12 20  1  0
 12 21  1  0
 12 22  1  0
M  RAD  1  10   2
M  END
>  <reaction>  (7) 
rxn_1111

>  <mol_properties>  (7) 
{"1": {"label": "*3", "atom_type": "Cdd"}, "2": {"label": "*4", "atom_type": "Cd"}, "8": {"label": "*0", "atom_type": "Cd"}, "9": {"label": "*1", "atom_type": "Cs"}, "15": {"label": "*2", "atom_type": "H0"}}

>  <type>  (7) 
unop_3

>  <geom_source>  (7) 
Heuristics

$$$$

     RDKit          3D

 22 20  0  0  0  0  0  0  0  0999 V2000
    1.3780    1.1469   -1.8794 C   0  0  0  0  0  0  0  0  0  0  0  0
    0.3918    0.9295   -1.0109 C   0  0  0  0  0  0  0  0  0  0  0  0
   -0.3152    2.0193   -0.3646 C   0  0  0  0  0  0  0  0  0  0  0  0
   -1.5188    1.8508    0.6973 S   0  0  0  0  0  0  0  0  0  0  0  0
    1.6900    2.1531   -2.1364 H   0  0  0  0  0  0  0  0  0  0  0  0
    1.9022    0.3304   -2.3588 H   0  0  0  0  0  0  0  0  0  0  0  0
    0.0241    3.0179   -0.6458 H   0  0  0  0  0  0  0  0  0  0  0  0
    0.3918   -2.3948   -1.6529 C   0  0  0  0  0  0  0  0  0  0  0  0
    0.3918   -2.3948   -0.3294 C   0  0  0  0  0  0  0  0  0  0  0  0
    0.3918   -1.1734    0.5426 C   0  0  0  0  0  3  0  0  0  0  0  0
    1.6511   -1.1330    1.4103 C   0  0  0  0  0  0  0  0  0  0  0  0
   -0.8675   -1.1330    1.4103 C   0  0  0  0  0  0  0  0  0  0  0  0
    0.3918   -3.3165   -2.2212 H   0  0  0  0  0  0  0  0  0  0  0  0
    0.3918   -1.4683   -2.2175 H   0  0  0  0  0  0  0  0  0  0  0  0
    0.3918   -3.3461    0.2011 H   0  0  0  0  0  0  0  0  0  0  0  0
    0.3918   -0.1170   -0.2378 H   0  0  0  0  0  0  0  0  0  0  0  0
    2.5527   -1.1271    0.7961 H   0  0  0  0  0  0  0  0  0  0  0  0
    1.6957   -2.0068    2.0661 H   0  0  0  0  0  0  0  0  0  0  0  0
    1.6587   -0.2418    2.0413 H   0  0  0  0  0  0  0  0  0  0  0  0
   -0.9121   -2.0068    2.0661 H   0  0  0  0  0  0  0  0  0  0  0  0
   -1.7690   -1.1271    0.7961 H   0  0  0  0  0  0  0  0  0  0  0  0
   -0.8750   -0.2418    2.0413 H   0  0  0  0  0  0  0  0  0  0  0  0
  1  2  2  3
  1  5  1  0
  1  6  1  0
  2  3  1  0
  2 16  1  0
  3  4  2  0
  3  7  1  0
  8  9  2  3
  8 13  1  0
  8 14  1  0
  9 10  1  0
  9 15  1  0
 10 11  1  0
 10 12  1  0
 11 17  1  0
 11 18  1  0
 11 19  1  0
 12 20  1  0
 12 21  1  0
 12 22  1  0
M  RAD  1  10   2
M  END
>  <reaction>  (8) 
rxn_1111

>  <mol_properties>  (8) 
{"1": {"label": "*3", "atom_type": "Cdd"}, "2": {"label": "*4", "atom_type": "Cd"}, "8": {"label": "*0", "atom_type": "Cd"}, "9": {"label": "*1", "atom_type": "Cs"}, "15": {"label": "*2", "atom_type": "H0"}}

>  <type>  (8) 
unop_4

>  <geom_source>  (8) 
Heuristics

$$$$

     RDKit          3D

 22 20  0  0  0  0  0  0  0  0999 V2000
    0.0000    2.7718    0.4135 C   0  0  0  0  0  0  0  0  0  0  0  0
    0.0000    1.5394   -0.0918 C   0  0  0  0  0  0  0  0  0  0  0  0
    0.0000    1.2970   -1.5224 C   0  0  0  0  0  0  0  0  0  0  0  0
   -0.0000   -0.1573   -2.2222 S   0  0  0  0  0  0  0  0  0  0  0  0
    0.0000    3.6442   -0.2306 H   0  0  0  0  0  0  0  0  0  0  0  0
    0.0000    2.9471    1.4815 H   0  0  0  0  0  0  0  0  0  0  0  0
    0.0000    2.1964   -2.1408 H   0  0  0  0  0  0  0  0  0  0  0  0
   -0.0000   -1.7849   -0.7338 C   0  0  0  0  0  0  0  0  0  0  0  0
   -0.0000   -1.7849    0.5897 C   0  0  0  0  0  0  0  0  0  0  0  0
   -0.0000   -0.5635    1.4617 C   0  0  0  0  0  3  0  0  0  0  0  0
    1.2593   -0.5231    2.3294 C   0  0  0  0  0  0  0  0  0  0  0  0
   -1.2593   -0.5231    2.3294 C   0  0  0  0  0  0  0  0  0  0  0  0
   -0.0000   -2.7066   -1.3021 H   0  0  0  0  0  0  0  0  0  0  0  0
    0.0000   -0.8584   -1.2984 H   0  0  0  0  0  0  0  0  0  0  0  0
   -0.0000   -2.7362    1.1203 H   0  0  0  0  0  0  0  0  0  0  0  0
    0.0000    0.4929    0.6813 H   0  0  0  0  0  0  0  0  0  0  0  0
    2.1609   -0.5172    1.7152 H   0  0  0  0  0  0  0  0  0  0  0  0
    1.3039   -1.3969    2.9852 H   0  0  0  0  0  0  0  0  0  0  0  0
    1.2668    0.3681    2.9604 H   0  0  0  0  0  0  0  0  0  0  0  0
   -1.3039   -1.3969    2.9852 H   0  0  0  0  0  0  0  0  0  0  0  0
   -2.1609   -0.5172    1.7152 H   0  0  0  0  0  0  0  0  0  0  0  0
   -1.2668    0.3681    2.9604 H   0  0  0  0  0  0  0  0  0  0  0  0
  1  2  2  3
  1  5  1  0
  1  6  1  0
  2  3  1  0
  2 16  1  0
  3  4  2  0
  3  7  1  0
  8  9  2  3
  8 13  1  0
  8 14  1  0
  9 10  1  0
  9 15  1  0
 10 11  1  0
 10 12  1  0
 11 17  1  0
 11 18  1  0
 11 19  1  0
 12 20  1  0
 12 21  1  0
 12 22  1  0
M  RAD  1  10   2
M  END
>  <reaction>  (9) 
rxn_1111

>  <mol_properties>  (9) 
{"1": {"label": "*3", "atom_type": "Cdd"}, "2": {"label": "*4", "atom_type": "Cd"}, "8": {"label": "*0", "atom_type": "Cd"}, "9": {"label": "*1", "atom_type": "Cs"}, "15": {"label": "*2", "atom_type": "H0"}}

>  <type>  (9) 
unop_5

>  <geom_source>  (9) 
Heuristics

$$$$

     RDKit          3D

 22 20  0  0  0  0  0  0  0  0999 V2000
    1.6986    1.6361   -1.2790 C   0  0  0  0  0  0  0  0  0  0  0  0
    0.5599    1.0803   -0.8684 C   0  0  0  0  0  0  0  0  0  0  0  0
   -0.5709    1.8794   -0.4350 C   0  0  0  0  0  0  0  0  0  0  0  0
   -1.9852    1.2943    0.0770 S   0  0  0  0  0  0  0  0  0  0  0  0
    1.8223    2.7131   -1.3042 H   0  0  0  0  0  0  0  0  0  0  0  0
    2.5393    1.0355   -1.6013 H   0  0  0  0  0  0  0  0  0  0  0  0
   -0.4124    2.9587   -0.4731 H   0  0  0  0  0  0  0  0  0  0  0  0
    0.5599   -2.2439   -1.5104 C   0  0  0  0  0  0  0  0  0  0  0  0
    0.5599   -2.2439   -0.1869 C   0  0  0  0  0  0  0  0  0  0  0  0
    0.5599   -1.0225    0.6851 C   0  0  0  0  0  3  0  0  0  0  0  0
    1.8192   -0.9821    1.5528 C   0  0  0  0  0  0  0  0  0  0  0  0
   -0.6994   -0.9821    1.5528 C   0  0  0  0  0  0  0  0  0  0  0  0
    0.5599   -3.1656   -2.0787 H   0  0  0  0  0  0  0  0  0  0  0  0
    0.5599   -1.3174   -2.0750 H   0  0  0  0  0  0  0  0  0  0  0  0
    0.5599   -3.1952    0.3436 H   0  0  0  0  0  0  0  0  0  0  0  0
    0.5599    0.0338   -0.0953 H   0  0  0  0  0  0  0  0  0  0  0  0
    2.7208   -0.9762    0.9386 H   0  0  0  0  0  0  0  0  0  0  0  0
    1.8638   -1.8559    2.2086 H   0  0  0  0  0  0  0  0  0  0  0  0
    1.8268   -0.0909    2.1838 H   0  0  0  0  0  0  0  0  0  0  0  0
   -0.7439   -1.8559    2.2086 H   0  0  0  0  0  0  0  0  0  0  0  0
   -1.6009   -0.9762    0.9386 H   0  0  0  0  0  0  0  0  0  0  0  0
   -0.7069   -0.0909    2.1838 H   0  0  0  0  0  0  0  0  0  0  0  0
  1  2  2  3
  1  5  1  0
  1  6  1  0
  2  3  1  0
  2 16  1  0
  3  4  2  0
  3  7  1  0
  8  9  2  3
  8 13  1  0
  8 14  1  0
  9 10  1  0
  9 15  1  0
 10 11  1  0
 10 12  1  0
 11 17  1  0
 11 18  1  0
 11 19  1  0
 12 20  1  0
 12 21  1  0
 12 22  1  0
M  RAD  1  10   2
M  END
>  <reaction>  (10) 
rxn_1111

>  <mol_properties>  (10) 
{"1": {"label": "*3", "atom_type": "Cdd"}, "2": {"label": "*4", "atom_type": "Cd"}, "8": {"label": "*0", "atom_type": "Cd"}, "9": {"label": "*1", "atom_type": "Cs"}, "15": {"label": "*2", "atom_type": "H0"}}

>  <type>  (10) 
unop_6

>  <geom_source>  (10) 
Heuristics

$$$$

     RDKit          3D

 22 20  0  0  0  0  0  0  0  0999 V2000
    1.6131    2.1631   -0.5911 C   0  0  0  0  0  0  0  0  0  0  0  0
    0.6270    1.2690   -0.6384 C   0  0  0  0  0  0  0  0  0  0  0  0
   -0.7680    1.6668   -0.6738 C   0  0  0  0  0  0  0  0  0  0  0  0
   -2.0251    0.6564   -0.7317 S   0  0  0  0  0  0  0  0  0  0  0  0
    1.4075    3.2277   -0.5772 H   0  0  0  0  0  0  0  0  0  0  0  0
    2.6521    1.8611   -0.5649 H   0  0  0  0  0  0  0  0  0  0  0  0
   -0.9388    2.7448   -0.6586 H   0  0  0  0  0  0  0  0  0  0  0  0
    0.6270   -2.0553   -1.2804 C   0  0  0  0  0  0  0  0  0  0  0  0
    0.6270   -2.0553    0.0431 C   0  0  0  0  0  0  0  0  0  0  0  0
    0.6270   -0.8339    0.9151 C   0  0  0  0  0  3  0  0  0  0  0  0
    1.8863   -0.7934    1.7828 C   0  0  0  0  0  0  0  0  0  0  0  0
   -0.6323   -0.7934    1.7828 C   0  0  0  0  0  0  0  0  0  0  0  0
    0.6270   -2.9770   -1.8487 H   0  0  0  0  0  0  0  0  0  0  0  0
    0.6270   -1.1287   -1.8450 H   0  0  0  0  0  0  0  0  0  0  0  0
    0.6270   -3.0066    0.5736 H   0  0  0  0  0  0  0  0  0  0  0  0
    0.6270    0.2225    0.1347 H   0  0  0  0  0  0  0  0  0  0  0  0
    2.7878   -0.7875    1.1686 H   0  0  0  0  0  0  0  0  0  0  0  0
    1.9308   -1.6673    2.4386 H   0  0  0  0  0  0  0  0  0  0  0  0
    1.8938    0.0978    2.4138 H   0  0  0  0  0  0  0  0  0  0  0  0
   -0.6769   -1.6673    2.4386 H   0  0  0  0  0  0  0  0  0  0  0  0
   -1.5339   -0.7875    1.1686 H   0  0  0  0  0  0  0  0  0  0  0  0
   -0.6399    0.0978    2.4138 H   0  0  0  0  0  0  0  0  0  0  0  0
  1  2  2  3
  1  5  1  0
  1  6  1  0
  2  3  1  0
  2 16  1  0
  3  4  2  0
  3  7  1  0
  8  9  2  3
  8 13  1  0
  8 14  1  0
  9 10  1  0
  9 15  1  0
 10 11  1  0
 10 12  1  0
 11 17  1  0
 11 18  1  0
 11 19  1  0
 12 20  1  0
 12 21  1  0
 12 22  1  0
M  RAD  1  10   2
M  END
>  <reaction>  (11) 
rxn_1111

>  <mol_properties>  (11) 
{"1": {"label": "*3", "atom_type": "Cdd"}, "2": {"label": "*4", "atom_type": "Cd"}, "8": {"label": "*0", "atom_type": "Cd"}, "9": {"label": "*1", "atom_type": "Cs"}, "15": {"label": "*2", "atom_type": "H0"}}

>  <type>  (11) 
unop_7

>  <geom_source>  (11) 
Heuristics

$$$$

     RDKit          3D

 22 20  0  0  0  0  0  0  0  0999 V2000
   -1.6986    1.6361   -1.2790 C   0  0  0  0  0  0  0  0  0  0  0  0
   -0.5599    1.0803   -0.8684 C   0  0  0  0  0  0  0  0  0  0  0  0
    0.5709    1.8794   -0.4350 C   0  0  0  0  0  0  0  0  0  0  0  0
    1.9852    1.2943    0.0770 S   0  0  0  0  0  0  0  0  0  0  0  0
   -1.8223    2.7131   -1.3042 H   0  0  0  0  0  0  0  0  0  0  0  0
   -2.5393    1.0355   -1.6013 H   0  0  0  0  0  0  0  0  0  0  0  0
    0.4124    2.9587   -0.4731 H   0  0  0  0  0  0  0  0  0  0  0  0
   -0.5599   -2.2439   -1.5104 C   0  0  0  0  0  0  0  0  0  0  0  0
   -0.5599   -2.2439   -0.1869 C   0  0  0  0  0  0  0  0  0  0  0  0
   -0.5599   -1.0225    0.6851 C   0  0  0  0  0  3  0  0  0  0  0  0
    0.6994   -0.9821    1.5528 C   0  0  0  0  0  0  0  0  0  0  0  0
   -1.8192   -0.9821    1.5528 C   0  0  0  0  0  0  0  0  0  0  0  0
   -0.5599   -3.1656   -2.0787 H   0  0  0  0  0  0  0  0  0  0  0  0
   -0.5599   -1.3174   -2.0750 H   0  0  0  0  0  0  0  0  0  0  0  0
   -0.5599   -3.1952    0.3436 H   0  0  0  0  0  0  0  0  0  0  0  0
   -0.5599    0.0338   -0.0953 H   0  0  0  0  0  0  0  0  0  0  0  0
    1.6009   -0.9762    0.9386 H   0  0  0  0  0  0  0  0  0  0  0  0
    0.7439   -1.8559    2.2086 H   0  0  0  0  0  0  0  0  0  0  0  0
    0.7069   -0.0909    2.1838 H   0  0  0  0  0  0  0  0  0  0  0  0
   -1.8638   -1.8559    2.2086 H   0  0  0  0  0  0  0  0  0  0  0  0
   -2.7208   -0.9762    0.9386 H   0  0  0  0  0  0  0  0  0  0  0  0
   -1.8268   -0.0909    2.1838 H   0  0  0  0  0  0  0  0  0  0  0  0
  1  2  2  3
  1  5  1  0
  1  6  1  0
  2  3  1  0
  2 16  1  0
  3  4  2  0
  3  7  1  0
  8  9  2  3
  8 13  1  0
  8 14  1  0
  9 10  1  0
  9 15  1  0
 10 11  1  0
 10 12  1  0
 11 17  1  0
 11 18  1  0
 11 19  1  0
 12 20  1  0
 12 21  1  0
 12 22  1  0
M  RAD  1  10   2
M  END
>  <reaction>  (12) 
rxn_1111

>  <mol_properties>  (12) 
{"1": {"label": "*3", "atom_type": "Cdd"}, "2": {"label": "*4", "atom_type": "Cd"}, "8": {"label": "*0", "atom_type": "Cd"}, "9": {"label": "*1", "atom_type": "Cs"}, "15": {"label": "*2", "atom_type": "H0"}}

>  <type>  (12) 
unop_8

>  <geom_source>  (12) 
Heuristics

$$$$

     RDKit          3D

 22 20  0  0  0  0  0  0  0  0999 V2000
    0.7609    0.8072   -2.2746 C   0  0  0  0  0  0  0  0  0  0  0  0
    0.1916    0.8374   -1.0708 C   0  0  0  0  0  0  0  0  0  0  0  0
   -0.1153    2.0861   -0.3986 C   0  0  0  0  0  0  0  0  0  0  0  0
   -0.8023    2.2185    1.0558 S   0  0  0  0  0  0  0  0  0  0  0  0
    1.0173    1.7211   -2.7990 H   0  0  0  0  0  0  0  0  0  0  0  0
    0.9878   -0.1270   -2.7717 H   0  0  0  0  0  0  0  0  0  0  0  0
    0.1557    2.9857   -0.9542 H   0  0  0  0  0  0  0  0  0  0  0  0
    0.1916   -2.4869   -1.7128 C   0  0  0  0  0  0  0  0  0  0  0  0
    0.1916   -2.4869   -0.3893 C   0  0  0  0  0  0  0  0  0  0  0  0
    0.1916   -1.2655    0.4827 C   0  0  0  0  0  3  0  0  0  0  0  0
    1.4509   -1.2250    1.3504 C   0  0  0  0  0  0  0  0  0  0  0  0
   -1.0677   -1.2250    1.3504 C   0  0  0  0  0  0  0  0  0  0  0  0
    0.1916   -3.4086   -2.2811 H   0  0  0  0  0  0  0  0  0  0  0  0
    0.1916   -1.5603   -2.2774 H   0  0  0  0  0  0  0  0  0  0  0  0
    0.1916   -3.4382    0.1413 H   0  0  0  0  0  0  0  0  0  0  0  0
    0.1916   -0.2091   -0.2977 H   0  0  0  0  0  0  0  0  0  0  0  0
    2.3524   -1.2191    0.7362 H   0  0  0  0  0  0  0  0  0  0  0  0
    1.4955   -2.0989    2.0062 H   0  0  0  0  0  0  0  0  0  0  0  0
    1.4584   -0.3338    1.9814 H   0  0  0  0  0  0  0  0  0  0  0  0
   -1.1123   -2.0989    2.0062 H   0  0  0  0  0  0  0  0  0  0  0  0
   -1.9693   -1.2191    0.7362 H   0  0  0  0  0  0  0  0  0  0  0  0
   -1.0753   -0.3338    1.9814 H   0  0  0  0  0  0  0  0  0  0  0  0
  1  2  2  3
  1  5  1  0
  1  6  1  0
  2  3  1  0
  2 16  1  0
  3  4  2  0
  3  7  1  0
  8  9  2  3
  8 13  1  0
  8 14  1  0
  9 10  1  0
  9 15  1  0
 10 11  1  0
 10 12  1  0
 11 17  1  0
 11 18  1  0
 11 19  1  0
 12 20  1  0
 12 21  1  0
 12 22  1  0
M  RAD  1  10   2
M  END
>  <reaction>  (13) 
rxn_1111

>  <mol_properties>  (13) 
{"1": {"label": "*3", "atom_type": "Cdd"}, "2": {"label": "*4", "atom_type": "Cd"}, "8": {"label": "*0", "atom_type": "Cd"}, "9": {"label": "*1", "atom_type": "Cs"}, "15": {"label": "*2", "atom_type": "H0"}}

>  <type>  (13) 
unop_9

>  <geom_source>  (13) 
Heuristics

$$$$

     RDKit          3D

 22 20  0  0  0  0  0  0  0  0999 V2000
   -1.3780    1.1469   -1.8794 C   0  0  0  0  0  0  0  0  0  0  0  0
   -0.3918    0.9295   -1.0109 C   0  0  0  0  0  0  0  0  0  0  0  0
    0.3152    2.0193   -0.3646 C   0  0  0  0  0  0  0  0  0  0  0  0
    1.5188    1.8508    0.6973 S   0  0  0  0  0  0  0  0  0  0  0  0
   -1.6900    2.1531   -2.1364 H   0  0  0  0  0  0  0  0  0  0  0  0
   -1.9022    0.3304   -2.3588 H   0  0  0  0  0  0  0  0  0  0  0  0
   -0.0241    3.0179   -0.6458 H   0  0  0  0  0  0  0  0  0  0  0  0
   -0.3918   -2.3948   -1.6529 C   0  0  0  0  0  0  0  0  0  0  0  0
   -0.3918   -2.3948   -0.3294 C   0  0  0  0  0  0  0  0  0  0  0  0
   -0.3918   -1.1734    0.5426 C   0  0  0  0  0  3  0  0  0  0  0  0
    0.8675   -1.1330    1.4103 C   0  0  0  0  0  0  0  0  0  0  0  0
   -1.6511   -1.1330    1.4103 C   0  0  0  0  0  0  0  0  0  0  0  0
   -0.3918   -3.3165   -2.2212 H   0  0  0  0  0  0  0  0  0  0  0  0
   -0.3918   -1.4683   -2.2175 H   0  0  0  0  0  0  0  0  0  0  0  0
   -0.3918   -3.3461    0.2011 H   0  0  0  0  0  0  0  0  0  0  0  0
   -0.3918   -0.1170   -0.2378 H   0  0  0  0  0  0  0  0  0  0  0  0
    1.7690   -1.1271    0.7961 H   0  0  0  0  0  0  0  0  0  0  0  0
    0.9121   -2.0068    2.0661 H   0  0  0  0  0  0  0  0  0  0  0  0
    0.8750   -0.2418    2.0413 H   0  0  0  0  0  0  0  0  0  0  0  0
   -1.6957   -2.0068    2.0661 H   0  0  0  0  0  0  0  0  0  0  0  0
   -2.5527   -1.1271    0.7961 H   0  0  0  0  0  0  0  0  0  0  0  0
   -1.6587   -0.2418    2.0413 H   0  0  0  0  0  0  0  0  0  0  0  0
  1  2  2  3
  1  5  1  0
  1  6  1  0
  2  3  1  0
  2 16  1  0
  3  4  2  0
  3  7  1  0
  8  9  2  3
  8 13  1  0
  8 14  1  0
  9 10  1  0
  9 15  1  0
 10 11  1  0
 10 12  1  0
 11 17  1  0
 11 18  1  0
 11 19  1  0
 12 20  1  0
 12 21  1  0
 12 22  1  0
M  RAD  1  10   2
M  END
>  <reaction>  (14) 
rxn_1111

>  <mol_properties>  (14) 
{"1": {"label": "*3", "atom_type": "Cdd"}, "2": {"label": "*4", "atom_type": "Cd"}, "8": {"label": "*0", "atom_type": "Cd"}, "9": {"label": "*1", "atom_type": "Cs"}, "15": {"label": "*2", "atom_type": "H0"}}

>  <type>  (14) 
unop_10

>  <geom_source>  (14) 
Heuristics

$$$$

     RDKit          3D

 22 20  0  0  0  0  0  0  0  0999 V2000
    1.0748    2.5925    0.0487 C   0  0  0  0  0  0  0  0  0  0  0  0
    0.5055    1.4507   -0.3339 C   0  0  0  0  0  0  0  0  0  0  0  0
   -0.7197    1.4273   -1.1109 C   0  0  0  0  0  0  0  0  0  0  0  0
   -1.4782    0.0956   -1.6170 S   0  0  0  0  0  0  0  0  0  0  0  0
    0.6402    3.5520   -0.2085 H   0  0  0  0  0  0  0  0  0  0  0  0
    1.9888    2.6044    0.6282 H   0  0  0  0  0  0  0  0  0  0  0  0
   -1.1297    2.4097   -1.3521 H   0  0  0  0  0  0  0  0  0  0  0  0
    0.5055   -1.8736   -0.9759 C   0  0  0  0  0  0  0  0  0  0  0  0
    0.5055   -1.8736    0.3476 C   0  0  0  0  0  0  0  0  0  0  0  0
    0.5055   -0.6522    1.2197 C   0  0  0  0  0  3  0  0  0  0  0  0
    1.7648   -0.6117    2.0873 C   0  0  0  0  0  0  0  0  0  0  0  0
   -0.7538   -0.6117    2.0873 C   0  0  0  0  0  0  0  0  0  0  0  0
    0.5055   -2.7953   -1.5441 H   0  0  0  0  0  0  0  0  0  0  0  0
    0.5055   -0.9470   -1.5404 H   0  0  0  0  0  0  0  0  0  0  0  0
    0.5055   -2.8249    0.8782 H   0  0  0  0  0  0  0  0  0  0  0  0
    0.5055    0.4042    0.4392 H   0  0  0  0  0  0  0  0  0  0  0  0
    2.6663   -0.6058    1.4732 H   0  0  0  0  0  0  0  0  0  0  0  0
    1.8094   -1.4856    2.7431 H   0  0  0  0  0  0  0  0  0  0  0  0
    1.7723    0.2795    2.7183 H   0  0  0  0  0  0  0  0  0  0  0  0
   -0.7984   -1.4856    2.7431 H   0  0  0  0  0  0  0  0  0  0  0  0
   -1.6554   -0.6058    1.4732 H   0  0  0  0  0  0  0  0  0  0  0  0
   -0.7614    0.2795    2.7183 H   0  0  0  0  0  0  0  0  0  0  0  0
  1  2  2  3
  1  5  1  0
  1  6  1  0
  2  3  1  0
  2 16  1  0
  3  4  2  0
  3  7  1  0
  8  9  2  3
  8 13  1  0
  8 14  1  0
  9 10  1  0
  9 15  1  0
 10 11  1  0
 10 12  1  0
 11 17  1  0
 11 18  1  0
 11 19  1  0
 12 20  1  0
 12 21  1  0
 12 22  1  0
M  RAD  1  10   2
M  END
>  <reaction>  (15) 
rxn_1111

>  <mol_properties>  (15) 
{"1": {"label": "*3", "atom_type": "Cdd"}, "2": {"label": "*4", "atom_type": "Cd"}, "8": {"label": "*0", "atom_type": "Cd"}, "9": {"label": "*1", "atom_type": "Cs"}, "15": {"label": "*2", "atom_type": "H0"}}

>  <type>  (15) 
unop_11

>  <geom_source>  (15) 
Heuristics

$$$$

     RDKit          3D

 22 20  0  0  0  0  0  0  0  0999 V2000
    0.0000    0.6866   -2.4091 C   0  0  0  0  0  0  0  0  0  0  0  0
    0.0000    0.8074   -1.0826 C   0  0  0  0  0  0  0  0  0  0  0  0
    0.0000    2.1036   -0.4305 C   0  0  0  0  0  0  0  0  0  0  0  0
    0.0000    2.3452    1.1652 S   0  0  0  0  0  0  0  0  0  0  0  0
    0.0000    1.5585   -3.0537 H   0  0  0  0  0  0  0  0  0  0  0  0
   -0.0000   -0.2828   -2.8905 H   0  0  0  0  0  0  0  0  0  0  0  0
    0.0000    2.9590   -1.1085 H   0  0  0  0  0  0  0  0  0  0  0  0
   -0.0000   -2.5169   -1.7246 C   0  0  0  0  0  0  0  0  0  0  0  0
   -0.0000   -2.5169   -0.4011 C   0  0  0  0  0  0  0  0  0  0  0  0
   -0.0000   -1.2955    0.4709 C   0  0  0  0  0  3  0  0  0  0  0  0
    1.2593   -1.2551    1.3386 C   0  0  0  0  0  0  0  0  0  0  0  0
   -1.2593   -1.2551    1.3386 C   0  0  0  0  0  0  0  0  0  0  0  0
   -0.0000   -3.4386   -2.2929 H   0  0  0  0  0  0  0  0  0  0  0  0
   -0.0000   -1.5903   -2.2892 H   0  0  0  0  0  0  0  0  0  0  0  0
   -0.0000   -3.4682    0.1294 H   0  0  0  0  0  0  0  0  0  0  0  0
   -0.0000   -0.2391   -0.3095 H   0  0  0  0  0  0  0  0  0  0  0  0
    2.1609   -1.2492    0.7244 H   0  0  0  0  0  0  0  0  0  0  0  0
    1.3039   -2.1289    1.9944 H   0  0  0  0  0  0  0  0  0  0  0  0
    1.2668   -0.3639    1.9696 H   0  0  0  0  0  0  0  0  0  0  0  0
   -1.3039   -2.1289    1.9944 H   0  0  0  0  0  0  0  0  0  0  0  0
   -2.1609   -1.2492    0.7244 H   0  0  0  0  0  0  0  0  0  0  0  0
   -1.2668   -0.3639    1.9696 H   0  0  0  0  0  0  0  0  0  0  0  0
  1  2  2  3
  1  5  1  0
  1  6  1  0
  2  3  1  0
  2 16  1  0
  3  4  2  0
  3  7  1  0
  8  9  2  3
  8 13  1  0
  8 14  1  0
  9 10  1  0
  9 15  1  0
 10 11  1  0
 10 12  1  0
 11 17  1  0
 11 18  1  0
 11 19  1  0
 12 20  1  0
 12 21  1  0
 12 22  1  0
M  RAD  1  10   2
M  END
>  <reaction>  (16) 
rxn_1111

>  <mol_properties>  (16) 
{"1": {"label": "*3", "atom_type": "Cdd"}, "2": {"label": "*4", "atom_type": "Cd"}, "8": {"label": "*0", "atom_type": "Cd"}, "9": {"label": "*1", "atom_type": "Cs"}, "15": {"label": "*2", "atom_type": "H0"}}

>  <type>  (16) 
unop_12

>  <geom_source>  (16) 
Heuristics

$$$$

     RDKit          3D

 22 19  0  0  0  0  0  0  0  0999 V2000
   -2.0892    1.6100   -1.9419 S   0  0  0  0  0  0  0  0  0  0  0  0
   -0.0457    0.5902   -1.0959 C   0  0  0  0  0  3  0  0  0  0  0  0
    1.9754    0.6222    0.4185 C   0  0  0  0  0  0  0  0  0  0  0  0
    0.7823   -0.1966   -0.0789 C   0  0  0  0  0  3  0  0  0  0  0  0
    1.2290   -1.5189   -0.6445 C   0  0  0  0  0  0  0  0  0  0  0  0
   -1.6417    0.4745    0.4530 C   0  0  0  0  0  0  0  0  0  0  0  0
   -1.9368    0.2464    1.7286 C   0  0  0  0  0  0  0  0  0  0  0  0
   -2.4774    1.3484   -0.3769 C   0  0  0  0  0  0  0  0  0  0  0  0
    1.5804   -2.5243    0.1599 C   0  0  0  0  0  3  0  0  0  0  0  0
    0.5654    0.8431   -1.9892 H   0  0  0  0  0  0  0  0  0  0  0  0
   -0.4193    1.5285   -0.6345 H   0  0  0  0  0  0  0  0  0  0  0  0
   -0.9231   -0.0117   -1.4143 H   0  0  0  0  0  0  0  0  0  0  0  0
    2.6705    0.8487   -0.4186 H   0  0  0  0  0  0  0  0  0  0  0  0
    2.5240    0.0599    1.2031 H   0  0  0  0  0  0  0  0  0  0  0  0
    1.6211    1.5757    0.8639 H   0  0  0  0  0  0  0  0  0  0  0  0
   -0.6431   -0.0622   -0.0386 H   0  0  0  0  0  0  0  0  0  0  0  0
    1.2427   -1.6746   -1.7201 H   0  0  0  0  0  0  0  0  0  0  0  0
   -2.8037    0.6990    2.1942 H   0  0  0  0  0  0  0  0  0  0  0  0
   -1.3040   -0.4025    2.3193 H   0  0  0  0  0  0  0  0  0  0  0  0
   -3.3565    1.8280    0.0353 H   0  0  0  0  0  0  0  0  0  0  0  0
    1.8882   -3.4755   -0.2621 H   0  0  0  0  0  0  0  0  0  0  0  0
    1.5616   -2.4083    1.2394 H   0  0  0  0  0  0  0  0  0  0  0  0
  1  8  2  0
  2 10  1  0
  2 11  1  0
  2 12  1  0
  3  4  1  0
  3 13  1  0
  3 14  1  0
  3 15  1  0
  4  5  2  3
  5  9  1  0
  5 17  1  0
  6  7  2  3
  6  8  1  0
  6 16  1  0
  7 18  1  0
  7 19  1  0
  8 20  1  0
  9 21  1  0
  9 22  1  0
M  CHG  2   4  -1   9   1
M  RAD  1   2   2
M  END
>  <reaction>  (17) 
rxn_1111

>  <mol_properties>  (17) 
{"1": {"label": "*3", "atom_type": "Cdd"}, "2": {"label": "*4", "atom_type": "Cd"}, "8": {"label": "*0", "atom_type": "Cd"}, "9": {"label": "*1", "atom_type": "Cs"}, "15": {"label": "*2", "atom_type": "H0"}}

>  <type>  (17) 
unop_13

>  <geom_source>  (17) 
AutoTST

$$$$

     RDKit          3D

 22 20  0  0  0  0  0  0  0  0999 V2000
   -0.7609    0.8072   -2.2746 C   0  0  0  0  0  0  0  0  0  0  0  0
   -0.1916    0.8374   -1.0708 C   0  0  0  0  0  0  0  0  0  0  0  0
    0.1153    2.0861   -0.3986 C   0  0  0  0  0  0  0  0  0  0  0  0
    0.8023    2.2185    1.0558 S   0  0  0  0  0  0  0  0  0  0  0  0
   -1.0173    1.7211   -2.7990 H   0  0  0  0  0  0  0  0  0  0  0  0
   -0.9878   -0.1270   -2.7717 H   0  0  0  0  0  0  0  0  0  0  0  0
   -0.1557    2.9857   -0.9542 H   0  0  0  0  0  0  0  0  0  0  0  0
   -0.1916   -2.4869   -1.7128 C   0  0  0  0  0  0  0  0  0  0  0  0
   -0.1916   -2.4869   -0.3893 C   0  0  0  0  0  0  0  0  0  0  0  0
   -0.1916   -1.2655    0.4827 C   0  0  0  0  0  3  0  0  0  0  0  0
    1.0677   -1.2250    1.3504 C   0  0  0  0  0  0  0  0  0  0  0  0
   -1.4509   -1.2250    1.3504 C   0  0  0  0  0  0  0  0  0  0  0  0
   -0.1916   -3.4086   -2.2811 H   0  0  0  0  0  0  0  0  0  0  0  0
   -0.1916   -1.5603   -2.2774 H   0  0  0  0  0  0  0  0  0  0  0  0
   -0.1916   -3.4382    0.1412 H   0  0  0  0  0  0  0  0  0  0  0  0
   -0.1916   -0.2091   -0.2977 H   0  0  0  0  0  0  0  0  0  0  0  0
    1.9693   -1.2191    0.7362 H   0  0  0  0  0  0  0  0  0  0  0  0
    1.1123   -2.0989    2.0062 H   0  0  0  0  0  0  0  0  0  0  0  0
    1.0753   -0.3338    1.9814 H   0  0  0  0  0  0  0  0  0  0  0  0
   -1.4955   -2.0989    2.0062 H   0  0  0  0  0  0  0  0  0  0  0  0
   -2.3524   -1.2191    0.7362 H   0  0  0  0  0  0  0  0  0  0  0  0
   -1.4584   -0.3338    1.9814 H   0  0  0  0  0  0  0  0  0  0  0  0
  1  2  2  3
  1  5  1  0
  1  6  1  0
  2  3  1  0
  2 16  1  0
  3  4  2  0
  3  7  1  0
  8  9  2  3
  8 13  1  0
  8 14  1  0
  9 10  1  0
  9 15  1  0
 10 11  1  0
 10 12  1  0
 11 17  1  0
 11 18  1  0
 11 19  1  0
 12 20  1  0
 12 21  1  0
 12 22  1  0
M  RAD  1  10   2
M  END
>  <reaction>  (18) 
rxn_1111

>  <mol_properties>  (18) 
{"1": {"label": "*3", "atom_type": "Cdd"}, "2": {"label": "*4", "atom_type": "Cd"}, "8": {"label": "*0", "atom_type": "Cd"}, "9": {"label": "*1", "atom_type": "Cs"}, "15": {"label": "*2", "atom_type": "H0"}}

>  <type>  (18) 
unop_14

>  <geom_source>  (18) 
gaussian_log

$$$$
