
     RDKit          3D

  5  4  0  0  0  0  0  0  0  0999 V2000
    0.0000    0.0000    0.0000 C   0  0  0  0  0  0  0  0  0  0  0  0
   -0.6486   -0.7720   -0.4113 H   0  0  0  0  0  0  0  0  0  0  0  0
   -0.3482    0.9787   -0.3267 H   0  0  0  0  0  0  0  0  0  0  0  0
   -0.0223   -0.0487    1.0876 H   0  0  0  0  0  0  0  0  0  0  0  0
    1.0191   -0.1580   -0.3496 H   0  0  0  0  0  0  0  0  0  0  0  0
  1  2  1  0
  1  3  1  0
  1  4  1  0
  1  5  1  0
M  END
>  <reaction>  (1) 
rxn_188

>  <mol_properties>  (1) 
{"0": {"label": "donator", "atom_type": "Cs"}, "4": {"label": "d_hydrogen", "atom_type": "H0"}}

>  <type>  (1) 
r1h

$$$$

     RDKit          3D

  2  1  0  0  0  0  0  0  0  0999 V2000
    0.0000    0.0000    0.4855 O   0  0  0  0  0  1  0  0  0  0  0  0
    0.0000    0.0000   -0.4855 H   0  0  0  0  0  0  0  0  0  0  0  0
  1  2  1  0
M  RAD  1   1   2
M  END
>  <reaction>  (2) 
rxn_188

>  <mol_properties>  (2) 
{"0": {"label": "acceptor", "atom_type": "O2s"}}

>  <type>  (2) 
r2

$$$$

     RDKit          3D

  3  2  0  0  0  0  0  0  0  0999 V2000
   -0.0003    0.3867    0.0000 O   0  0  0  0  0  0  0  0  0  0  0  0
   -0.7617   -0.1940    0.0000 H   0  0  0  0  0  0  0  0  0  0  0  0
    0.7620   -0.1927    0.0000 H   0  0  0  0  0  0  0  0  0  0  0  0
  1  2  1  0
  1  3  1  0
M  END
>  <reaction>  (3) 
rxn_188

>  <mol_properties>  (3) 
{"0": {"label": "acceptor", "atom_type": "O2s"}, "1": {"label": "a_hydrogen", "atom_type": "H0"}}

>  <type>  (3) 
r2h

$$$$

     RDKit          3D

  7  5  0  0  0  0  0  0  0  0999 V2000
    1.6838   -0.2321   -0.3906 O   0  0  0  0  0  1  0  0  0  0  0  0
   -0.7793    0.1038   -0.0122 C   0  0  0  0  0  0  0  0  0  0  0  0
   -1.0519    1.0469   -0.4780 H   0  0  0  0  0  0  0  0  0  0  0  0
   -1.2921   -0.7501   -0.4461 H   0  0  0  0  0  0  0  0  0  0  0  0
   -0.8604    0.1339    1.0709 H   0  0  0  0  0  0  0  0  0  0  0  0
    0.3920   -0.0578   -0.2939 H   0  0  0  0  0  0  0  0  0  0  0  0
    1.9080   -0.2447    0.5498 H   0  0  0  0  0  0  0  0  0  0  0  0
  1  7  1  0
  2  3  1  0
  2  4  1  0
  2  5  1  0
  2  6  1  0
M  RAD  1   1   2
M  END
>  <reaction>  (4) 
rxn_188

>  <mol_properties>  (4) 
{"0": {"label": "*3", "atom_type": "O2s"}, "1": {"label": "*1", "atom_type": "Cs"}, "2": {"label": "*0", "atom_type": "H0"}, "5": {"label": "*2", "atom_type": "H0"}, "6": {"label": "*4", "atom_type": "H0"}}

>  <type>  (4) 
ts

$$$$

     RDKit          3D

  7  5  0  0  0  0  0  0  0  0999 V2000
    0.0244   -1.2006   -0.4394 C   0  0  0  0  0  3  0  0  0  0  0  0
    0.0244    0.0314   -0.0038 H   0  0  0  0  0  0  0  0  0  0  0  0
    0.9135   -1.7140   -0.0764 H   0  0  0  0  0  0  0  0  0  0  0  0
   -0.8647   -1.7139   -0.0764 H   0  0  0  0  0  0  0  0  0  0  0  0
    0.0244   -1.2006   -1.5283 H   0  0  0  0  0  0  0  0  0  0  0  0
    0.0244    1.1147    0.3792 O   0  0  0  0  0  0  0  0  0  0  0  0
   -0.7750    1.2011    0.8992 H   0  0  0  0  0  0  0  0  0  0  0  0
  1  3  1  0
  1  4  1  0
  1  5  1  0
  2  6  1  0
  6  7  1  0
M  RAD  1   1   2
M  END
>  <reaction>  (5) 
rxn_188

>  <mol_properties>  (5) 
{"0": {"label": "*3", "atom_type": "O2s"}, "1": {"label": "*1", "atom_type": "Cs"}, "2": {"label": "*0", "atom_type": "H0"}, "5": {"label": "*2", "atom_type": "H0"}, "6": {"label": "*4", "atom_type": "H0"}}

>  <type>  (5) 
unop_1

>  <geom_source>  (5) 
Heuristics

$$$$

     RDKit          3D

  7  5  0  0  0  0  0  0  0  0999 V2000
    0.0141   -1.2134   -0.4031 C   0  0  0  0  0  3  0  0  0  0  0  0
    0.0141    0.0185    0.0324 H   0  0  0  0  0  0  0  0  0  0  0  0
    0.9032   -1.7268   -0.0402 H   0  0  0  0  0  0  0  0  0  0  0  0
   -0.8750   -1.7268   -0.0402 H   0  0  0  0  0  0  0  0  0  0  0  0
    0.0141   -1.2134   -1.4921 H   0  0  0  0  0  0  0  0  0  0  0  0
    0.0141    1.1019    0.4155 O   0  0  0  0  0  0  0  0  0  0  0  0
   -0.4474    1.6086   -0.2533 H   0  0  0  0  0  0  0  0  0  0  0  0
  1  3  1  0
  1  4  1  0
  1  5  1  0
  2  6  1  0
  6  7  1  0
M  RAD  1   1   2
M  END
>  <reaction>  (6) 
rxn_188

>  <mol_properties>  (6) 
{"0": {"label": "*3", "atom_type": "O2s"}, "1": {"label": "*1", "atom_type": "Cs"}, "2": {"label": "*0", "atom_type": "H0"}, "5": {"label": "*2", "atom_type": "H0"}, "6": {"label": "*4", "atom_type": "H0"}}

>  <type>  (6) 
unop_2

>  <geom_source>  (6) 
Heuristics

$$$$

     RDKit          3D

  7  5  0  0  0  0  0  0  0  0999 V2000
    0.0141   -1.1972   -0.4491 C   0  0  0  0  0  3  0  0  0  0  0  0
    0.0141    0.0348   -0.0136 H   0  0  0  0  0  0  0  0  0  0  0  0
    0.9032   -1.7105   -0.0862 H   0  0  0  0  0  0  0  0  0  0  0  0
   -0.8750   -1.7105   -0.0862 H   0  0  0  0  0  0  0  0  0  0  0  0
    0.0141   -1.1972   -1.5381 H   0  0  0  0  0  0  0  0  0  0  0  0
    0.0141    1.1182    0.3695 O   0  0  0  0  0  0  0  0  0  0  0  0
   -0.4474    1.0919    1.2081 H   0  0  0  0  0  0  0  0  0  0  0  0
  1  3  1  0
  1  4  1  0
  1  5  1  0
  2  6  1  0
  6  7  1  0
M  RAD  1   1   2
M  END
>  <reaction>  (7) 
rxn_188

>  <mol_properties>  (7) 
{"0": {"label": "*3", "atom_type": "O2s"}, "1": {"label": "*1", "atom_type": "Cs"}, "2": {"label": "*0", "atom_type": "H0"}, "5": {"label": "*2", "atom_type": "H0"}, "6": {"label": "*4", "atom_type": "H0"}}

>  <type>  (7) 
unop_3

>  <geom_source>  (7) 
Heuristics

$$$$

     RDKit          3D

  7  5  0  0  0  0  0  0  0  0999 V2000
   -0.0244   -1.2100   -0.4129 C   0  0  0  0  0  3  0  0  0  0  0  0
   -0.0244    0.0220    0.0227 H   0  0  0  0  0  0  0  0  0  0  0  0
    0.8647   -1.7233   -0.0499 H   0  0  0  0  0  0  0  0  0  0  0  0
   -0.9135   -1.7233   -0.0499 H   0  0  0  0  0  0  0  0  0  0  0  0
   -0.0244   -1.2100   -1.5018 H   0  0  0  0  0  0  0  0  0  0  0  0
   -0.0244    1.1053    0.4057 O   0  0  0  0  0  0  0  0  0  0  0  0
    0.7750    1.4994    0.0555 H   0  0  0  0  0  0  0  0  0  0  0  0
  1  3  1  0
  1  4  1  0
  1  5  1  0
  2  6  1  0
  6  7  1  0
M  RAD  1   1   2
M  END
>  <reaction>  (8) 
rxn_188

>  <mol_properties>  (8) 
{"0": {"label": "*3", "atom_type": "O2s"}, "1": {"label": "*1", "atom_type": "Cs"}, "2": {"label": "*0", "atom_type": "H0"}, "5": {"label": "*2", "atom_type": "H0"}, "6": {"label": "*4", "atom_type": "H0"}}

>  <type>  (8) 
unop_4

>  <geom_source>  (8) 
Heuristics

$$$$

     RDKit          3D

  7  5  0  0  0  0  0  0  0  0999 V2000
    0.0000   -1.1959   -0.4527 C   0  0  0  0  0  3  0  0  0  0  0  0
    0.0000    0.0361   -0.0171 H   0  0  0  0  0  0  0  0  0  0  0  0
    0.8891   -1.7093   -0.0897 H   0  0  0  0  0  0  0  0  0  0  0  0
   -0.8891   -1.7093   -0.0897 H   0  0  0  0  0  0  0  0  0  0  0  0
    0.0000   -1.1959   -1.5416 H   0  0  0  0  0  0  0  0  0  0  0  0
    0.0000    1.1194    0.3659 O   0  0  0  0  0  0  0  0  0  0  0  0
    0.0000    1.0520    1.3211 H   0  0  0  0  0  0  0  0  0  0  0  0
  1  3  1  0
  1  4  1  0
  1  5  1  0
  2  6  1  0
  6  7  1  0
M  RAD  1   1   2
M  END
>  <reaction>  (9) 
rxn_188

>  <mol_properties>  (9) 
{"0": {"label": "*3", "atom_type": "O2s"}, "1": {"label": "*1", "atom_type": "Cs"}, "2": {"label": "*0", "atom_type": "H0"}, "5": {"label": "*2", "atom_type": "H0"}, "6": {"label": "*4", "atom_type": "H0"}}

>  <type>  (9) 
unop_5

>  <geom_source>  (9) 
Heuristics

$$$$

     RDKit          3D

  7  5  0  0  0  0  0  0  0  0999 V2000
   -0.0282   -1.2053   -0.4261 C   0  0  0  0  0  3  0  0  0  0  0  0
   -0.0282    0.0267    0.0094 H   0  0  0  0  0  0  0  0  0  0  0  0
    0.8609   -1.7186   -0.0632 H   0  0  0  0  0  0  0  0  0  0  0  0
   -0.9173   -1.7186   -0.0632 H   0  0  0  0  0  0  0  0  0  0  0  0
   -0.0282   -1.2053   -1.5151 H   0  0  0  0  0  0  0  0  0  0  0  0
   -0.0282    1.1100    0.3925 O   0  0  0  0  0  0  0  0  0  0  0  0
    0.8949    1.3503    0.4774 H   0  0  0  0  0  0  0  0  0  0  0  0
  1  3  1  0
  1  4  1  0
  1  5  1  0
  2  6  1  0
  6  7  1  0
M  RAD  1   1   2
M  END
>  <reaction>  (10) 
rxn_188

>  <mol_properties>  (10) 
{"0": {"label": "*3", "atom_type": "O2s"}, "1": {"label": "*1", "atom_type": "Cs"}, "2": {"label": "*0", "atom_type": "H0"}, "5": {"label": "*2", "atom_type": "H0"}, "6": {"label": "*4", "atom_type": "H0"}}

>  <type>  (10) 
unop_6

>  <geom_source>  (10) 
Heuristics

$$$$

     RDKit          3D

  7  5  0  0  0  0  0  0  0  0999 V2000
   -0.0244   -1.2006   -0.4394 C   0  0  0  0  0  3  0  0  0  0  0  0
   -0.0244    0.0314   -0.0038 H   0  0  0  0  0  0  0  0  0  0  0  0
    0.8647   -1.7140   -0.0764 H   0  0  0  0  0  0  0  0  0  0  0  0
   -0.9135   -1.7139   -0.0764 H   0  0  0  0  0  0  0  0  0  0  0  0
   -0.0244   -1.2006   -1.5283 H   0  0  0  0  0  0  0  0  0  0  0  0
   -0.0244    1.1147    0.3792 O   0  0  0  0  0  0  0  0  0  0  0  0
    0.7750    1.2011    0.8992 H   0  0  0  0  0  0  0  0  0  0  0  0
  1  3  1  0
  1  4  1  0
  1  5  1  0
  2  6  1  0
  6  7  1  0
M  RAD  1   1   2
M  END
>  <reaction>  (11) 
rxn_188

>  <mol_properties>  (11) 
{"0": {"label": "*3", "atom_type": "O2s"}, "1": {"label": "*1", "atom_type": "Cs"}, "2": {"label": "*0", "atom_type": "H0"}, "5": {"label": "*2", "atom_type": "H0"}, "6": {"label": "*4", "atom_type": "H0"}}

>  <type>  (11) 
unop_7

>  <geom_source>  (11) 
Heuristics

$$$$

     RDKit          3D

  7  5  0  0  0  0  0  0  0  0999 V2000
    0.0282   -1.2053   -0.4261 C   0  0  0  0  0  3  0  0  0  0  0  0
    0.0282    0.0267    0.0094 H   0  0  0  0  0  0  0  0  0  0  0  0
    0.9173   -1.7186   -0.0632 H   0  0  0  0  0  0  0  0  0  0  0  0
   -0.8609   -1.7186   -0.0632 H   0  0  0  0  0  0  0  0  0  0  0  0
    0.0282   -1.2053   -1.5151 H   0  0  0  0  0  0  0  0  0  0  0  0
    0.0282    1.1100    0.3925 O   0  0  0  0  0  0  0  0  0  0  0  0
   -0.8949    1.3503    0.4774 H   0  0  0  0  0  0  0  0  0  0  0  0
  1  3  1  0
  1  4  1  0
  1  5  1  0
  2  6  1  0
  6  7  1  0
M  RAD  1   1   2
M  END
>  <reaction>  (12) 
rxn_188

>  <mol_properties>  (12) 
{"0": {"label": "*3", "atom_type": "O2s"}, "1": {"label": "*1", "atom_type": "Cs"}, "2": {"label": "*0", "atom_type": "H0"}, "5": {"label": "*2", "atom_type": "H0"}, "6": {"label": "*4", "atom_type": "H0"}}

>  <type>  (12) 
unop_8

>  <geom_source>  (12) 
Heuristics

$$$$

     RDKit          3D

  7  5  0  0  0  0  0  0  0  0999 V2000
   -0.0141   -1.2134   -0.4031 C   0  0  0  0  0  3  0  0  0  0  0  0
   -0.0141    0.0185    0.0324 H   0  0  0  0  0  0  0  0  0  0  0  0
    0.8750   -1.7268   -0.0402 H   0  0  0  0  0  0  0  0  0  0  0  0
   -0.9032   -1.7268   -0.0402 H   0  0  0  0  0  0  0  0  0  0  0  0
   -0.0141   -1.2134   -1.4921 H   0  0  0  0  0  0  0  0  0  0  0  0
   -0.0141    1.1019    0.4155 O   0  0  0  0  0  0  0  0  0  0  0  0
    0.4474    1.6086   -0.2533 H   0  0  0  0  0  0  0  0  0  0  0  0
  1  3  1  0
  1  4  1  0
  1  5  1  0
  2  6  1  0
  6  7  1  0
M  RAD  1   1   2
M  END
>  <reaction>  (13) 
rxn_188

>  <mol_properties>  (13) 
{"0": {"label": "*3", "atom_type": "O2s"}, "1": {"label": "*1", "atom_type": "Cs"}, "2": {"label": "*0", "atom_type": "H0"}, "5": {"label": "*2", "atom_type": "H0"}, "6": {"label": "*4", "atom_type": "H0"}}

>  <type>  (13) 
unop_9

>  <geom_source>  (13) 
Heuristics

$$$$

     RDKit          3D

  7  5  0  0  0  0  0  0  0  0999 V2000
    0.0244   -1.2100   -0.4129 C   0  0  0  0  0  3  0  0  0  0  0  0
    0.0244    0.0220    0.0227 H   0  0  0  0  0  0  0  0  0  0  0  0
    0.9135   -1.7233   -0.0499 H   0  0  0  0  0  0  0  0  0  0  0  0
   -0.8647   -1.7233   -0.0499 H   0  0  0  0  0  0  0  0  0  0  0  0
    0.0244   -1.2100   -1.5018 H   0  0  0  0  0  0  0  0  0  0  0  0
    0.0244    1.1053    0.4057 O   0  0  0  0  0  0  0  0  0  0  0  0
   -0.7750    1.4994    0.0555 H   0  0  0  0  0  0  0  0  0  0  0  0
  1  3  1  0
  1  4  1  0
  1  5  1  0
  2  6  1  0
  6  7  1  0
M  RAD  1   1   2
M  END
>  <reaction>  (14) 
rxn_188

>  <mol_properties>  (14) 
{"0": {"label": "*3", "atom_type": "O2s"}, "1": {"label": "*1", "atom_type": "Cs"}, "2": {"label": "*0", "atom_type": "H0"}, "5": {"label": "*2", "atom_type": "H0"}, "6": {"label": "*4", "atom_type": "H0"}}

>  <type>  (14) 
unop_10

>  <geom_source>  (14) 
Heuristics

$$$$

     RDKit          3D

  7  5  0  0  0  0  0  0  0  0999 V2000
   -0.0141   -1.1972   -0.4491 C   0  0  0  0  0  3  0  0  0  0  0  0
   -0.0141    0.0348   -0.0136 H   0  0  0  0  0  0  0  0  0  0  0  0
    0.8750   -1.7105   -0.0862 H   0  0  0  0  0  0  0  0  0  0  0  0
   -0.9032   -1.7105   -0.0862 H   0  0  0  0  0  0  0  0  0  0  0  0
   -0.0141   -1.1972   -1.5381 H   0  0  0  0  0  0  0  0  0  0  0  0
   -0.0141    1.1182    0.3695 O   0  0  0  0  0  0  0  0  0  0  0  0
    0.4474    1.0919    1.2081 H   0  0  0  0  0  0  0  0  0  0  0  0
  1  3  1  0
  1  4  1  0
  1  5  1  0
  2  6  1  0
  6  7  1  0
M  RAD  1   1   2
M  END
>  <reaction>  (15) 
rxn_188

>  <mol_properties>  (15) 
{"0": {"label": "*3", "atom_type": "O2s"}, "1": {"label": "*1", "atom_type": "Cs"}, "2": {"label": "*0", "atom_type": "H0"}, "5": {"label": "*2", "atom_type": "H0"}, "6": {"label": "*4", "atom_type": "H0"}}

>  <type>  (15) 
unop_11

>  <geom_source>  (15) 
Heuristics

$$$$

     RDKit          3D

  7  5  0  0  0  0  0  0  0  0999 V2000
    0.0000   -1.2147   -0.3996 C   0  0  0  0  0  3  0  0  0  0  0  0
    0.0000    0.0173    0.0360 H   0  0  0  0  0  0  0  0  0  0  0  0
    0.8891   -1.7280   -0.0366 H   0  0  0  0  0  0  0  0  0  0  0  0
   -0.8891   -1.7280   -0.0366 H   0  0  0  0  0  0  0  0  0  0  0  0
    0.0000   -1.2147   -1.4885 H   0  0  0  0  0  0  0  0  0  0  0  0
    0.0000    1.1007    0.4190 O   0  0  0  0  0  0  0  0  0  0  0  0
    0.0000    1.6486   -0.3663 H   0  0  0  0  0  0  0  0  0  0  0  0
  1  3  1  0
  1  4  1  0
  1  5  1  0
  2  6  1  0
  6  7  1  0
M  RAD  1   1   2
M  END
>  <reaction>  (16) 
rxn_188

>  <mol_properties>  (16) 
{"0": {"label": "*3", "atom_type": "O2s"}, "1": {"label": "*1", "atom_type": "Cs"}, "2": {"label": "*0", "atom_type": "H0"}, "5": {"label": "*2", "atom_type": "H0"}, "6": {"label": "*4", "atom_type": "H0"}}

>  <type>  (16) 
unop_12

>  <geom_source>  (16) 
Heuristics

$$$$

     RDKit          3D

  7  5  0  0  0  0  0  0  0  0999 V2000
    1.5609   -0.2924   -0.3867 O   0  0  0  0  0  0  0  0  0  0  0  0
   -0.8123    0.1009    0.0223 C   0  0  0  0  0  3  0  0  0  0  0  0
   -1.3277   -0.7983   -0.3732 H   0  0  0  0  0  0  0  0  0  0  0  0
   -1.3116    0.4327    0.9558 H   0  0  0  0  0  0  0  0  0  0  0  0
   -0.8577    0.9144   -0.7306 H   0  0  0  0  0  0  0  0  0  0  0  0
    2.2418   -0.1007    0.3063 H   0  0  0  0  0  0  0  0  0  0  0  0
    0.5066   -0.2567    0.2061 H   0  0  0  0  0  0  0  0  0  0  0  0
  1  6  1  0
  1  7  1  0
  2  3  1  0
  2  4  1  0
  2  5  1  0
M  RAD  1   2   2
M  END
>  <reaction>  (17) 
rxn_188

>  <mol_properties>  (17) 
{"0": {"label": "*3", "atom_type": "O2s"}, "1": {"label": "*1", "atom_type": "Cs"}, "2": {"label": "*0", "atom_type": "H0"}, "5": {"label": "*2", "atom_type": "H0"}, "6": {"label": "*4", "atom_type": "H0"}}

>  <type>  (17) 
unop_13

>  <geom_source>  (17) 
AutoTST

$$$$
