
     RDKit          3D

  7  6  0  0  0  0  0  0  0  0999 V2000
   -0.5808   -0.0343   -0.0072 C   0  0  0  0  0  0  0  0  0  0  0  0
    0.8189    0.0820   -0.3920 N   0  0  0  0  0  0  0  0  0  0  0  0
   -1.1366   -0.8351   -0.5131 H   0  0  0  0  0  0  0  0  0  0  0  0
   -1.0904    0.9086   -0.2116 H   0  0  0  0  0  0  0  0  0  0  0  0
   -0.6459   -0.2082    1.0679 H   0  0  0  0  0  0  0  0  0  0  0  0
    0.9043    0.2571   -1.3836 H   0  0  0  0  0  0  0  0  0  0  0  0
    1.3157   -0.7766   -0.1992 H   0  0  0  0  0  0  0  0  0  0  0  0
  1  2  1  0
  1  3  1  0
  1  4  1  0
  1  5  1  0
  2  6  1  0
  2  7  1  0
M  END
>  <reaction>  (1) 
rxn_680

>  <mol_properties>  (1) 
{"0": {"label": "donator", "atom_type": "Cs"}, "2": {"label": "d_hydrogen", "atom_type": "H0"}}

>  <type>  (1) 
r1h

$$$$

     RDKit          3D

  4  3  0  0  0  0  0  0  0  0999 V2000
    0.0000    0.0000    0.0000 C   0  0  0  0  0  3  0  0  0  0  0  0
    1.0638   -0.1747    0.0540 H   0  0  0  0  0  0  0  0  0  0  0  0
   -0.6833   -0.8351   -0.0280 H   0  0  0  0  0  0  0  0  0  0  0  0
   -0.3805    1.0098   -0.0260 H   0  0  0  0  0  0  0  0  0  0  0  0
  1  2  1  0
  1  3  1  0
  1  4  1  0
M  RAD  1   1   2
M  END
>  <reaction>  (2) 
rxn_680

>  <mol_properties>  (2) 
{"0": {"label": "acceptor", "atom_type": "Cs"}}

>  <type>  (2) 
r2

$$$$

     RDKit          3D

  5  4  0  0  0  0  0  0  0  0999 V2000
    0.0000    0.0000    0.0000 C   0  0  0  0  0  0  0  0  0  0  0  0
   -0.6486   -0.7720   -0.4113 H   0  0  0  0  0  0  0  0  0  0  0  0
   -0.3482    0.9787   -0.3267 H   0  0  0  0  0  0  0  0  0  0  0  0
   -0.0223   -0.0487    1.0876 H   0  0  0  0  0  0  0  0  0  0  0  0
    1.0191   -0.1580   -0.3496 H   0  0  0  0  0  0  0  0  0  0  0  0
  1  2  1  0
  1  3  1  0
  1  4  1  0
  1  5  1  0
M  END
>  <reaction>  (3) 
rxn_680

>  <mol_properties>  (3) 
{"0": {"label": "acceptor", "atom_type": "Cs"}, "4": {"label": "a_hydrogen", "atom_type": "H0"}}

>  <type>  (3) 
r2h

$$$$

     RDKit          3D

 11  9  0  0  0  0  0  0  0  0999 V2000
   -0.0046    1.5054    1.3826 C   0  0  0  0  0  3  0  0  0  0  0  0
    0.9439    1.9436    1.0861 H   0  0  0  0  0  0  0  0  0  0  0  0
   -0.0734    1.2756    2.4415 H   0  0  0  0  0  0  0  0  0  0  0  0
   -0.8735    2.0215    0.9849 H   0  0  0  0  0  0  0  0  0  0  0  0
   -0.0335   -0.8830    0.0651 C   0  0  0  0  0  0  0  0  0  0  0  0
    0.0533   -0.6910   -1.3446 N   0  0  0  0  0  0  0  0  0  0  0  0
   -0.0231    0.2088    0.7166 H   0  0  0  0  0  0  0  0  0  0  0  0
    0.8191   -1.4434    0.4483 H   0  0  0  0  0  0  0  0  0  0  0  0
   -0.9680   -1.3668    0.3487 H   0  0  0  0  0  0  0  0  0  0  0  0
    0.9109   -0.2363   -1.6210 H   0  0  0  0  0  0  0  0  0  0  0  0
   -0.7265   -0.1662   -1.7123 H   0  0  0  0  0  0  0  0  0  0  0  0
  1  2  1  0
  1  3  1  0
  1  4  1  0
  5  6  1  0
  5  7  1  0
  5  8  1  0
  5  9  1  0
  6 10  1  0
  6 11  1  0
M  RAD  1   1   2
M  END
>  <reaction>  (4) 
rxn_680

>  <mol_properties>  (4) 
{"0": {"label": "*3", "atom_type": "Cs"}, "1": {"label": "*4", "atom_type": "H0"}, "4": {"label": "*1", "atom_type": "Cs"}, "5": {"label": "*0", "atom_type": "N3s"}, "6": {"label": "*2", "atom_type": "H0"}}

>  <type>  (4) 
ts

$$$$

     RDKit          3D

 11  9  0  0  0  0  0  0  0  0999 V2000
   -0.0031    1.5669    1.2191 C   0  0  0  0  0  0  0  0  0  0  0  0
   -0.8922    1.6787    1.8378 H   0  0  0  0  0  0  0  0  0  0  0  0
    0.3871    2.5508    0.9633 H   0  0  0  0  0  0  0  0  0  0  0  0
    0.6361    1.0225    1.9126 H   0  0  0  0  0  0  0  0  0  0  0  0
   -0.0031   -0.8114    0.1089 C   0  0  0  0  0  3  0  0  0  0  0  0
   -0.0031   -0.8114   -1.3474 N   0  0  0  0  0  0  0  0  0  0  0  0
   -0.0031    0.3829    0.6664 H   0  0  0  0  0  0  0  0  0  0  0  0
    0.8747   -1.3498    0.4695 H   0  0  0  0  0  0  0  0  0  0  0  0
   -0.8808   -1.3498    0.4695 H   0  0  0  0  0  0  0  0  0  0  0  0
    0.8094   -0.3288   -1.7054 H   0  0  0  0  0  0  0  0  0  0  0  0
   -0.8156   -0.3288   -1.7054 H   0  0  0  0  0  0  0  0  0  0  0  0
  1  2  1  0
  1  3  1  0
  1  4  1  0
  1  7  1  0
  5  6  1  0
  5  8  1  0
  5  9  1  0
  6 10  1  0
  6 11  1  0
M  RAD  1   5   2
M  END
>  <reaction>  (5) 
rxn_680

>  <mol_properties>  (5) 
{"0": {"label": "*3", "atom_type": "Cs"}, "1": {"label": "*4", "atom_type": "H0"}, "4": {"label": "*1", "atom_type": "Cs"}, "5": {"label": "*0", "atom_type": "N3s"}, "6": {"label": "*2", "atom_type": "H0"}}

>  <type>  (5) 
unop_1

>  <geom_source>  (5) 
Heuristics

$$$$

     RDKit          3D

 11  9  0  0  0  0  0  0  0  0999 V2000
   -0.0022    1.5688    1.2304 C   0  0  0  0  0  0  0  0  0  0  0  0
   -0.5155    2.2737    0.5783 H   0  0  0  0  0  0  0  0  0  0  0  0
    0.8891    2.0389    1.6432 H   0  0  0  0  0  0  0  0  0  0  0  0
   -0.2813    0.8607    2.0092 H   0  0  0  0  0  0  0  0  0  0  0  0
   -0.0022   -0.8095    0.1202 C   0  0  0  0  0  3  0  0  0  0  0  0
   -0.0022   -0.8095   -1.3361 N   0  0  0  0  0  0  0  0  0  0  0  0
   -0.0022    0.3847    0.6777 H   0  0  0  0  0  0  0  0  0  0  0  0
    0.8756   -1.3480    0.4808 H   0  0  0  0  0  0  0  0  0  0  0  0
   -0.8799   -1.3480    0.4808 H   0  0  0  0  0  0  0  0  0  0  0  0
    0.8103   -0.3270   -1.6940 H   0  0  0  0  0  0  0  0  0  0  0  0
   -0.8147   -0.3270   -1.6940 H   0  0  0  0  0  0  0  0  0  0  0  0
  1  2  1  0
  1  3  1  0
  1  4  1  0
  1  7  1  0
  5  6  1  0
  5  8  1  0
  5  9  1  0
  6 10  1  0
  6 11  1  0
M  RAD  1   5   2
M  END
>  <reaction>  (6) 
rxn_680

>  <mol_properties>  (6) 
{"0": {"label": "*3", "atom_type": "Cs"}, "1": {"label": "*4", "atom_type": "H0"}, "4": {"label": "*1", "atom_type": "Cs"}, "5": {"label": "*0", "atom_type": "N3s"}, "6": {"label": "*2", "atom_type": "H0"}}

>  <type>  (6) 
unop_2

>  <geom_source>  (6) 
Heuristics

$$$$

     RDKit          3D

 11  9  0  0  0  0  0  0  0  0999 V2000
   -0.0062    1.5623    1.2201 C   0  0  0  0  0  0  0  0  0  0  0  0
   -0.5195    1.5151    2.1793 H   0  0  0  0  0  0  0  0  0  0  0  0
   -0.1623    2.5427    0.7728 H   0  0  0  0  0  0  0  0  0  0  0  0
    0.9473    1.3928    1.7179 H   0  0  0  0  0  0  0  0  0  0  0  0
   -0.0062   -0.8160    0.1099 C   0  0  0  0  0  3  0  0  0  0  0  0
   -0.0062   -0.8160   -1.3464 N   0  0  0  0  0  0  0  0  0  0  0  0
   -0.0062    0.3782    0.6674 H   0  0  0  0  0  0  0  0  0  0  0  0
    0.8715   -1.3545    0.4705 H   0  0  0  0  0  0  0  0  0  0  0  0
   -0.8840   -1.3545    0.4705 H   0  0  0  0  0  0  0  0  0  0  0  0
    0.8063   -0.3335   -1.7043 H   0  0  0  0  0  0  0  0  0  0  0  0
   -0.8187   -0.3334   -1.7043 H   0  0  0  0  0  0  0  0  0  0  0  0
  1  2  1  0
  1  3  1  0
  1  4  1  0
  1  7  1  0
  5  6  1  0
  5  8  1  0
  5  9  1  0
  6 10  1  0
  6 11  1  0
M  RAD  1   5   2
M  END
>  <reaction>  (7) 
rxn_680

>  <mol_properties>  (7) 
{"0": {"label": "*3", "atom_type": "Cs"}, "1": {"label": "*4", "atom_type": "H0"}, "4": {"label": "*1", "atom_type": "Cs"}, "5": {"label": "*0", "atom_type": "N3s"}, "6": {"label": "*2", "atom_type": "H0"}}

>  <type>  (7) 
unop_3

>  <geom_source>  (7) 
Heuristics

$$$$

     RDKit          3D

 11  9  0  0  0  0  0  0  0  0999 V2000
   -0.0028    1.5705    1.2254 C   0  0  0  0  0  0  0  0  0  0  0  0
    0.8863    2.1165    0.9138 H   0  0  0  0  0  0  0  0  0  0  0  0
    0.2230    0.9878    2.1172 H   0  0  0  0  0  0  0  0  0  0  0  0
   -0.9880    1.9944    1.4137 H   0  0  0  0  0  0  0  0  0  0  0  0
   -0.0028   -0.8078    0.1152 C   0  0  0  0  0  3  0  0  0  0  0  0
   -0.0028   -0.8078   -1.3411 N   0  0  0  0  0  0  0  0  0  0  0  0
   -0.0028    0.3864    0.6727 H   0  0  0  0  0  0  0  0  0  0  0  0
    0.8749   -1.3463    0.4758 H   0  0  0  0  0  0  0  0  0  0  0  0
   -0.8806   -1.3463    0.4758 H   0  0  0  0  0  0  0  0  0  0  0  0
    0.8097   -0.3252   -1.6991 H   0  0  0  0  0  0  0  0  0  0  0  0
   -0.8153   -0.3252   -1.6991 H   0  0  0  0  0  0  0  0  0  0  0  0
  1  2  1  0
  1  3  1  0
  1  4  1  0
  1  7  1  0
  5  6  1  0
  5  8  1  0
  5  9  1  0
  6 10  1  0
  6 11  1  0
M  RAD  1   5   2
M  END
>  <reaction>  (8) 
rxn_680

>  <mol_properties>  (8) 
{"0": {"label": "*3", "atom_type": "Cs"}, "1": {"label": "*4", "atom_type": "H0"}, "4": {"label": "*1", "atom_type": "Cs"}, "5": {"label": "*0", "atom_type": "N3s"}, "6": {"label": "*2", "atom_type": "H0"}}

>  <type>  (8) 
unop_4

>  <geom_source>  (8) 
Heuristics

$$$$

     RDKit          3D

 11  9  0  0  0  0  0  0  0  0999 V2000
   -0.0009    1.5573    1.2226 C   0  0  0  0  0  0  0  0  0  0  0  0
   -0.0009    1.4520    2.3065 H   0  0  0  0  0  0  0  0  0  0  0  0
   -0.8901    2.1034    0.9110 H   0  0  0  0  0  0  0  0  0  0  0  0
    0.9314    2.1064    1.3456 H   0  0  0  0  0  0  0  0  0  0  0  0
   -0.0009   -0.8210    0.1124 C   0  0  0  0  0  3  0  0  0  0  0  0
   -0.0009   -0.8210   -1.3439 N   0  0  0  0  0  0  0  0  0  0  0  0
   -0.0009    0.3733    0.6699 H   0  0  0  0  0  0  0  0  0  0  0  0
    0.8768   -1.3594    0.4730 H   0  0  0  0  0  0  0  0  0  0  0  0
   -0.8787   -1.3594    0.4730 H   0  0  0  0  0  0  0  0  0  0  0  0
    0.8116   -0.3384   -1.7018 H   0  0  0  0  0  0  0  0  0  0  0  0
   -0.8134   -0.3384   -1.7018 H   0  0  0  0  0  0  0  0  0  0  0  0
  1  2  1  0
  1  3  1  0
  1  4  1  0
  1  7  1  0
  5  6  1  0
  5  8  1  0
  5  9  1  0
  6 10  1  0
  6 11  1  0
M  RAD  1   5   2
M  END
>  <reaction>  (9) 
rxn_680

>  <mol_properties>  (9) 
{"0": {"label": "*3", "atom_type": "Cs"}, "1": {"label": "*4", "atom_type": "H0"}, "4": {"label": "*1", "atom_type": "Cs"}, "5": {"label": "*0", "atom_type": "N3s"}, "6": {"label": "*2", "atom_type": "H0"}}

>  <type>  (9) 
unop_5

>  <geom_source>  (9) 
Heuristics

$$$$

     RDKit          3D

 11  9  0  0  0  0  0  0  0  0999 V2000
   -0.0007    1.5685    1.2218 C   0  0  0  0  0  0  0  0  0  0  0  0
    1.0260    1.8974    1.3753 H   0  0  0  0  0  0  0  0  0  0  0  0
   -0.2890    0.8918    2.0248 H   0  0  0  0  0  0  0  0  0  0  0  0
   -0.7070    2.3969    1.1990 H   0  0  0  0  0  0  0  0  0  0  0  0
   -0.0007   -0.8098    0.1116 C   0  0  0  0  0  3  0  0  0  0  0  0
   -0.0007   -0.8098   -1.3447 N   0  0  0  0  0  0  0  0  0  0  0  0
   -0.0007    0.3844    0.6691 H   0  0  0  0  0  0  0  0  0  0  0  0
    0.8771   -1.3483    0.4722 H   0  0  0  0  0  0  0  0  0  0  0  0
   -0.8785   -1.3483    0.4722 H   0  0  0  0  0  0  0  0  0  0  0  0
    0.8118   -0.3273   -1.7027 H   0  0  0  0  0  0  0  0  0  0  0  0
   -0.8132   -0.3273   -1.7027 H   0  0  0  0  0  0  0  0  0  0  0  0
  1  2  1  0
  1  3  1  0
  1  4  1  0
  1  7  1  0
  5  6  1  0
  5  8  1  0
  5  9  1  0
  6 10  1  0
  6 11  1  0
M  RAD  1   5   2
M  END
>  <reaction>  (10) 
rxn_680

>  <mol_properties>  (10) 
{"0": {"label": "*3", "atom_type": "Cs"}, "1": {"label": "*4", "atom_type": "H0"}, "4": {"label": "*1", "atom_type": "Cs"}, "5": {"label": "*0", "atom_type": "N3s"}, "6": {"label": "*2", "atom_type": "H0"}}

>  <type>  (10) 
unop_6

>  <geom_source>  (10) 
Heuristics

$$$$

     RDKit          3D

 11  9  0  0  0  0  0  0  0  0999 V2000
    0.0028    1.5658    1.2197 C   0  0  0  0  0  0  0  0  0  0  0  0
    0.8919    1.6776    1.8384 H   0  0  0  0  0  0  0  0  0  0  0  0
   -0.7535    1.0069    1.7687 H   0  0  0  0  0  0  0  0  0  0  0  0
   -0.2584    2.6140    1.0823 H   0  0  0  0  0  0  0  0  0  0  0  0
    0.0028   -0.8125    0.1095 C   0  0  0  0  0  3  0  0  0  0  0  0
    0.0028   -0.8125   -1.3468 N   0  0  0  0  0  0  0  0  0  0  0  0
    0.0028    0.3818    0.6670 H   0  0  0  0  0  0  0  0  0  0  0  0
    0.8806   -1.3509    0.4701 H   0  0  0  0  0  0  0  0  0  0  0  0
   -0.8750   -1.3509    0.4701 H   0  0  0  0  0  0  0  0  0  0  0  0
    0.8153   -0.3299   -1.7048 H   0  0  0  0  0  0  0  0  0  0  0  0
   -0.8097   -0.3299   -1.7048 H   0  0  0  0  0  0  0  0  0  0  0  0
  1  2  1  0
  1  3  1  0
  1  4  1  0
  1  7  1  0
  5  6  1  0
  5  8  1  0
  5  9  1  0
  6 10  1  0
  6 11  1  0
M  RAD  1   5   2
M  END
>  <reaction>  (11) 
rxn_680

>  <mol_properties>  (11) 
{"0": {"label": "*3", "atom_type": "Cs"}, "1": {"label": "*4", "atom_type": "H0"}, "4": {"label": "*1", "atom_type": "Cs"}, "5": {"label": "*0", "atom_type": "N3s"}, "6": {"label": "*2", "atom_type": "H0"}}

>  <type>  (11) 
unop_7

>  <geom_source>  (11) 
Heuristics

$$$$

     RDKit          3D

 11  9  0  0  0  0  0  0  0  0999 V2000
    0.0006    1.5680    1.2220 C   0  0  0  0  0  0  0  0  0  0  0  0
   -1.0261    1.8969    1.3756 H   0  0  0  0  0  0  0  0  0  0  0  0
    0.6624    2.4327    1.2209 H   0  0  0  0  0  0  0  0  0  0  0  0
    0.3385    0.8764    1.9923 H   0  0  0  0  0  0  0  0  0  0  0  0
    0.0006   -0.8103    0.1118 C   0  0  0  0  0  3  0  0  0  0  0  0
    0.0006   -0.8103   -1.3445 N   0  0  0  0  0  0  0  0  0  0  0  0
    0.0006    0.3839    0.6693 H   0  0  0  0  0  0  0  0  0  0  0  0
    0.8783   -1.3488    0.4724 H   0  0  0  0  0  0  0  0  0  0  0  0
   -0.8772   -1.3488    0.4724 H   0  0  0  0  0  0  0  0  0  0  0  0
    0.8131   -0.3277   -1.7024 H   0  0  0  0  0  0  0  0  0  0  0  0
   -0.8119   -0.3277   -1.7024 H   0  0  0  0  0  0  0  0  0  0  0  0
  1  2  1  0
  1  3  1  0
  1  4  1  0
  1  7  1  0
  5  6  1  0
  5  8  1  0
  5  9  1  0
  6 10  1  0
  6 11  1  0
M  RAD  1   5   2
M  END
>  <reaction>  (12) 
rxn_680

>  <mol_properties>  (12) 
{"0": {"label": "*3", "atom_type": "Cs"}, "1": {"label": "*4", "atom_type": "H0"}, "4": {"label": "*1", "atom_type": "Cs"}, "5": {"label": "*0", "atom_type": "N3s"}, "6": {"label": "*2", "atom_type": "H0"}}

>  <type>  (12) 
unop_8

>  <geom_source>  (12) 
Heuristics

$$$$

     RDKit          3D

 11  9  0  0  0  0  0  0  0  0999 V2000
   -0.0042    1.5719    1.2288 C   0  0  0  0  0  0  0  0  0  0  0  0
    0.5091    2.2769    0.5767 H   0  0  0  0  0  0  0  0  0  0  0  0
    0.6600    1.2780    2.0401 H   0  0  0  0  0  0  0  0  0  0  0  0
   -0.9898    1.4850    1.6835 H   0  0  0  0  0  0  0  0  0  0  0  0
   -0.0042   -0.8064    0.1186 C   0  0  0  0  0  3  0  0  0  0  0  0
   -0.0042   -0.8064   -1.3377 N   0  0  0  0  0  0  0  0  0  0  0  0
   -0.0042    0.3878    0.6761 H   0  0  0  0  0  0  0  0  0  0  0  0
    0.8736   -1.3449    0.4792 H   0  0  0  0  0  0  0  0  0  0  0  0
   -0.8820   -1.3449    0.4792 H   0  0  0  0  0  0  0  0  0  0  0  0
    0.8083   -0.3238   -1.6957 H   0  0  0  0  0  0  0  0  0  0  0  0
   -0.8167   -0.3238   -1.6957 H   0  0  0  0  0  0  0  0  0  0  0  0
  1  2  1  0
  1  3  1  0
  1  4  1  0
  1  7  1  0
  5  6  1  0
  5  8  1  0
  5  9  1  0
  6 10  1  0
  6 11  1  0
M  RAD  1   5   2
M  END
>  <reaction>  (13) 
rxn_680

>  <mol_properties>  (13) 
{"0": {"label": "*3", "atom_type": "Cs"}, "1": {"label": "*4", "atom_type": "H0"}, "4": {"label": "*1", "atom_type": "Cs"}, "5": {"label": "*0", "atom_type": "N3s"}, "6": {"label": "*2", "atom_type": "H0"}}

>  <type>  (13) 
unop_9

>  <geom_source>  (13) 
Heuristics

$$$$

     RDKit          3D

 11  9  0  0  0  0  0  0  0  0999 V2000
    0.0007    1.5678    1.2268 C   0  0  0  0  0  0  0  0  0  0  0  0
   -0.8884    2.1139    0.9152 H   0  0  0  0  0  0  0  0  0  0  0  0
    0.8010    2.2727    1.4469 H   0  0  0  0  0  0  0  0  0  0  0  0
    0.0575    0.8269    2.0228 H   0  0  0  0  0  0  0  0  0  0  0  0
    0.0007   -0.8105    0.1166 C   0  0  0  0  0  3  0  0  0  0  0  0
    0.0007   -0.8105   -1.3397 N   0  0  0  0  0  0  0  0  0  0  0  0
    0.0007    0.3838    0.6741 H   0  0  0  0  0  0  0  0  0  0  0  0
    0.8785   -1.3489    0.4772 H   0  0  0  0  0  0  0  0  0  0  0  0
   -0.8771   -1.3489    0.4772 H   0  0  0  0  0  0  0  0  0  0  0  0
    0.8132   -0.3279   -1.6977 H   0  0  0  0  0  0  0  0  0  0  0  0
   -0.8118   -0.3279   -1.6977 H   0  0  0  0  0  0  0  0  0  0  0  0
  1  2  1  0
  1  3  1  0
  1  4  1  0
  1  7  1  0
  5  6  1  0
  5  8  1  0
  5  9  1  0
  6 10  1  0
  6 11  1  0
M  RAD  1   5   2
M  END
>  <reaction>  (14) 
rxn_680

>  <mol_properties>  (14) 
{"0": {"label": "*3", "atom_type": "Cs"}, "1": {"label": "*4", "atom_type": "H0"}, "4": {"label": "*1", "atom_type": "Cs"}, "5": {"label": "*0", "atom_type": "N3s"}, "6": {"label": "*2", "atom_type": "H0"}}

>  <type>  (14) 
unop_10

>  <geom_source>  (14) 
Heuristics

$$$$

     RDKit          3D

 11  9  0  0  0  0  0  0  0  0999 V2000
    0.0049    1.5611    1.2208 C   0  0  0  0  0  0  0  0  0  0  0  0
    0.5183    1.5139    2.1799 H   0  0  0  0  0  0  0  0  0  0  0  0
   -1.0609    1.3961    1.3710 H   0  0  0  0  0  0  0  0  0  0  0  0
    0.3317    2.5919    1.0924 H   0  0  0  0  0  0  0  0  0  0  0  0
    0.0049   -0.8172    0.1106 C   0  0  0  0  0  3  0  0  0  0  0  0
    0.0049   -0.8172   -1.3457 N   0  0  0  0  0  0  0  0  0  0  0  0
    0.0049    0.3770    0.6680 H   0  0  0  0  0  0  0  0  0  0  0  0
    0.8827   -1.3557    0.4712 H   0  0  0  0  0  0  0  0  0  0  0  0
   -0.8728   -1.3557    0.4712 H   0  0  0  0  0  0  0  0  0  0  0  0
    0.8174   -0.3346   -1.7037 H   0  0  0  0  0  0  0  0  0  0  0  0
   -0.8076   -0.3346   -1.7037 H   0  0  0  0  0  0  0  0  0  0  0  0
  1  2  1  0
  1  3  1  0
  1  4  1  0
  1  7  1  0
  5  6  1  0
  5  8  1  0
  5  9  1  0
  6 10  1  0
  6 11  1  0
M  RAD  1   5   2
M  END
>  <reaction>  (15) 
rxn_680

>  <mol_properties>  (15) 
{"0": {"label": "*3", "atom_type": "Cs"}, "1": {"label": "*4", "atom_type": "H0"}, "4": {"label": "*1", "atom_type": "Cs"}, "5": {"label": "*0", "atom_type": "N3s"}, "6": {"label": "*2", "atom_type": "H0"}}

>  <type>  (15) 
unop_11

>  <geom_source>  (15) 
Heuristics

$$$$

     RDKit          3D

 11  9  0  0  0  0  0  0  0  0999 V2000
   -0.0045    1.5710    1.2309 C   0  0  0  0  0  0  0  0  0  0  0  0
   -0.0045    2.3342    0.4542 H   0  0  0  0  0  0  0  0  0  0  0  0
    0.8847    1.6828    1.8496 H   0  0  0  0  0  0  0  0  0  0  0  0
   -0.6898    1.0612    1.9063 H   0  0  0  0  0  0  0  0  0  0  0  0
   -0.0045   -0.8073    0.1207 C   0  0  0  0  0  3  0  0  0  0  0  0
   -0.0045   -0.8073   -1.3356 N   0  0  0  0  0  0  0  0  0  0  0  0
   -0.0045    0.3869    0.6782 H   0  0  0  0  0  0  0  0  0  0  0  0
    0.8733   -1.3458    0.4813 H   0  0  0  0  0  0  0  0  0  0  0  0
   -0.8822   -1.3458    0.4813 H   0  0  0  0  0  0  0  0  0  0  0  0
    0.8080   -0.3247   -1.6936 H   0  0  0  0  0  0  0  0  0  0  0  0
   -0.8170   -0.3247   -1.6936 H   0  0  0  0  0  0  0  0  0  0  0  0
  1  2  1  0
  1  3  1  0
  1  4  1  0
  1  7  1  0
  5  6  1  0
  5  8  1  0
  5  9  1  0
  6 10  1  0
  6 11  1  0
M  RAD  1   5   2
M  END
>  <reaction>  (16) 
rxn_680

>  <mol_properties>  (16) 
{"0": {"label": "*3", "atom_type": "Cs"}, "1": {"label": "*4", "atom_type": "H0"}, "4": {"label": "*1", "atom_type": "Cs"}, "5": {"label": "*0", "atom_type": "N3s"}, "6": {"label": "*2", "atom_type": "H0"}}

>  <type>  (16) 
unop_12

>  <geom_source>  (16) 
Heuristics

$$$$

     RDKit          3D

 11  9  0  0  0  0  0  0  0  0999 V2000
   -1.7152    0.3751    0.4323 N   0  0  0  0  0  0  0  0  0  0  0  0
    1.5811    0.1538   -0.0630 C   0  0  0  0  0  0  0  0  0  0  0  0
   -0.9050   -0.5951   -0.2852 C   0  0  0  0  0  3  0  0  0  0  0  0
    2.2945    0.2319   -0.9090 H   0  0  0  0  0  0  0  0  0  0  0  0
    1.9377   -0.6162    0.6516 H   0  0  0  0  0  0  0  0  0  0  0  0
    1.5110    1.1333    0.4533 H   0  0  0  0  0  0  0  0  0  0  0  0
    0.4281   -0.1777   -0.5067 H   0  0  0  0  0  0  0  0  0  0  0  0
   -1.2054    0.6085    1.3142 H   0  0  0  0  0  0  0  0  0  0  0  0
   -1.7278    1.2486   -0.1412 H   0  0  0  0  0  0  0  0  0  0  0  0
   -0.8174   -1.5267    0.3129 H   0  0  0  0  0  0  0  0  0  0  0  0
   -1.3816   -0.8353   -1.2591 H   0  0  0  0  0  0  0  0  0  0  0  0
  1  3  1  0
  1  8  1  0
  1  9  1  0
  2  4  1  0
  2  5  1  0
  2  6  1  0
  2  7  1  0
  3 10  1  0
  3 11  1  0
M  RAD  1   3   2
M  END
>  <reaction>  (17) 
rxn_680

>  <mol_properties>  (17) 
{"0": {"label": "*3", "atom_type": "Cs"}, "1": {"label": "*4", "atom_type": "H0"}, "4": {"label": "*1", "atom_type": "Cs"}, "5": {"label": "*0", "atom_type": "N3s"}, "6": {"label": "*2", "atom_type": "H0"}}

>  <type>  (17) 
unop_13

>  <geom_source>  (17) 
AutoTST

$$$$
