
     RDKit          3D

  3  2  0  0  0  0  0  0  0  0999 V2000
   -0.0513    0.4350    0.0000 N   0  0  0  0  0  0  0  0  0  0  0  0
    0.9414   -0.2226    0.0000 O   0  0  0  0  0  0  0  0  0  0  0  0
   -0.8901   -0.2124    0.0000 H   0  0  0  0  0  0  0  0  0  0  0  0
  1  2  2  0
  1  3  1  0
M  END
>  <reaction>  (1) 
rxn_654

>  <mol_properties>  (1) 
{"0": {"label": "donator", "atom_type": "N3d"}, "2": {"label": "d_hydrogen", "atom_type": "H0"}}

>  <type>  (1) 
r1h

$$$$

     RDKit          3D

  2  1  0  0  0  0  0  0  0  0999 V2000
    0.0000    0.0000    0.5973 O   0  0  0  0  0  1  0  0  0  0  0  0
    0.0000    0.0000   -0.5973 O   0  0  0  0  0  1  0  0  0  0  0  0
  1  2  1  0
M  RAD  2   1   2   2   2
M  END
>  <reaction>  (2) 
rxn_654

>  <mol_properties>  (2) 
{"1": {"label": "acceptor", "atom_type": "O2s"}}

>  <type>  (2) 
r2

$$$$

     RDKit          3D

  3  2  0  0  0  0  0  0  0  0999 V2000
    0.9943   -0.1797    0.0000 O   0  0  0  0  0  1  0  0  0  0  0  0
   -0.1595    0.4394    0.0000 O   0  0  0  0  0  0  0  0  0  0  0  0
   -0.8348   -0.2597    0.0000 H   0  0  0  0  0  0  0  0  0  0  0  0
  1  2  1  0
  2  3  1  0
M  RAD  1   1   2
M  END
>  <reaction>  (3) 
rxn_654

>  <mol_properties>  (3) 
{"0": {"label": "a_hydrogen", "atom_type": "H0"}, "2": {"label": "acceptor", "atom_type": "O2s"}}

>  <type>  (3) 
r2h

$$$$

     RDKit          3D

  5  3  0  0  0  0  0  0  0  0999 V2000
   -0.0008   -1.3675    0.1383 N   0  0  0  0  0  0  0  0  0  0  0  0
   -0.0003   -1.1202   -0.9912 O   0  0  0  0  0  0  0  0  0  0  0  0
   -0.0003   -0.2881    0.7472 H   0  0  0  0  0  0  0  0  0  0  0  0
    0.0010    1.4636   -0.2403 O   0  0  0  0  0  0  0  0  0  0  0  0
    0.0004    0.9751    0.9109 O   0  0  0  0  0  0  0  0  0  0  0  0
  1  2  2  0
  1  3  1  0
  4  5  2  0
M  END
>  <reaction>  (4) 
rxn_654

>  <mol_properties>  (4) 
{"0": {"label": "*1", "atom_type": "N3d"}, "1": {"label": "*0", "atom_type": "O2d"}, "2": {"label": "*2", "atom_type": "H0"}, "3": {"label": "*4", "atom_type": "O2d"}, "4": {"label": "*3", "atom_type": "O2d"}}

>  <type>  (4) 
ts

$$$$

     RDKit          3D

  5  3  0  0  0  0  0  0  0  0999 V2000
    0.2771   -1.2252   -0.2841 N   0  0  0  0  0  2  0  0  0  0  0  0
    0.2771   -1.2252   -1.4748 O   0  0  0  0  0  0  0  0  0  0  0  0
    0.2771   -0.0216    0.1260 H   0  0  0  0  0  0  0  0  0  0  0  0
   -0.8141    1.2166    1.2134 O   0  0  0  0  0  1  0  0  0  0  0  0
    0.2771    1.0826    0.5021 O   0  0  0  0  0  0  0  0  0  0  0  0
  1  2  2  0
  3  5  1  0
  4  5  1  0
M  RAD  2   1   2   4   2
M  END
>  <reaction>  (5) 
rxn_654

>  <mol_properties>  (5) 
{"0": {"label": "*1", "atom_type": "N3d"}, "1": {"label": "*0", "atom_type": "O2d"}, "2": {"label": "*2", "atom_type": "H0"}, "3": {"label": "*4", "atom_type": "O2d"}, "4": {"label": "*3", "atom_type": "O2d"}}

>  <type>  (5) 
unop_1

>  <geom_source>  (5) 
Heuristics

$$$$

     RDKit          3D

  5  3  0  0  0  0  0  0  0  0999 V2000
    0.1600   -1.3661    0.1296 N   0  0  0  0  0  2  0  0  0  0  0  0
    0.1600   -1.3661   -1.0611 O   0  0  0  0  0  0  0  0  0  0  0  0
    0.1600   -0.1626    0.5396 H   0  0  0  0  0  0  0  0  0  0  0  0
   -0.4700    1.6308   -0.0022 O   0  0  0  0  0  1  0  0  0  0  0  0
    0.1600    0.9416    0.9158 O   0  0  0  0  0  0  0  0  0  0  0  0
  1  2  2  0
  3  5  1  0
  4  5  1  0
M  RAD  2   1   2   4   2
M  END
>  <reaction>  (6) 
rxn_654

>  <mol_properties>  (6) 
{"0": {"label": "*1", "atom_type": "N3d"}, "1": {"label": "*0", "atom_type": "O2d"}, "2": {"label": "*2", "atom_type": "H0"}, "3": {"label": "*4", "atom_type": "O2d"}, "4": {"label": "*3", "atom_type": "O2d"}}

>  <type>  (6) 
unop_2

>  <geom_source>  (6) 
Heuristics

$$$$

     RDKit          3D

  5  3  0  0  0  0  0  0  0  0999 V2000
    0.1600   -1.1874   -0.3949 N   0  0  0  0  0  2  0  0  0  0  0  0
    0.1600   -1.1874   -1.5856 O   0  0  0  0  0  0  0  0  0  0  0  0
    0.1600    0.0161    0.0151 H   0  0  0  0  0  0  0  0  0  0  0  0
   -0.4700    1.1057    1.5391 O   0  0  0  0  0  1  0  0  0  0  0  0
    0.1600    1.1203    0.3913 O   0  0  0  0  0  0  0  0  0  0  0  0
  1  2  2  0
  3  5  1  0
  4  5  1  0
M  RAD  2   1   2   4   2
M  END
>  <reaction>  (7) 
rxn_654

>  <mol_properties>  (7) 
{"0": {"label": "*1", "atom_type": "N3d"}, "1": {"label": "*0", "atom_type": "O2d"}, "2": {"label": "*2", "atom_type": "H0"}, "3": {"label": "*4", "atom_type": "O2d"}, "4": {"label": "*3", "atom_type": "O2d"}}

>  <type>  (7) 
unop_3

>  <geom_source>  (7) 
Heuristics

$$$$

     RDKit          3D

  5  3  0  0  0  0  0  0  0  0999 V2000
   -0.2771   -1.3284    0.0188 N   0  0  0  0  0  2  0  0  0  0  0  0
   -0.2771   -1.3284   -1.1720 O   0  0  0  0  0  0  0  0  0  0  0  0
   -0.2771   -0.1248    0.4288 H   0  0  0  0  0  0  0  0  0  0  0  0
    0.8141    1.5198    0.3235 O   0  0  0  0  0  1  0  0  0  0  0  0
   -0.2771    0.9794    0.8050 O   0  0  0  0  0  0  0  0  0  0  0  0
  1  2  2  0
  3  5  1  0
  4  5  1  0
M  RAD  2   1   2   4   2
M  END
>  <reaction>  (8) 
rxn_654

>  <mol_properties>  (8) 
{"0": {"label": "*1", "atom_type": "N3d"}, "1": {"label": "*0", "atom_type": "O2d"}, "2": {"label": "*2", "atom_type": "H0"}, "3": {"label": "*4", "atom_type": "O2d"}, "4": {"label": "*3", "atom_type": "O2d"}}

>  <type>  (8) 
unop_4

>  <geom_source>  (8) 
Heuristics

$$$$

     RDKit          3D

  5  3  0  0  0  0  0  0  0  0999 V2000
    0.0000   -1.1736   -0.4355 N   0  0  0  0  0  2  0  0  0  0  0  0
    0.0000   -1.1736   -1.6262 O   0  0  0  0  0  0  0  0  0  0  0  0
    0.0000    0.0300   -0.0254 H   0  0  0  0  0  0  0  0  0  0  0  0
    0.0000    1.0651    1.6583 O   0  0  0  0  0  1  0  0  0  0  0  0
    0.0000    1.1341    0.3507 O   0  0  0  0  0  0  0  0  0  0  0  0
  1  2  2  0
  3  5  1  0
  4  5  1  0
M  RAD  2   1   2   4   2
M  END
>  <reaction>  (9) 
rxn_654

>  <mol_properties>  (9) 
{"0": {"label": "*1", "atom_type": "N3d"}, "1": {"label": "*0", "atom_type": "O2d"}, "2": {"label": "*2", "atom_type": "H0"}, "3": {"label": "*4", "atom_type": "O2d"}, "4": {"label": "*3", "atom_type": "O2d"}}

>  <type>  (9) 
unop_5

>  <geom_source>  (9) 
Heuristics

$$$$

     RDKit          3D

  5  3  0  0  0  0  0  0  0  0999 V2000
   -0.3199   -1.2768   -0.1326 N   0  0  0  0  0  2  0  0  0  0  0  0
   -0.3199   -1.2768   -1.3234 O   0  0  0  0  0  0  0  0  0  0  0  0
   -0.3199   -0.0732    0.2774 H   0  0  0  0  0  0  0  0  0  0  0  0
    0.9401    1.3682    0.7685 O   0  0  0  0  0  1  0  0  0  0  0  0
   -0.3199    1.0310    0.6536 O   0  0  0  0  0  0  0  0  0  0  0  0
  1  2  2  0
  3  5  1  0
  4  5  1  0
M  RAD  2   1   2   4   2
M  END
>  <reaction>  (10) 
rxn_654

>  <mol_properties>  (10) 
{"0": {"label": "*1", "atom_type": "N3d"}, "1": {"label": "*0", "atom_type": "O2d"}, "2": {"label": "*2", "atom_type": "H0"}, "3": {"label": "*4", "atom_type": "O2d"}, "4": {"label": "*3", "atom_type": "O2d"}}

>  <type>  (10) 
unop_6

>  <geom_source>  (10) 
Heuristics

$$$$

     RDKit          3D

  5  3  0  0  0  0  0  0  0  0999 V2000
   -0.2771   -1.2252   -0.2841 N   0  0  0  0  0  2  0  0  0  0  0  0
   -0.2771   -1.2252   -1.4748 O   0  0  0  0  0  0  0  0  0  0  0  0
   -0.2771   -0.0216    0.1260 H   0  0  0  0  0  0  0  0  0  0  0  0
    0.8141    1.2166    1.2134 O   0  0  0  0  0  1  0  0  0  0  0  0
   -0.2771    1.0826    0.5021 O   0  0  0  0  0  0  0  0  0  0  0  0
  1  2  2  0
  3  5  1  0
  4  5  1  0
M  RAD  2   1   2   4   2
M  END
>  <reaction>  (11) 
rxn_654

>  <mol_properties>  (11) 
{"0": {"label": "*1", "atom_type": "N3d"}, "1": {"label": "*0", "atom_type": "O2d"}, "2": {"label": "*2", "atom_type": "H0"}, "3": {"label": "*4", "atom_type": "O2d"}, "4": {"label": "*3", "atom_type": "O2d"}}

>  <type>  (11) 
unop_7

>  <geom_source>  (11) 
Heuristics

$$$$

     RDKit          3D

  5  3  0  0  0  0  0  0  0  0999 V2000
    0.3199   -1.2768   -0.1326 N   0  0  0  0  0  2  0  0  0  0  0  0
    0.3199   -1.2768   -1.3234 O   0  0  0  0  0  0  0  0  0  0  0  0
    0.3199   -0.0732    0.2774 H   0  0  0  0  0  0  0  0  0  0  0  0
   -0.9401    1.3682    0.7685 O   0  0  0  0  0  1  0  0  0  0  0  0
    0.3199    1.0310    0.6536 O   0  0  0  0  0  0  0  0  0  0  0  0
  1  2  2  0
  3  5  1  0
  4  5  1  0
M  RAD  2   1   2   4   2
M  END
>  <reaction>  (12) 
rxn_654

>  <mol_properties>  (12) 
{"0": {"label": "*1", "atom_type": "N3d"}, "1": {"label": "*0", "atom_type": "O2d"}, "2": {"label": "*2", "atom_type": "H0"}, "3": {"label": "*4", "atom_type": "O2d"}, "4": {"label": "*3", "atom_type": "O2d"}}

>  <type>  (12) 
unop_8

>  <geom_source>  (12) 
Heuristics

$$$$

     RDKit          3D

  5  3  0  0  0  0  0  0  0  0999 V2000
   -0.1600   -1.3661    0.1296 N   0  0  0  0  0  2  0  0  0  0  0  0
   -0.1600   -1.3661   -1.0611 O   0  0  0  0  0  0  0  0  0  0  0  0
   -0.1600   -0.1626    0.5396 H   0  0  0  0  0  0  0  0  0  0  0  0
    0.4700    1.6308   -0.0022 O   0  0  0  0  0  1  0  0  0  0  0  0
   -0.1600    0.9416    0.9158 O   0  0  0  0  0  0  0  0  0  0  0  0
  1  2  2  0
  3  5  1  0
  4  5  1  0
M  RAD  2   1   2   4   2
M  END
>  <reaction>  (13) 
rxn_654

>  <mol_properties>  (13) 
{"0": {"label": "*1", "atom_type": "N3d"}, "1": {"label": "*0", "atom_type": "O2d"}, "2": {"label": "*2", "atom_type": "H0"}, "3": {"label": "*4", "atom_type": "O2d"}, "4": {"label": "*3", "atom_type": "O2d"}}

>  <type>  (13) 
unop_9

>  <geom_source>  (13) 
Heuristics

$$$$

     RDKit          3D

  5  3  0  0  0  0  0  0  0  0999 V2000
    0.2771   -1.3284    0.0188 N   0  0  0  0  0  2  0  0  0  0  0  0
    0.2771   -1.3284   -1.1720 O   0  0  0  0  0  0  0  0  0  0  0  0
    0.2771   -0.1248    0.4288 H   0  0  0  0  0  0  0  0  0  0  0  0
   -0.8141    1.5198    0.3235 O   0  0  0  0  0  1  0  0  0  0  0  0
    0.2771    0.9794    0.8050 O   0  0  0  0  0  0  0  0  0  0  0  0
  1  2  2  0
  3  5  1  0
  4  5  1  0
M  RAD  2   1   2   4   2
M  END
>  <reaction>  (14) 
rxn_654

>  <mol_properties>  (14) 
{"0": {"label": "*1", "atom_type": "N3d"}, "1": {"label": "*0", "atom_type": "O2d"}, "2": {"label": "*2", "atom_type": "H0"}, "3": {"label": "*4", "atom_type": "O2d"}, "4": {"label": "*3", "atom_type": "O2d"}}

>  <type>  (14) 
unop_10

>  <geom_source>  (14) 
Heuristics

$$$$

     RDKit          3D

  5  3  0  0  0  0  0  0  0  0999 V2000
   -0.1600   -1.1874   -0.3949 N   0  0  0  0  0  2  0  0  0  0  0  0
   -0.1600   -1.1874   -1.5856 O   0  0  0  0  0  0  0  0  0  0  0  0
   -0.1600    0.0161    0.0151 H   0  0  0  0  0  0  0  0  0  0  0  0
    0.4700    1.1057    1.5391 O   0  0  0  0  0  1  0  0  0  0  0  0
   -0.1600    1.1203    0.3913 O   0  0  0  0  0  0  0  0  0  0  0  0
  1  2  2  0
  3  5  1  0
  4  5  1  0
M  RAD  2   1   2   4   2
M  END
>  <reaction>  (15) 
rxn_654

>  <mol_properties>  (15) 
{"0": {"label": "*1", "atom_type": "N3d"}, "1": {"label": "*0", "atom_type": "O2d"}, "2": {"label": "*2", "atom_type": "H0"}, "3": {"label": "*4", "atom_type": "O2d"}, "4": {"label": "*3", "atom_type": "O2d"}}

>  <type>  (15) 
unop_11

>  <geom_source>  (15) 
Heuristics

$$$$

     RDKit          3D

  5  3  0  0  0  0  0  0  0  0999 V2000
    0.0000   -1.3800    0.1702 N   0  0  0  0  0  2  0  0  0  0  0  0
    0.0000   -1.3800   -1.0205 O   0  0  0  0  0  0  0  0  0  0  0  0
    0.0000   -0.1764    0.5802 H   0  0  0  0  0  0  0  0  0  0  0  0
    0.0000    1.6714   -0.1214 O   0  0  0  0  0  1  0  0  0  0  0  0
    0.0000    0.9278    0.9564 O   0  0  0  0  0  0  0  0  0  0  0  0
  1  2  2  0
  3  5  1  0
  4  5  1  0
M  RAD  2   1   2   4   2
M  END
>  <reaction>  (16) 
rxn_654

>  <mol_properties>  (16) 
{"0": {"label": "*1", "atom_type": "N3d"}, "1": {"label": "*0", "atom_type": "O2d"}, "2": {"label": "*2", "atom_type": "H0"}, "3": {"label": "*4", "atom_type": "O2d"}, "4": {"label": "*3", "atom_type": "O2d"}}

>  <type>  (16) 
unop_12

>  <geom_source>  (16) 
Heuristics

$$$$
