
     RDKit          3D

 16 15  0  0  0  0  0  0  0  0999 V2000
    1.7961   -0.3807    1.6176 C   0  0  0  0  0  0  0  0  0  0  0  0
    0.8562   -0.8708    0.8256 C   0  0  0  0  0  0  0  0  0  0  0  0
    0.0895   -0.0826   -0.2048 C   0  0  0  0  0  0  0  0  0  0  0  0
   -1.4061   -0.1111    0.0982 C   0  0  0  0  0  0  0  0  0  0  0  0
    0.4476   -0.5902   -1.5797 C   0  0  0  0  0  0  0  0  0  0  0  0
   -0.3793   -1.1113   -2.4728 C   0  0  0  0  0  0  0  0  0  0  0  0
    2.3110   -1.0032    2.3386 H   0  0  0  0  0  0  0  0  0  0  0  0
    2.0846    0.6643    1.5737 H   0  0  0  0  0  0  0  0  0  0  0  0
    0.5921   -1.9241    0.8925 H   0  0  0  0  0  0  0  0  0  0  0  0
    0.4358    0.9557   -0.1462 H   0  0  0  0  0  0  0  0  0  0  0  0
   -1.5968    0.3080    1.0865 H   0  0  0  0  0  0  0  0  0  0  0  0
   -1.9674    0.4693   -0.6359 H   0  0  0  0  0  0  0  0  0  0  0  0
   -1.7902   -1.1338    0.0883 H   0  0  0  0  0  0  0  0  0  0  0  0
    1.5049   -0.5197   -1.8214 H   0  0  0  0  0  0  0  0  0  0  0  0
   -1.4421   -1.2131   -2.2889 H   0  0  0  0  0  0  0  0  0  0  0  0
   -0.0162   -1.4558   -3.4328 H   0  0  0  0  0  0  0  0  0  0  0  0
  1  2  2  3
  1  7  1  0
  1  8  1  0
  2  3  1  0
  2  9  1  0
  3  4  1  0
  3  5  1  0
  3 10  1  0
  4 11  1  0
  4 12  1  0
  4 13  1  0
  5  6  2  3
  5 14  1  0
  6 15  1  0
  6 16  1  0
M  END
>  <reaction>  (1) 
rxn_1169

>  <mol_properties>  (1) 
{"2": {"label": "donator", "atom_type": "Cs"}, "9": {"label": "d_hydrogen", "atom_type": "H0"}}

>  <type>  (1) 
r1h

$$$$

     RDKit          3D

  1  0  0  0  0  0  0  0  0  0999 V2000
    0.0000    0.0000    0.0000 H   0  0  0  0  0 15  0  0  0  0  0  0
M  END
>  <reaction>  (2) 
rxn_1169

>  <mol_properties>  (2) 
{"0": {"label": "acceptor", "atom_type": "H0"}}

>  <type>  (2) 
r2

$$$$

     RDKit          3D

  2  1  0  0  0  0  0  0  0  0999 V2000
    0.0000    0.0000    0.3721 H   0  0  0  0  0  0  0  0  0  0  0  0
    0.0000    0.0000   -0.3721 H   0  0  0  0  0  0  0  0  0  0  0  0
  1  2  1  0
M  END
>  <reaction>  (3) 
rxn_1169

>  <mol_properties>  (3) 
{"0": {"label": "acceptor", "atom_type": "H0"}, "1": {"label": "a_hydrogen", "atom_type": "H0"}}

>  <type>  (3) 
r2h

$$$$

     RDKit          3D

 17 15  0  0  0  0  0  0  0  0999 V2000
    0.4270    2.1308   -1.4146 H   0  0  0  0  0 15  0  0  0  0  0  0
    0.1436   -0.8332   -2.3239 C   0  0  0  0  0  0  0  0  0  0  0  0
    0.2837   -0.9045   -1.0104 C   0  0  0  0  0  0  0  0  0  0  0  0
    0.2340    0.2544   -0.0601 C   0  0  0  0  0  0  0  0  0  0  0  0
    1.4678    0.3454    0.8176 C   0  0  0  0  0  0  0  0  0  0  0  0
   -1.0766    0.3406    0.6436 C   0  0  0  0  0  0  0  0  0  0  0  0
   -1.2590    0.5255    1.9449 C   0  0  0  0  0  0  0  0  0  0  0  0
    0.1820   -1.7205   -2.9428 H   0  0  0  0  0  0  0  0  0  0  0  0
   -0.0107    0.1156   -2.8260 H   0  0  0  0  0  0  0  0  0  0  0  0
    0.4429   -1.8742   -0.5406 H   0  0  0  0  0  0  0  0  0  0  0  0
    0.2737    1.2355   -0.7653 H   0  0  0  0  0  0  0  0  0  0  0  0
    2.3677    0.3490    0.2024 H   0  0  0  0  0  0  0  0  0  0  0  0
    1.4595    1.2569    1.4166 H   0  0  0  0  0  0  0  0  0  0  0  0
    1.5245   -0.5090    1.4974 H   0  0  0  0  0  0  0  0  0  0  0  0
   -1.9442    0.2430   -0.0028 H   0  0  0  0  0  0  0  0  0  0  0  0
   -0.4322    0.6206    2.6381 H   0  0  0  0  0  0  0  0  0  0  0  0
   -2.2557    0.5830    2.3631 H   0  0  0  0  0  0  0  0  0  0  0  0
  2  3  2  3
  2  8  1  0
  2  9  1  0
  3  4  1  0
  3 10  1  0
  4  5  1  0
  4  6  1  0
  4 11  1  0
  5 12  1  0
  5 13  1  0
  5 14  1  0
  6  7  2  3
  6 15  1  0
  7 16  1  0
  7 17  1  0
M  END
>  <reaction>  (4) 
rxn_1169

>  <mol_properties>  (4) 
{"0": {"label": "*1", "atom_type": "H0"}, "2": {"label": "*4", "atom_type": "Cd"}, "3": {"label": "*3", "atom_type": "Cs"}, "10": {"label": "*2", "atom_type": "H0"}}

>  <type>  (4) 
ts

$$$$

     RDKit          3D

 17 15  0  0  0  0  0  0  0  0999 V2000
    0.2874    2.1028   -1.4452 H   0  0  0  0  0 15  0  0  0  0  0  0
    0.2259   -0.8814   -2.2967 C   0  0  0  0  0  0  0  0  0  0  0  0
    0.2259   -0.8814   -0.9734 C   0  0  0  0  0  0  0  0  0  0  0  0
    0.2259    0.3494   -0.1040 C   0  0  0  0  0  0  0  0  0  0  0  0
    1.4643    0.3792    0.7876 C   0  0  0  0  0  0  0  0  0  0  0  0
   -1.0776    0.4180    0.6525 C   0  0  0  0  0  0  0  0  0  0  0  0
   -1.2322    0.4182    1.9674 C   0  0  0  0  0  0  0  0  0  0  0  0
    0.2252   -1.8040   -2.8634 H   0  0  0  0  0  0  0  0  0  0  0  0
    0.2277    0.0444   -2.8624 H   0  0  0  0  0  0  0  0  0  0  0  0
    0.2212   -1.8272   -0.4358 H   0  0  0  0  0  0  0  0  0  0  0  0
    0.2625    1.3937   -0.9029 H   0  0  0  0  0  0  0  0  0  0  0  0
    2.3671    0.3708    0.1763 H   0  0  0  0  0  0  0  0  0  0  0  0
    1.4790    1.2749    1.4107 H   0  0  0  0  0  0  0  0  0  0  0  0
    1.4969   -0.4926    1.4452 H   0  0  0  0  0  0  0  0  0  0  0  0
   -1.9607    0.4537    0.0199 H   0  0  0  0  0  0  0  0  0  0  0  0
   -0.3918    0.3789    2.6499 H   0  0  0  0  0  0  0  0  0  0  0  0
   -2.2186    0.4613    2.4116 H   0  0  0  0  0  0  0  0  0  0  0  0
  2  3  2  3
  2  8  1  0
  2  9  1  0
  3  4  1  0
  3 10  1  0
  4  5  1  0
  4  6  1  0
  4 11  1  0
  5 12  1  0
  5 13  1  0
  5 14  1  0
  6  7  2  3
  6 15  1  0
  7 16  1  0
  7 17  1  0
M  END
>  <reaction>  (5) 
rxn_1169

>  <mol_properties>  (5) 
{"0": {"label": "*1", "atom_type": "H0"}, "2": {"label": "*4", "atom_type": "Cd"}, "3": {"label": "*3", "atom_type": "Cs"}, "10": {"label": "*2", "atom_type": "H0"}}

>  <type>  (5) 
unop_1

>  <geom_source>  (5) 
Heuristics

$$$$

     RDKit          3D

 17 15  0  0  0  0  0  0  0  0999 V2000
    0.0693   -1.6853    0.2209 C   0  0  0  0  0  0  0  0  0  0  0  0
   -0.0197   -0.1707    0.0554 C   0  0  0  0  0  0  0  0  0  0  0  0
   -1.3357    0.2303   -0.5404 C   0  0  0  0  0  0  0  0  0  0  0  0
    1.1095    0.3474   -0.7838 C   0  0  0  0  0  0  0  0  0  0  0  0
   -2.1583    1.0448    0.1212 C   0  0  0  0  0  0  0  0  0  0  0  0
    1.9653    1.2424   -0.2892 C   0  0  0  0  0  0  0  0  0  0  0  0
   -0.0044   -2.1949   -0.7643 H   0  0  0  0  0  0  0  0  0  0  0  0
    1.0351   -1.9557    0.6981 H   0  0  0  0  0  0  0  0  0  0  0  0
   -0.7537   -2.0413    0.8762 H   0  0  0  0  0  0  0  0  0  0  0  0
   -1.6207   -0.1406   -1.5212 H   0  0  0  0  0  0  0  0  0  0  0  0
    1.2298   -0.0041   -1.8049 H   0  0  0  0  0  0  0  0  0  0  0  0
   -3.1078    1.3322   -0.3184 H   0  0  0  0  0  0  0  0  0  0  0  0
   -1.8923    1.4297    1.1013 H   0  0  0  0  0  0  0  0  0  0  0  0
    1.8621    1.6095    0.7276 H   0  0  0  0  0  0  0  0  0  0  0  0
    2.7782    1.6142   -0.9043 H   0  0  0  0  0  0  0  0  0  0  0  0
    0.7573   -0.4874    2.0743 H   0  0  0  0  0 15  0  0  0  0  0  0
    0.0859   -0.1704    1.0514 H   0  0  0  0  0  0  0  0  0  0  0  0
  1  2  1  0
  1  7  1  0
  1  8  1  0
  1  9  1  0
  2  3  1  0
  2  4  1  0
  2 17  1  0
  3  5  2  3
  3 10  1  0
  4  6  2  3
  4 11  1  0
  5 12  1  0
  5 13  1  0
  6 14  1  0
  6 15  1  0
M  END
>  <reaction>  (6) 
rxn_1169

>  <mol_properties>  (6) 
{"0": {"label": "*1", "atom_type": "H0"}, "2": {"label": "*4", "atom_type": "Cd"}, "3": {"label": "*3", "atom_type": "Cs"}, "10": {"label": "*2", "atom_type": "H0"}}

>  <type>  (6) 
unop_2

>  <geom_source>  (6) 
AutoTST

$$$$

     RDKit          3D

 17 15  0  0  0  0  0  0  0  0999 V2000
   -0.0168   -0.3158   -0.0212 C   0  0  0  0  0  0  0  0  0  0  0  0
   -0.7855   -1.5009    0.5699 C   0  0  0  0  0  0  0  0  0  0  0  0
    1.3644   -0.2274    0.5809 C   0  0  0  0  0  0  0  0  0  0  0  0
   -0.7751    0.9676    0.2152 C   0  0  0  0  0  0  0  0  0  0  0  0
    2.3092    0.5458    0.0379 C   0  0  0  0  0  0  0  0  0  0  0  0
   -1.8295    1.3000   -0.5347 C   0  0  0  0  0  0  0  0  0  0  0  0
    0.1068   -0.5091   -1.2685 H   0  0  0  0  0  0  0  0  0  0  0  0
   -0.2255   -2.4437    0.3915 H   0  0  0  0  0  0  0  0  0  0  0  0
   -1.7795   -1.5939    0.0830 H   0  0  0  0  0  0  0  0  0  0  0  0
   -0.9315   -1.3689    1.6640 H   0  0  0  0  0  0  0  0  0  0  0  0
    1.6094   -0.8058    1.4681 H   0  0  0  0  0  0  0  0  0  0  0  0
   -0.4693    1.6378    1.0146 H   0  0  0  0  0  0  0  0  0  0  0  0
    2.1051    1.1359   -0.8505 H   0  0  0  0  0  0  0  0  0  0  0  0
    3.2970    0.5917    0.4847 H   0  0  0  0  0  0  0  0  0  0  0  0
   -2.1682    0.6554   -1.3402 H   0  0  0  0  0  0  0  0  0  0  0  0
   -2.3617    2.2261   -0.3434 H   0  0  0  0  0  0  0  0  0  0  0  0
    0.5510   -0.2948   -2.1513 H   0  0  0  0  0 15  0  0  0  0  0  0
  1  2  1  0
  1  3  1  0
  1  4  1  0
  1  7  1  0
  2  8  1  0
  2  9  1  0
  2 10  1  0
  3  5  2  3
  3 11  1  0
  4  6  2  3
  4 12  1  0
  5 13  1  0
  5 14  1  0
  6 15  1  0
  6 16  1  0
M  END
>  <reaction>  (7) 
rxn_1169

>  <mol_properties>  (7) 
{"0": {"label": "*1", "atom_type": "H0"}, "2": {"label": "*4", "atom_type": "Cd"}, "3": {"label": "*3", "atom_type": "Cs"}, "10": {"label": "*2", "atom_type": "H0"}}

>  <type>  (7) 
unop_3

>  <geom_source>  (7) 
gaussian_log

$$$$
