
     RDKit          3D

  7  6  0  0  0  0  0  0  0  0999 V2000
   -0.6468   -0.0443   -0.0231 C   0  0  0  0  0  0  0  0  0  0  0  0
    0.8470    0.0371    0.0688 C   0  0  0  0  0  0  0  0  0  0  0  0
    1.4866   -0.2280    1.0479 O   0  0  0  0  0  0  0  0  0  0  0  0
   -1.0466    0.9363   -0.2943 H   0  0  0  0  0  0  0  0  0  0  0  0
   -0.9229   -0.7318   -0.8269 H   0  0  0  0  0  0  0  0  0  0  0  0
   -1.0759   -0.3772    0.9198 H   0  0  0  0  0  0  0  0  0  0  0  0
    1.3584    0.3712   -0.8589 H   0  0  0  0  0  0  0  0  0  0  0  0
  1  2  1  0
  1  4  1  0
  1  5  1  0
  1  6  1  0
  2  3  2  0
  2  7  1  0
M  END
>  <reaction>  (1) 
rxn_3217

>  <mol_properties>  (1) 
{"1": {"label": "donator", "atom_type": "CO"}, "6": {"label": "d_hydrogen", "atom_type": "H0"}}

>  <type>  (1) 
r1h

$$$$

     RDKit          3D

  7  6  0  0  0  0  0  0  0  0999 V2000
   -1.3059    0.5497   -0.1304 N   0  0  0  0  0  2  0  0  0  0  0  0
   -0.2700   -0.4288    0.0448 C   0  0  0  0  0  0  0  0  0  0  0  0
    1.1109    0.0669    0.0401 C   0  0  0  0  0  0  0  0  0  0  0  0
    2.1758    0.4925    0.0308 N   0  0  0  0  0  0  0  0  0  0  0  0
   -0.8815    1.4733   -0.2339 H   0  0  0  0  0  0  0  0  0  0  0  0
   -0.3767   -1.1909   -0.7373 H   0  0  0  0  0  0  0  0  0  0  0  0
   -0.4527   -0.9628    0.9858 H   0  0  0  0  0  0  0  0  0  0  0  0
  1  2  1  0
  1  5  1  0
  2  3  1  0
  2  6  1  0
  2  7  1  0
  3  4  3  0
M  RAD  1   1   2
M  END
>  <reaction>  (2) 
rxn_3217

>  <mol_properties>  (2) 
{"0": {"label": "acceptor", "atom_type": "N3s"}}

>  <type>  (2) 
r2

$$$$

     RDKit          3D

  8  7  0  0  0  0  0  0  0  0999 V2000
   -1.0805    0.5317    0.0204 N   0  0  0  0  0  0  0  0  0  0  0  0
   -0.1080   -0.5393    0.0956 C   0  0  0  0  0  0  0  0  0  0  0  0
    1.2945   -0.1247   -0.1005 C   0  0  0  0  0  0  0  0  0  0  0  0
    2.3714    0.2386   -0.2580 N   0  0  0  0  0  0  0  0  0  0  0  0
   -1.0516    0.9857   -0.8822 H   0  0  0  0  0  0  0  0  0  0  0  0
   -0.9009    1.2352    0.7235 H   0  0  0  0  0  0  0  0  0  0  0  0
   -0.3427   -1.2965   -0.6542 H   0  0  0  0  0  0  0  0  0  0  0  0
   -0.1810   -1.0288    1.0680 H   0  0  0  0  0  0  0  0  0  0  0  0
  1  2  1  0
  1  5  1  0
  1  6  1  0
  2  3  1  0
  2  7  1  0
  2  8  1  0
  3  4  3  0
M  END
>  <reaction>  (3) 
rxn_3217

>  <mol_properties>  (3) 
{"0": {"label": "acceptor", "atom_type": "N3s"}, "7": {"label": "a_hydrogen", "atom_type": "H0"}}

>  <type>  (3) 
r2h

$$$$

     RDKit          3D

 14 12  0  0  0  0  0  0  0  0999 V2000
   -0.8638   -0.6989    1.1677 N   0  0  0  0  0  2  0  0  0  0  0  0
    0.5397   -1.0452    1.2961 C   0  0  0  0  0  0  0  0  0  0  0  0
    1.2228   -1.2774    0.0147 C   0  0  0  0  0  0  0  0  0  0  0  0
    1.6846   -1.4315   -1.0247 N   0  0  0  0  0  0  0  0  0  0  0  0
   -1.2761   -1.3101    0.4608 H   0  0  0  0  0  0  0  0  0  0  0  0
    0.6358   -1.9514    1.9048 H   0  0  0  0  0  0  0  0  0  0  0  0
    1.0620   -0.2479    1.8288 H   0  0  0  0  0  0  0  0  0  0  0  0
   -0.8682    1.3801   -1.7125 C   0  0  0  0  0  0  0  0  0  0  0  0
   -0.4963    1.5099   -0.2684 C   0  0  0  0  0  0  0  0  0  0  0  0
    0.0872    2.4037    0.2501 O   0  0  0  0  0  0  0  0  0  0  0  0
   -0.3181    0.5283   -2.1213 H   0  0  0  0  0  0  0  0  0  0  0  0
   -1.9328    1.1534   -1.7929 H   0  0  0  0  0  0  0  0  0  0  0  0
   -0.6226    2.2867   -2.2628 H   0  0  0  0  0  0  0  0  0  0  0  0
   -0.8124    0.5360    0.4260 H   0  0  0  0  0  0  0  0  0  0  0  0
  1  2  1  0
  1  5  1  0
  2  3  1  0
  2  6  1  0
  2  7  1  0
  3  4  3  0
  8  9  1  0
  8 11  1  0
  8 12  1  0
  8 13  1  0
  9 10  2  0
  9 14  1  0
M  RAD  1   1   2
M  END
>  <reaction>  (4) 
rxn_3217

>  <mol_properties>  (4) 
{"0": {"label": "*3", "atom_type": "N3s"}, "1": {"label": "*4", "atom_type": "Cs"}, "8": {"label": "*1", "atom_type": "CO"}, "9": {"label": "*0", "atom_type": "O2d"}, "13": {"label": "*2", "atom_type": "H0"}}

>  <type>  (4) 
ts

$$$$

     RDKit          3D

 14 12  0  0  0  0  0  0  0  0999 V2000
   -0.8652   -0.7867    0.4845 N   0  0  0  0  0  0  0  0  0  0  0  0
    0.3056   -0.9714    1.3173 C   0  0  0  0  0  0  0  0  0  0  0  0
    1.3762   -1.7906    0.7172 C   0  0  0  0  0  0  0  0  0  0  0  0
    2.1841   -2.4323    0.2151 N   0  0  0  0  0  0  0  0  0  0  0  0
   -1.2927   -1.6739    0.2570 H   0  0  0  0  0  0  0  0  0  0  0  0
    0.0120   -1.4390    2.2584 H   0  0  0  0  0  0  0  0  0  0  0  0
    0.7289    0.0019    1.5702 H   0  0  0  0  0  0  0  0  0  0  0  0
   -0.8652    1.5190   -2.0936 C   0  0  0  0  0  0  0  0  0  0  0  0
   -0.8652    1.5190   -0.5948 C   0  0  0  0  0  3  0  0  0  0  0  0
   -0.8652    2.5046    0.0883 O   0  0  0  0  0  0  0  0  0  0  0  0
    0.0125    0.9770   -2.4554 H   0  0  0  0  0  0  0  0  0  0  0  0
   -1.7429    0.9770   -2.4554 H   0  0  0  0  0  0  0  0  0  0  0  0
   -0.8653    2.5355   -2.4815 H   0  0  0  0  0  0  0  0  0  0  0  0
   -0.8652    0.3118   -0.0297 H   0  0  0  0  0  0  0  0  0  0  0  0
  1  2  1  0
  1  5  1  0
  1 14  1  0
  2  3  1  0
  2  6  1  0
  2  7  1  0
  3  4  3  0
  8  9  1  0
  8 11  1  0
  8 12  1  0
  8 13  1  0
  9 10  2  0
M  RAD  1   9   2
M  END
>  <reaction>  (5) 
rxn_3217

>  <mol_properties>  (5) 
{"0": {"label": "*3", "atom_type": "N3s"}, "1": {"label": "*4", "atom_type": "Cs"}, "8": {"label": "*1", "atom_type": "CO"}, "9": {"label": "*0", "atom_type": "O2d"}, "13": {"label": "*2", "atom_type": "H0"}}

>  <type>  (5) 
unop_1

>  <geom_source>  (5) 
Heuristics

$$$$

     RDKit          3D

 14 12  0  0  0  0  0  0  0  0999 V2000
    0.0252   -0.5841    1.3540 N   0  0  0  0  0  0  0  0  0  0  0  0
    0.7012   -1.5518    0.5143 C   0  0  0  0  0  0  0  0  0  0  0  0
   -0.0979   -2.0654   -0.6149 C   0  0  0  0  0  0  0  0  0  0  0  0
   -0.7522   -2.4395   -1.4801 N   0  0  0  0  0  0  0  0  0  0  0  0
   -0.8089   -0.9801    1.7652 H   0  0  0  0  0  0  0  0  0  0  0  0
    1.0131   -2.4038    1.1203 H   0  0  0  0  0  0  0  0  0  0  0  0
    1.6109   -1.1073    0.1075 H   0  0  0  0  0  0  0  0  0  0  0  0
    0.0252    1.7215   -1.2240 C   0  0  0  0  0  0  0  0  0  0  0  0
    0.0252    1.7215    0.2748 C   0  0  0  0  0  3  0  0  0  0  0  0
    0.0252    2.7071    0.9579 O   0  0  0  0  0  0  0  0  0  0  0  0
    0.9030    1.1796   -1.5859 H   0  0  0  0  0  0  0  0  0  0  0  0
   -0.8525    1.1795   -1.5859 H   0  0  0  0  0  0  0  0  0  0  0  0
    0.0252    2.7381   -1.6119 H   0  0  0  0  0  0  0  0  0  0  0  0
    0.0252    0.5144    0.8399 H   0  0  0  0  0  0  0  0  0  0  0  0
  1  2  1  0
  1  5  1  0
  1 14  1  0
  2  3  1  0
  2  6  1  0
  2  7  1  0
  3  4  3  0
  8  9  1  0
  8 11  1  0
  8 12  1  0
  8 13  1  0
  9 10  2  0
M  RAD  1   9   2
M  END
>  <reaction>  (6) 
rxn_3217

>  <mol_properties>  (6) 
{"0": {"label": "*3", "atom_type": "N3s"}, "1": {"label": "*4", "atom_type": "Cs"}, "8": {"label": "*1", "atom_type": "CO"}, "9": {"label": "*0", "atom_type": "O2d"}, "13": {"label": "*2", "atom_type": "H0"}}

>  <type>  (6) 
unop_2

>  <geom_source>  (6) 
Heuristics

$$$$

     RDKit          3D

 14 12  0  0  0  0  0  0  0  0999 V2000
   -0.8051   -1.0618    0.1022 N   0  0  0  0  0  0  0  0  0  0  0  0
   -0.1291   -1.0368    1.3832 C   0  0  0  0  0  0  0  0  0  0  0  0
    1.3147   -1.3375    1.3337 C   0  0  0  0  0  0  0  0  0  0  0  0
    2.4340   -1.5762    1.2522 N   0  0  0  0  0  0  0  0  0  0  0  0
   -0.7285   -1.9718   -0.3310 H   0  0  0  0  0  0  0  0  0  0  0  0
   -0.5993   -1.7554    2.0562 H   0  0  0  0  0  0  0  0  0  0  0  0
   -0.2522   -0.0535    1.8398 H   0  0  0  0  0  0  0  0  0  0  0  0
   -0.8051    1.2438   -2.4759 C   0  0  0  0  0  0  0  0  0  0  0  0
   -0.8051    1.2438   -0.9771 C   0  0  0  0  0  3  0  0  0  0  0  0
   -0.8051    2.2295   -0.2940 O   0  0  0  0  0  0  0  0  0  0  0  0
    0.0726    0.7019   -2.8377 H   0  0  0  0  0  0  0  0  0  0  0  0
   -1.6828    0.7019   -2.8377 H   0  0  0  0  0  0  0  0  0  0  0  0
   -0.8051    2.2604   -2.8638 H   0  0  0  0  0  0  0  0  0  0  0  0
   -0.8051    0.0367   -0.4120 H   0  0  0  0  0  0  0  0  0  0  0  0
  1  2  1  0
  1  5  1  0
  1 14  1  0
  2  3  1  0
  2  6  1  0
  2  7  1  0
  3  4  3  0
  8  9  1  0
  8 11  1  0
  8 12  1  0
  8 13  1  0
  9 10  2  0
M  RAD  1   9   2
M  END
>  <reaction>  (7) 
rxn_3217

>  <mol_properties>  (7) 
{"0": {"label": "*3", "atom_type": "N3s"}, "1": {"label": "*4", "atom_type": "Cs"}, "8": {"label": "*1", "atom_type": "CO"}, "9": {"label": "*0", "atom_type": "O2d"}, "13": {"label": "*2", "atom_type": "H0"}}

>  <type>  (7) 
unop_3

>  <geom_source>  (7) 
Heuristics

$$$$

     RDKit          3D

 14 12  0  0  0  0  0  0  0  0999 V2000
    0.9098   -1.1650    0.8893 N   0  0  0  0  0  0  0  0  0  0  0  0
   -0.2610   -1.9229    0.4977 C   0  0  0  0  0  0  0  0  0  0  0  0
   -1.4361   -1.1106    0.1277 C   0  0  0  0  0  0  0  0  0  0  0  0
   -2.3265   -0.4432   -0.1519 N   0  0  0  0  0  0  0  0  0  0  0  0
    0.7139   -0.5833    1.6922 H   0  0  0  0  0  0  0  0  0  0  0  0
   -0.5541   -2.5860    1.3131 H   0  0  0  0  0  0  0  0  0  0  0  0
   -0.0131   -2.5617   -0.3514 H   0  0  0  0  0  0  0  0  0  0  0  0
    0.9098    1.1406   -1.6887 C   0  0  0  0  0  0  0  0  0  0  0  0
    0.9098    1.1406   -0.1899 C   0  0  0  0  0  3  0  0  0  0  0  0
    0.9098    2.1262    0.4931 O   0  0  0  0  0  0  0  0  0  0  0  0
    1.7875    0.5987   -2.0506 H   0  0  0  0  0  0  0  0  0  0  0  0
    0.0321    0.5986   -2.0506 H   0  0  0  0  0  0  0  0  0  0  0  0
    0.9098    2.1572   -2.0767 H   0  0  0  0  0  0  0  0  0  0  0  0
    0.9098   -0.0665    0.3751 H   0  0  0  0  0  0  0  0  0  0  0  0
  1  2  1  0
  1  5  1  0
  1 14  1  0
  2  3  1  0
  2  6  1  0
  2  7  1  0
  3  4  3  0
  8  9  1  0
  8 11  1  0
  8 12  1  0
  8 13  1  0
  9 10  2  0
M  RAD  1   9   2
M  END
>  <reaction>  (8) 
rxn_3217

>  <mol_properties>  (8) 
{"0": {"label": "*3", "atom_type": "N3s"}, "1": {"label": "*4", "atom_type": "Cs"}, "8": {"label": "*1", "atom_type": "CO"}, "9": {"label": "*0", "atom_type": "O2d"}, "13": {"label": "*2", "atom_type": "H0"}}

>  <type>  (8) 
unop_4

>  <geom_source>  (8) 
Heuristics

$$$$

     RDKit          3D

 14 12  0  0  0  0  0  0  0  0999 V2000
   -0.4317   -1.4684   -0.1948 N   0  0  0  0  0  0  0  0  0  0  0  0
   -0.4317   -1.3666    1.2502 C   0  0  0  0  0  0  0  0  0  0  0  0
    0.7248   -0.6537    1.8263 C   0  0  0  0  0  0  0  0  0  0  0  0
    1.6393   -0.0934    2.2340 N   0  0  0  0  0  0  0  0  0  0  0  0
    0.3870   -1.9614   -0.5240 H   0  0  0  0  0  0  0  0  0  0  0  0
   -0.4605   -2.3669    1.6850 H   0  0  0  0  0  0  0  0  0  0  0  0
   -1.3386   -0.8564    1.5785 H   0  0  0  0  0  0  0  0  0  0  0  0
   -0.4317    0.8372   -2.7729 C   0  0  0  0  0  0  0  0  0  0  0  0
   -0.4317    0.8372   -1.2740 C   0  0  0  0  0  3  0  0  0  0  0  0
   -0.4317    1.8228   -0.5910 O   0  0  0  0  0  0  0  0  0  0  0  0
    0.4460    0.2953   -3.1347 H   0  0  0  0  0  0  0  0  0  0  0  0
   -1.3094    0.2952   -3.1347 H   0  0  0  0  0  0  0  0  0  0  0  0
   -0.4317    1.8538   -3.1608 H   0  0  0  0  0  0  0  0  0  0  0  0
   -0.4317   -0.3699   -0.7090 H   0  0  0  0  0  0  0  0  0  0  0  0
  1  2  1  0
  1  5  1  0
  1 14  1  0
  2  3  1  0
  2  6  1  0
  2  7  1  0
  3  4  3  0
  8  9  1  0
  8 11  1  0
  8 12  1  0
  8 13  1  0
  9 10  2  0
M  RAD  1   9   2
M  END
>  <reaction>  (9) 
rxn_3217

>  <mol_properties>  (9) 
{"0": {"label": "*3", "atom_type": "N3s"}, "1": {"label": "*4", "atom_type": "Cs"}, "8": {"label": "*1", "atom_type": "CO"}, "9": {"label": "*0", "atom_type": "O2d"}, "13": {"label": "*2", "atom_type": "H0"}}

>  <type>  (9) 
unop_5

>  <geom_source>  (9) 
Heuristics

$$$$

     RDKit          3D

 14 12  0  0  0  0  0  0  0  0999 V2000
    0.9290   -1.3691    0.5138 N   0  0  0  0  0  0  0  0  0  0  0  0
   -0.4229   -1.8404    0.7344 C   0  0  0  0  0  0  0  0  0  0  0  0
   -1.4616   -0.7925    0.7106 C   0  0  0  0  0  0  0  0  0  0  0  0
   -2.2382    0.0518    0.6845 N   0  0  0  0  0  0  0  0  0  0  0  0
    1.1993   -0.6980    1.2196 H   0  0  0  0  0  0  0  0  0  0  0  0
   -0.4783   -2.3467    1.6993 H   0  0  0  0  0  0  0  0  0  0  0  0
   -0.6771   -2.5829   -0.0236 H   0  0  0  0  0  0  0  0  0  0  0  0
    0.9290    0.9365   -2.0643 C   0  0  0  0  0  0  0  0  0  0  0  0
    0.9290    0.9365   -0.5654 C   0  0  0  0  0  3  0  0  0  0  0  0
    0.9290    1.9222    0.1176 O   0  0  0  0  0  0  0  0  0  0  0  0
    1.8067    0.3946   -2.4261 H   0  0  0  0  0  0  0  0  0  0  0  0
    0.0513    0.3946   -2.4261 H   0  0  0  0  0  0  0  0  0  0  0  0
    0.9290    1.9531   -2.4522 H   0  0  0  0  0  0  0  0  0  0  0  0
    0.9290   -0.2706   -0.0004 H   0  0  0  0  0  0  0  0  0  0  0  0
  1  2  1  0
  1  5  1  0
  1 14  1  0
  2  3  1  0
  2  6  1  0
  2  7  1  0
  3  4  3  0
  8  9  1  0
  8 11  1  0
  8 12  1  0
  8 13  1  0
  9 10  2  0
M  RAD  1   9   2
M  END
>  <reaction>  (10) 
rxn_3217

>  <mol_properties>  (10) 
{"0": {"label": "*3", "atom_type": "N3s"}, "1": {"label": "*4", "atom_type": "Cs"}, "8": {"label": "*1", "atom_type": "CO"}, "9": {"label": "*0", "atom_type": "O2d"}, "13": {"label": "*2", "atom_type": "H0"}}

>  <type>  (10) 
unop_6

>  <geom_source>  (10) 
Heuristics

$$$$

     RDKit          3D

 14 12  0  0  0  0  0  0  0  0999 V2000
    0.7266   -1.5564    0.1188 N   0  0  0  0  0  0  0  0  0  0  0  0
   -0.4442   -1.7411    0.9516 C   0  0  0  0  0  0  0  0  0  0  0  0
   -1.1434   -0.4983    1.3312 C   0  0  0  0  0  0  0  0  0  0  0  0
   -1.6575    0.4906    1.6037 N   0  0  0  0  0  0  0  0  0  0  0  0
    1.4170   -0.9839    0.5848 H   0  0  0  0  0  0  0  0  0  0  0  0
   -0.1599   -2.2601    1.8683 H   0  0  0  0  0  0  0  0  0  0  0  0
   -1.1588   -2.3848    0.4363 H   0  0  0  0  0  0  0  0  0  0  0  0
    0.7266    0.7493   -2.4592 C   0  0  0  0  0  0  0  0  0  0  0  0
    0.7266    0.7493   -0.9604 C   0  0  0  0  0  3  0  0  0  0  0  0
    0.7266    1.7349   -0.2774 O   0  0  0  0  0  0  0  0  0  0  0  0
    1.6043    0.2073   -2.8211 H   0  0  0  0  0  0  0  0  0  0  0  0
   -0.1511    0.2073   -2.8211 H   0  0  0  0  0  0  0  0  0  0  0  0
    0.7265    1.7658   -2.8472 H   0  0  0  0  0  0  0  0  0  0  0  0
    0.7266   -0.4579   -0.3954 H   0  0  0  0  0  0  0  0  0  0  0  0
  1  2  1  0
  1  5  1  0
  1 14  1  0
  2  3  1  0
  2  6  1  0
  2  7  1  0
  3  4  3  0
  8  9  1  0
  8 11  1  0
  8 12  1  0
  8 13  1  0
  9 10  2  0
M  RAD  1   9   2
M  END
>  <reaction>  (11) 
rxn_3217

>  <mol_properties>  (11) 
{"0": {"label": "*3", "atom_type": "N3s"}, "1": {"label": "*4", "atom_type": "Cs"}, "8": {"label": "*1", "atom_type": "CO"}, "9": {"label": "*0", "atom_type": "O2d"}, "13": {"label": "*2", "atom_type": "H0"}}

>  <type>  (11) 
unop_7

>  <geom_source>  (11) 
Heuristics

$$$$

     RDKit          3D

 14 12  0  0  0  0  0  0  0  0999 V2000
   -0.7237   -0.6117    0.8736 N   0  0  0  0  0  0  0  0  0  0  0  0
    0.6282   -1.0829    1.0942 C   0  0  0  0  0  0  0  0  0  0  0  0
    1.1168   -2.0643    0.1064 C   0  0  0  0  0  0  0  0  0  0  0  0
    1.4584   -2.8247   -0.6820 N   0  0  0  0  0  0  0  0  0  0  0  0
   -1.3834   -1.3770    0.8970 H   0  0  0  0  0  0  0  0  0  0  0  0
    0.6974   -1.5386    2.0832 H   0  0  0  0  0  0  0  0  0  0  0  0
    1.3138   -0.2342    1.0922 H   0  0  0  0  0  0  0  0  0  0  0  0
   -0.7237    1.6940   -1.7044 C   0  0  0  0  0  0  0  0  0  0  0  0
   -0.7237    1.6940   -0.2056 C   0  0  0  0  0  3  0  0  0  0  0  0
   -0.7237    2.6796    0.4774 O   0  0  0  0  0  0  0  0  0  0  0  0
    0.1540    1.1521   -2.0663 H   0  0  0  0  0  0  0  0  0  0  0  0
   -1.6014    1.1520   -2.0663 H   0  0  0  0  0  0  0  0  0  0  0  0
   -0.7237    2.7106   -2.0923 H   0  0  0  0  0  0  0  0  0  0  0  0
   -0.7237    0.4868    0.3594 H   0  0  0  0  0  0  0  0  0  0  0  0
  1  2  1  0
  1  5  1  0
  1 14  1  0
  2  3  1  0
  2  6  1  0
  2  7  1  0
  3  4  3  0
  8  9  1  0
  8 11  1  0
  8 12  1  0
  8 13  1  0
  9 10  2  0
M  RAD  1   9   2
M  END
>  <reaction>  (12) 
rxn_3217

>  <mol_properties>  (12) 
{"0": {"label": "*3", "atom_type": "N3s"}, "1": {"label": "*4", "atom_type": "Cs"}, "8": {"label": "*1", "atom_type": "CO"}, "9": {"label": "*0", "atom_type": "O2d"}, "13": {"label": "*2", "atom_type": "H0"}}

>  <type>  (12) 
unop_8

>  <geom_source>  (12) 
Heuristics

$$$$

     RDKit          3D

 14 12  0  0  0  0  0  0  0  0999 V2000
    0.7320   -0.9587    1.1761 N   0  0  0  0  0  0  0  0  0  0  0  0
    0.0560   -1.9263    0.3363 C   0  0  0  0  0  0  0  0  0  0  0  0
   -1.1735   -1.4365   -0.3161 C   0  0  0  0  0  0  0  0  0  0  0  0
   -2.1234   -1.0171   -0.8043 N   0  0  0  0  0  0  0  0  0  0  0  0
    0.1300   -0.6443    1.9247 H   0  0  0  0  0  0  0  0  0  0  0  0
   -0.2053   -2.8034    0.9304 H   0  0  0  0  0  0  0  0  0  0  0  0
    0.7372   -2.2688   -0.4442 H   0  0  0  0  0  0  0  0  0  0  0  0
    0.7320    1.3470   -1.4019 C   0  0  0  0  0  0  0  0  0  0  0  0
    0.7320    1.3470    0.0969 C   0  0  0  0  0  3  0  0  0  0  0  0
    0.7320    2.3326    0.7799 O   0  0  0  0  0  0  0  0  0  0  0  0
    1.6097    0.8050   -1.7638 H   0  0  0  0  0  0  0  0  0  0  0  0
   -0.1457    0.8050   -1.7638 H   0  0  0  0  0  0  0  0  0  0  0  0
    0.7320    2.3635   -1.7899 H   0  0  0  0  0  0  0  0  0  0  0  0
    0.7320    0.1398    0.6619 H   0  0  0  0  0  0  0  0  0  0  0  0
  1  2  1  0
  1  5  1  0
  1 14  1  0
  2  3  1  0
  2  6  1  0
  2  7  1  0
  3  4  3  0
  8  9  1  0
  8 11  1  0
  8 12  1  0
  8 13  1  0
  9 10  2  0
M  RAD  1   9   2
M  END
>  <reaction>  (13) 
rxn_3217

>  <mol_properties>  (13) 
{"0": {"label": "*3", "atom_type": "N3s"}, "1": {"label": "*4", "atom_type": "Cs"}, "8": {"label": "*1", "atom_type": "CO"}, "9": {"label": "*0", "atom_type": "O2d"}, "13": {"label": "*2", "atom_type": "H0"}}

>  <type>  (13) 
unop_9

>  <geom_source>  (13) 
Heuristics

$$$$

     RDKit          3D

 14 12  0  0  0  0  0  0  0  0999 V2000
   -0.4016   -0.5346    1.1888 N   0  0  0  0  0  0  0  0  0  0  0  0
    0.7692   -1.2925    0.7972 C   0  0  0  0  0  0  0  0  0  0  0  0
    0.5827   -2.1691   -0.3751 C   0  0  0  0  0  0  0  0  0  0  0  0
    0.3965   -2.8371   -1.2892 N   0  0  0  0  0  0  0  0  0  0  0  0
   -1.1695   -1.1484    1.4238 H   0  0  0  0  0  0  0  0  0  0  0  0
    1.0963   -1.9135    1.6326 H   0  0  0  0  0  0  0  0  0  0  0  0
    1.5890   -0.6069    0.5772 H   0  0  0  0  0  0  0  0  0  0  0  0
   -0.4016    1.7710   -1.3893 C   0  0  0  0  0  0  0  0  0  0  0  0
   -0.4016    1.7710    0.1095 C   0  0  0  0  0  3  0  0  0  0  0  0
   -0.4016    2.7566    0.7926 O   0  0  0  0  0  0  0  0  0  0  0  0
    0.4761    1.2291   -1.7511 H   0  0  0  0  0  0  0  0  0  0  0  0
   -1.2793    1.2290   -1.7511 H   0  0  0  0  0  0  0  0  0  0  0  0
   -0.4016    2.7876   -1.7772 H   0  0  0  0  0  0  0  0  0  0  0  0
   -0.4016    0.5638    0.6746 H   0  0  0  0  0  0  0  0  0  0  0  0
  1  2  1  0
  1  5  1  0
  1 14  1  0
  2  3  1  0
  2  6  1  0
  2  7  1  0
  3  4  3  0
  8  9  1  0
  8 11  1  0
  8 12  1  0
  8 13  1  0
  9 10  2  0
M  RAD  1   9   2
M  END
>  <reaction>  (14) 
rxn_3217

>  <mol_properties>  (14) 
{"0": {"label": "*3", "atom_type": "N3s"}, "1": {"label": "*4", "atom_type": "Cs"}, "8": {"label": "*1", "atom_type": "CO"}, "9": {"label": "*0", "atom_type": "O2d"}, "13": {"label": "*2", "atom_type": "H0"}}

>  <type>  (14) 
unop_10

>  <geom_source>  (14) 
Heuristics

$$$$

     RDKit          3D

 14 12  0  0  0  0  0  0  0  0999 V2000
    0.2472   -1.6570   -0.1806 N   0  0  0  0  0  0  0  0  0  0  0  0
   -0.4288   -1.6319    1.1004 C   0  0  0  0  0  0  0  0  0  0  0  0
   -0.3780   -0.3382    1.8084 C   0  0  0  0  0  0  0  0  0  0  0  0
   -0.3155    0.6840    2.3259 N   0  0  0  0  0  0  0  0  0  0  0  0
    1.2286   -1.4382   -0.0776 H   0  0  0  0  0  0  0  0  0  0  0  0
    0.0041   -2.3903    1.7546 H   0  0  0  0  0  0  0  0  0  0  0  0
   -1.4777   -1.8990    0.9630 H   0  0  0  0  0  0  0  0  0  0  0  0
    0.2472    0.6487   -2.7586 C   0  0  0  0  0  0  0  0  0  0  0  0
    0.2472    0.6487   -1.2598 C   0  0  0  0  0  3  0  0  0  0  0  0
    0.2472    1.6343   -0.5768 O   0  0  0  0  0  0  0  0  0  0  0  0
    1.1249    0.1067   -3.1205 H   0  0  0  0  0  0  0  0  0  0  0  0
   -0.6305    0.1067   -3.1205 H   0  0  0  0  0  0  0  0  0  0  0  0
    0.2472    1.6652   -3.1466 H   0  0  0  0  0  0  0  0  0  0  0  0
    0.2472   -0.5585   -0.6948 H   0  0  0  0  0  0  0  0  0  0  0  0
  1  2  1  0
  1  5  1  0
  1 14  1  0
  2  3  1  0
  2  6  1  0
  2  7  1  0
  3  4  3  0
  8  9  1  0
  8 11  1  0
  8 12  1  0
  8 13  1  0
  9 10  2  0
M  RAD  1   9   2
M  END
>  <reaction>  (15) 
rxn_3217

>  <mol_properties>  (15) 
{"0": {"label": "*3", "atom_type": "N3s"}, "1": {"label": "*4", "atom_type": "Cs"}, "8": {"label": "*1", "atom_type": "CO"}, "9": {"label": "*0", "atom_type": "O2d"}, "13": {"label": "*2", "atom_type": "H0"}}

>  <type>  (15) 
unop_11

>  <geom_source>  (15) 
Heuristics

$$$$

     RDKit          3D

 14 12  0  0  0  0  0  0  0  0999 V2000
    0.4317   -0.7494    1.3413 N   0  0  0  0  0  0  0  0  0  0  0  0
    0.4317   -1.7938    0.3375 C   0  0  0  0  0  0  0  0  0  0  0  0
   -0.7248   -1.7796   -0.5790 C   0  0  0  0  0  0  0  0  0  0  0  0
   -1.6393   -1.7338   -1.2704 N   0  0  0  0  0  0  0  0  0  0  0  0
   -0.3870   -0.8123    1.9307 H   0  0  0  0  0  0  0  0  0  0  0  0
    0.4605   -2.7685    0.8271 H   0  0  0  0  0  0  0  0  0  0  0  0
    1.3386   -1.7192   -0.2646 H   0  0  0  0  0  0  0  0  0  0  0  0
    0.4317    1.5562   -1.2368 C   0  0  0  0  0  0  0  0  0  0  0  0
    0.4317    1.5562    0.2620 C   0  0  0  0  0  3  0  0  0  0  0  0
    0.4317    2.5419    0.9451 O   0  0  0  0  0  0  0  0  0  0  0  0
    1.3094    1.0143   -1.5986 H   0  0  0  0  0  0  0  0  0  0  0  0
   -0.4460    1.0143   -1.5986 H   0  0  0  0  0  0  0  0  0  0  0  0
    0.4316    2.5728   -1.6247 H   0  0  0  0  0  0  0  0  0  0  0  0
    0.4317    0.3491    0.8271 H   0  0  0  0  0  0  0  0  0  0  0  0
  1  2  1  0
  1  5  1  0
  1 14  1  0
  2  3  1  0
  2  6  1  0
  2  7  1  0
  3  4  3  0
  8  9  1  0
  8 11  1  0
  8 12  1  0
  8 13  1  0
  9 10  2  0
M  RAD  1   9   2
M  END
>  <reaction>  (16) 
rxn_3217

>  <mol_properties>  (16) 
{"0": {"label": "*3", "atom_type": "N3s"}, "1": {"label": "*4", "atom_type": "Cs"}, "8": {"label": "*1", "atom_type": "CO"}, "9": {"label": "*0", "atom_type": "O2d"}, "13": {"label": "*2", "atom_type": "H0"}}

>  <type>  (16) 
unop_12

>  <geom_source>  (16) 
Heuristics

$$$$

     RDKit          3D

 14 12  0  0  0  0  0  0  0  0999 V2000
    0.0253   -0.5841    1.3540 N   0  0  0  0  0  0  0  0  0  0  0  0
    0.7012   -1.5518    0.5143 C   0  0  0  0  0  0  0  0  0  0  0  0
   -0.0979   -2.0654   -0.6149 C   0  0  0  0  0  0  0  0  0  0  0  0
   -0.7522   -2.4395   -1.4801 N   0  0  0  0  0  0  0  0  0  0  0  0
   -0.8089   -0.9801    1.7652 H   0  0  0  0  0  0  0  0  0  0  0  0
    1.0131   -2.4038    1.1203 H   0  0  0  0  0  0  0  0  0  0  0  0
    1.6109   -1.1073    0.1075 H   0  0  0  0  0  0  0  0  0  0  0  0
    0.0252    1.7215   -1.2240 C   0  0  0  0  0  0  0  0  0  0  0  0
    0.0252    1.7215    0.2748 C   0  0  0  0  0  3  0  0  0  0  0  0
    0.0252    2.7071    0.9578 O   0  0  0  0  0  0  0  0  0  0  0  0
    0.9030    1.1796   -1.5859 H   0  0  0  0  0  0  0  0  0  0  0  0
   -0.8525    1.1795   -1.5859 H   0  0  0  0  0  0  0  0  0  0  0  0
    0.0252    2.7381   -1.6119 H   0  0  0  0  0  0  0  0  0  0  0  0
    0.0252    0.5143    0.8399 H   0  0  0  0  0  0  0  0  0  0  0  0
  1  2  1  0
  1  5  1  0
  1 14  1  0
  2  3  1  0
  2  6  1  0
  2  7  1  0
  3  4  3  0
  8  9  1  0
  8 11  1  0
  8 12  1  0
  8 13  1  0
  9 10  2  0
M  RAD  1   9   2
M  END
>  <reaction>  (17) 
rxn_3217

>  <mol_properties>  (17) 
{"0": {"label": "*3", "atom_type": "N3s"}, "1": {"label": "*4", "atom_type": "Cs"}, "8": {"label": "*1", "atom_type": "CO"}, "9": {"label": "*0", "atom_type": "O2d"}, "13": {"label": "*2", "atom_type": "H0"}}

>  <type>  (17) 
unop_13

>  <geom_source>  (17) 
gaussian_log

$$$$
