
     RDKit          3D

  7  6  0  0  0  0  0  0  0  0999 V2000
   -0.8134   -0.1164    0.3300 C   0  0  0  0  0  0  0  0  0  0  0  0
    0.2313    0.4515   -0.2553 C   0  0  0  0  0  0  0  0  0  0  0  0
    1.4449   -0.1043   -0.4662 O   0  0  0  0  0  0  0  0  0  0  0  0
   -1.7342    0.4365    0.4394 H   0  0  0  0  0  0  0  0  0  0  0  0
   -0.7819   -1.1311    0.7105 H   0  0  0  0  0  0  0  0  0  0  0  0
    0.2022    1.4650   -0.6362 H   0  0  0  0  0  0  0  0  0  0  0  0
    1.4512   -1.0012   -0.1223 H   0  0  0  0  0  0  0  0  0  0  0  0
  1  2  2  3
  1  4  1  0
  1  5  1  0
  2  3  1  0
  2  6  1  0
  3  7  1  0
M  END
>  <reaction>  (1) 
rxn_691

>  <mol_properties>  (1) 
{"2": {"label": "donator", "atom_type": "O2s"}, "6": {"label": "d_hydrogen", "atom_type": "H0"}}

>  <type>  (1) 
r1h

$$$$

     RDKit          3D

  1  0  0  0  0  0  0  0  0  0999 V2000
    0.0000    0.0000    0.0000 O   0  0  0  0  0 15  0  0  0  0  0  0
M  END
>  <reaction>  (2) 
rxn_691

>  <mol_properties>  (2) 
{"0": {"label": "acceptor", "atom_type": "O2s"}}

>  <type>  (2) 
r2

$$$$

     RDKit          3D

  2  1  0  0  0  0  0  0  0  0999 V2000
    0.0000    0.0000    0.4855 O   0  0  0  0  0  1  0  0  0  0  0  0
    0.0000    0.0000   -0.4855 H   0  0  0  0  0  0  0  0  0  0  0  0
  1  2  1  0
M  RAD  1   1   2
M  END
>  <reaction>  (3) 
rxn_691

>  <mol_properties>  (3) 
{"0": {"label": "a_hydrogen", "atom_type": "H0"}, "1": {"label": "acceptor", "atom_type": "O2s"}}

>  <type>  (3) 
r2h

$$$$

     RDKit          3D

  8  6  0  0  0  0  0  0  0  0999 V2000
   -0.0112   -0.9165   -1.0559 C   0  0  0  0  0  0  0  0  0  0  0  0
   -0.1013   -1.0256    0.3172 C   0  0  0  0  0  0  0  0  0  0  0  0
   -0.4599   -0.0469    1.0675 O   0  0  0  0  0  0  0  0  0  0  0  0
    0.5219   -1.6699   -1.6196 H   0  0  0  0  0  0  0  0  0  0  0  0
   -0.6042   -0.2015   -1.6047 H   0  0  0  0  0  0  0  0  0  0  0  0
    0.1726   -1.9508    0.8241 H   0  0  0  0  0  0  0  0  0  0  0  0
   -0.1327    0.7984    0.4328 H   0  0  0  0  0  0  0  0  0  0  0  0
    0.6149    1.3390   -0.5609 O   0  0  0  0  0 15  0  0  0  0  0  0
  1  2  2  3
  1  4  1  0
  1  5  1  0
  2  3  1  0
  2  6  1  0
  3  7  1  0
M  END
>  <reaction>  (4) 
rxn_691

>  <mol_properties>  (4) 
{"1": {"label": "*0", "atom_type": "Cd"}, "2": {"label": "*1", "atom_type": "O2s"}, "6": {"label": "*2", "atom_type": "H0"}, "7": {"label": "*3", "atom_type": "O2s"}}

>  <type>  (4) 
ts

$$$$

     RDKit          3D

  8  6  0  0  0  0  0  0  0  0999 V2000
   -0.0000   -1.1091   -1.1008 C   0  0  0  0  0  0  0  0  0  0  0  0
   -0.0000   -1.1091    0.2245 C   0  0  0  0  0  0  0  0  0  0  0  0
   -0.0000   -0.0286    1.0362 O   0  0  0  0  0  0  0  0  0  0  0  0
   -0.0000   -2.0454   -1.6380 H   0  0  0  0  0  0  0  0  0  0  0  0
    0.0000   -0.1919   -1.6787 H   0  0  0  0  0  0  0  0  0  0  0  0
   -0.0000   -2.0241    0.8041 H   0  0  0  0  0  0  0  0  0  0  0  0
    0.0000    0.9318    0.3987 H   0  0  0  0  0  0  0  0  0  0  0  0
    0.0000    1.9026   -0.2456 O   0  0  0  0  0 15  0  0  0  0  0  0
  1  2  2  3
  1  4  1  0
  1  5  1  0
  2  3  1  0
  2  6  1  0
  3  7  1  0
M  END
>  <reaction>  (5) 
rxn_691

>  <mol_properties>  (5) 
{"1": {"label": "*0", "atom_type": "Cd"}, "2": {"label": "*1", "atom_type": "O2s"}, "6": {"label": "*2", "atom_type": "H0"}, "7": {"label": "*3", "atom_type": "O2s"}}

>  <type>  (5) 
unop_1

>  <geom_source>  (5) 
Heuristics

$$$$

     RDKit          3D

  8  6  0  0  0  0  0  0  0  0999 V2000
    0.8353   -0.6979    0.3334 O   0  0  0  0  0  1  0  0  0  0  0  0
    2.5148    0.5788    0.1517 O   0  0  0  0  0  1  0  0  0  0  0  0
   -0.3546   -0.4547   -0.3408 C   0  0  0  0  0  0  0  0  0  0  0  0
   -1.2316    0.4145    0.1435 C   0  0  0  0  0  0  0  0  0  0  0  0
   -0.5628   -0.9786   -1.2645 H   0  0  0  0  0  0  0  0  0  0  0  0
   -2.1582    0.6029   -0.3830 H   0  0  0  0  0  0  0  0  0  0  0  0
   -1.0302    0.9424    1.0669 H   0  0  0  0  0  0  0  0  0  0  0  0
    1.9873   -0.4074    0.2928 H   0  0  0  0  0  0  0  0  0  0  0  0
  1  3  1  0
  2  8  1  0
  3  4  2  3
  3  5  1  0
  4  6  1  0
  4  7  1  0
M  RAD  2   1   2   2   2
M  END
>  <reaction>  (6) 
rxn_691

>  <mol_properties>  (6) 
{"1": {"label": "*0", "atom_type": "Cd"}, "2": {"label": "*1", "atom_type": "O2s"}, "6": {"label": "*2", "atom_type": "H0"}, "7": {"label": "*3", "atom_type": "O2s"}}

>  <type>  (6) 
unop_2

>  <geom_source>  (6) 
AutoTST

$$$$
