
     RDKit          3D

  8  7  0  0  0  0  0  0  0  0999 V2000
   -1.0119   -0.1138    0.0343 C   0  0  0  0  0  0  0  0  0  0  0  0
    0.1635    0.6127    0.4537 N   0  0  0  0  0  0  0  0  0  0  0  0
    1.2806    0.2308    0.0237 C   0  0  0  0  0  0  0  0  0  0  0  0
   -1.5282   -0.4917    0.9187 H   0  0  0  0  0  0  0  0  0  0  0  0
   -1.6952    0.5767   -0.4637 H   0  0  0  0  0  0  0  0  0  0  0  0
   -0.7939   -0.9530   -0.6406 H   0  0  0  0  0  0  0  0  0  0  0  0
    2.1799    0.7636    0.3269 H   0  0  0  0  0  0  0  0  0  0  0  0
    1.4052   -0.6254   -0.6530 H   0  0  0  0  0  0  0  0  0  0  0  0
  1  2  1  0
  1  4  1  0
  1  5  1  0
  1  6  1  0
  2  3  2  3
  3  7  1  0
  3  8  1  0
M  END
>  <reaction>  (1) 
rxn_704

>  <mol_properties>  (1) 
{"0": {"label": "donator", "atom_type": "Cs"}, "3": {"label": "d_hydrogen", "atom_type": "H0"}}

>  <type>  (1) 
r1h

$$$$

     RDKit          3D

  4  3  0  0  0  0  0  0  0  0999 V2000
    0.0000    0.0000    0.0000 C   0  0  0  0  0  3  0  0  0  0  0  0
    1.0638   -0.1747    0.0540 H   0  0  0  0  0  0  0  0  0  0  0  0
   -0.6833   -0.8351   -0.0280 H   0  0  0  0  0  0  0  0  0  0  0  0
   -0.3805    1.0098   -0.0260 H   0  0  0  0  0  0  0  0  0  0  0  0
  1  2  1  0
  1  3  1  0
  1  4  1  0
M  RAD  1   1   2
M  END
>  <reaction>  (2) 
rxn_704

>  <mol_properties>  (2) 
{"0": {"label": "acceptor", "atom_type": "Cs"}}

>  <type>  (2) 
r2

$$$$

     RDKit          3D

  5  4  0  0  0  0  0  0  0  0999 V2000
    0.0000    0.0000    0.0000 C   0  0  0  0  0  0  0  0  0  0  0  0
   -0.6486   -0.7720   -0.4113 H   0  0  0  0  0  0  0  0  0  0  0  0
   -0.3482    0.9787   -0.3267 H   0  0  0  0  0  0  0  0  0  0  0  0
   -0.0223   -0.0487    1.0876 H   0  0  0  0  0  0  0  0  0  0  0  0
    1.0191   -0.1580   -0.3496 H   0  0  0  0  0  0  0  0  0  0  0  0
  1  2  1  0
  1  3  1  0
  1  4  1  0
  1  5  1  0
M  END
>  <reaction>  (3) 
rxn_704

>  <mol_properties>  (3) 
{"0": {"label": "acceptor", "atom_type": "Cs"}, "4": {"label": "a_hydrogen", "atom_type": "H0"}}

>  <type>  (3) 
r2h

$$$$

     RDKit          3D

 12 10  0  0  0  0  0  0  0  0999 V2000
   -1.5191    0.7895    1.6772 C   0  0  0  0  0  3  0  0  0  0  0  0
   -1.0355    0.2096    2.4558 H   0  0  0  0  0  0  0  0  0  0  0  0
   -2.3011    0.2648    1.1386 H   0  0  0  0  0  0  0  0  0  0  0  0
   -1.7599    1.8117    1.9493 H   0  0  0  0  0  0  0  0  0  0  0  0
    0.4427    0.9816   -0.1677 C   0  0  0  0  0  0  0  0  0  0  0  0
    1.0860   -0.2731   -0.1661 N   0  0  0  0  0  0  0  0  0  0  0  0
    0.7923   -1.1047   -1.0725 C   0  0  0  0  0  0  0  0  0  0  0  0
   -0.4727    0.9192    0.7093 H   0  0  0  0  0  0  0  0  0  0  0  0
    1.0841    1.7787    0.2021 H   0  0  0  0  0  0  0  0  0  0  0  0
   -0.0857    1.2548   -1.0898 H   0  0  0  0  0  0  0  0  0  0  0  0
    1.2516   -2.0901   -1.0608 H   0  0  0  0  0  0  0  0  0  0  0  0
    0.0933   -0.8793   -1.8884 H   0  0  0  0  0  0  0  0  0  0  0  0
  1  2  1  0
  1  3  1  0
  1  4  1  0
  5  6  1  0
  5  8  1  0
  5  9  1  0
  5 10  1  0
  6  7  2  3
  7 11  1  0
  7 12  1  0
M  RAD  1   1   2
M  END
>  <reaction>  (4) 
rxn_704

>  <mol_properties>  (4) 
{"0": {"label": "*3", "atom_type": "Cs"}, "1": {"label": "*4", "atom_type": "H0"}, "4": {"label": "*1", "atom_type": "Cs"}, "5": {"label": "*0", "atom_type": "N3d"}, "7": {"label": "*2", "atom_type": "H0"}}

>  <type>  (4) 
ts

$$$$

     RDKit          3D

 12 10  0  0  0  0  0  0  0  0999 V2000
   -1.5452    0.6824    1.7764 C   0  0  0  0  0  0  0  0  0  0  0  0
   -1.2269    0.8142    2.8095 H   0  0  0  0  0  0  0  0  0  0  0  0
   -2.5590    0.2853    1.7568 H   0  0  0  0  0  0  0  0  0  0  0  0
   -1.4852    1.7139    1.4326 H   0  0  0  0  0  0  0  0  0  0  0  0
    0.5583    0.5506    0.2257 C   0  0  0  0  0  0  0  0  0  0  0  0
    0.5583   -0.7230   -0.4550 N   0  0  0  0  0  0  0  0  0  0  0  0
    0.5583   -0.7230   -1.7114 C   0  0  0  0  0  3  0  0  0  0  0  0
   -0.4947    0.6166    1.0020 H   0  0  0  0  0  0  0  0  0  0  0  0
    1.4359    0.6056    0.8727 H   0  0  0  0  0  0  0  0  0  0  0  0
    0.5583    1.4137   -0.4541 H   0  0  0  0  0  0  0  0  0  0  0  0
    0.5583   -1.6714   -2.2453 H   0  0  0  0  0  0  0  0  0  0  0  0
    0.5583    0.1954   -2.3140 H   0  0  0  0  0  0  0  0  0  0  0  0
  1  2  1  0
  1  3  1  0
  1  4  1  0
  1  8  1  0
  5  6  2  3
  5  9  1  0
  5 10  1  0
  6  7  1  0
  7 11  1  0
  7 12  1  0
M  RAD  1   7   2
M  END
>  <reaction>  (5) 
rxn_704

>  <mol_properties>  (5) 
{"0": {"label": "*3", "atom_type": "Cs"}, "1": {"label": "*4", "atom_type": "H0"}, "4": {"label": "*1", "atom_type": "Cs"}, "5": {"label": "*0", "atom_type": "N3d"}, "7": {"label": "*2", "atom_type": "H0"}}

>  <type>  (5) 
unop_1

>  <geom_source>  (5) 
Heuristics

$$$$

     RDKit          3D

 12 10  0  0  0  0  0  0  0  0999 V2000
   -1.5476    0.6898    1.7812 C   0  0  0  0  0  0  0  0  0  0  0  0
   -1.8134   -0.3109    2.1183 H   0  0  0  0  0  0  0  0  0  0  0  0
   -2.4522    1.2374    1.5210 H   0  0  0  0  0  0  0  0  0  0  0  0
   -0.8729    1.4819    2.1023 H   0  0  0  0  0  0  0  0  0  0  0  0
    0.5559    0.5580    0.2304 C   0  0  0  0  0  0  0  0  0  0  0  0
    0.5559   -0.7156   -0.4503 N   0  0  0  0  0  0  0  0  0  0  0  0
    0.5559   -0.7156   -1.7067 C   0  0  0  0  0  3  0  0  0  0  0  0
   -0.4972    0.6240    1.0068 H   0  0  0  0  0  0  0  0  0  0  0  0
    1.4335    0.6130    0.8774 H   0  0  0  0  0  0  0  0  0  0  0  0
    0.5559    1.4211   -0.4494 H   0  0  0  0  0  0  0  0  0  0  0  0
    0.5559   -1.6640   -2.2405 H   0  0  0  0  0  0  0  0  0  0  0  0
    0.5559    0.2028   -2.3093 H   0  0  0  0  0  0  0  0  0  0  0  0
  1  2  1  0
  1  3  1  0
  1  4  1  0
  1  8  1  0
  5  6  2  3
  5  9  1  0
  5 10  1  0
  6  7  1  0
  7 11  1  0
  7 12  1  0
M  RAD  1   7   2
M  END
>  <reaction>  (6) 
rxn_704

>  <mol_properties>  (6) 
{"0": {"label": "*3", "atom_type": "Cs"}, "1": {"label": "*4", "atom_type": "H0"}, "4": {"label": "*1", "atom_type": "Cs"}, "5": {"label": "*0", "atom_type": "N3d"}, "7": {"label": "*2", "atom_type": "H0"}}

>  <type>  (6) 
unop_2

>  <geom_source>  (6) 
Heuristics

$$$$

     RDKit          3D

 12 10  0  0  0  0  0  0  0  0999 V2000
   -1.5409    0.6834    1.7772 C   0  0  0  0  0  0  0  0  0  0  0  0
   -1.3173    1.3095    2.6396 H   0  0  0  0  0  0  0  0  0  0  0  0
   -2.2463   -0.0942    2.0662 H   0  0  0  0  0  0  0  0  0  0  0  0
   -1.9457    1.5464    1.2509 H   0  0  0  0  0  0  0  0  0  0  0  0
    0.5627    0.5515    0.2265 C   0  0  0  0  0  0  0  0  0  0  0  0
    0.5627   -0.7221   -0.4542 N   0  0  0  0  0  0  0  0  0  0  0  0
    0.5627   -0.7221   -1.7107 C   0  0  0  0  0  3  0  0  0  0  0  0
   -0.4904    0.6175    1.0028 H   0  0  0  0  0  0  0  0  0  0  0  0
    1.4403    0.6065    0.8734 H   0  0  0  0  0  0  0  0  0  0  0  0
    0.5627    1.4147   -0.4533 H   0  0  0  0  0  0  0  0  0  0  0  0
    0.5627   -1.6705   -2.2445 H   0  0  0  0  0  0  0  0  0  0  0  0
    0.5627    0.1964   -2.3133 H   0  0  0  0  0  0  0  0  0  0  0  0
  1  2  1  0
  1  3  1  0
  1  4  1  0
  1  8  1  0
  5  6  2  3
  5  9  1  0
  5 10  1  0
  6  7  1  0
  7 11  1  0
  7 12  1  0
M  RAD  1   7   2
M  END
>  <reaction>  (7) 
rxn_704

>  <mol_properties>  (7) 
{"0": {"label": "*3", "atom_type": "Cs"}, "1": {"label": "*4", "atom_type": "H0"}, "4": {"label": "*1", "atom_type": "Cs"}, "5": {"label": "*0", "atom_type": "N3d"}, "7": {"label": "*2", "atom_type": "H0"}}

>  <type>  (7) 
unop_3

>  <geom_source>  (7) 
Heuristics

$$$$

     RDKit          3D

 12 10  0  0  0  0  0  0  0  0999 V2000
   -1.5482    0.6858    1.7801 C   0  0  0  0  0  0  0  0  0  0  0  0
   -2.4500    0.5906    1.1773 H   0  0  0  0  0  0  0  0  0  0  0  0
   -1.2559    1.7334    1.8330 H   0  0  0  0  0  0  0  0  0  0  0  0
   -1.4039    0.3065    2.7906 H   0  0  0  0  0  0  0  0  0  0  0  0
    0.5554    0.5539    0.2294 C   0  0  0  0  0  0  0  0  0  0  0  0
    0.5554   -0.7196   -0.4514 N   0  0  0  0  0  0  0  0  0  0  0  0
    0.5554   -0.7196   -1.7078 C   0  0  0  0  0  3  0  0  0  0  0  0
   -0.4977    0.6199    1.0057 H   0  0  0  0  0  0  0  0  0  0  0  0
    1.4329    0.6089    0.8763 H   0  0  0  0  0  0  0  0  0  0  0  0
    0.5554    1.4171   -0.4505 H   0  0  0  0  0  0  0  0  0  0  0  0
    0.5554   -1.6681   -2.2416 H   0  0  0  0  0  0  0  0  0  0  0  0
    0.5554    0.1988   -2.3104 H   0  0  0  0  0  0  0  0  0  0  0  0
  1  2  1  0
  1  3  1  0
  1  4  1  0
  1  8  1  0
  5  6  2  3
  5  9  1  0
  5 10  1  0
  6  7  1  0
  7 11  1  0
  7 12  1  0
M  RAD  1   7   2
M  END
>  <reaction>  (8) 
rxn_704

>  <mol_properties>  (8) 
{"0": {"label": "*3", "atom_type": "Cs"}, "1": {"label": "*4", "atom_type": "H0"}, "4": {"label": "*1", "atom_type": "Cs"}, "5": {"label": "*0", "atom_type": "N3d"}, "7": {"label": "*2", "atom_type": "H0"}}

>  <type>  (8) 
unop_4

>  <geom_source>  (8) 
Heuristics

$$$$

     RDKit          3D

 12 10  0  0  0  0  0  0  0  0999 V2000
   -1.5399    0.6881    1.7735 C   0  0  0  0  0  0  0  0  0  0  0  0
   -1.5493    1.6457    2.2919 H   0  0  0  0  0  0  0  0  0  0  0  0
   -1.5041   -0.1194    2.5032 H   0  0  0  0  0  0  0  0  0  0  0  0
   -2.5065    0.9787    1.3648 H   0  0  0  0  0  0  0  0  0  0  0  0
    0.5636    0.5562    0.2228 C   0  0  0  0  0  0  0  0  0  0  0  0
    0.5636   -0.7174   -0.4579 N   0  0  0  0  0  0  0  0  0  0  0  0
    0.5636   -0.7174   -1.7144 C   0  0  0  0  0  3  0  0  0  0  0  0
   -0.4895    0.6222    0.9991 H   0  0  0  0  0  0  0  0  0  0  0  0
    1.4412    0.6112    0.8697 H   0  0  0  0  0  0  0  0  0  0  0  0
    0.5636    1.4194   -0.4570 H   0  0  0  0  0  0  0  0  0  0  0  0
    0.5636   -1.6658   -2.2482 H   0  0  0  0  0  0  0  0  0  0  0  0
    0.5636    0.2011   -2.3170 H   0  0  0  0  0  0  0  0  0  0  0  0
  1  2  1  0
  1  3  1  0
  1  4  1  0
  1  8  1  0
  5  6  2  3
  5  9  1  0
  5 10  1  0
  6  7  1  0
  7 11  1  0
  7 12  1  0
M  RAD  1   7   2
M  END
>  <reaction>  (9) 
rxn_704

>  <mol_properties>  (9) 
{"0": {"label": "*3", "atom_type": "Cs"}, "1": {"label": "*4", "atom_type": "H0"}, "4": {"label": "*1", "atom_type": "Cs"}, "5": {"label": "*0", "atom_type": "N3d"}, "7": {"label": "*2", "atom_type": "H0"}}

>  <type>  (9) 
unop_5

>  <geom_source>  (9) 
Heuristics

$$$$

     RDKit          3D

 12 10  0  0  0  0  0  0  0  0999 V2000
   -1.5474    0.6846    1.7766 C   0  0  0  0  0  0  0  0  0  0  0  0
   -2.3806    1.1141    1.2224 H   0  0  0  0  0  0  0  0  0  0  0  0
   -0.8966    1.4829    2.1301 H   0  0  0  0  0  0  0  0  0  0  0  0
   -1.8728    0.0995    2.6355 H   0  0  0  0  0  0  0  0  0  0  0  0
    0.5561    0.5527    0.2259 C   0  0  0  0  0  0  0  0  0  0  0  0
    0.5561   -0.7209   -0.4548 N   0  0  0  0  0  0  0  0  0  0  0  0
    0.5561   -0.7209   -1.7112 C   0  0  0  0  0  3  0  0  0  0  0  0
   -0.4970    0.6187    1.0022 H   0  0  0  0  0  0  0  0  0  0  0  0
    1.4337    0.6077    0.8729 H   0  0  0  0  0  0  0  0  0  0  0  0
    0.5561    1.4159   -0.4539 H   0  0  0  0  0  0  0  0  0  0  0  0
    0.5561   -1.6693   -2.2451 H   0  0  0  0  0  0  0  0  0  0  0  0
    0.5561    0.1976   -2.3138 H   0  0  0  0  0  0  0  0  0  0  0  0
  1  2  1  0
  1  3  1  0
  1  4  1  0
  1  8  1  0
  5  6  2  3
  5  9  1  0
  5 10  1  0
  6  7  1  0
  7 11  1  0
  7 12  1  0
M  RAD  1   7   2
M  END
>  <reaction>  (10) 
rxn_704

>  <mol_properties>  (10) 
{"0": {"label": "*3", "atom_type": "Cs"}, "1": {"label": "*4", "atom_type": "H0"}, "4": {"label": "*1", "atom_type": "Cs"}, "5": {"label": "*0", "atom_type": "N3d"}, "7": {"label": "*2", "atom_type": "H0"}}

>  <type>  (10) 
unop_6

>  <geom_source>  (10) 
Heuristics

$$$$

     RDKit          3D

 12 10  0  0  0  0  0  0  0  0999 V2000
   -1.5470    0.6850    1.7728 C   0  0  0  0  0  0  0  0  0  0  0  0
   -2.1664    1.5290    1.4733 H   0  0  0  0  0  0  0  0  0  0  0  0
   -0.7258    1.0396    2.3939 H   0  0  0  0  0  0  0  0  0  0  0  0
   -2.2823    0.1057    2.3292 H   0  0  0  0  0  0  0  0  0  0  0  0
    0.5566    0.5531    0.2221 C   0  0  0  0  0  0  0  0  0  0  0  0
    0.5566   -0.7205   -0.4586 N   0  0  0  0  0  0  0  0  0  0  0  0
    0.5566   -0.7205   -1.7151 C   0  0  0  0  0  3  0  0  0  0  0  0
   -0.4965    0.6191    0.9984 H   0  0  0  0  0  0  0  0  0  0  0  0
    1.4341    0.6081    0.8690 H   0  0  0  0  0  0  0  0  0  0  0  0
    0.5566    1.4163   -0.4577 H   0  0  0  0  0  0  0  0  0  0  0  0
    0.5566   -1.6689   -2.2489 H   0  0  0  0  0  0  0  0  0  0  0  0
    0.5566    0.1980   -2.3176 H   0  0  0  0  0  0  0  0  0  0  0  0
  1  2  1  0
  1  3  1  0
  1  4  1  0
  1  8  1  0
  5  6  2  3
  5  9  1  0
  5 10  1  0
  6  7  1  0
  7 11  1  0
  7 12  1  0
M  RAD  1   7   2
M  END
>  <reaction>  (11) 
rxn_704

>  <mol_properties>  (11) 
{"0": {"label": "*3", "atom_type": "Cs"}, "1": {"label": "*4", "atom_type": "H0"}, "4": {"label": "*1", "atom_type": "Cs"}, "5": {"label": "*0", "atom_type": "N3d"}, "7": {"label": "*2", "atom_type": "H0"}}

>  <type>  (11) 
unop_7

>  <geom_source>  (11) 
Heuristics

$$$$

     RDKit          3D

 12 10  0  0  0  0  0  0  0  0999 V2000
   -1.5477    0.6853    1.7758 C   0  0  0  0  0  0  0  0  0  0  0  0
   -1.2981    0.2924    2.7603 H   0  0  0  0  0  0  0  0  0  0  0  0
   -2.6271    0.6542    1.6356 H   0  0  0  0  0  0  0  0  0  0  0  0
   -1.2114    1.7116    1.6369 H   0  0  0  0  0  0  0  0  0  0  0  0
    0.5559    0.5534    0.2251 C   0  0  0  0  0  0  0  0  0  0  0  0
    0.5559   -0.7202   -0.4556 N   0  0  0  0  0  0  0  0  0  0  0  0
    0.5559   -0.7202   -1.7121 C   0  0  0  0  0  3  0  0  0  0  0  0
   -0.4972    0.6194    1.0014 H   0  0  0  0  0  0  0  0  0  0  0  0
    1.4334    0.6084    0.8720 H   0  0  0  0  0  0  0  0  0  0  0  0
    0.5559    1.4166   -0.4547 H   0  0  0  0  0  0  0  0  0  0  0  0
    0.5559   -1.6686   -2.2459 H   0  0  0  0  0  0  0  0  0  0  0  0
    0.5559    0.1983   -2.3146 H   0  0  0  0  0  0  0  0  0  0  0  0
  1  2  1  0
  1  3  1  0
  1  4  1  0
  1  8  1  0
  5  6  2  3
  5  9  1  0
  5 10  1  0
  6  7  1  0
  7 11  1  0
  7 12  1  0
M  RAD  1   7   2
M  END
>  <reaction>  (12) 
rxn_704

>  <mol_properties>  (12) 
{"0": {"label": "*3", "atom_type": "Cs"}, "1": {"label": "*4", "atom_type": "H0"}, "4": {"label": "*1", "atom_type": "Cs"}, "5": {"label": "*0", "atom_type": "N3d"}, "7": {"label": "*2", "atom_type": "H0"}}

>  <type>  (12) 
unop_8

>  <geom_source>  (12) 
Heuristics

$$$$

     RDKit          3D

 12 10  0  0  0  0  0  0  0  0999 V2000
   -1.5488    0.6873    1.7827 C   0  0  0  0  0  0  0  0  0  0  0  0
   -2.3559    0.0977    1.3505 H   0  0  0  0  0  0  0  0  0  0  0  0
   -1.7244    1.7435    1.5845 H   0  0  0  0  0  0  0  0  0  0  0  0
   -0.9969    0.7088    2.7212 H   0  0  0  0  0  0  0  0  0  0  0  0
    0.5548    0.5554    0.2320 C   0  0  0  0  0  0  0  0  0  0  0  0
    0.5548   -0.7182   -0.4487 N   0  0  0  0  0  0  0  0  0  0  0  0
    0.5548   -0.7182   -1.7052 C   0  0  0  0  0  3  0  0  0  0  0  0
   -0.4983    0.6214    1.0083 H   0  0  0  0  0  0  0  0  0  0  0  0
    1.4323    0.6104    0.8789 H   0  0  0  0  0  0  0  0  0  0  0  0
    0.5548    1.4185   -0.4478 H   0  0  0  0  0  0  0  0  0  0  0  0
    0.5548   -1.6666   -2.2390 H   0  0  0  0  0  0  0  0  0  0  0  0
    0.5548    0.2002   -2.3078 H   0  0  0  0  0  0  0  0  0  0  0  0
  1  2  1  0
  1  3  1  0
  1  4  1  0
  1  8  1  0
  5  6  2  3
  5  9  1  0
  5 10  1  0
  6  7  1  0
  7 11  1  0
  7 12  1  0
M  RAD  1   7   2
M  END
>  <reaction>  (13) 
rxn_704

>  <mol_properties>  (13) 
{"0": {"label": "*3", "atom_type": "Cs"}, "1": {"label": "*4", "atom_type": "H0"}, "4": {"label": "*1", "atom_type": "Cs"}, "5": {"label": "*0", "atom_type": "N3d"}, "7": {"label": "*2", "atom_type": "H0"}}

>  <type>  (13) 
unop_9

>  <geom_source>  (13) 
Heuristics

$$$$

     RDKit          3D

 12 10  0  0  0  0  0  0  0  0999 V2000
   -1.5479    0.6886    1.7777 C   0  0  0  0  0  0  0  0  0  0  0  0
   -1.5121   -0.1189    2.5074 H   0  0  0  0  0  0  0  0  0  0  0  0
   -2.5854    0.9557    1.5824 H   0  0  0  0  0  0  0  0  0  0  0  0
   -1.0242    1.6411    1.8424 H   0  0  0  0  0  0  0  0  0  0  0  0
    0.5556    0.5567    0.2269 C   0  0  0  0  0  0  0  0  0  0  0  0
    0.5556   -0.7169   -0.4538 N   0  0  0  0  0  0  0  0  0  0  0  0
    0.5556   -0.7169   -1.7102 C   0  0  0  0  0  3  0  0  0  0  0  0
   -0.4975    0.6227    1.0033 H   0  0  0  0  0  0  0  0  0  0  0  0
    1.4332    0.6117    0.8739 H   0  0  0  0  0  0  0  0  0  0  0  0
    0.5556    1.4199   -0.4529 H   0  0  0  0  0  0  0  0  0  0  0  0
    0.5556   -1.6653   -2.2440 H   0  0  0  0  0  0  0  0  0  0  0  0
    0.5556    0.2016   -2.3128 H   0  0  0  0  0  0  0  0  0  0  0  0
  1  2  1  0
  1  3  1  0
  1  4  1  0
  1  8  1  0
  5  6  2  3
  5  9  1  0
  5 10  1  0
  6  7  1  0
  7 11  1  0
  7 12  1  0
M  RAD  1   7   2
M  END
>  <reaction>  (14) 
rxn_704

>  <mol_properties>  (14) 
{"0": {"label": "*3", "atom_type": "Cs"}, "1": {"label": "*4", "atom_type": "H0"}, "4": {"label": "*1", "atom_type": "Cs"}, "5": {"label": "*0", "atom_type": "N3d"}, "7": {"label": "*2", "atom_type": "H0"}}

>  <type>  (14) 
unop_10

>  <geom_source>  (14) 
Heuristics

$$$$

     RDKit          3D

 12 10  0  0  0  0  0  0  0  0999 V2000
   -1.5448    0.6877    1.7704 C   0  0  0  0  0  0  0  0  0  0  0  0
   -1.8626    1.7250    1.8636 H   0  0  0  0  0  0  0  0  0  0  0  0
   -0.8570    0.4448    2.5790 H   0  0  0  0  0  0  0  0  0  0  0  0
   -2.5762    0.3576    1.8838 H   0  0  0  0  0  0  0  0  0  0  0  0
    0.5588    0.5558    0.2197 C   0  0  0  0  0  0  0  0  0  0  0  0
    0.5588   -0.7178   -0.4610 N   0  0  0  0  0  0  0  0  0  0  0  0
    0.5588   -0.7178   -1.7174 C   0  0  0  0  0  3  0  0  0  0  0  0
   -0.4943    0.6218    0.9961 H   0  0  0  0  0  0  0  0  0  0  0  0
    1.4363    0.6108    0.8667 H   0  0  0  0  0  0  0  0  0  0  0  0
    0.5588    1.4189   -0.4601 H   0  0  0  0  0  0  0  0  0  0  0  0
    0.5588   -1.6662   -2.2513 H   0  0  0  0  0  0  0  0  0  0  0  0
    0.5588    0.2007   -2.3200 H   0  0  0  0  0  0  0  0  0  0  0  0
  1  2  1  0
  1  3  1  0
  1  4  1  0
  1  8  1  0
  5  6  2  3
  5  9  1  0
  5 10  1  0
  6  7  1  0
  7 11  1  0
  7 12  1  0
M  RAD  1   7   2
M  END
>  <reaction>  (15) 
rxn_704

>  <mol_properties>  (15) 
{"0": {"label": "*3", "atom_type": "Cs"}, "1": {"label": "*4", "atom_type": "H0"}, "4": {"label": "*1", "atom_type": "Cs"}, "5": {"label": "*0", "atom_type": "N3d"}, "7": {"label": "*2", "atom_type": "H0"}}

>  <type>  (15) 
unop_11

>  <geom_source>  (15) 
Heuristics

$$$$

     RDKit          3D

 12 10  0  0  0  0  0  0  0  0999 V2000
   -1.5482    0.6888    1.7835 C   0  0  0  0  0  0  0  0  0  0  0  0
   -2.1225   -0.2321    1.6953 H   0  0  0  0  0  0  0  0  0  0  0  0
   -2.1676    1.5329    1.4840 H   0  0  0  0  0  0  0  0  0  0  0  0
   -0.8174    1.1626    2.4371 H   0  0  0  0  0  0  0  0  0  0  0  0
    0.5553    0.5570    0.2327 C   0  0  0  0  0  0  0  0  0  0  0  0
    0.5553   -0.7166   -0.4480 N   0  0  0  0  0  0  0  0  0  0  0  0
    0.5553   -0.7166   -1.7044 C   0  0  0  0  0  3  0  0  0  0  0  0
   -0.4977    0.6230    1.0091 H   0  0  0  0  0  0  0  0  0  0  0  0
    1.4329    0.6120    0.8797 H   0  0  0  0  0  0  0  0  0  0  0  0
    0.5553    1.4201   -0.4471 H   0  0  0  0  0  0  0  0  0  0  0  0
    0.5553   -1.6650   -2.2383 H   0  0  0  0  0  0  0  0  0  0  0  0
    0.5553    0.2018   -2.3070 H   0  0  0  0  0  0  0  0  0  0  0  0
  1  2  1  0
  1  3  1  0
  1  4  1  0
  1  8  1  0
  5  6  2  3
  5  9  1  0
  5 10  1  0
  6  7  1  0
  7 11  1  0
  7 12  1  0
M  RAD  1   7   2
M  END
>  <reaction>  (16) 
rxn_704

>  <mol_properties>  (16) 
{"0": {"label": "*3", "atom_type": "Cs"}, "1": {"label": "*4", "atom_type": "H0"}, "4": {"label": "*1", "atom_type": "Cs"}, "5": {"label": "*0", "atom_type": "N3d"}, "7": {"label": "*2", "atom_type": "H0"}}

>  <type>  (16) 
unop_12

>  <geom_source>  (16) 
Heuristics

$$$$

     RDKit          3D

 12 10  0  0  0  0  0  0  0  0999 V2000
    1.3374    0.7118   -0.3688 N   0  0  0  0  0  0  0  0  0  0  0  0
   -1.9386   -0.1031    0.4187 C   0  0  0  0  0  0  0  0  0  0  0  0
    0.3319   -0.1977   -0.8553 C   0  0  0  0  0  0  0  0  0  0  0  0
    2.2292    0.3342    0.4745 C   0  0  0  0  0  3  0  0  0  0  0  0
   -2.0534   -0.5605    1.4229 H   0  0  0  0  0  0  0  0  0  0  0  0
   -1.9962    1.0013    0.5067 H   0  0  0  0  0  0  0  0  0  0  0  0
   -2.7496   -0.4638   -0.2468 H   0  0  0  0  0  0  0  0  0  0  0  0
   -0.8049   -0.4331   -0.0732 H   0  0  0  0  0  0  0  0  0  0  0  0
    2.9733    1.0422    0.8223 H   0  0  0  0  0  0  0  0  0  0  0  0
    2.2529   -0.6859    0.8492 H   0  0  0  0  0  0  0  0  0  0  0  0
    0.8063   -1.0015   -1.4581 H   0  0  0  0  0  0  0  0  0  0  0  0
   -0.3883    0.3560   -1.4921 H   0  0  0  0  0  0  0  0  0  0  0  0
  1  3  2  3
  1  4  1  0
  2  5  1  0
  2  6  1  0
  2  7  1  0
  2  8  1  0
  3 11  1  0
  3 12  1  0
  4  9  1  0
  4 10  1  0
M  RAD  1   4   2
M  END
>  <reaction>  (17) 
rxn_704

>  <mol_properties>  (17) 
{"0": {"label": "*3", "atom_type": "Cs"}, "1": {"label": "*4", "atom_type": "H0"}, "4": {"label": "*1", "atom_type": "Cs"}, "5": {"label": "*0", "atom_type": "N3d"}, "7": {"label": "*2", "atom_type": "H0"}}

>  <type>  (17) 
unop_13

>  <geom_source>  (17) 
AutoTST

$$$$
