
     RDKit          3D

  9  8  0  0  0  0  0  0  0  0999 V2000
    1.1303   -0.2933   -0.7510 C   0  0  0  0  0  0  0  0  0  0  0  0
    0.2866    0.4560   -0.0588 C   0  0  0  0  0  0  0  0  0  0  0  0
   -0.9719   -0.0331    0.5823 C   0  0  0  0  0  0  0  0  0  0  0  0
    2.0274    0.1230   -1.1916 H   0  0  0  0  0  0  0  0  0  0  0  0
    0.9532   -1.3530   -0.9023 H   0  0  0  0  0  0  0  0  0  0  0  0
    0.5065    1.5132    0.0659 H   0  0  0  0  0  0  0  0  0  0  0  0
   -0.9526    0.1426    1.6610 H   0  0  0  0  0  0  0  0  0  0  0  0
   -1.1182   -1.1002    0.4106 H   0  0  0  0  0  0  0  0  0  0  0  0
   -1.8412    0.5010    0.1901 H   0  0  0  0  0  0  0  0  0  0  0  0
  1  2  2  3
  1  4  1  0
  1  5  1  0
  2  3  1  0
  2  6  1  0
  3  7  1  0
  3  8  1  0
  3  9  1  0
M  END
>  <reaction>  (1) 
rxn_1003

>  <mol_properties>  (1) 
{"2": {"label": "donator", "atom_type": "Cs"}, "6": {"label": "d_hydrogen", "atom_type": "H0"}}

>  <type>  (1) 
r1h

$$$$

     RDKit          3D

 15 14  0  0  0  0  0  0  0  0999 V2000
    2.4381    0.5770   -0.2356 C   0  0  0  0  0  0  0  0  0  0  0  0
    1.4430   -0.3367   -0.1409 C   0  0  0  0  0  0  0  0  0  0  0  0
    0.0521   -0.0957   -0.0045 C   0  0  0  0  0  3  0  0  0  0  0  0
   -0.5167    1.2867    0.0548 C   0  0  0  0  0  0  0  0  0  0  0  0
   -0.8226   -1.2147    0.0778 C   0  0  0  0  0  0  0  0  0  0  0  0
   -2.1666   -1.1669    0.2092 C   0  0  0  0  0  0  0  0  0  0  0  0
    3.4666    0.2585   -0.3369 H   0  0  0  0  0  0  0  0  0  0  0  0
    2.2594    1.6438   -0.2152 H   0  0  0  0  0  0  0  0  0  0  0  0
    1.7306   -1.3845   -0.1719 H   0  0  0  0  0  0  0  0  0  0  0  0
   -1.2300    1.4469   -0.7583 H   0  0  0  0  0  0  0  0  0  0  0  0
    0.2481    2.0557   -0.0178 H   0  0  0  0  0  0  0  0  0  0  0  0
   -1.0592    1.4421    0.9914 H   0  0  0  0  0  0  0  0  0  0  0  0
   -0.3519   -2.1929    0.0292 H   0  0  0  0  0  0  0  0  0  0  0  0
   -2.7080   -0.2310    0.2646 H   0  0  0  0  0  0  0  0  0  0  0  0
   -2.7513   -2.0751    0.2638 H   0  0  0  0  0  0  0  0  0  0  0  0
  1  2  2  3
  1  7  1  0
  1  8  1  0
  2  3  1  0
  2  9  1  0
  3  4  1  0
  3  5  1  0
  4 10  1  0
  4 11  1  0
  4 12  1  0
  5  6  2  3
  5 13  1  0
  6 14  1  0
  6 15  1  0
M  RAD  1   3   2
M  END
>  <reaction>  (2) 
rxn_1003

>  <mol_properties>  (2) 
{"2": {"label": "acceptor", "atom_type": "Cs"}}

>  <type>  (2) 
r2

$$$$

     RDKit          3D

 16 15  0  0  0  0  0  0  0  0999 V2000
    1.7961   -0.3807    1.6176 C   0  0  0  0  0  0  0  0  0  0  0  0
    0.8562   -0.8708    0.8256 C   0  0  0  0  0  0  0  0  0  0  0  0
    0.0895   -0.0826   -0.2048 C   0  0  0  0  0  0  0  0  0  0  0  0
   -1.4061   -0.1111    0.0982 C   0  0  0  0  0  0  0  0  0  0  0  0
    0.4476   -0.5902   -1.5797 C   0  0  0  0  0  0  0  0  0  0  0  0
   -0.3793   -1.1113   -2.4728 C   0  0  0  0  0  0  0  0  0  0  0  0
    2.3110   -1.0032    2.3386 H   0  0  0  0  0  0  0  0  0  0  0  0
    2.0846    0.6643    1.5737 H   0  0  0  0  0  0  0  0  0  0  0  0
    0.5921   -1.9241    0.8925 H   0  0  0  0  0  0  0  0  0  0  0  0
    0.4358    0.9557   -0.1462 H   0  0  0  0  0  0  0  0  0  0  0  0
   -1.5968    0.3080    1.0865 H   0  0  0  0  0  0  0  0  0  0  0  0
   -1.9674    0.4693   -0.6359 H   0  0  0  0  0  0  0  0  0  0  0  0
   -1.7902   -1.1338    0.0883 H   0  0  0  0  0  0  0  0  0  0  0  0
    1.5049   -0.5197   -1.8214 H   0  0  0  0  0  0  0  0  0  0  0  0
   -1.4421   -1.2131   -2.2889 H   0  0  0  0  0  0  0  0  0  0  0  0
   -0.0162   -1.4558   -3.4328 H   0  0  0  0  0  0  0  0  0  0  0  0
  1  2  2  3
  1  7  1  0
  1  8  1  0
  2  3  1  0
  2  9  1  0
  3  4  1  0
  3  5  1  0
  3 10  1  0
  4 11  1  0
  4 12  1  0
  4 13  1  0
  5  6  2  3
  5 14  1  0
  6 15  1  0
  6 16  1  0
M  END
>  <reaction>  (3) 
rxn_1003

>  <mol_properties>  (3) 
{"2": {"label": "acceptor", "atom_type": "Cs"}, "15": {"label": "a_hydrogen", "atom_type": "H0"}}

>  <type>  (3) 
r2h

$$$$

     RDKit          3D

 24 22  0  0  0  0  0  0  0  0999 V2000
   -0.0172    2.1272    2.3853 C   0  0  0  0  0  0  0  0  0  0  0  0
   -0.3086    1.8435    1.1191 C   0  0  0  0  0  0  0  0  0  0  0  0
   -0.4725    0.5082    0.5073 C   0  0  0  0  0  0  0  0  0  0  0  0
   -1.6358    0.4024   -0.4562 C   0  0  0  0  0  0  0  0  0  0  0  0
   -0.2052   -0.6615    1.3568 C   0  0  0  0  0  0  0  0  0  0  0  0
   -0.7769   -1.8584    1.2476 C   0  0  0  0  0  0  0  0  0  0  0  0
    0.1017    3.1533    2.7086 H   0  0  0  0  0  0  0  0  0  0  0  0
    0.0957    1.3611    3.1423 H   0  0  0  0  0  0  0  0  0  0  0  0
   -0.4349    2.6720    0.4255 H   0  0  0  0  0  0  0  0  0  0  0  0
   -1.5182   -0.4559   -1.1199 H   0  0  0  0  0  0  0  0  0  0  0  0
   -1.7016    1.2986   -1.0751 H   0  0  0  0  0  0  0  0  0  0  0  0
   -2.5817    0.2933    0.0814 H   0  0  0  0  0  0  0  0  0  0  0  0
    0.5826   -0.5357    2.0939 H   0  0  0  0  0  0  0  0  0  0  0  0
   -1.5640   -2.0612    0.5321 H   0  0  0  0  0  0  0  0  0  0  0  0
   -0.4752   -2.6781    1.8869 H   0  0  0  0  0  0  0  0  0  0  0  0
    0.6958   -1.4311   -2.8662 C   0  0  0  0  0  0  0  0  0  0  0  0
    1.4058   -1.0511   -1.7910 C   0  0  0  0  0  0  0  0  0  0  0  0
    1.5213    0.3021   -1.3174 C   0  0  0  0  0  3  0  0  0  0  0  0
    0.6169   -2.4714   -3.1521 H   0  0  0  0  0  0  0  0  0  0  0  0
    0.1866   -0.7042   -3.4896 H   0  0  0  0  0  0  0  0  0  0  0  0
    1.8947   -1.8183   -1.1982 H   0  0  0  0  0  0  0  0  0  0  0  0
    0.5333    0.4463   -0.3236 H   0  0  0  0  0  0  0  0  0  0  0  0
    1.2230    1.0905   -2.0043 H   0  0  0  0  0  0  0  0  0  0  0  0
    2.3856    0.5474   -0.7075 H   0  0  0  0  0  0  0  0  0  0  0  0
  1  2  2  3
  1  7  1  0
  1  8  1  0
  2  3  1  0
  2  9  1  0
  3  4  1  0
  3  5  1  0
  3 22  1  0
  4 10  1  0
  4 11  1  0
  4 12  1  0
  5  6  2  3
  5 13  1  0
  6 14  1  0
  6 15  1  0
 16 17  2  3
 16 19  1  0
 16 20  1  0
 17 18  1  0
 17 21  1  0
 18 23  1  0
 18 24  1  0
M  RAD  1  18   2
M  END
>  <reaction>  (4) 
rxn_1003

>  <mol_properties>  (4) 
{"1": {"label": "*0", "atom_type": "Cd"}, "2": {"label": "*1", "atom_type": "Cs"}, "16": {"label": "*4", "atom_type": "Cd"}, "17": {"label": "*3", "atom_type": "Cs"}, "21": {"label": "*2", "atom_type": "H0"}}

>  <type>  (4) 
ts

$$$$

     RDKit          3D

 24 22  0  0  0  0  0  0  0  0999 V2000
    1.0074   -0.4238    2.5122 C   0  0  0  0  0  0  0  0  0  0  0  0
   -0.0228    0.2696    2.0553 C   0  0  0  0  0  0  0  0  0  0  0  0
   -0.5192    0.2538    0.6327 C   0  0  0  0  0  3  0  0  0  0  0  0
   -0.4533    1.6517    0.0235 C   0  0  0  0  0  0  0  0  0  0  0  0
   -1.8936   -0.3675    0.5975 C   0  0  0  0  0  0  0  0  0  0  0  0
   -3.0116    0.2039    0.1776 C   0  0  0  0  0  0  0  0  0  0  0  0
    1.3129   -0.3680    3.5495 H   0  0  0  0  0  0  0  0  0  0  0  0
    1.5847   -1.0736    1.8628 H   0  0  0  0  0  0  0  0  0  0  0  0
   -0.5829    0.9101    2.7334 H   0  0  0  0  0  0  0  0  0  0  0  0
   -0.7982    1.6463   -1.0118 H   0  0  0  0  0  0  0  0  0  0  0  0
    0.5722    2.0213    0.0423 H   0  0  0  0  0  0  0  0  0  0  0  0
   -1.0732    2.3551    0.5843 H   0  0  0  0  0  0  0  0  0  0  0  0
   -1.9348   -1.3845    0.9788 H   0  0  0  0  0  0  0  0  0  0  0  0
   -3.0360    1.2159   -0.2083 H   0  0  0  0  0  0  0  0  0  0  0  0
   -3.9531   -0.3301    0.2032 H   0  0  0  0  0  0  0  0  0  0  0  0
    1.5902   -1.0095   -3.1167 C   0  0  0  0  0  0  0  0  0  0  0  0
    1.5902   -1.0095   -1.7929 C   0  0  0  0  0  0  0  0  0  0  0  0
    1.5902    0.2127   -0.9324 C   0  0  0  0  0  0  0  0  0  0  0  0
    1.5902   -1.9322   -3.6832 H   0  0  0  0  0  0  0  0  0  0  0  0
    1.5902   -0.0839   -3.6827 H   0  0  0  0  0  0  0  0  0  0  0  0
    1.5902   -1.9621   -1.2694 H   0  0  0  0  0  0  0  0  0  0  0  0
    0.5370    0.2333   -0.1510 H   0  0  0  0  0  0  0  0  0  0  0  0
    1.5902    1.1232   -1.5330 H   0  0  0  0  0  0  0  0  0  0  0  0
    2.4679    0.2298   -0.2812 H   0  0  0  0  0  0  0  0  0  0  0  0
  1  2  2  3
  1  7  1  0
  1  8  1  0
  2  3  1  0
  2  9  1  0
  3  4  1  0
  3  5  1  0
  4 10  1  0
  4 11  1  0
  4 12  1  0
  5  6  2  3
  5 13  1  0
  6 14  1  0
  6 15  1  0
 16 17  2  3
 16 19  1  0
 16 20  1  0
 17 18  1  0
 17 21  1  0
 18 22  1  0
 18 23  1  0
 18 24  1  0
M  RAD  1   3   2
M  END
>  <reaction>  (5) 
rxn_1003

>  <mol_properties>  (5) 
{"1": {"label": "*0", "atom_type": "Cd"}, "2": {"label": "*1", "atom_type": "Cs"}, "16": {"label": "*4", "atom_type": "Cd"}, "17": {"label": "*3", "atom_type": "Cs"}, "21": {"label": "*2", "atom_type": "H0"}}

>  <type>  (5) 
unop_1

>  <geom_source>  (5) 
Heuristics

$$$$

     RDKit          3D

 24 22  0  0  0  0  0  0  0  0999 V2000
   -0.4463   -2.1225    0.3145 C   0  0  0  0  0  0  0  0  0  0  0  0
   -0.8132   -1.0772    1.0381 C   0  0  0  0  0  0  0  0  0  0  0  0
   -0.4396    0.3540    0.7500 C   0  0  0  0  0  3  0  0  0  0  0  0
    0.3444    0.9512    1.9153 C   0  0  0  0  0  0  0  0  0  0  0  0
   -1.6851    1.1248    0.3882 C   0  0  0  0  0  0  0  0  0  0  0  0
   -2.1765    2.1793    1.0202 C   0  0  0  0  0  0  0  0  0  0  0  0
   -0.7505   -3.1280    0.5765 H   0  0  0  0  0  0  0  0  0  0  0  0
    0.1744   -2.0096   -0.5682 H   0  0  0  0  0  0  0  0  0  0  0  0
   -1.4386   -1.2240    1.9161 H   0  0  0  0  0  0  0  0  0  0  0  0
    0.6310    1.9836    1.7087 H   0  0  0  0  0  0  0  0  0  0  0  0
    1.2507    0.3720    2.0939 H   0  0  0  0  0  0  0  0  0  0  0  0
   -0.2466    0.9402    2.8341 H   0  0  0  0  0  0  0  0  0  0  0  0
   -2.2167    0.7360   -0.4764 H   0  0  0  0  0  0  0  0  0  0  0  0
   -1.6957    2.6098    1.8904 H   0  0  0  0  0  0  0  0  0  0  0  0
   -3.0878    2.6560    0.6818 H   0  0  0  0  0  0  0  0  0  0  0  0
    1.6698   -0.9093   -2.9994 C   0  0  0  0  0  0  0  0  0  0  0  0
    1.6698   -0.9093   -1.6756 C   0  0  0  0  0  0  0  0  0  0  0  0
    1.6698    0.3128   -0.8151 C   0  0  0  0  0  0  0  0  0  0  0  0
    1.6698   -1.8321   -3.5659 H   0  0  0  0  0  0  0  0  0  0  0  0
    1.6698    0.0163   -3.5654 H   0  0  0  0  0  0  0  0  0  0  0  0
    1.6698   -1.8620   -1.1521 H   0  0  0  0  0  0  0  0  0  0  0  0
    0.6166    0.3334   -0.0337 H   0  0  0  0  0  0  0  0  0  0  0  0
    1.6698    1.2233   -1.4157 H   0  0  0  0  0  0  0  0  0  0  0  0
    2.5475    0.3300   -0.1639 H   0  0  0  0  0  0  0  0  0  0  0  0
  1  2  2  3
  1  7  1  0
  1  8  1  0
  2  3  1  0
  2  9  1  0
  3  4  1  0
  3  5  1  0
  4 10  1  0
  4 11  1  0
  4 12  1  0
  5  6  2  3
  5 13  1  0
  6 14  1  0
  6 15  1  0
 16 17  2  3
 16 19  1  0
 16 20  1  0
 17 18  1  0
 17 21  1  0
 18 22  1  0
 18 23  1  0
 18 24  1  0
M  RAD  1   3   2
M  END
>  <reaction>  (6) 
rxn_1003

>  <mol_properties>  (6) 
{"1": {"label": "*0", "atom_type": "Cd"}, "2": {"label": "*1", "atom_type": "Cs"}, "16": {"label": "*4", "atom_type": "Cd"}, "17": {"label": "*3", "atom_type": "Cs"}, "21": {"label": "*2", "atom_type": "H0"}}

>  <type>  (6) 
unop_2

>  <geom_source>  (6) 
Heuristics

$$$$

     RDKit          3D

 24 22  0  0  0  0  0  0  0  0999 V2000
    1.0875    1.0589    2.3895 C   0  0  0  0  0  0  0  0  0  0  0  0
   -0.1348    1.0001    1.8862 C   0  0  0  0  0  0  0  0  0  0  0  0
   -0.5229    0.2664    0.6285 C   0  0  0  0  0  3  0  0  0  0  0  0
   -1.1119    1.2305   -0.3977 C   0  0  0  0  0  0  0  0  0  0  0  0
   -1.4350   -0.8801    0.9887 C   0  0  0  0  0  0  0  0  0  0  0  0
   -2.6777   -1.0660    0.5714 C   0  0  0  0  0  0  0  0  0  0  0  0
    1.2997    1.6045    3.3003 H   0  0  0  0  0  0  0  0  0  0  0  0
    1.9227    0.5626    1.9064 H   0  0  0  0  0  0  0  0  0  0  0  0
   -0.9513    1.5065    2.3966 H   0  0  0  0  0  0  0  0  0  0  0  0
   -1.3827    0.7090   -1.3172 H   0  0  0  0  0  0  0  0  0  0  0  0
   -0.3863    2.0063   -0.6434 H   0  0  0  0  0  0  0  0  0  0  0  0
   -2.0075    1.7205   -0.0087 H   0  0  0  0  0  0  0  0  0  0  0  0
   -0.9988   -1.5999    1.6764 H   0  0  0  0  0  0  0  0  0  0  0  0
   -3.1691   -0.3816   -0.1096 H   0  0  0  0  0  0  0  0  0  0  0  0
   -3.2524   -1.9229    0.8993 H   0  0  0  0  0  0  0  0  0  0  0  0
    1.5866   -0.9969   -3.1209 C   0  0  0  0  0  0  0  0  0  0  0  0
    1.5866   -0.9969   -1.7971 C   0  0  0  0  0  0  0  0  0  0  0  0
    1.5866    0.2253   -0.9366 C   0  0  0  0  0  0  0  0  0  0  0  0
    1.5866   -1.9196   -3.6873 H   0  0  0  0  0  0  0  0  0  0  0  0
    1.5866   -0.0713   -3.6869 H   0  0  0  0  0  0  0  0  0  0  0  0
    1.5866   -1.9495   -1.2736 H   0  0  0  0  0  0  0  0  0  0  0  0
    0.5333    0.2458   -0.1551 H   0  0  0  0  0  0  0  0  0  0  0  0
    1.5866    1.1357   -1.5372 H   0  0  0  0  0  0  0  0  0  0  0  0
    2.4643    0.2424   -0.2854 H   0  0  0  0  0  0  0  0  0  0  0  0
  1  2  2  3
  1  7  1  0
  1  8  1  0
  2  3  1  0
  2  9  1  0
  3  4  1  0
  3  5  1  0
  4 10  1  0
  4 11  1  0
  4 12  1  0
  5  6  2  3
  5 13  1  0
  6 14  1  0
  6 15  1  0
 16 17  2  3
 16 19  1  0
 16 20  1  0
 17 18  1  0
 17 21  1  0
 18 22  1  0
 18 23  1  0
 18 24  1  0
M  RAD  1   3   2
M  END
>  <reaction>  (7) 
rxn_1003

>  <mol_properties>  (7) 
{"1": {"label": "*0", "atom_type": "Cd"}, "2": {"label": "*1", "atom_type": "Cs"}, "16": {"label": "*4", "atom_type": "Cd"}, "17": {"label": "*3", "atom_type": "Cs"}, "21": {"label": "*2", "atom_type": "H0"}}

>  <type>  (7) 
unop_3

>  <geom_source>  (7) 
Heuristics

$$$$

     RDKit          3D

 24 22  0  0  0  0  0  0  0  0999 V2000
   -1.8122   -0.5210   -1.2081 C   0  0  0  0  0  0  0  0  0  0  0  0
   -1.7416    0.0357   -0.0098 C   0  0  0  0  0  0  0  0  0  0  0  0
   -0.5237    0.0374    0.8776 C   0  0  0  0  0  3  0  0  0  0  0  0
   -0.8218   -0.6584    2.2029 C   0  0  0  0  0  0  0  0  0  0  0  0
   -0.0244    1.4534    1.0258 C   0  0  0  0  0  0  0  0  0  0  0  0
    0.0928    2.1391    2.1523 C   0  0  0  0  0  0  0  0  0  0  0  0
   -2.7204   -0.4858   -1.7967 H   0  0  0  0  0  0  0  0  0  0  0  0
   -0.9618   -1.0343   -1.6445 H   0  0  0  0  0  0  0  0  0  0  0  0
   -2.6117    0.5457    0.3983 H   0  0  0  0  0  0  0  0  0  0  0  0
    0.0596   -0.6738    2.8462 H   0  0  0  0  0  0  0  0  0  0  0  0
   -1.1351   -1.6873    2.0244 H   0  0  0  0  0  0  0  0  0  0  0  0
   -1.6263   -0.1518    2.7412 H   0  0  0  0  0  0  0  0  0  0  0  0
    0.2426    1.9341    0.0883 H   0  0  0  0  0  0  0  0  0  0  0  0
   -0.1621    1.7171    3.1170 H   0  0  0  0  0  0  0  0  0  0  0  0
    0.4554    3.1592    2.1476 H   0  0  0  0  0  0  0  0  0  0  0  0
    1.5857   -1.2259   -2.8717 C   0  0  0  0  0  0  0  0  0  0  0  0
    1.5857   -1.2259   -1.5480 C   0  0  0  0  0  0  0  0  0  0  0  0
    1.5857   -0.0037   -0.6875 C   0  0  0  0  0  0  0  0  0  0  0  0
    1.5857   -2.1486   -3.4382 H   0  0  0  0  0  0  0  0  0  0  0  0
    1.5857   -0.3003   -3.4377 H   0  0  0  0  0  0  0  0  0  0  0  0
    1.5857   -2.1785   -1.0245 H   0  0  0  0  0  0  0  0  0  0  0  0
    0.5325    0.0168    0.0940 H   0  0  0  0  0  0  0  0  0  0  0  0
    1.5857    0.9068   -1.2881 H   0  0  0  0  0  0  0  0  0  0  0  0
    2.4634    0.0134   -0.0363 H   0  0  0  0  0  0  0  0  0  0  0  0
  1  2  2  3
  1  7  1  0
  1  8  1  0
  2  3  1  0
  2  9  1  0
  3  4  1  0
  3  5  1  0
  4 10  1  0
  4 11  1  0
  4 12  1  0
  5  6  2  3
  5 13  1  0
  6 14  1  0
  6 15  1  0
 16 17  2  3
 16 19  1  0
 16 20  1  0
 17 18  1  0
 17 21  1  0
 18 22  1  0
 18 23  1  0
 18 24  1  0
M  RAD  1   3   2
M  END
>  <reaction>  (8) 
rxn_1003

>  <mol_properties>  (8) 
{"1": {"label": "*0", "atom_type": "Cd"}, "2": {"label": "*1", "atom_type": "Cs"}, "16": {"label": "*4", "atom_type": "Cd"}, "17": {"label": "*3", "atom_type": "Cs"}, "21": {"label": "*2", "atom_type": "H0"}}

>  <type>  (8) 
unop_4

>  <geom_source>  (8) 
Heuristics

$$$$

     RDKit          3D

 24 22  0  0  0  0  0  0  0  0999 V2000
    0.4524    2.4177    1.3587 C   0  0  0  0  0  0  0  0  0  0  0  0
   -0.5303    1.5328    1.4064 C   0  0  0  0  0  0  0  0  0  0  0  0
   -0.6093    0.2759    0.5789 C   0  0  0  0  0  3  0  0  0  0  0  0
   -1.8600    0.2844   -0.2957 C   0  0  0  0  0  0  0  0  0  0  0  0
   -0.5055   -0.9215    1.4909 C   0  0  0  0  0  0  0  0  0  0  0  0
   -1.4067   -1.8785    1.6488 C   0  0  0  0  0  0  0  0  0  0  0  0
    0.4488    3.3027    1.9825 H   0  0  0  0  0  0  0  0  0  0  0  0
    1.2978    2.2888    0.6911 H   0  0  0  0  0  0  0  0  0  0  0  0
   -1.3627    1.6900    2.0891 H   0  0  0  0  0  0  0  0  0  0  0  0
   -1.9175   -0.6166   -0.9088 H   0  0  0  0  0  0  0  0  0  0  0  0
   -1.8491    1.1506   -0.9578 H   0  0  0  0  0  0  0  0  0  0  0  0
   -2.7656    0.3394    0.3129 H   0  0  0  0  0  0  0  0  0  0  0  0
    0.4102   -0.9610    2.0751 H   0  0  0  0  0  0  0  0  0  0  0  0
   -2.3404   -1.8919    1.0996 H   0  0  0  0  0  0  0  0  0  0  0  0
   -1.2369   -2.6940    2.3404 H   0  0  0  0  0  0  0  0  0  0  0  0
    1.5002   -0.9874   -3.1704 C   0  0  0  0  0  0  0  0  0  0  0  0
    1.5002   -0.9874   -1.8467 C   0  0  0  0  0  0  0  0  0  0  0  0
    1.5002    0.2348   -0.9862 C   0  0  0  0  0  0  0  0  0  0  0  0
    1.5002   -1.9102   -3.7369 H   0  0  0  0  0  0  0  0  0  0  0  0
    1.5002   -0.0618   -3.7364 H   0  0  0  0  0  0  0  0  0  0  0  0
    1.5002   -1.9401   -1.3232 H   0  0  0  0  0  0  0  0  0  0  0  0
    0.4469    0.2553   -0.2047 H   0  0  0  0  0  0  0  0  0  0  0  0
    1.5002    1.1452   -1.5868 H   0  0  0  0  0  0  0  0  0  0  0  0
    2.3779    0.2519   -0.3350 H   0  0  0  0  0  0  0  0  0  0  0  0
  1  2  2  3
  1  7  1  0
  1  8  1  0
  2  3  1  0
  2  9  1  0
  3  4  1  0
  3  5  1  0
  4 10  1  0
  4 11  1  0
  4 12  1  0
  5  6  2  3
  5 13  1  0
  6 14  1  0
  6 15  1  0
 16 17  2  3
 16 19  1  0
 16 20  1  0
 17 18  1  0
 17 21  1  0
 18 22  1  0
 18 23  1  0
 18 24  1  0
M  RAD  1   3   2
M  END
>  <reaction>  (9) 
rxn_1003

>  <mol_properties>  (9) 
{"1": {"label": "*0", "atom_type": "Cd"}, "2": {"label": "*1", "atom_type": "Cs"}, "16": {"label": "*4", "atom_type": "Cd"}, "17": {"label": "*3", "atom_type": "Cs"}, "21": {"label": "*2", "atom_type": "H0"}}

>  <type>  (9) 
unop_5

>  <geom_source>  (9) 
Heuristics

$$$$

     RDKit          3D

 24 22  0  0  0  0  0  0  0  0999 V2000
   -1.9475    0.6289   -1.2583 C   0  0  0  0  0  0  0  0  0  0  0  0
   -1.7246    0.7137    0.0433 C   0  0  0  0  0  0  0  0  0  0  0  0
   -0.6280   -0.0048    0.7862 C   0  0  0  0  0  3  0  0  0  0  0  0
   -1.2138   -0.9257    1.8530 C   0  0  0  0  0  0  0  0  0  0  0  0
    0.3513    1.0104    1.3214 C   0  0  0  0  0  0  0  0  0  0  0  0
    0.6678    1.2143    2.5907 C   0  0  0  0  0  0  0  0  0  0  0  0
   -2.7548    1.1736   -1.7316 H   0  0  0  0  0  0  0  0  0  0  0  0
   -1.3292    0.0089   -1.8989 H   0  0  0  0  0  0  0  0  0  0  0  0
   -2.3613    1.3469    0.6577 H   0  0  0  0  0  0  0  0  0  0  0  0
   -0.4264   -1.4607    2.3865 H   0  0  0  0  0  0  0  0  0  0  0  0
   -1.8766   -1.6590    1.3929 H   0  0  0  0  0  0  0  0  0  0  0  0
   -1.7960   -0.3604    2.5844 H   0  0  0  0  0  0  0  0  0  0  0  0
    0.8137    1.6315    0.5587 H   0  0  0  0  0  0  0  0  0  0  0  0
    0.2374    0.6318    3.3963 H   0  0  0  0  0  0  0  0  0  0  0  0
    1.3805    1.9798    2.8704 H   0  0  0  0  0  0  0  0  0  0  0  0
    1.4815   -1.2681   -2.9632 C   0  0  0  0  0  0  0  0  0  0  0  0
    1.4815   -1.2681   -1.6394 C   0  0  0  0  0  0  0  0  0  0  0  0
    1.4815   -0.0459   -0.7789 C   0  0  0  0  0  0  0  0  0  0  0  0
    1.4815   -2.1908   -3.5297 H   0  0  0  0  0  0  0  0  0  0  0  0
    1.4815   -0.3425   -3.5292 H   0  0  0  0  0  0  0  0  0  0  0  0
    1.4815   -2.2207   -1.1159 H   0  0  0  0  0  0  0  0  0  0  0  0
    0.4282   -0.0254    0.0026 H   0  0  0  0  0  0  0  0  0  0  0  0
    1.4815    0.8645   -1.3795 H   0  0  0  0  0  0  0  0  0  0  0  0
    2.3592   -0.0288   -0.1277 H   0  0  0  0  0  0  0  0  0  0  0  0
  1  2  2  3
  1  7  1  0
  1  8  1  0
  2  3  1  0
  2  9  1  0
  3  4  1  0
  3  5  1  0
  4 10  1  0
  4 11  1  0
  4 12  1  0
  5  6  2  3
  5 13  1  0
  6 14  1  0
  6 15  1  0
 16 17  2  3
 16 19  1  0
 16 20  1  0
 17 18  1  0
 17 21  1  0
 18 22  1  0
 18 23  1  0
 18 24  1  0
M  RAD  1   3   2
M  END
>  <reaction>  (10) 
rxn_1003

>  <mol_properties>  (10) 
{"1": {"label": "*0", "atom_type": "Cd"}, "2": {"label": "*1", "atom_type": "Cs"}, "16": {"label": "*4", "atom_type": "Cd"}, "17": {"label": "*3", "atom_type": "Cs"}, "21": {"label": "*2", "atom_type": "H0"}}

>  <type>  (10) 
unop_6

>  <geom_source>  (10) 
Heuristics

$$$$

     RDKit          3D

 24 22  0  0  0  0  0  0  0  0999 V2000
   -1.6237    1.8092   -0.8651 C   0  0  0  0  0  0  0  0  0  0  0  0
   -1.4875    1.2899    0.3443 C   0  0  0  0  0  0  0  0  0  0  0  0
   -0.7093    0.0417    0.6719 C   0  0  0  0  0  3  0  0  0  0  0  0
   -1.6193   -1.0118    1.2975 C   0  0  0  0  0  0  0  0  0  0  0  0
    0.4790    0.4118    1.5246 C   0  0  0  0  0  0  0  0  0  0  0  0
    0.7417   -0.0193    2.7486 C   0  0  0  0  0  0  0  0  0  0  0  0
   -2.1977    2.7119   -1.0329 H   0  0  0  0  0  0  0  0  0  0  0  0
   -1.1655    1.3481   -1.7337 H   0  0  0  0  0  0  0  0  0  0  0  0
   -1.9574    1.7785    1.1952 H   0  0  0  0  0  0  0  0  0  0  0  0
   -1.0661   -1.9244    1.5251 H   0  0  0  0  0  0  0  0  0  0  0  0
   -2.4294   -1.2626    0.6123 H   0  0  0  0  0  0  0  0  0  0  0  0
   -2.0661   -0.6454    2.2247 H   0  0  0  0  0  0  0  0  0  0  0  0
    1.1601    1.1199    1.0598 H   0  0  0  0  0  0  0  0  0  0  0  0
    0.0988   -0.7207    3.2666 H   0  0  0  0  0  0  0  0  0  0  0  0
    1.6228    0.3176    3.2800 H   0  0  0  0  0  0  0  0  0  0  0  0
    1.4001   -1.2216   -3.0775 C   0  0  0  0  0  0  0  0  0  0  0  0
    1.4001   -1.2216   -1.7537 C   0  0  0  0  0  0  0  0  0  0  0  0
    1.4001    0.0006   -0.8932 C   0  0  0  0  0  0  0  0  0  0  0  0
    1.4001   -2.1443   -3.6440 H   0  0  0  0  0  0  0  0  0  0  0  0
    1.4001   -0.2960   -3.6435 H   0  0  0  0  0  0  0  0  0  0  0  0
    1.4001   -2.1742   -1.2302 H   0  0  0  0  0  0  0  0  0  0  0  0
    0.3469    0.0212   -0.1118 H   0  0  0  0  0  0  0  0  0  0  0  0
    1.4001    0.9111   -1.4938 H   0  0  0  0  0  0  0  0  0  0  0  0
    2.2778    0.0177   -0.2420 H   0  0  0  0  0  0  0  0  0  0  0  0
  1  2  2  3
  1  7  1  0
  1  8  1  0
  2  3  1  0
  2  9  1  0
  3  4  1  0
  3  5  1  0
  4 10  1  0
  4 11  1  0
  4 12  1  0
  5  6  2  3
  5 13  1  0
  6 14  1  0
  6 15  1  0
 16 17  2  3
 16 19  1  0
 16 20  1  0
 17 18  1  0
 17 21  1  0
 18 22  1  0
 18 23  1  0
 18 24  1  0
M  RAD  1   3   2
M  END
>  <reaction>  (11) 
rxn_1003

>  <mol_properties>  (11) 
{"1": {"label": "*0", "atom_type": "Cd"}, "2": {"label": "*1", "atom_type": "Cs"}, "16": {"label": "*4", "atom_type": "Cd"}, "17": {"label": "*3", "atom_type": "Cs"}, "21": {"label": "*2", "atom_type": "H0"}}

>  <type>  (11) 
unop_7

>  <geom_source>  (11) 
Heuristics

$$$$

     RDKit          3D

 24 22  0  0  0  0  0  0  0  0999 V2000
    0.5897   -1.5099    1.9875 C   0  0  0  0  0  0  0  0  0  0  0  0
   -0.1456   -0.4127    1.9080 C   0  0  0  0  0  0  0  0  0  0  0  0
   -0.5208    0.2918    0.6299 C   0  0  0  0  0  3  0  0  0  0  0  0
    0.0101    1.7227    0.6275 C   0  0  0  0  0  0  0  0  0  0  0  0
   -2.0129    0.1898    0.4310 C   0  0  0  0  0  0  0  0  0  0  0  0
   -2.8714    1.1937    0.3417 C   0  0  0  0  0  0  0  0  0  0  0  0
    0.8231   -1.9679    2.9405 H   0  0  0  0  0  0  0  0  0  0  0  0
    0.9867   -1.9904    1.0995 H   0  0  0  0  0  0  0  0  0  0  0  0
   -0.5313    0.0431    2.8175 H   0  0  0  0  0  0  0  0  0  0  0  0
   -0.2454    2.2356   -0.3012 H   0  0  0  0  0  0  0  0  0  0  0  0
    1.0954    1.7204    0.7315 H   0  0  0  0  0  0  0  0  0  0  0  0
   -0.4049    2.2978    1.4585 H   0  0  0  0  0  0  0  0  0  0  0  0
   -2.3884   -0.8287    0.3757 H   0  0  0  0  0  0  0  0  0  0  0  0
   -2.5594    2.2298    0.3947 H   0  0  0  0  0  0  0  0  0  0  0  0
   -3.9300    1.0103    0.2076 H   0  0  0  0  0  0  0  0  0  0  0  0
    1.5886   -0.9715   -3.1195 C   0  0  0  0  0  0  0  0  0  0  0  0
    1.5886   -0.9715   -1.7958 C   0  0  0  0  0  0  0  0  0  0  0  0
    1.5886    0.2506   -0.9352 C   0  0  0  0  0  0  0  0  0  0  0  0
    1.5886   -1.8943   -3.6860 H   0  0  0  0  0  0  0  0  0  0  0  0
    1.5886   -0.0459   -3.6855 H   0  0  0  0  0  0  0  0  0  0  0  0
    1.5886   -1.9242   -1.2722 H   0  0  0  0  0  0  0  0  0  0  0  0
    0.5354    0.2712   -0.1538 H   0  0  0  0  0  0  0  0  0  0  0  0
    1.5886    1.1611   -1.5358 H   0  0  0  0  0  0  0  0  0  0  0  0
    2.4664    0.2677   -0.2840 H   0  0  0  0  0  0  0  0  0  0  0  0
  1  2  2  3
  1  7  1  0
  1  8  1  0
  2  3  1  0
  2  9  1  0
  3  4  1  0
  3  5  1  0
  4 10  1  0
  4 11  1  0
  4 12  1  0
  5  6  2  3
  5 13  1  0
  6 14  1  0
  6 15  1  0
 16 17  2  3
 16 19  1  0
 16 20  1  0
 17 18  1  0
 17 21  1  0
 18 22  1  0
 18 23  1  0
 18 24  1  0
M  RAD  1   3   2
M  END
>  <reaction>  (12) 
rxn_1003

>  <mol_properties>  (12) 
{"1": {"label": "*0", "atom_type": "Cd"}, "2": {"label": "*1", "atom_type": "Cs"}, "16": {"label": "*4", "atom_type": "Cd"}, "17": {"label": "*3", "atom_type": "Cs"}, "21": {"label": "*2", "atom_type": "H0"}}

>  <type>  (12) 
unop_8

>  <geom_source>  (12) 
Heuristics

$$$$

     RDKit          3D

 24 22  0  0  0  0  0  0  0  0999 V2000
   -1.3859   -1.3722   -0.8558 C   0  0  0  0  0  0  0  0  0  0  0  0
   -1.5465   -0.5696    0.1839 C   0  0  0  0  0  0  0  0  0  0  0  0
   -0.4371    0.1500    0.9063 C   0  0  0  0  0  3  0  0  0  0  0  0
   -0.3880   -0.2699    2.3728 C   0  0  0  0  0  0  0  0  0  0  0  0
   -0.5960    1.6358    0.6976 C   0  0  0  0  0  0  0  0  0  0  0  0
   -0.7714    2.5539    1.6353 C   0  0  0  0  0  0  0  0  0  0  0  0
   -2.2279   -1.8595   -1.3310 H   0  0  0  0  0  0  0  0  0  0  0  0
   -0.4030   -1.5721   -1.2696 H   0  0  0  0  0  0  0  0  0  0  0  0
   -2.5460   -0.3876    0.5731 H   0  0  0  0  0  0  0  0  0  0  0  0
    0.4222    0.2366    2.9001 H   0  0  0  0  0  0  0  0  0  0  0  0
   -0.2287   -1.3457    2.4500 H   0  0  0  0  0  0  0  0  0  0  0  0
   -1.3251   -0.0326    2.8818 H   0  0  0  0  0  0  0  0  0  0  0  0
   -0.5752    1.9461   -0.3438 H   0  0  0  0  0  0  0  0  0  0  0  0
   -0.8063    2.3067    2.6894 H   0  0  0  0  0  0  0  0  0  0  0  0
   -0.8848    3.5990    1.3763 H   0  0  0  0  0  0  0  0  0  0  0  0
    1.6724   -1.1133   -2.8431 C   0  0  0  0  0  0  0  0  0  0  0  0
    1.6724   -1.1133   -1.5193 C   0  0  0  0  0  0  0  0  0  0  0  0
    1.6724    0.1089   -0.6588 C   0  0  0  0  0  0  0  0  0  0  0  0
    1.6724   -2.0360   -3.4096 H   0  0  0  0  0  0  0  0  0  0  0  0
    1.6724   -0.1877   -3.4091 H   0  0  0  0  0  0  0  0  0  0  0  0
    1.6724   -2.0659   -0.9958 H   0  0  0  0  0  0  0  0  0  0  0  0
    0.6191    0.1294    0.1226 H   0  0  0  0  0  0  0  0  0  0  0  0
    1.6724    1.0193   -1.2594 H   0  0  0  0  0  0  0  0  0  0  0  0
    2.5501    0.1260   -0.0076 H   0  0  0  0  0  0  0  0  0  0  0  0
  1  2  2  3
  1  7  1  0
  1  8  1  0
  2  3  1  0
  2  9  1  0
  3  4  1  0
  3  5  1  0
  4 10  1  0
  4 11  1  0
  4 12  1  0
  5  6  2  3
  5 13  1  0
  6 14  1  0
  6 15  1  0
 16 17  2  3
 16 19  1  0
 16 20  1  0
 17 18  1  0
 17 21  1  0
 18 22  1  0
 18 23  1  0
 18 24  1  0
M  RAD  1   3   2
M  END
>  <reaction>  (13) 
rxn_1003

>  <mol_properties>  (13) 
{"1": {"label": "*0", "atom_type": "Cd"}, "2": {"label": "*1", "atom_type": "Cs"}, "16": {"label": "*4", "atom_type": "Cd"}, "17": {"label": "*3", "atom_type": "Cs"}, "21": {"label": "*2", "atom_type": "H0"}}

>  <type>  (13) 
unop_9

>  <geom_source>  (13) 
Heuristics

$$$$

     RDKit          3D

 24 22  0  0  0  0  0  0  0  0999 V2000
    0.0544   -2.0609    1.1543 C   0  0  0  0  0  0  0  0  0  0  0  0
   -0.4355   -0.8899    1.5280 C   0  0  0  0  0  0  0  0  0  0  0  0
   -0.4923    0.3441    0.6652 C   0  0  0  0  0  3  0  0  0  0  0  0
    0.3030    1.4820    1.2994 C   0  0  0  0  0  0  0  0  0  0  0  0
   -1.9354    0.6842    0.3863 C   0  0  0  0  0  0  0  0  0  0  0  0
   -2.5620    1.8058    0.7064 C   0  0  0  0  0  0  0  0  0  0  0  0
    0.0648   -2.9110    1.8249 H   0  0  0  0  0  0  0  0  0  0  0  0
    0.4649   -2.2115    0.1614 H   0  0  0  0  0  0  0  0  0  0  0  0
   -0.8427   -0.7725    2.5301 H   0  0  0  0  0  0  0  0  0  0  0  0
    0.2786    2.3756    0.6735 H   0  0  0  0  0  0  0  0  0  0  0  0
    1.3433    1.1840    1.4326 H   0  0  0  0  0  0  0  0  0  0  0  0
   -0.0988    1.7437    2.2810 H   0  0  0  0  0  0  0  0  0  0  0  0
   -2.4916   -0.1028   -0.1164 H   0  0  0  0  0  0  0  0  0  0  0  0
   -2.0638    2.6240    1.2123 H   0  0  0  0  0  0  0  0  0  0  0  0
   -3.6085    1.9463    0.4671 H   0  0  0  0  0  0  0  0  0  0  0  0
    1.6172   -0.9192   -3.0842 C   0  0  0  0  0  0  0  0  0  0  0  0
    1.6172   -0.9192   -1.7605 C   0  0  0  0  0  0  0  0  0  0  0  0
    1.6172    0.3030   -0.8999 C   0  0  0  0  0  0  0  0  0  0  0  0
    1.6172   -1.8419   -3.6507 H   0  0  0  0  0  0  0  0  0  0  0  0
    1.6172    0.0064   -3.6502 H   0  0  0  0  0  0  0  0  0  0  0  0
    1.6172   -1.8718   -1.2369 H   0  0  0  0  0  0  0  0  0  0  0  0
    0.5639    0.3235   -0.1185 H   0  0  0  0  0  0  0  0  0  0  0  0
    1.6172    1.2135   -1.5005 H   0  0  0  0  0  0  0  0  0  0  0  0
    2.4949    0.3201   -0.2487 H   0  0  0  0  0  0  0  0  0  0  0  0
  1  2  2  3
  1  7  1  0
  1  8  1  0
  2  3  1  0
  2  9  1  0
  3  4  1  0
  3  5  1  0
  4 10  1  0
  4 11  1  0
  4 12  1  0
  5  6  2  3
  5 13  1  0
  6 14  1  0
  6 15  1  0
 16 17  2  3
 16 19  1  0
 16 20  1  0
 17 18  1  0
 17 21  1  0
 18 22  1  0
 18 23  1  0
 18 24  1  0
M  RAD  1   3   2
M  END
>  <reaction>  (14) 
rxn_1003

>  <mol_properties>  (14) 
{"1": {"label": "*0", "atom_type": "Cd"}, "2": {"label": "*1", "atom_type": "Cs"}, "16": {"label": "*4", "atom_type": "Cd"}, "17": {"label": "*3", "atom_type": "Cs"}, "21": {"label": "*2", "atom_type": "H0"}}

>  <type>  (14) 
unop_10

>  <geom_source>  (14) 
Heuristics

$$$$

     RDKit          3D

 24 22  0  0  0  0  0  0  0  0999 V2000
   -0.7581    2.6172    0.0266 C   0  0  0  0  0  0  0  0  0  0  0  0
   -1.0638    1.6104    0.8289 C   0  0  0  0  0  0  0  0  0  0  0  0
   -0.7159    0.1652    0.5818 C   0  0  0  0  0  3  0  0  0  0  0  0
   -1.9796   -0.6869    0.5014 C   0  0  0  0  0  0  0  0  0  0  0  0
    0.2671   -0.2912    1.6313 C   0  0  0  0  0  0  0  0  0  0  0  0
    0.0972   -1.2725    2.5036 C   0  0  0  0  0  0  0  0  0  0  0  0
   -1.0378    3.6360    0.2638 H   0  0  0  0  0  0  0  0  0  0  0  0
   -0.2162    2.4580   -0.8998 H   0  0  0  0  0  0  0  0  0  0  0  0
   -1.6056    1.8041    1.7523 H   0  0  0  0  0  0  0  0  0  0  0  0
   -1.7369   -1.7332    0.3085 H   0  0  0  0  0  0  0  0  0  0  0  0
   -2.6228   -0.3293   -0.3030 H   0  0  0  0  0  0  0  0  0  0  0  0
   -2.5483   -0.6363    1.4328 H   0  0  0  0  0  0  0  0  0  0  0  0
    1.1930    0.2777    1.6547 H   0  0  0  0  0  0  0  0  0  0  0  0
   -0.8048   -1.8719    2.5335 H   0  0  0  0  0  0  0  0  0  0  0  0
    0.8668   -1.5147    3.2256 H   0  0  0  0  0  0  0  0  0  0  0  0
    1.3935   -1.0981   -3.1676 C   0  0  0  0  0  0  0  0  0  0  0  0
    1.3935   -1.0981   -1.8439 C   0  0  0  0  0  0  0  0  0  0  0  0
    1.3935    0.1241   -0.9833 C   0  0  0  0  0  0  0  0  0  0  0  0
    1.3935   -2.0208   -3.7341 H   0  0  0  0  0  0  0  0  0  0  0  0
    1.3935   -0.1725   -3.7336 H   0  0  0  0  0  0  0  0  0  0  0  0
    1.3935   -2.0507   -1.3203 H   0  0  0  0  0  0  0  0  0  0  0  0
    0.3403    0.1446   -0.2019 H   0  0  0  0  0  0  0  0  0  0  0  0
    1.3935    1.0345   -1.5839 H   0  0  0  0  0  0  0  0  0  0  0  0
    2.2712    0.1412   -0.3321 H   0  0  0  0  0  0  0  0  0  0  0  0
  1  2  2  3
  1  7  1  0
  1  8  1  0
  2  3  1  0
  2  9  1  0
  3  4  1  0
  3  5  1  0
  4 10  1  0
  4 11  1  0
  4 12  1  0
  5  6  2  3
  5 13  1  0
  6 14  1  0
  6 15  1  0
 16 17  2  3
 16 19  1  0
 16 20  1  0
 17 18  1  0
 17 21  1  0
 18 22  1  0
 18 23  1  0
 18 24  1  0
M  RAD  1   3   2
M  END
>  <reaction>  (15) 
rxn_1003

>  <mol_properties>  (15) 
{"1": {"label": "*0", "atom_type": "Cd"}, "2": {"label": "*1", "atom_type": "Cs"}, "16": {"label": "*4", "atom_type": "Cd"}, "17": {"label": "*3", "atom_type": "Cs"}, "21": {"label": "*2", "atom_type": "H0"}}

>  <type>  (15) 
unop_11

>  <geom_source>  (15) 
Heuristics

$$$$

     RDKit          3D

 24 22  0  0  0  0  0  0  0  0999 V2000
   -0.8989   -1.8724   -0.3498 C   0  0  0  0  0  0  0  0  0  0  0  0
   -1.2068   -0.9623    0.5601 C   0  0  0  0  0  0  0  0  0  0  0  0
   -0.4064    0.2805    0.8523 C   0  0  0  0  0  3  0  0  0  0  0  0
    0.0680    0.2871    2.3029 C   0  0  0  0  0  0  0  0  0  0  0  0
   -1.2189    1.4917    0.4660 C   0  0  0  0  0  0  0  0  0  0  0  0
   -1.6068    2.4739    1.2647 C   0  0  0  0  0  0  0  0  0  0  0  0
   -1.5191   -2.7452   -0.5108 H   0  0  0  0  0  0  0  0  0  0  0  0
   -0.0120   -1.7773   -0.9675 H   0  0  0  0  0  0  0  0  0  0  0  0
   -2.1050   -1.0857    1.1614 H   0  0  0  0  0  0  0  0  0  0  0  0
    0.6606    1.1777    2.5189 H   0  0  0  0  0  0  0  0  0  0  0  0
    0.6829   -0.5912    2.5006 H   0  0  0  0  0  0  0  0  0  0  0  0
   -0.7780    0.2663    2.9938 H   0  0  0  0  0  0  0  0  0  0  0  0
   -1.5116    1.5191   -0.5803 H   0  0  0  0  0  0  0  0  0  0  0  0
   -1.3514    2.5005    2.3171 H   0  0  0  0  0  0  0  0  0  0  0  0
   -2.1989    3.2976    0.8864 H   0  0  0  0  0  0  0  0  0  0  0  0
    1.7031   -0.9828   -2.8971 C   0  0  0  0  0  0  0  0  0  0  0  0
    1.7031   -0.9828   -1.5733 C   0  0  0  0  0  0  0  0  0  0  0  0
    1.7031    0.2394   -0.7128 C   0  0  0  0  0  0  0  0  0  0  0  0
    1.7031   -1.9055   -3.4636 H   0  0  0  0  0  0  0  0  0  0  0  0
    1.7031   -0.0572   -3.4631 H   0  0  0  0  0  0  0  0  0  0  0  0
    1.7031   -1.9354   -1.0498 H   0  0  0  0  0  0  0  0  0  0  0  0
    0.6498    0.2599    0.0686 H   0  0  0  0  0  0  0  0  0  0  0  0
    1.7031    1.1498   -1.3134 H   0  0  0  0  0  0  0  0  0  0  0  0
    2.5808    0.2565   -0.0616 H   0  0  0  0  0  0  0  0  0  0  0  0
  1  2  2  3
  1  7  1  0
  1  8  1  0
  2  3  1  0
  2  9  1  0
  3  4  1  0
  3  5  1  0
  4 10  1  0
  4 11  1  0
  4 12  1  0
  5  6  2  3
  5 13  1  0
  6 14  1  0
  6 15  1  0
 16 17  2  3
 16 19  1  0
 16 20  1  0
 17 18  1  0
 17 21  1  0
 18 22  1  0
 18 23  1  0
 18 24  1  0
M  RAD  1   3   2
M  END
>  <reaction>  (16) 
rxn_1003

>  <mol_properties>  (16) 
{"1": {"label": "*0", "atom_type": "Cd"}, "2": {"label": "*1", "atom_type": "Cs"}, "16": {"label": "*4", "atom_type": "Cd"}, "17": {"label": "*3", "atom_type": "Cs"}, "21": {"label": "*2", "atom_type": "H0"}}

>  <type>  (16) 
unop_12

>  <geom_source>  (16) 
Heuristics

$$$$

     RDKit          3D

 24 22  0  0  0  0  0  0  0  0999 V2000
   -0.9383    0.1165   -0.1387 C   0  0  0  0  0  0  0  0  0  0  0  0
   -0.9077   -1.1557   -0.9932 C   0  0  0  0  0  0  0  0  0  0  0  0
   -1.8979   -0.0248    1.0191 C   0  0  0  0  0  0  0  0  0  0  0  0
   -1.2650    1.3320   -0.9752 C   0  0  0  0  0  0  0  0  0  0  0  0
    2.8539   -0.5770    0.0740 C   0  0  0  0  0  0  0  0  0  0  0  0
   -1.6069   -0.7942    2.0718 C   0  0  0  0  0  0  0  0  0  0  0  0
   -2.4198    1.4695   -1.6380 C   0  0  0  0  0  0  0  0  0  0  0  0
    1.6404    0.2875    0.2000 C   0  0  0  0  0  0  0  0  0  0  0  0
    4.0424   -0.1726    0.5272 C   0  0  0  0  0  3  0  0  0  0  0  0
    0.2772    0.3011    0.3545 H   0  0  0  0  0  0  0  0  0  0  0  0
   -0.2171   -1.0197   -1.8525 H   0  0  0  0  0  0  0  0  0  0  0  0
   -0.5398   -2.0114   -0.3887 H   0  0  0  0  0  0  0  0  0  0  0  0
   -1.9204   -1.4018   -1.3780 H   0  0  0  0  0  0  0  0  0  0  0  0
   -2.8435    0.5109    1.0130 H   0  0  0  0  0  0  0  0  0  0  0  0
   -0.5280    2.1267   -1.0395 H   0  0  0  0  0  0  0  0  0  0  0  0
    2.7599   -1.5507   -0.3958 H   0  0  0  0  0  0  0  0  0  0  0  0
   -2.3100   -0.8781    2.8940 H   0  0  0  0  0  0  0  0  0  0  0  0
   -0.6706   -1.3416    2.1230 H   0  0  0  0  0  0  0  0  0  0  0  0
   -3.1863    0.7022   -1.5971 H   0  0  0  0  0  0  0  0  0  0  0  0
   -2.6043    2.3629   -2.2257 H   0  0  0  0  0  0  0  0  0  0  0  0
    4.1582    0.7980    1.0005 H   0  0  0  0  0  0  0  0  0  0  0  0
    4.9102   -0.8161    0.4254 H   0  0  0  0  0  0  0  0  0  0  0  0
    1.4250    0.4953    1.2694 H   0  0  0  0  0  0  0  0  0  0  0  0
    1.7884    1.2412   -0.3493 H   0  0  0  0  0  0  0  0  0  0  0  0
  1  2  1  0
  1  3  1  0
  1  4  1  0
  1 10  1  0
  2 11  1  0
  2 12  1  0
  2 13  1  0
  3  6  2  3
  3 14  1  0
  4  7  2  3
  4 15  1  0
  5  8  2  3
  5  9  1  0
  5 16  1  0
  6 17  1  0
  6 18  1  0
  7 19  1  0
  7 20  1  0
  8 23  1  0
  8 24  1  0
  9 21  1  0
  9 22  1  0
M  RAD  1   9   2
M  END
>  <reaction>  (17) 
rxn_1003

>  <mol_properties>  (17) 
{"1": {"label": "*0", "atom_type": "Cd"}, "2": {"label": "*1", "atom_type": "Cs"}, "16": {"label": "*4", "atom_type": "Cd"}, "17": {"label": "*3", "atom_type": "Cs"}, "21": {"label": "*2", "atom_type": "H0"}}

>  <type>  (17) 
unop_13

>  <geom_source>  (17) 
AutoTST

$$$$

     RDKit          3D

 24 22  0  0  0  0  0  0  0  0999 V2000
   -0.4462   -2.1225    0.3145 C   0  0  0  0  0  0  0  0  0  0  0  0
   -0.8132   -1.0772    1.0381 C   0  0  0  0  0  0  0  0  0  0  0  0
   -0.4396    0.3540    0.7500 C   0  0  0  0  0  3  0  0  0  0  0  0
    0.3444    0.9512    1.9153 C   0  0  0  0  0  0  0  0  0  0  0  0
   -1.6851    1.1248    0.3882 C   0  0  0  0  0  0  0  0  0  0  0  0
   -2.1765    2.1793    1.0202 C   0  0  0  0  0  0  0  0  0  0  0  0
   -0.7505   -3.1280    0.5765 H   0  0  0  0  0  0  0  0  0  0  0  0
    0.1744   -2.0097   -0.5682 H   0  0  0  0  0  0  0  0  0  0  0  0
   -1.4386   -1.2240    1.9161 H   0  0  0  0  0  0  0  0  0  0  0  0
    0.6310    1.9836    1.7087 H   0  0  0  0  0  0  0  0  0  0  0  0
    1.2507    0.3720    2.0939 H   0  0  0  0  0  0  0  0  0  0  0  0
   -0.2466    0.9402    2.8341 H   0  0  0  0  0  0  0  0  0  0  0  0
   -2.2167    0.7360   -0.4764 H   0  0  0  0  0  0  0  0  0  0  0  0
   -1.6957    2.6098    1.8904 H   0  0  0  0  0  0  0  0  0  0  0  0
   -3.0878    2.6560    0.6818 H   0  0  0  0  0  0  0  0  0  0  0  0
    1.6698   -0.9093   -2.9994 C   0  0  0  0  0  0  0  0  0  0  0  0
    1.6698   -0.9093   -1.6756 C   0  0  0  0  0  0  0  0  0  0  0  0
    1.6698    0.3128   -0.8151 C   0  0  0  0  0  0  0  0  0  0  0  0
    1.6698   -1.8321   -3.5659 H   0  0  0  0  0  0  0  0  0  0  0  0
    1.6698    0.0163   -3.5654 H   0  0  0  0  0  0  0  0  0  0  0  0
    1.6698   -1.8620   -1.1521 H   0  0  0  0  0  0  0  0  0  0  0  0
    0.6166    0.3334   -0.0337 H   0  0  0  0  0  0  0  0  0  0  0  0
    1.6698    1.2233   -1.4157 H   0  0  0  0  0  0  0  0  0  0  0  0
    2.5475    0.3300   -0.1639 H   0  0  0  0  0  0  0  0  0  0  0  0
  1  2  2  3
  1  7  1  0
  1  8  1  0
  2  3  1  0
  2  9  1  0
  3  4  1  0
  3  5  1  0
  4 10  1  0
  4 11  1  0
  4 12  1  0
  5  6  2  3
  5 13  1  0
  6 14  1  0
  6 15  1  0
 16 17  2  3
 16 19  1  0
 16 20  1  0
 17 18  1  0
 17 21  1  0
 18 22  1  0
 18 23  1  0
 18 24  1  0
M  RAD  1   3   2
M  END
>  <reaction>  (18) 
rxn_1003

>  <mol_properties>  (18) 
{"1": {"label": "*0", "atom_type": "Cd"}, "2": {"label": "*1", "atom_type": "Cs"}, "16": {"label": "*4", "atom_type": "Cd"}, "17": {"label": "*3", "atom_type": "Cs"}, "21": {"label": "*2", "atom_type": "H0"}}

>  <type>  (18) 
unop_14

>  <geom_source>  (18) 
gaussian_log

$$$$
