
     RDKit          3D

  7  6  0  0  0  0  0  0  0  0999 V2000
    1.1790    0.0623    0.2249 N   0  0  0  0  0  0  0  0  0  0  0  0
    0.0806   -0.7371    0.2750 N   0  0  0  0  0  0  0  0  0  0  0  0
    0.2345   -1.9592    0.5674 C   0  0  0  0  0  0  0  0  0  0  0  0
    1.0160    0.8617   -0.3633 H   0  0  0  0  0  0  0  0  0  0  0  0
    2.0560   -0.4061    0.0238 H   0  0  0  0  0  0  0  0  0  0  0  0
   -0.6510   -2.5755    0.6538 H   0  0  0  0  0  0  0  0  0  0  0  0
    1.2139   -2.4141    0.7430 H   0  0  0  0  0  0  0  0  0  0  0  0
  1  2  1  0
  1  4  1  0
  1  5  1  0
  2  3  2  3
  3  6  1  0
  3  7  1  0
M  END
>  <reaction>  (1) 
rxn_721

>  <mol_properties>  (1) 
{"0": {"label": "donator", "atom_type": "N3s"}, "3": {"label": "d_hydrogen", "atom_type": "H0"}}

>  <type>  (1) 
r1h

$$$$

     RDKit          3D

  4  3  0  0  0  0  0  0  0  0999 V2000
    0.0000    0.0000    0.0000 C   0  0  0  0  0  3  0  0  0  0  0  0
    1.0638   -0.1747    0.0540 H   0  0  0  0  0  0  0  0  0  0  0  0
   -0.6833   -0.8351   -0.0280 H   0  0  0  0  0  0  0  0  0  0  0  0
   -0.3805    1.0098   -0.0260 H   0  0  0  0  0  0  0  0  0  0  0  0
  1  2  1  0
  1  3  1  0
  1  4  1  0
M  RAD  1   1   2
M  END
>  <reaction>  (2) 
rxn_721

>  <mol_properties>  (2) 
{"0": {"label": "acceptor", "atom_type": "Cs"}}

>  <type>  (2) 
r2

$$$$

     RDKit          3D

  5  4  0  0  0  0  0  0  0  0999 V2000
    0.0000    0.0000    0.0000 C   0  0  0  0  0  0  0  0  0  0  0  0
   -0.6486   -0.7720   -0.4113 H   0  0  0  0  0  0  0  0  0  0  0  0
   -0.3482    0.9787   -0.3267 H   0  0  0  0  0  0  0  0  0  0  0  0
   -0.0223   -0.0487    1.0876 H   0  0  0  0  0  0  0  0  0  0  0  0
    1.0191   -0.1580   -0.3496 H   0  0  0  0  0  0  0  0  0  0  0  0
  1  2  1  0
  1  3  1  0
  1  4  1  0
  1  5  1  0
M  END
>  <reaction>  (3) 
rxn_721

>  <mol_properties>  (3) 
{"0": {"label": "acceptor", "atom_type": "Cs"}, "4": {"label": "a_hydrogen", "atom_type": "H0"}}

>  <type>  (3) 
r2h

$$$$

     RDKit          3D

 11  9  0  0  0  0  0  0  0  0999 V2000
   -0.8092    0.5062    2.2593 C   0  0  0  0  0  3  0  0  0  0  0  0
   -1.3660    1.3891    1.9614 H   0  0  0  0  0  0  0  0  0  0  0  0
   -0.1642    0.6565    3.1203 H   0  0  0  0  0  0  0  0  0  0  0  0
   -1.4100   -0.3972    2.3028 H   0  0  0  0  0  0  0  0  0  0  0  0
    0.6658    0.0608    0.2045 N   0  0  0  0  0  0  0  0  0  0  0  0
   -0.1685   -0.5392   -0.6722 N   0  0  0  0  0  0  0  0  0  0  0  0
   -0.0357   -0.3162   -1.9145 C   0  0  0  0  0  0  0  0  0  0  0  0
    0.0397    0.2197    1.2598 H   0  0  0  0  0  0  0  0  0  0  0  0
    0.9178    1.0081   -0.0953 H   0  0  0  0  0  0  0  0  0  0  0  0
   -0.6814   -0.8516   -2.5998 H   0  0  0  0  0  0  0  0  0  0  0  0
    0.7114    0.3717   -2.3202 H   0  0  0  0  0  0  0  0  0  0  0  0
  1  2  1  0
  1  3  1  0
  1  4  1  0
  5  6  1  0
  5  8  1  0
  5  9  1  0
  6  7  2  3
  7 10  1  0
  7 11  1  0
M  RAD  1   1   2
M  END
>  <reaction>  (4) 
rxn_721

>  <mol_properties>  (4) 
{"0": {"label": "*3", "atom_type": "Cs"}, "1": {"label": "*4", "atom_type": "H0"}, "4": {"label": "*1", "atom_type": "N3s"}, "5": {"label": "*0", "atom_type": "N3d"}, "7": {"label": "*2", "atom_type": "H0"}}

>  <type>  (4) 
ts

$$$$

     RDKit          3D

 11  9  0  0  0  0  0  0  0  0999 V2000
   -0.6830    0.3682    2.3294 C   0  0  0  0  0  3  0  0  0  0  0  0
    0.0686    0.6645    3.0594 H   0  0  0  0  0  0  0  0  0  0  0  0
   -1.4277   -0.2635    2.8111 H   0  0  0  0  0  0  0  0  0  0  0  0
   -1.0694    1.3487    2.0552 H   0  0  0  0  0  0  0  0  0  0  0  0
    0.2609    0.6050    0.0118 N   0  0  0  0  0  0  0  0  0  0  0  0
    0.2609   -0.5891   -0.6380 N   0  0  0  0  0  0  0  0  0  0  0  0
    0.2609   -0.5891   -1.9040 C   0  0  0  0  0  0  0  0  0  0  0  0
   -0.1923    0.4913    1.1245 H   0  0  0  0  0  0  0  0  0  0  0  0
   -0.1360    1.3854   -0.5005 H   0  0  0  0  0  0  0  0  0  0  0  0
    0.3116   -1.5437   -2.4113 H   0  0  0  0  0  0  0  0  0  0  0  0
    0.2205    0.3258   -2.5027 H   0  0  0  0  0  0  0  0  0  0  0  0
  1  2  1  0
  1  3  1  0
  1  4  1  0
  5  6  1  0
  5  8  1  0
  5  9  1  0
  6  7  2  3
  7 10  1  0
  7 11  1  0
M  RAD  1   1   2
M  END
>  <reaction>  (5) 
rxn_721

>  <mol_properties>  (5) 
{"0": {"label": "*3", "atom_type": "Cs"}, "1": {"label": "*4", "atom_type": "H0"}, "4": {"label": "*1", "atom_type": "N3s"}, "5": {"label": "*0", "atom_type": "N3d"}, "7": {"label": "*2", "atom_type": "H0"}}

>  <type>  (5) 
unop_1

>  <geom_source>  (5) 
Heuristics

$$$$

     RDKit          3D

 11  9  0  0  0  0  0  0  0  0999 V2000
   -0.6845    0.3751    2.3349 C   0  0  0  0  0  3  0  0  0  0  0  0
   -0.4788   -0.6263    2.7101 H   0  0  0  0  0  0  0  0  0  0  0  0
   -1.7008    0.6610    2.6016 H   0  0  0  0  0  0  0  0  0  0  0  0
   -0.1669    1.3327    2.3050 H   0  0  0  0  0  0  0  0  0  0  0  0
    0.2594    0.6118    0.0174 N   0  0  0  0  0  0  0  0  0  0  0  0
    0.2594   -0.5822   -0.6324 N   0  0  0  0  0  0  0  0  0  0  0  0
    0.2594   -0.5822   -1.8985 C   0  0  0  0  0  0  0  0  0  0  0  0
   -0.1938    0.4982    1.1301 H   0  0  0  0  0  0  0  0  0  0  0  0
   -0.1374    1.3922   -0.4950 H   0  0  0  0  0  0  0  0  0  0  0  0
    0.3101   -1.5368   -2.4058 H   0  0  0  0  0  0  0  0  0  0  0  0
    0.2190    0.3327   -2.4971 H   0  0  0  0  0  0  0  0  0  0  0  0
  1  2  1  0
  1  3  1  0
  1  4  1  0
  5  6  1  0
  5  8  1  0
  5  9  1  0
  6  7  2  3
  7 10  1  0
  7 11  1  0
M  RAD  1   1   2
M  END
>  <reaction>  (6) 
rxn_721

>  <mol_properties>  (6) 
{"0": {"label": "*3", "atom_type": "Cs"}, "1": {"label": "*4", "atom_type": "H0"}, "4": {"label": "*1", "atom_type": "N3s"}, "5": {"label": "*0", "atom_type": "N3d"}, "7": {"label": "*2", "atom_type": "H0"}}

>  <type>  (6) 
unop_2

>  <geom_source>  (6) 
Heuristics

$$$$

     RDKit          3D

 11  9  0  0  0  0  0  0  0  0999 V2000
   -0.6793    0.3702    2.3279 C   0  0  0  0  0  3  0  0  0  0  0  0
   -0.2176    1.1059    2.9847 H   0  0  0  0  0  0  0  0  0  0  0  0
   -0.9171   -0.5267    2.8977 H   0  0  0  0  0  0  0  0  0  0  0  0
   -1.4985    1.0588    2.1264 H   0  0  0  0  0  0  0  0  0  0  0  0
    0.2646    0.6070    0.0103 N   0  0  0  0  0  0  0  0  0  0  0  0
    0.2646   -0.5871   -0.6395 N   0  0  0  0  0  0  0  0  0  0  0  0
    0.2646   -0.5871   -1.9055 C   0  0  0  0  0  0  0  0  0  0  0  0
   -0.1886    0.4933    1.1231 H   0  0  0  0  0  0  0  0  0  0  0  0
   -0.1323    1.3874   -0.5020 H   0  0  0  0  0  0  0  0  0  0  0  0
    0.3153   -1.5417   -2.4128 H   0  0  0  0  0  0  0  0  0  0  0  0
    0.2242    0.3278   -2.5042 H   0  0  0  0  0  0  0  0  0  0  0  0
  1  2  1  0
  1  3  1  0
  1  4  1  0
  5  6  1  0
  5  8  1  0
  5  9  1  0
  6  7  2  3
  7 10  1  0
  7 11  1  0
M  RAD  1   1   2
M  END
>  <reaction>  (7) 
rxn_721

>  <mol_properties>  (7) 
{"0": {"label": "*3", "atom_type": "Cs"}, "1": {"label": "*4", "atom_type": "H0"}, "4": {"label": "*1", "atom_type": "N3s"}, "5": {"label": "*0", "atom_type": "N3d"}, "7": {"label": "*2", "atom_type": "H0"}}

>  <type>  (7) 
unop_3

>  <geom_source>  (7) 
Heuristics

$$$$

     RDKit          3D

 11  9  0  0  0  0  0  0  0  0999 V2000
   -0.6844    0.3710    2.3341 C   0  0  0  0  0  3  0  0  0  0  0  0
   -1.7087    0.0063    2.2733 H   0  0  0  0  0  0  0  0  0  0  0  0
   -0.6827    1.4587    2.2823 H   0  0  0  0  0  0  0  0  0  0  0  0
    0.0422    0.1294    3.1083 H   0  0  0  0  0  0  0  0  0  0  0  0
    0.2595    0.6078    0.0165 N   0  0  0  0  0  0  0  0  0  0  0  0
    0.2595   -0.5863   -0.6333 N   0  0  0  0  0  0  0  0  0  0  0  0
    0.2595   -0.5863   -1.8993 C   0  0  0  0  0  0  0  0  0  0  0  0
   -0.1937    0.4941    1.1293 H   0  0  0  0  0  0  0  0  0  0  0  0
   -0.1374    1.3882   -0.4958 H   0  0  0  0  0  0  0  0  0  0  0  0
    0.3101   -1.5409   -2.4066 H   0  0  0  0  0  0  0  0  0  0  0  0
    0.2190    0.3286   -2.4980 H   0  0  0  0  0  0  0  0  0  0  0  0
  1  2  1  0
  1  3  1  0
  1  4  1  0
  5  6  1  0
  5  8  1  0
  5  9  1  0
  6  7  2  3
  7 10  1  0
  7 11  1  0
M  RAD  1   1   2
M  END
>  <reaction>  (8) 
rxn_721

>  <mol_properties>  (8) 
{"0": {"label": "*3", "atom_type": "Cs"}, "1": {"label": "*4", "atom_type": "H0"}, "4": {"label": "*1", "atom_type": "N3s"}, "5": {"label": "*0", "atom_type": "N3d"}, "7": {"label": "*2", "atom_type": "H0"}}

>  <type>  (8) 
unop_4

>  <geom_source>  (8) 
Heuristics

$$$$

     RDKit          3D

 11  9  0  0  0  0  0  0  0  0999 V2000
   -0.6816    0.3746    2.3245 C   0  0  0  0  0  3  0  0  0  0  0  0
   -0.6701    1.3433    2.8218 H   0  0  0  0  0  0  0  0  0  0  0  0
   -0.0778   -0.3319    2.8919 H   0  0  0  0  0  0  0  0  0  0  0  0
   -1.7589    0.3841    2.4827 H   0  0  0  0  0  0  0  0  0  0  0  0
    0.2623    0.6113    0.0069 N   0  0  0  0  0  0  0  0  0  0  0  0
    0.2623   -0.5827   -0.6428 N   0  0  0  0  0  0  0  0  0  0  0  0
    0.2623   -0.5827   -1.9089 C   0  0  0  0  0  0  0  0  0  0  0  0
   -0.1909    0.4977    1.1197 H   0  0  0  0  0  0  0  0  0  0  0  0
   -0.1346    1.3917   -0.5054 H   0  0  0  0  0  0  0  0  0  0  0  0
    0.3130   -1.5373   -2.4162 H   0  0  0  0  0  0  0  0  0  0  0  0
    0.2219    0.3322   -2.5075 H   0  0  0  0  0  0  0  0  0  0  0  0
  1  2  1  0
  1  3  1  0
  1  4  1  0
  5  6  1  0
  5  8  1  0
  5  9  1  0
  6  7  2  3
  7 10  1  0
  7 11  1  0
M  RAD  1   1   2
M  END
>  <reaction>  (9) 
rxn_721

>  <mol_properties>  (9) 
{"0": {"label": "*3", "atom_type": "Cs"}, "1": {"label": "*4", "atom_type": "H0"}, "4": {"label": "*1", "atom_type": "N3s"}, "5": {"label": "*0", "atom_type": "N3d"}, "7": {"label": "*2", "atom_type": "H0"}}

>  <type>  (9) 
unop_5

>  <geom_source>  (9) 
Heuristics

$$$$

     RDKit          3D

 11  9  0  0  0  0  0  0  0  0999 V2000
   -0.6852    0.3697    2.3308 C   0  0  0  0  0  3  0  0  0  0  0  0
   -1.7615    0.5329    2.3028 H   0  0  0  0  0  0  0  0  0  0  0  0
   -0.1726    1.3304    2.3410 H   0  0  0  0  0  0  0  0  0  0  0  0
   -0.3703   -0.1983    3.2047 H   0  0  0  0  0  0  0  0  0  0  0  0
    0.2587    0.6065    0.0132 N   0  0  0  0  0  0  0  0  0  0  0  0
    0.2587   -0.5875   -0.6366 N   0  0  0  0  0  0  0  0  0  0  0  0
    0.2587   -0.5875   -1.9026 C   0  0  0  0  0  0  0  0  0  0  0  0
   -0.1945    0.4928    1.1259 H   0  0  0  0  0  0  0  0  0  0  0  0
   -0.1382    1.3869   -0.4991 H   0  0  0  0  0  0  0  0  0  0  0  0
    0.3093   -1.5422   -2.4099 H   0  0  0  0  0  0  0  0  0  0  0  0
    0.2182    0.3273   -2.5013 H   0  0  0  0  0  0  0  0  0  0  0  0
  1  2  1  0
  1  3  1  0
  1  4  1  0
  5  6  1  0
  5  8  1  0
  5  9  1  0
  6  7  2  3
  7 10  1  0
  7 11  1  0
M  RAD  1   1   2
M  END
>  <reaction>  (10) 
rxn_721

>  <mol_properties>  (10) 
{"0": {"label": "*3", "atom_type": "Cs"}, "1": {"label": "*4", "atom_type": "H0"}, "4": {"label": "*1", "atom_type": "N3s"}, "5": {"label": "*0", "atom_type": "N3d"}, "7": {"label": "*2", "atom_type": "H0"}}

>  <type>  (10) 
unop_6

>  <geom_source>  (10) 
Heuristics

$$$$

     RDKit          3D

 11  9  0  0  0  0  0  0  0  0999 V2000
   -0.6869    0.3699    2.3273 C   0  0  0  0  0  3  0  0  0  0  0  0
   -1.5633    1.0081    2.4292 H   0  0  0  0  0  0  0  0  0  0  0  0
    0.2142    0.9672    2.4579 H   0  0  0  0  0  0  0  0  0  0  0  0
   -0.8643   -0.3190    3.1518 H   0  0  0  0  0  0  0  0  0  0  0  0
    0.2570    0.6067    0.0098 N   0  0  0  0  0  0  0  0  0  0  0  0
    0.2570   -0.5874   -0.6400 N   0  0  0  0  0  0  0  0  0  0  0  0
    0.2570   -0.5874   -1.9061 C   0  0  0  0  0  0  0  0  0  0  0  0
   -0.1962    0.4930    1.1225 H   0  0  0  0  0  0  0  0  0  0  0  0
   -0.1398    1.3871   -0.5026 H   0  0  0  0  0  0  0  0  0  0  0  0
    0.3077   -1.5420   -2.4134 H   0  0  0  0  0  0  0  0  0  0  0  0
    0.2166    0.3275   -2.5047 H   0  0  0  0  0  0  0  0  0  0  0  0
  1  2  1  0
  1  3  1  0
  1  4  1  0
  5  6  1  0
  5  8  1  0
  5  9  1  0
  6  7  2  3
  7 10  1  0
  7 11  1  0
M  RAD  1   1   2
M  END
>  <reaction>  (11) 
rxn_721

>  <mol_properties>  (11) 
{"0": {"label": "*3", "atom_type": "Cs"}, "1": {"label": "*4", "atom_type": "H0"}, "4": {"label": "*1", "atom_type": "N3s"}, "5": {"label": "*0", "atom_type": "N3d"}, "7": {"label": "*2", "atom_type": "H0"}}

>  <type>  (11) 
unop_7

>  <geom_source>  (11) 
Heuristics

$$$$

     RDKit          3D

 11  9  0  0  0  0  0  0  0  0999 V2000
   -0.6860    0.3703    2.3302 C   0  0  0  0  0  3  0  0  0  0  0  0
    0.1177    0.1387    3.0276 H   0  0  0  0  0  0  0  0  0  0  0  0
   -1.6388    0.0654    2.7603 H   0  0  0  0  0  0  0  0  0  0  0  0
   -0.7398    1.4311    2.0903 H   0  0  0  0  0  0  0  0  0  0  0  0
    0.2579    0.6070    0.0127 N   0  0  0  0  0  0  0  0  0  0  0  0
    0.2579   -0.5870   -0.6371 N   0  0  0  0  0  0  0  0  0  0  0  0
    0.2579   -0.5870   -1.9032 C   0  0  0  0  0  0  0  0  0  0  0  0
   -0.1953    0.4934    1.1254 H   0  0  0  0  0  0  0  0  0  0  0  0
   -0.1390    1.3874   -0.4997 H   0  0  0  0  0  0  0  0  0  0  0  0
    0.3086   -1.5417   -2.4105 H   0  0  0  0  0  0  0  0  0  0  0  0
    0.2175    0.3279   -2.5018 H   0  0  0  0  0  0  0  0  0  0  0  0
  1  2  1  0
  1  3  1  0
  1  4  1  0
  5  6  1  0
  5  8  1  0
  5  9  1  0
  6  7  2  3
  7 10  1  0
  7 11  1  0
M  RAD  1   1   2
M  END
>  <reaction>  (12) 
rxn_721

>  <mol_properties>  (12) 
{"0": {"label": "*3", "atom_type": "Cs"}, "1": {"label": "*4", "atom_type": "H0"}, "4": {"label": "*1", "atom_type": "N3s"}, "5": {"label": "*0", "atom_type": "N3d"}, "7": {"label": "*2", "atom_type": "H0"}}

>  <type>  (12) 
unop_8

>  <geom_source>  (12) 
Heuristics

$$$$

     RDKit          3D

 11  9  0  0  0  0  0  0  0  0999 V2000
   -0.6839    0.3725    2.3367 C   0  0  0  0  0  3  0  0  0  0  0  0
   -1.4182   -0.4315    2.3492 H   0  0  0  0  0  0  0  0  0  0  0  0
   -1.1972    1.3325    2.3091 H   0  0  0  0  0  0  0  0  0  0  0  0
    0.2404    0.6107    2.8607 H   0  0  0  0  0  0  0  0  0  0  0  0
    0.2599    0.6093    0.0191 N   0  0  0  0  0  0  0  0  0  0  0  0
    0.2599   -0.5848   -0.6307 N   0  0  0  0  0  0  0  0  0  0  0  0
    0.2599   -0.5848   -1.8967 C   0  0  0  0  0  0  0  0  0  0  0  0
   -0.1933    0.4956    1.1319 H   0  0  0  0  0  0  0  0  0  0  0  0
   -0.1369    1.3897   -0.4932 H   0  0  0  0  0  0  0  0  0  0  0  0
    0.3106   -1.5394   -2.4040 H   0  0  0  0  0  0  0  0  0  0  0  0
    0.2195    0.3301   -2.4954 H   0  0  0  0  0  0  0  0  0  0  0  0
  1  2  1  0
  1  3  1  0
  1  4  1  0
  5  6  1  0
  5  8  1  0
  5  9  1  0
  6  7  2  3
  7 10  1  0
  7 11  1  0
M  RAD  1   1   2
M  END
>  <reaction>  (13) 
rxn_721

>  <mol_properties>  (13) 
{"0": {"label": "*3", "atom_type": "Cs"}, "1": {"label": "*4", "atom_type": "H0"}, "4": {"label": "*1", "atom_type": "N3s"}, "5": {"label": "*0", "atom_type": "N3d"}, "7": {"label": "*2", "atom_type": "H0"}}

>  <type>  (13) 
unop_9

>  <geom_source>  (13) 
Heuristics

$$$$

     RDKit          3D

 11  9  0  0  0  0  0  0  0  0999 V2000
   -0.6861    0.3735    2.3321 C   0  0  0  0  0  3  0  0  0  0  0  0
   -0.0823   -0.3330    2.8995 H   0  0  0  0  0  0  0  0  0  0  0  0
   -1.7079    0.3620    2.7084 H   0  0  0  0  0  0  0  0  0  0  0  0
   -0.4635    1.4266    2.1673 H   0  0  0  0  0  0  0  0  0  0  0  0
    0.2578    0.6103    0.0145 N   0  0  0  0  0  0  0  0  0  0  0  0
    0.2578   -0.5838   -0.6353 N   0  0  0  0  0  0  0  0  0  0  0  0
    0.2578   -0.5838   -1.9013 C   0  0  0  0  0  0  0  0  0  0  0  0
   -0.1954    0.4966    1.1273 H   0  0  0  0  0  0  0  0  0  0  0  0
   -0.1391    1.3907   -0.4978 H   0  0  0  0  0  0  0  0  0  0  0  0
    0.3084   -1.5384   -2.4086 H   0  0  0  0  0  0  0  0  0  0  0  0
    0.2173    0.3311   -2.5000 H   0  0  0  0  0  0  0  0  0  0  0  0
  1  2  1  0
  1  3  1  0
  1  4  1  0
  5  6  1  0
  5  8  1  0
  5  9  1  0
  6  7  2  3
  7 10  1  0
  7 11  1  0
M  RAD  1   1   2
M  END
>  <reaction>  (14) 
rxn_721

>  <mol_properties>  (14) 
{"0": {"label": "*3", "atom_type": "Cs"}, "1": {"label": "*4", "atom_type": "H0"}, "4": {"label": "*1", "atom_type": "N3s"}, "5": {"label": "*0", "atom_type": "N3d"}, "7": {"label": "*2", "atom_type": "H0"}}

>  <type>  (14) 
unop_10

>  <geom_source>  (14) 
Heuristics

$$$$

     RDKit          3D

 11  9  0  0  0  0  0  0  0  0999 V2000
   -0.6869    0.3728    2.3243 C   0  0  0  0  0  3  0  0  0  0  0  0
   -1.1652    1.3058    2.6185 H   0  0  0  0  0  0  0  0  0  0  0  0
    0.3508    0.3771    2.6542 H   0  0  0  0  0  0  0  0  0  0  0  0
   -1.3959   -0.1868    2.9326 H   0  0  0  0  0  0  0  0  0  0  0  0
    0.2570    0.6095    0.0068 N   0  0  0  0  0  0  0  0  0  0  0  0
    0.2570   -0.5845   -0.6430 N   0  0  0  0  0  0  0  0  0  0  0  0
    0.2570   -0.5845   -1.9091 C   0  0  0  0  0  0  0  0  0  0  0  0
   -0.1962    0.4959    1.1195 H   0  0  0  0  0  0  0  0  0  0  0  0
   -0.1399    1.3899   -0.5056 H   0  0  0  0  0  0  0  0  0  0  0  0
    0.3076   -1.5392   -2.4163 H   0  0  0  0  0  0  0  0  0  0  0  0
    0.2165    0.3304   -2.5077 H   0  0  0  0  0  0  0  0  0  0  0  0
  1  2  1  0
  1  3  1  0
  1  4  1  0
  5  6  1  0
  5  8  1  0
  5  9  1  0
  6  7  2  3
  7 10  1  0
  7 11  1  0
M  RAD  1   1   2
M  END
>  <reaction>  (15) 
rxn_721

>  <mol_properties>  (15) 
{"0": {"label": "*3", "atom_type": "Cs"}, "1": {"label": "*4", "atom_type": "H0"}, "4": {"label": "*1", "atom_type": "N3s"}, "5": {"label": "*0", "atom_type": "N3d"}, "7": {"label": "*2", "atom_type": "H0"}}

>  <type>  (15) 
unop_11

>  <geom_source>  (15) 
Heuristics

$$$$

     RDKit          3D

 11  9  0  0  0  0  0  0  0  0999 V2000
   -0.6835    0.3742    2.3371 C   0  0  0  0  0  3  0  0  0  0  0  0
   -0.9676   -0.6628    2.5091 H   0  0  0  0  0  0  0  0  0  0  0  0
   -1.5600    1.0124    2.4390 H   0  0  0  0  0  0  0  0  0  0  0  0
    0.1293    1.0675    2.5478 H   0  0  0  0  0  0  0  0  0  0  0  0
    0.2604    0.6110    0.0195 N   0  0  0  0  0  0  0  0  0  0  0  0
    0.2604   -0.5831   -0.6302 N   0  0  0  0  0  0  0  0  0  0  0  0
    0.2604   -0.5831   -1.8963 C   0  0  0  0  0  0  0  0  0  0  0  0
   -0.1928    0.4973    1.1323 H   0  0  0  0  0  0  0  0  0  0  0  0
   -0.1365    1.3914   -0.4928 H   0  0  0  0  0  0  0  0  0  0  0  0
    0.3110   -1.5377   -2.4036 H   0  0  0  0  0  0  0  0  0  0  0  0
    0.2199    0.3318   -2.4949 H   0  0  0  0  0  0  0  0  0  0  0  0
  1  2  1  0
  1  3  1  0
  1  4  1  0
  5  6  1  0
  5  8  1  0
  5  9  1  0
  6  7  2  3
  7 10  1  0
  7 11  1  0
M  RAD  1   1   2
M  END
>  <reaction>  (16) 
rxn_721

>  <mol_properties>  (16) 
{"0": {"label": "*3", "atom_type": "Cs"}, "1": {"label": "*4", "atom_type": "H0"}, "4": {"label": "*1", "atom_type": "N3s"}, "5": {"label": "*0", "atom_type": "N3d"}, "7": {"label": "*2", "atom_type": "H0"}}

>  <type>  (16) 
unop_12

>  <geom_source>  (16) 
Heuristics

$$$$
