
     RDKit          3D

  9  8  0  0  0  0  0  0  0  0999 V2000
    1.1303   -0.2933   -0.7510 C   0  0  0  0  0  0  0  0  0  0  0  0
    0.2866    0.4560   -0.0588 C   0  0  0  0  0  0  0  0  0  0  0  0
   -0.9719   -0.0331    0.5823 C   0  0  0  0  0  0  0  0  0  0  0  0
    2.0274    0.1230   -1.1916 H   0  0  0  0  0  0  0  0  0  0  0  0
    0.9532   -1.3530   -0.9023 H   0  0  0  0  0  0  0  0  0  0  0  0
    0.5065    1.5132    0.0659 H   0  0  0  0  0  0  0  0  0  0  0  0
   -0.9526    0.1426    1.6610 H   0  0  0  0  0  0  0  0  0  0  0  0
   -1.1182   -1.1002    0.4106 H   0  0  0  0  0  0  0  0  0  0  0  0
   -1.8412    0.5010    0.1901 H   0  0  0  0  0  0  0  0  0  0  0  0
  1  2  2  3
  1  4  1  0
  1  5  1  0
  2  3  1  0
  2  6  1  0
  3  7  1  0
  3  8  1  0
  3  9  1  0
M  END
>  <reaction>  (1) 
rxn_999

>  <mol_properties>  (1) 
{"2": {"label": "donator", "atom_type": "Cs"}, "6": {"label": "d_hydrogen", "atom_type": "H0"}}

>  <type>  (1) 
r1h

$$$$

     RDKit          3D

 13 12  0  0  0  0  0  0  0  0999 V2000
   -1.3649   -0.5967   -0.3477 C   0  0  0  0  0  0  0  0  0  0  0  0
   -0.1601   -0.2776    0.4669 C   0  0  0  0  0  3  0  0  0  0  0  0
    1.1241   -0.9571    0.1414 C   0  0  0  0  0  0  0  0  0  0  0  0
   -0.1188    1.0130    1.2082 C   0  0  0  0  0  0  0  0  0  0  0  0
   -1.4265   -1.6632   -0.5770 H   0  0  0  0  0  0  0  0  0  0  0  0
   -2.2859   -0.3004    0.1602 H   0  0  0  0  0  0  0  0  0  0  0  0
   -1.3532   -0.0668   -1.3139 H   0  0  0  0  0  0  0  0  0  0  0  0
    1.6174   -0.4963   -0.7297 H   0  0  0  0  0  0  0  0  0  0  0  0
    0.9723   -2.0104   -0.1064 H   0  0  0  0  0  0  0  0  0  0  0  0
    1.8338   -0.8977    0.9701 H   0  0  0  0  0  0  0  0  0  0  0  0
   -1.0851    1.2507    1.6593 H   0  0  0  0  0  0  0  0  0  0  0  0
    0.6358    1.0009    1.9983 H   0  0  0  0  0  0  0  0  0  0  0  0
    0.1343    1.8546    0.5434 H   0  0  0  0  0  0  0  0  0  0  0  0
  1  2  1  0
  1  5  1  0
  1  6  1  0
  1  7  1  0
  2  3  1  0
  2  4  1  0
  3  8  1  0
  3  9  1  0
  3 10  1  0
  4 11  1  0
  4 12  1  0
  4 13  1  0
M  RAD  1   2   2
M  END
>  <reaction>  (2) 
rxn_999

>  <mol_properties>  (2) 
{"1": {"label": "acceptor", "atom_type": "Cs"}}

>  <type>  (2) 
r2

$$$$

     RDKit          3D

 14 13  0  0  0  0  0  0  0  0999 V2000
   -0.7647   -1.2352   -0.0349 C   0  0  0  0  0  0  0  0  0  0  0  0
    0.0570   -0.0126    0.3624 C   0  0  0  0  0  0  0  0  0  0  0  0
    1.4162   -0.0194   -0.3307 C   0  0  0  0  0  0  0  0  0  0  0  0
   -0.7022    1.2765    0.0630 C   0  0  0  0  0  0  0  0  0  0  0  0
   -0.2387   -2.1619    0.2038 H   0  0  0  0  0  0  0  0  0  0  0  0
   -0.9625   -1.2315   -1.1108 H   0  0  0  0  0  0  0  0  0  0  0  0
   -1.7273   -1.2512    0.4806 H   0  0  0  0  0  0  0  0  0  0  0  0
    0.2294   -0.0590    1.4432 H   0  0  0  0  0  0  0  0  0  0  0  0
    1.2933    0.0259   -1.4168 H   0  0  0  0  0  0  0  0  0  0  0  0
    2.0206    0.8382   -0.0278 H   0  0  0  0  0  0  0  0  0  0  0  0
    1.9768   -0.9268   -0.0965 H   0  0  0  0  0  0  0  0  0  0  0  0
   -1.6639    1.3000    0.5798 H   0  0  0  0  0  0  0  0  0  0  0  0
   -0.8976    1.3665   -1.0096 H   0  0  0  0  0  0  0  0  0  0  0  0
   -0.1314    2.1545    0.3723 H   0  0  0  0  0  0  0  0  0  0  0  0
  1  2  1  0
  1  5  1  0
  1  6  1  0
  1  7  1  0
  2  3  1  0
  2  4  1  0
  2  8  1  0
  3  9  1  0
  3 10  1  0
  3 11  1  0
  4 12  1  0
  4 13  1  0
  4 14  1  0
M  END
>  <reaction>  (3) 
rxn_999

>  <mol_properties>  (3) 
{"0": {"label": "a_hydrogen", "atom_type": "H0"}, "2": {"label": "acceptor", "atom_type": "Cs"}}

>  <type>  (3) 
r2h

$$$$

     RDKit          3D

 22 20  0  0  0  0  0  0  0  0999 V2000
    0.9799   -1.1606   -2.4311 C   0  0  0  0  0  0  0  0  0  0  0  0
    1.5318   -0.8529   -1.2534 C   0  0  0  0  0  0  0  0  0  0  0  0
    1.4718    0.4531   -0.6129 C   0  0  0  0  0  0  0  0  0  0  0  0
    1.0250   -2.1646   -2.8322 H   0  0  0  0  0  0  0  0  0  0  0  0
    0.4774   -0.4095   -3.0313 H   0  0  0  0  0  0  0  0  0  0  0  0
    2.0231   -1.6441   -0.6930 H   0  0  0  0  0  0  0  0  0  0  0  0
    0.4228    0.4455    0.1843 H   0  0  0  0  0  0  0  0  0  0  0  0
    1.2422    1.2844   -1.2774 H   0  0  0  0  0  0  0  0  0  0  0  0
    2.2862    0.6803    0.0710 H   0  0  0  0  0  0  0  0  0  0  0  0
   -0.6314    1.5382    1.8910 C   0  0  0  0  0  0  0  0  0  0  0  0
   -0.7318    0.3857    0.9272 C   0  0  0  0  0  3  0  0  0  0  0  0
   -0.6368   -0.9811    1.5509 C   0  0  0  0  0  0  0  0  0  0  0  0
   -1.8042    0.5210   -0.1214 C   0  0  0  0  0  0  0  0  0  0  0  0
    0.2438    1.4417    2.5371 H   0  0  0  0  0  0  0  0  0  0  0  0
   -0.5634    2.4925    1.3640 H   0  0  0  0  0  0  0  0  0  0  0  0
   -1.5152    1.5839    2.5397 H   0  0  0  0  0  0  0  0  0  0  0  0
   -1.5343   -1.2073    2.1398 H   0  0  0  0  0  0  0  0  0  0  0  0
    0.2234   -1.0550    2.2199 H   0  0  0  0  0  0  0  0  0  0  0  0
   -0.5421   -1.7545    0.7850 H   0  0  0  0  0  0  0  0  0  0  0  0
   -1.7524    1.4912   -0.6204 H   0  0  0  0  0  0  0  0  0  0  0  0
   -1.7096   -0.2591   -0.8800 H   0  0  0  0  0  0  0  0  0  0  0  0
   -2.8027    0.4320    0.3248 H   0  0  0  0  0  0  0  0  0  0  0  0
  1  2  2  3
  1  4  1  0
  1  5  1  0
  2  3  1  0
  2  6  1  0
  3  7  1  0
  3  8  1  0
  3  9  1  0
 10 11  1  0
 10 14  1  0
 10 15  1  0
 10 16  1  0
 11 12  1  0
 11 13  1  0
 12 17  1  0
 12 18  1  0
 12 19  1  0
 13 20  1  0
 13 21  1  0
 13 22  1  0
M  RAD  1  11   2
M  END
>  <reaction>  (4) 
rxn_999

>  <mol_properties>  (4) 
{"1": {"label": "*0", "atom_type": "Cd"}, "2": {"label": "*1", "atom_type": "Cs"}, "6": {"label": "*2", "atom_type": "H0"}, "9": {"label": "*4", "atom_type": "Cs"}, "10": {"label": "*3", "atom_type": "Cs"}}

>  <type>  (4) 
ts

$$$$

     RDKit          3D

 22 20  0  0  0  0  0  0  0  0999 V2000
    1.3519   -1.0482   -2.7831 C   0  0  0  0  0  0  0  0  0  0  0  0
    1.3519   -1.0482   -1.4593 C   0  0  0  0  0  0  0  0  0  0  0  0
    1.3519    0.1740   -0.5988 C   0  0  0  0  0  0  0  0  0  0  0  0
    1.3519   -1.9710   -3.3496 H   0  0  0  0  0  0  0  0  0  0  0  0
    1.3519   -0.1226   -3.3491 H   0  0  0  0  0  0  0  0  0  0  0  0
    1.3519   -2.0009   -0.9358 H   0  0  0  0  0  0  0  0  0  0  0  0
    0.2986    0.1945    0.1826 H   0  0  0  0  0  0  0  0  0  0  0  0
    1.3519    1.0844   -1.1994 H   0  0  0  0  0  0  0  0  0  0  0  0
    2.2296    0.1911    0.0524 H   0  0  0  0  0  0  0  0  0  0  0  0
   -0.2690    0.2313    2.4113 C   0  0  0  0  0  0  0  0  0  0  0  0
   -0.7569    0.2151    0.9658 C   0  0  0  0  0  3  0  0  0  0  0  0
   -2.1731   -0.3450    0.8738 C   0  0  0  0  0  0  0  0  0  0  0  0
   -0.6793    1.6078    0.3476 C   0  0  0  0  0  0  0  0  0  0  0  0
   -0.2947   -0.7683    2.8503 H   0  0  0  0  0  0  0  0  0  0  0  0
    0.7552    0.6039    2.4804 H   0  0  0  0  0  0  0  0  0  0  0  0
   -0.9022    0.8807    3.0228 H   0  0  0  0  0  0  0  0  0  0  0  0
   -2.8718    0.2845    1.4327 H   0  0  0  0  0  0  0  0  0  0  0  0
   -2.2289   -1.3537    1.2883 H   0  0  0  0  0  0  0  0  0  0  0  0
   -2.5173   -0.3863   -0.1618 H   0  0  0  0  0  0  0  0  0  0  0  0
    0.3383    2.0023    0.3844 H   0  0  0  0  0  0  0  0  0  0  0  0
   -0.9995    1.5973   -0.6963 H   0  0  0  0  0  0  0  0  0  0  0  0
   -1.3269    2.3043    0.8882 H   0  0  0  0  0  0  0  0  0  0  0  0
  1  2  2  3
  1  4  1  0
  1  5  1  0
  2  3  1  0
  2  6  1  0
  3  7  1  0
  3  8  1  0
  3  9  1  0
 10 11  1  0
 10 14  1  0
 10 15  1  0
 10 16  1  0
 11 12  1  0
 11 13  1  0
 12 17  1  0
 12 18  1  0
 12 19  1  0
 13 20  1  0
 13 21  1  0
 13 22  1  0
M  RAD  1  11   2
M  END
>  <reaction>  (5) 
rxn_999

>  <mol_properties>  (5) 
{"1": {"label": "*0", "atom_type": "Cd"}, "2": {"label": "*1", "atom_type": "Cs"}, "6": {"label": "*2", "atom_type": "H0"}, "9": {"label": "*4", "atom_type": "Cs"}, "10": {"label": "*3", "atom_type": "Cs"}}

>  <type>  (5) 
unop_1

>  <geom_source>  (5) 
Heuristics

$$$$

     RDKit          3D

 22 20  0  0  0  0  0  0  0  0999 V2000
    1.3486   -0.9131   -2.8475 C   0  0  0  0  0  0  0  0  0  0  0  0
    1.3486   -0.9131   -1.5237 C   0  0  0  0  0  0  0  0  0  0  0  0
    1.3486    0.3091   -0.6632 C   0  0  0  0  0  0  0  0  0  0  0  0
    1.3486   -1.8358   -3.4140 H   0  0  0  0  0  0  0  0  0  0  0  0
    1.3486    0.0125   -3.4135 H   0  0  0  0  0  0  0  0  0  0  0  0
    1.3486   -1.8657   -1.0002 H   0  0  0  0  0  0  0  0  0  0  0  0
    0.2953    0.3296    0.1182 H   0  0  0  0  0  0  0  0  0  0  0  0
    1.3486    1.2195   -1.2638 H   0  0  0  0  0  0  0  0  0  0  0  0
    2.2263    0.3262   -0.0120 H   0  0  0  0  0  0  0  0  0  0  0  0
   -1.1503   -1.0939    1.2018 C   0  0  0  0  0  0  0  0  0  0  0  0
   -0.7602    0.3502    0.9014 C   0  0  0  0  0  3  0  0  0  0  0  0
   -1.9912    1.1934    0.5829 C   0  0  0  0  0  0  0  0  0  0  0  0
    0.0309    0.9540    2.0579 C   0  0  0  0  0  0  0  0  0  0  0  0
   -1.6918   -1.5411    0.3656 H   0  0  0  0  0  0  0  0  0  0  0  0
   -0.2707   -1.7093    1.4020 H   0  0  0  0  0  0  0  0  0  0  0  0
   -1.7979   -1.1412    2.0822 H   0  0  0  0  0  0  0  0  0  0  0  0
   -2.6678    1.2245    1.4419 H   0  0  0  0  0  0  0  0  0  0  0  0
   -2.5459    0.7824   -0.2632 H   0  0  0  0  0  0  0  0  0  0  0  0
   -1.7159    2.2215    0.3384 H   0  0  0  0  0  0  0  0  0  0  0  0
    0.9290    0.3708    2.2717 H   0  0  0  0  0  0  0  0  0  0  0  0
    0.3385    1.9782    1.8366 H   0  0  0  0  0  0  0  0  0  0  0  0
   -0.5763    0.9772    2.9675 H   0  0  0  0  0  0  0  0  0  0  0  0
  1  2  2  3
  1  4  1  0
  1  5  1  0
  2  3  1  0
  2  6  1  0
  3  7  1  0
  3  8  1  0
  3  9  1  0
 10 11  1  0
 10 14  1  0
 10 15  1  0
 10 16  1  0
 11 12  1  0
 11 13  1  0
 12 17  1  0
 12 18  1  0
 12 19  1  0
 13 20  1  0
 13 21  1  0
 13 22  1  0
M  RAD  1  11   2
M  END
>  <reaction>  (6) 
rxn_999

>  <mol_properties>  (6) 
{"1": {"label": "*0", "atom_type": "Cd"}, "2": {"label": "*1", "atom_type": "Cs"}, "6": {"label": "*2", "atom_type": "H0"}, "9": {"label": "*4", "atom_type": "Cs"}, "10": {"label": "*3", "atom_type": "Cs"}}

>  <type>  (6) 
unop_2

>  <geom_source>  (6) 
Heuristics

$$$$

     RDKit          3D

 22 20  0  0  0  0  0  0  0  0999 V2000
    1.4034   -1.0031   -2.7513 C   0  0  0  0  0  0  0  0  0  0  0  0
    1.4034   -1.0031   -1.4276 C   0  0  0  0  0  0  0  0  0  0  0  0
    1.4034    0.2191   -0.5671 C   0  0  0  0  0  0  0  0  0  0  0  0
    1.4034   -1.9258   -3.3178 H   0  0  0  0  0  0  0  0  0  0  0  0
    1.4034   -0.0775   -3.3173 H   0  0  0  0  0  0  0  0  0  0  0  0
    1.4034   -1.9557   -0.9041 H   0  0  0  0  0  0  0  0  0  0  0  0
    0.3502    0.2396    0.2144 H   0  0  0  0  0  0  0  0  0  0  0  0
    1.4034    1.1295   -1.1677 H   0  0  0  0  0  0  0  0  0  0  0  0
    2.2811    0.2362    0.0842 H   0  0  0  0  0  0  0  0  0  0  0  0
   -0.3268    1.0009    2.2766 C   0  0  0  0  0  0  0  0  0  0  0  0
   -0.7054    0.2602    0.9976 C   0  0  0  0  0  3  0  0  0  0  0  0
   -1.6823   -0.8741    1.2923 C   0  0  0  0  0  0  0  0  0  0  0  0
   -1.2802    1.2202   -0.0396 C   0  0  0  0  0  0  0  0  0  0  0  0
    0.1122    0.3239    3.0124 H   0  0  0  0  0  0  0  0  0  0  0  0
    0.3949    1.7956    2.0763 H   0  0  0  0  0  0  0  0  0  0  0  0
   -1.2104    1.4593    2.7304 H   0  0  0  0  0  0  0  0  0  0  0  0
   -2.6123   -0.4802    1.7124 H   0  0  0  0  0  0  0  0  0  0  0  0
   -1.2645   -1.5809    2.0124 H   0  0  0  0  0  0  0  0  0  0  0  0
   -1.9345   -1.4267    0.3847 H   0  0  0  0  0  0  0  0  0  0  0  0
   -0.5737    2.0185   -0.2763 H   0  0  0  0  0  0  0  0  0  0  0  0
   -1.5259    0.7008   -0.9683 H   0  0  0  0  0  0  0  0  0  0  0  0
   -2.1966    1.6858    0.3346 H   0  0  0  0  0  0  0  0  0  0  0  0
  1  2  2  3
  1  4  1  0
  1  5  1  0
  2  3  1  0
  2  6  1  0
  3  7  1  0
  3  8  1  0
  3  9  1  0
 10 11  1  0
 10 14  1  0
 10 15  1  0
 10 16  1  0
 11 12  1  0
 11 13  1  0
 12 17  1  0
 12 18  1  0
 12 19  1  0
 13 20  1  0
 13 21  1  0
 13 22  1  0
M  RAD  1  11   2
M  END
>  <reaction>  (7) 
rxn_999

>  <mol_properties>  (7) 
{"1": {"label": "*0", "atom_type": "Cd"}, "2": {"label": "*1", "atom_type": "Cs"}, "6": {"label": "*2", "atom_type": "H0"}, "9": {"label": "*4", "atom_type": "Cs"}, "10": {"label": "*3", "atom_type": "Cs"}}

>  <type>  (7) 
unop_3

>  <geom_source>  (7) 
Heuristics

$$$$

     RDKit          3D

 22 20  0  0  0  0  0  0  0  0999 V2000
    1.3772   -1.0280   -2.7722 C   0  0  0  0  0  0  0  0  0  0  0  0
    1.3772   -1.0280   -1.4484 C   0  0  0  0  0  0  0  0  0  0  0  0
    1.3772    0.1942   -0.5879 C   0  0  0  0  0  0  0  0  0  0  0  0
    1.3772   -1.9507   -3.3387 H   0  0  0  0  0  0  0  0  0  0  0  0
    1.3772   -0.1024   -3.3382 H   0  0  0  0  0  0  0  0  0  0  0  0
    1.3772   -1.9806   -0.9249 H   0  0  0  0  0  0  0  0  0  0  0  0
    0.3240    0.2148    0.1935 H   0  0  0  0  0  0  0  0  0  0  0  0
    1.3772    1.1047   -1.1885 H   0  0  0  0  0  0  0  0  0  0  0  0
    2.2549    0.2113    0.0633 H   0  0  0  0  0  0  0  0  0  0  0  0
   -1.9737    0.2338    0.0908 C   0  0  0  0  0  0  0  0  0  0  0  0
   -0.7316    0.2353    0.9767 C   0  0  0  0  0  3  0  0  0  0  0  0
   -0.2225    1.6560    1.2009 C   0  0  0  0  0  0  0  0  0  0  0  0
   -1.0078   -0.4618    2.3055 C   0  0  0  0  0  0  0  0  0  0  0  0
   -1.7742    0.7058   -0.8736 H   0  0  0  0  0  0  0  0  0  0  0  0
   -2.3259   -0.7825   -0.0974 H   0  0  0  0  0  0  0  0  0  0  0  0
   -2.7877    0.7856    0.5702 H   0  0  0  0  0  0  0  0  0  0  0  0
   -0.9763    2.2566    1.7183 H   0  0  0  0  0  0  0  0  0  0  0  0
    0.0049    2.1504    0.2541 H   0  0  0  0  0  0  0  0  0  0  0  0
    0.6836    1.6615    1.8104 H   0  0  0  0  0  0  0  0  0  0  0  0
   -1.3450   -1.4891    2.1523 H   0  0  0  0  0  0  0  0  0  0  0  0
   -0.1140   -0.4900    2.9323 H   0  0  0  0  0  0  0  0  0  0  0  0
   -1.7883    0.0663    2.8610 H   0  0  0  0  0  0  0  0  0  0  0  0
  1  2  2  3
  1  4  1  0
  1  5  1  0
  2  3  1  0
  2  6  1  0
  3  7  1  0
  3  8  1  0
  3  9  1  0
 10 11  1  0
 10 14  1  0
 10 15  1  0
 10 16  1  0
 11 12  1  0
 11 13  1  0
 12 17  1  0
 12 18  1  0
 12 19  1  0
 13 20  1  0
 13 21  1  0
 13 22  1  0
M  RAD  1  11   2
M  END
>  <reaction>  (8) 
rxn_999

>  <mol_properties>  (8) 
{"1": {"label": "*0", "atom_type": "Cd"}, "2": {"label": "*1", "atom_type": "Cs"}, "6": {"label": "*2", "atom_type": "H0"}, "9": {"label": "*4", "atom_type": "Cs"}, "10": {"label": "*3", "atom_type": "Cs"}}

>  <type>  (8) 
unop_4

>  <geom_source>  (8) 
Heuristics

$$$$

     RDKit          3D

 22 20  0  0  0  0  0  0  0  0999 V2000
    1.3967   -0.9161   -2.7997 C   0  0  0  0  0  0  0  0  0  0  0  0
    1.3967   -0.9161   -1.4760 C   0  0  0  0  0  0  0  0  0  0  0  0
    1.3967    0.3060   -0.6154 C   0  0  0  0  0  0  0  0  0  0  0  0
    1.3967   -1.8389   -3.3662 H   0  0  0  0  0  0  0  0  0  0  0  0
    1.3967    0.0094   -3.3657 H   0  0  0  0  0  0  0  0  0  0  0  0
    1.3967   -1.8688   -0.9524 H   0  0  0  0  0  0  0  0  0  0  0  0
    0.3435    0.3266    0.1660 H   0  0  0  0  0  0  0  0  0  0  0  0
    1.3967    1.2165   -1.2160 H   0  0  0  0  0  0  0  0  0  0  0  0
    2.2744    0.3231    0.0358 H   0  0  0  0  0  0  0  0  0  0  0  0
   -0.6454    1.6159    1.7939 C   0  0  0  0  0  0  0  0  0  0  0  0
   -0.7121    0.3472    0.9492 C   0  0  0  0  0  3  0  0  0  0  0  0
   -0.6679   -0.8981    1.8297 C   0  0  0  0  0  0  0  0  0  0  0  0
   -1.9542    0.3457    0.0633 C   0  0  0  0  0  0  0  0  0  0  0  0
    0.2567    1.6365    2.4090 H   0  0  0  0  0  0  0  0  0  0  0  0
   -0.6471    2.5105    1.1676 H   0  0  0  0  0  0  0  0  0  0  0  0
   -1.5078    1.6764    2.4643 H   0  0  0  0  0  0  0  0  0  0  0  0
   -1.5309   -0.9239    2.5014 H   0  0  0  0  0  0  0  0  0  0  0  0
    0.2339   -0.9173    2.4452 H   0  0  0  0  0  0  0  0  0  0  0  0
   -0.6860   -1.8099    1.2290 H   0  0  0  0  0  0  0  0  0  0  0  0
   -1.9768    1.2203   -0.5903 H   0  0  0  0  0  0  0  0  0  0  0  0
   -1.9924   -0.5463   -0.5655 H   0  0  0  0  0  0  0  0  0  0  0  0
   -2.8615    0.3623    0.6743 H   0  0  0  0  0  0  0  0  0  0  0  0
  1  2  2  3
  1  4  1  0
  1  5  1  0
  2  3  1  0
  2  6  1  0
  3  7  1  0
  3  8  1  0
  3  9  1  0
 10 11  1  0
 10 14  1  0
 10 15  1  0
 10 16  1  0
 11 12  1  0
 11 13  1  0
 12 17  1  0
 12 18  1  0
 12 19  1  0
 13 20  1  0
 13 21  1  0
 13 22  1  0
M  RAD  1  11   2
M  END
>  <reaction>  (9) 
rxn_999

>  <mol_properties>  (9) 
{"1": {"label": "*0", "atom_type": "Cd"}, "2": {"label": "*1", "atom_type": "Cs"}, "6": {"label": "*2", "atom_type": "H0"}, "9": {"label": "*4", "atom_type": "Cs"}, "10": {"label": "*3", "atom_type": "Cs"}}

>  <type>  (9) 
unop_5

>  <geom_source>  (9) 
Heuristics

$$$$

     RDKit          3D

 22 20  0  0  0  0  0  0  0  0999 V2000
    1.3274   -1.0388   -2.8150 C   0  0  0  0  0  0  0  0  0  0  0  0
    1.3274   -1.0388   -1.4913 C   0  0  0  0  0  0  0  0  0  0  0  0
    1.3274    0.1834   -0.6308 C   0  0  0  0  0  0  0  0  0  0  0  0
    1.3274   -1.9615   -3.3815 H   0  0  0  0  0  0  0  0  0  0  0  0
    1.3274   -0.1132   -3.3810 H   0  0  0  0  0  0  0  0  0  0  0  0
    1.3274   -1.9914   -0.9678 H   0  0  0  0  0  0  0  0  0  0  0  0
    0.2742    0.2039    0.1507 H   0  0  0  0  0  0  0  0  0  0  0  0
    1.3274    1.0939   -1.2314 H   0  0  0  0  0  0  0  0  0  0  0  0
    2.2051    0.2005    0.0204 H   0  0  0  0  0  0  0  0  0  0  0  0
   -1.9012    0.9499    0.1938 C   0  0  0  0  0  0  0  0  0  0  0  0
   -0.7814    0.2245    0.9339 C   0  0  0  0  0  3  0  0  0  0  0  0
    0.2062    1.2177    1.5389 C   0  0  0  0  0  0  0  0  0  0  0  0
   -1.3466   -0.7044    2.0041 C   0  0  0  0  0  0  0  0  0  0  0  0
   -1.5044    1.5946   -0.5933 H   0  0  0  0  0  0  0  0  0  0  0  0
   -2.5954    0.2438   -0.2665 H   0  0  0  0  0  0  0  0  0  0  0  0
   -2.4726    1.5783    0.8832 H   0  0  0  0  0  0  0  0  0  0  0  0
   -0.2929    1.8554    2.2745 H   0  0  0  0  0  0  0  0  0  0  0  0
    0.6364    1.8665    0.7731 H   0  0  0  0  0  0  0  0  0  0  0  0
    1.0260    0.7039    2.0453 H   0  0  0  0  0  0  0  0  0  0  0  0
   -2.0323   -1.4366    1.5726 H   0  0  0  0  0  0  0  0  0  0  0  0
   -0.5513   -1.2487    2.5177 H   0  0  0  0  0  0  0  0  0  0  0  0
   -1.8987   -0.1327    2.7558 H   0  0  0  0  0  0  0  0  0  0  0  0
  1  2  2  3
  1  4  1  0
  1  5  1  0
  2  3  1  0
  2  6  1  0
  3  7  1  0
  3  8  1  0
  3  9  1  0
 10 11  1  0
 10 14  1  0
 10 15  1  0
 10 16  1  0
 11 12  1  0
 11 13  1  0
 12 17  1  0
 12 18  1  0
 12 19  1  0
 13 20  1  0
 13 21  1  0
 13 22  1  0
M  RAD  1  11   2
M  END
>  <reaction>  (10) 
rxn_999

>  <mol_properties>  (10) 
{"1": {"label": "*0", "atom_type": "Cd"}, "2": {"label": "*1", "atom_type": "Cs"}, "6": {"label": "*2", "atom_type": "H0"}, "9": {"label": "*4", "atom_type": "Cs"}, "10": {"label": "*3", "atom_type": "Cs"}}

>  <type>  (10) 
unop_6

>  <geom_source>  (10) 
Heuristics

$$$$

     RDKit          3D

 22 20  0  0  0  0  0  0  0  0999 V2000
    1.2966   -0.9947   -2.8591 C   0  0  0  0  0  0  0  0  0  0  0  0
    1.2966   -0.9947   -1.5353 C   0  0  0  0  0  0  0  0  0  0  0  0
    1.2966    0.2275   -0.6748 C   0  0  0  0  0  0  0  0  0  0  0  0
    1.2966   -1.9175   -3.4255 H   0  0  0  0  0  0  0  0  0  0  0  0
    1.2966   -0.0691   -3.4251 H   0  0  0  0  0  0  0  0  0  0  0  0
    1.2966   -1.9474   -1.0118 H   0  0  0  0  0  0  0  0  0  0  0  0
    0.2433    0.2480    0.1067 H   0  0  0  0  0  0  0  0  0  0  0  0
    1.2966    1.1379   -1.2754 H   0  0  0  0  0  0  0  0  0  0  0  0
    2.1743    0.2446   -0.0236 H   0  0  0  0  0  0  0  0  0  0  0  0
   -1.6106    1.5285    0.5689 C   0  0  0  0  0  0  0  0  0  0  0  0
   -0.8122    0.2686    0.8898 C   0  0  0  0  0  3  0  0  0  0  0  0
    0.3740    0.5894    1.7941 C   0  0  0  0  0  0  0  0  0  0  0  0
   -1.7045   -0.7982    1.5174 C   0  0  0  0  0  0  0  0  0  0  0  0
   -0.9837    2.2853    0.0927 H   0  0  0  0  0  0  0  0  0  0  0  0
   -2.4442    1.3102   -0.1019 H   0  0  0  0  0  0  0  0  0  0  0  0
   -2.0235    1.9645    1.4833 H   0  0  0  0  0  0  0  0  0  0  0  0
    0.0293    0.9933    2.7505 H   0  0  0  0  0  0  0  0  0  0  0  0
    1.0324    1.3312    1.3372 H   0  0  0  0  0  0  0  0  0  0  0  0
    0.9663   -0.3038    2.0038 H   0  0  0  0  0  0  0  0  0  0  0  0
   -2.5397   -1.0531    0.8618 H   0  0  0  0  0  0  0  0  0  0  0  0
   -1.1451   -1.7133    1.7225 H   0  0  0  0  0  0  0  0  0  0  0  0
   -2.1203   -0.4421    2.4645 H   0  0  0  0  0  0  0  0  0  0  0  0
  1  2  2  3
  1  4  1  0
  1  5  1  0
  2  3  1  0
  2  6  1  0
  3  7  1  0
  3  8  1  0
  3  9  1  0
 10 11  1  0
 10 14  1  0
 10 15  1  0
 10 16  1  0
 11 12  1  0
 11 13  1  0
 12 17  1  0
 12 18  1  0
 12 19  1  0
 13 20  1  0
 13 21  1  0
 13 22  1  0
M  RAD  1  11   2
M  END
>  <reaction>  (11) 
rxn_999

>  <mol_properties>  (11) 
{"1": {"label": "*0", "atom_type": "Cd"}, "2": {"label": "*1", "atom_type": "Cs"}, "6": {"label": "*2", "atom_type": "H0"}, "9": {"label": "*4", "atom_type": "Cs"}, "10": {"label": "*3", "atom_type": "Cs"}}

>  <type>  (11) 
unop_7

>  <geom_source>  (11) 
Heuristics

$$$$

     RDKit          3D

 22 20  0  0  0  0  0  0  0  0999 V2000
    1.3126   -1.0245   -2.8353 C   0  0  0  0  0  0  0  0  0  0  0  0
    1.3126   -1.0245   -1.5116 C   0  0  0  0  0  0  0  0  0  0  0  0
    1.3126    0.1977   -0.6510 C   0  0  0  0  0  0  0  0  0  0  0  0
    1.3126   -1.9472   -3.4018 H   0  0  0  0  0  0  0  0  0  0  0  0
    1.3126   -0.0989   -3.4013 H   0  0  0  0  0  0  0  0  0  0  0  0
    1.3126   -1.9771   -0.9880 H   0  0  0  0  0  0  0  0  0  0  0  0
    0.2594    0.2182    0.1304 H   0  0  0  0  0  0  0  0  0  0  0  0
    1.3126    1.1081   -1.2516 H   0  0  0  0  0  0  0  0  0  0  0  0
    2.1904    0.2148    0.0002 H   0  0  0  0  0  0  0  0  0  0  0  0
   -0.4306   -0.4719    2.2132 C   0  0  0  0  0  0  0  0  0  0  0  0
   -0.7962    0.2388    0.9136 C   0  0  0  0  0  3  0  0  0  0  0  0
   -2.3050    0.2224    0.6880 C   0  0  0  0  0  0  0  0  0  0  0  0
   -0.2578    1.6663    0.9018 C   0  0  0  0  0  0  0  0  0  0  0  0
   -0.7881   -1.5038    2.2157 H   0  0  0  0  0  0  0  0  0  0  0  0
    0.6506   -0.4891    2.3658 H   0  0  0  0  0  0  0  0  0  0  0  0
   -0.8803    0.0390    3.0696 H   0  0  0  0  0  0  0  0  0  0  0  0
   -2.8191    0.7570    1.4921 H   0  0  0  0  0  0  0  0  0  0  0  0
   -2.6921   -0.7985    0.6661 H   0  0  0  0  0  0  0  0  0  0  0  0
   -2.5707    0.7041   -0.2553 H   0  0  0  0  0  0  0  0  0  0  0  0
    0.8261    1.6830    1.0339 H   0  0  0  0  0  0  0  0  0  0  0  0
   -0.4909    2.1708   -0.0383 H   0  0  0  0  0  0  0  0  0  0  0  0
   -0.7018    2.2507    1.7130 H   0  0  0  0  0  0  0  0  0  0  0  0
  1  2  2  3
  1  4  1  0
  1  5  1  0
  2  3  1  0
  2  6  1  0
  3  7  1  0
  3  8  1  0
  3  9  1  0
 10 11  1  0
 10 14  1  0
 10 15  1  0
 10 16  1  0
 11 12  1  0
 11 13  1  0
 12 17  1  0
 12 18  1  0
 12 19  1  0
 13 20  1  0
 13 21  1  0
 13 22  1  0
M  RAD  1  11   2
M  END
>  <reaction>  (12) 
rxn_999

>  <mol_properties>  (12) 
{"1": {"label": "*0", "atom_type": "Cd"}, "2": {"label": "*1", "atom_type": "Cs"}, "6": {"label": "*2", "atom_type": "H0"}, "9": {"label": "*4", "atom_type": "Cs"}, "10": {"label": "*3", "atom_type": "Cs"}}

>  <type>  (12) 
unop_8

>  <geom_source>  (12) 
Heuristics

$$$$

     RDKit          3D

 22 20  0  0  0  0  0  0  0  0999 V2000
    1.4097   -0.9721   -2.7636 C   0  0  0  0  0  0  0  0  0  0  0  0
    1.4097   -0.9721   -1.4399 C   0  0  0  0  0  0  0  0  0  0  0  0
    1.4097    0.2500   -0.5793 C   0  0  0  0  0  0  0  0  0  0  0  0
    1.4097   -1.8949   -3.3301 H   0  0  0  0  0  0  0  0  0  0  0  0
    1.4097   -0.0465   -3.3296 H   0  0  0  0  0  0  0  0  0  0  0  0
    1.4097   -1.9248   -0.9163 H   0  0  0  0  0  0  0  0  0  0  0  0
    0.3564    0.2706    0.2021 H   0  0  0  0  0  0  0  0  0  0  0  0
    1.4097    1.1605   -1.1799 H   0  0  0  0  0  0  0  0  0  0  0  0
    2.2874    0.2672    0.0719 H   0  0  0  0  0  0  0  0  0  0  0  0
   -1.8319   -0.4349    0.2659 C   0  0  0  0  0  0  0  0  0  0  0  0
   -0.6991    0.2912    0.9853 C   0  0  0  0  0  3  0  0  0  0  0  0
   -0.8479    1.8037    0.8512 C   0  0  0  0  0  0  0  0  0  0  0  0
   -0.6300   -0.1228    2.4522 C   0  0  0  0  0  0  0  0  0  0  0  0
   -1.8683   -0.1647   -0.7916 H   0  0  0  0  0  0  0  0  0  0  0  0
   -1.7150   -1.5185    0.3334 H   0  0  0  0  0  0  0  0  0  0  0  0
   -2.7973   -0.1751    0.7100 H   0  0  0  0  0  0  0  0  0  0  0  0
   -1.7796    2.1403    1.3152 H   0  0  0  0  0  0  0  0  0  0  0  0
   -0.8685    2.1092   -0.1970 H   0  0  0  0  0  0  0  0  0  0  0  0
   -0.0240    2.3285    1.3394 H   0  0  0  0  0  0  0  0  0  0  0  0
   -0.4944   -1.2015    2.5543 H   0  0  0  0  0  0  0  0  0  0  0  0
    0.1975    0.3714    2.9656 H   0  0  0  0  0  0  0  0  0  0  0  0
   -1.5541    0.1480    2.9713 H   0  0  0  0  0  0  0  0  0  0  0  0
  1  2  2  3
  1  4  1  0
  1  5  1  0
  2  3  1  0
  2  6  1  0
  3  7  1  0
  3  8  1  0
  3  9  1  0
 10 11  1  0
 10 14  1  0
 10 15  1  0
 10 16  1  0
 11 12  1  0
 11 13  1  0
 12 17  1  0
 12 18  1  0
 12 19  1  0
 13 20  1  0
 13 21  1  0
 13 22  1  0
M  RAD  1  11   2
M  END
>  <reaction>  (13) 
rxn_999

>  <mol_properties>  (13) 
{"1": {"label": "*0", "atom_type": "Cd"}, "2": {"label": "*1", "atom_type": "Cs"}, "6": {"label": "*2", "atom_type": "H0"}, "9": {"label": "*4", "atom_type": "Cs"}, "10": {"label": "*3", "atom_type": "Cs"}}

>  <type>  (13) 
unop_9

>  <geom_source>  (13) 
Heuristics

$$$$

     RDKit          3D

 22 20  0  0  0  0  0  0  0  0999 V2000
    1.3110   -0.9640   -2.8631 C   0  0  0  0  0  0  0  0  0  0  0  0
    1.3110   -0.9640   -1.5393 C   0  0  0  0  0  0  0  0  0  0  0  0
    1.3110    0.2582   -0.6788 C   0  0  0  0  0  0  0  0  0  0  0  0
    1.3110   -1.8867   -3.4295 H   0  0  0  0  0  0  0  0  0  0  0  0
    1.3110   -0.0384   -3.4291 H   0  0  0  0  0  0  0  0  0  0  0  0
    1.3110   -1.9166   -1.0158 H   0  0  0  0  0  0  0  0  0  0  0  0
    0.2578    0.2787    0.1027 H   0  0  0  0  0  0  0  0  0  0  0  0
    1.3110    1.1686   -1.2794 H   0  0  0  0  0  0  0  0  0  0  0  0
    2.1887    0.2753   -0.0276 H   0  0  0  0  0  0  0  0  0  0  0  0
   -0.7536   -0.9459    1.7663 C   0  0  0  0  0  0  0  0  0  0  0  0
   -0.7978    0.2993    0.8858 C   0  0  0  0  0  3  0  0  0  0  0  0
   -2.2374    0.7271    0.6169 C   0  0  0  0  0  0  0  0  0  0  0  0
    0.0028    1.4382    1.5102 C   0  0  0  0  0  0  0  0  0  0  0  0
   -1.3007   -1.7740    1.3108 H   0  0  0  0  0  0  0  0  0  0  0  0
    0.2736   -1.2743    1.9384 H   0  0  0  0  0  0  0  0  0  0  0  0
   -1.2066   -0.7429    2.7412 H   0  0  0  0  0  0  0  0  0  0  0  0
   -2.7415    0.9875    1.5522 H   0  0  0  0  0  0  0  0  0  0  0  0
   -2.8079   -0.0744    0.1430 H   0  0  0  0  0  0  0  0  0  0  0  0
   -2.2763    1.6010   -0.0369 H   0  0  0  0  0  0  0  0  0  0  0  0
    1.0419    1.1475    1.6784 H   0  0  0  0  0  0  0  0  0  0  0  0
   -0.0006    2.3232    0.8704 H   0  0  0  0  0  0  0  0  0  0  0  0
   -0.4245    1.7232    2.4760 H   0  0  0  0  0  0  0  0  0  0  0  0
  1  2  2  3
  1  4  1  0
  1  5  1  0
  2  3  1  0
  2  6  1  0
  3  7  1  0
  3  8  1  0
  3  9  1  0
 10 11  1  0
 10 14  1  0
 10 15  1  0
 10 16  1  0
 11 12  1  0
 11 13  1  0
 12 17  1  0
 12 18  1  0
 12 19  1  0
 13 20  1  0
 13 21  1  0
 13 22  1  0
M  RAD  1  11   2
M  END
>  <reaction>  (14) 
rxn_999

>  <mol_properties>  (14) 
{"1": {"label": "*0", "atom_type": "Cd"}, "2": {"label": "*1", "atom_type": "Cs"}, "6": {"label": "*2", "atom_type": "H0"}, "9": {"label": "*4", "atom_type": "Cs"}, "10": {"label": "*3", "atom_type": "Cs"}}

>  <type>  (14) 
unop_10

>  <geom_source>  (14) 
Heuristics

$$$$

     RDKit          3D

 22 20  0  0  0  0  0  0  0  0999 V2000
    1.3211   -0.9235   -2.8643 C   0  0  0  0  0  0  0  0  0  0  0  0
    1.3211   -0.9235   -1.5406 C   0  0  0  0  0  0  0  0  0  0  0  0
    1.3211    0.2986   -0.6801 C   0  0  0  0  0  0  0  0  0  0  0  0
    1.3211   -1.8463   -3.4308 H   0  0  0  0  0  0  0  0  0  0  0  0
    1.3211    0.0021   -3.4303 H   0  0  0  0  0  0  0  0  0  0  0  0
    1.3211   -1.8762   -1.0171 H   0  0  0  0  0  0  0  0  0  0  0  0
    0.2679    0.3192    0.1014 H   0  0  0  0  0  0  0  0  0  0  0  0
    1.3211    1.2091   -1.2807 H   0  0  0  0  0  0  0  0  0  0  0  0
    2.1988    0.3158   -0.0288 H   0  0  0  0  0  0  0  0  0  0  0  0
   -1.1518    1.7986    1.1437 C   0  0  0  0  0  0  0  0  0  0  0  0
   -0.7877    0.3398    0.8846 C   0  0  0  0  0  3  0  0  0  0  0  0
    0.1699   -0.1819    1.9517 C   0  0  0  0  0  0  0  0  0  0  0  0
   -2.0392   -0.5290    0.8021 C   0  0  0  0  0  0  0  0  0  0  0  0
   -0.2617    2.4305    1.1748 H   0  0  0  0  0  0  0  0  0  0  0  0
   -1.8140    2.1865    0.3669 H   0  0  0  0  0  0  0  0  0  0  0  0
   -1.6673    1.9008    2.1032 H   0  0  0  0  0  0  0  0  0  0  0  0
   -0.3001   -0.1475    2.9389 H   0  0  0  0  0  0  0  0  0  0  0  0
    1.0809    0.4186    1.9954 H   0  0  0  0  0  0  0  0  0  0  0  0
    0.4572   -1.2170    1.7555 H   0  0  0  0  0  0  0  0  0  0  0  0
   -2.7156   -0.1777    0.0201 H   0  0  0  0  0  0  0  0  0  0  0  0
   -1.7867   -1.5696    0.5875 H   0  0  0  0  0  0  0  0  0  0  0  0
   -2.5849   -0.5068    1.7500 H   0  0  0  0  0  0  0  0  0  0  0  0
  1  2  2  3
  1  4  1  0
  1  5  1  0
  2  3  1  0
  2  6  1  0
  3  7  1  0
  3  8  1  0
  3  9  1  0
 10 11  1  0
 10 14  1  0
 10 15  1  0
 10 16  1  0
 11 12  1  0
 11 13  1  0
 12 17  1  0
 12 18  1  0
 12 19  1  0
 13 20  1  0
 13 21  1  0
 13 22  1  0
M  RAD  1  11   2
M  END
>  <reaction>  (15) 
rxn_999

>  <mol_properties>  (15) 
{"1": {"label": "*0", "atom_type": "Cd"}, "2": {"label": "*1", "atom_type": "Cs"}, "6": {"label": "*2", "atom_type": "H0"}, "9": {"label": "*4", "atom_type": "Cs"}, "10": {"label": "*3", "atom_type": "Cs"}}

>  <type>  (15) 
unop_11

>  <geom_source>  (15) 
Heuristics

$$$$

     RDKit          3D

 22 20  0  0  0  0  0  0  0  0999 V2000
    1.3967   -0.9161   -2.7997 C   0  0  0  0  0  0  0  0  0  0  0  0
    1.3967   -0.9161   -1.4760 C   0  0  0  0  0  0  0  0  0  0  0  0
    1.3967    0.3060   -0.6155 C   0  0  0  0  0  0  0  0  0  0  0  0
    1.3967   -1.8389   -3.3662 H   0  0  0  0  0  0  0  0  0  0  0  0
    1.3967    0.0095   -3.3657 H   0  0  0  0  0  0  0  0  0  0  0  0
    1.3967   -1.8688   -0.9524 H   0  0  0  0  0  0  0  0  0  0  0  0
    0.3435    0.3266    0.1660 H   0  0  0  0  0  0  0  0  0  0  0  0
    1.3967    1.2165   -1.2160 H   0  0  0  0  0  0  0  0  0  0  0  0
    2.2744    0.3231    0.0358 H   0  0  0  0  0  0  0  0  0  0  0  0
   -1.5330   -0.9069    0.6640 C   0  0  0  0  0  0  0  0  0  0  0  0
   -0.7121    0.3472    0.9492 C   0  0  0  0  0  3  0  0  0  0  0  0
   -1.5104    1.6071    0.6283 C   0  0  0  0  0  0  0  0  0  0  0  0
   -0.2241    0.3633    2.3947 C   0  0  0  0  0  0  0  0  0  0  0  0
   -1.8608   -0.9386   -0.3772 H   0  0  0  0  0  0  0  0  0  0  0  0
   -0.9567   -1.8127    0.8640 H   0  0  0  0  0  0  0  0  0  0  0  0
   -2.4257   -0.9331    1.2958 H   0  0  0  0  0  0  0  0  0  0  0  0
   -2.4025    1.6672    1.2587 H   0  0  0  0  0  0  0  0  0  0  0  0
   -1.8377    1.6152   -0.4135 H   0  0  0  0  0  0  0  0  0  0  0  0
   -0.9180    2.5077    0.8027 H   0  0  0  0  0  0  0  0  0  0  0  0
    0.3727   -0.5225    2.6222 H   0  0  0  0  0  0  0  0  0  0  0  0
    0.3889    1.2441    2.5970 H   0  0  0  0  0  0  0  0  0  0  0  0
   -1.0719    0.3810    3.0858 H   0  0  0  0  0  0  0  0  0  0  0  0
  1  2  2  3
  1  4  1  0
  1  5  1  0
  2  3  1  0
  2  6  1  0
  3  7  1  0
  3  8  1  0
  3  9  1  0
 10 11  1  0
 10 14  1  0
 10 15  1  0
 10 16  1  0
 11 12  1  0
 11 13  1  0
 12 17  1  0
 12 18  1  0
 12 19  1  0
 13 20  1  0
 13 21  1  0
 13 22  1  0
M  RAD  1  11   2
M  END
>  <reaction>  (16) 
rxn_999

>  <mol_properties>  (16) 
{"1": {"label": "*0", "atom_type": "Cd"}, "2": {"label": "*1", "atom_type": "Cs"}, "6": {"label": "*2", "atom_type": "H0"}, "9": {"label": "*4", "atom_type": "Cs"}, "10": {"label": "*3", "atom_type": "Cs"}}

>  <type>  (16) 
unop_12

>  <geom_source>  (16) 
Heuristics

$$$$

     RDKit          3D

 22 20  0  0  0  0  0  0  0  0999 V2000
   -0.9625    0.1347    0.0868 C   0  0  0  0  0  0  0  0  0  0  0  0
   -1.4936    1.5476   -0.1724 C   0  0  0  0  0  0  0  0  0  0  0  0
   -1.8222   -0.5832    1.1314 C   0  0  0  0  0  0  0  0  0  0  0  0
   -0.9083   -0.6702   -1.2150 C   0  0  0  0  0  0  0  0  0  0  0  0
    2.3167   -0.5404    0.3767 C   0  0  0  0  0  0  0  0  0  0  0  0
    1.5344    0.7174    0.5790 C   0  0  0  0  0  0  0  0  0  0  0  0
    2.8281   -0.8423   -0.8177 C   0  0  0  0  0  3  0  0  0  0  0  0
    0.2670    0.2359    0.5619 H   0  0  0  0  0  0  0  0  0  0  0  0
   -1.4934    2.1333    0.7713 H   0  0  0  0  0  0  0  0  0  0  0  0
   -2.5292    1.5114   -0.5744 H   0  0  0  0  0  0  0  0  0  0  0  0
   -0.8413    2.0712   -0.9031 H   0  0  0  0  0  0  0  0  0  0  0  0
   -1.4061   -1.5920    1.3384 H   0  0  0  0  0  0  0  0  0  0  0  0
   -1.8238   -0.0094    2.0823 H   0  0  0  0  0  0  0  0  0  0  0  0
   -2.8687   -0.6910    0.7732 H   0  0  0  0  0  0  0  0  0  0  0  0
   -0.4871   -1.6794   -1.0211 H   0  0  0  0  0  0  0  0  0  0  0  0
   -0.2527   -0.1589   -1.9514 H   0  0  0  0  0  0  0  0  0  0  0  0
   -1.9242   -0.7810   -1.6520 H   0  0  0  0  0  0  0  0  0  0  0  0
    2.4594   -1.2224    1.2096 H   0  0  0  0  0  0  0  0  0  0  0  0
    2.1821    1.6011    0.3977 H   0  0  0  0  0  0  0  0  0  0  0  0
    1.1441    0.7583    1.6174 H   0  0  0  0  0  0  0  0  0  0  0  0
    2.6926   -0.1789   -1.6668 H   0  0  0  0  0  0  0  0  0  0  0  0
    3.3887   -1.7618   -0.9518 H   0  0  0  0  0  0  0  0  0  0  0  0
  1  2  1  0
  1  3  1  0
  1  4  1  0
  1  8  1  0
  2  9  1  0
  2 10  1  0
  2 11  1  0
  3 12  1  0
  3 13  1  0
  3 14  1  0
  4 15  1  0
  4 16  1  0
  4 17  1  0
  5  6  2  3
  5  7  1  0
  5 18  1  0
  6 19  1  0
  6 20  1  0
  7 21  1  0
  7 22  1  0
M  RAD  1   7   2
M  END
>  <reaction>  (17) 
rxn_999

>  <mol_properties>  (17) 
{"1": {"label": "*0", "atom_type": "Cd"}, "2": {"label": "*1", "atom_type": "Cs"}, "6": {"label": "*2", "atom_type": "H0"}, "9": {"label": "*4", "atom_type": "Cs"}, "10": {"label": "*3", "atom_type": "Cs"}}

>  <type>  (17) 
unop_13

>  <geom_source>  (17) 
AutoTST

$$$$

     RDKit          3D

 22 20  0  0  0  0  0  0  0  0999 V2000
    1.3486   -0.9131   -2.8475 C   0  0  0  0  0  0  0  0  0  0  0  0
    1.3486   -0.9131   -1.5237 C   0  0  0  0  0  0  0  0  0  0  0  0
    1.3486    0.3091   -0.6632 C   0  0  0  0  0  0  0  0  0  0  0  0
    1.3486   -1.8358   -3.4140 H   0  0  0  0  0  0  0  0  0  0  0  0
    1.3486    0.0125   -3.4135 H   0  0  0  0  0  0  0  0  0  0  0  0
    1.3486   -1.8657   -1.0002 H   0  0  0  0  0  0  0  0  0  0  0  0
    0.2953    0.3296    0.1182 H   0  0  0  0  0  0  0  0  0  0  0  0
    1.3486    1.2195   -1.2638 H   0  0  0  0  0  0  0  0  0  0  0  0
    2.2263    0.3262   -0.0120 H   0  0  0  0  0  0  0  0  0  0  0  0
   -1.1503   -1.0939    1.2019 C   0  0  0  0  0  0  0  0  0  0  0  0
   -0.7602    0.3502    0.9014 C   0  0  0  0  0  3  0  0  0  0  0  0
   -1.9912    1.1934    0.5829 C   0  0  0  0  0  0  0  0  0  0  0  0
    0.0309    0.9540    2.0579 C   0  0  0  0  0  0  0  0  0  0  0  0
   -1.6918   -1.5411    0.3656 H   0  0  0  0  0  0  0  0  0  0  0  0
   -0.2707   -1.7093    1.4020 H   0  0  0  0  0  0  0  0  0  0  0  0
   -1.7979   -1.1412    2.0822 H   0  0  0  0  0  0  0  0  0  0  0  0
   -2.6678    1.2245    1.4419 H   0  0  0  0  0  0  0  0  0  0  0  0
   -2.5459    0.7824   -0.2632 H   0  0  0  0  0  0  0  0  0  0  0  0
   -1.7159    2.2215    0.3384 H   0  0  0  0  0  0  0  0  0  0  0  0
    0.9290    0.3708    2.2717 H   0  0  0  0  0  0  0  0  0  0  0  0
    0.3384    1.9782    1.8366 H   0  0  0  0  0  0  0  0  0  0  0  0
   -0.5763    0.9772    2.9675 H   0  0  0  0  0  0  0  0  0  0  0  0
  1  2  2  3
  1  4  1  0
  1  5  1  0
  2  3  1  0
  2  6  1  0
  3  7  1  0
  3  8  1  0
  3  9  1  0
 10 11  1  0
 10 14  1  0
 10 15  1  0
 10 16  1  0
 11 12  1  0
 11 13  1  0
 12 17  1  0
 12 18  1  0
 12 19  1  0
 13 20  1  0
 13 21  1  0
 13 22  1  0
M  RAD  1  11   2
M  END
>  <reaction>  (18) 
rxn_999

>  <mol_properties>  (18) 
{"1": {"label": "*0", "atom_type": "Cd"}, "2": {"label": "*1", "atom_type": "Cs"}, "6": {"label": "*2", "atom_type": "H0"}, "9": {"label": "*4", "atom_type": "Cs"}, "10": {"label": "*3", "atom_type": "Cs"}}

>  <type>  (18) 
unop_14

>  <geom_source>  (18) 
gaussian_log

$$$$
