
     RDKit          3D

 11 10  0  0  0  0  0  0  0  0999 V2000
   -1.2710    0.1907   -0.2084 C   0  0  0  0  0  0  0  0  0  0  0  0
    0.0202   -0.6130   -0.2928 C   0  0  0  0  0  0  0  0  0  0  0  0
    0.1086   -1.6953    0.7756 C   0  0  0  0  0  0  0  0  0  0  0  0
   -1.3607    0.6851    0.7620 H   0  0  0  0  0  0  0  0  0  0  0  0
   -2.1429   -0.4567   -0.3299 H   0  0  0  0  0  0  0  0  0  0  0  0
   -1.3158    0.9602   -0.9809 H   0  0  0  0  0  0  0  0  0  0  0  0
    0.8757    0.0616   -0.1992 H   0  0  0  0  0  0  0  0  0  0  0  0
    0.0997   -1.0712   -1.2825 H   0  0  0  0  0  0  0  0  0  0  0  0
   -0.7198   -2.4022    0.6850 H   0  0  0  0  0  0  0  0  0  0  0  0
    1.0395   -2.2596    0.6989 H   0  0  0  0  0  0  0  0  0  0  0  0
    0.0624   -1.2603    1.7770 H   0  0  0  0  0  0  0  0  0  0  0  0
  1  2  1  0
  1  4  1  0
  1  5  1  0
  1  6  1  0
  2  3  1  0
  2  7  1  0
  2  8  1  0
  3  9  1  0
  3 10  1  0
  3 11  1  0
M  END
>  <reaction>  (1) 
rxn_915

>  <mol_properties>  (1) 
{"1": {"label": "donator", "atom_type": "Cs"}, "6": {"label": "d_hydrogen", "atom_type": "H0"}}

>  <type>  (1) 
r1h

$$$$

     RDKit          3D

 14 13  0  0  0  0  0  0  0  0999 V2000
    1.0767   -1.6838    1.2931 C   0  0  0  0  0  0  0  0  0  0  0  0
    1.0020   -0.3665    0.9163 C   0  0  0  0  0  0  0  0  0  0  0  0
    1.3965    0.7260    1.6806 C   0  0  0  0  0  3  0  0  0  0  0  0
    1.2666    2.1197    1.1619 C   0  0  0  0  0  0  0  0  0  0  0  0
    1.9670    0.5479    3.0536 C   0  0  0  0  0  0  0  0  0  0  0  0
    0.7448   -2.4705    0.6300 H   0  0  0  0  0  0  0  0  0  0  0  0
    1.4663   -1.9826    2.2578 H   0  0  0  0  0  0  0  0  0  0  0  0
    0.5980   -0.1511   -0.0695 H   0  0  0  0  0  0  0  0  0  0  0  0
    0.6296    2.7241    1.8172 H   0  0  0  0  0  0  0  0  0  0  0  0
    2.2410    2.6200    1.1341 H   0  0  0  0  0  0  0  0  0  0  0  0
    0.8426    2.1448    0.1579 H   0  0  0  0  0  0  0  0  0  0  0  0
    2.8745   -0.0634    3.0328 H   0  0  0  0  0  0  0  0  0  0  0  0
    1.2599    0.0408    3.7173 H   0  0  0  0  0  0  0  0  0  0  0  0
    2.2205    1.5071    3.5054 H   0  0  0  0  0  0  0  0  0  0  0  0
  1  2  2  3
  1  6  1  0
  1  7  1  0
  2  3  1  0
  2  8  1  0
  3  4  1  0
  3  5  1  0
  4  9  1  0
  4 10  1  0
  4 11  1  0
  5 12  1  0
  5 13  1  0
  5 14  1  0
M  RAD  1   3   2
M  END
>  <reaction>  (2) 
rxn_915

>  <mol_properties>  (2) 
{"2": {"label": "acceptor", "atom_type": "Cs"}}

>  <type>  (2) 
r2

$$$$

     RDKit          3D

 15 14  0  0  0  0  0  0  0  0999 V2000
    2.1256    0.4849   -0.6284 C   0  0  0  0  0  0  0  0  0  0  0  0
    1.1128    0.2141    0.1794 C   0  0  0  0  0  0  0  0  0  0  0  0
   -0.3017   -0.0425   -0.2513 C   0  0  0  0  0  0  0  0  0  0  0  0
   -1.2427    1.0075    0.3423 C   0  0  0  0  0  0  0  0  0  0  0  0
   -0.7381   -1.4526    0.1504 C   0  0  0  0  0  0  0  0  0  0  0  0
    3.1243    0.6602   -0.2486 H   0  0  0  0  0  0  0  0  0  0  0  0
    1.9908    0.5411   -1.7036 H   0  0  0  0  0  0  0  0  0  0  0  0
    1.2888    0.1665    1.2533 H   0  0  0  0  0  0  0  0  0  0  0  0
   -0.3426    0.0343   -1.3424 H   0  0  0  0  0  0  0  0  0  0  0  0
   -0.9570    2.0133    0.0315 H   0  0  0  0  0  0  0  0  0  0  0  0
   -1.2189    0.9728    1.4350 H   0  0  0  0  0  0  0  0  0  0  0  0
   -2.2723    0.8287    0.0254 H   0  0  0  0  0  0  0  0  0  0  0  0
   -0.6964   -1.5744    1.2363 H   0  0  0  0  0  0  0  0  0  0  0  0
   -0.0911   -2.2079   -0.2978 H   0  0  0  0  0  0  0  0  0  0  0  0
   -1.7646   -1.6461   -0.1677 H   0  0  0  0  0  0  0  0  0  0  0  0
  1  2  2  3
  1  6  1  0
  1  7  1  0
  2  3  1  0
  2  8  1  0
  3  4  1  0
  3  5  1  0
  3  9  1  0
  4 10  1  0
  4 11  1  0
  4 12  1  0
  5 13  1  0
  5 14  1  0
  5 15  1  0
M  END
>  <reaction>  (3) 
rxn_915

>  <mol_properties>  (3) 
{"2": {"label": "acceptor", "atom_type": "Cs"}, "14": {"label": "a_hydrogen", "atom_type": "H0"}}

>  <type>  (3) 
r2h

$$$$

     RDKit          3D

 25 23  0  0  0  0  0  0  0  0999 V2000
    2.4351    0.5439   -0.3075 C   0  0  0  0  0  0  0  0  0  0  0  0
    1.4257    0.4517    0.5584 C   0  0  0  0  0  0  0  0  0  0  0  0
    0.4302   -0.6279    0.6510 C   0  0  0  0  0  0  0  0  0  0  0  0
   -0.0424   -0.9096    2.0642 C   0  0  0  0  0  0  0  0  0  0  0  0
    0.7121   -1.8757   -0.1555 C   0  0  0  0  0  0  0  0  0  0  0  0
    3.0911    1.4049   -0.3081 H   0  0  0  0  0  0  0  0  0  0  0  0
    2.6475   -0.2318   -1.0332 H   0  0  0  0  0  0  0  0  0  0  0  0
    1.2837    1.2677    1.2641 H   0  0  0  0  0  0  0  0  0  0  0  0
   -0.9309   -1.5450    2.0573 H   0  0  0  0  0  0  0  0  0  0  0  0
    0.7306   -1.4236    2.6446 H   0  0  0  0  0  0  0  0  0  0  0  0
   -0.2927    0.0148    2.5891 H   0  0  0  0  0  0  0  0  0  0  0  0
    1.6010   -2.3948    0.2173 H   0  0  0  0  0  0  0  0  0  0  0  0
    0.8769   -1.6461   -1.2095 H   0  0  0  0  0  0  0  0  0  0  0  0
   -0.1308   -2.5669   -0.0940 H   0  0  0  0  0  0  0  0  0  0  0  0
   -1.3259    0.4097   -2.0204 C   0  0  0  0  0  0  0  0  0  0  0  0
   -1.7365    0.4301   -0.5766 C   0  0  0  0  0  3  0  0  0  0  0  0
   -1.8456    1.7791    0.0730 C   0  0  0  0  0  0  0  0  0  0  0  0
   -0.3609    0.9073   -2.1532 H   0  0  0  0  0  0  0  0  0  0  0  0
   -2.0527    0.9360   -2.6514 H   0  0  0  0  0  0  0  0  0  0  0  0
   -1.2367   -0.6093   -2.3998 H   0  0  0  0  0  0  0  0  0  0  0  0
   -0.6103   -0.1406    0.0913 H   0  0  0  0  0  0  0  0  0  0  0  0
   -2.5396   -0.2604   -0.3223 H   0  0  0  0  0  0  0  0  0  0  0  0
   -2.6373    2.3832   -0.3862 H   0  0  0  0  0  0  0  0  0  0  0  0
   -2.0697    1.6966    1.1381 H   0  0  0  0  0  0  0  0  0  0  0  0
   -0.9107    2.3362   -0.0359 H   0  0  0  0  0  0  0  0  0  0  0  0
  1  2  2  3
  1  6  1  0
  1  7  1  0
  2  3  1  0
  2  8  1  0
  3  4  1  0
  3  5  1  0
  3 21  1  0
  4  9  1  0
  4 10  1  0
  4 11  1  0
  5 12  1  0
  5 13  1  0
  5 14  1  0
 15 16  1  0
 15 18  1  0
 15 19  1  0
 15 20  1  0
 16 17  1  0
 16 22  1  0
 17 23  1  0
 17 24  1  0
 17 25  1  0
M  RAD  1  16   2
M  END
>  <reaction>  (4) 
rxn_915

>  <mol_properties>  (4) 
{"1": {"label": "*0", "atom_type": "Cd"}, "2": {"label": "*1", "atom_type": "Cs"}, "14": {"label": "*4", "atom_type": "Cs"}, "15": {"label": "*3", "atom_type": "Cs"}, "20": {"label": "*2", "atom_type": "H0"}}

>  <type>  (4) 
ts

$$$$

     RDKit          3D

 25 23  0  0  0  0  0  0  0  0999 V2000
    1.6605    1.3716    0.8155 C   0  0  0  0  0  0  0  0  0  0  0  0
    1.4567    0.0912    1.0815 C   0  0  0  0  0  0  0  0  0  0  0  0
    0.6321   -0.8509    0.2541 C   0  0  0  0  0  3  0  0  0  0  0  0
   -0.5449   -1.3913    1.0684 C   0  0  0  0  0  0  0  0  0  0  0  0
    1.4962   -1.9958   -0.2776 C   0  0  0  0  0  0  0  0  0  0  0  0
    2.2690    1.9957    1.4579 H   0  0  0  0  0  0  0  0  0  0  0  0
    1.2236    1.8430   -0.0587 H   0  0  0  0  0  0  0  0  0  0  0  0
    1.9128   -0.3453    1.9692 H   0  0  0  0  0  0  0  0  0  0  0  0
   -1.1519   -2.0718    0.4676 H   0  0  0  0  0  0  0  0  0  0  0  0
   -0.1880   -1.9446    1.9414 H   0  0  0  0  0  0  0  0  0  0  0  0
   -1.1843   -0.5812    1.4219 H   0  0  0  0  0  0  0  0  0  0  0  0
    1.9254   -2.5704    0.5477 H   0  0  0  0  0  0  0  0  0  0  0  0
    2.3181   -1.6185   -0.8878 H   0  0  0  0  0  0  0  0  0  0  0  0
    0.9014   -2.6799   -0.8865 H   0  0  0  0  0  0  0  0  0  0  0  0
   -1.4677    0.4609   -2.1432 C   0  0  0  0  0  0  0  0  0  0  0  0
   -1.4677    0.4609   -0.6199 C   0  0  0  0  0  0  0  0  0  0  0  0
   -1.4677    1.8667   -0.0331 C   0  0  0  0  0  0  0  0  0  0  0  0
   -0.5863    0.9752   -2.5338 H   0  0  0  0  0  0  0  0  0  0  0  0
   -2.3492    0.9752   -2.5338 H   0  0  0  0  0  0  0  0  0  0  0  0
   -1.4677   -0.5540   -2.5444 H   0  0  0  0  0  0  0  0  0  0  0  0
   -0.4183   -0.1947   -0.1831 H   0  0  0  0  0  0  0  0  0  0  0  0
   -2.3423   -0.0854   -0.2559 H   0  0  0  0  0  0  0  0  0  0  0  0
   -2.3492    2.4253   -0.3573 H   0  0  0  0  0  0  0  0  0  0  0  0
   -1.4677    1.8461    1.0580 H   0  0  0  0  0  0  0  0  0  0  0  0
   -0.5863    2.4253   -0.3573 H   0  0  0  0  0  0  0  0  0  0  0  0
  1  2  2  3
  1  6  1  0
  1  7  1  0
  2  3  1  0
  2  8  1  0
  3  4  1  0
  3  5  1  0
  4  9  1  0
  4 10  1  0
  4 11  1  0
  5 12  1  0
  5 13  1  0
  5 14  1  0
 15 16  1  0
 15 18  1  0
 15 19  1  0
 15 20  1  0
 16 17  1  0
 16 21  1  0
 16 22  1  0
 17 23  1  0
 17 24  1  0
 17 25  1  0
M  RAD  1   3   2
M  END
>  <reaction>  (5) 
rxn_915

>  <mol_properties>  (5) 
{"1": {"label": "*0", "atom_type": "Cd"}, "2": {"label": "*1", "atom_type": "Cs"}, "14": {"label": "*4", "atom_type": "Cs"}, "15": {"label": "*3", "atom_type": "Cs"}, "20": {"label": "*2", "atom_type": "H0"}}

>  <type>  (5) 
unop_1

>  <geom_source>  (5) 
Heuristics

$$$$

     RDKit          3D

 25 23  0  0  0  0  0  0  0  0999 V2000
    1.4848   -0.1841   -1.6344 C   0  0  0  0  0  0  0  0  0  0  0  0
    1.6460   -0.5582   -0.3752 C   0  0  0  0  0  0  0  0  0  0  0  0
    0.5477   -0.7134    0.6358 C   0  0  0  0  0  3  0  0  0  0  0  0
    0.7558    0.2487    1.8068 C   0  0  0  0  0  0  0  0  0  0  0  0
    0.4712   -2.1599    1.1278 C   0  0  0  0  0  0  0  0  0  0  0  0
    2.3245   -0.0923   -2.3119 H   0  0  0  0  0  0  0  0  0  0  0  0
    0.5024    0.0446   -2.0341 H   0  0  0  0  0  0  0  0  0  0  0  0
    2.6487   -0.7791   -0.0115 H   0  0  0  0  0  0  0  0  0  0  0  0
   -0.0454    0.1441    2.5415 H   0  0  0  0  0  0  0  0  0  0  0  0
    1.7024    0.0407    2.3132 H   0  0  0  0  0  0  0  0  0  0  0  0
    0.7770    1.2849    1.4664 H   0  0  0  0  0  0  0  0  0  0  0  0
    1.4077   -2.4532    1.6101 H   0  0  0  0  0  0  0  0  0  0  0  0
    0.2888   -2.8481    0.3012 H   0  0  0  0  0  0  0  0  0  0  0  0
   -0.3316   -2.2789    1.8584 H   0  0  0  0  0  0  0  0  0  0  0  0
   -1.5521    0.5984   -1.7616 C   0  0  0  0  0  0  0  0  0  0  0  0
   -1.5521    0.5984   -0.2382 C   0  0  0  0  0  0  0  0  0  0  0  0
   -1.5521    2.0042    0.3485 C   0  0  0  0  0  0  0  0  0  0  0  0
   -0.6706    1.1127   -2.1522 H   0  0  0  0  0  0  0  0  0  0  0  0
   -2.4336    1.1127   -2.1522 H   0  0  0  0  0  0  0  0  0  0  0  0
   -1.5521   -0.4165   -2.1627 H   0  0  0  0  0  0  0  0  0  0  0  0
   -0.5027   -0.0572    0.1986 H   0  0  0  0  0  0  0  0  0  0  0  0
   -2.4266    0.0521    0.1258 H   0  0  0  0  0  0  0  0  0  0  0  0
   -2.4336    2.5628    0.0243 H   0  0  0  0  0  0  0  0  0  0  0  0
   -1.5521    1.9835    1.4396 H   0  0  0  0  0  0  0  0  0  0  0  0
   -0.6706    2.5628    0.0243 H   0  0  0  0  0  0  0  0  0  0  0  0
  1  2  2  3
  1  6  1  0
  1  7  1  0
  2  3  1  0
  2  8  1  0
  3  4  1  0
  3  5  1  0
  4  9  1  0
  4 10  1  0
  4 11  1  0
  5 12  1  0
  5 13  1  0
  5 14  1  0
 15 16  1  0
 15 18  1  0
 15 19  1  0
 15 20  1  0
 16 17  1  0
 16 21  1  0
 16 22  1  0
 17 23  1  0
 17 24  1  0
 17 25  1  0
M  RAD  1   3   2
M  END
>  <reaction>  (6) 
rxn_915

>  <mol_properties>  (6) 
{"1": {"label": "*0", "atom_type": "Cd"}, "2": {"label": "*1", "atom_type": "Cs"}, "14": {"label": "*4", "atom_type": "Cs"}, "15": {"label": "*3", "atom_type": "Cs"}, "20": {"label": "*2", "atom_type": "H0"}}

>  <type>  (6) 
unop_2

>  <geom_source>  (6) 
Heuristics

$$$$

     RDKit          3D

 25 23  0  0  0  0  0  0  0  0999 V2000
    0.8847    1.0678    1.8770 C   0  0  0  0  0  0  0  0  0  0  0  0
    1.1098   -0.1785    1.4925 C   0  0  0  0  0  0  0  0  0  0  0  0
    0.7094   -0.7697    0.1725 C   0  0  0  0  0  3  0  0  0  0  0  0
   -0.2656   -1.9306    0.3777 C   0  0  0  0  0  0  0  0  0  0  0  0
    1.9433   -1.2277   -0.6073 C   0  0  0  0  0  0  0  0  0  0  0  0
    1.2021    1.4294    2.8470 H   0  0  0  0  0  0  0  0  0  0  0  0
    0.3723    1.7738    1.2318 H   0  0  0  0  0  0  0  0  0  0  0  0
    1.6275   -0.8571    2.1692 H   0  0  0  0  0  0  0  0  0  0  0  0
   -0.5653   -2.3591   -0.5810 H   0  0  0  0  0  0  0  0  0  0  0  0
    0.1995   -2.7250    0.9677 H   0  0  0  0  0  0  0  0  0  0  0  0
   -1.1634   -1.6027    0.9035 H   0  0  0  0  0  0  0  0  0  0  0  0
    2.4866   -1.9972   -0.0520 H   0  0  0  0  0  0  0  0  0  0  0  0
    2.6269   -0.3966   -0.7865 H   0  0  0  0  0  0  0  0  0  0  0  0
    1.6568   -1.6520   -1.5718 H   0  0  0  0  0  0  0  0  0  0  0  0
   -1.3904    0.5421   -2.2248 C   0  0  0  0  0  0  0  0  0  0  0  0
   -1.3904    0.5421   -0.7015 C   0  0  0  0  0  0  0  0  0  0  0  0
   -1.3904    1.9479   -0.1147 C   0  0  0  0  0  0  0  0  0  0  0  0
   -0.5090    1.0564   -2.6154 H   0  0  0  0  0  0  0  0  0  0  0  0
   -2.2719    1.0564   -2.6154 H   0  0  0  0  0  0  0  0  0  0  0  0
   -1.3904   -0.4728   -2.6259 H   0  0  0  0  0  0  0  0  0  0  0  0
   -0.3410   -0.1135   -0.2646 H   0  0  0  0  0  0  0  0  0  0  0  0
   -2.2649   -0.0042   -0.3374 H   0  0  0  0  0  0  0  0  0  0  0  0
   -2.2719    2.5065   -0.4389 H   0  0  0  0  0  0  0  0  0  0  0  0
   -1.3904    1.9273    0.9764 H   0  0  0  0  0  0  0  0  0  0  0  0
   -0.5090    2.5065   -0.4389 H   0  0  0  0  0  0  0  0  0  0  0  0
  1  2  2  3
  1  6  1  0
  1  7  1  0
  2  3  1  0
  2  8  1  0
  3  4  1  0
  3  5  1  0
  4  9  1  0
  4 10  1  0
  4 11  1  0
  5 12  1  0
  5 13  1  0
  5 14  1  0
 15 16  1  0
 15 18  1  0
 15 19  1  0
 15 20  1  0
 16 17  1  0
 16 21  1  0
 16 22  1  0
 17 23  1  0
 17 24  1  0
 17 25  1  0
M  RAD  1   3   2
M  END
>  <reaction>  (7) 
rxn_915

>  <mol_properties>  (7) 
{"1": {"label": "*0", "atom_type": "Cd"}, "2": {"label": "*1", "atom_type": "Cs"}, "14": {"label": "*4", "atom_type": "Cs"}, "15": {"label": "*3", "atom_type": "Cs"}, "20": {"label": "*2", "atom_type": "H0"}}

>  <type>  (7) 
unop_3

>  <geom_source>  (7) 
Heuristics

$$$$

     RDKit          3D

 25 23  0  0  0  0  0  0  0  0999 V2000
    0.1832   -2.1544   -1.1447 C   0  0  0  0  0  0  0  0  0  0  0  0
    0.7245   -1.7897    0.0066 C   0  0  0  0  0  0  0  0  0  0  0  0
    0.8066   -0.3837    0.5250 C   0  0  0  0  0  3  0  0  0  0  0  0
    2.2662    0.0389    0.7024 C   0  0  0  0  0  0  0  0  0  0  0  0
    0.0385   -0.2509    1.8413 C   0  0  0  0  0  0  0  0  0  0  0  0
    0.1580   -3.1907   -1.4578 H   0  0  0  0  0  0  0  0  0  0  0  0
   -0.2558   -1.4258   -1.8182 H   0  0  0  0  0  0  0  0  0  0  0  0
    1.1552   -2.5514    0.6553 H   0  0  0  0  0  0  0  0  0  0  0  0
    2.3306    1.0642    1.0726 H   0  0  0  0  0  0  0  0  0  0  0  0
    2.7701   -0.6092    1.4246 H   0  0  0  0  0  0  0  0  0  0  0  0
    2.8111   -0.0210   -0.2408 H   0  0  0  0  0  0  0  0  0  0  0  0
    0.4637   -0.9092    2.6039 H   0  0  0  0  0  0  0  0  0  0  0  0
   -1.0113   -0.5182    1.7136 H   0  0  0  0  0  0  0  0  0  0  0  0
    0.0896    0.7727    2.2184 H   0  0  0  0  0  0  0  0  0  0  0  0
   -1.2932    0.9281   -1.8723 C   0  0  0  0  0  0  0  0  0  0  0  0
   -1.2932    0.9281   -0.3490 C   0  0  0  0  0  0  0  0  0  0  0  0
   -1.2932    2.3339    0.2377 C   0  0  0  0  0  0  0  0  0  0  0  0
   -0.4118    1.4424   -2.2630 H   0  0  0  0  0  0  0  0  0  0  0  0
   -2.1747    1.4424   -2.2630 H   0  0  0  0  0  0  0  0  0  0  0  0
   -1.2932   -0.0868   -2.2735 H   0  0  0  0  0  0  0  0  0  0  0  0
   -0.2438    0.2725    0.0878 H   0  0  0  0  0  0  0  0  0  0  0  0
   -2.1677    0.3818    0.0150 H   0  0  0  0  0  0  0  0  0  0  0  0
   -2.1747    2.8925   -0.0864 H   0  0  0  0  0  0  0  0  0  0  0  0
   -1.2932    2.3133    1.3288 H   0  0  0  0  0  0  0  0  0  0  0  0
   -0.4118    2.8925   -0.0864 H   0  0  0  0  0  0  0  0  0  0  0  0
  1  2  2  3
  1  6  1  0
  1  7  1  0
  2  3  1  0
  2  8  1  0
  3  4  1  0
  3  5  1  0
  4  9  1  0
  4 10  1  0
  4 11  1  0
  5 12  1  0
  5 13  1  0
  5 14  1  0
 15 16  1  0
 15 18  1  0
 15 19  1  0
 15 20  1  0
 16 17  1  0
 16 21  1  0
 16 22  1  0
 17 23  1  0
 17 24  1  0
 17 25  1  0
M  RAD  1   3   2
M  END
>  <reaction>  (8) 
rxn_915

>  <mol_properties>  (8) 
{"1": {"label": "*0", "atom_type": "Cd"}, "2": {"label": "*1", "atom_type": "Cs"}, "14": {"label": "*4", "atom_type": "Cs"}, "15": {"label": "*3", "atom_type": "Cs"}, "20": {"label": "*2", "atom_type": "H0"}}

>  <type>  (8) 
unop_4

>  <geom_source>  (8) 
Heuristics

$$$$

     RDKit          3D

 25 23  0  0  0  0  0  0  0  0999 V2000
   -0.1873   -0.0698    2.3914 C   0  0  0  0  0  0  0  0  0  0  0  0
    0.7422   -0.6505    1.6494 C   0  0  0  0  0  0  0  0  0  0  0  0
    0.7738   -0.6702    0.1491 C   0  0  0  0  0  3  0  0  0  0  0  0
    0.6967   -2.1069   -0.3708 C   0  0  0  0  0  0  0  0  0  0  0  0
    2.0311    0.0291   -0.3708 C   0  0  0  0  0  0  0  0  0  0  0  0
   -0.1481   -0.0943    3.4732 H   0  0  0  0  0  0  0  0  0  0  0  0
   -1.0244    0.4531    1.9407 H   0  0  0  0  0  0  0  0  0  0  0  0
    1.5671   -1.1658    2.1397 H   0  0  0  0  0  0  0  0  0  0  0  0
    0.7120   -2.1254   -1.4626 H   0  0  0  0  0  0  0  0  0  0  0  0
    1.5491   -2.6920   -0.0149 H   0  0  0  0  0  0  0  0  0  0  0  0
   -0.2151   -2.6003   -0.0314 H   0  0  0  0  0  0  0  0  0  0  0  0
    2.9308   -0.4804   -0.0149 H   0  0  0  0  0  0  0  0  0  0  0  0
    2.0747    1.0649   -0.0314 H   0  0  0  0  0  0  0  0  0  0  0  0
    2.0545    0.0234   -1.4626 H   0  0  0  0  0  0  0  0  0  0  0  0
   -1.3260    0.6416   -2.2482 C   0  0  0  0  0  0  0  0  0  0  0  0
   -1.3260    0.6416   -0.7249 C   0  0  0  0  0  0  0  0  0  0  0  0
   -1.3260    2.0474   -0.1382 C   0  0  0  0  0  0  0  0  0  0  0  0
   -0.4446    1.1558   -2.6389 H   0  0  0  0  0  0  0  0  0  0  0  0
   -2.2075    1.1558   -2.6389 H   0  0  0  0  0  0  0  0  0  0  0  0
   -1.3260   -0.3733   -2.6494 H   0  0  0  0  0  0  0  0  0  0  0  0
   -0.2766   -0.0140   -0.2881 H   0  0  0  0  0  0  0  0  0  0  0  0
   -2.2006    0.0952   -0.3609 H   0  0  0  0  0  0  0  0  0  0  0  0
   -2.2075    2.6060   -0.4623 H   0  0  0  0  0  0  0  0  0  0  0  0
   -1.3260    2.0267    0.9529 H   0  0  0  0  0  0  0  0  0  0  0  0
   -0.4446    2.6060   -0.4623 H   0  0  0  0  0  0  0  0  0  0  0  0
  1  2  2  3
  1  6  1  0
  1  7  1  0
  2  3  1  0
  2  8  1  0
  3  4  1  0
  3  5  1  0
  4  9  1  0
  4 10  1  0
  4 11  1  0
  5 12  1  0
  5 13  1  0
  5 14  1  0
 15 16  1  0
 15 18  1  0
 15 19  1  0
 15 20  1  0
 16 17  1  0
 16 21  1  0
 16 22  1  0
 17 23  1  0
 17 24  1  0
 17 25  1  0
M  RAD  1   3   2
M  END
>  <reaction>  (9) 
rxn_915

>  <mol_properties>  (9) 
{"1": {"label": "*0", "atom_type": "Cd"}, "2": {"label": "*1", "atom_type": "Cs"}, "14": {"label": "*4", "atom_type": "Cs"}, "15": {"label": "*3", "atom_type": "Cs"}, "20": {"label": "*2", "atom_type": "H0"}}

>  <type>  (9) 
unop_5

>  <geom_source>  (9) 
Heuristics

$$$$

     RDKit          3D

 25 23  0  0  0  0  0  0  0  0999 V2000
   -0.3042   -2.5132   -0.2838 C   0  0  0  0  0  0  0  0  0  0  0  0
    0.4803   -1.8343    0.5380 C   0  0  0  0  0  0  0  0  0  0  0  0
    0.8652   -0.3920    0.3835 C   0  0  0  0  0  3  0  0  0  0  0  0
    2.3802   -0.2548    0.2214 C   0  0  0  0  0  0  0  0  0  0  0  0
    0.3700    0.4269    1.5771 C   0  0  0  0  0  0  0  0  0  0  0  0
   -0.5414   -3.5555   -0.1114 H   0  0  0  0  0  0  0  0  0  0  0  0
   -0.7389   -2.0480   -1.1623 H   0  0  0  0  0  0  0  0  0  0  0  0
    0.8975   -2.3371    1.4095 H   0  0  0  0  0  0  0  0  0  0  0  0
    2.6639    0.7928    0.1013 H   0  0  0  0  0  0  0  0  0  0  0  0
    2.8989   -0.6423    1.1025 H   0  0  0  0  0  0  0  0  0  0  0  0
    2.7351   -0.8091   -0.6486 H   0  0  0  0  0  0  0  0  0  0  0  0
    0.8175    0.0635    2.5062 H   0  0  0  0  0  0  0  0  0  0  0  0
   -0.7142    0.3606    1.6776 H   0  0  0  0  0  0  0  0  0  0  0  0
    0.6417    1.4786    1.4651 H   0  0  0  0  0  0  0  0  0  0  0  0
   -1.2346    0.9198   -2.0138 C   0  0  0  0  0  0  0  0  0  0  0  0
   -1.2346    0.9198   -0.4905 C   0  0  0  0  0  0  0  0  0  0  0  0
   -1.2346    2.3256    0.0962 C   0  0  0  0  0  0  0  0  0  0  0  0
   -0.3532    1.4341   -2.4045 H   0  0  0  0  0  0  0  0  0  0  0  0
   -2.1161    1.4341   -2.4045 H   0  0  0  0  0  0  0  0  0  0  0  0
   -1.2346   -0.0951   -2.4150 H   0  0  0  0  0  0  0  0  0  0  0  0
   -0.1852    0.2642   -0.0537 H   0  0  0  0  0  0  0  0  0  0  0  0
   -2.1092    0.3735   -0.1265 H   0  0  0  0  0  0  0  0  0  0  0  0
   -2.1161    2.8842   -0.2279 H   0  0  0  0  0  0  0  0  0  0  0  0
   -1.2346    2.3050    1.1873 H   0  0  0  0  0  0  0  0  0  0  0  0
   -0.3532    2.8842   -0.2279 H   0  0  0  0  0  0  0  0  0  0  0  0
  1  2  2  3
  1  6  1  0
  1  7  1  0
  2  3  1  0
  2  8  1  0
  3  4  1  0
  3  5  1  0
  4  9  1  0
  4 10  1  0
  4 11  1  0
  5 12  1  0
  5 13  1  0
  5 14  1  0
 15 16  1  0
 15 18  1  0
 15 19  1  0
 15 20  1  0
 16 17  1  0
 16 21  1  0
 16 22  1  0
 17 23  1  0
 17 24  1  0
 17 25  1  0
M  RAD  1   3   2
M  END
>  <reaction>  (10) 
rxn_915

>  <mol_properties>  (10) 
{"1": {"label": "*0", "atom_type": "Cd"}, "2": {"label": "*1", "atom_type": "Cs"}, "14": {"label": "*4", "atom_type": "Cs"}, "15": {"label": "*3", "atom_type": "Cs"}, "20": {"label": "*2", "atom_type": "H0"}}

>  <type>  (10) 
unop_6

>  <geom_source>  (10) 
Heuristics

$$$$

     RDKit          3D

 25 23  0  0  0  0  0  0  0  0999 V2000
   -0.6724   -2.3626    0.8155 C   0  0  0  0  0  0  0  0  0  0  0  0
    0.3890   -1.6180    1.0815 C   0  0  0  0  0  0  0  0  0  0  0  0
    0.8740   -0.4637    0.2541 C   0  0  0  0  0  3  0  0  0  0  0  0
    2.2819   -0.7382   -0.2777 C   0  0  0  0  0  0  0  0  0  0  0  0
    0.8435    0.8311    1.0684 C   0  0  0  0  0  0  0  0  0  0  0  0
   -0.9664   -3.1831    1.4579 H   0  0  0  0  0  0  0  0  0  0  0  0
   -1.2877   -2.1767   -0.0587 H   0  0  0  0  0  0  0  0  0  0  0  0
    0.9813   -1.8364    1.9692 H   0  0  0  0  0  0  0  0  0  0  0  0
    2.6358    0.0964   -0.8865 H   0  0  0  0  0  0  0  0  0  0  0  0
    2.9865   -0.8718    0.5477 H   0  0  0  0  0  0  0  0  0  0  0  0
    2.3032   -1.6422   -0.8878 H   0  0  0  0  0  0  0  0  0  0  0  0
    1.4972    0.7530    1.9414 H   0  0  0  0  0  0  0  0  0  0  0  0
   -0.1649    1.0505    1.4219 H   0  0  0  0  0  0  0  0  0  0  0  0
    1.1889    1.6750    0.4676 H   0  0  0  0  0  0  0  0  0  0  0  0
   -1.2258    0.8481   -2.1432 C   0  0  0  0  0  0  0  0  0  0  0  0
   -1.2258    0.8481   -0.6199 C   0  0  0  0  0  0  0  0  0  0  0  0
   -1.2258    2.2540   -0.0331 C   0  0  0  0  0  0  0  0  0  0  0  0
   -0.3444    1.3624   -2.5338 H   0  0  0  0  0  0  0  0  0  0  0  0
   -2.1073    1.3624   -2.5338 H   0  0  0  0  0  0  0  0  0  0  0  0
   -1.2258   -0.1668   -2.5444 H   0  0  0  0  0  0  0  0  0  0  0  0
   -0.1764    0.1925   -0.1831 H   0  0  0  0  0  0  0  0  0  0  0  0
   -2.1004    0.3018   -0.2559 H   0  0  0  0  0  0  0  0  0  0  0  0
   -2.1073    2.8125   -0.3573 H   0  0  0  0  0  0  0  0  0  0  0  0
   -1.2258    2.2333    1.0580 H   0  0  0  0  0  0  0  0  0  0  0  0
   -0.3444    2.8125   -0.3573 H   0  0  0  0  0  0  0  0  0  0  0  0
  1  2  2  3
  1  6  1  0
  1  7  1  0
  2  3  1  0
  2  8  1  0
  3  4  1  0
  3  5  1  0
  4  9  1  0
  4 10  1  0
  4 11  1  0
  5 12  1  0
  5 13  1  0
  5 14  1  0
 15 16  1  0
 15 18  1  0
 15 19  1  0
 15 20  1  0
 16 17  1  0
 16 21  1  0
 16 22  1  0
 17 23  1  0
 17 24  1  0
 17 25  1  0
M  RAD  1   3   2
M  END
>  <reaction>  (11) 
rxn_915

>  <mol_properties>  (11) 
{"1": {"label": "*0", "atom_type": "Cd"}, "2": {"label": "*1", "atom_type": "Cs"}, "14": {"label": "*4", "atom_type": "Cs"}, "15": {"label": "*3", "atom_type": "Cs"}, "20": {"label": "*2", "atom_type": "H0"}}

>  <type>  (11) 
unop_7

>  <geom_source>  (11) 
Heuristics

$$$$

     RDKit          3D

 25 23  0  0  0  0  0  0  0  0999 V2000
    1.9573    1.1067   -0.2838 C   0  0  0  0  0  0  0  0  0  0  0  0
    1.6912    0.1040    0.5380 C   0  0  0  0  0  0  0  0  0  0  0  0
    0.5638   -0.8744    0.3835 C   0  0  0  0  0  3  0  0  0  0  0  0
   -0.3893   -0.7885    1.5771 C   0  0  0  0  0  0  0  0  0  0  0  0
    1.1049   -2.2961    0.2214 C   0  0  0  0  0  0  0  0  0  0  0  0
    2.7901    1.7771   -0.1114 H   0  0  0  0  0  0  0  0  0  0  0  0
    1.3486    1.2934   -1.1623 H   0  0  0  0  0  0  0  0  0  0  0  0
    2.3261   -0.0505    1.4095 H   0  0  0  0  0  0  0  0  0  0  0  0
   -1.2153   -1.4939    1.4651 H   0  0  0  0  0  0  0  0  0  0  0  0
    0.1335   -1.0313    2.5062 H   0  0  0  0  0  0  0  0  0  0  0  0
   -0.8052    0.2150    1.6776 H   0  0  0  0  0  0  0  0  0  0  0  0
    1.6806   -2.5923    1.1025 H   0  0  0  0  0  0  0  0  0  0  0  0
    1.7587   -2.3720   -0.6486 H   0  0  0  0  0  0  0  0  0  0  0  0
    0.2878   -3.0105    0.1013 H   0  0  0  0  0  0  0  0  0  0  0  0
   -1.5360    0.4374   -2.0138 C   0  0  0  0  0  0  0  0  0  0  0  0
   -1.5360    0.4374   -0.4905 C   0  0  0  0  0  0  0  0  0  0  0  0
   -1.5360    1.8432    0.0962 C   0  0  0  0  0  0  0  0  0  0  0  0
   -0.6546    0.9517   -2.4045 H   0  0  0  0  0  0  0  0  0  0  0  0
   -2.4175    0.9517   -2.4045 H   0  0  0  0  0  0  0  0  0  0  0  0
   -1.5360   -0.5775   -2.4150 H   0  0  0  0  0  0  0  0  0  0  0  0
   -0.4866   -0.2182   -0.0537 H   0  0  0  0  0  0  0  0  0  0  0  0
   -2.4106   -0.1089   -0.1265 H   0  0  0  0  0  0  0  0  0  0  0  0
   -2.4175    2.4018   -0.2279 H   0  0  0  0  0  0  0  0  0  0  0  0
   -1.5360    1.8225    1.1873 H   0  0  0  0  0  0  0  0  0  0  0  0
   -0.6546    2.4018   -0.2279 H   0  0  0  0  0  0  0  0  0  0  0  0
  1  2  2  3
  1  6  1  0
  1  7  1  0
  2  3  1  0
  2  8  1  0
  3  4  1  0
  3  5  1  0
  4  9  1  0
  4 10  1  0
  4 11  1  0
  5 12  1  0
  5 13  1  0
  5 14  1  0
 15 16  1  0
 15 18  1  0
 15 19  1  0
 15 20  1  0
 16 17  1  0
 16 21  1  0
 16 22  1  0
 17 23  1  0
 17 24  1  0
 17 25  1  0
M  RAD  1   3   2
M  END
>  <reaction>  (12) 
rxn_915

>  <mol_properties>  (12) 
{"1": {"label": "*0", "atom_type": "Cd"}, "2": {"label": "*1", "atom_type": "Cs"}, "14": {"label": "*4", "atom_type": "Cs"}, "15": {"label": "*3", "atom_type": "Cs"}, "20": {"label": "*2", "atom_type": "H0"}}

>  <type>  (12) 
unop_8

>  <geom_source>  (12) 
Heuristics

$$$$

     RDKit          3D

 25 23  0  0  0  0  0  0  0  0999 V2000
    0.6487   -1.5225   -1.6344 C   0  0  0  0  0  0  0  0  0  0  0  0
    1.0555   -1.5032   -0.3752 C   0  0  0  0  0  0  0  0  0  0  0  0
    0.7134   -0.4481    0.6358 C   0  0  0  0  0  3  0  0  0  0  0  0
    1.9799    0.2550    1.1278 C   0  0  0  0  0  0  0  0  0  0  0  0
   -0.0600   -1.0571    1.8068 C   0  0  0  0  0  0  0  0  0  0  0  0
    0.9345   -2.3174   -2.3119 H   0  0  0  0  0  0  0  0  0  0  0  0
    0.0123   -0.7399   -2.0341 H   0  0  0  0  0  0  0  0  0  0  0  0
    1.6939   -2.3075   -0.0115 H   0  0  0  0  0  0  0  0  0  0  0  0
    1.7347    1.0287    1.8584 H   0  0  0  0  0  0  0  0  0  0  0  0
    2.6541   -0.4581    1.6101 H   0  0  0  0  0  0  0  0  0  0  0  0
    2.5183    0.7207    0.3012 H   0  0  0  0  0  0  0  0  0  0  0  0
    0.5421   -1.8166    2.3132 H   0  0  0  0  0  0  0  0  0  0  0  0
   -0.9819   -1.5306    1.4664 H   0  0  0  0  0  0  0  0  0  0  0  0
   -0.3173   -0.2912    2.5415 H   0  0  0  0  0  0  0  0  0  0  0  0
   -1.3864    0.8637   -1.7616 C   0  0  0  0  0  0  0  0  0  0  0  0
   -1.3864    0.8637   -0.2382 C   0  0  0  0  0  0  0  0  0  0  0  0
   -1.3864    2.2695    0.3485 C   0  0  0  0  0  0  0  0  0  0  0  0
   -0.5049    1.3779   -2.1522 H   0  0  0  0  0  0  0  0  0  0  0  0
   -2.2678    1.3779   -2.1522 H   0  0  0  0  0  0  0  0  0  0  0  0
   -1.3864   -0.1512   -2.1627 H   0  0  0  0  0  0  0  0  0  0  0  0
   -0.3369    0.2081    0.1986 H   0  0  0  0  0  0  0  0  0  0  0  0
   -2.2609    0.3173    0.1258 H   0  0  0  0  0  0  0  0  0  0  0  0
   -2.2678    2.8281    0.0243 H   0  0  0  0  0  0  0  0  0  0  0  0
   -1.3864    2.2488    1.4396 H   0  0  0  0  0  0  0  0  0  0  0  0
   -0.5049    2.8281    0.0243 H   0  0  0  0  0  0  0  0  0  0  0  0
  1  2  2  3
  1  6  1  0
  1  7  1  0
  2  3  1  0
  2  8  1  0
  3  4  1  0
  3  5  1  0
  4  9  1  0
  4 10  1  0
  4 11  1  0
  5 12  1  0
  5 13  1  0
  5 14  1  0
 15 16  1  0
 15 18  1  0
 15 19  1  0
 15 20  1  0
 16 17  1  0
 16 21  1  0
 16 22  1  0
 17 23  1  0
 17 24  1  0
 17 25  1  0
M  RAD  1   3   2
M  END
>  <reaction>  (13) 
rxn_915

>  <mol_properties>  (13) 
{"1": {"label": "*0", "atom_type": "Cd"}, "2": {"label": "*1", "atom_type": "Cs"}, "14": {"label": "*4", "atom_type": "Cs"}, "15": {"label": "*3", "atom_type": "Cs"}, "20": {"label": "*2", "atom_type": "H0"}}

>  <type>  (13) 
unop_9

>  <geom_source>  (13) 
Heuristics

$$$$

     RDKit          3D

 25 23  0  0  0  0  0  0  0  0999 V2000
    1.8487    0.5114   -1.1447 C   0  0  0  0  0  0  0  0  0  0  0  0
    1.7582   -0.1350    0.0066 C   0  0  0  0  0  0  0  0  0  0  0  0
    0.5307   -0.8254    0.5250 C   0  0  0  0  0  3  0  0  0  0  0  0
    0.0744   -0.1934    1.8413 C   0  0  0  0  0  0  0  0  0  0  0  0
    0.7909   -2.3224    0.7024 C   0  0  0  0  0  0  0  0  0  0  0  0
    2.7689    0.9885   -1.4578 H   0  0  0  0  0  0  0  0  0  0  0  0
    1.0012    0.5864   -1.8182 H   0  0  0  0  0  0  0  0  0  0  0  0
    2.6316   -0.1881    0.6553 H   0  0  0  0  0  0  0  0  0  0  0  0
   -0.8230   -0.6882    2.2184 H   0  0  0  0  0  0  0  0  0  0  0  0
    0.8525   -0.2867    2.6039 H   0  0  0  0  0  0  0  0  0  0  0  0
   -0.1457    0.8674    1.7136 H   0  0  0  0  0  0  0  0  0  0  0  0
    1.5944   -2.4912    1.4246 H   0  0  0  0  0  0  0  0  0  0  0  0
    1.0838   -2.7859   -0.2407 H   0  0  0  0  0  0  0  0  0  0  0  0
   -0.1022   -2.8300    1.0726 H   0  0  0  0  0  0  0  0  0  0  0  0
   -1.5692    0.4864   -1.8723 C   0  0  0  0  0  0  0  0  0  0  0  0
   -1.5692    0.4864   -0.3490 C   0  0  0  0  0  0  0  0  0  0  0  0
   -1.5692    1.8922    0.2377 C   0  0  0  0  0  0  0  0  0  0  0  0
   -0.6877    1.0007   -2.2630 H   0  0  0  0  0  0  0  0  0  0  0  0
   -2.4506    1.0007   -2.2630 H   0  0  0  0  0  0  0  0  0  0  0  0
   -1.5692   -0.5285   -2.2735 H   0  0  0  0  0  0  0  0  0  0  0  0
   -0.5197   -0.1692    0.0878 H   0  0  0  0  0  0  0  0  0  0  0  0
   -2.4437   -0.0599    0.0150 H   0  0  0  0  0  0  0  0  0  0  0  0
   -2.4506    2.4508   -0.0864 H   0  0  0  0  0  0  0  0  0  0  0  0
   -1.5692    1.8715    1.3288 H   0  0  0  0  0  0  0  0  0  0  0  0
   -0.6877    2.4508   -0.0864 H   0  0  0  0  0  0  0  0  0  0  0  0
  1  2  2  3
  1  6  1  0
  1  7  1  0
  2  3  1  0
  2  8  1  0
  3  4  1  0
  3  5  1  0
  4  9  1  0
  4 10  1  0
  4 11  1  0
  5 12  1  0
  5 13  1  0
  5 14  1  0
 15 16  1  0
 15 18  1  0
 15 19  1  0
 15 20  1  0
 16 17  1  0
 16 21  1  0
 16 22  1  0
 17 23  1  0
 17 24  1  0
 17 25  1  0
M  RAD  1   3   2
M  END
>  <reaction>  (14) 
rxn_915

>  <mol_properties>  (14) 
{"1": {"label": "*0", "atom_type": "Cd"}, "2": {"label": "*1", "atom_type": "Cs"}, "14": {"label": "*4", "atom_type": "Cs"}, "15": {"label": "*3", "atom_type": "Cs"}, "20": {"label": "*2", "atom_type": "H0"}}

>  <type>  (14) 
unop_10

>  <geom_source>  (14) 
Heuristics

$$$$

     RDKit          3D

 25 23  0  0  0  0  0  0  0  0999 V2000
   -0.7396   -1.5321    1.8770 C   0  0  0  0  0  0  0  0  0  0  0  0
    0.4792   -1.1879    1.4925 C   0  0  0  0  0  0  0  0  0  0  0  0
    0.8349   -0.5688    0.1725 C   0  0  0  0  0  3  0  0  0  0  0  0
    1.7876   -1.4769   -0.6073 C   0  0  0  0  0  0  0  0  0  0  0  0
    1.4506    0.8166    0.3777 C   0  0  0  0  0  0  0  0  0  0  0  0
   -0.9253   -1.9760    2.8470 H   0  0  0  0  0  0  0  0  0  0  0  0
   -1.5988   -1.3813    1.2318 H   0  0  0  0  0  0  0  0  0  0  0  0
    1.3161   -1.3555    2.1692 H   0  0  0  0  0  0  0  0  0  0  0  0
    2.0433   -1.0333   -1.5718 H   0  0  0  0  0  0  0  0  0  0  0  0
    2.7175   -1.6276   -0.0520 H   0  0  0  0  0  0  0  0  0  0  0  0
    1.3405   -2.4556   -0.7865 H   0  0  0  0  0  0  0  0  0  0  0  0
    2.3685    0.7470    0.9677 H   0  0  0  0  0  0  0  0  0  0  0  0
    0.7622    1.4797    0.9035 H   0  0  0  0  0  0  0  0  0  0  0  0
    1.7043    1.2738   -0.5810 H   0  0  0  0  0  0  0  0  0  0  0  0
   -1.2649    0.7430   -2.2248 C   0  0  0  0  0  0  0  0  0  0  0  0
   -1.2649    0.7430   -0.7015 C   0  0  0  0  0  0  0  0  0  0  0  0
   -1.2649    2.1489   -0.1147 C   0  0  0  0  0  0  0  0  0  0  0  0
   -0.3834    1.2573   -2.6154 H   0  0  0  0  0  0  0  0  0  0  0  0
   -2.1463    1.2573   -2.6154 H   0  0  0  0  0  0  0  0  0  0  0  0
   -1.2649   -0.2719   -2.6259 H   0  0  0  0  0  0  0  0  0  0  0  0
   -0.2155    0.0874   -0.2646 H   0  0  0  0  0  0  0  0  0  0  0  0
   -2.1394    0.1967   -0.3374 H   0  0  0  0  0  0  0  0  0  0  0  0
   -2.1463    2.7074   -0.4389 H   0  0  0  0  0  0  0  0  0  0  0  0
   -1.2649    2.1282    0.9764 H   0  0  0  0  0  0  0  0  0  0  0  0
   -0.3834    2.7074   -0.4389 H   0  0  0  0  0  0  0  0  0  0  0  0
  1  2  2  3
  1  6  1  0
  1  7  1  0
  2  3  1  0
  2  8  1  0
  3  4  1  0
  3  5  1  0
  4  9  1  0
  4 10  1  0
  4 11  1  0
  5 12  1  0
  5 13  1  0
  5 14  1  0
 15 16  1  0
 15 18  1  0
 15 19  1  0
 15 20  1  0
 16 17  1  0
 16 21  1  0
 16 22  1  0
 17 23  1  0
 17 24  1  0
 17 25  1  0
M  RAD  1   3   2
M  END
>  <reaction>  (15) 
rxn_915

>  <mol_properties>  (15) 
{"1": {"label": "*0", "atom_type": "Cd"}, "2": {"label": "*1", "atom_type": "Cs"}, "14": {"label": "*4", "atom_type": "Cs"}, "15": {"label": "*3", "atom_type": "Cs"}, "20": {"label": "*2", "atom_type": "H0"}}

>  <type>  (15) 
unop_11

>  <geom_source>  (15) 
Heuristics

$$$$

     RDKit          3D

 25 23  0  0  0  0  0  0  0  0999 V2000
    1.0612   -0.8498   -1.7787 C   0  0  0  0  0  0  0  0  0  0  0  0
    1.3896   -1.0549   -0.5131 C   0  0  0  0  0  0  0  0  0  0  0  0
    0.6154   -0.5713    0.6781 C   0  0  0  0  0  3  0  0  0  0  0  0
    1.4652    0.3827    1.5196 C   0  0  0  0  0  0  0  0  0  0  0  0
    0.1307   -1.7534    1.5196 C   0  0  0  0  0  0  0  0  0  0  0  0
    1.6676   -1.2287   -2.5918 H   0  0  0  0  0  0  0  0  0  0  0  0
    0.1696   -0.2928   -2.0475 H   0  0  0  0  0  0  0  0  0  0  0  0
    2.2927   -1.6192   -0.2842 H   0  0  0  0  0  0  0  0  0  0  0  0
    0.9030    0.7428    2.3837 H   0  0  0  0  0  0  0  0  0  0  0  0
    2.3602   -0.1239    1.8910 H   0  0  0  0  0  0  0  0  0  0  0  0
    1.7857    1.2455    0.9340 H   0  0  0  0  0  0  0  0  0  0  0  0
    0.9785   -2.3356    1.8910 H   0  0  0  0  0  0  0  0  0  0  0  0
   -0.5041   -2.4198    0.9340 H   0  0  0  0  0  0  0  0  0  0  0  0
   -0.4395   -1.4060    2.3837 H   0  0  0  0  0  0  0  0  0  0  0  0
   -1.4844    0.7405   -1.7193 C   0  0  0  0  0  0  0  0  0  0  0  0
   -1.4844    0.7405   -0.1959 C   0  0  0  0  0  0  0  0  0  0  0  0
   -1.4844    2.1463    0.3908 C   0  0  0  0  0  0  0  0  0  0  0  0
   -0.6029    1.2548   -2.1099 H   0  0  0  0  0  0  0  0  0  0  0  0
   -2.3659    1.2548   -2.1099 H   0  0  0  0  0  0  0  0  0  0  0  0
   -1.4844   -0.2744   -2.1204 H   0  0  0  0  0  0  0  0  0  0  0  0
   -0.4350    0.0849    0.2409 H   0  0  0  0  0  0  0  0  0  0  0  0
   -2.3589    0.1942    0.1681 H   0  0  0  0  0  0  0  0  0  0  0  0
   -2.3658    2.7049    0.0667 H   0  0  0  0  0  0  0  0  0  0  0  0
   -1.4844    2.1256    1.4819 H   0  0  0  0  0  0  0  0  0  0  0  0
   -0.6029    2.7049    0.0667 H   0  0  0  0  0  0  0  0  0  0  0  0
  1  2  2  3
  1  6  1  0
  1  7  1  0
  2  3  1  0
  2  8  1  0
  3  4  1  0
  3  5  1  0
  4  9  1  0
  4 10  1  0
  4 11  1  0
  5 12  1  0
  5 13  1  0
  5 14  1  0
 15 16  1  0
 15 18  1  0
 15 19  1  0
 15 20  1  0
 16 17  1  0
 16 21  1  0
 16 22  1  0
 17 23  1  0
 17 24  1  0
 17 25  1  0
M  RAD  1   3   2
M  END
>  <reaction>  (16) 
rxn_915

>  <mol_properties>  (16) 
{"1": {"label": "*0", "atom_type": "Cd"}, "2": {"label": "*1", "atom_type": "Cs"}, "14": {"label": "*4", "atom_type": "Cs"}, "15": {"label": "*3", "atom_type": "Cs"}, "20": {"label": "*2", "atom_type": "H0"}}

>  <type>  (16) 
unop_12

>  <geom_source>  (16) 
Heuristics

$$$$

     RDKit          3D

 25 23  0  0  0  0  0  0  0  0999 V2000
   -1.0608    0.2202    0.1739 C   0  0  0  0  0  3  0  0  0  0  0  0
   -1.1728    1.4429    1.0889 C   0  0  0  0  0  0  0  0  0  0  0  0
   -1.6081    0.5427   -1.2203 C   0  0  0  0  0  0  0  0  0  0  0  0
    2.4589    1.2395   -0.1892 C   0  0  0  0  0  0  0  0  0  0  0  0
    1.9202   -1.2178   -0.0220 C   0  0  0  0  0  0  0  0  0  0  0  0
    1.4339    0.1509   -0.4822 C   0  0  0  0  0  0  0  0  0  0  0  0
   -1.7898   -0.9581    0.7733 C   0  0  0  0  0  0  0  0  0  0  0  0
   -1.5868   -2.2010    0.3275 C   0  0  0  0  0  0  0  0  0  0  0  0
    0.2518   -0.0912    0.0610 H   0  0  0  0  0  0  0  0  0  0  0  0
   -0.7539    1.2065    2.0902 H   0  0  0  0  0  0  0  0  0  0  0  0
   -2.2338    1.7535    1.2049 H   0  0  0  0  0  0  0  0  0  0  0  0
   -0.5937    2.2901    0.6642 H   0  0  0  0  0  0  0  0  0  0  0  0
   -1.0592    1.4051   -1.6546 H   0  0  0  0  0  0  0  0  0  0  0  0
   -2.6900    0.7921   -1.1691 H   0  0  0  0  0  0  0  0  0  0  0  0
   -1.4703   -0.3261   -1.8979 H   0  0  0  0  0  0  0  0  0  0  0  0
    2.0591    2.2192   -0.5240 H   0  0  0  0  0  0  0  0  0  0  0  0
    2.6593    1.2925    0.9017 H   0  0  0  0  0  0  0  0  0  0  0  0
    3.4068    1.0341   -0.7307 H   0  0  0  0  0  0  0  0  0  0  0  0
    2.1112   -1.2079    1.0719 H   0  0  0  0  0  0  0  0  0  0  0  0
    2.8518   -1.4977   -0.5584 H   0  0  0  0  0  0  0  0  0  0  0  0
    1.1394   -1.9763   -0.2385 H   0  0  0  0  0  0  0  0  0  0  0  0
    1.2102    0.1258   -1.5705 H   0  0  0  0  0  0  0  0  0  0  0  0
   -2.4744   -0.8078    1.6042 H   0  0  0  0  0  0  0  0  0  0  0  0
   -0.8969   -2.3974   -0.4876 H   0  0  0  0  0  0  0  0  0  0  0  0
   -2.1124   -3.0339    0.7831 H   0  0  0  0  0  0  0  0  0  0  0  0
  1  2  1  0
  1  3  1  0
  1  7  1  0
  2 10  1  0
  2 11  1  0
  2 12  1  0
  3 13  1  0
  3 14  1  0
  3 15  1  0
  4  6  1  0
  4 16  1  0
  4 17  1  0
  4 18  1  0
  5  6  1  0
  5 19  1  0
  5 20  1  0
  5 21  1  0
  6  9  1  0
  6 22  1  0
  7  8  2  3
  7 23  1  0
  8 24  1  0
  8 25  1  0
M  RAD  1   1   2
M  END
>  <reaction>  (17) 
rxn_915

>  <mol_properties>  (17) 
{"1": {"label": "*0", "atom_type": "Cd"}, "2": {"label": "*1", "atom_type": "Cs"}, "14": {"label": "*4", "atom_type": "Cs"}, "15": {"label": "*3", "atom_type": "Cs"}, "20": {"label": "*2", "atom_type": "H0"}}

>  <type>  (17) 
unop_13

>  <geom_source>  (17) 
AutoTST

$$$$

     RDKit          3D

 25 23  0  0  0  0  0  0  0  0999 V2000
    1.4848   -0.1841   -1.6344 C   0  0  0  0  0  0  0  0  0  0  0  0
    1.6460   -0.5582   -0.3752 C   0  0  0  0  0  0  0  0  0  0  0  0
    0.5477   -0.7134    0.6358 C   0  0  0  0  0  3  0  0  0  0  0  0
    0.7558    0.2487    1.8068 C   0  0  0  0  0  0  0  0  0  0  0  0
    0.4712   -2.1599    1.1278 C   0  0  0  0  0  0  0  0  0  0  0  0
    2.3245   -0.0923   -2.3119 H   0  0  0  0  0  0  0  0  0  0  0  0
    0.5024    0.0446   -2.0341 H   0  0  0  0  0  0  0  0  0  0  0  0
    2.6487   -0.7791   -0.0115 H   0  0  0  0  0  0  0  0  0  0  0  0
   -0.0454    0.1441    2.5415 H   0  0  0  0  0  0  0  0  0  0  0  0
    1.7024    0.0407    2.3132 H   0  0  0  0  0  0  0  0  0  0  0  0
    0.7770    1.2849    1.4664 H   0  0  0  0  0  0  0  0  0  0  0  0
    1.4077   -2.4531    1.6101 H   0  0  0  0  0  0  0  0  0  0  0  0
    0.2888   -2.8481    0.3012 H   0  0  0  0  0  0  0  0  0  0  0  0
   -0.3316   -2.2789    1.8584 H   0  0  0  0  0  0  0  0  0  0  0  0
   -1.5521    0.5984   -1.7616 C   0  0  0  0  0  0  0  0  0  0  0  0
   -1.5521    0.5984   -0.2382 C   0  0  0  0  0  0  0  0  0  0  0  0
   -1.5521    2.0042    0.3485 C   0  0  0  0  0  0  0  0  0  0  0  0
   -0.6706    1.1127   -2.1522 H   0  0  0  0  0  0  0  0  0  0  0  0
   -2.4335    1.1127   -2.1522 H   0  0  0  0  0  0  0  0  0  0  0  0
   -1.5521   -0.4165   -2.1627 H   0  0  0  0  0  0  0  0  0  0  0  0
   -0.5027   -0.0572    0.1986 H   0  0  0  0  0  0  0  0  0  0  0  0
   -2.4266    0.0521    0.1258 H   0  0  0  0  0  0  0  0  0  0  0  0
   -2.4335    2.5628    0.0243 H   0  0  0  0  0  0  0  0  0  0  0  0
   -1.5521    1.9835    1.4396 H   0  0  0  0  0  0  0  0  0  0  0  0
   -0.6706    2.5628    0.0243 H   0  0  0  0  0  0  0  0  0  0  0  0
  1  2  2  3
  1  6  1  0
  1  7  1  0
  2  3  1  0
  2  8  1  0
  3  4  1  0
  3  5  1  0
  4  9  1  0
  4 10  1  0
  4 11  1  0
  5 12  1  0
  5 13  1  0
  5 14  1  0
 15 16  1  0
 15 18  1  0
 15 19  1  0
 15 20  1  0
 16 17  1  0
 16 21  1  0
 16 22  1  0
 17 23  1  0
 17 24  1  0
 17 25  1  0
M  RAD  1   3   2
M  END
>  <reaction>  (18) 
rxn_915

>  <mol_properties>  (18) 
{"1": {"label": "*0", "atom_type": "Cd"}, "2": {"label": "*1", "atom_type": "Cs"}, "14": {"label": "*4", "atom_type": "Cs"}, "15": {"label": "*3", "atom_type": "Cs"}, "20": {"label": "*2", "atom_type": "H0"}}

>  <type>  (18) 
unop_14

>  <geom_source>  (18) 
gaussian_log

$$$$
