
     RDKit          3D

 10  9  0  0  0  0  0  0  0  0999 V2000
    2.2738    0.0217   -0.0992 C   0  0  0  0  0  0  0  0  0  0  0  0
    1.1083    0.2960   -0.0695 C   0  0  0  0  0  0  0  0  0  0  0  0
   -0.3173    0.6046   -0.0227 C   0  0  0  0  0  0  0  0  0  0  0  0
   -1.1561   -0.5495    0.5292 C   0  0  0  0  0  0  0  0  0  0  0  0
    3.3097   -0.2166   -0.1277 H   0  0  0  0  0  0  0  0  0  0  0  0
   -0.6542    0.8617   -1.0302 H   0  0  0  0  0  0  0  0  0  0  0  0
   -0.4633    1.4978    0.5900 H   0  0  0  0  0  0  0  0  0  0  0  0
   -0.8485   -0.7997    1.5447 H   0  0  0  0  0  0  0  0  0  0  0  0
   -2.2115   -0.2752    0.5459 H   0  0  0  0  0  0  0  0  0  0  0  0
   -1.0409   -1.4407   -0.0879 H   0  0  0  0  0  0  0  0  0  0  0  0
  1  2  3  0
  1  5  1  0
  2  3  1  0
  3  4  1  0
  3  6  1  0
  3  7  1  0
  4  8  1  0
  4  9  1  0
  4 10  1  0
M  END
>  <reaction>  (1) 
rxn_1268

>  <mol_properties>  (1) 
{"2": {"label": "donator", "atom_type": "Cs"}, "5": {"label": "d_hydrogen", "atom_type": "H0"}}

>  <type>  (1) 
r1h

$$$$

     RDKit          3D

 12 11  0  0  0  0  0  0  0  0999 V2000
    2.5164   -0.5559   -0.0242 C   0  0  0  0  0  0  0  0  0  0  0  0
    1.3287   -0.2938   -0.0132 C   0  0  0  0  0  0  0  0  0  0  0  0
   -0.0146    0.0027   -0.0006 C   0  0  0  0  0  3  0  0  0  0  0  0
   -1.0396   -1.0729   -0.1642 C   0  0  0  0  0  0  0  0  0  0  0  0
   -0.4887    1.4091    0.1769 C   0  0  0  0  0  0  0  0  0  0  0  0
    3.5543   -0.7850   -0.0339 H   0  0  0  0  0  0  0  0  0  0  0  0
   -1.7064   -1.1056    0.7044 H   0  0  0  0  0  0  0  0  0  0  0  0
   -0.5831   -2.0533   -0.2854 H   0  0  0  0  0  0  0  0  0  0  0  0
   -1.6716   -0.8741   -1.0367 H   0  0  0  0  0  0  0  0  0  0  0  0
   -1.0951    1.7228   -0.6798 H   0  0  0  0  0  0  0  0  0  0  0  0
    0.3401    2.1059    0.2861 H   0  0  0  0  0  0  0  0  0  0  0  0
   -1.1300    1.4913    1.0613 H   0  0  0  0  0  0  0  0  0  0  0  0
  1  2  3  0
  1  6  1  0
  2  3  1  0
  3  4  1  0
  3  5  1  0
  4  7  1  0
  4  8  1  0
  4  9  1  0
  5 10  1  0
  5 11  1  0
  5 12  1  0
M  RAD  1   3   2
M  END
>  <reaction>  (2) 
rxn_1268

>  <mol_properties>  (2) 
{"2": {"label": "acceptor", "atom_type": "Cs"}}

>  <type>  (2) 
r2

$$$$

     RDKit          3D

 13 12  0  0  0  0  0  0  0  0999 V2000
    2.2975   -0.6134    0.7685 C   0  0  0  0  0  0  0  0  0  0  0  0
    1.1676   -0.5248    0.3802 C   0  0  0  0  0  0  0  0  0  0  0  0
   -0.2109   -0.3926   -0.0948 C   0  0  0  0  0  0  0  0  0  0  0  0
   -0.2501    0.2584   -1.4808 C   0  0  0  0  0  0  0  0  0  0  0  0
   -1.0633    0.3831    0.9141 C   0  0  0  0  0  0  0  0  0  0  0  0
    3.2999   -0.6974    1.1133 H   0  0  0  0  0  0  0  0  0  0  0  0
   -0.6209   -1.4038   -0.1814 H   0  0  0  0  0  0  0  0  0  0  0  0
    0.3402   -0.3102   -2.1992 H   0  0  0  0  0  0  0  0  0  0  0  0
    0.1511    1.2724   -1.4369 H   0  0  0  0  0  0  0  0  0  0  0  0
   -1.2791    0.3109   -1.8407 H   0  0  0  0  0  0  0  0  0  0  0  0
   -0.6861    1.4008    1.0287 H   0  0  0  0  0  0  0  0  0  0  0  0
   -1.0492   -0.0971    1.8924 H   0  0  0  0  0  0  0  0  0  0  0  0
   -2.0971    0.4363    0.5680 H   0  0  0  0  0  0  0  0  0  0  0  0
  1  2  3  0
  1  6  1  0
  2  3  1  0
  3  4  1  0
  3  5  1  0
  3  7  1  0
  4  8  1  0
  4  9  1  0
  4 10  1  0
  5 11  1  0
  5 12  1  0
  5 13  1  0
M  END
>  <reaction>  (3) 
rxn_1268

>  <mol_properties>  (3) 
{"0": {"label": "a_hydrogen", "atom_type": "H0"}, "3": {"label": "acceptor", "atom_type": "Cs"}}

>  <type>  (3) 
r2h

$$$$

     RDKit          3D

 22 20  0  0  0  0  0  0  0  0999 V2000
   -0.5308    3.2645   -0.2001 C   0  0  0  0  0  0  0  0  0  0  0  0
   -0.8291    2.1170   -0.4111 C   0  0  0  0  0  0  0  0  0  0  0  0
   -1.1336    0.7421   -0.6041 C   0  0  0  0  0  3  0  0  0  0  0  0
   -2.3593    0.1878    0.0843 C   0  0  0  0  0  0  0  0  0  0  0  0
   -0.2840    4.2849   -0.0317 H   0  0  0  0  0  0  0  0  0  0  0  0
   -0.1139    0.0630   -0.0110 H   0  0  0  0  0  0  0  0  0  0  0  0
   -1.0041    0.4087   -1.6328 H   0  0  0  0  0  0  0  0  0  0  0  0
   -3.2756    0.5438   -0.3933 H   0  0  0  0  0  0  0  0  0  0  0  0
   -2.3526   -0.9023    0.0422 H   0  0  0  0  0  0  0  0  0  0  0  0
   -2.3864    0.4942    1.1305 H   0  0  0  0  0  0  0  0  0  0  0  0
    0.3592   -3.0941    0.2608 C   0  0  0  0  0  0  0  0  0  0  0  0
    0.6140   -1.9341    0.4519 C   0  0  0  0  0  0  0  0  0  0  0  0
    0.8669   -0.5396    0.6459 C   0  0  0  0  0  0  0  0  0  0  0  0
    2.0965    0.0016   -0.0537 C   0  0  0  0  0  0  0  0  0  0  0  0
    0.6659   -0.0356    2.0601 C   0  0  0  0  0  0  0  0  0  0  0  0
    0.1486   -4.1239    0.1006 H   0  0  0  0  0  0  0  0  0  0  0  0
    2.0773    1.0932   -0.0451 H   0  0  0  0  0  0  0  0  0  0  0  0
    2.1435   -0.3380   -1.0884 H   0  0  0  0  0  0  0  0  0  0  0  0
    3.0072   -0.3288    0.4541 H   0  0  0  0  0  0  0  0  0  0  0  0
    1.4952   -0.3456    2.7025 H   0  0  0  0  0  0  0  0  0  0  0  0
   -0.2576   -0.4232    2.4900 H   0  0  0  0  0  0  0  0  0  0  0  0
    0.6223    1.0555    2.0623 H   0  0  0  0  0  0  0  0  0  0  0  0
  1  2  3  0
  1  5  1  0
  2  3  1  0
  3  4  1  0
  3  7  1  0
  4  8  1  0
  4  9  1  0
  4 10  1  0
  6 13  1  0
 11 12  3  0
 11 16  1  0
 12 13  1  0
 13 14  1  0
 13 15  1  0
 14 17  1  0
 14 18  1  0
 14 19  1  0
 15 20  1  0
 15 21  1  0
 15 22  1  0
M  RAD  1   3   2
M  END
>  <reaction>  (4) 
rxn_1268

>  <mol_properties>  (4) 
{"1": {"label": "*4", "atom_type": "Ct"}, "2": {"label": "*3", "atom_type": "Cs"}, "5": {"label": "*2", "atom_type": "H0"}, "11": {"label": "*0", "atom_type": "Ct"}, "12": {"label": "*1", "atom_type": "Cs"}}

>  <type>  (4) 
ts

$$$$

     RDKit          3D

 22 20  0  0  0  0  0  0  0  0999 V2000
   -1.3673    0.4641   -3.0535 C   0  0  0  0  0  0  0  0  0  0  0  0
   -1.3673    0.4641   -1.8558 C   0  0  0  0  0  0  0  0  0  0  0  0
   -1.3673    0.4923   -0.3966 C   0  0  0  0  0  0  0  0  0  0  0  0
   -1.3673    1.9137    0.1690 C   0  0  0  0  0  0  0  0  0  0  0  0
   -1.3673    0.4641   -4.1168 H   0  0  0  0  0  0  0  0  0  0  0  0
   -0.3167   -0.1618    0.0374 H   0  0  0  0  0  0  0  0  0  0  0  0
   -2.2428   -0.0528   -0.0349 H   0  0  0  0  0  0  0  0  0  0  0  0
   -2.2495    2.4615   -0.1625 H   0  0  0  0  0  0  0  0  0  0  0  0
   -1.3673    1.8864    1.2593 H   0  0  0  0  0  0  0  0  0  0  0  0
   -0.4851    2.4615   -0.1625 H   0  0  0  0  0  0  0  0  0  0  0  0
    2.1979    0.8813    1.9087 C   0  0  0  0  0  0  0  0  0  0  0  0
    1.5375    0.1249    1.2552 C   0  0  0  0  0  0  0  0  0  0  0  0
    0.7356   -0.8170    0.4722 C   0  0  0  0  0  3  0  0  0  0  0  0
   -0.4402   -1.3493    1.2970 C   0  0  0  0  0  0  0  0  0  0  0  0
    1.6051   -1.9571   -0.0666 C   0  0  0  0  0  0  0  0  0  0  0  0
    2.7841    1.5527    2.4886 H   0  0  0  0  0  0  0  0  0  0  0  0
   -1.0535   -2.0157    0.6879 H   0  0  0  0  0  0  0  0  0  0  0  0
   -1.0675   -0.5347    1.6590 H   0  0  0  0  0  0  0  0  0  0  0  0
   -0.0772   -1.9093    2.1606 H   0  0  0  0  0  0  0  0  0  0  0  0
    2.0285   -2.5350    0.7567 H   0  0  0  0  0  0  0  0  0  0  0  0
    2.4270   -1.5731   -0.6708 H   0  0  0  0  0  0  0  0  0  0  0  0
    1.0037   -2.6271   -0.6836 H   0  0  0  0  0  0  0  0  0  0  0  0
  1  2  3  0
  1  5  1  0
  2  3  1  0
  3  4  1  0
  3  6  1  0
  3  7  1  0
  4  8  1  0
  4  9  1  0
  4 10  1  0
 11 12  3  0
 11 16  1  0
 12 13  1  0
 13 14  1  0
 13 15  1  0
 14 17  1  0
 14 18  1  0
 14 19  1  0
 15 20  1  0
 15 21  1  0
 15 22  1  0
M  RAD  1  13   2
M  END
>  <reaction>  (5) 
rxn_1268

>  <mol_properties>  (5) 
{"1": {"label": "*4", "atom_type": "Ct"}, "2": {"label": "*3", "atom_type": "Cs"}, "5": {"label": "*2", "atom_type": "H0"}, "11": {"label": "*0", "atom_type": "Ct"}, "12": {"label": "*1", "atom_type": "Cs"}}

>  <type>  (5) 
unop_1

>  <geom_source>  (5) 
Heuristics

$$$$

     RDKit          3D

 22 20  0  0  0  0  0  0  0  0999 V2000
   -1.5003    0.5442   -2.6929 C   0  0  0  0  0  0  0  0  0  0  0  0
   -1.5003    0.5442   -1.4952 C   0  0  0  0  0  0  0  0  0  0  0  0
   -1.5003    0.5725   -0.0360 C   0  0  0  0  0  0  0  0  0  0  0  0
   -1.5003    1.9939    0.5296 C   0  0  0  0  0  0  0  0  0  0  0  0
   -1.5003    0.5442   -3.7562 H   0  0  0  0  0  0  0  0  0  0  0  0
   -0.4497   -0.0816    0.3980 H   0  0  0  0  0  0  0  0  0  0  0  0
   -2.3759    0.0274    0.3257 H   0  0  0  0  0  0  0  0  0  0  0  0
   -2.3826    2.5417    0.1981 H   0  0  0  0  0  0  0  0  0  0  0  0
   -1.5003    1.9666    1.6199 H   0  0  0  0  0  0  0  0  0  0  0  0
   -0.6181    2.5417    0.1981 H   0  0  0  0  0  0  0  0  0  0  0  0
    2.5218   -0.4756   -0.9933 C   0  0  0  0  0  0  0  0  0  0  0  0
    1.6507   -0.5903   -0.1788 C   0  0  0  0  0  0  0  0  0  0  0  0
    0.6025   -0.7368    0.8328 C   0  0  0  0  0  3  0  0  0  0  0  0
    0.8180    0.2461    1.9876 C   0  0  0  0  0  0  0  0  0  0  0  0
    0.5256   -2.1825    1.3329 C   0  0  0  0  0  0  0  0  0  0  0  0
    3.2949   -0.3738   -1.7161 H   0  0  0  0  0  0  0  0  0  0  0  0
    0.0066    0.1561    2.7120 H   0  0  0  0  0  0  0  0  0  0  0  0
    0.8498    1.2745    1.6281 H   0  0  0  0  0  0  0  0  0  0  0  0
    1.7594    0.0342    2.4976 H   0  0  0  0  0  0  0  0  0  0  0  0
    1.4583   -2.4660    1.8236 H   0  0  0  0  0  0  0  0  0  0  0  0
    0.3501   -2.8747    0.5096 H   0  0  0  0  0  0  0  0  0  0  0  0
   -0.2875   -2.2865    2.0535 H   0  0  0  0  0  0  0  0  0  0  0  0
  1  2  3  0
  1  5  1  0
  2  3  1  0
  3  4  1  0
  3  6  1  0
  3  7  1  0
  4  8  1  0
  4  9  1  0
  4 10  1  0
 11 12  3  0
 11 16  1  0
 12 13  1  0
 13 14  1  0
 13 15  1  0
 14 17  1  0
 14 18  1  0
 14 19  1  0
 15 20  1  0
 15 21  1  0
 15 22  1  0
M  RAD  1  13   2
M  END
>  <reaction>  (6) 
rxn_1268

>  <mol_properties>  (6) 
{"1": {"label": "*4", "atom_type": "Ct"}, "2": {"label": "*3", "atom_type": "Cs"}, "5": {"label": "*2", "atom_type": "H0"}, "11": {"label": "*0", "atom_type": "Ct"}, "12": {"label": "*1", "atom_type": "Cs"}}

>  <type>  (6) 
unop_2

>  <geom_source>  (6) 
Heuristics

$$$$

     RDKit          3D

 22 20  0  0  0  0  0  0  0  0999 V2000
   -1.3172    0.5569   -3.0891 C   0  0  0  0  0  0  0  0  0  0  0  0
   -1.3172    0.5569   -1.8914 C   0  0  0  0  0  0  0  0  0  0  0  0
   -1.3172    0.5852   -0.4323 C   0  0  0  0  0  0  0  0  0  0  0  0
   -1.3172    2.0065    0.1333 C   0  0  0  0  0  0  0  0  0  0  0  0
   -1.3172    0.5569   -4.1524 H   0  0  0  0  0  0  0  0  0  0  0  0
   -0.2666   -0.0690    0.0018 H   0  0  0  0  0  0  0  0  0  0  0  0
   -2.1927    0.0401   -0.0705 H   0  0  0  0  0  0  0  0  0  0  0  0
   -2.1994    2.5544   -0.1981 H   0  0  0  0  0  0  0  0  0  0  0  0
   -1.3172    1.9792    1.2236 H   0  0  0  0  0  0  0  0  0  0  0  0
   -0.4349    2.5544   -0.1981 H   0  0  0  0  0  0  0  0  0  0  0  0
    1.5023    0.3606    2.7595 C   0  0  0  0  0  0  0  0  0  0  0  0
    1.1754   -0.1182    1.7110 C   0  0  0  0  0  0  0  0  0  0  0  0
    0.7857   -0.7241    0.4365 C   0  0  0  0  0  3  0  0  0  0  0  0
   -0.1916   -1.8823    0.6595 C   0  0  0  0  0  0  0  0  0  0  0  0
    2.0187   -1.1741   -0.3530 C   0  0  0  0  0  0  0  0  0  0  0  0
    1.7924    0.7856    3.6900 H   0  0  0  0  0  0  0  0  0  0  0  0
   -0.5070   -2.2959   -0.3000 H   0  0  0  0  0  0  0  0  0  0  0  0
   -1.0768   -1.5510    1.2024 H   0  0  0  0  0  0  0  0  0  0  0  0
    0.2846   -2.6768    1.2368 H   0  0  0  0  0  0  0  0  0  0  0  0
    2.5601   -1.9477    0.1944 H   0  0  0  0  0  0  0  0  0  0  0  0
    2.6996   -0.3411   -0.5275 H   0  0  0  0  0  0  0  0  0  0  0  0
    1.7161   -1.5836   -1.3184 H   0  0  0  0  0  0  0  0  0  0  0  0
  1  2  3  0
  1  5  1  0
  2  3  1  0
  3  4  1  0
  3  6  1  0
  3  7  1  0
  4  8  1  0
  4  9  1  0
  4 10  1  0
 11 12  3  0
 11 16  1  0
 12 13  1  0
 13 14  1  0
 13 15  1  0
 14 17  1  0
 14 18  1  0
 14 19  1  0
 15 20  1  0
 15 21  1  0
 15 22  1  0
M  RAD  1  13   2
M  END
>  <reaction>  (7) 
rxn_1268

>  <mol_properties>  (7) 
{"1": {"label": "*4", "atom_type": "Ct"}, "2": {"label": "*3", "atom_type": "Cs"}, "5": {"label": "*2", "atom_type": "H0"}, "11": {"label": "*0", "atom_type": "Ct"}, "12": {"label": "*1", "atom_type": "Cs"}}

>  <type>  (7) 
unop_3

>  <geom_source>  (7) 
Heuristics

$$$$

     RDKit          3D

 22 20  0  0  0  0  0  0  0  0999 V2000
   -1.2262    0.8652   -2.8226 C   0  0  0  0  0  0  0  0  0  0  0  0
   -1.2262    0.8652   -1.6248 C   0  0  0  0  0  0  0  0  0  0  0  0
   -1.2262    0.8934   -0.1657 C   0  0  0  0  0  0  0  0  0  0  0  0
   -1.2262    2.3148    0.3999 C   0  0  0  0  0  0  0  0  0  0  0  0
   -1.2262    0.8652   -3.8859 H   0  0  0  0  0  0  0  0  0  0  0  0
   -0.1756    0.2393    0.2684 H   0  0  0  0  0  0  0  0  0  0  0  0
   -2.1017    0.3484    0.1960 H   0  0  0  0  0  0  0  0  0  0  0  0
   -2.1084    2.8627    0.0684 H   0  0  0  0  0  0  0  0  0  0  0  0
   -1.2262    2.2875    1.4902 H   0  0  0  0  0  0  0  0  0  0  0  0
   -0.3440    2.8627    0.0684 H   0  0  0  0  0  0  0  0  0  0  0  0
    0.6856   -2.9181   -0.1849 C   0  0  0  0  0  0  0  0  0  0  0  0
    0.7665   -1.7884    0.2059 C   0  0  0  0  0  0  0  0  0  0  0  0
    0.8766   -0.4158    0.7031 C   0  0  0  0  0  3  0  0  0  0  0  0
    2.3450   -0.0034    0.8451 C   0  0  0  0  0  0  0  0  0  0  0  0
    0.1171   -0.2513    2.0230 C   0  0  0  0  0  0  0  0  0  0  0  0
    0.6137   -3.9206   -0.5318 H   0  0  0  0  0  0  0  0  0  0  0  0
    2.4119    1.0349    1.1746 H   0  0  0  0  0  0  0  0  0  0  0  0
    2.8745   -0.1017   -0.1024 H   0  0  0  0  0  0  0  0  0  0  0  0
    2.8474   -0.6315    1.5829 H   0  0  0  0  0  0  0  0  0  0  0  0
    0.5538   -0.8867    2.7956 H   0  0  0  0  0  0  0  0  0  0  0  0
   -0.9318   -0.5252    1.9101 H   0  0  0  0  0  0  0  0  0  0  0  0
    0.1712    0.7856    2.3593 H   0  0  0  0  0  0  0  0  0  0  0  0
  1  2  3  0
  1  5  1  0
  2  3  1  0
  3  4  1  0
  3  6  1  0
  3  7  1  0
  4  8  1  0
  4  9  1  0
  4 10  1  0
 11 12  3  0
 11 16  1  0
 12 13  1  0
 13 14  1  0
 13 15  1  0
 14 17  1  0
 14 18  1  0
 14 19  1  0
 15 20  1  0
 15 21  1  0
 15 22  1  0
M  RAD  1  13   2
M  END
>  <reaction>  (8) 
rxn_1268

>  <mol_properties>  (8) 
{"1": {"label": "*4", "atom_type": "Ct"}, "2": {"label": "*3", "atom_type": "Cs"}, "5": {"label": "*2", "atom_type": "H0"}, "11": {"label": "*0", "atom_type": "Ct"}, "12": {"label": "*1", "atom_type": "Cs"}}

>  <type>  (8) 
unop_4

>  <geom_source>  (8) 
Heuristics

$$$$

     RDKit          3D

 22 20  0  0  0  0  0  0  0  0999 V2000
   -1.3080    0.6111   -3.0835 C   0  0  0  0  0  0  0  0  0  0  0  0
   -1.3080    0.6111   -1.8858 C   0  0  0  0  0  0  0  0  0  0  0  0
   -1.3080    0.6393   -0.4266 C   0  0  0  0  0  0  0  0  0  0  0  0
   -1.3080    2.0607    0.1390 C   0  0  0  0  0  0  0  0  0  0  0  0
   -1.3080    0.6111   -4.1468 H   0  0  0  0  0  0  0  0  0  0  0  0
   -0.2574   -0.0148    0.0074 H   0  0  0  0  0  0  0  0  0  0  0  0
   -2.1835    0.0942   -0.0649 H   0  0  0  0  0  0  0  0  0  0  0  0
   -2.1902    2.6086   -0.1925 H   0  0  0  0  0  0  0  0  0  0  0  0
   -1.3080    2.0334    1.2292 H   0  0  0  0  0  0  0  0  0  0  0  0
   -0.4257    2.6085   -0.1925 H   0  0  0  0  0  0  0  0  0  0  0  0
    0.7491   -0.5897    3.1026 C   0  0  0  0  0  0  0  0  0  0  0  0
    0.7606   -0.6201    1.9049 C   0  0  0  0  0  0  0  0  0  0  0  0
    0.7949   -0.6700    0.4422 C   0  0  0  0  0  3  0  0  0  0  0  0
    0.6969   -2.1149   -0.0567 C   0  0  0  0  0  0  0  0  0  0  0  0
    2.0474    0.0268   -0.0981 C   0  0  0  0  0  0  0  0  0  0  0  0
    0.7389   -0.5627    4.1655 H   0  0  0  0  0  0  0  0  0  0  0  0
    0.6798   -2.1338   -1.1478 H   0  0  0  0  0  0  0  0  0  0  0  0
   -0.2074   -2.5981    0.3130 H   0  0  0  0  0  0  0  0  0  0  0  0
    1.5566   -2.6946    0.2839 H   0  0  0  0  0  0  0  0  0  0  0  0
    2.9470   -0.4897    0.2413 H   0  0  0  0  0  0  0  0  0  0  0  0
    2.1000    1.0609    0.2422 H   0  0  0  0  0  0  0  0  0  0  0  0
    2.0381    0.0202   -1.1895 H   0  0  0  0  0  0  0  0  0  0  0  0
  1  2  3  0
  1  5  1  0
  2  3  1  0
  3  4  1  0
  3  6  1  0
  3  7  1  0
  4  8  1  0
  4  9  1  0
  4 10  1  0
 11 12  3  0
 11 16  1  0
 12 13  1  0
 13 14  1  0
 13 15  1  0
 14 17  1  0
 14 18  1  0
 14 19  1  0
 15 20  1  0
 15 21  1  0
 15 22  1  0
M  RAD  1  13   2
M  END
>  <reaction>  (9) 
rxn_1268

>  <mol_properties>  (9) 
{"1": {"label": "*4", "atom_type": "Ct"}, "2": {"label": "*3", "atom_type": "Cs"}, "5": {"label": "*2", "atom_type": "H0"}, "11": {"label": "*0", "atom_type": "Ct"}, "12": {"label": "*1", "atom_type": "Cs"}}

>  <type>  (9) 
unop_5

>  <geom_source>  (9) 
Heuristics

$$$$

     RDKit          3D

 22 20  0  0  0  0  0  0  0  0999 V2000
   -1.1819    0.8221   -2.9598 C   0  0  0  0  0  0  0  0  0  0  0  0
   -1.1819    0.8221   -1.7621 C   0  0  0  0  0  0  0  0  0  0  0  0
   -1.1819    0.8503   -0.3029 C   0  0  0  0  0  0  0  0  0  0  0  0
   -1.1819    2.2717    0.2627 C   0  0  0  0  0  0  0  0  0  0  0  0
   -1.1819    0.8221   -4.0231 H   0  0  0  0  0  0  0  0  0  0  0  0
   -0.1313    0.1962    0.1311 H   0  0  0  0  0  0  0  0  0  0  0  0
   -2.0574    0.3052    0.0588 H   0  0  0  0  0  0  0  0  0  0  0  0
   -2.0641    2.8196   -0.0688 H   0  0  0  0  0  0  0  0  0  0  0  0
   -1.1819    2.2444    1.3529 H   0  0  0  0  0  0  0  0  0  0  0  0
   -0.2996    2.8195   -0.0688 H   0  0  0  0  0  0  0  0  0  0  0  0
    0.2042   -3.0029    0.8836 C   0  0  0  0  0  0  0  0  0  0  0  0
    0.5208   -1.8574    0.7316 C   0  0  0  0  0  0  0  0  0  0  0  0
    0.9210   -0.4590    0.5659 C   0  0  0  0  0  3  0  0  0  0  0  0
    2.4359   -0.3447    0.3706 C   0  0  0  0  0  0  0  0  0  0  0  0
    0.4417    0.3892    1.7478 C   0  0  0  0  0  0  0  0  0  0  0  0
   -0.0769   -4.0195    1.0184 H   0  0  0  0  0  0  0  0  0  0  0  0
    2.7144    0.6975    0.2050 H   0  0  0  0  0  0  0  0  0  0  0  0
    2.7676   -0.9327   -0.4851 H   0  0  0  0  0  0  0  0  0  0  0  0
    2.9624   -0.7049    1.2562 H   0  0  0  0  0  0  0  0  0  0  0  0
    0.9093    0.0507    2.6740 H   0  0  0  0  0  0  0  0  0  0  0  0
   -0.6394    0.3213    1.8679 H   0  0  0  0  0  0  0  0  0  0  0  0
    0.7087    1.4357    1.5902 H   0  0  0  0  0  0  0  0  0  0  0  0
  1  2  3  0
  1  5  1  0
  2  3  1  0
  3  4  1  0
  3  6  1  0
  3  7  1  0
  4  8  1  0
  4  9  1  0
  4 10  1  0
 11 12  3  0
 11 16  1  0
 12 13  1  0
 13 14  1  0
 13 15  1  0
 14 17  1  0
 14 18  1  0
 14 19  1  0
 15 20  1  0
 15 21  1  0
 15 22  1  0
M  RAD  1  13   2
M  END
>  <reaction>  (10) 
rxn_1268

>  <mol_properties>  (10) 
{"1": {"label": "*4", "atom_type": "Ct"}, "2": {"label": "*3", "atom_type": "Cs"}, "5": {"label": "*2", "atom_type": "H0"}, "11": {"label": "*0", "atom_type": "Ct"}, "12": {"label": "*1", "atom_type": "Cs"}}

>  <type>  (10) 
unop_6

>  <geom_source>  (10) 
Heuristics

$$$$

     RDKit          3D

 22 20  0  0  0  0  0  0  0  0999 V2000
   -1.2004    0.7287   -3.0586 C   0  0  0  0  0  0  0  0  0  0  0  0
   -1.2004    0.7287   -1.8609 C   0  0  0  0  0  0  0  0  0  0  0  0
   -1.2004    0.7569   -0.4017 C   0  0  0  0  0  0  0  0  0  0  0  0
   -1.2004    2.1783    0.1639 C   0  0  0  0  0  0  0  0  0  0  0  0
   -1.2004    0.7287   -4.1219 H   0  0  0  0  0  0  0  0  0  0  0  0
   -0.1498    0.1028    0.0323 H   0  0  0  0  0  0  0  0  0  0  0  0
   -2.0759    0.2119   -0.0400 H   0  0  0  0  0  0  0  0  0  0  0  0
   -2.0826    2.7262   -0.1676 H   0  0  0  0  0  0  0  0  0  0  0  0
   -1.2004    2.1510    1.2542 H   0  0  0  0  0  0  0  0  0  0  0  0
   -0.3182    2.7262   -0.1676 H   0  0  0  0  0  0  0  0  0  0  0  0
    0.0259   -2.5631    1.9753 C   0  0  0  0  0  0  0  0  0  0  0  0
    0.4122   -1.6596    1.2897 C   0  0  0  0  0  0  0  0  0  0  0  0
    0.9025   -0.5523    0.4671 C   0  0  0  0  0  3  0  0  0  0  0  0
    2.2964   -0.8608   -0.0878 C   0  0  0  0  0  0  0  0  0  0  0  0
    0.8901    0.7604    1.2562 C   0  0  0  0  0  0  0  0  0  0  0  0
   -0.3170   -3.3649    2.5837 H   0  0  0  0  0  0  0  0  0  0  0  0
    2.6308   -0.0468   -0.7335 H   0  0  0  0  0  0  0  0  0  0  0  0
    2.2939   -1.7842   -0.6667 H   0  0  0  0  0  0  0  0  0  0  0  0
    3.0147   -0.9711    0.7265 H   0  0  0  0  0  0  0  0  0  0  0  0
    1.5669    0.6979    2.1101 H   0  0  0  0  0  0  0  0  0  0  0  0
   -0.1088    0.9855    1.6296 H   0  0  0  0  0  0  0  0  0  0  0  0
    1.2164    1.5837    0.6183 H   0  0  0  0  0  0  0  0  0  0  0  0
  1  2  3  0
  1  5  1  0
  2  3  1  0
  3  4  1  0
  3  6  1  0
  3  7  1  0
  4  8  1  0
  4  9  1  0
  4 10  1  0
 11 12  3  0
 11 16  1  0
 12 13  1  0
 13 14  1  0
 13 15  1  0
 14 17  1  0
 14 18  1  0
 14 19  1  0
 15 20  1  0
 15 21  1  0
 15 22  1  0
M  RAD  1  13   2
M  END
>  <reaction>  (11) 
rxn_1268

>  <mol_properties>  (11) 
{"1": {"label": "*4", "atom_type": "Ct"}, "2": {"label": "*3", "atom_type": "Cs"}, "5": {"label": "*2", "atom_type": "H0"}, "11": {"label": "*0", "atom_type": "Ct"}, "12": {"label": "*1", "atom_type": "Cs"}}

>  <type>  (11) 
unop_7

>  <geom_source>  (11) 
Heuristics

$$$$

     RDKit          3D

 22 20  0  0  0  0  0  0  0  0999 V2000
   -1.4418    0.4099   -2.9518 C   0  0  0  0  0  0  0  0  0  0  0  0
   -1.4418    0.4099   -1.7541 C   0  0  0  0  0  0  0  0  0  0  0  0
   -1.4418    0.4381   -0.2950 C   0  0  0  0  0  0  0  0  0  0  0  0
   -1.4418    1.8595    0.2706 C   0  0  0  0  0  0  0  0  0  0  0  0
   -1.4418    0.4099   -4.0151 H   0  0  0  0  0  0  0  0  0  0  0  0
   -0.3912   -0.2160    0.1391 H   0  0  0  0  0  0  0  0  0  0  0  0
   -2.3173   -0.1070    0.0667 H   0  0  0  0  0  0  0  0  0  0  0  0
   -2.3240    2.4074   -0.0608 H   0  0  0  0  0  0  0  0  0  0  0  0
   -1.4418    1.8322    1.3609 H   0  0  0  0  0  0  0  0  0  0  0  0
   -0.5596    2.4073   -0.0608 H   0  0  0  0  0  0  0  0  0  0  0  0
    2.6525    0.8797    0.8085 C   0  0  0  0  0  0  0  0  0  0  0  0
    1.7530    0.0966    0.6938 C   0  0  0  0  0  0  0  0  0  0  0  0
    0.6610   -0.8712    0.5738 C   0  0  0  0  0  3  0  0  0  0  0  0
   -0.2901   -0.7713    1.7703 C   0  0  0  0  0  0  0  0  0  0  0  0
    1.2077   -2.2924    0.4083 C   0  0  0  0  0  0  0  0  0  0  0  0
    3.4508    1.5746    0.9102 H   0  0  0  0  0  0  0  0  0  0  0  0
   -1.1218   -1.4671    1.6464 H   0  0  0  0  0  0  0  0  0  0  0  0
   -0.6928    0.2366    1.8696 H   0  0  0  0  0  0  0  0  0  0  0  0
    0.2330   -1.0218    2.6948 H   0  0  0  0  0  0  0  0  0  0  0  0
    1.7750   -2.5877    1.2926 H   0  0  0  0  0  0  0  0  0  0  0  0
    1.8662   -2.3622   -0.4574 H   0  0  0  0  0  0  0  0  0  0  0  0
    0.3847   -2.9970    0.2765 H   0  0  0  0  0  0  0  0  0  0  0  0
  1  2  3  0
  1  5  1  0
  2  3  1  0
  3  4  1  0
  3  6  1  0
  3  7  1  0
  4  8  1  0
  4  9  1  0
  4 10  1  0
 11 12  3  0
 11 16  1  0
 12 13  1  0
 13 14  1  0
 13 15  1  0
 14 17  1  0
 14 18  1  0
 14 19  1  0
 15 20  1  0
 15 21  1  0
 15 22  1  0
M  RAD  1  13   2
M  END
>  <reaction>  (12) 
rxn_1268

>  <mol_properties>  (12) 
{"1": {"label": "*4", "atom_type": "Ct"}, "2": {"label": "*3", "atom_type": "Cs"}, "5": {"label": "*2", "atom_type": "H0"}, "11": {"label": "*0", "atom_type": "Ct"}, "12": {"label": "*1", "atom_type": "Cs"}}

>  <type>  (12) 
unop_8

>  <geom_source>  (12) 
Heuristics

$$$$

     RDKit          3D

 22 20  0  0  0  0  0  0  0  0999 V2000
   -1.3238    0.8242   -2.6983 C   0  0  0  0  0  0  0  0  0  0  0  0
   -1.3238    0.8242   -1.5006 C   0  0  0  0  0  0  0  0  0  0  0  0
   -1.3238    0.8524   -0.0414 C   0  0  0  0  0  0  0  0  0  0  0  0
   -1.3238    2.2738    0.5242 C   0  0  0  0  0  0  0  0  0  0  0  0
   -1.3238    0.8242   -3.7616 H   0  0  0  0  0  0  0  0  0  0  0  0
   -0.2732    0.1983    0.3926 H   0  0  0  0  0  0  0  0  0  0  0  0
   -2.1993    0.3073    0.3203 H   0  0  0  0  0  0  0  0  0  0  0  0
   -2.2060    2.8217    0.1927 H   0  0  0  0  0  0  0  0  0  0  0  0
   -1.3238    2.2465    1.6144 H   0  0  0  0  0  0  0  0  0  0  0  0
   -0.4416    2.8216    0.1927 H   0  0  0  0  0  0  0  0  0  0  0  0
    1.3390   -2.3513   -0.9570 C   0  0  0  0  0  0  0  0  0  0  0  0
    1.0811   -1.4935   -0.1613 C   0  0  0  0  0  0  0  0  0  0  0  0
    0.7791   -0.4569    0.8274 C   0  0  0  0  0  3  0  0  0  0  0  0
    2.0588    0.2489    1.2859 C   0  0  0  0  0  0  0  0  0  0  0  0
    0.0054   -1.0425    2.0126 C   0  0  0  0  0  0  0  0  0  0  0  0
    1.5679   -3.1125   -1.6632 H   0  0  0  0  0  0  0  0  0  0  0  0
    1.8147    1.0472    1.9891 H   0  0  0  0  0  0  0  0  0  0  0  0
    2.5933    0.6825    0.4407 H   0  0  0  0  0  0  0  0  0  0  0  0
    2.7253   -0.4569    1.7847 H   0  0  0  0  0  0  0  0  0  0  0  0
    0.6113   -1.7864    2.5328 H   0  0  0  0  0  0  0  0  0  0  0  0
   -0.9149   -1.5239    1.6823 H   0  0  0  0  0  0  0  0  0  0  0  0
   -0.2506   -0.2517    2.7199 H   0  0  0  0  0  0  0  0  0  0  0  0
  1  2  3  0
  1  5  1  0
  2  3  1  0
  3  4  1  0
  3  6  1  0
  3  7  1  0
  4  8  1  0
  4  9  1  0
  4 10  1  0
 11 12  3  0
 11 16  1  0
 12 13  1  0
 13 14  1  0
 13 15  1  0
 14 17  1  0
 14 18  1  0
 14 19  1  0
 15 20  1  0
 15 21  1  0
 15 22  1  0
M  RAD  1  13   2
M  END
>  <reaction>  (13) 
rxn_1268

>  <mol_properties>  (13) 
{"1": {"label": "*4", "atom_type": "Ct"}, "2": {"label": "*3", "atom_type": "Cs"}, "5": {"label": "*2", "atom_type": "H0"}, "11": {"label": "*0", "atom_type": "Ct"}, "12": {"label": "*1", "atom_type": "Cs"}}

>  <type>  (13) 
unop_9

>  <geom_source>  (13) 
Heuristics

$$$$

     RDKit          3D

 22 20  0  0  0  0  0  0  0  0999 V2000
   -1.4974    0.4351   -2.8142 C   0  0  0  0  0  0  0  0  0  0  0  0
   -1.4974    0.4351   -1.6165 C   0  0  0  0  0  0  0  0  0  0  0  0
   -1.4974    0.4633   -0.1574 C   0  0  0  0  0  0  0  0  0  0  0  0
   -1.4974    1.8847    0.4082 C   0  0  0  0  0  0  0  0  0  0  0  0
   -1.4974    0.4351   -3.8775 H   0  0  0  0  0  0  0  0  0  0  0  0
   -0.4468   -0.1908    0.2767 H   0  0  0  0  0  0  0  0  0  0  0  0
   -2.3730   -0.0817    0.2043 H   0  0  0  0  0  0  0  0  0  0  0  0
   -2.3797    2.4326    0.0768 H   0  0  0  0  0  0  0  0  0  0  0  0
   -1.4974    1.8574    1.4985 H   0  0  0  0  0  0  0  0  0  0  0  0
   -0.6152    2.4326    0.0768 H   0  0  0  0  0  0  0  0  0  0  0  0
    2.7649    0.3793   -0.2487 C   0  0  0  0  0  0  0  0  0  0  0  0
    1.7875   -0.1693    0.1746 C   0  0  0  0  0  0  0  0  0  0  0  0
    0.6054   -0.8459    0.7114 C   0  0  0  0  0  3  0  0  0  0  0  0
    0.1526   -0.1950    2.0220 C   0  0  0  0  0  0  0  0  0  0  0  0
    0.8689   -2.3442    0.8904 C   0  0  0  0  0  0  0  0  0  0  0  0
    3.6323    0.8662   -0.6244 H   0  0  0  0  0  0  0  0  0  0  0  0
   -0.7536   -0.6810    2.3877 H   0  0  0  0  0  0  0  0  0  0  0  0
   -0.0545    0.8660    1.8831 H   0  0  0  0  0  0  0  0  0  0  0  0
    0.9275   -0.2941    2.7841 H   0  0  0  0  0  0  0  0  0  0  0  0
    1.6649   -2.5066    1.6192 H   0  0  0  0  0  0  0  0  0  0  0  0
    1.1693   -2.8058   -0.0501 H   0  0  0  0  0  0  0  0  0  0  0  0
   -0.0332   -2.8426    1.2496 H   0  0  0  0  0  0  0  0  0  0  0  0
  1  2  3  0
  1  5  1  0
  2  3  1  0
  3  4  1  0
  3  6  1  0
  3  7  1  0
  4  8  1  0
  4  9  1  0
  4 10  1  0
 11 12  3  0
 11 16  1  0
 12 13  1  0
 13 14  1  0
 13 15  1  0
 14 17  1  0
 14 18  1  0
 14 19  1  0
 15 20  1  0
 15 21  1  0
 15 22  1  0
M  RAD  1  13   2
M  END
>  <reaction>  (14) 
rxn_1268

>  <mol_properties>  (14) 
{"1": {"label": "*4", "atom_type": "Ct"}, "2": {"label": "*3", "atom_type": "Cs"}, "5": {"label": "*2", "atom_type": "H0"}, "11": {"label": "*0", "atom_type": "Ct"}, "12": {"label": "*1", "atom_type": "Cs"}}

>  <type>  (14) 
unop_10

>  <geom_source>  (14) 
Heuristics

$$$$

     RDKit          3D

 22 20  0  0  0  0  0  0  0  0999 V2000
   -1.2632    0.6425   -3.0908 C   0  0  0  0  0  0  0  0  0  0  0  0
   -1.2632    0.6425   -1.8931 C   0  0  0  0  0  0  0  0  0  0  0  0
   -1.2632    0.6707   -0.4339 C   0  0  0  0  0  0  0  0  0  0  0  0
   -1.2632    2.0921    0.1317 C   0  0  0  0  0  0  0  0  0  0  0  0
   -1.2632    0.6425   -4.1541 H   0  0  0  0  0  0  0  0  0  0  0  0
   -0.2126    0.0166    0.0001 H   0  0  0  0  0  0  0  0  0  0  0  0
   -2.1387    0.1257   -0.0722 H   0  0  0  0  0  0  0  0  0  0  0  0
   -2.1454    2.6400   -0.1998 H   0  0  0  0  0  0  0  0  0  0  0  0
   -1.2632    2.0648    1.2220 H   0  0  0  0  0  0  0  0  0  0  0  0
   -0.3809    2.6400   -0.1998 H   0  0  0  0  0  0  0  0  0  0  0  0
    0.2106   -1.6878    2.7991 C   0  0  0  0  0  0  0  0  0  0  0  0
    0.4833   -1.2157    1.7322 C   0  0  0  0  0  0  0  0  0  0  0  0
    0.8397   -0.6385    0.4349 C   0  0  0  0  0  3  0  0  0  0  0  0
    1.7634   -1.5790   -0.3452 C   0  0  0  0  0  0  0  0  0  0  0  0
    1.4670    0.7480    0.6087 C   0  0  0  0  0  0  0  0  0  0  0  0
   -0.0315   -2.1067    3.7460 H   0  0  0  0  0  0  0  0  0  0  0  0
    1.9856   -1.1563   -1.3266 H   0  0  0  0  0  0  0  0  0  0  0  0
    1.3024   -2.5567   -0.4847 H   0  0  0  0  0  0  0  0  0  0  0  0
    2.7042   -1.7191    0.1899 H   0  0  0  0  0  0  0  0  0  0  0  0
    2.3991    0.6765    1.1719 H   0  0  0  0  0  0  0  0  0  0  0  0
    0.7961    1.4189    1.1449 H   0  0  0  0  0  0  0  0  0  0  0  0
    1.6875    1.1841   -0.3673 H   0  0  0  0  0  0  0  0  0  0  0  0
  1  2  3  0
  1  5  1  0
  2  3  1  0
  3  4  1  0
  3  6  1  0
  3  7  1  0
  4  8  1  0
  4  9  1  0
  4 10  1  0
 11 12  3  0
 11 16  1  0
 12 13  1  0
 13 14  1  0
 13 15  1  0
 14 17  1  0
 14 18  1  0
 14 19  1  0
 15 20  1  0
 15 21  1  0
 15 22  1  0
M  RAD  1  13   2
M  END
>  <reaction>  (15) 
rxn_1268

>  <mol_properties>  (15) 
{"1": {"label": "*4", "atom_type": "Ct"}, "2": {"label": "*3", "atom_type": "Cs"}, "5": {"label": "*2", "atom_type": "H0"}, "11": {"label": "*0", "atom_type": "Ct"}, "12": {"label": "*1", "atom_type": "Cs"}}

>  <type>  (15) 
unop_11

>  <geom_source>  (15) 
Heuristics

$$$$

     RDKit          3D

 22 20  0  0  0  0  0  0  0  0999 V2000
   -1.4343    0.6992   -2.6450 C   0  0  0  0  0  0  0  0  0  0  0  0
   -1.4343    0.6992   -1.4473 C   0  0  0  0  0  0  0  0  0  0  0  0
   -1.4343    0.7274    0.0118 C   0  0  0  0  0  0  0  0  0  0  0  0
   -1.4343    2.1488    0.5774 C   0  0  0  0  0  0  0  0  0  0  0  0
   -1.4343    0.6992   -3.7084 H   0  0  0  0  0  0  0  0  0  0  0  0
   -0.3837    0.0733    0.4459 H   0  0  0  0  0  0  0  0  0  0  0  0
   -2.3098    0.1824    0.3735 H   0  0  0  0  0  0  0  0  0  0  0  0
   -2.3165    2.6967    0.2460 H   0  0  0  0  0  0  0  0  0  0  0  0
   -1.4343    2.1215    1.6677 H   0  0  0  0  0  0  0  0  0  0  0  0
   -0.5520    2.6966    0.2460 H   0  0  0  0  0  0  0  0  0  0  0  0
    2.0021   -1.4639   -1.2477 C   0  0  0  0  0  0  0  0  0  0  0  0
    1.3946   -1.0624   -0.2963 C   0  0  0  0  0  0  0  0  0  0  0  0
    0.6686   -0.5818    0.8806 C   0  0  0  0  0  3  0  0  0  0  0  0
    1.5309    0.3872    1.6952 C   0  0  0  0  0  0  0  0  0  0  0  0
    0.1804   -1.7545    1.7366 C   0  0  0  0  0  0  0  0  0  0  0  0
    2.5413   -1.8203   -2.0921 H   0  0  0  0  0  0  0  0  0  0  0  0
    0.9626    0.7706    2.5445 H   0  0  0  0  0  0  0  0  0  0  0  0
    1.8568    1.2305    1.0866 H   0  0  0  0  0  0  0  0  0  0  0  0
    2.4184   -0.1209    2.0765 H   0  0  0  0  0  0  0  0  0  0  0  0
    1.0280   -2.3258    2.1191 H   0  0  0  0  0  0  0  0  0  0  0  0
   -0.4506   -2.4285    1.1574 H   0  0  0  0  0  0  0  0  0  0  0  0
   -0.3957   -1.3834    2.5862 H   0  0  0  0  0  0  0  0  0  0  0  0
  1  2  3  0
  1  5  1  0
  2  3  1  0
  3  4  1  0
  3  6  1  0
  3  7  1  0
  4  8  1  0
  4  9  1  0
  4 10  1  0
 11 12  3  0
 11 16  1  0
 12 13  1  0
 13 14  1  0
 13 15  1  0
 14 17  1  0
 14 18  1  0
 14 19  1  0
 15 20  1  0
 15 21  1  0
 15 22  1  0
M  RAD  1  13   2
M  END
>  <reaction>  (16) 
rxn_1268

>  <mol_properties>  (16) 
{"1": {"label": "*4", "atom_type": "Ct"}, "2": {"label": "*3", "atom_type": "Cs"}, "5": {"label": "*2", "atom_type": "H0"}, "11": {"label": "*0", "atom_type": "Ct"}, "12": {"label": "*1", "atom_type": "Cs"}}

>  <type>  (16) 
unop_12

>  <geom_source>  (16) 
Heuristics

$$$$

     RDKit          3D

 22 20  0  0  0  0  0  0  0  0999 V2000
   -1.0974   -0.0518    0.0679 C   0  0  0  0  0  0  0  0  0  0  0  0
   -1.2205   -1.5078    0.5189 C   0  0  0  0  0  0  0  0  0  0  0  0
   -2.1376    0.2808   -1.0026 C   0  0  0  0  0  0  0  0  0  0  0  0
    1.9471    1.0462   -1.2990 C   0  0  0  0  0  0  0  0  0  0  0  0
    1.3989   -0.2380   -0.6941 C   0  0  0  0  0  3  0  0  0  0  0  0
   -1.2538    0.8486    1.2205 C   0  0  0  0  0  0  0  0  0  0  0  0
    2.1824   -0.6353    0.4807 C   0  0  0  0  0  0  0  0  0  0  0  0
   -1.3809    1.5870    2.1651 C   0  0  0  0  0  0  0  0  0  0  0  0
    2.8256   -0.9625    1.4464 C   0  0  0  0  0  0  0  0  0  0  0  0
    0.1019    0.1301   -0.4412 H   0  0  0  0  0  0  0  0  0  0  0  0
   -0.4421   -1.7386    1.2775 H   0  0  0  0  0  0  0  0  0  0  0  0
   -2.2227   -1.7019    0.9593 H   0  0  0  0  0  0  0  0  0  0  0  0
   -1.0703   -2.1870   -0.3470 H   0  0  0  0  0  0  0  0  0  0  0  0
   -1.9975   -0.3787   -1.8853 H   0  0  0  0  0  0  0  0  0  0  0  0
   -3.1681    0.1418   -0.6092 H   0  0  0  0  0  0  0  0  0  0  0  0
   -2.0175    1.3338   -1.3362 H   0  0  0  0  0  0  0  0  0  0  0  0
    1.9024    1.8698   -0.5549 H   0  0  0  0  0  0  0  0  0  0  0  0
    1.3308    1.3294   -2.1775 H   0  0  0  0  0  0  0  0  0  0  0  0
    2.9982    0.9019   -1.6300 H   0  0  0  0  0  0  0  0  0  0  0  0
    1.4234   -1.0533   -1.4476 H   0  0  0  0  0  0  0  0  0  0  0  0
   -1.4927    2.2350    2.9943 H   0  0  0  0  0  0  0  0  0  0  0  0
    3.3904   -1.2496    2.2941 H   0  0  0  0  0  0  0  0  0  0  0  0
  1  2  1  0
  1  3  1  0
  1  6  1  0
  1 10  1  0
  2 11  1  0
  2 12  1  0
  2 13  1  0
  3 14  1  0
  3 15  1  0
  3 16  1  0
  4  5  1  0
  4 17  1  0
  4 18  1  0
  4 19  1  0
  5  7  1  0
  5 20  1  0
  6  8  3  0
  7  9  3  0
  8 21  1  0
  9 22  1  0
M  RAD  1   5   2
M  END
>  <reaction>  (17) 
rxn_1268

>  <mol_properties>  (17) 
{"1": {"label": "*4", "atom_type": "Ct"}, "2": {"label": "*3", "atom_type": "Cs"}, "5": {"label": "*2", "atom_type": "H0"}, "11": {"label": "*0", "atom_type": "Ct"}, "12": {"label": "*1", "atom_type": "Cs"}}

>  <type>  (17) 
unop_13

>  <geom_source>  (17) 
AutoTST

$$$$
