
     RDKit          3D

  7  6  0  0  0  0  0  0  0  0999 V2000
    1.2985   -0.0065   -0.2721 C   0  0  0  0  0  0  0  0  0  0  0  0
    0.0000    0.0000   -0.2926 C   0  0  0  0  0  0  0  0  0  0  0  0
   -1.2985    0.0065   -0.3130 C   0  0  0  0  0  0  0  0  0  0  0  0
    1.8444   -0.7551    0.2895 H   0  0  0  0  0  0  0  0  0  0  0  0
    1.8693    0.7364   -0.8162 H   0  0  0  0  0  0  0  0  0  0  0  0
   -1.8658    0.5623    0.4239 H   0  0  0  0  0  0  0  0  0  0  0  0
   -1.8479   -0.5437   -1.0675 H   0  0  0  0  0  0  0  0  0  0  0  0
  1  2  2  0
  1  4  1  0
  1  5  1  0
  2  3  2  0
  3  6  1  0
  3  7  1  0
M  END
>  <reaction>  (1) 
rxn_1791

>  <mol_properties>  (1) 
{"0": {"label": "donator", "atom_type": "Cd"}, "3": {"label": "d_hydrogen", "atom_type": "H0"}}

>  <type>  (1) 
r1h

$$$$

     RDKit          3D

  8  7  0  0  0  0  0  0  0  0999 V2000
    1.4098   -0.3617   -0.1137 C   0  0  0  0  0  0  0  0  0  0  0  0
    0.1829   -0.1715   -0.5109 C   0  0  0  0  0  3  0  0  0  0  0  0
   -1.1129    0.2669    0.0153 C   0  0  0  0  0  0  0  0  0  0  0  0
    2.1881   -0.7137   -0.7829 H   0  0  0  0  0  0  0  0  0  0  0  0
    1.7065   -0.1722    0.9205 H   0  0  0  0  0  0  0  0  0  0  0  0
   -1.8665   -0.5154   -0.0958 H   0  0  0  0  0  0  0  0  0  0  0  0
   -1.0351    0.5163    1.0818 H   0  0  0  0  0  0  0  0  0  0  0  0
   -1.4726    1.1513   -0.5143 H   0  0  0  0  0  0  0  0  0  0  0  0
  1  2  2  3
  1  4  1  0
  1  5  1  0
  2  3  1  0
  3  6  1  0
  3  7  1  0
  3  8  1  0
M  RAD  1   2   2
M  END
>  <reaction>  (2) 
rxn_1791

>  <mol_properties>  (2) 
{"1": {"label": "acceptor", "atom_type": "Cd"}}

>  <type>  (2) 
r2

$$$$

     RDKit          3D

  9  8  0  0  0  0  0  0  0  0999 V2000
    1.1303   -0.2933   -0.7510 C   0  0  0  0  0  0  0  0  0  0  0  0
    0.2866    0.4560   -0.0588 C   0  0  0  0  0  0  0  0  0  0  0  0
   -0.9719   -0.0331    0.5823 C   0  0  0  0  0  0  0  0  0  0  0  0
    2.0274    0.1230   -1.1916 H   0  0  0  0  0  0  0  0  0  0  0  0
    0.9532   -1.3530   -0.9023 H   0  0  0  0  0  0  0  0  0  0  0  0
    0.5065    1.5132    0.0659 H   0  0  0  0  0  0  0  0  0  0  0  0
   -0.9526    0.1426    1.6610 H   0  0  0  0  0  0  0  0  0  0  0  0
   -1.1182   -1.1002    0.4106 H   0  0  0  0  0  0  0  0  0  0  0  0
   -1.8412    0.5010    0.1901 H   0  0  0  0  0  0  0  0  0  0  0  0
  1  2  2  3
  1  4  1  0
  1  5  1  0
  2  3  1  0
  2  6  1  0
  3  7  1  0
  3  8  1  0
  3  9  1  0
M  END
>  <reaction>  (3) 
rxn_1791

>  <mol_properties>  (3) 
{"0": {"label": "a_hydrogen", "atom_type": "H0"}, "2": {"label": "acceptor", "atom_type": "Cd"}}

>  <type>  (3) 
r2h

$$$$

     RDKit          3D

 15 13  0  0  0  0  0  0  0  0999 V2000
    1.2751    0.6574   -0.1981 C   0  0  0  0  0  0  0  0  0  0  0  0
    0.9227    0.8850   -1.4073 C   0  0  0  0  0  0  0  0  0  0  0  0
    0.4834    1.0784   -2.6270 C   0  0  0  0  0  0  0  0  0  0  0  0
    0.4310    0.0594    0.5513 H   0  0  0  0  0  0  0  0  0  0  0  0
    2.2040    0.9021    0.2959 H   0  0  0  0  0  0  0  0  0  0  0  0
   -0.0459    1.9855   -2.8917 H   0  0  0  0  0  0  0  0  0  0  0  0
    0.6592    0.3464   -3.4056 H   0  0  0  0  0  0  0  0  0  0  0  0
   -0.2005   -0.8409    2.5571 C   0  0  0  0  0  0  0  0  0  0  0  0
   -0.5286   -0.5919    1.3117 C   0  0  0  0  0  3  0  0  0  0  0  0
   -1.7367   -0.8588    0.5040 C   0  0  0  0  0  0  0  0  0  0  0  0
    0.7628   -0.5535    2.9631 H   0  0  0  0  0  0  0  0  0  0  0  0
   -0.8874   -1.3481    3.2326 H   0  0  0  0  0  0  0  0  0  0  0  0
   -1.4928   -1.4782   -0.3618 H   0  0  0  0  0  0  0  0  0  0  0  0
   -2.4992   -1.3727    1.0970 H   0  0  0  0  0  0  0  0  0  0  0  0
   -2.1605    0.0734    0.1243 H   0  0  0  0  0  0  0  0  0  0  0  0
  1  2  2  0
  1  4  1  0
  1  5  1  0
  2  3  2  0
  3  6  1  0
  3  7  1  0
  8  9  2  3
  8 11  1  0
  8 12  1  0
  9 10  1  0
 10 13  1  0
 10 14  1  0
 10 15  1  0
M  RAD  1   9   2
M  END
>  <reaction>  (4) 
rxn_1791

>  <mol_properties>  (4) 
{"0": {"label": "*1", "atom_type": "Cd"}, "1": {"label": "*0", "atom_type": "Cdd"}, "3": {"label": "*2", "atom_type": "H0"}, "7": {"label": "*4", "atom_type": "Cd"}, "8": {"label": "*3", "atom_type": "Cd"}}

>  <type>  (4) 
ts

$$$$

     RDKit          3D

 15 13  0  0  0  0  0  0  0  0999 V2000
    0.8067    0.9242   -0.2509 C   0  0  0  0  0  0  0  0  0  0  0  0
    0.8067    0.9242   -1.5496 C   0  0  0  0  0  0  0  0  0  0  0  0
    0.8067    0.9242   -2.8483 C   0  0  0  0  0  0  0  0  0  0  0  0
    0.1431    0.0293    0.4192 H   0  0  0  0  0  0  0  0  0  0  0  0
    1.3597    1.6700    0.3075 H   0  0  0  0  0  0  0  0  0  0  0  0
    0.0609    1.4773   -3.4067 H   0  0  0  0  0  0  0  0  0  0  0  0
    1.5525    0.3712   -3.4067 H   0  0  0  0  0  0  0  0  0  0  0  0
    0.1370   -1.6657    1.9172 C   0  0  0  0  0  0  0  0  0  0  0  0
   -0.5227   -0.8685    1.0915 C   0  0  0  0  0  3  0  0  0  0  0  0
   -1.8215   -0.1957    1.3992 C   0  0  0  0  0  0  0  0  0  0  0  0
    1.0760   -2.1236    1.6330 H   0  0  0  0  0  0  0  0  0  0  0  0
   -0.2398   -1.8893    2.9097 H   0  0  0  0  0  0  0  0  0  0  0  0
   -2.5926   -0.4932    0.6840 H   0  0  0  0  0  0  0  0  0  0  0  0
   -2.1702   -0.4421    2.4028 H   0  0  0  0  0  0  0  0  0  0  0  0
   -1.7237    0.8905    1.3256 H   0  0  0  0  0  0  0  0  0  0  0  0
  1  2  2  0
  1  4  1  0
  1  5  1  0
  2  3  2  0
  3  6  1  0
  3  7  1  0
  8  9  2  3
  8 11  1  0
  8 12  1  0
  9 10  1  0
 10 13  1  0
 10 14  1  0
 10 15  1  0
M  RAD  1   9   2
M  END
>  <reaction>  (5) 
rxn_1791

>  <mol_properties>  (5) 
{"0": {"label": "*1", "atom_type": "Cd"}, "1": {"label": "*0", "atom_type": "Cdd"}, "3": {"label": "*2", "atom_type": "H0"}, "7": {"label": "*4", "atom_type": "Cd"}, "8": {"label": "*3", "atom_type": "Cd"}}

>  <type>  (5) 
unop_1

>  <geom_source>  (5) 
Heuristics

$$$$

     RDKit          3D

 15 13  0  0  0  0  0  0  0  0999 V2000
    0.7384    1.0648   -0.2244 C   0  0  0  0  0  0  0  0  0  0  0  0
    0.7384    1.0648   -1.5230 C   0  0  0  0  0  0  0  0  0  0  0  0
    0.7384    1.0648   -2.8217 C   0  0  0  0  0  0  0  0  0  0  0  0
    0.0748    0.1699    0.4457 H   0  0  0  0  0  0  0  0  0  0  0  0
    1.2914    1.8105    0.3341 H   0  0  0  0  0  0  0  0  0  0  0  0
   -0.0073    1.6178   -3.3801 H   0  0  0  0  0  0  0  0  0  0  0  0
    1.4842    0.5118   -3.3801 H   0  0  0  0  0  0  0  0  0  0  0  0
   -0.7589   -1.9283    0.5857 C   0  0  0  0  0  0  0  0  0  0  0  0
   -0.5910   -0.7280    1.1181 C   0  0  0  0  0  3  0  0  0  0  0  0
   -0.7619   -0.3971    2.5656 C   0  0  0  0  0  0  0  0  0  0  0  0
   -0.6194   -2.1027   -0.4738 H   0  0  0  0  0  0  0  0  0  0  0  0
   -1.0428   -2.7819    1.1923 H   0  0  0  0  0  0  0  0  0  0  0  0
   -1.5302    0.3683    2.7016 H   0  0  0  0  0  0  0  0  0  0  0  0
   -1.0466   -1.2765    3.1447 H   0  0  0  0  0  0  0  0  0  0  0  0
    0.1639    0.0058    2.9844 H   0  0  0  0  0  0  0  0  0  0  0  0
  1  2  2  0
  1  4  1  0
  1  5  1  0
  2  3  2  0
  3  6  1  0
  3  7  1  0
  8  9  2  3
  8 11  1  0
  8 12  1  0
  9 10  1  0
 10 13  1  0
 10 14  1  0
 10 15  1  0
M  RAD  1   9   2
M  END
>  <reaction>  (6) 
rxn_1791

>  <mol_properties>  (6) 
{"0": {"label": "*1", "atom_type": "Cd"}, "1": {"label": "*0", "atom_type": "Cdd"}, "3": {"label": "*2", "atom_type": "H0"}, "7": {"label": "*4", "atom_type": "Cd"}, "8": {"label": "*3", "atom_type": "Cd"}}

>  <type>  (6) 
unop_2

>  <geom_source>  (6) 
Heuristics

$$$$

     RDKit          3D

 15 13  0  0  0  0  0  0  0  0999 V2000
    0.8731    0.9566   -0.1833 C   0  0  0  0  0  0  0  0  0  0  0  0
    0.8731    0.9566   -1.4819 C   0  0  0  0  0  0  0  0  0  0  0  0
    0.8731    0.9566   -2.7806 C   0  0  0  0  0  0  0  0  0  0  0  0
    0.2095    0.0617    0.4869 H   0  0  0  0  0  0  0  0  0  0  0  0
    1.4261    1.7024    0.3752 H   0  0  0  0  0  0  0  0  0  0  0  0
    0.1274    1.5096   -3.3390 H   0  0  0  0  0  0  0  0  0  0  0  0
    1.6189    0.4036   -3.3390 H   0  0  0  0  0  0  0  0  0  0  0  0
   -0.0073   -1.2046    2.3487 C   0  0  0  0  0  0  0  0  0  0  0  0
   -0.4563   -0.8362    1.1592 C   0  0  0  0  0  3  0  0  0  0  0  0
   -1.8978   -0.7323    0.7778 C   0  0  0  0  0  0  0  0  0  0  0  0
    1.0528   -1.2598    2.5619 H   0  0  0  0  0  0  0  0  0  0  0  0
   -0.6861   -1.4648    3.1542 H   0  0  0  0  0  0  0  0  0  0  0  0
   -2.1256   -1.3903   -0.0647 H   0  0  0  0  0  0  0  0  0  0  0  0
   -2.5505   -1.0004    1.6095 H   0  0  0  0  0  0  0  0  0  0  0  0
   -2.1440    0.2844    0.4609 H   0  0  0  0  0  0  0  0  0  0  0  0
  1  2  2  0
  1  4  1  0
  1  5  1  0
  2  3  2  0
  3  6  1  0
  3  7  1  0
  8  9  2  3
  8 11  1  0
  8 12  1  0
  9 10  1  0
 10 13  1  0
 10 14  1  0
 10 15  1  0
M  RAD  1   9   2
M  END
>  <reaction>  (7) 
rxn_1791

>  <mol_properties>  (7) 
{"0": {"label": "*1", "atom_type": "Cd"}, "1": {"label": "*0", "atom_type": "Cdd"}, "3": {"label": "*2", "atom_type": "H0"}, "7": {"label": "*4", "atom_type": "Cd"}, "8": {"label": "*3", "atom_type": "Cd"}}

>  <type>  (7) 
unop_3

>  <geom_source>  (7) 
Heuristics

$$$$

     RDKit          3D

 15 13  0  0  0  0  0  0  0  0999 V2000
    0.7732    0.9829   -0.2569 C   0  0  0  0  0  0  0  0  0  0  0  0
    0.7732    0.9829   -1.5556 C   0  0  0  0  0  0  0  0  0  0  0  0
    0.7732    0.9829   -2.8542 C   0  0  0  0  0  0  0  0  0  0  0  0
    0.1096    0.0880    0.4132 H   0  0  0  0  0  0  0  0  0  0  0  0
    1.3263    1.7286    0.3015 H   0  0  0  0  0  0  0  0  0  0  0  0
    0.0275    1.5359   -3.4126 H   0  0  0  0  0  0  0  0  0  0  0  0
    1.5190    0.4299   -3.4126 H   0  0  0  0  0  0  0  0  0  0  0  0
   -1.8667   -0.8905    0.9171 C   0  0  0  0  0  0  0  0  0  0  0  0
   -0.5562   -0.8099    1.0855 C   0  0  0  0  0  3  0  0  0  0  0  0
    0.1680   -1.1111    2.3580 C   0  0  0  0  0  0  0  0  0  0  0  0
   -2.3310   -0.6580   -0.0330 H   0  0  0  0  0  0  0  0  0  0  0  0
   -2.5238   -1.1927    1.7258 H   0  0  0  0  0  0  0  0  0  0  0  0
    0.7278   -0.2380    2.7029 H   0  0  0  0  0  0  0  0  0  0  0  0
   -0.5218   -1.4110    3.1478 H   0  0  0  0  0  0  0  0  0  0  0  0
    0.8940   -1.9149    2.2114 H   0  0  0  0  0  0  0  0  0  0  0  0
  1  2  2  0
  1  4  1  0
  1  5  1  0
  2  3  2  0
  3  6  1  0
  3  7  1  0
  8  9  2  3
  8 11  1  0
  8 12  1  0
  9 10  1  0
 10 13  1  0
 10 14  1  0
 10 15  1  0
M  RAD  1   9   2
M  END
>  <reaction>  (8) 
rxn_1791

>  <mol_properties>  (8) 
{"0": {"label": "*1", "atom_type": "Cd"}, "1": {"label": "*0", "atom_type": "Cdd"}, "3": {"label": "*2", "atom_type": "H0"}, "7": {"label": "*4", "atom_type": "Cd"}, "8": {"label": "*3", "atom_type": "Cd"}}

>  <type>  (8) 
unop_4

>  <geom_source>  (8) 
Heuristics

$$$$

     RDKit          3D

 15 13  0  0  0  0  0  0  0  0999 V2000
    0.8144    1.0983   -0.1237 C   0  0  0  0  0  0  0  0  0  0  0  0
    0.8144    1.0983   -1.4223 C   0  0  0  0  0  0  0  0  0  0  0  0
    0.8144    1.0983   -2.7210 C   0  0  0  0  0  0  0  0  0  0  0  0
    0.1508    0.2034    0.5464 H   0  0  0  0  0  0  0  0  0  0  0  0
    1.3674    1.8441    0.4348 H   0  0  0  0  0  0  0  0  0  0  0  0
    0.0687    1.6513   -3.2794 H   0  0  0  0  0  0  0  0  0  0  0  0
    1.5602    0.5453   -3.2794 H   0  0  0  0  0  0  0  0  0  0  0  0
   -0.4842   -0.6530    2.5415 C   0  0  0  0  0  0  0  0  0  0  0  0
   -0.5150   -0.6945    1.2188 C   0  0  0  0  0  3  0  0  0  0  0  0
   -1.2624   -1.7024    0.4066 C   0  0  0  0  0  0  0  0  0  0  0  0
    0.0781    0.1053    3.0716 H   0  0  0  0  0  0  0  0  0  0  0  0
   -1.0220   -1.3782    3.1432 H   0  0  0  0  0  0  0  0  0  0  0  0
   -0.5827   -2.2593   -0.2435 H   0  0  0  0  0  0  0  0  0  0  0  0
   -1.7903   -2.4144    1.0422 H   0  0  0  0  0  0  0  0  0  0  0  0
   -1.9927   -1.2137   -0.2435 H   0  0  0  0  0  0  0  0  0  0  0  0
  1  2  2  0
  1  4  1  0
  1  5  1  0
  2  3  2  0
  3  6  1  0
  3  7  1  0
  8  9  2  3
  8 11  1  0
  8 12  1  0
  9 10  1  0
 10 13  1  0
 10 14  1  0
 10 15  1  0
M  RAD  1   9   2
M  END
>  <reaction>  (9) 
rxn_1791

>  <mol_properties>  (9) 
{"0": {"label": "*1", "atom_type": "Cd"}, "1": {"label": "*0", "atom_type": "Cdd"}, "3": {"label": "*2", "atom_type": "H0"}, "7": {"label": "*4", "atom_type": "Cd"}, "8": {"label": "*3", "atom_type": "Cd"}}

>  <type>  (9) 
unop_5

>  <geom_source>  (9) 
Heuristics

$$$$

     RDKit          3D

 15 13  0  0  0  0  0  0  0  0999 V2000
    0.7080    0.9898   -0.2737 C   0  0  0  0  0  0  0  0  0  0  0  0
    0.7080    0.9898   -1.5723 C   0  0  0  0  0  0  0  0  0  0  0  0
    0.7080    0.9898   -2.8710 C   0  0  0  0  0  0  0  0  0  0  0  0
    0.0444    0.0949    0.3964 H   0  0  0  0  0  0  0  0  0  0  0  0
    1.2610    1.7356    0.2847 H   0  0  0  0  0  0  0  0  0  0  0  0
   -0.0377    1.5428   -3.4294 H   0  0  0  0  0  0  0  0  0  0  0  0
    1.4538    0.4368   -3.4294 H   0  0  0  0  0  0  0  0  0  0  0  0
   -1.8787   -0.5508    1.3974 C   0  0  0  0  0  0  0  0  0  0  0  0
   -0.6214   -0.8030    1.0687 C   0  0  0  0  0  3  0  0  0  0  0  0
    0.3873   -1.4525    1.9602 C   0  0  0  0  0  0  0  0  0  0  0  0
   -2.5612   -0.0762    0.7036 H   0  0  0  0  0  0  0  0  0  0  0  0
   -2.2713   -0.8108    2.3748 H   0  0  0  0  0  0  0  0  0  0  0  0
    1.2463   -0.7955    2.1191 H   0  0  0  0  0  0  0  0  0  0  0  0
   -0.0405   -1.6999    2.9325 H   0  0  0  0  0  0  0  0  0  0  0  0
    0.7708   -2.3713    1.5090 H   0  0  0  0  0  0  0  0  0  0  0  0
  1  2  2  0
  1  4  1  0
  1  5  1  0
  2  3  2  0
  3  6  1  0
  3  7  1  0
  8  9  2  3
  8 11  1  0
  8 12  1  0
  9 10  1  0
 10 13  1  0
 10 14  1  0
 10 15  1  0
M  RAD  1   9   2
M  END
>  <reaction>  (10) 
rxn_1791

>  <mol_properties>  (10) 
{"0": {"label": "*1", "atom_type": "Cd"}, "1": {"label": "*0", "atom_type": "Cdd"}, "3": {"label": "*2", "atom_type": "H0"}, "7": {"label": "*4", "atom_type": "Cd"}, "8": {"label": "*3", "atom_type": "Cd"}}

>  <type>  (10) 
unop_6

>  <geom_source>  (10) 
Heuristics

$$$$

     RDKit          3D

 15 13  0  0  0  0  0  0  0  0999 V2000
    0.6501    1.0403   -0.2509 C   0  0  0  0  0  0  0  0  0  0  0  0
    0.6501    1.0403   -1.5496 C   0  0  0  0  0  0  0  0  0  0  0  0
    0.6501    1.0403   -2.8483 C   0  0  0  0  0  0  0  0  0  0  0  0
   -0.0135    0.1454    0.4192 H   0  0  0  0  0  0  0  0  0  0  0  0
    1.2031    1.7861    0.3075 H   0  0  0  0  0  0  0  0  0  0  0  0
   -0.0956    1.5934   -3.4067 H   0  0  0  0  0  0  0  0  0  0  0  0
    1.3959    0.4873   -3.4067 H   0  0  0  0  0  0  0  0  0  0  0  0
   -1.6337   -0.3527    1.9172 C   0  0  0  0  0  0  0  0  0  0  0  0
   -0.6793   -0.7524    1.0915 C   0  0  0  0  0  3  0  0  0  0  0  0
    0.3418   -1.7998    1.3992 C   0  0  0  0  0  0  0  0  0  0  0  0
   -2.3446    0.4129    1.6330 H   0  0  0  0  0  0  0  0  0  0  0  0
   -1.7383   -0.7782    2.9097 H   0  0  0  0  0  0  0  0  0  0  0  0
    1.3527   -1.3908    1.3256 H   0  0  0  0  0  0  0  0  0  0  0  0
    0.2072   -2.2051    2.4028 H   0  0  0  0  0  0  0  0  0  0  0  0
    0.2810   -2.6241    0.6840 H   0  0  0  0  0  0  0  0  0  0  0  0
  1  2  2  0
  1  4  1  0
  1  5  1  0
  2  3  2  0
  3  6  1  0
  3  7  1  0
  8  9  2  3
  8 11  1  0
  8 12  1  0
  9 10  1  0
 10 13  1  0
 10 14  1  0
 10 15  1  0
M  RAD  1   9   2
M  END
>  <reaction>  (11) 
rxn_1791

>  <mol_properties>  (11) 
{"0": {"label": "*1", "atom_type": "Cd"}, "1": {"label": "*0", "atom_type": "Cdd"}, "3": {"label": "*2", "atom_type": "H0"}, "7": {"label": "*4", "atom_type": "Cd"}, "8": {"label": "*3", "atom_type": "Cd"}}

>  <type>  (11) 
unop_7

>  <geom_source>  (11) 
Heuristics

$$$$

     RDKit          3D

 15 13  0  0  0  0  0  0  0  0999 V2000
    0.7415    0.9650   -0.2737 C   0  0  0  0  0  0  0  0  0  0  0  0
    0.7415    0.9650   -1.5723 C   0  0  0  0  0  0  0  0  0  0  0  0
    0.7415    0.9650   -2.8710 C   0  0  0  0  0  0  0  0  0  0  0  0
    0.0779    0.0701    0.3964 H   0  0  0  0  0  0  0  0  0  0  0  0
    1.2946    1.7107    0.2847 H   0  0  0  0  0  0  0  0  0  0  0  0
   -0.0042    1.5180   -3.4294 H   0  0  0  0  0  0  0  0  0  0  0  0
    1.4873    0.4120   -3.4294 H   0  0  0  0  0  0  0  0  0  0  0  0
    0.0186   -1.9577    1.3974 C   0  0  0  0  0  0  0  0  0  0  0  0
   -0.5879   -0.8278    1.0687 C   0  0  0  0  0  3  0  0  0  0  0  0
   -1.5024   -0.0512    1.9602 C   0  0  0  0  0  0  0  0  0  0  0  0
    0.6709   -2.4730    0.7036 H   0  0  0  0  0  0  0  0  0  0  0  0
   -0.1162   -2.4089    2.3748 H   0  0  0  0  0  0  0  0  0  0  0  0
   -2.4929    0.0489    1.5090 H   0  0  0  0  0  0  0  0  0  0  0  0
   -1.6149   -0.5325    2.9325 H   0  0  0  0  0  0  0  0  0  0  0  0
   -1.1232    0.9615    2.1191 H   0  0  0  0  0  0  0  0  0  0  0  0
  1  2  2  0
  1  4  1  0
  1  5  1  0
  2  3  2  0
  3  6  1  0
  3  7  1  0
  8  9  2  3
  8 11  1  0
  8 12  1  0
  9 10  1  0
 10 13  1  0
 10 14  1  0
 10 15  1  0
M  RAD  1   9   2
M  END
>  <reaction>  (12) 
rxn_1791

>  <mol_properties>  (12) 
{"0": {"label": "*1", "atom_type": "Cd"}, "1": {"label": "*0", "atom_type": "Cdd"}, "3": {"label": "*2", "atom_type": "H0"}, "7": {"label": "*4", "atom_type": "Cd"}, "8": {"label": "*3", "atom_type": "Cd"}}

>  <type>  (12) 
unop_8

>  <geom_source>  (12) 
Heuristics

$$$$

     RDKit          3D

 15 13  0  0  0  0  0  0  0  0999 V2000
    0.8044    1.0158   -0.2244 C   0  0  0  0  0  0  0  0  0  0  0  0
    0.8044    1.0158   -1.5230 C   0  0  0  0  0  0  0  0  0  0  0  0
    0.8044    1.0158   -2.8217 C   0  0  0  0  0  0  0  0  0  0  0  0
    0.1408    0.1209    0.4457 H   0  0  0  0  0  0  0  0  0  0  0  0
    1.3574    1.7616    0.3341 H   0  0  0  0  0  0  0  0  0  0  0  0
    0.0587    1.5688   -3.3801 H   0  0  0  0  0  0  0  0  0  0  0  0
    1.5502    0.4628   -3.3801 H   0  0  0  0  0  0  0  0  0  0  0  0
   -1.6248   -1.2862    0.5857 C   0  0  0  0  0  0  0  0  0  0  0  0
   -0.5250   -0.7770    1.1181 C   0  0  0  0  0  3  0  0  0  0  0  0
   -0.1587   -0.8443    2.5656 C   0  0  0  0  0  0  0  0  0  0  0  0
   -1.8322   -1.2034   -0.4738 H   0  0  0  0  0  0  0  0  0  0  0  0
   -2.3591   -1.8058    1.1923 H   0  0  0  0  0  0  0  0  0  0  0  0
   -0.0420    0.1585    2.9844 H   0  0  0  0  0  0  0  0  0  0  0  0
   -0.9175   -1.3722    3.1447 H   0  0  0  0  0  0  0  0  0  0  0  0
    0.7968   -1.3573    2.7016 H   0  0  0  0  0  0  0  0  0  0  0  0
  1  2  2  0
  1  4  1  0
  1  5  1  0
  2  3  2  0
  3  6  1  0
  3  7  1  0
  8  9  2  3
  8 11  1  0
  8 12  1  0
  9 10  1  0
 10 13  1  0
 10 14  1  0
 10 15  1  0
M  RAD  1   9   2
M  END
>  <reaction>  (13) 
rxn_1791

>  <mol_properties>  (13) 
{"0": {"label": "*1", "atom_type": "Cd"}, "1": {"label": "*0", "atom_type": "Cdd"}, "3": {"label": "*2", "atom_type": "H0"}, "7": {"label": "*4", "atom_type": "Cd"}, "8": {"label": "*3", "atom_type": "Cd"}}

>  <type>  (13) 
unop_9

>  <geom_source>  (13) 
Heuristics

$$$$

     RDKit          3D

 15 13  0  0  0  0  0  0  0  0999 V2000
    0.7159    1.0254   -0.2569 C   0  0  0  0  0  0  0  0  0  0  0  0
    0.7159    1.0254   -1.5556 C   0  0  0  0  0  0  0  0  0  0  0  0
    0.7159    1.0254   -2.8542 C   0  0  0  0  0  0  0  0  0  0  0  0
    0.0523    0.1305    0.4132 H   0  0  0  0  0  0  0  0  0  0  0  0
    1.2689    1.7711    0.3015 H   0  0  0  0  0  0  0  0  0  0  0  0
   -0.0298    1.5784   -3.4126 H   0  0  0  0  0  0  0  0  0  0  0  0
    1.4617    0.4724   -3.4126 H   0  0  0  0  0  0  0  0  0  0  0  0
   -0.3100   -2.0448    0.9171 C   0  0  0  0  0  0  0  0  0  0  0  0
   -0.6135   -0.7674    1.0855 C   0  0  0  0  0  3  0  0  0  0  0  0
   -1.1120   -0.1620    2.3580 C   0  0  0  0  0  0  0  0  0  0  0  0
    0.0473   -2.4217   -0.0330 H   0  0  0  0  0  0  0  0  0  0  0  0
   -0.4083   -2.7614    1.7258 H   0  0  0  0  0  0  0  0  0  0  0  0
   -2.0920    0.2994    2.2114 H   0  0  0  0  0  0  0  0  0  0  0  0
   -1.1987   -0.9091    3.1478 H   0  0  0  0  0  0  0  0  0  0  0  0
   -0.4391    0.6273    2.7029 H   0  0  0  0  0  0  0  0  0  0  0  0
  1  2  2  0
  1  4  1  0
  1  5  1  0
  2  3  2  0
  3  6  1  0
  3  7  1  0
  8  9  2  3
  8 11  1  0
  8 12  1  0
  9 10  1  0
 10 13  1  0
 10 14  1  0
 10 15  1  0
M  RAD  1   9   2
M  END
>  <reaction>  (14) 
rxn_1791

>  <mol_properties>  (14) 
{"0": {"label": "*1", "atom_type": "Cd"}, "1": {"label": "*0", "atom_type": "Cdd"}, "3": {"label": "*2", "atom_type": "H0"}, "7": {"label": "*4", "atom_type": "Cd"}, "8": {"label": "*3", "atom_type": "Cd"}}

>  <type>  (14) 
unop_10

>  <geom_source>  (14) 
Heuristics

$$$$

     RDKit          3D

 15 13  0  0  0  0  0  0  0  0999 V2000
    0.6618    1.1133   -0.1833 C   0  0  0  0  0  0  0  0  0  0  0  0
    0.6618    1.1133   -1.4819 C   0  0  0  0  0  0  0  0  0  0  0  0
    0.6618    1.1133   -2.7806 C   0  0  0  0  0  0  0  0  0  0  0  0
   -0.0018    0.2184    0.4869 H   0  0  0  0  0  0  0  0  0  0  0  0
    1.2148    1.8591    0.3752 H   0  0  0  0  0  0  0  0  0  0  0  0
   -0.0839    1.6663   -3.3390 H   0  0  0  0  0  0  0  0  0  0  0  0
    1.4076    0.5603   -3.3390 H   0  0  0  0  0  0  0  0  0  0  0  0
   -1.1505   -0.3568    2.3487 C   0  0  0  0  0  0  0  0  0  0  0  0
   -0.6676   -0.6795    1.1592 C   0  0  0  0  0  3  0  0  0  0  0  0
   -0.1495   -2.0287    0.7778 C   0  0  0  0  0  0  0  0  0  0  0  0
   -1.5113    0.6415    2.5619 H   0  0  0  0  0  0  0  0  0  0  0  0
   -1.2024   -1.0819    3.1542 H   0  0  0  0  0  0  0  0  0  0  0  0
    0.8948   -1.9689    0.4609 H   0  0  0  0  0  0  0  0  0  0  0  0
   -0.2166   -2.7312    1.6095 H   0  0  0  0  0  0  0  0  0  0  0  0
   -0.7131   -2.4378   -0.0647 H   0  0  0  0  0  0  0  0  0  0  0  0
  1  2  2  0
  1  4  1  0
  1  5  1  0
  2  3  2  0
  3  6  1  0
  3  7  1  0
  8  9  2  3
  8 11  1  0
  8 12  1  0
  9 10  1  0
 10 13  1  0
 10 14  1  0
 10 15  1  0
M  RAD  1   9   2
M  END
>  <reaction>  (15) 
rxn_1791

>  <mol_properties>  (15) 
{"0": {"label": "*1", "atom_type": "Cd"}, "1": {"label": "*0", "atom_type": "Cdd"}, "3": {"label": "*2", "atom_type": "H0"}, "7": {"label": "*4", "atom_type": "Cd"}, "8": {"label": "*3", "atom_type": "Cd"}}

>  <type>  (15) 
unop_11

>  <geom_source>  (15) 
Heuristics

$$$$

     RDKit          3D

 15 13  0  0  0  0  0  0  0  0999 V2000
    0.7842    1.0575   -0.2081 C   0  0  0  0  0  0  0  0  0  0  0  0
    0.7842    1.0575   -1.5067 C   0  0  0  0  0  0  0  0  0  0  0  0
    0.7842    1.0575   -2.8054 C   0  0  0  0  0  0  0  0  0  0  0  0
    0.1206    0.1626    0.4620 H   0  0  0  0  0  0  0  0  0  0  0  0
    1.3372    1.8033    0.3504 H   0  0  0  0  0  0  0  0  0  0  0  0
    0.0384    1.6105   -3.3638 H   0  0  0  0  0  0  0  0  0  0  0  0
    1.5299    0.5045   -3.3638 H   0  0  0  0  0  0  0  0  0  0  0  0
   -1.2268   -1.6544    0.4688 C   0  0  0  0  0  0  0  0  0  0  0  0
   -0.5452   -0.7353    1.1344 C   0  0  0  0  0  3  0  0  0  0  0  0
   -0.4682   -0.6314    2.6235 C   0  0  0  0  0  0  0  0  0  0  0  0
   -1.2422   -1.6751   -0.6136 H   0  0  0  0  0  0  0  0  0  0  0  0
   -1.7954   -2.4212    0.9844 H   0  0  0  0  0  0  0  0  0  0  0  0
   -0.8430    0.3367    2.9657 H   0  0  0  0  0  0  0  0  0  0  0  0
   -1.0501   -1.4161    3.1085 H   0  0  0  0  0  0  0  0  0  0  0  0
    0.5670   -0.7089    2.9657 H   0  0  0  0  0  0  0  0  0  0  0  0
  1  2  2  0
  1  4  1  0
  1  5  1  0
  2  3  2  0
  3  6  1  0
  3  7  1  0
  8  9  2  3
  8 11  1  0
  8 12  1  0
  9 10  1  0
 10 13  1  0
 10 14  1  0
 10 15  1  0
M  RAD  1   9   2
M  END
>  <reaction>  (16) 
rxn_1791

>  <mol_properties>  (16) 
{"0": {"label": "*1", "atom_type": "Cd"}, "1": {"label": "*0", "atom_type": "Cdd"}, "3": {"label": "*2", "atom_type": "H0"}, "7": {"label": "*4", "atom_type": "Cd"}, "8": {"label": "*3", "atom_type": "Cd"}}

>  <type>  (16) 
unop_12

>  <geom_source>  (16) 
Heuristics

$$$$

     RDKit          3D

 15 13  0  0  0  0  0  0  0  0999 V2000
   -2.1213    0.5034    0.9999 C   0  0  0  0  0  0  0  0  0  0  0  0
   -1.2633   -0.1315   -0.0486 C   0  0  0  0  0  0  0  0  0  0  0  0
   -1.6286   -0.1368   -1.3317 C   0  0  0  0  0  0  0  0  0  0  0  0
    3.3780    0.4520    0.0222 C   0  0  0  0  0  3  0  0  0  0  0  0
    2.2740   -0.2383   -0.0121 C   0  0  0  0  0  0  0  0  0  0  0  0
    1.1700   -0.9287   -0.0465 C   0  0  0  0  0  0  0  0  0  0  0  0
   -1.6341    0.3957    1.9911 H   0  0  0  0  0  0  0  0  0  0  0  0
   -2.2539    1.5837    0.7791 H   0  0  0  0  0  0  0  0  0  0  0  0
   -3.1139    0.0065    1.0305 H   0  0  0  0  0  0  0  0  0  0  0  0
   -0.1375   -0.6900    0.2994 H   0  0  0  0  0  0  0  0  0  0  0  0
   -0.9890   -0.6037   -2.0730 H   0  0  0  0  0  0  0  0  0  0  0  0
   -2.5608    0.3209   -1.6494 H   0  0  0  0  0  0  0  0  0  0  0  0
    3.7897    0.7666    0.9714 H   0  0  0  0  0  0  0  0  0  0  0  0
    3.8834    0.7098   -0.8984 H   0  0  0  0  0  0  0  0  0  0  0  0
    1.2075   -2.0094   -0.0339 H   0  0  0  0  0  0  0  0  0  0  0  0
  1  2  1  0
  1  7  1  0
  1  8  1  0
  1  9  1  0
  2  3  2  3
  2 10  1  0
  3 11  1  0
  3 12  1  0
  4  5  1  0
  4 13  1  0
  4 14  1  0
  5  6  3  0
  6 15  1  0
M  RAD  1   4   2
M  END
>  <reaction>  (17) 
rxn_1791

>  <mol_properties>  (17) 
{"0": {"label": "*1", "atom_type": "Cd"}, "1": {"label": "*0", "atom_type": "Cdd"}, "3": {"label": "*2", "atom_type": "H0"}, "7": {"label": "*4", "atom_type": "Cd"}, "8": {"label": "*3", "atom_type": "Cd"}}

>  <type>  (17) 
unop_13

>  <geom_source>  (17) 
AutoTST

$$$$
