
     RDKit          3D

 10  9  0  0  0  0  0  0  0  0999 V2000
   -1.3430   -0.0068    0.1802 C   0  0  0  0  0  0  0  0  0  0  0  0
    0.0800   -0.1753   -0.3125 C   0  0  0  0  0  0  0  0  0  0  0  0
    0.4144    0.6817   -1.3880 O   0  0  0  0  0  0  0  0  0  0  0  0
    0.4868    2.0101   -0.8782 O   0  0  0  0  0  0  0  0  0  0  0  0
   -2.0531   -0.1437   -0.6372 H   0  0  0  0  0  0  0  0  0  0  0  0
   -1.5603   -0.7484    0.9509 H   0  0  0  0  0  0  0  0  0  0  0  0
   -1.4899    0.9815    0.6164 H   0  0  0  0  0  0  0  0  0  0  0  0
    0.2328   -1.1698   -0.7380 H   0  0  0  0  0  0  0  0  0  0  0  0
    0.8000   -0.0345    0.4993 H   0  0  0  0  0  0  0  0  0  0  0  0
   -0.2791    2.4184   -1.2952 H   0  0  0  0  0  0  0  0  0  0  0  0
  1  2  1  0
  1  5  1  0
  1  6  1  0
  1  7  1  0
  2  3  1  0
  2  8  1  0
  2  9  1  0
  3  4  1  0
  4 10  1  0
M  END
>  <reaction>  (1) 
rxn_450

>  <mol_properties>  (1) 
{"3": {"label": "donator", "atom_type": "O2s"}, "9": {"label": "d_hydrogen", "atom_type": "H0"}}

>  <type>  (1) 
r1h

$$$$

     RDKit          3D

 10  9  0  0  0  0  0  0  0  0999 V2000
    1.2930    0.1441    0.3288 C   0  0  0  0  0  0  0  0  0  0  0  0
   -0.0374   -0.1647    0.9100 C   0  0  0  0  0  3  0  0  0  0  0  0
   -1.2664    0.4569    0.3567 C   0  0  0  0  0  0  0  0  0  0  0  0
    1.4384    1.2242    0.2174 H   0  0  0  0  0  0  0  0  0  0  0  0
    2.1077   -0.2477    0.9385 H   0  0  0  0  0  0  0  0  0  0  0  0
    1.4057   -0.2836   -0.6789 H   0  0  0  0  0  0  0  0  0  0  0  0
   -0.1309   -0.9912    1.6030 H   0  0  0  0  0  0  0  0  0  0  0  0
   -1.5005    0.0716   -0.6471 H   0  0  0  0  0  0  0  0  0  0  0  0
   -2.1382    0.2713    0.9849 H   0  0  0  0  0  0  0  0  0  0  0  0
   -1.1497    1.5406    0.2456 H   0  0  0  0  0  0  0  0  0  0  0  0
  1  2  1  0
  1  4  1  0
  1  5  1  0
  1  6  1  0
  2  3  1  0
  2  7  1  0
  3  8  1  0
  3  9  1  0
  3 10  1  0
M  RAD  1   2   2
M  END
>  <reaction>  (2) 
rxn_450

>  <mol_properties>  (2) 
{"1": {"label": "acceptor", "atom_type": "Cs"}}

>  <type>  (2) 
r2

$$$$

     RDKit          3D

 11 10  0  0  0  0  0  0  0  0999 V2000
   -1.2710    0.1907   -0.2084 C   0  0  0  0  0  0  0  0  0  0  0  0
    0.0202   -0.6130   -0.2928 C   0  0  0  0  0  0  0  0  0  0  0  0
    0.1086   -1.6953    0.7756 C   0  0  0  0  0  0  0  0  0  0  0  0
   -1.3607    0.6851    0.7620 H   0  0  0  0  0  0  0  0  0  0  0  0
   -2.1429   -0.4567   -0.3299 H   0  0  0  0  0  0  0  0  0  0  0  0
   -1.3158    0.9602   -0.9809 H   0  0  0  0  0  0  0  0  0  0  0  0
    0.8757    0.0616   -0.1992 H   0  0  0  0  0  0  0  0  0  0  0  0
    0.0997   -1.0712   -1.2825 H   0  0  0  0  0  0  0  0  0  0  0  0
   -0.7198   -2.4022    0.6850 H   0  0  0  0  0  0  0  0  0  0  0  0
    1.0395   -2.2596    0.6989 H   0  0  0  0  0  0  0  0  0  0  0  0
    0.0624   -1.2603    1.7770 H   0  0  0  0  0  0  0  0  0  0  0  0
  1  2  1  0
  1  4  1  0
  1  5  1  0
  1  6  1  0
  2  3  1  0
  2  7  1  0
  2  8  1  0
  3  9  1  0
  3 10  1  0
  3 11  1  0
M  END
>  <reaction>  (3) 
rxn_450

>  <mol_properties>  (3) 
{"0": {"label": "a_hydrogen", "atom_type": "H0"}, "2": {"label": "acceptor", "atom_type": "Cs"}}

>  <type>  (3) 
r2h

$$$$

     RDKit          3D

 20 18  0  0  0  0  0  0  0  0999 V2000
    0.0692   -2.1134   -0.9850 C   0  0  0  0  0  0  0  0  0  0  0  0
    0.3145   -2.2286    0.5054 C   0  0  0  0  0  0  0  0  0  0  0  0
    0.6255   -0.9901    1.1272 O   0  0  0  0  0  0  0  0  0  0  0  0
   -0.5019   -0.1898    1.1464 O   0  0  0  0  0  0  0  0  0  0  0  0
    0.9237   -1.6555   -1.4860 H   0  0  0  0  0  0  0  0  0  0  0  0
   -0.0864   -3.1063   -1.4105 H   0  0  0  0  0  0  0  0  0  0  0  0
   -0.8200   -1.5168   -1.1867 H   0  0  0  0  0  0  0  0  0  0  0  0
    1.1947   -2.8411    0.7116 H   0  0  0  0  0  0  0  0  0  0  0  0
   -0.5463   -2.6730    1.0126 H   0  0  0  0  0  0  0  0  0  0  0  0
   -0.3818    0.5447    0.2276 H   0  0  0  0  0  0  0  0  0  0  0  0
    1.3169    1.5947   -0.7777 C   0  0  0  0  0  0  0  0  0  0  0  0
   -0.1762    1.4437   -0.7481 C   0  0  0  0  0  3  0  0  0  0  0  0
   -0.9757    2.6406   -0.3172 C   0  0  0  0  0  0  0  0  0  0  0  0
    1.6889    1.9871    0.1707 H   0  0  0  0  0  0  0  0  0  0  0  0
    1.8139    0.6430   -0.9671 H   0  0  0  0  0  0  0  0  0  0  0  0
    1.6164    2.2930   -1.5683 H   0  0  0  0  0  0  0  0  0  0  0  0
   -0.5864    0.9247   -1.6151 H   0  0  0  0  0  0  0  0  0  0  0  0
   -0.8670    3.4558   -1.0422 H   0  0  0  0  0  0  0  0  0  0  0  0
   -2.0382    2.4087   -0.2370 H   0  0  0  0  0  0  0  0  0  0  0  0
   -0.6309    3.0131    0.6495 H   0  0  0  0  0  0  0  0  0  0  0  0
  1  2  1  0
  1  5  1  0
  1  6  1  0
  1  7  1  0
  2  3  1  0
  2  8  1  0
  2  9  1  0
  3  4  1  0
  4 10  1  0
 11 12  1  0
 11 14  1  0
 11 15  1  0
 11 16  1  0
 12 13  1  0
 12 17  1  0
 13 18  1  0
 13 19  1  0
 13 20  1  0
M  RAD  1  12   2
M  END
>  <reaction>  (4) 
rxn_450

>  <mol_properties>  (4) 
{"2": {"label": "*0", "atom_type": "O2s"}, "3": {"label": "*1", "atom_type": "O2s"}, "9": {"label": "*2", "atom_type": "H0"}, "10": {"label": "*4", "atom_type": "Cs"}, "11": {"label": "*3", "atom_type": "Cs"}}

>  <type>  (4) 
ts

$$$$

     RDKit          3D

 20 18  0  0  0  0  0  0  0  0999 V2000
    0.4332   -2.1055   -0.6834 C   0  0  0  0  0  0  0  0  0  0  0  0
    0.4332   -2.1055    0.8319 C   0  0  0  0  0  0  0  0  0  0  0  0
    0.4332   -0.8094    1.4003 O   0  0  0  0  0  0  0  0  0  0  0  0
   -0.8440   -0.2277    1.1548 O   0  0  0  0  0  0  0  0  0  0  0  0
    1.2775   -1.5316   -1.0693 H   0  0  0  0  0  0  0  0  0  0  0  0
    0.5149   -3.1282   -1.0556 H   0  0  0  0  0  0  0  0  0  0  0  0
   -0.4923   -1.6810   -1.0730 H   0  0  0  0  0  0  0  0  0  0  0  0
    1.3542   -2.5426    1.2243 H   0  0  0  0  0  0  0  0  0  0  0  0
   -0.4133   -2.6741    1.2285 H   0  0  0  0  0  0  0  0  0  0  0  0
   -0.5773    0.6055    0.3999 H   0  0  0  0  0  0  0  0  0  0  0  0
   -1.0292    1.3168   -1.7595 C   0  0  0  0  0  0  0  0  0  0  0  0
   -0.2744    1.5517   -0.4574 C   0  0  0  0  0  3  0  0  0  0  0  0
    0.9229    2.4772   -0.6320 C   0  0  0  0  0  0  0  0  0  0  0  0
   -0.3782    0.8660   -2.5125 H   0  0  0  0  0  0  0  0  0  0  0  0
   -1.8825    0.6521   -1.6143 H   0  0  0  0  0  0  0  0  0  0  0  0
   -1.4041    2.2579   -2.1690 H   0  0  0  0  0  0  0  0  0  0  0  0
   -0.9553    1.9738    0.2870 H   0  0  0  0  0  0  0  0  0  0  0  0
    0.6096    3.4549   -1.0060 H   0  0  0  0  0  0  0  0  0  0  0  0
    1.4502    2.6331    0.3106 H   0  0  0  0  0  0  0  0  0  0  0  0
    1.6354    2.0630   -1.3495 H   0  0  0  0  0  0  0  0  0  0  0  0
  1  2  1  0
  1  5  1  0
  1  6  1  0
  1  7  1  0
  2  3  1  0
  2  8  1  0
  2  9  1  0
  3  4  1  0
  4 10  1  0
 11 12  1  0
 11 14  1  0
 11 15  1  0
 11 16  1  0
 12 13  1  0
 12 17  1  0
 13 18  1  0
 13 19  1  0
 13 20  1  0
M  RAD  1  12   2
M  END
>  <reaction>  (5) 
rxn_450

>  <mol_properties>  (5) 
{"2": {"label": "*0", "atom_type": "O2s"}, "3": {"label": "*1", "atom_type": "O2s"}, "9": {"label": "*2", "atom_type": "H0"}, "10": {"label": "*4", "atom_type": "Cs"}, "11": {"label": "*3", "atom_type": "Cs"}}

>  <type>  (5) 
unop_1

>  <geom_source>  (5) 
Heuristics

$$$$

     RDKit          3D

 20 18  0  0  0  0  0  0  0  0999 V2000
    0.3135   -2.1529   -0.8272 C   0  0  0  0  0  0  0  0  0  0  0  0
    0.3135   -2.1529    0.6881 C   0  0  0  0  0  0  0  0  0  0  0  0
    0.3135   -0.8568    1.2565 O   0  0  0  0  0  0  0  0  0  0  0  0
   -0.9637   -0.2752    1.0111 O   0  0  0  0  0  0  0  0  0  0  0  0
    1.1579   -1.5791   -1.2130 H   0  0  0  0  0  0  0  0  0  0  0  0
    0.3953   -3.1757   -1.1993 H   0  0  0  0  0  0  0  0  0  0  0  0
   -0.6120   -1.7284   -1.2168 H   0  0  0  0  0  0  0  0  0  0  0  0
    1.2346   -2.5901    1.0805 H   0  0  0  0  0  0  0  0  0  0  0  0
   -0.5330   -2.7216    1.0847 H   0  0  0  0  0  0  0  0  0  0  0  0
   -0.6970    0.5580    0.2561 H   0  0  0  0  0  0  0  0  0  0  0  0
    0.8154    1.0761   -1.4224 C   0  0  0  0  0  0  0  0  0  0  0  0
   -0.3941    1.5042   -0.6011 C   0  0  0  0  0  3  0  0  0  0  0  0
   -0.3513    2.9780   -0.2181 C   0  0  0  0  0  0  0  0  0  0  0  0
    1.7423    1.2400   -0.8675 H   0  0  0  0  0  0  0  0  0  0  0  0
    0.7667    0.0185   -1.6869 H   0  0  0  0  0  0  0  0  0  0  0  0
    0.8809    1.6503   -2.3498 H   0  0  0  0  0  0  0  0  0  0  0  0
   -1.3081    1.3014   -1.1662 H   0  0  0  0  0  0  0  0  0  0  0  0
   -0.3226    3.6121   -1.1075 H   0  0  0  0  0  0  0  0  0  0  0  0
   -1.2251    3.2653    0.3692 H   0  0  0  0  0  0  0  0  0  0  0  0
    0.5388    3.2018    0.3749 H   0  0  0  0  0  0  0  0  0  0  0  0
  1  2  1  0
  1  5  1  0
  1  6  1  0
  1  7  1  0
  2  3  1  0
  2  8  1  0
  2  9  1  0
  3  4  1  0
  4 10  1  0
 11 12  1  0
 11 14  1  0
 11 15  1  0
 11 16  1  0
 12 13  1  0
 12 17  1  0
 13 18  1  0
 13 19  1  0
 13 20  1  0
M  RAD  1  12   2
M  END
>  <reaction>  (6) 
rxn_450

>  <mol_properties>  (6) 
{"2": {"label": "*0", "atom_type": "O2s"}, "3": {"label": "*1", "atom_type": "O2s"}, "9": {"label": "*2", "atom_type": "H0"}, "10": {"label": "*4", "atom_type": "Cs"}, "11": {"label": "*3", "atom_type": "Cs"}}

>  <type>  (6) 
unop_2

>  <geom_source>  (6) 
Heuristics

$$$$

     RDKit          3D

 20 18  0  0  0  0  0  0  0  0999 V2000
    0.4710   -2.0822   -0.6664 C   0  0  0  0  0  0  0  0  0  0  0  0
    0.4710   -2.0822    0.8489 C   0  0  0  0  0  0  0  0  0  0  0  0
    0.4710   -0.7861    1.4173 O   0  0  0  0  0  0  0  0  0  0  0  0
   -0.8062   -0.2045    1.1718 O   0  0  0  0  0  0  0  0  0  0  0  0
    1.3154   -1.5084   -1.0523 H   0  0  0  0  0  0  0  0  0  0  0  0
    0.5528   -3.1050   -1.0386 H   0  0  0  0  0  0  0  0  0  0  0  0
   -0.4545   -1.6577   -1.0561 H   0  0  0  0  0  0  0  0  0  0  0  0
    1.3921   -2.5194    1.2413 H   0  0  0  0  0  0  0  0  0  0  0  0
   -0.3755   -2.6509    1.2455 H   0  0  0  0  0  0  0  0  0  0  0  0
   -0.5394    0.6287    0.4169 H   0  0  0  0  0  0  0  0  0  0  0  0
   -1.4208    1.8173   -1.3674 C   0  0  0  0  0  0  0  0  0  0  0  0
   -0.2365    1.5749   -0.4404 C   0  0  0  0  0  3  0  0  0  0  0  0
    1.1015    1.8556   -1.1122 C   0  0  0  0  0  0  0  0  0  0  0  0
   -1.3617    1.1783   -2.2518 H   0  0  0  0  0  0  0  0  0  0  0  0
   -2.3693    1.6111   -0.8688 H   0  0  0  0  0  0  0  0  0  0  0  0
   -1.4419    2.8543   -1.7112 H   0  0  0  0  0  0  0  0  0  0  0  0
   -0.3361    2.2031    0.4492 H   0  0  0  0  0  0  0  0  0  0  0  0
    1.1599    2.8938   -1.4479 H   0  0  0  0  0  0  0  0  0  0  0  0
    1.9368    1.6765   -0.4330 H   0  0  0  0  0  0  0  0  0  0  0  0
    1.2401    1.2178   -1.9885 H   0  0  0  0  0  0  0  0  0  0  0  0
  1  2  1  0
  1  5  1  0
  1  6  1  0
  1  7  1  0
  2  3  1  0
  2  8  1  0
  2  9  1  0
  3  4  1  0
  4 10  1  0
 11 12  1  0
 11 14  1  0
 11 15  1  0
 11 16  1  0
 12 13  1  0
 12 17  1  0
 13 18  1  0
 13 19  1  0
 13 20  1  0
M  RAD  1  12   2
M  END
>  <reaction>  (7) 
rxn_450

>  <mol_properties>  (7) 
{"2": {"label": "*0", "atom_type": "O2s"}, "3": {"label": "*1", "atom_type": "O2s"}, "9": {"label": "*2", "atom_type": "H0"}, "10": {"label": "*4", "atom_type": "Cs"}, "11": {"label": "*3", "atom_type": "Cs"}}

>  <type>  (7) 
unop_3

>  <geom_source>  (7) 
Heuristics

$$$$

     RDKit          3D

 20 18  0  0  0  0  0  0  0  0999 V2000
    0.5607   -2.2038   -1.0186 C   0  0  0  0  0  0  0  0  0  0  0  0
    0.5607   -2.2038    0.4966 C   0  0  0  0  0  0  0  0  0  0  0  0
    0.5607   -0.9077    1.0651 O   0  0  0  0  0  0  0  0  0  0  0  0
   -0.7165   -0.3261    0.8196 O   0  0  0  0  0  0  0  0  0  0  0  0
    1.4051   -1.6300   -1.4045 H   0  0  0  0  0  0  0  0  0  0  0  0
    0.6425   -3.2266   -1.3908 H   0  0  0  0  0  0  0  0  0  0  0  0
   -0.3647   -1.7794   -1.4083 H   0  0  0  0  0  0  0  0  0  0  0  0
    1.4818   -2.6410    0.8890 H   0  0  0  0  0  0  0  0  0  0  0  0
   -0.2857   -2.7725    0.8932 H   0  0  0  0  0  0  0  0  0  0  0  0
   -0.4497    0.5071    0.0647 H   0  0  0  0  0  0  0  0  0  0  0  0
    0.8421    2.4195   -0.1530 C   0  0  0  0  0  0  0  0  0  0  0  0
   -0.1468    1.4533   -0.7926 C   0  0  0  0  0  3  0  0  0  0  0  0
   -1.5967    1.8622   -0.5661 C   0  0  0  0  0  0  0  0  0  0  0  0
    0.6871    2.4791    0.9270 H   0  0  0  0  0  0  0  0  0  0  0  0
    1.8742    2.1100   -0.3260 H   0  0  0  0  0  0  0  0  0  0  0  0
    0.7222    3.4269   -0.5590 H   0  0  0  0  0  0  0  0  0  0  0  0
    0.0497    1.3891   -1.8664 H   0  0  0  0  0  0  0  0  0  0  0  0
   -1.7934    2.8520   -0.9851 H   0  0  0  0  0  0  0  0  0  0  0  0
   -2.2893    1.1587   -1.0312 H   0  0  0  0  0  0  0  0  0  0  0  0
   -1.8285    1.9042    0.5009 H   0  0  0  0  0  0  0  0  0  0  0  0
  1  2  1  0
  1  5  1  0
  1  6  1  0
  1  7  1  0
  2  3  1  0
  2  8  1  0
  2  9  1  0
  3  4  1  0
  4 10  1  0
 11 12  1  0
 11 14  1  0
 11 15  1  0
 11 16  1  0
 12 13  1  0
 12 17  1  0
 13 18  1  0
 13 19  1  0
 13 20  1  0
M  RAD  1  12   2
M  END
>  <reaction>  (8) 
rxn_450

>  <mol_properties>  (8) 
{"2": {"label": "*0", "atom_type": "O2s"}, "3": {"label": "*1", "atom_type": "O2s"}, "9": {"label": "*2", "atom_type": "H0"}, "10": {"label": "*4", "atom_type": "Cs"}, "11": {"label": "*3", "atom_type": "Cs"}}

>  <type>  (8) 
unop_4

>  <geom_source>  (8) 
Heuristics

$$$$

     RDKit          3D

 20 18  0  0  0  0  0  0  0  0999 V2000
    0.5696   -2.0252   -0.6641 C   0  0  0  0  0  0  0  0  0  0  0  0
    0.5696   -2.0252    0.8512 C   0  0  0  0  0  0  0  0  0  0  0  0
    0.5696   -0.7291    1.4196 O   0  0  0  0  0  0  0  0  0  0  0  0
   -0.7076   -0.1475    1.1741 O   0  0  0  0  0  0  0  0  0  0  0  0
    1.4139   -1.4514   -1.0500 H   0  0  0  0  0  0  0  0  0  0  0  0
    0.6513   -3.0480   -1.0363 H   0  0  0  0  0  0  0  0  0  0  0  0
   -0.3559   -1.6008   -1.0538 H   0  0  0  0  0  0  0  0  0  0  0  0
    1.4906   -2.4624    1.2436 H   0  0  0  0  0  0  0  0  0  0  0  0
   -0.2769   -2.5939    1.2478 H   0  0  0  0  0  0  0  0  0  0  0  0
   -0.4409    0.6857    0.4192 H   0  0  0  0  0  0  0  0  0  0  0  0
   -1.4029    2.3846   -0.8304 C   0  0  0  0  0  0  0  0  0  0  0  0
   -0.1380    1.6319   -0.4381 C   0  0  0  0  0  3  0  0  0  0  0  0
    0.5765    1.0206   -1.6365 C   0  0  0  0  0  0  0  0  0  0  0  0
   -2.1142    1.7207   -1.3278 H   0  0  0  0  0  0  0  0  0  0  0  0
   -1.9001    2.8149    0.0406 H   0  0  0  0  0  0  0  0  0  0  0  0
   -1.1741    3.1994   -1.5216 H   0  0  0  0  0  0  0  0  0  0  0  0
    0.5422    2.3105    0.0840 H   0  0  0  0  0  0  0  0  0  0  0  0
    0.8677    1.7924   -2.3532 H   0  0  0  0  0  0  0  0  0  0  0  0
    1.4792    0.4861   -1.3357 H   0  0  0  0  0  0  0  0  0  0  0  0
   -0.0724    0.3136   -2.1593 H   0  0  0  0  0  0  0  0  0  0  0  0
  1  2  1  0
  1  5  1  0
  1  6  1  0
  1  7  1  0
  2  3  1  0
  2  8  1  0
  2  9  1  0
  3  4  1  0
  4 10  1  0
 11 12  1  0
 11 14  1  0
 11 15  1  0
 11 16  1  0
 12 13  1  0
 12 17  1  0
 13 18  1  0
 13 19  1  0
 13 20  1  0
M  RAD  1  12   2
M  END
>  <reaction>  (9) 
rxn_450

>  <mol_properties>  (9) 
{"2": {"label": "*0", "atom_type": "O2s"}, "3": {"label": "*1", "atom_type": "O2s"}, "9": {"label": "*2", "atom_type": "H0"}, "10": {"label": "*4", "atom_type": "Cs"}, "11": {"label": "*3", "atom_type": "Cs"}}

>  <type>  (9) 
unop_5

>  <geom_source>  (9) 
Heuristics

$$$$

     RDKit          3D

 20 18  0  0  0  0  0  0  0  0999 V2000
    0.6647   -2.1609   -0.9724 C   0  0  0  0  0  0  0  0  0  0  0  0
    0.6647   -2.1609    0.5429 C   0  0  0  0  0  0  0  0  0  0  0  0
    0.6647   -0.8648    1.1114 O   0  0  0  0  0  0  0  0  0  0  0  0
   -0.6125   -0.2832    0.8659 O   0  0  0  0  0  0  0  0  0  0  0  0
    1.5091   -1.5871   -1.3582 H   0  0  0  0  0  0  0  0  0  0  0  0
    0.7465   -3.1837   -1.3445 H   0  0  0  0  0  0  0  0  0  0  0  0
   -0.2608   -1.7364   -1.3620 H   0  0  0  0  0  0  0  0  0  0  0  0
    1.5858   -2.5981    0.9353 H   0  0  0  0  0  0  0  0  0  0  0  0
   -0.1818   -2.7296    0.9395 H   0  0  0  0  0  0  0  0  0  0  0  0
   -0.3458    0.5500    0.1110 H   0  0  0  0  0  0  0  0  0  0  0  0
    0.2830    2.7788    0.0082 C   0  0  0  0  0  0  0  0  0  0  0  0
   -0.0429    1.4962   -0.7463 C   0  0  0  0  0  3  0  0  0  0  0  0
   -1.5397    1.2988   -0.9487 C   0  0  0  0  0  0  0  0  0  0  0  0
   -0.1806    2.7784    0.9977 H   0  0  0  0  0  0  0  0  0  0  0  0
    1.3589    2.9024    0.1432 H   0  0  0  0  0  0  0  0  0  0  0  0
   -0.0895    3.6539   -0.5297 H   0  0  0  0  0  0  0  0  0  0  0  0
    0.4574    1.5088   -1.7186 H   0  0  0  0  0  0  0  0  0  0  0  0
   -1.9698    2.1272   -1.5168 H   0  0  0  0  0  0  0  0  0  0  0  0
   -1.7530    0.3757   -1.4904 H   0  0  0  0  0  0  0  0  0  0  0  0
   -2.0608    1.2517    0.0107 H   0  0  0  0  0  0  0  0  0  0  0  0
  1  2  1  0
  1  5  1  0
  1  6  1  0
  1  7  1  0
  2  3  1  0
  2  8  1  0
  2  9  1  0
  3  4  1  0
  4 10  1  0
 11 12  1  0
 11 14  1  0
 11 15  1  0
 11 16  1  0
 12 13  1  0
 12 17  1  0
 13 18  1  0
 13 19  1  0
 13 20  1  0
M  RAD  1  12   2
M  END
>  <reaction>  (10) 
rxn_450

>  <mol_properties>  (10) 
{"2": {"label": "*0", "atom_type": "O2s"}, "3": {"label": "*1", "atom_type": "O2s"}, "9": {"label": "*2", "atom_type": "H0"}, "10": {"label": "*4", "atom_type": "Cs"}, "11": {"label": "*3", "atom_type": "Cs"}}

>  <type>  (10) 
unop_6

>  <geom_source>  (10) 
Heuristics

$$$$

     RDKit          3D

 20 18  0  0  0  0  0  0  0  0999 V2000
    0.7208   -2.0944   -0.8792 C   0  0  0  0  0  0  0  0  0  0  0  0
    0.7208   -2.0944    0.6361 C   0  0  0  0  0  0  0  0  0  0  0  0
    0.7208   -0.7983    1.2045 O   0  0  0  0  0  0  0  0  0  0  0  0
   -0.5564   -0.2167    0.9590 O   0  0  0  0  0  0  0  0  0  0  0  0
    1.5652   -1.5206   -1.2651 H   0  0  0  0  0  0  0  0  0  0  0  0
    0.8026   -3.1172   -1.2514 H   0  0  0  0  0  0  0  0  0  0  0  0
   -0.2047   -1.6699   -1.2688 H   0  0  0  0  0  0  0  0  0  0  0  0
    1.6419   -2.5316    1.0285 H   0  0  0  0  0  0  0  0  0  0  0  0
   -0.1257   -2.6630    1.0327 H   0  0  0  0  0  0  0  0  0  0  0  0
   -0.2897    0.6165    0.2041 H   0  0  0  0  0  0  0  0  0  0  0  0
   -0.3798    2.9160   -0.0746 C   0  0  0  0  0  0  0  0  0  0  0  0
    0.0132    1.5627   -0.6532 C   0  0  0  0  0  3  0  0  0  0  0  0
   -1.1567    0.8449   -1.3138 C   0  0  0  0  0  0  0  0  0  0  0  0
   -1.1610    2.8056    0.6814 H   0  0  0  0  0  0  0  0  0  0  0  0
    0.4706    3.4143    0.3938 H   0  0  0  0  0  0  0  0  0  0  0  0
   -0.7670    3.5766   -0.8542 H   0  0  0  0  0  0  0  0  0  0  0  0
    0.8162    1.6982   -1.3831 H   0  0  0  0  0  0  0  0  0  0  0  0
   -1.5683    1.4402   -2.1325 H   0  0  0  0  0  0  0  0  0  0  0  0
   -0.8557   -0.1215   -1.7218 H   0  0  0  0  0  0  0  0  0  0  0  0
   -1.9624    0.6692   -0.5968 H   0  0  0  0  0  0  0  0  0  0  0  0
  1  2  1  0
  1  5  1  0
  1  6  1  0
  1  7  1  0
  2  3  1  0
  2  8  1  0
  2  9  1  0
  3  4  1  0
  4 10  1  0
 11 12  1  0
 11 14  1  0
 11 15  1  0
 11 16  1  0
 12 13  1  0
 12 17  1  0
 13 18  1  0
 13 19  1  0
 13 20  1  0
M  RAD  1  12   2
M  END
>  <reaction>  (11) 
rxn_450

>  <mol_properties>  (11) 
{"2": {"label": "*0", "atom_type": "O2s"}, "3": {"label": "*1", "atom_type": "O2s"}, "9": {"label": "*2", "atom_type": "H0"}, "10": {"label": "*4", "atom_type": "Cs"}, "11": {"label": "*3", "atom_type": "Cs"}}

>  <type>  (11) 
unop_7

>  <geom_source>  (11) 
Heuristics

$$$$

     RDKit          3D

 20 18  0  0  0  0  0  0  0  0999 V2000
    0.3917   -2.1082   -0.7011 C   0  0  0  0  0  0  0  0  0  0  0  0
    0.3917   -2.1082    0.8142 C   0  0  0  0  0  0  0  0  0  0  0  0
    0.3917   -0.8121    1.3826 O   0  0  0  0  0  0  0  0  0  0  0  0
   -0.8855   -0.2305    1.1371 O   0  0  0  0  0  0  0  0  0  0  0  0
    1.2360   -1.5344   -1.0870 H   0  0  0  0  0  0  0  0  0  0  0  0
    0.4734   -3.1309   -1.0733 H   0  0  0  0  0  0  0  0  0  0  0  0
   -0.5338   -1.6837   -1.0907 H   0  0  0  0  0  0  0  0  0  0  0  0
    1.3127   -2.5454    1.2066 H   0  0  0  0  0  0  0  0  0  0  0  0
   -0.4548   -2.6768    1.2108 H   0  0  0  0  0  0  0  0  0  0  0  0
   -0.6188    0.6028    0.3822 H   0  0  0  0  0  0  0  0  0  0  0  0
   -0.4077    0.9976   -1.8922 C   0  0  0  0  0  0  0  0  0  0  0  0
   -0.3159    1.5489   -0.4751 C   0  0  0  0  0  3  0  0  0  0  0  0
    0.5147    2.8233   -0.3940 C   0  0  0  0  0  0  0  0  0  0  0  0
    0.5846    0.7634   -2.2852 H   0  0  0  0  0  0  0  0  0  0  0  0
   -1.0060    0.0857   -1.9299 H   0  0  0  0  0  0  0  0  0  0  0  0
   -0.8653    1.7262   -2.5659 H   0  0  0  0  0  0  0  0  0  0  0  0
   -1.3222    1.7456   -0.0951 H   0  0  0  0  0  0  0  0  0  0  0  0
    0.0862    3.6094   -1.0205 H   0  0  0  0  0  0  0  0  0  0  0  0
    0.5688    3.2026    0.6279 H   0  0  0  0  0  0  0  0  0  0  0  0
    1.5361    2.6466   -0.7398 H   0  0  0  0  0  0  0  0  0  0  0  0
  1  2  1  0
  1  5  1  0
  1  6  1  0
  1  7  1  0
  2  3  1  0
  2  8  1  0
  2  9  1  0
  3  4  1  0
  4 10  1  0
 11 12  1  0
 11 14  1  0
 11 15  1  0
 11 16  1  0
 12 13  1  0
 12 17  1  0
 13 18  1  0
 13 19  1  0
 13 20  1  0
M  RAD  1  12   2
M  END
>  <reaction>  (12) 
rxn_450

>  <mol_properties>  (12) 
{"2": {"label": "*0", "atom_type": "O2s"}, "3": {"label": "*1", "atom_type": "O2s"}, "9": {"label": "*2", "atom_type": "H0"}, "10": {"label": "*4", "atom_type": "Cs"}, "11": {"label": "*3", "atom_type": "Cs"}}

>  <type>  (12) 
unop_8

>  <geom_source>  (12) 
Heuristics

$$$$

     RDKit          3D

 20 18  0  0  0  0  0  0  0  0999 V2000
    0.4405   -2.2155   -1.0047 C   0  0  0  0  0  0  0  0  0  0  0  0
    0.4405   -2.2155    0.5106 C   0  0  0  0  0  0  0  0  0  0  0  0
    0.4405   -0.9193    1.0790 O   0  0  0  0  0  0  0  0  0  0  0  0
   -0.8367   -0.3377    0.8335 O   0  0  0  0  0  0  0  0  0  0  0  0
    1.2849   -1.6416   -1.3906 H   0  0  0  0  0  0  0  0  0  0  0  0
    0.5222   -3.2382   -1.3769 H   0  0  0  0  0  0  0  0  0  0  0  0
   -0.4850   -1.7910   -1.3943 H   0  0  0  0  0  0  0  0  0  0  0  0
    1.3615   -2.6526    0.9030 H   0  0  0  0  0  0  0  0  0  0  0  0
   -0.4060   -2.7841    0.9072 H   0  0  0  0  0  0  0  0  0  0  0  0
   -0.5700    0.4955    0.0786 H   0  0  0  0  0  0  0  0  0  0  0  0
    1.1512    1.9305   -0.5141 C   0  0  0  0  0  0  0  0  0  0  0  0
   -0.2671    1.4417   -0.7787 C   0  0  0  0  0  3  0  0  0  0  0  0
   -1.3263    2.4110   -0.2698 C   0  0  0  0  0  0  0  0  0  0  0  0
    1.3241    2.0670    0.5562 H   0  0  0  0  0  0  0  0  0  0  0  0
    1.8950    1.2235   -0.8854 H   0  0  0  0  0  0  0  0  0  0  0  0
    1.3304    2.8918   -1.0019 H   0  0  0  0  0  0  0  0  0  0  0  0
   -0.4035    1.2841   -1.8521 H   0  0  0  0  0  0  0  0  0  0  0  0
   -1.2252    3.3874   -0.7498 H   0  0  0  0  0  0  0  0  0  0  0  0
   -2.3346    2.0439   -0.4682 H   0  0  0  0  0  0  0  0  0  0  0  0
   -1.2314    2.5626    0.8082 H   0  0  0  0  0  0  0  0  0  0  0  0
  1  2  1  0
  1  5  1  0
  1  6  1  0
  1  7  1  0
  2  3  1  0
  2  8  1  0
  2  9  1  0
  3  4  1  0
  4 10  1  0
 11 12  1  0
 11 14  1  0
 11 15  1  0
 11 16  1  0
 12 13  1  0
 12 17  1  0
 13 18  1  0
 13 19  1  0
 13 20  1  0
M  RAD  1  12   2
M  END
>  <reaction>  (13) 
rxn_450

>  <mol_properties>  (13) 
{"2": {"label": "*0", "atom_type": "O2s"}, "3": {"label": "*1", "atom_type": "O2s"}, "9": {"label": "*2", "atom_type": "H0"}, "10": {"label": "*4", "atom_type": "Cs"}, "11": {"label": "*3", "atom_type": "Cs"}}

>  <type>  (13) 
unop_9

>  <geom_source>  (13) 
Heuristics

$$$$

     RDKit          3D

 20 18  0  0  0  0  0  0  0  0999 V2000
    0.3418   -2.1200   -0.7449 C   0  0  0  0  0  0  0  0  0  0  0  0
    0.3418   -2.1200    0.7703 C   0  0  0  0  0  0  0  0  0  0  0  0
    0.3418   -0.8239    1.3388 O   0  0  0  0  0  0  0  0  0  0  0  0
   -0.9355   -0.2423    1.0933 O   0  0  0  0  0  0  0  0  0  0  0  0
    1.1861   -1.5462   -1.1308 H   0  0  0  0  0  0  0  0  0  0  0  0
    0.4235   -3.1427   -1.1171 H   0  0  0  0  0  0  0  0  0  0  0  0
   -0.5837   -1.6955   -1.1346 H   0  0  0  0  0  0  0  0  0  0  0  0
    1.2628   -2.5572    1.1628 H   0  0  0  0  0  0  0  0  0  0  0  0
   -0.5047   -2.6886    1.1669 H   0  0  0  0  0  0  0  0  0  0  0  0
   -0.6687    0.5909    0.3384 H   0  0  0  0  0  0  0  0  0  0  0  0
    0.2613    0.9151   -1.7600 C   0  0  0  0  0  0  0  0  0  0  0  0
   -0.3658    1.5371   -0.5189 C   0  0  0  0  0  3  0  0  0  0  0  0
    0.0829    2.9752   -0.2928 C   0  0  0  0  0  0  0  0  0  0  0  0
    1.3514    0.9065   -1.6843 H   0  0  0  0  0  0  0  0  0  0  0  0
   -0.0718   -0.1139   -1.9050 H   0  0  0  0  0  0  0  0  0  0  0  0
   -0.0021    1.4816   -2.6565 H   0  0  0  0  0  0  0  0  0  0  0  0
   -1.4554    1.5053   -0.6067 H   0  0  0  0  0  0  0  0  0  0  0  0
   -0.1862    3.6067   -1.1430 H   0  0  0  0  0  0  0  0  0  0  0  0
   -0.3765    3.4031    0.5999 H   0  0  0  0  0  0  0  0  0  0  0  0
    1.1673    3.0315   -0.1708 H   0  0  0  0  0  0  0  0  0  0  0  0
  1  2  1  0
  1  5  1  0
  1  6  1  0
  1  7  1  0
  2  3  1  0
  2  8  1  0
  2  9  1  0
  3  4  1  0
  4 10  1  0
 11 12  1  0
 11 14  1  0
 11 15  1  0
 11 16  1  0
 12 13  1  0
 12 17  1  0
 13 18  1  0
 13 19  1  0
 13 20  1  0
M  RAD  1  12   2
M  END
>  <reaction>  (14) 
rxn_450

>  <mol_properties>  (14) 
{"2": {"label": "*0", "atom_type": "O2s"}, "3": {"label": "*1", "atom_type": "O2s"}, "9": {"label": "*2", "atom_type": "H0"}, "10": {"label": "*4", "atom_type": "Cs"}, "11": {"label": "*3", "atom_type": "Cs"}}

>  <type>  (14) 
unop_10

>  <geom_source>  (14) 
Heuristics

$$$$

     RDKit          3D

 20 18  0  0  0  0  0  0  0  0999 V2000
    0.6948   -2.0280   -0.7570 C   0  0  0  0  0  0  0  0  0  0  0  0
    0.6948   -2.0280    0.7583 C   0  0  0  0  0  0  0  0  0  0  0  0
    0.6948   -0.7319    1.3267 O   0  0  0  0  0  0  0  0  0  0  0  0
   -0.5825   -0.1502    1.0812 O   0  0  0  0  0  0  0  0  0  0  0  0
    1.5391   -1.4541   -1.1429 H   0  0  0  0  0  0  0  0  0  0  0  0
    0.7765   -3.0507   -1.1292 H   0  0  0  0  0  0  0  0  0  0  0  0
   -0.2307   -1.6035   -1.1467 H   0  0  0  0  0  0  0  0  0  0  0  0
    1.6158   -2.4652    1.1507 H   0  0  0  0  0  0  0  0  0  0  0  0
   -0.1517   -2.5966    1.1548 H   0  0  0  0  0  0  0  0  0  0  0  0
   -0.3157    0.6830    0.3263 H   0  0  0  0  0  0  0  0  0  0  0  0
   -0.9882    2.7885   -0.3722 C   0  0  0  0  0  0  0  0  0  0  0  0
   -0.0128    1.6292   -0.5310 C   0  0  0  0  0  3  0  0  0  0  0  0
   -0.4395    0.6477   -1.6151 C   0  0  0  0  0  0  0  0  0  0  0  0
   -1.9850    2.4270   -0.1081 H   0  0  0  0  0  0  0  0  0  0  0  0
   -0.6658    3.4799    0.4081 H   0  0  0  0  0  0  0  0  0  0  0  0
   -1.0786    3.3532   -1.3033 H   0  0  0  0  0  0  0  0  0  0  0  0
    0.9817    2.0195   -0.7643 H   0  0  0  0  0  0  0  0  0  0  0  0
   -0.5126    1.1450   -2.5854 H   0  0  0  0  0  0  0  0  0  0  0  0
    0.2709   -0.1748   -1.7138 H   0  0  0  0  0  0  0  0  0  0  0  0
   -1.4190    0.2188   -1.3902 H   0  0  0  0  0  0  0  0  0  0  0  0
  1  2  1  0
  1  5  1  0
  1  6  1  0
  1  7  1  0
  2  3  1  0
  2  8  1  0
  2  9  1  0
  3  4  1  0
  4 10  1  0
 11 12  1  0
 11 14  1  0
 11 15  1  0
 11 16  1  0
 12 13  1  0
 12 17  1  0
 13 18  1  0
 13 19  1  0
 13 20  1  0
M  RAD  1  12   2
M  END
>  <reaction>  (15) 
rxn_450

>  <mol_properties>  (15) 
{"2": {"label": "*0", "atom_type": "O2s"}, "3": {"label": "*1", "atom_type": "O2s"}, "9": {"label": "*2", "atom_type": "H0"}, "10": {"label": "*4", "atom_type": "Cs"}, "11": {"label": "*3", "atom_type": "Cs"}}

>  <type>  (15) 
unop_11

>  <geom_source>  (15) 
Heuristics

$$$$

     RDKit          3D

 20 18  0  0  0  0  0  0  0  0999 V2000
    0.3451   -2.1940   -0.9297 C   0  0  0  0  0  0  0  0  0  0  0  0
    0.3451   -2.1940    0.5856 C   0  0  0  0  0  0  0  0  0  0  0  0
    0.3451   -0.8979    1.1540 O   0  0  0  0  0  0  0  0  0  0  0  0
   -0.9321   -0.3163    0.9085 O   0  0  0  0  0  0  0  0  0  0  0  0
    1.1894   -1.6202   -1.3156 H   0  0  0  0  0  0  0  0  0  0  0  0
    0.4268   -3.2168   -1.3019 H   0  0  0  0  0  0  0  0  0  0  0  0
   -0.5804   -1.7696   -1.3194 H   0  0  0  0  0  0  0  0  0  0  0  0
    1.2661   -2.6312    0.9780 H   0  0  0  0  0  0  0  0  0  0  0  0
   -0.5014   -2.7627    0.9822 H   0  0  0  0  0  0  0  0  0  0  0  0
   -0.6654    0.5169    0.1536 H   0  0  0  0  0  0  0  0  0  0  0  0
    1.1365    1.4416   -0.9739 C   0  0  0  0  0  0  0  0  0  0  0  0
   -0.3625    1.4631   -0.7037 C   0  0  0  0  0  3  0  0  0  0  0  0
   -0.8429    2.8057   -0.1678 C   0  0  0  0  0  0  0  0  0  0  0  0
    1.7010    1.6470   -0.0611 H   0  0  0  0  0  0  0  0  0  0  0  0
    1.4613    0.4727   -1.3568 H   0  0  0  0  0  0  0  0  0  0  0  0
    1.4118    2.2015   -1.7094 H   0  0  0  0  0  0  0  0  0  0  0  0
   -0.9018    1.2247   -1.6246 H   0  0  0  0  0  0  0  0  0  0  0  0
   -0.6300    3.6085   -0.8778 H   0  0  0  0  0  0  0  0  0  0  0  0
   -1.9180    2.8014    0.0194 H   0  0  0  0  0  0  0  0  0  0  0  0
   -0.3408    3.0540    0.7705 H   0  0  0  0  0  0  0  0  0  0  0  0
  1  2  1  0
  1  5  1  0
  1  6  1  0
  1  7  1  0
  2  3  1  0
  2  8  1  0
  2  9  1  0
  3  4  1  0
  4 10  1  0
 11 12  1  0
 11 14  1  0
 11 15  1  0
 11 16  1  0
 12 13  1  0
 12 17  1  0
 13 18  1  0
 13 19  1  0
 13 20  1  0
M  RAD  1  12   2
M  END
>  <reaction>  (16) 
rxn_450

>  <mol_properties>  (16) 
{"2": {"label": "*0", "atom_type": "O2s"}, "3": {"label": "*1", "atom_type": "O2s"}, "9": {"label": "*2", "atom_type": "H0"}, "10": {"label": "*4", "atom_type": "Cs"}, "11": {"label": "*3", "atom_type": "Cs"}}

>  <type>  (16) 
unop_12

>  <geom_source>  (16) 
Heuristics

$$$$

     RDKit          3D

 20 18  0  0  0  0  0  0  0  0999 V2000
    1.5322   -1.0601    0.3601 O   0  0  0  0  0  0  0  0  0  0  0  0
    0.6682   -0.6987   -0.5702 O   0  0  0  0  0  1  0  0  0  0  0  0
   -1.7078   -0.3667   -0.3283 C   0  0  0  0  0  0  0  0  0  0  0  0
    2.3133    0.0748    0.6392 C   0  0  0  0  0  0  0  0  0  0  0  0
   -2.1934   -0.6394    1.0917 C   0  0  0  0  0  0  0  0  0  0  0  0
   -2.4226    0.8350   -0.9378 C   0  0  0  0  0  0  0  0  0  0  0  0
    3.4180    0.2361   -0.4001 C   0  0  0  0  0  0  0  0  0  0  0  0
   -1.8938   -1.2630   -0.9585 H   0  0  0  0  0  0  0  0  0  0  0  0
   -0.5520   -0.1596   -0.3084 H   0  0  0  0  0  0  0  0  0  0  0  0
    2.7840   -0.0620    1.6356 H   0  0  0  0  0  0  0  0  0  0  0  0
    1.6938    1.0003    0.6924 H   0  0  0  0  0  0  0  0  0  0  0  0
   -1.6540   -1.5171    1.5056 H   0  0  0  0  0  0  0  0  0  0  0  0
   -1.9947    0.2389    1.7421 H   0  0  0  0  0  0  0  0  0  0  0  0
   -3.2826   -0.8584    1.0919 H   0  0  0  0  0  0  0  0  0  0  0  0
   -2.2289    1.7461   -0.3325 H   0  0  0  0  0  0  0  0  0  0  0  0
   -2.0462    1.0066   -1.9681 H   0  0  0  0  0  0  0  0  0  0  0  0
   -3.5170    0.6503   -0.9848 H   0  0  0  0  0  0  0  0  0  0  0  0
    4.0444   -0.6804   -0.4345 H   0  0  0  0  0  0  0  0  0  0  0  0
    4.0604    1.1011   -0.1315 H   0  0  0  0  0  0  0  0  0  0  0  0
    2.9787    0.4161   -1.4040 H   0  0  0  0  0  0  0  0  0  0  0  0
  1  4  1  0
  1  2  1  0
  3  5  1  0
  3  6  1  0
  3  8  1  0
  3  9  1  0
  4  7  1  0
  4 10  1  0
  4 11  1  0
  5 12  1  0
  5 13  1  0
  5 14  1  0
  6 15  1  0
  6 16  1  0
  6 17  1  0
  7 18  1  0
  7 19  1  0
  7 20  1  0
M  RAD  1   2   2
M  END
>  <reaction>  (17) 
rxn_450

>  <mol_properties>  (17) 
{"2": {"label": "*0", "atom_type": "O2s"}, "3": {"label": "*1", "atom_type": "O2s"}, "9": {"label": "*2", "atom_type": "H0"}, "10": {"label": "*4", "atom_type": "Cs"}, "11": {"label": "*3", "atom_type": "Cs"}}

>  <type>  (17) 
unop_13

>  <geom_source>  (17) 
AutoTST

$$$$
