
     RDKit          3D

 15 15  0  0  0  0  0  0  0  0999 V2000
    2.2031   -0.2111   -0.1693 C   0  0  0  0  0  0  0  0  0  0  0  0
    0.7140   -0.0314   -0.0623 C   0  0  0  0  0  0  0  0  0  0  0  0
   -0.0114    0.5491   -1.0982 C   0  0  0  0  0  0  0  0  0  0  0  0
   -1.3882    0.6886   -1.0150 C   0  0  0  0  0  0  0  0  0  0  0  0
   -2.0661    0.2493    0.1118 C   0  0  0  0  0  0  0  0  0  0  0  0
   -1.3551   -0.3278    1.1528 C   0  0  0  0  0  0  0  0  0  0  0  0
    0.0216   -0.4648    1.0642 C   0  0  0  0  0  0  0  0  0  0  0  0
    2.6776   -0.1836    0.8122 H   0  0  0  0  0  0  0  0  0  0  0  0
    2.4446   -1.1749   -0.6249 H   0  0  0  0  0  0  0  0  0  0  0  0
    2.6532    0.5664   -0.7875 H   0  0  0  0  0  0  0  0  0  0  0  0
    0.5104    0.8989   -1.9819 H   0  0  0  0  0  0  0  0  0  0  0  0
   -1.9328    1.1452   -1.8322 H   0  0  0  0  0  0  0  0  0  0  0  0
   -3.1409    0.3597    0.1800 H   0  0  0  0  0  0  0  0  0  0  0  0
   -1.8736   -0.6702    2.0398 H   0  0  0  0  0  0  0  0  0  0  0  0
    0.5695   -0.9141    1.8849 H   0  0  0  0  0  0  0  0  0  0  0  0
  1  2  1  0
  1  8  1  0
  1  9  1  0
  1 10  1  0
  2  3  2  0
  2  7  1  0
  3  4  1  0
  3 11  1  0
  4  5  2  0
  4 12  1  0
  5  6  1  0
  5 13  1  0
  6  7  2  0
  6 14  1  0
  7 15  1  0
M  END
>  <reaction>  (1) 
rxn_1468

>  <mol_properties>  (1) 
{"0": {"label": "donator", "atom_type": "Cs"}, "7": {"label": "d_hydrogen", "atom_type": "H0"}}

>  <type>  (1) 
r1h

$$$$

     RDKit          3D

 10  9  0  0  0  0  0  0  0  0999 V2000
   -1.2648    0.1959    0.8197 C   0  0  0  0  0  0  0  0  0  0  0  0
   -0.2805    0.0995   -0.3030 C   0  0  0  0  0  3  0  0  0  0  0  0
   -0.0444    1.1347   -1.1797 C   0  0  0  0  0  0  0  0  0  0  0  0
    0.1640    2.0467   -1.9525 C   0  0  0  0  0  0  0  0  0  0  0  0
    0.5686   -1.4168   -0.4488 S   0  0  0  0  0  0  0  0  0  0  0  0
   -2.0466   -0.5638    0.7258 H   0  0  0  0  0  0  0  0  0  0  0  0
   -0.7765    0.0454    1.7871 H   0  0  0  0  0  0  0  0  0  0  0  0
   -1.7371    1.1762    0.8222 H   0  0  0  0  0  0  0  0  0  0  0  0
    0.3433    2.8484   -2.6273 H   0  0  0  0  0  0  0  0  0  0  0  0
    1.3075   -1.0953   -1.5176 H   0  0  0  0  0  0  0  0  0  0  0  0
  1  2  1  0
  1  6  1  0
  1  7  1  0
  1  8  1  0
  2  3  1  0
  2  5  1  0
  3  4  3  0
  4  9  1  0
  5 10  1  0
M  RAD  1   2   2
M  END
>  <reaction>  (2) 
rxn_1468

>  <mol_properties>  (2) 
{"1": {"label": "acceptor", "atom_type": "Cs"}}

>  <type>  (2) 
r2

$$$$

     RDKit          3D

 11 10  0  0  0  0  0  0  0  0999 V2000
   -1.2582   -0.5130    0.2160 C   0  0  0  0  0  0  0  0  0  0  0  0
   -0.1109    0.0509   -0.6210 C   0  0  0  0  0  0  0  0  0  0  0  0
    1.1862   -0.2025   -0.0072 C   0  0  0  0  0  0  0  0  0  0  0  0
    2.2351   -0.4206    0.5274 C   0  0  0  0  0  0  0  0  0  0  0  0
   -0.3298    1.8272   -1.0120 S   0  0  0  0  0  0  0  0  0  0  0  0
   -1.2875   -0.0327    1.1945 H   0  0  0  0  0  0  0  0  0  0  0  0
   -2.2088   -0.3391   -0.2866 H   0  0  0  0  0  0  0  0  0  0  0  0
   -1.1220   -1.5854    0.3655 H   0  0  0  0  0  0  0  0  0  0  0  0
   -0.1222   -0.4181   -1.6078 H   0  0  0  0  0  0  0  0  0  0  0  0
    3.1729   -0.6098    0.9920 H   0  0  0  0  0  0  0  0  0  0  0  0
   -0.1942    2.2663    0.2466 H   0  0  0  0  0  0  0  0  0  0  0  0
  1  2  1  0
  1  6  1  0
  1  7  1  0
  1  8  1  0
  2  3  1  0
  2  5  1  0
  2  9  1  0
  3  4  3  0
  4 10  1  0
  5 11  1  0
M  END
>  <reaction>  (3) 
rxn_1468

>  <mol_properties>  (3) 
{"1": {"label": "acceptor", "atom_type": "Cs"}, "10": {"label": "a_hydrogen", "atom_type": "H0"}}

>  <type>  (3) 
r2h

$$$$

     RDKit          3D

 25 24  0  0  0  0  0  0  0  0999 V2000
   -0.4426   -0.9950    3.2228 C   0  0  0  0  0  0  0  0  0  0  0  0
   -0.8073   -0.6424    1.7947 C   0  0  2  0  0  0  0  0  0  0  0  0
   -2.0564    0.0323    1.6196 C   0  0  0  0  0  0  0  0  0  0  0  0
   -3.0656    0.6628    1.4533 C   0  0  0  0  0  0  0  0  0  0  0  0
   -0.5225   -2.0190    0.6771 S   0  0  0  0  0  0  0  0  0  0  0  0
   -1.1129   -1.7563    3.6279 H   0  0  0  0  0  0  0  0  0  0  0  0
    0.5802   -1.3714    3.2690 H   0  0  0  0  0  0  0  0  0  0  0  0
   -0.5181   -0.1073    3.8511 H   0  0  0  0  0  0  0  0  0  0  0  0
   -3.9735    1.1980    1.3123 H   0  0  0  0  0  0  0  0  0  0  0  0
   -0.7964   -1.3533   -0.4540 H   0  0  0  0  0  0  0  0  0  0  0  0
    0.9445    1.2298    0.9634 C   0  0  0  0  0  0  0  0  0  0  0  0
    0.8759    1.0672   -0.4797 C   0  0  0  0  0  0  0  0  0  0  0  0
   -0.1946    1.6040   -1.2071 C   0  0  0  0  0  3  0  0  0  0  0  0
   -0.3146    1.3767   -2.5663 C   0  0  0  0  0  0  0  0  0  0  0  0
    0.6307    0.6091   -3.2341 C   0  0  0  0  0  0  0  0  0  0  0  0
    1.6987    0.0710   -2.5280 C   0  0  0  0  0  0  0  0  0  0  0  0
    1.8177    0.2924   -1.1682 C   0  0  0  0  0  0  0  0  0  0  0  0
    0.0862    0.2608    1.4338 H   0  0  0  0  0  0  0  0  0  0  0  0
    1.8882    0.9758    1.4378 H   0  0  0  0  0  0  0  0  0  0  0  0
    0.4652    2.1135    1.3759 H   0  0  0  0  0  0  0  0  0  0  0  0
   -0.9404    2.1942   -0.6879 H   0  0  0  0  0  0  0  0  0  0  0  0
   -1.1502    1.7998   -3.1099 H   0  0  0  0  0  0  0  0  0  0  0  0
    0.5366    0.4328   -4.2979 H   0  0  0  0  0  0  0  0  0  0  0  0
    2.4401   -0.5284   -3.0415 H   0  0  0  0  0  0  0  0  0  0  0  0
    2.6452   -0.1423   -0.6204 H   0  0  0  0  0  0  0  0  0  0  0  0
  1  2  1  0
  1  6  1  0
  1  7  1  0
  1  8  1  0
  2  3  1  0
  2  5  1  0
  2 18  1  6
  3  4  3  0
  4  9  1  0
  5 10  1  0
 11 12  2  3
 11 19  1  0
 11 20  1  0
 12 13  1  0
 12 17  1  0
 13 14  1  0
 13 21  1  0
 14 15  2  0
 14 22  1  0
 15 16  1  0
 15 23  1  0
 16 17  2  0
 16 24  1  0
 17 25  1  0
M  RAD  1  13   2
M  END
>  <reaction>  (4) 
rxn_1468

>  <mol_properties>  (4) 
{"1": {"label": "*1", "atom_type": "Cs"}, "4": {"label": "*0", "atom_type": "S2s"}, "10": {"label": "*3", "atom_type": "Cd"}, "11": {"label": "*4", "atom_type": "Cd"}, "17": {"label": "*2", "atom_type": "H0"}}

>  <type>  (4) 
ts

$$$$

     RDKit          3D

 25 24  0  0  0  0  0  0  0  0999 V2000
    0.6433   -1.8511    2.5244 C   0  0  0  0  0  0  0  0  0  0  0  0
   -0.3512   -1.0669    1.6696 C   0  0  0  0  0  3  0  0  0  0  0  0
   -0.9389    0.0471    2.4026 C   0  0  0  0  0  0  0  0  0  0  0  0
   -1.4080    0.9489    3.0353 C   0  0  0  0  0  0  0  0  0  0  0  0
   -1.6422   -2.1356    0.9300 S   0  0  0  0  0  0  0  0  0  0  0  0
    0.1411   -2.2885    3.3879 H   0  0  0  0  0  0  0  0  0  0  0  0
    1.0903   -2.6528    1.9378 H   0  0  0  0  0  0  0  0  0  0  0  0
    1.4313   -1.1887    2.8864 H   0  0  0  0  0  0  0  0  0  0  0  0
   -1.8247    1.7498    3.5972 H   0  0  0  0  0  0  0  0  0  0  0  0
   -2.2371   -2.4587    2.0862 H   0  0  0  0  0  0  0  0  0  0  0  0
    0.8297    1.0687    0.7165 C   0  0  0  0  0  0  0  0  0  0  0  0
    0.8297    1.0687   -0.7872 C   0  0  0  0  0  0  0  0  0  0  0  0
    0.8297    2.2631   -1.5013 C   0  0  0  0  0  0  0  0  0  0  0  0
    0.8602    2.2664   -2.8873 C   0  0  0  0  0  0  0  0  0  0  0  0
    0.8897    1.0694   -3.5863 C   0  0  0  0  0  0  0  0  0  0  0  0
    0.8866   -0.1280   -2.8873 C   0  0  0  0  0  0  0  0  0  0  0  0
    0.8561   -0.1253   -1.5013 C   0  0  0  0  0  0  0  0  0  0  0  0
    0.2399    0.0020    1.1926 H   0  0  0  0  0  0  0  0  0  0  0  0
    1.8520    1.0800    1.1033 H   0  0  0  0  0  0  0  0  0  0  0  0
    0.3187    1.9466    1.1132 H   0  0  0  0  0  0  0  0  0  0  0  0
    0.8031    3.2042   -0.9635 H   0  0  0  0  0  0  0  0  0  0  0  0
    0.8575    3.2076   -3.4230 H   0  0  0  0  0  0  0  0  0  0  0  0
    0.9109    1.0696   -4.6687 H   0  0  0  0  0  0  0  0  0  0  0  0
    0.9047   -1.0690   -3.4230 H   0  0  0  0  0  0  0  0  0  0  0  0
    0.8502   -1.0668   -0.9635 H   0  0  0  0  0  0  0  0  0  0  0  0
  1  2  1  0
  1  6  1  0
  1  7  1  0
  1  8  1  0
  2  3  1  0
  2  5  1  0
  3  4  3  0
  4  9  1  0
  5 10  1  0
 11 12  1  0
 11 18  1  0
 11 19  1  0
 11 20  1  0
 12 13  2  0
 12 17  1  0
 13 14  1  0
 13 21  1  0
 14 15  2  0
 14 22  1  0
 15 16  1  0
 15 23  1  0
 16 17  2  0
 16 24  1  0
 17 25  1  0
M  RAD  1   2   2
M  END
>  <reaction>  (5) 
rxn_1468

>  <mol_properties>  (5) 
{"1": {"label": "*1", "atom_type": "Cs"}, "4": {"label": "*0", "atom_type": "S2s"}, "10": {"label": "*3", "atom_type": "Cd"}, "11": {"label": "*4", "atom_type": "Cd"}, "17": {"label": "*2", "atom_type": "H0"}}

>  <type>  (5) 
unop_1

>  <geom_source>  (5) 
Heuristics

$$$$

     RDKit          3D

 25 24  0  0  0  0  0  0  0  0999 V2000
   -0.3217   -2.1681    0.5346 C   0  0  0  0  0  0  0  0  0  0  0  0
   -0.5068   -1.0118    1.5161 C   0  0  0  0  0  3  0  0  0  0  0  0
    0.4030   -1.1096    2.6502 C   0  0  0  0  0  0  0  0  0  0  0  0
    1.1587   -1.2236    3.5719 C   0  0  0  0  0  0  0  0  0  0  0  0
   -2.2439   -0.8255    2.0671 S   0  0  0  0  0  0  0  0  0  0  0  0
   -0.5442   -3.1189    1.0199 H   0  0  0  0  0  0  0  0  0  0  0  0
   -0.9895   -2.0465   -0.3173 H   0  0  0  0  0  0  0  0  0  0  0  0
    0.7101   -2.1984    0.1805 H   0  0  0  0  0  0  0  0  0  0  0  0
    1.8299   -1.3249    4.3906 H   0  0  0  0  0  0  0  0  0  0  0  0
   -2.2993   -1.9767    2.7505 H   0  0  0  0  0  0  0  0  0  0  0  0
    0.6741    1.1238    0.5630 C   0  0  0  0  0  0  0  0  0  0  0  0
    0.6741    1.1238   -0.9407 C   0  0  0  0  0  0  0  0  0  0  0  0
    0.6741    2.3181   -1.6548 C   0  0  0  0  0  0  0  0  0  0  0  0
    0.7046    2.3214   -3.0407 C   0  0  0  0  0  0  0  0  0  0  0  0
    0.7341    1.1244   -3.7398 C   0  0  0  0  0  0  0  0  0  0  0  0
    0.7310   -0.0730   -3.0407 C   0  0  0  0  0  0  0  0  0  0  0  0
    0.7005   -0.0703   -1.6548 C   0  0  0  0  0  0  0  0  0  0  0  0
    0.0843    0.0570    1.0391 H   0  0  0  0  0  0  0  0  0  0  0  0
    1.6964    1.1350    0.9498 H   0  0  0  0  0  0  0  0  0  0  0  0
    0.1631    2.0016    0.9598 H   0  0  0  0  0  0  0  0  0  0  0  0
    0.6475    3.2592   -1.1169 H   0  0  0  0  0  0  0  0  0  0  0  0
    0.7019    3.2626   -3.5765 H   0  0  0  0  0  0  0  0  0  0  0  0
    0.7553    1.1247   -4.8221 H   0  0  0  0  0  0  0  0  0  0  0  0
    0.7491   -1.0140   -3.5765 H   0  0  0  0  0  0  0  0  0  0  0  0
    0.6946   -1.0117   -1.1169 H   0  0  0  0  0  0  0  0  0  0  0  0
  1  2  1  0
  1  6  1  0
  1  7  1  0
  1  8  1  0
  2  3  1  0
  2  5  1  0
  3  4  3  0
  4  9  1  0
  5 10  1  0
 11 12  1  0
 11 18  1  0
 11 19  1  0
 11 20  1  0
 12 13  2  0
 12 17  1  0
 13 14  1  0
 13 21  1  0
 14 15  2  0
 14 22  1  0
 15 16  1  0
 15 23  1  0
 16 17  2  0
 16 24  1  0
 17 25  1  0
M  RAD  1   2   2
M  END
>  <reaction>  (6) 
rxn_1468

>  <mol_properties>  (6) 
{"1": {"label": "*1", "atom_type": "Cs"}, "4": {"label": "*0", "atom_type": "S2s"}, "10": {"label": "*3", "atom_type": "Cd"}, "11": {"label": "*4", "atom_type": "Cd"}, "17": {"label": "*2", "atom_type": "H0"}}

>  <type>  (6) 
unop_2

>  <geom_source>  (6) 
Heuristics

$$$$

     RDKit          3D

 25 24  0  0  0  0  0  0  0  0999 V2000
    0.2614   -1.3383    3.1440 C   0  0  0  0  0  0  0  0  0  0  0  0
   -0.3638   -0.9778    1.7972 C   0  0  0  0  0  3  0  0  0  0  0  0
   -1.5249   -0.1108    1.9508 C   0  0  0  0  0  0  0  0  0  0  0  0
   -2.4787    0.5947    2.1124 C   0  0  0  0  0  0  0  0  0  0  0  0
   -0.7602   -2.4530    0.7861 S   0  0  0  0  0  0  0  0  0  0  0  0
   -0.4499   -1.8913    3.7581 H   0  0  0  0  0  0  0  0  0  0  0  0
    1.1458   -1.9559    2.9928 H   0  0  0  0  0  0  0  0  0  0  0  0
    0.5443   -0.4315    3.6812 H   0  0  0  0  0  0  0  0  0  0  0  0
   -3.3259    1.2213    2.2560 H   0  0  0  0  0  0  0  0  0  0  0  0
   -1.7239   -2.9207    1.5909 H   0  0  0  0  0  0  0  0  0  0  0  0
    0.8172    1.1578    0.8441 C   0  0  0  0  0  0  0  0  0  0  0  0
    0.8172    1.1578   -0.6597 C   0  0  0  0  0  0  0  0  0  0  0  0
    0.8172    2.3521   -1.3737 C   0  0  0  0  0  0  0  0  0  0  0  0
    0.8476    2.3555   -2.7597 C   0  0  0  0  0  0  0  0  0  0  0  0
    0.8772    1.1585   -3.4587 C   0  0  0  0  0  0  0  0  0  0  0  0
    0.8740   -0.0389   -2.7597 C   0  0  0  0  0  0  0  0  0  0  0  0
    0.8435   -0.0362   -1.3737 C   0  0  0  0  0  0  0  0  0  0  0  0
    0.2273    0.0911    1.3202 H   0  0  0  0  0  0  0  0  0  0  0  0
    1.8394    1.1691    1.2308 H   0  0  0  0  0  0  0  0  0  0  0  0
    0.3062    2.0357    1.2408 H   0  0  0  0  0  0  0  0  0  0  0  0
    0.7906    3.2932   -0.8359 H   0  0  0  0  0  0  0  0  0  0  0  0
    0.8450    3.2967   -3.2954 H   0  0  0  0  0  0  0  0  0  0  0  0
    0.8983    1.1587   -4.5411 H   0  0  0  0  0  0  0  0  0  0  0  0
    0.8922   -0.9799   -3.2954 H   0  0  0  0  0  0  0  0  0  0  0  0
    0.8377   -0.9777   -0.8359 H   0  0  0  0  0  0  0  0  0  0  0  0
  1  2  1  0
  1  6  1  0
  1  7  1  0
  1  8  1  0
  2  3  1  0
  2  5  1  0
  3  4  3  0
  4  9  1  0
  5 10  1  0
 11 12  1  0
 11 18  1  0
 11 19  1  0
 11 20  1  0
 12 13  2  0
 12 17  1  0
 13 14  1  0
 13 21  1  0
 14 15  2  0
 14 22  1  0
 15 16  1  0
 15 23  1  0
 16 17  2  0
 16 24  1  0
 17 25  1  0
M  RAD  1   2   2
M  END
>  <reaction>  (7) 
rxn_1468

>  <mol_properties>  (7) 
{"1": {"label": "*1", "atom_type": "Cs"}, "4": {"label": "*0", "atom_type": "S2s"}, "10": {"label": "*3", "atom_type": "Cd"}, "11": {"label": "*4", "atom_type": "Cd"}, "17": {"label": "*2", "atom_type": "H0"}}

>  <type>  (7) 
unop_3

>  <geom_source>  (7) 
Heuristics

$$$$

     RDKit          3D

 25 24  0  0  0  0  0  0  0  0999 V2000
   -2.0874   -1.0623    0.9948 C   0  0  0  0  0  0  0  0  0  0  0  0
   -0.6403   -1.0282    1.4843 C   0  0  0  0  0  3  0  0  0  0  0  0
   -0.1179   -2.3658    1.7319 C   0  0  0  0  0  0  0  0  0  0  0  0
    0.2780   -3.4779    1.9325 C   0  0  0  0  0  0  0  0  0  0  0  0
   -0.4142    0.0580    2.9420 S   0  0  0  0  0  0  0  0  0  0  0  0
   -2.7352   -1.5048    1.7522 H   0  0  0  0  0  0  0  0  0  0  0  0
   -2.4355   -0.0517    0.7852 H   0  0  0  0  0  0  0  0  0  0  0  0
   -2.1625   -1.6635    0.0872 H   0  0  0  0  0  0  0  0  0  0  0  0
    0.6295   -4.4656    2.1106 H   0  0  0  0  0  0  0  0  0  0  0  0
   -1.1323   -0.6916    3.7891 H   0  0  0  0  0  0  0  0  0  0  0  0
    0.5406    1.1074    0.5312 C   0  0  0  0  0  0  0  0  0  0  0  0
    0.5406    1.1074   -0.9725 C   0  0  0  0  0  0  0  0  0  0  0  0
    0.5406    2.3017   -1.6865 C   0  0  0  0  0  0  0  0  0  0  0  0
    0.5711    2.3051   -3.0725 C   0  0  0  0  0  0  0  0  0  0  0  0
    0.6006    1.1081   -3.7716 C   0  0  0  0  0  0  0  0  0  0  0  0
    0.5975   -0.0893   -3.0725 C   0  0  0  0  0  0  0  0  0  0  0  0
    0.5669   -0.0866   -1.6865 C   0  0  0  0  0  0  0  0  0  0  0  0
   -0.0493    0.0407    1.0073 H   0  0  0  0  0  0  0  0  0  0  0  0
    1.5628    1.1187    0.9180 H   0  0  0  0  0  0  0  0  0  0  0  0
    0.0296    1.9853    0.9280 H   0  0  0  0  0  0  0  0  0  0  0  0
    0.5140    3.2428   -1.1487 H   0  0  0  0  0  0  0  0  0  0  0  0
    0.5684    3.2463   -3.6083 H   0  0  0  0  0  0  0  0  0  0  0  0
    0.6217    1.1083   -4.8539 H   0  0  0  0  0  0  0  0  0  0  0  0
    0.6156   -1.0303   -3.6083 H   0  0  0  0  0  0  0  0  0  0  0  0
    0.5611   -1.0281   -1.1487 H   0  0  0  0  0  0  0  0  0  0  0  0
  1  2  1  0
  1  6  1  0
  1  7  1  0
  1  8  1  0
  2  3  1  0
  2  5  1  0
  3  4  3  0
  4  9  1  0
  5 10  1  0
 11 12  1  0
 11 18  1  0
 11 19  1  0
 11 20  1  0
 12 13  2  0
 12 17  1  0
 13 14  1  0
 13 21  1  0
 14 15  2  0
 14 22  1  0
 15 16  1  0
 15 23  1  0
 16 17  2  0
 16 24  1  0
 17 25  1  0
M  RAD  1   2   2
M  END
>  <reaction>  (8) 
rxn_1468

>  <mol_properties>  (8) 
{"1": {"label": "*1", "atom_type": "Cs"}, "4": {"label": "*0", "atom_type": "S2s"}, "10": {"label": "*3", "atom_type": "Cd"}, "11": {"label": "*4", "atom_type": "Cd"}, "17": {"label": "*2", "atom_type": "H0"}}

>  <type>  (8) 
unop_4

>  <geom_source>  (8) 
Heuristics

$$$$

     RDKit          3D

 25 24  0  0  0  0  0  0  0  0999 V2000
   -0.5049   -0.7948    3.3866 C   0  0  0  0  0  0  0  0  0  0  0  0
   -0.5327   -0.8450    1.8597 C   0  0  0  0  0  3  0  0  0  0  0  0
   -1.8938   -0.8867    1.3413 C   0  0  0  0  0  0  0  0  0  0  0  0
   -3.0243   -0.9276    0.9486 C   0  0  0  0  0  0  0  0  0  0  0  0
    0.4835   -2.2095    1.1803 S   0  0  0  0  0  0  0  0  0  0  0  0
   -0.9608   -1.6924    3.8054 H   0  0  0  0  0  0  0  0  0  0  0  0
    0.5232   -0.7282    3.7403 H   0  0  0  0  0  0  0  0  0  0  0  0
   -1.0643    0.0714    3.7439 H   0  0  0  0  0  0  0  0  0  0  0  0
   -4.0283   -0.9638    0.5998 H   0  0  0  0  0  0  0  0  0  0  0  0
   -0.2810   -3.2033    1.6526 H   0  0  0  0  0  0  0  0  0  0  0  0
    0.6483    1.2906    0.9066 C   0  0  0  0  0  0  0  0  0  0  0  0
    0.6483    1.2906   -0.5971 C   0  0  0  0  0  0  0  0  0  0  0  0
    0.6483    2.4849   -1.3112 C   0  0  0  0  0  0  0  0  0  0  0  0
    0.6787    2.4882   -2.6972 C   0  0  0  0  0  0  0  0  0  0  0  0
    0.7083    1.2912   -3.3962 C   0  0  0  0  0  0  0  0  0  0  0  0
    0.7051    0.0938   -2.6972 C   0  0  0  0  0  0  0  0  0  0  0  0
    0.6746    0.0965   -1.3112 C   0  0  0  0  0  0  0  0  0  0  0  0
    0.0584    0.2238    1.3827 H   0  0  0  0  0  0  0  0  0  0  0  0
    1.6705    1.3018    1.2934 H   0  0  0  0  0  0  0  0  0  0  0  0
    0.1373    2.1685    1.3034 H   0  0  0  0  0  0  0  0  0  0  0  0
    0.6217    3.4260   -0.7733 H   0  0  0  0  0  0  0  0  0  0  0  0
    0.6761    3.4294   -3.2329 H   0  0  0  0  0  0  0  0  0  0  0  0
    0.7294    1.2915   -4.4785 H   0  0  0  0  0  0  0  0  0  0  0  0
    0.7233   -0.8472   -3.2329 H   0  0  0  0  0  0  0  0  0  0  0  0
    0.6688   -0.8449   -0.7733 H   0  0  0  0  0  0  0  0  0  0  0  0
  1  2  1  0
  1  6  1  0
  1  7  1  0
  1  8  1  0
  2  3  1  0
  2  5  1  0
  3  4  3  0
  4  9  1  0
  5 10  1  0
 11 12  1  0
 11 18  1  0
 11 19  1  0
 11 20  1  0
 12 13  2  0
 12 17  1  0
 13 14  1  0
 13 21  1  0
 14 15  2  0
 14 22  1  0
 15 16  1  0
 15 23  1  0
 16 17  2  0
 16 24  1  0
 17 25  1  0
M  RAD  1   2   2
M  END
>  <reaction>  (9) 
rxn_1468

>  <mol_properties>  (9) 
{"1": {"label": "*1", "atom_type": "Cs"}, "4": {"label": "*0", "atom_type": "S2s"}, "10": {"label": "*3", "atom_type": "Cd"}, "11": {"label": "*4", "atom_type": "Cd"}, "17": {"label": "*2", "atom_type": "H0"}}

>  <type>  (9) 
unop_5

>  <geom_source>  (9) 
Heuristics

$$$$

     RDKit          3D

 25 24  0  0  0  0  0  0  0  0999 V2000
   -2.2263   -0.6964    1.7064 C   0  0  0  0  0  0  0  0  0  0  0  0
   -0.7371   -0.9856    1.5238 C   0  0  0  0  0  3  0  0  0  0  0  0
   -0.4667   -2.4149    1.4385 C   0  0  0  0  0  0  0  0  0  0  0  0
   -0.2782   -3.5959    1.3796 C   0  0  0  0  0  0  0  0  0  0  0  0
    0.2992   -0.1846    2.8045 S   0  0  0  0  0  0  0  0  0  0  0  0
   -2.5863   -1.1287    2.6406 H   0  0  0  0  0  0  0  0  0  0  0  0
   -2.3986    0.3789    1.7304 H   0  0  0  0  0  0  0  0  0  0  0  0
   -2.7970   -1.1333    0.8852 H   0  0  0  0  0  0  0  0  0  0  0  0
   -0.1108   -4.6448    1.3272 H   0  0  0  0  0  0  0  0  0  0  0  0
   -0.1537   -0.9172    3.8309 H   0  0  0  0  0  0  0  0  0  0  0  0
    0.4438    1.1500    0.5707 C   0  0  0  0  0  0  0  0  0  0  0  0
    0.4438    1.1500   -0.9330 C   0  0  0  0  0  0  0  0  0  0  0  0
    0.4438    2.3443   -1.6471 C   0  0  0  0  0  0  0  0  0  0  0  0
    0.4743    2.3477   -3.0331 C   0  0  0  0  0  0  0  0  0  0  0  0
    0.5038    1.1507   -3.7321 C   0  0  0  0  0  0  0  0  0  0  0  0
    0.5007   -0.0467   -3.0331 C   0  0  0  0  0  0  0  0  0  0  0  0
    0.4702   -0.0440   -1.6471 C   0  0  0  0  0  0  0  0  0  0  0  0
   -0.1461    0.0833    1.0468 H   0  0  0  0  0  0  0  0  0  0  0  0
    1.4660    1.1613    0.9575 H   0  0  0  0  0  0  0  0  0  0  0  0
   -0.0672    2.0279    0.9674 H   0  0  0  0  0  0  0  0  0  0  0  0
    0.4172    3.2854   -1.1093 H   0  0  0  0  0  0  0  0  0  0  0  0
    0.4716    3.2889   -3.5688 H   0  0  0  0  0  0  0  0  0  0  0  0
    0.5250    1.1509   -4.8145 H   0  0  0  0  0  0  0  0  0  0  0  0
    0.5188   -0.9877   -3.5688 H   0  0  0  0  0  0  0  0  0  0  0  0
    0.4643   -0.9855   -1.1093 H   0  0  0  0  0  0  0  0  0  0  0  0
  1  2  1  0
  1  6  1  0
  1  7  1  0
  1  8  1  0
  2  3  1  0
  2  5  1  0
  3  4  3  0
  4  9  1  0
  5 10  1  0
 11 12  1  0
 11 18  1  0
 11 19  1  0
 11 20  1  0
 12 13  2  0
 12 17  1  0
 13 14  1  0
 13 21  1  0
 14 15  2  0
 14 22  1  0
 15 16  1  0
 15 23  1  0
 16 17  2  0
 16 24  1  0
 17 25  1  0
M  RAD  1   2   2
M  END
>  <reaction>  (10) 
rxn_1468

>  <mol_properties>  (10) 
{"1": {"label": "*1", "atom_type": "Cs"}, "4": {"label": "*0", "atom_type": "S2s"}, "10": {"label": "*3", "atom_type": "Cd"}, "11": {"label": "*4", "atom_type": "Cd"}, "17": {"label": "*2", "atom_type": "H0"}}

>  <type>  (10) 
unop_6

>  <geom_source>  (10) 
Heuristics

$$$$

     RDKit          3D

 25 24  0  0  0  0  0  0  0  0999 V2000
   -1.9836   -0.4863    2.4776 C   0  0  0  0  0  0  0  0  0  0  0  0
   -0.7906   -0.9116    1.6228 C   0  0  0  0  0  3  0  0  0  0  0  0
   -0.9128   -2.2897    1.1651 C   0  0  0  0  0  0  0  0  0  0  0  0
   -1.0405   -3.4267    0.8121 C   0  0  0  0  0  0  0  0  0  0  0  0
    0.8140   -0.6248    2.4587 S   0  0  0  0  0  0  0  0  0  0  0  0
   -2.0454   -1.0995    3.3772 H   0  0  0  0  0  0  0  0  0  0  0  0
   -1.8794    0.5569    2.7731 H   0  0  0  0  0  0  0  0  0  0  0  0
   -2.9109   -0.6094    1.9156 H   0  0  0  0  0  0  0  0  0  0  0  0
   -1.1539   -4.4365    0.4986 H   0  0  0  0  0  0  0  0  0  0  0  0
    0.6353   -1.5370    3.4237 H   0  0  0  0  0  0  0  0  0  0  0  0
    0.3903    1.2240    0.6697 C   0  0  0  0  0  0  0  0  0  0  0  0
    0.3903    1.2240   -0.8340 C   0  0  0  0  0  0  0  0  0  0  0  0
    0.3903    2.4183   -1.5480 C   0  0  0  0  0  0  0  0  0  0  0  0
    0.4208    2.4216   -2.9340 C   0  0  0  0  0  0  0  0  0  0  0  0
    0.4503    1.2246   -3.6331 C   0  0  0  0  0  0  0  0  0  0  0  0
    0.4472    0.0273   -2.9340 C   0  0  0  0  0  0  0  0  0  0  0  0
    0.4167    0.0299   -1.5480 C   0  0  0  0  0  0  0  0  0  0  0  0
   -0.1996    0.1572    1.1458 H   0  0  0  0  0  0  0  0  0  0  0  0
    1.4125    1.2352    1.0565 H   0  0  0  0  0  0  0  0  0  0  0  0
   -0.1207    2.1019    1.0665 H   0  0  0  0  0  0  0  0  0  0  0  0
    0.3637    3.3594   -1.0102 H   0  0  0  0  0  0  0  0  0  0  0  0
    0.4181    3.3629   -3.4697 H   0  0  0  0  0  0  0  0  0  0  0  0
    0.4715    1.2249   -4.7154 H   0  0  0  0  0  0  0  0  0  0  0  0
    0.4653   -0.9138   -3.4697 H   0  0  0  0  0  0  0  0  0  0  0  0
    0.4108   -0.9115   -1.0102 H   0  0  0  0  0  0  0  0  0  0  0  0
  1  2  1  0
  1  6  1  0
  1  7  1  0
  1  8  1  0
  2  3  1  0
  2  5  1  0
  3  4  3  0
  4  9  1  0
  5 10  1  0
 11 12  1  0
 11 18  1  0
 11 19  1  0
 11 20  1  0
 12 13  2  0
 12 17  1  0
 13 14  1  0
 13 21  1  0
 14 15  2  0
 14 22  1  0
 15 16  1  0
 15 23  1  0
 16 17  2  0
 16 24  1  0
 17 25  1  0
M  RAD  1   2   2
M  END
>  <reaction>  (11) 
rxn_1468

>  <mol_properties>  (11) 
{"1": {"label": "*1", "atom_type": "Cs"}, "4": {"label": "*0", "atom_type": "S2s"}, "10": {"label": "*3", "atom_type": "Cd"}, "11": {"label": "*4", "atom_type": "Cd"}, "17": {"label": "*2", "atom_type": "H0"}}

>  <type>  (11) 
unop_7

>  <geom_source>  (11) 
Heuristics

$$$$

     RDKit          3D

 25 24  0  0  0  0  0  0  0  0999 V2000
    0.6279   -2.1869    1.7532 C   0  0  0  0  0  0  0  0  0  0  0  0
   -0.4087   -1.0794    1.5706 C   0  0  0  0  0  3  0  0  0  0  0  0
   -0.3928   -0.1313    2.6771 C   0  0  0  0  0  0  0  0  0  0  0  0
   -0.3589    0.6250    3.6048 C   0  0  0  0  0  0  0  0  0  0  0  0
   -2.0943   -1.7327    1.2744 S   0  0  0  0  0  0  0  0  0  0  0  0
    0.4118   -2.7664    2.6513 H   0  0  0  0  0  0  0  0  0  0  0  0
    0.6153   -2.8568    0.8944 H   0  0  0  0  0  0  0  0  0  0  0  0
    1.6247   -1.7548    1.8569 H   0  0  0  0  0  0  0  0  0  0  0  0
   -0.3288    1.2966    4.4288 H   0  0  0  0  0  0  0  0  0  0  0  0
   -2.2539   -2.2683    2.4921 H   0  0  0  0  0  0  0  0  0  0  0  0
    0.7723    1.0562    0.6175 C   0  0  0  0  0  0  0  0  0  0  0  0
    0.7723    1.0562   -0.8862 C   0  0  0  0  0  0  0  0  0  0  0  0
    0.7723    2.2506   -1.6003 C   0  0  0  0  0  0  0  0  0  0  0  0
    0.8027    2.2539   -2.9863 C   0  0  0  0  0  0  0  0  0  0  0  0
    0.8322    1.0569   -3.6853 C   0  0  0  0  0  0  0  0  0  0  0  0
    0.8291   -0.1405   -2.9863 C   0  0  0  0  0  0  0  0  0  0  0  0
    0.7986   -0.1378   -1.6003 C   0  0  0  0  0  0  0  0  0  0  0  0
    0.1824   -0.0105    1.0936 H   0  0  0  0  0  0  0  0  0  0  0  0
    1.7945    1.0675    1.0043 H   0  0  0  0  0  0  0  0  0  0  0  0
    0.2612    1.9341    1.0142 H   0  0  0  0  0  0  0  0  0  0  0  0
    0.7456    3.1916   -1.0624 H   0  0  0  0  0  0  0  0  0  0  0  0
    0.8001    3.1951   -3.5220 H   0  0  0  0  0  0  0  0  0  0  0  0
    0.8534    1.0571   -4.7676 H   0  0  0  0  0  0  0  0  0  0  0  0
    0.8472   -1.0815   -3.5220 H   0  0  0  0  0  0  0  0  0  0  0  0
    0.7927   -1.0793   -1.0624 H   0  0  0  0  0  0  0  0  0  0  0  0
  1  2  1  0
  1  6  1  0
  1  7  1  0
  1  8  1  0
  2  3  1  0
  2  5  1  0
  3  4  3  0
  4  9  1  0
  5 10  1  0
 11 12  1  0
 11 18  1  0
 11 19  1  0
 11 20  1  0
 12 13  2  0
 12 17  1  0
 13 14  1  0
 13 21  1  0
 14 15  2  0
 14 22  1  0
 15 16  1  0
 15 23  1  0
 16 17  2  0
 16 24  1  0
 17 25  1  0
M  RAD  1   2   2
M  END
>  <reaction>  (12) 
rxn_1468

>  <mol_properties>  (12) 
{"1": {"label": "*1", "atom_type": "Cs"}, "4": {"label": "*0", "atom_type": "S2s"}, "10": {"label": "*3", "atom_type": "Cd"}, "11": {"label": "*4", "atom_type": "Cd"}, "17": {"label": "*2", "atom_type": "H0"}}

>  <type>  (12) 
unop_8

>  <geom_source>  (12) 
Heuristics

$$$$

     RDKit          3D

 25 24  0  0  0  0  0  0  0  0999 V2000
   -1.6331   -1.4865    0.5113 C   0  0  0  0  0  0  0  0  0  0  0  0
   -0.5553   -1.0286    1.4929 C   0  0  0  0  0  3  0  0  0  0  0  0
    0.1993   -2.1511    2.0352 C   0  0  0  0  0  0  0  0  0  0  0  0
    0.7947   -3.0959    2.4671 C   0  0  0  0  0  0  0  0  0  0  0  0
   -1.2221    0.0353    2.8268 S   0  0  0  0  0  0  0  0  0  0  0  0
   -2.3600   -2.1248    1.0146 H   0  0  0  0  0  0  0  0  0  0  0  0
   -2.1537   -0.6237    0.0978 H   0  0  0  0  0  0  0  0  0  0  0  0
   -1.1820   -2.0575   -0.3020 H   0  0  0  0  0  0  0  0  0  0  0  0
    1.3236   -3.9350    2.8506 H   0  0  0  0  0  0  0  0  0  0  0  0
   -1.9555   -0.9194    3.4152 H   0  0  0  0  0  0  0  0  0  0  0  0
    0.6256    1.1070    0.5398 C   0  0  0  0  0  0  0  0  0  0  0  0
    0.6256    1.1070   -0.9639 C   0  0  0  0  0  0  0  0  0  0  0  0
    0.6256    2.3013   -1.6780 C   0  0  0  0  0  0  0  0  0  0  0  0
    0.6561    2.3046   -3.0640 C   0  0  0  0  0  0  0  0  0  0  0  0
    0.6856    1.1076   -3.7630 C   0  0  0  0  0  0  0  0  0  0  0  0
    0.6825   -0.0898   -3.0640 C   0  0  0  0  0  0  0  0  0  0  0  0
    0.6520   -0.0871   -1.6780 C   0  0  0  0  0  0  0  0  0  0  0  0
    0.0358    0.0402    1.0159 H   0  0  0  0  0  0  0  0  0  0  0  0
    1.6479    1.1182    0.9266 H   0  0  0  0  0  0  0  0  0  0  0  0
    0.1146    1.9848    0.9365 H   0  0  0  0  0  0  0  0  0  0  0  0
    0.5990    3.2424   -1.1402 H   0  0  0  0  0  0  0  0  0  0  0  0
    0.6535    3.2458   -3.5997 H   0  0  0  0  0  0  0  0  0  0  0  0
    0.7068    1.1079   -4.8454 H   0  0  0  0  0  0  0  0  0  0  0  0
    0.7006   -1.0308   -3.5997 H   0  0  0  0  0  0  0  0  0  0  0  0
    0.6461   -1.0285   -1.1402 H   0  0  0  0  0  0  0  0  0  0  0  0
  1  2  1  0
  1  6  1  0
  1  7  1  0
  1  8  1  0
  2  3  1  0
  2  5  1  0
  3  4  3  0
  4  9  1  0
  5 10  1  0
 11 12  1  0
 11 18  1  0
 11 19  1  0
 11 20  1  0
 12 13  2  0
 12 17  1  0
 13 14  1  0
 13 21  1  0
 14 15  2  0
 14 22  1  0
 15 16  1  0
 15 23  1  0
 16 17  2  0
 16 24  1  0
 17 25  1  0
M  RAD  1   2   2
M  END
>  <reaction>  (13) 
rxn_1468

>  <mol_properties>  (13) 
{"1": {"label": "*1", "atom_type": "Cs"}, "4": {"label": "*0", "atom_type": "S2s"}, "10": {"label": "*3", "atom_type": "Cd"}, "11": {"label": "*4", "atom_type": "Cd"}, "17": {"label": "*2", "atom_type": "H0"}}

>  <type>  (13) 
unop_9

>  <geom_source>  (13) 
Heuristics

$$$$

     RDKit          3D

 25 24  0  0  0  0  0  0  0  0999 V2000
    0.2678   -2.2912    1.0340 C   0  0  0  0  0  0  0  0  0  0  0  0
   -0.4726   -1.0475    1.5235 C   0  0  0  0  0  3  0  0  0  0  0  0
    0.0871   -0.5353    2.7676 C   0  0  0  0  0  0  0  0  0  0  0  0
    0.5660   -0.1449    3.7933 C   0  0  0  0  0  0  0  0  0  0  0  0
   -2.2801   -1.3116    1.6625 S   0  0  0  0  0  0  0  0  0  0  0  0
    0.1778   -3.0987    1.7612 H   0  0  0  0  0  0  0  0  0  0  0  0
   -0.1508   -2.6271    0.0861 H   0  0  0  0  0  0  0  0  0  0  0  0
    1.3276   -2.0686    0.8997 H   0  0  0  0  0  0  0  0  0  0  0  0
    0.9913    0.2018    4.7042 H   0  0  0  0  0  0  0  0  0  0  0  0
   -2.2167   -2.1929    2.6697 H   0  0  0  0  0  0  0  0  0  0  0  0
    0.7083    1.0881    0.5704 C   0  0  0  0  0  0  0  0  0  0  0  0
    0.7083    1.0881   -0.9334 C   0  0  0  0  0  0  0  0  0  0  0  0
    0.7083    2.2825   -1.6474 C   0  0  0  0  0  0  0  0  0  0  0  0
    0.7387    2.2858   -3.0334 C   0  0  0  0  0  0  0  0  0  0  0  0
    0.7683    1.0888   -3.7324 C   0  0  0  0  0  0  0  0  0  0  0  0
    0.7652   -0.1086   -3.0334 C   0  0  0  0  0  0  0  0  0  0  0  0
    0.7346   -0.1059   -1.6474 C   0  0  0  0  0  0  0  0  0  0  0  0
    0.1184    0.0214    1.0465 H   0  0  0  0  0  0  0  0  0  0  0  0
    1.7305    1.0994    0.9571 H   0  0  0  0  0  0  0  0  0  0  0  0
    0.1973    1.9660    0.9671 H   0  0  0  0  0  0  0  0  0  0  0  0
    0.6817    3.2236   -1.1096 H   0  0  0  0  0  0  0  0  0  0  0  0
    0.7361    3.2270   -3.5691 H   0  0  0  0  0  0  0  0  0  0  0  0
    0.7894    1.0890   -4.8148 H   0  0  0  0  0  0  0  0  0  0  0  0
    0.7833   -1.0496   -3.5691 H   0  0  0  0  0  0  0  0  0  0  0  0
    0.7288   -1.0474   -1.1096 H   0  0  0  0  0  0  0  0  0  0  0  0
  1  2  1  0
  1  6  1  0
  1  7  1  0
  1  8  1  0
  2  3  1  0
  2  5  1  0
  3  4  3  0
  4  9  1  0
  5 10  1  0
 11 12  1  0
 11 18  1  0
 11 19  1  0
 11 20  1  0
 12 13  2  0
 12 17  1  0
 13 14  1  0
 13 21  1  0
 14 15  2  0
 14 22  1  0
 15 16  1  0
 15 23  1  0
 16 17  2  0
 16 24  1  0
 17 25  1  0
M  RAD  1   2   2
M  END
>  <reaction>  (14) 
rxn_1468

>  <mol_properties>  (14) 
{"1": {"label": "*1", "atom_type": "Cs"}, "4": {"label": "*0", "atom_type": "S2s"}, "10": {"label": "*3", "atom_type": "Cd"}, "11": {"label": "*4", "atom_type": "Cd"}, "17": {"label": "*2", "atom_type": "H0"}}

>  <type>  (14) 
unop_10

>  <geom_source>  (14) 
Heuristics

$$$$

     RDKit          3D

 25 24  0  0  0  0  0  0  0  0999 V2000
   -1.3752   -0.4982    3.1094 C   0  0  0  0  0  0  0  0  0  0  0  0
   -0.7375   -0.8360    1.7626 C   0  0  0  0  0  3  0  0  0  0  0  0
   -1.5016   -1.8414    1.0355 C   0  0  0  0  0  0  0  0  0  0  0  0
   -2.1486   -2.6740    0.4680 C   0  0  0  0  0  0  0  0  0  0  0  0
    1.0234   -1.3172    1.9168 S   0  0  0  0  0  0  0  0  0  0  0  0
   -1.4014   -1.3801    3.7502 H   0  0  0  0  0  0  0  0  0  0  0  0
   -0.8012    0.2802    3.6106 H   0  0  0  0  0  0  0  0  0  0  0  0
   -2.3995   -0.1512    2.9632 H   0  0  0  0  0  0  0  0  0  0  0  0
   -2.7232   -3.4134   -0.0360 H   0  0  0  0  0  0  0  0  0  0  0  0
    0.7998   -2.4596    2.5802 H   0  0  0  0  0  0  0  0  0  0  0  0
    0.4435    1.2996    0.8095 C   0  0  0  0  0  0  0  0  0  0  0  0
    0.4435    1.2996   -0.6942 C   0  0  0  0  0  0  0  0  0  0  0  0
    0.4435    2.4939   -1.4083 C   0  0  0  0  0  0  0  0  0  0  0  0
    0.4739    2.4972   -2.7943 C   0  0  0  0  0  0  0  0  0  0  0  0
    0.5035    1.3002   -3.4933 C   0  0  0  0  0  0  0  0  0  0  0  0
    0.5003    0.1029   -2.7943 C   0  0  0  0  0  0  0  0  0  0  0  0
    0.4698    0.1055   -1.4083 C   0  0  0  0  0  0  0  0  0  0  0  0
   -0.1464    0.2328    1.2856 H   0  0  0  0  0  0  0  0  0  0  0  0
    1.4657    1.3108    1.1963 H   0  0  0  0  0  0  0  0  0  0  0  0
   -0.0675    2.1775    1.2062 H   0  0  0  0  0  0  0  0  0  0  0  0
    0.4169    3.4350   -0.8705 H   0  0  0  0  0  0  0  0  0  0  0  0
    0.4713    3.4384   -3.3300 H   0  0  0  0  0  0  0  0  0  0  0  0
    0.5246    1.3005   -4.5757 H   0  0  0  0  0  0  0  0  0  0  0  0
    0.5184   -0.8382   -3.3300 H   0  0  0  0  0  0  0  0  0  0  0  0
    0.4640   -0.8359   -0.8705 H   0  0  0  0  0  0  0  0  0  0  0  0
  1  2  1  0
  1  6  1  0
  1  7  1  0
  1  8  1  0
  2  3  1  0
  2  5  1  0
  3  4  3  0
  4  9  1  0
  5 10  1  0
 11 12  1  0
 11 18  1  0
 11 19  1  0
 11 20  1  0
 12 13  2  0
 12 17  1  0
 13 14  1  0
 13 21  1  0
 14 15  2  0
 14 22  1  0
 15 16  1  0
 15 23  1  0
 16 17  2  0
 16 24  1  0
 17 25  1  0
M  RAD  1   2   2
M  END
>  <reaction>  (15) 
rxn_1468

>  <mol_properties>  (15) 
{"1": {"label": "*1", "atom_type": "Cs"}, "4": {"label": "*0", "atom_type": "S2s"}, "10": {"label": "*3", "atom_type": "Cd"}, "11": {"label": "*4", "atom_type": "Cd"}, "17": {"label": "*2", "atom_type": "H0"}}

>  <type>  (15) 
unop_11

>  <geom_source>  (15) 
Heuristics

$$$$

     RDKit          3D

 25 24  0  0  0  0  0  0  0  0999 V2000
   -0.9981   -1.8768    0.3510 C   0  0  0  0  0  0  0  0  0  0  0  0
   -0.5178   -1.0082    1.5126 C   0  0  0  0  0  3  0  0  0  0  0  0
    0.4297   -1.7147    2.3650 C   0  0  0  0  0  0  0  0  0  0  0  0
    1.1995   -2.3260    3.0487 C   0  0  0  0  0  0  0  0  0  0  0  0
   -1.9008   -0.3073    2.4882 S   0  0  0  0  0  0  0  0  0  0  0  0
   -1.5245   -2.7555    0.7250 H   0  0  0  0  0  0  0  0  0  0  0  0
   -1.6755   -1.3091   -0.2857 H   0  0  0  0  0  0  0  0  0  0  0  0
   -0.1467   -2.2150   -0.2420 H   0  0  0  0  0  0  0  0  0  0  0  0
    1.8832   -2.8689    3.6560 H   0  0  0  0  0  0  0  0  0  0  0  0
   -2.3322   -1.4761    2.9811 H   0  0  0  0  0  0  0  0  0  0  0  0
    0.6632    1.1274    0.5595 C   0  0  0  0  0  0  0  0  0  0  0  0
    0.6632    1.1274   -0.9442 C   0  0  0  0  0  0  0  0  0  0  0  0
    0.6632    2.3217   -1.6582 C   0  0  0  0  0  0  0  0  0  0  0  0
    0.6936    2.3251   -3.0442 C   0  0  0  0  0  0  0  0  0  0  0  0
    0.7232    1.1281   -3.7433 C   0  0  0  0  0  0  0  0  0  0  0  0
    0.7200   -0.0693   -3.0442 C   0  0  0  0  0  0  0  0  0  0  0  0
    0.6895   -0.0666   -1.6582 C   0  0  0  0  0  0  0  0  0  0  0  0
    0.0733    0.0607    1.0356 H   0  0  0  0  0  0  0  0  0  0  0  0
    1.6854    1.1387    0.9463 H   0  0  0  0  0  0  0  0  0  0  0  0
    0.1522    2.0053    0.9563 H   0  0  0  0  0  0  0  0  0  0  0  0
    0.6366    3.2628   -1.1204 H   0  0  0  0  0  0  0  0  0  0  0  0
    0.6910    3.2663   -3.5800 H   0  0  0  0  0  0  0  0  0  0  0  0
    0.7443    1.1283   -4.8256 H   0  0  0  0  0  0  0  0  0  0  0  0
    0.7382   -1.0103   -3.5800 H   0  0  0  0  0  0  0  0  0  0  0  0
    0.6837   -1.0081   -1.1204 H   0  0  0  0  0  0  0  0  0  0  0  0
  1  2  1  0
  1  6  1  0
  1  7  1  0
  1  8  1  0
  2  3  1  0
  2  5  1  0
  3  4  3  0
  4  9  1  0
  5 10  1  0
 11 12  1  0
 11 18  1  0
 11 19  1  0
 11 20  1  0
 12 13  2  0
 12 17  1  0
 13 14  1  0
 13 21  1  0
 14 15  2  0
 14 22  1  0
 15 16  1  0
 15 23  1  0
 16 17  2  0
 16 24  1  0
 17 25  1  0
M  RAD  1   2   2
M  END
>  <reaction>  (16) 
rxn_1468

>  <mol_properties>  (16) 
{"1": {"label": "*1", "atom_type": "Cs"}, "4": {"label": "*0", "atom_type": "S2s"}, "10": {"label": "*3", "atom_type": "Cd"}, "11": {"label": "*4", "atom_type": "Cd"}, "17": {"label": "*2", "atom_type": "H0"}}

>  <type>  (16) 
unop_12

>  <geom_source>  (16) 
Heuristics

$$$$

     RDKit          3D

 25 24  0  0  0  0  0  0  0  0999 V2000
   -2.5644   -1.0294    1.5710 S   0  0  0  0  0  0  0  0  0  0  0  0
   -2.2717    0.0851    0.1627 C   0  0  0  0  0  3  0  0  0  0  0  0
   -3.4040   -0.0342   -0.8529 C   0  0  0  0  0  0  0  0  0  0  0  0
    1.2310   -0.5643   -0.2732 C   0  0  0  0  0  0  0  0  0  0  0  0
    1.3240    0.4511    0.6882 C   0  0  0  0  0  0  0  0  0  0  0  0
    2.3985   -1.0813   -0.8545 C   0  0  0  0  0  0  0  0  0  0  0  0
    2.5767    0.9463    1.0658 C   0  0  0  0  0  0  0  0  0  0  0  0
    3.7387    0.4290    0.4847 C   0  0  0  0  0  0  0  0  0  0  0  0
    3.6496   -0.5842   -0.4749 C   0  0  0  0  0  0  0  0  0  0  0  0
   -0.1090   -1.0884   -0.6718 C   0  0  0  0  0  0  0  0  0  0  0  0
   -2.1713    1.4639    0.6543 C   0  0  0  0  0  0  0  0  0  0  0  0
   -2.0875    2.5972    1.0574 C   0  0  0  0  0  0  0  0  0  0  0  0
   -1.0952   -0.2544   -0.4353 H   0  0  0  0  0  0  0  0  0  0  0  0
   -3.2181    0.6448   -1.7125 H   0  0  0  0  0  0  0  0  0  0  0  0
   -3.4564   -1.0742   -1.2380 H   0  0  0  0  0  0  0  0  0  0  0  0
   -4.3789    0.2273   -0.3872 H   0  0  0  0  0  0  0  0  0  0  0  0
    0.4294    0.8578    1.1436 H   0  0  0  0  0  0  0  0  0  0  0  0
    2.6467    1.7306    1.8084 H   0  0  0  0  0  0  0  0  0  0  0  0
    2.3386   -1.8662   -1.5985 H   0  0  0  0  0  0  0  0  0  0  0  0
    4.7073    0.8130    0.7777 H   0  0  0  0  0  0  0  0  0  0  0  0
    4.5495   -0.9840   -0.9241 H   0  0  0  0  0  0  0  0  0  0  0  0
   -0.2794   -0.9189   -1.7557 H   0  0  0  0  0  0  0  0  0  0  0  0
   -0.1802   -2.1722   -0.4416 H   0  0  0  0  0  0  0  0  0  0  0  0
   -2.3597   -2.1862    0.7950 H   0  0  0  0  0  0  0  0  0  0  0  0
   -2.0141    3.5918    1.4111 H   0  0  0  0  0  0  0  0  0  0  0  0
  1  2  1  0
  1 24  1  0
  2  3  1  0
  2 11  1  0
  3 14  1  0
  3 15  1  0
  3 16  1  0
  4 10  1  0
  4  5  2  0
  4  6  1  0
  5  7  1  0
  5 17  1  0
  6  9  2  0
  6 19  1  0
  7  8  2  0
  7 18  1  0
  8  9  1  0
  8 20  1  0
  9 21  1  0
 10 13  1  0
 10 22  1  0
 10 23  1  0
 11 12  3  0
 12 25  1  0
M  RAD  1   2   2
M  END
>  <reaction>  (17) 
rxn_1468

>  <mol_properties>  (17) 
{"1": {"label": "*1", "atom_type": "Cs"}, "4": {"label": "*0", "atom_type": "S2s"}, "10": {"label": "*3", "atom_type": "Cd"}, "11": {"label": "*4", "atom_type": "Cd"}, "17": {"label": "*2", "atom_type": "H0"}}

>  <type>  (17) 
unop_13

>  <geom_source>  (17) 
AutoTST

$$$$
