
     RDKit          3D

  7  6  0  0  0  0  0  0  0  0999 V2000
    1.2985   -0.0065   -0.2721 C   0  0  0  0  0  0  0  0  0  0  0  0
    0.0000    0.0000   -0.2926 C   0  0  0  0  0  0  0  0  0  0  0  0
   -1.2985    0.0065   -0.3130 C   0  0  0  0  0  0  0  0  0  0  0  0
    1.8444   -0.7551    0.2895 H   0  0  0  0  0  0  0  0  0  0  0  0
    1.8693    0.7364   -0.8162 H   0  0  0  0  0  0  0  0  0  0  0  0
   -1.8658    0.5623    0.4239 H   0  0  0  0  0  0  0  0  0  0  0  0
   -1.8479   -0.5437   -1.0675 H   0  0  0  0  0  0  0  0  0  0  0  0
  1  2  2  0
  1  4  1  0
  1  5  1  0
  2  3  2  0
  3  6  1  0
  3  7  1  0
M  END
>  <reaction>  (1) 
rxn_1834

>  <mol_properties>  (1) 
{"0": {"label": "donator", "atom_type": "Cd"}, "3": {"label": "d_hydrogen", "atom_type": "H0"}}

>  <type>  (1) 
r1h

$$$$

     RDKit          3D

  6  5  0  0  0  0  0  0  0  0999 V2000
   -0.5027    0.1226    0.0381 C   0  0  0  0  0  0  0  0  0  0  0  0
    0.9546    0.1077    0.2161 C   0  0  0  0  0  3  0  0  0  0  0  0
    2.2010   -0.6803   -0.2886 S   0  0  0  0  0  0  0  0  0  0  0  0
   -0.8605   -0.6429   -0.6574 H   0  0  0  0  0  0  0  0  0  0  0  0
   -0.8093    1.1092   -0.3181 H   0  0  0  0  0  0  0  0  0  0  0  0
   -0.9831   -0.0162    1.0099 H   0  0  0  0  0  0  0  0  0  0  0  0
  1  2  1  0
  1  4  1  0
  1  5  1  0
  1  6  1  0
  2  3  2  0
M  RAD  1   2   2
M  END
>  <reaction>  (2) 
rxn_1834

>  <mol_properties>  (2) 
{"1": {"label": "acceptor", "atom_type": "CS"}}

>  <type>  (2) 
r2

$$$$

     RDKit          3D

  7  6  0  0  0  0  0  0  0  0999 V2000
   -0.6782    0.0507    0.0301 C   0  0  0  0  0  0  0  0  0  0  0  0
    0.8092    0.0996    0.0213 C   0  0  0  0  0  0  0  0  0  0  0  0
    1.7473    0.7521    1.1507 S   0  0  0  0  0  0  0  0  0  0  0  0
   -1.0667    0.5456   -0.8653 H   0  0  0  0  0  0  0  0  0  0  0  0
   -1.0112   -0.9904   -0.0239 H   0  0  0  0  0  0  0  0  0  0  0  0
   -1.0920    0.5225    0.9188 H   0  0  0  0  0  0  0  0  0  0  0  0
    1.2740   -0.3620   -0.8520 H   0  0  0  0  0  0  0  0  0  0  0  0
  1  2  1  0
  1  4  1  0
  1  5  1  0
  1  6  1  0
  2  3  2  0
  2  7  1  0
M  END
>  <reaction>  (3) 
rxn_1834

>  <mol_properties>  (3) 
{"0": {"label": "a_hydrogen", "atom_type": "H0"}, "2": {"label": "acceptor", "atom_type": "CS"}}

>  <type>  (3) 
r2h

$$$$

     RDKit          3D

 13 11  0  0  0  0  0  0  0  0999 V2000
    0.8293    1.3553   -0.6167 C   0  0  0  0  0  0  0  0  0  0  0  0
    0.8720    1.1560   -1.8715 C   0  0  0  0  0  0  0  0  0  0  0  0
    0.8712    0.8533   -3.1537 C   0  0  0  0  0  3  0  0  0  0  0  0
    0.2959    0.3490    0.1539 H   0  0  0  0  0  0  0  0  0  0  0  0
    1.1338    2.1799    0.0087 H   0  0  0  0  0  0  0  0  0  0  0  0
    0.0346    1.1184   -3.7881 H   0  0  0  0  0  0  0  0  0  0  0  0
    1.7207    0.3609   -3.6103 H   0  0  0  0  0  0  0  0  0  0  0  0
   -0.5840   -1.6958   -0.2143 C   0  0  0  0  0  0  0  0  0  0  0  0
   -0.2276   -0.6674    0.7872 C   0  0  0  0  0  0  0  0  0  0  0  0
   -0.3683   -0.6111    2.3620 S   0  0  0  0  0  0  0  0  0  0  0  0
   -1.0297   -2.5818    0.2369 H   0  0  0  0  0  0  0  0  0  0  0  0
    0.3136   -1.9711   -0.7753 H   0  0  0  0  0  0  0  0  0  0  0  0
   -1.2729   -1.2583   -0.9425 H   0  0  0  0  0  0  0  0  0  0  0  0
  1  2  3  0
  1  5  1  0
  2  3  1  0
  3  6  1  0
  3  7  1  0
  4  9  1  0
  8  9  1  0
  8 11  1  0
  8 12  1  0
  8 13  1  0
  9 10  2  0
M  RAD  1   3   2
M  END
>  <reaction>  (4) 
rxn_1834

>  <mol_properties>  (4) 
{"0": {"label": "*3", "atom_type": "Ct"}, "1": {"label": "*4", "atom_type": "Ct"}, "3": {"label": "*2", "atom_type": "H0"}, "8": {"label": "*1", "atom_type": "CS"}, "9": {"label": "*0", "atom_type": "S2d"}}

>  <type>  (4) 
ts

$$$$

     RDKit          3D

 13 11  0  0  0  0  0  0  0  0999 V2000
    1.1273    1.0067   -0.5306 C   0  0  0  0  0  0  0  0  0  0  0  0
    1.1273    1.0067   -1.8293 C   0  0  0  0  0  0  0  0  0  0  0  0
    1.1273    1.0067   -3.1280 C   0  0  0  0  0  0  0  0  0  0  0  0
    0.4637    0.1118    0.1395 H   0  0  0  0  0  0  0  0  0  0  0  0
    1.6803    1.7525    0.0278 H   0  0  0  0  0  0  0  0  0  0  0  0
    0.3816    1.5597   -3.6864 H   0  0  0  0  0  0  0  0  0  0  0  0
    1.8731    0.4537   -3.6864 H   0  0  0  0  0  0  0  0  0  0  0  0
    0.6277   -1.6343    1.7138 C   0  0  0  0  0  0  0  0  0  0  0  0
   -0.2050   -0.7899    0.8147 C   0  0  0  0  0  3  0  0  0  0  0  0
   -1.6478   -0.1709    1.1559 S   0  0  0  0  0  0  0  0  0  0  0  0
    0.1428   -1.8017    2.6732 H   0  0  0  0  0  0  0  0  0  0  0  0
    1.5996   -1.1559    1.8700 H   0  0  0  0  0  0  0  0  0  0  0  0
    0.8309   -2.5949    1.2305 H   0  0  0  0  0  0  0  0  0  0  0  0
  1  2  2  0
  1  4  1  0
  1  5  1  0
  2  3  2  0
  3  6  1  0
  3  7  1  0
  8  9  1  0
  8 11  1  0
  8 12  1  0
  8 13  1  0
  9 10  2  0
M  RAD  1   9   2
M  END
>  <reaction>  (5) 
rxn_1834

>  <mol_properties>  (5) 
{"0": {"label": "*3", "atom_type": "Ct"}, "1": {"label": "*4", "atom_type": "Ct"}, "3": {"label": "*2", "atom_type": "H0"}, "8": {"label": "*1", "atom_type": "CS"}, "9": {"label": "*0", "atom_type": "S2d"}}

>  <type>  (5) 
unop_1

>  <geom_source>  (5) 
Heuristics

$$$$

     RDKit          3D

 13 11  0  0  0  0  0  0  0  0999 V2000
    0.8866    1.1893   -0.6733 C   0  0  0  0  0  0  0  0  0  0  0  0
    0.8866    1.1893   -1.9720 C   0  0  0  0  0  0  0  0  0  0  0  0
    0.8866    1.1893   -3.2707 C   0  0  0  0  0  0  0  0  0  0  0  0
    0.2230    0.2944   -0.0032 H   0  0  0  0  0  0  0  0  0  0  0  0
    1.4396    1.9351   -0.1149 H   0  0  0  0  0  0  0  0  0  0  0  0
    0.1408    1.7423   -3.8291 H   0  0  0  0  0  0  0  0  0  0  0  0
    1.6324    0.6363   -3.8291 H   0  0  0  0  0  0  0  0  0  0  0  0
   -0.5782   -1.9219   -0.0128 C   0  0  0  0  0  0  0  0  0  0  0  0
   -0.4457   -0.6073    0.6720 C   0  0  0  0  0  3  0  0  0  0  0  0
   -0.6650   -0.3228    2.2380 S   0  0  0  0  0  0  0  0  0  0  0  0
   -0.8517   -2.7129    0.6822 H   0  0  0  0  0  0  0  0  0  0  0  0
    0.3649   -2.1747   -0.5070 H   0  0  0  0  0  0  0  0  0  0  0  0
   -1.3311   -1.8491   -0.8038 H   0  0  0  0  0  0  0  0  0  0  0  0
  1  2  2  0
  1  4  1  0
  1  5  1  0
  2  3  2  0
  3  6  1  0
  3  7  1  0
  8  9  1  0
  8 11  1  0
  8 12  1  0
  8 13  1  0
  9 10  2  0
M  RAD  1   9   2
M  END
>  <reaction>  (6) 
rxn_1834

>  <mol_properties>  (6) 
{"0": {"label": "*3", "atom_type": "Ct"}, "1": {"label": "*4", "atom_type": "Ct"}, "3": {"label": "*2", "atom_type": "H0"}, "8": {"label": "*1", "atom_type": "CS"}, "9": {"label": "*0", "atom_type": "S2d"}}

>  <type>  (6) 
unop_2

>  <geom_source>  (6) 
Heuristics

$$$$

     RDKit          3D

 13 11  0  0  0  0  0  0  0  0999 V2000
    1.2042    1.1328   -0.3644 C   0  0  0  0  0  0  0  0  0  0  0  0
    1.2042    1.1328   -1.6631 C   0  0  0  0  0  0  0  0  0  0  0  0
    1.2042    1.1328   -2.9617 C   0  0  0  0  0  0  0  0  0  0  0  0
    0.5406    0.2379    0.3057 H   0  0  0  0  0  0  0  0  0  0  0  0
    1.7572    1.8785    0.1940 H   0  0  0  0  0  0  0  0  0  0  0  0
    0.4584    1.6858   -3.5202 H   0  0  0  0  0  0  0  0  0  0  0  0
    1.9499    0.5798   -3.5202 H   0  0  0  0  0  0  0  0  0  0  0  0
    0.4588   -1.0081    2.3044 C   0  0  0  0  0  0  0  0  0  0  0  0
   -0.1281   -0.6639    0.9809 C   0  0  0  0  0  3  0  0  0  0  0  0
   -1.6881   -0.6829    0.5968 S   0  0  0  0  0  0  0  0  0  0  0  0
   -0.3070   -1.2884    3.0246 H   0  0  0  0  0  0  0  0  0  0  0  0
    1.0294   -0.1556    2.6855 H   0  0  0  0  0  0  0  0  0  0  0  0
    1.1727   -1.8292    2.1866 H   0  0  0  0  0  0  0  0  0  0  0  0
  1  2  2  0
  1  4  1  0
  1  5  1  0
  2  3  2  0
  3  6  1  0
  3  7  1  0
  8  9  1  0
  8 11  1  0
  8 12  1  0
  8 13  1  0
  9 10  2  0
M  RAD  1   9   2
M  END
>  <reaction>  (7) 
rxn_1834

>  <mol_properties>  (7) 
{"0": {"label": "*3", "atom_type": "Ct"}, "1": {"label": "*4", "atom_type": "Ct"}, "3": {"label": "*2", "atom_type": "H0"}, "8": {"label": "*1", "atom_type": "CS"}, "9": {"label": "*0", "atom_type": "S2d"}}

>  <type>  (7) 
unop_3

>  <geom_source>  (7) 
Heuristics

$$$$

     RDKit          3D

 13 11  0  0  0  0  0  0  0  0999 V2000
    0.7947    1.1949   -0.6822 C   0  0  0  0  0  0  0  0  0  0  0  0
    0.7947    1.1949   -1.9808 C   0  0  0  0  0  0  0  0  0  0  0  0
    0.7947    1.1949   -3.2795 C   0  0  0  0  0  0  0  0  0  0  0  0
    0.1311    0.3000   -0.0121 H   0  0  0  0  0  0  0  0  0  0  0  0
    1.3478    1.9407   -0.1237 H   0  0  0  0  0  0  0  0  0  0  0  0
    0.0490    1.7479   -3.8379 H   0  0  0  0  0  0  0  0  0  0  0  0
    1.5405    0.6419   -3.8379 H   0  0  0  0  0  0  0  0  0  0  0  0
   -2.0027   -0.6103    0.4027 C   0  0  0  0  0  0  0  0  0  0  0  0
   -0.5375   -0.6017    0.6631 C   0  0  0  0  0  3  0  0  0  0  0  0
    0.1861   -0.9793    2.0470 S   0  0  0  0  0  0  0  0  0  0  0  0
   -2.5670   -0.9118    1.2827 H   0  0  0  0  0  0  0  0  0  0  0  0
   -2.2237   -1.2883   -0.4274 H   0  0  0  0  0  0  0  0  0  0  0  0
   -2.3240    0.3854    0.0817 H   0  0  0  0  0  0  0  0  0  0  0  0
  1  2  2  0
  1  4  1  0
  1  5  1  0
  2  3  2  0
  3  6  1  0
  3  7  1  0
  8  9  1  0
  8 11  1  0
  8 12  1  0
  8 13  1  0
  9 10  2  0
M  RAD  1   9   2
M  END
>  <reaction>  (8) 
rxn_1834

>  <mol_properties>  (8) 
{"0": {"label": "*3", "atom_type": "Ct"}, "1": {"label": "*4", "atom_type": "Ct"}, "3": {"label": "*2", "atom_type": "H0"}, "8": {"label": "*1", "atom_type": "CS"}, "9": {"label": "*0", "atom_type": "S2d"}}

>  <type>  (8) 
unop_4

>  <geom_source>  (8) 
Heuristics

$$$$

     RDKit          3D

 13 11  0  0  0  0  0  0  0  0999 V2000
    1.0463    1.4110   -0.2545 C   0  0  0  0  0  0  0  0  0  0  0  0
    1.0463    1.4110   -1.5532 C   0  0  0  0  0  0  0  0  0  0  0  0
    1.0463    1.4110   -2.8519 C   0  0  0  0  0  0  0  0  0  0  0  0
    0.3827    0.5161    0.4156 H   0  0  0  0  0  0  0  0  0  0  0  0
    1.5993    2.1568    0.3039 H   0  0  0  0  0  0  0  0  0  0  0  0
    0.3006    1.9640   -3.4103 H   0  0  0  0  0  0  0  0  0  0  0  0
    1.7921    0.8580   -3.4103 H   0  0  0  0  0  0  0  0  0  0  0  0
   -0.1868   -0.2519    2.5696 C   0  0  0  0  0  0  0  0  0  0  0  0
   -0.2860   -0.3856    1.0908 C   0  0  0  0  0  3  0  0  0  0  0  0
   -1.1153   -1.5040    0.2890 S   0  0  0  0  0  0  0  0  0  0  0  0
   -0.7580   -1.0222    3.0834 H   0  0  0  0  0  0  0  0  0  0  0  0
   -0.5444    0.7368    2.8732 H   0  0  0  0  0  0  0  0  0  0  0  0
    0.8632   -0.3069    2.8732 H   0  0  0  0  0  0  0  0  0  0  0  0
  1  2  2  0
  1  4  1  0
  1  5  1  0
  2  3  2  0
  3  6  1  0
  3  7  1  0
  8  9  1  0
  8 11  1  0
  8 12  1  0
  8 13  1  0
  9 10  2  0
M  RAD  1   9   2
M  END
>  <reaction>  (9) 
rxn_1834

>  <mol_properties>  (9) 
{"0": {"label": "*3", "atom_type": "Ct"}, "1": {"label": "*4", "atom_type": "Ct"}, "3": {"label": "*2", "atom_type": "H0"}, "8": {"label": "*1", "atom_type": "CS"}, "9": {"label": "*0", "atom_type": "S2d"}}

>  <type>  (9) 
unop_5

>  <geom_source>  (9) 
Heuristics

$$$$

     RDKit          3D

 13 11  0  0  0  0  0  0  0  0999 V2000
    0.6878    1.2578   -0.6420 C   0  0  0  0  0  0  0  0  0  0  0  0
    0.6878    1.2578   -1.9407 C   0  0  0  0  0  0  0  0  0  0  0  0
    0.6878    1.2578   -3.2393 C   0  0  0  0  0  0  0  0  0  0  0  0
    0.0242    0.3629    0.0281 H   0  0  0  0  0  0  0  0  0  0  0  0
    1.2408    2.0036   -0.0836 H   0  0  0  0  0  0  0  0  0  0  0  0
   -0.0580    1.8108   -3.7977 H   0  0  0  0  0  0  0  0  0  0  0  0
    1.4335    0.7048   -3.7977 H   0  0  0  0  0  0  0  0  0  0  0  0
   -2.0476   -0.1593    1.0227 C   0  0  0  0  0  0  0  0  0  0  0  0
   -0.6445   -0.5388    0.7033 C   0  0  0  0  0  3  0  0  0  0  0  0
    0.3804   -1.3032    1.6763 S   0  0  0  0  0  0  0  0  0  0  0  0
   -2.3287   -0.4637    2.0286 H   0  0  0  0  0  0  0  0  0  0  0  0
   -2.7258   -0.6168    0.2957 H   0  0  0  0  0  0  0  0  0  0  0  0
   -2.1677    0.9234    0.9177 H   0  0  0  0  0  0  0  0  0  0  0  0
  1  2  2  0
  1  4  1  0
  1  5  1  0
  2  3  2  0
  3  6  1  0
  3  7  1  0
  8  9  1  0
  8 11  1  0
  8 12  1  0
  8 13  1  0
  9 10  2  0
M  RAD  1   9   2
M  END
>  <reaction>  (10) 
rxn_1834

>  <mol_properties>  (10) 
{"0": {"label": "*3", "atom_type": "Ct"}, "1": {"label": "*4", "atom_type": "Ct"}, "3": {"label": "*2", "atom_type": "H0"}, "8": {"label": "*1", "atom_type": "CS"}, "9": {"label": "*0", "atom_type": "S2d"}}

>  <type>  (10) 
unop_6

>  <geom_source>  (10) 
Heuristics

$$$$

     RDKit          3D

 13 11  0  0  0  0  0  0  0  0999 V2000
    0.6359    1.3711   -0.5306 C   0  0  0  0  0  0  0  0  0  0  0  0
    0.6359    1.3711   -1.8293 C   0  0  0  0  0  0  0  0  0  0  0  0
    0.6359    1.3711   -3.1279 C   0  0  0  0  0  0  0  0  0  0  0  0
   -0.0277    0.4762    0.1395 H   0  0  0  0  0  0  0  0  0  0  0  0
    1.1889    2.1169    0.0278 H   0  0  0  0  0  0  0  0  0  0  0  0
   -0.1098    1.9241   -3.6864 H   0  0  0  0  0  0  0  0  0  0  0  0
    1.3817    0.8181   -3.6864 H   0  0  0  0  0  0  0  0  0  0  0  0
   -1.7461    0.1261    1.7138 C   0  0  0  0  0  0  0  0  0  0  0  0
   -0.6964   -0.4255    0.8147 C   0  0  0  0  0  3  0  0  0  0  0  0
    0.3150   -1.6264    1.1559 S   0  0  0  0  0  0  0  0  0  0  0  0
   -1.7655   -0.3865    2.6732 H   0  0  0  0  0  0  0  0  0  0  0  0
   -2.7244    0.0415    1.2305 H   0  0  0  0  0  0  0  0  0  0  0  0
   -1.5706    1.1949    1.8700 H   0  0  0  0  0  0  0  0  0  0  0  0
  1  2  2  0
  1  4  1  0
  1  5  1  0
  2  3  2  0
  3  6  1  0
  3  7  1  0
  8  9  1  0
  8 11  1  0
  8 12  1  0
  8 13  1  0
  9 10  2  0
M  RAD  1   9   2
M  END
>  <reaction>  (11) 
rxn_1834

>  <mol_properties>  (11) 
{"0": {"label": "*3", "atom_type": "Ct"}, "1": {"label": "*4", "atom_type": "Ct"}, "3": {"label": "*2", "atom_type": "H0"}, "8": {"label": "*1", "atom_type": "CS"}, "9": {"label": "*0", "atom_type": "S2d"}}

>  <type>  (11) 
unop_7

>  <geom_source>  (11) 
Heuristics

$$$$

     RDKit          3D

 13 11  0  0  0  0  0  0  0  0999 V2000
    1.0039    1.0234   -0.6420 C   0  0  0  0  0  0  0  0  0  0  0  0
    1.0039    1.0234   -1.9407 C   0  0  0  0  0  0  0  0  0  0  0  0
    1.0039    1.0234   -3.2393 C   0  0  0  0  0  0  0  0  0  0  0  0
    0.3402    0.1285    0.0281 H   0  0  0  0  0  0  0  0  0  0  0  0
    1.5569    1.7692   -0.0836 H   0  0  0  0  0  0  0  0  0  0  0  0
    0.2581    1.5764   -3.7977 H   0  0  0  0  0  0  0  0  0  0  0  0
    1.7496    0.4704   -3.7977 H   0  0  0  0  0  0  0  0  0  0  0  0
    0.4422   -2.0056    1.0227 C   0  0  0  0  0  0  0  0  0  0  0  0
   -0.3284   -0.7732    0.7033 C   0  0  0  0  0  3  0  0  0  0  0  0
   -1.3575   -0.0145    1.6763 S   0  0  0  0  0  0  0  0  0  0  0  0
    0.2326   -2.3630    2.0286 H   0  0  0  0  0  0  0  0  0  0  0  0
    1.5131   -1.8060    0.9177 H   0  0  0  0  0  0  0  0  0  0  0  0
    0.2014   -2.7874    0.2957 H   0  0  0  0  0  0  0  0  0  0  0  0
  1  2  2  0
  1  4  1  0
  1  5  1  0
  2  3  2  0
  3  6  1  0
  3  7  1  0
  8  9  1  0
  8 11  1  0
  8 12  1  0
  8 13  1  0
  9 10  2  0
M  RAD  1   9   2
M  END
>  <reaction>  (12) 
rxn_1834

>  <mol_properties>  (12) 
{"0": {"label": "*3", "atom_type": "Ct"}, "1": {"label": "*4", "atom_type": "Ct"}, "3": {"label": "*2", "atom_type": "H0"}, "8": {"label": "*1", "atom_type": "CS"}, "9": {"label": "*0", "atom_type": "S2d"}}

>  <type>  (12) 
unop_8

>  <geom_source>  (12) 
Heuristics

$$$$

     RDKit          3D

 13 11  0  0  0  0  0  0  0  0999 V2000
    0.8806    1.1938   -0.6733 C   0  0  0  0  0  0  0  0  0  0  0  0
    0.8806    1.1938   -1.9720 C   0  0  0  0  0  0  0  0  0  0  0  0
    0.8806    1.1938   -3.2707 C   0  0  0  0  0  0  0  0  0  0  0  0
    0.2170    0.2989   -0.0032 H   0  0  0  0  0  0  0  0  0  0  0  0
    1.4336    1.9396   -0.1149 H   0  0  0  0  0  0  0  0  0  0  0  0
    0.1348    1.7468   -3.8291 H   0  0  0  0  0  0  0  0  0  0  0  0
    1.6263    0.6408   -3.8291 H   0  0  0  0  0  0  0  0  0  0  0  0
   -1.6711   -1.1115   -0.0128 C   0  0  0  0  0  0  0  0  0  0  0  0
   -0.4517   -0.6028    0.6720 C   0  0  0  0  0  3  0  0  0  0  0  0
   -0.1157   -0.7301    2.2380 S   0  0  0  0  0  0  0  0  0  0  0  0
   -2.3487   -1.6029    0.6822 H   0  0  0  0  0  0  0  0  0  0  0  0
   -1.3829   -1.8108   -0.8037 H   0  0  0  0  0  0  0  0  0  0  0  0
   -2.1870   -0.2824   -0.5071 H   0  0  0  0  0  0  0  0  0  0  0  0
  1  2  2  0
  1  4  1  0
  1  5  1  0
  2  3  2  0
  3  6  1  0
  3  7  1  0
  8  9  1  0
  8 11  1  0
  8 12  1  0
  8 13  1  0
  9 10  2  0
M  RAD  1   9   2
M  END
>  <reaction>  (13) 
rxn_1834

>  <mol_properties>  (13) 
{"0": {"label": "*3", "atom_type": "Ct"}, "1": {"label": "*4", "atom_type": "Ct"}, "3": {"label": "*2", "atom_type": "H0"}, "8": {"label": "*1", "atom_type": "CS"}, "9": {"label": "*0", "atom_type": "S2d"}}

>  <type>  (13) 
unop_9

>  <geom_source>  (13) 
Heuristics

$$$$

     RDKit          3D

 13 11  0  0  0  0  0  0  0  0999 V2000
    0.9126    1.1075   -0.6822 C   0  0  0  0  0  0  0  0  0  0  0  0
    0.9126    1.1075   -1.9808 C   0  0  0  0  0  0  0  0  0  0  0  0
    0.9126    1.1075   -3.2795 C   0  0  0  0  0  0  0  0  0  0  0  0
    0.2490    0.2126   -0.0121 H   0  0  0  0  0  0  0  0  0  0  0  0
    1.4656    1.8533   -0.1237 H   0  0  0  0  0  0  0  0  0  0  0  0
    0.1668    1.6605   -3.8379 H   0  0  0  0  0  0  0  0  0  0  0  0
    1.6584    0.5545   -3.8379 H   0  0  0  0  0  0  0  0  0  0  0  0
   -0.0024   -2.0936    0.4027 C   0  0  0  0  0  0  0  0  0  0  0  0
   -0.4197   -0.6891    0.6631 C   0  0  0  0  0  3  0  0  0  0  0  0
   -0.9911   -0.1063    2.0470 S   0  0  0  0  0  0  0  0  0  0  0  0
   -0.1270   -2.7211    1.2827 H   0  0  0  0  0  0  0  0  0  0  0  0
    1.0437   -2.1119    0.0817 H   0  0  0  0  0  0  0  0  0  0  0  0
   -0.5870   -2.5020   -0.4274 H   0  0  0  0  0  0  0  0  0  0  0  0
  1  2  2  0
  1  4  1  0
  1  5  1  0
  2  3  2  0
  3  6  1  0
  3  7  1  0
  8  9  1  0
  8 11  1  0
  8 12  1  0
  8 13  1  0
  9 10  2  0
M  RAD  1   9   2
M  END
>  <reaction>  (14) 
rxn_1834

>  <mol_properties>  (14) 
{"0": {"label": "*3", "atom_type": "Ct"}, "1": {"label": "*4", "atom_type": "Ct"}, "3": {"label": "*2", "atom_type": "H0"}, "8": {"label": "*1", "atom_type": "CS"}, "9": {"label": "*0", "atom_type": "S2d"}}

>  <type>  (14) 
unop_10

>  <geom_source>  (14) 
Heuristics

$$$$

     RDKit          3D

 13 11  0  0  0  0  0  0  0  0999 V2000
    0.7342    1.4813   -0.3644 C   0  0  0  0  0  0  0  0  0  0  0  0
    0.7342    1.4813   -1.6631 C   0  0  0  0  0  0  0  0  0  0  0  0
    0.7342    1.4813   -2.9617 C   0  0  0  0  0  0  0  0  0  0  0  0
    0.0706    0.5863    0.3057 H   0  0  0  0  0  0  0  0  0  0  0  0
    1.2873    2.2270    0.1940 H   0  0  0  0  0  0  0  0  0  0  0  0
   -0.0115    2.0343   -3.5202 H   0  0  0  0  0  0  0  0  0  0  0  0
    1.4800    0.9282   -3.5202 H   0  0  0  0  0  0  0  0  0  0  0  0
   -1.0979    0.1463    2.3044 C   0  0  0  0  0  0  0  0  0  0  0  0
   -0.5980   -0.3154    0.9809 C   0  0  0  0  0  3  0  0  0  0  0  0
   -0.1632   -1.8136    0.5968 S   0  0  0  0  0  0  0  0  0  0  0  0
   -1.1437   -0.6679    3.0246 H   0  0  0  0  0  0  0  0  0  0  0  0
   -2.0910    0.5909    2.1866 H   0  0  0  0  0  0  0  0  0  0  0  0
   -0.4479    0.9399    2.6855 H   0  0  0  0  0  0  0  0  0  0  0  0
  1  2  2  0
  1  4  1  0
  1  5  1  0
  2  3  2  0
  3  6  1  0
  3  7  1  0
  8  9  1  0
  8 11  1  0
  8 12  1  0
  8 13  1  0
  9 10  2  0
M  RAD  1   9   2
M  END
>  <reaction>  (15) 
rxn_1834

>  <mol_properties>  (15) 
{"0": {"label": "*3", "atom_type": "Ct"}, "1": {"label": "*4", "atom_type": "Ct"}, "3": {"label": "*2", "atom_type": "H0"}, "8": {"label": "*1", "atom_type": "CS"}, "9": {"label": "*0", "atom_type": "S2d"}}

>  <type>  (15) 
unop_11

>  <geom_source>  (15) 
Heuristics

$$$$

     RDKit          3D

 13 11  0  0  0  0  0  0  0  0999 V2000
    0.9006    1.2144   -0.6614 C   0  0  0  0  0  0  0  0  0  0  0  0
    0.9006    1.2144   -1.9601 C   0  0  0  0  0  0  0  0  0  0  0  0
    0.9006    1.2144   -3.2587 C   0  0  0  0  0  0  0  0  0  0  0  0
    0.2369    0.3195    0.0087 H   0  0  0  0  0  0  0  0  0  0  0  0
    1.4536    1.9602   -0.1030 H   0  0  0  0  0  0  0  0  0  0  0  0
    0.1548    1.7675   -3.8172 H   0  0  0  0  0  0  0  0  0  0  0  0
    1.6463    0.6614   -3.8172 H   0  0  0  0  0  0  0  0  0  0  0  0
   -1.1634   -1.5688   -0.1563 C   0  0  0  0  0  0  0  0  0  0  0  0
   -0.4317   -0.5822    0.6839 C   0  0  0  0  0  3  0  0  0  0  0  0
   -0.3986   -0.5375    2.2896 S   0  0  0  0  0  0  0  0  0  0  0  0
   -1.7014   -2.2944    0.4501 H   0  0  0  0  0  0  0  0  0  0  0  0
   -0.4571   -2.0874   -0.8120 H   0  0  0  0  0  0  0  0  0  0  0  0
   -1.8646   -1.0436   -0.8120 H   0  0  0  0  0  0  0  0  0  0  0  0
  1  2  2  0
  1  4  1  0
  1  5  1  0
  2  3  2  0
  3  6  1  0
  3  7  1  0
  8  9  1  0
  8 11  1  0
  8 12  1  0
  8 13  1  0
  9 10  2  0
M  RAD  1   9   2
M  END
>  <reaction>  (16) 
rxn_1834

>  <mol_properties>  (16) 
{"0": {"label": "*3", "atom_type": "Ct"}, "1": {"label": "*4", "atom_type": "Ct"}, "3": {"label": "*2", "atom_type": "H0"}, "8": {"label": "*1", "atom_type": "CS"}, "9": {"label": "*0", "atom_type": "S2d"}}

>  <type>  (16) 
unop_12

>  <geom_source>  (16) 
Heuristics

$$$$

     RDKit          3D

 13 11  0  0  0  0  0  0  0  0999 V2000
   -2.0291    1.1978   -1.5078 S   0  0  0  0  0  0  0  0  0  0  0  0
   -1.9979    0.1502    0.8156 C   0  0  0  0  0  0  0  0  0  0  0  0
   -1.4630    0.2627   -0.5766 C   0  0  0  0  0  3  0  0  0  0  0  0
    2.7144    0.2324    0.3813 C   0  0  0  0  0  0  0  0  0  0  0  0
    1.7906   -0.1893   -0.4343 C   0  0  0  0  0  0  0  0  0  0  0  0
    0.8668   -0.6112   -1.2500 C   0  0  0  0  0  0  0  0  0  0  0  0
   -3.0684   -0.1466    0.7946 H   0  0  0  0  0  0  0  0  0  0  0  0
   -1.4248   -0.6245    1.3658 H   0  0  0  0  0  0  0  0  0  0  0  0
   -1.8906    1.1188    1.3493 H   0  0  0  0  0  0  0  0  0  0  0  0
   -0.4238   -0.5331   -0.9680 H   0  0  0  0  0  0  0  0  0  0  0  0
    3.2071   -0.4636    1.0464 H   0  0  0  0  0  0  0  0  0  0  0  0
    2.9889    1.2783    0.3933 H   0  0  0  0  0  0  0  0  0  0  0  0
    0.7300   -1.6719   -1.4097 H   0  0  0  0  0  0  0  0  0  0  0  0
  1  3  2  0
  2  3  1  0
  2  7  1  0
  2  8  1  0
  2  9  1  0
  4  5  2  0
  4 11  1  0
  4 12  1  0
  5  6  2  0
  6 10  1  0
  6 13  1  0
M  RAD  1   3   2
M  END
>  <reaction>  (17) 
rxn_1834

>  <mol_properties>  (17) 
{"0": {"label": "*3", "atom_type": "Ct"}, "1": {"label": "*4", "atom_type": "Ct"}, "3": {"label": "*2", "atom_type": "H0"}, "8": {"label": "*1", "atom_type": "CS"}, "9": {"label": "*0", "atom_type": "S2d"}}

>  <type>  (17) 
unop_13

>  <geom_source>  (17) 
AutoTST

$$$$
