
     RDKit          3D

 14 13  0  0  0  0  0  0  0  0999 V2000
   -0.7647   -1.2351   -0.0349 C   0  0  0  0  0  0  0  0  0  0  0  0
    0.0570   -0.0126    0.3624 C   0  0  0  0  0  0  0  0  0  0  0  0
    1.4161   -0.0194   -0.3307 C   0  0  0  0  0  0  0  0  0  0  0  0
   -0.7022    1.2765    0.0630 C   0  0  0  0  0  0  0  0  0  0  0  0
   -0.2387   -2.1618    0.2040 H   0  0  0  0  0  0  0  0  0  0  0  0
   -0.9624   -1.2315   -1.1108 H   0  0  0  0  0  0  0  0  0  0  0  0
   -1.7274   -1.2512    0.4805 H   0  0  0  0  0  0  0  0  0  0  0  0
    0.2295   -0.0590    1.4432 H   0  0  0  0  0  0  0  0  0  0  0  0
    1.2933    0.0259   -1.4168 H   0  0  0  0  0  0  0  0  0  0  0  0
    2.0206    0.8381   -0.0279 H   0  0  0  0  0  0  0  0  0  0  0  0
    1.9767   -0.9268   -0.0965 H   0  0  0  0  0  0  0  0  0  0  0  0
   -1.6638    1.3002    0.5800 H   0  0  0  0  0  0  0  0  0  0  0  0
   -0.8978    1.3664   -1.0096 H   0  0  0  0  0  0  0  0  0  0  0  0
   -0.1313    2.1545    0.3721 H   0  0  0  0  0  0  0  0  0  0  0  0
  1  2  1  0
  1  5  1  0
  1  6  1  0
  1  7  1  0
  2  3  1  0
  2  4  1  0
  2  8  1  0
  3  9  1  0
  3 10  1  0
  3 11  1  0
  4 12  1  0
  4 13  1  0
  4 14  1  0
M  END
>  <reaction>  (1) 
rxn_983

>  <mol_properties>  (1) 
{"1": {"label": "donator", "atom_type": "Cs"}, "7": {"label": "d_hydrogen", "atom_type": "H0"}}

>  <type>  (1) 
r1h

$$$$

     RDKit          3D

 12 11  0  0  0  0  0  0  0  0999 V2000
   -0.9951    0.1196   -0.8321 C   0  0  0  0  0  0  0  0  0  0  0  0
   -0.3760    0.2571    0.5231 C   0  0  0  0  0  3  0  0  0  0  0  0
    0.9330   -0.1537    0.7810 C   0  0  0  0  0  0  0  0  0  0  0  0
    1.5987   -0.1880    1.9734 C   0  0  0  0  0  0  0  0  0  0  0  0
   -1.4483    0.9449    1.7152 S   0  0  0  0  0  0  0  0  0  0  0  0
   -1.9164   -0.4696   -0.7936 H   0  0  0  0  0  0  0  0  0  0  0  0
   -1.2565    1.0958   -1.2506 H   0  0  0  0  0  0  0  0  0  0  0  0
   -0.3088   -0.3780   -1.5170 H   0  0  0  0  0  0  0  0  0  0  0  0
    1.4783   -0.4898   -0.0971 H   0  0  0  0  0  0  0  0  0  0  0  0
    2.6278   -0.5153    2.0142 H   0  0  0  0  0  0  0  0  0  0  0  0
    1.1316    0.0690    2.9151 H   0  0  0  0  0  0  0  0  0  0  0  0
   -0.5306    1.3052    2.6211 H   0  0  0  0  0  0  0  0  0  0  0  0
  1  2  1  0
  1  6  1  0
  1  7  1  0
  1  8  1  0
  2  3  1  0
  2  5  1  0
  3  4  2  3
  3  9  1  0
  4 10  1  0
  4 11  1  0
  5 12  1  0
M  RAD  1   2   2
M  END
>  <reaction>  (2) 
rxn_983

>  <mol_properties>  (2) 
{"1": {"label": "acceptor", "atom_type": "Cs"}}

>  <type>  (2) 
r2

$$$$

     RDKit          3D

 13 12  0  0  0  0  0  0  0  0999 V2000
   -1.1828    0.8269   -0.1645 C   0  0  0  0  0  0  0  0  0  0  0  0
   -0.4827   -0.4584   -0.5736 C   0  0  1  0  0  0  0  0  0  0  0  0
   -0.9759   -1.7030    0.1030 C   0  0  0  0  0  0  0  0  0  0  0  0
   -2.0084   -1.7831    0.9287 C   0  0  0  0  0  0  0  0  0  0  0  0
   -0.4908   -0.7025   -2.3913 S   0  0  0  0  0  0  0  0  0  0  0  0
   -1.0941    0.9860    0.9125 H   0  0  0  0  0  0  0  0  0  0  0  0
   -0.7405    1.6784   -0.6793 H   0  0  0  0  0  0  0  0  0  0  0  0
   -2.2437    0.7943   -0.4195 H   0  0  0  0  0  0  0  0  0  0  0  0
    0.5870   -0.3637   -0.3637 H   0  0  0  0  0  0  0  0  0  0  0  0
   -0.4209   -2.6026   -0.1443 H   0  0  0  0  0  0  0  0  0  0  0  0
   -2.2982   -2.7315    1.3623 H   0  0  0  0  0  0  0  0  0  0  0  0
   -2.5999   -0.9190    1.2055 H   0  0  0  0  0  0  0  0  0  0  0  0
   -1.8040   -0.9489   -2.4971 H   0  0  0  0  0  0  0  0  0  0  0  0
  1  2  1  0
  1  6  1  0
  1  7  1  0
  1  8  1  0
  2  3  1  0
  2  5  1  0
  2  9  1  1
  3  4  2  3
  3 10  1  0
  4 11  1  0
  4 12  1  0
  5 13  1  0
M  END
>  <reaction>  (3) 
rxn_983

>  <mol_properties>  (3) 
{"1": {"label": "acceptor", "atom_type": "Cs"}, "12": {"label": "a_hydrogen", "atom_type": "H0"}}

>  <type>  (3) 
r2h

$$$$

     RDKit          3D

 26 24  0  0  0  0  0  0  0  0999 V2000
    0.9258   -0.0123    1.8437 C   0  0  0  0  0  0  0  0  0  0  0  0
    0.7056   -0.5914    0.4668 C   0  0  1  0  0  0  0  0  0  0  0  0
    1.7903   -0.4513   -0.5134 C   0  0  0  0  0  0  0  0  0  0  0  0
    2.9020    0.2676   -0.3559 C   0  0  0  0  0  0  0  0  0  0  0  0
   -0.0783   -2.2160    0.4488 S   0  0  0  0  0  0  0  0  0  0  0  0
    1.7300   -0.5359    2.3694 H   0  0  0  0  0  0  0  0  0  0  0  0
    1.1966    1.0441    1.7804 H   0  0  0  0  0  0  0  0  0  0  0  0
    0.0195   -0.0985    2.4423 H   0  0  0  0  0  0  0  0  0  0  0  0
    1.6313   -0.9738   -1.4518 H   0  0  0  0  0  0  0  0  0  0  0  0
    3.6341    0.3346   -1.1501 H   0  0  0  0  0  0  0  0  0  0  0  0
    3.1238    0.8004    0.5605 H   0  0  0  0  0  0  0  0  0  0  0  0
    0.9987   -2.9422    0.7899 H   0  0  0  0  0  0  0  0  0  0  0  0
   -1.2781    0.5624   -1.9850 C   0  0  0  0  0  0  0  0  0  0  0  0
   -1.2654    0.9590   -0.5324 C   0  0  0  0  0  3  0  0  0  0  0  0
   -0.7182    2.3354   -0.2615 C   0  0  0  0  0  0  0  0  0  0  0  0
   -2.5062    0.5978    0.2402 C   0  0  0  0  0  0  0  0  0  0  0  0
   -0.3049    0.7365   -2.4493 H   0  0  0  0  0  0  0  0  0  0  0  0
   -2.0189    1.1503   -2.5409 H   0  0  0  0  0  0  0  0  0  0  0  0
   -1.5320   -0.4925   -2.1069 H   0  0  0  0  0  0  0  0  0  0  0  0
   -0.2804    0.1323   -0.0231 H   0  0  0  0  0  0  0  0  0  0  0  0
   -1.3570    3.1031   -0.7162 H   0  0  0  0  0  0  0  0  0  0  0  0
   -0.6684    2.5426    0.8092 H   0  0  0  0  0  0  0  0  0  0  0  0
    0.2837    2.4504   -0.6816 H   0  0  0  0  0  0  0  0  0  0  0  0
   -2.7758   -0.4502    0.0967 H   0  0  0  0  0  0  0  0  0  0  0  0
   -3.3577    1.2061   -0.0907 H   0  0  0  0  0  0  0  0  0  0  0  0
   -2.3752    0.7733    1.3099 H   0  0  0  0  0  0  0  0  0  0  0  0
  1  2  1  0
  1  6  1  0
  1  7  1  0
  1  8  1  0
  2  3  1  0
  2  5  1  0
  2 20  1  6
  3  4  2  3
  3  9  1  0
  4 10  1  0
  4 11  1  0
  5 12  1  0
 13 14  1  0
 13 17  1  0
 13 18  1  0
 13 19  1  0
 14 15  1  0
 14 16  1  0
 15 21  1  0
 15 22  1  0
 15 23  1  0
 16 24  1  0
 16 25  1  0
 16 26  1  0
M  RAD  1  14   2
M  END
>  <reaction>  (4) 
rxn_983

>  <mol_properties>  (4) 
{"1": {"label": "*1", "atom_type": "Cs"}, "4": {"label": "*0", "atom_type": "S2s"}, "12": {"label": "*4", "atom_type": "Cs"}, "13": {"label": "*3", "atom_type": "Cs"}, "19": {"label": "*2", "atom_type": "H0"}}

>  <type>  (4) 
ts

$$$$

     RDKit          3D

 26 24  0  0  0  0  0  0  0  0999 V2000
    1.7832    0.7338    0.9863 C   0  0  0  0  0  0  0  0  0  0  0  0
    0.9774   -0.2468    0.1505 C   0  0  0  0  0  0  0  0  0  0  0  0
    1.7513   -1.4046   -0.4068 C   0  0  0  0  0  0  0  0  0  0  0  0
    3.0204   -1.6866   -0.1538 C   0  0  0  0  0  0  0  0  0  0  0  0
   -0.4993   -0.8675    1.0439 S   0  0  0  0  0  0  0  0  0  0  0  0
    2.1979    0.2472    1.8711 H   0  0  0  0  0  0  0  0  0  0  0  0
    2.6096    1.1463    0.4032 H   0  0  0  0  0  0  0  0  0  0  0  0
    1.1502    1.5542    1.3209 H   0  0  0  0  0  0  0  0  0  0  0  0
    1.1807   -2.0578   -1.0597 H   0  0  0  0  0  0  0  0  0  0  0  0
    3.4934   -2.5543   -0.5952 H   0  0  0  0  0  0  0  0  0  0  0  0
    3.6344   -1.0727    0.4937 H   0  0  0  0  0  0  0  0  0  0  0  0
    0.1734   -1.6091    1.9349 H   0  0  0  0  0  0  0  0  0  0  0  0
   -1.2287    0.9293   -2.1840 C   0  0  0  0  0  0  0  0  0  0  0  0
   -1.2287    0.9293   -0.6583 C   0  0  0  0  0  3  0  0  0  0  0  0
   -1.2287    2.3540   -0.1123 C   0  0  0  0  0  0  0  0  0  0  0  0
   -2.4115    0.1353   -0.1123 C   0  0  0  0  0  0  0  0  0  0  0  0
   -0.3680    1.4715   -2.5811 H   0  0  0  0  0  0  0  0  0  0  0  0
   -2.1326    1.4113   -2.5678 H   0  0  0  0  0  0  0  0  0  0  0  0
   -1.1993   -0.0875   -2.5811 H   0  0  0  0  0  0  0  0  0  0  0  0
   -0.1250    0.3409   -0.2537 H   0  0  0  0  0  0  0  0  0  0  0  0
   -2.1327    2.8849   -0.4250 H   0  0  0  0  0  0  0  0  0  0  0  0
   -1.1993    2.3608    0.9793 H   0  0  0  0  0  0  0  0  0  0  0  0
   -0.3680    2.9188   -0.4765 H   0  0  0  0  0  0  0  0  0  0  0  0
   -2.4007   -0.8942   -0.4766 H   0  0  0  0  0  0  0  0  0  0  0  0
   -3.3561    0.5899   -0.4249 H   0  0  0  0  0  0  0  0  0  0  0  0
   -2.4008    0.1070    0.9793 H   0  0  0  0  0  0  0  0  0  0  0  0
  1  2  1  0
  1  6  1  0
  1  7  1  0
  1  8  1  0
  2  3  1  0
  2  5  1  0
  2 20  1  0
  3  4  2  3
  3  9  1  0
  4 10  1  0
  4 11  1  0
  5 12  1  0
 13 14  1  0
 13 17  1  0
 13 18  1  0
 13 19  1  0
 14 15  1  0
 14 16  1  0
 15 21  1  0
 15 22  1  0
 15 23  1  0
 16 24  1  0
 16 25  1  0
 16 26  1  0
M  RAD  1  14   2
M  END
>  <reaction>  (5) 
rxn_983

>  <mol_properties>  (5) 
{"1": {"label": "*1", "atom_type": "Cs"}, "4": {"label": "*0", "atom_type": "S2s"}, "12": {"label": "*4", "atom_type": "Cs"}, "13": {"label": "*3", "atom_type": "Cs"}, "19": {"label": "*2", "atom_type": "H0"}}

>  <type>  (5) 
unop_1

>  <geom_source>  (5) 
Heuristics

$$$$

     RDKit          3D

 26 24  0  0  0  0  0  0  0  0999 V2000
    1.8839   -0.2532   -0.9533 C   0  0  0  0  0  0  0  0  0  0  0  0
    0.7924   -0.4855    0.0783 C   0  0  0  0  0  0  0  0  0  0  0  0
    0.7540   -1.8609    0.6757 C   0  0  0  0  0  0  0  0  0  0  0  0
    1.6306   -2.8293    0.4568 C   0  0  0  0  0  0  0  0  0  0  0  0
    0.8294    0.7660    1.4186 S   0  0  0  0  0  0  0  0  0  0  0  0
    2.8744   -0.3731   -0.5105 H   0  0  0  0  0  0  0  0  0  0  0  0
    1.7892   -0.9630   -1.7782 H   0  0  0  0  0  0  0  0  0  0  0  0
    1.8160    0.7569   -1.3542 H   0  0  0  0  0  0  0  0  0  0  0  0
   -0.0728   -2.0352    1.3572 H   0  0  0  0  0  0  0  0  0  0  0  0
    1.5268   -3.7905    0.9436 H   0  0  0  0  0  0  0  0  0  0  0  0
    2.4765   -2.7083   -0.2087 H   0  0  0  0  0  0  0  0  0  0  0  0
    1.9669    0.3377    1.9834 H   0  0  0  0  0  0  0  0  0  0  0  0
   -1.4137    0.6906   -2.2562 C   0  0  0  0  0  0  0  0  0  0  0  0
   -1.4137    0.6906   -0.7305 C   0  0  0  0  0  3  0  0  0  0  0  0
   -1.4137    2.1153   -0.1845 C   0  0  0  0  0  0  0  0  0  0  0  0
   -2.5965   -0.1034   -0.1844 C   0  0  0  0  0  0  0  0  0  0  0  0
   -0.5530    1.2328   -2.6532 H   0  0  0  0  0  0  0  0  0  0  0  0
   -2.3176    1.1726   -2.6400 H   0  0  0  0  0  0  0  0  0  0  0  0
   -1.3843   -0.3262   -2.6533 H   0  0  0  0  0  0  0  0  0  0  0  0
   -0.3100    0.1022   -0.3259 H   0  0  0  0  0  0  0  0  0  0  0  0
   -2.3177    2.6461   -0.4972 H   0  0  0  0  0  0  0  0  0  0  0  0
   -1.3843    2.1221    0.9071 H   0  0  0  0  0  0  0  0  0  0  0  0
   -0.5530    2.6801   -0.5487 H   0  0  0  0  0  0  0  0  0  0  0  0
   -2.5857   -1.1329   -0.5487 H   0  0  0  0  0  0  0  0  0  0  0  0
   -3.5411    0.3512   -0.4971 H   0  0  0  0  0  0  0  0  0  0  0  0
   -2.5858   -0.1317    0.9072 H   0  0  0  0  0  0  0  0  0  0  0  0
  1  2  1  0
  1  6  1  0
  1  7  1  0
  1  8  1  0
  2  3  1  0
  2  5  1  0
  2 20  1  0
  3  4  2  3
  3  9  1  0
  4 10  1  0
  4 11  1  0
  5 12  1  0
 13 14  1  0
 13 17  1  0
 13 18  1  0
 13 19  1  0
 14 15  1  0
 14 16  1  0
 15 21  1  0
 15 22  1  0
 15 23  1  0
 16 24  1  0
 16 25  1  0
 16 26  1  0
M  RAD  1  14   2
M  END
>  <reaction>  (6) 
rxn_983

>  <mol_properties>  (6) 
{"1": {"label": "*1", "atom_type": "Cs"}, "4": {"label": "*0", "atom_type": "S2s"}, "12": {"label": "*4", "atom_type": "Cs"}, "13": {"label": "*3", "atom_type": "Cs"}, "19": {"label": "*2", "atom_type": "H0"}}

>  <type>  (6) 
unop_2

>  <geom_source>  (6) 
Heuristics

$$$$

     RDKit          3D

 26 24  0  0  0  0  0  0  0  0999 V2000
    1.3110    0.3982    1.6465 C   0  0  0  0  0  0  0  0  0  0  0  0
    0.8956   -0.1945    0.3102 C   0  0  0  0  0  0  0  0  0  0  0  0
    2.0207   -0.6691   -0.5608 C   0  0  0  0  0  0  0  0  0  0  0  0
    3.3020   -0.7039   -0.2271 C   0  0  0  0  0  0  0  0  0  0  0  0
   -0.3407   -1.5357    0.5024 S   0  0  0  0  0  0  0  0  0  0  0  0
    1.8229   -0.3434    2.2626 H   0  0  0  0  0  0  0  0  0  0  0  0
    1.9855    1.2444    1.4976 H   0  0  0  0  0  0  0  0  0  0  0  0
    0.4360    0.7432    2.1951 H   0  0  0  0  0  0  0  0  0  0  0  0
    1.7159   -1.0240   -1.5403 H   0  0  0  0  0  0  0  0  0  0  0  0
    4.0450   -1.0750   -0.9212 H   0  0  0  0  0  0  0  0  0  0  0  0
    3.6608   -0.3675    0.7379 H   0  0  0  0  0  0  0  0  0  0  0  0
    0.4967   -2.4245    1.0549 H   0  0  0  0  0  0  0  0  0  0  0  0
   -1.3106    0.9816   -2.0243 C   0  0  0  0  0  0  0  0  0  0  0  0
   -1.3106    0.9816   -0.4986 C   0  0  0  0  0  3  0  0  0  0  0  0
   -1.3106    2.4063    0.0474 C   0  0  0  0  0  0  0  0  0  0  0  0
   -2.4934    0.1876    0.0474 C   0  0  0  0  0  0  0  0  0  0  0  0
   -0.4498    1.5238   -2.4213 H   0  0  0  0  0  0  0  0  0  0  0  0
   -2.2145    1.4636   -2.4081 H   0  0  0  0  0  0  0  0  0  0  0  0
   -1.2812   -0.0352   -2.4214 H   0  0  0  0  0  0  0  0  0  0  0  0
   -0.2069    0.3932   -0.0940 H   0  0  0  0  0  0  0  0  0  0  0  0
   -2.2145    2.9372   -0.2653 H   0  0  0  0  0  0  0  0  0  0  0  0
   -1.2811    2.4131    1.1390 H   0  0  0  0  0  0  0  0  0  0  0  0
   -0.4498    2.9711   -0.3168 H   0  0  0  0  0  0  0  0  0  0  0  0
   -2.4826   -0.8419   -0.3168 H   0  0  0  0  0  0  0  0  0  0  0  0
   -3.4380    0.6422   -0.2652 H   0  0  0  0  0  0  0  0  0  0  0  0
   -2.4826    0.1593    1.1390 H   0  0  0  0  0  0  0  0  0  0  0  0
  1  2  1  0
  1  6  1  0
  1  7  1  0
  1  8  1  0
  2  3  1  0
  2  5  1  0
  2 20  1  0
  3  4  2  3
  3  9  1  0
  4 10  1  0
  4 11  1  0
  5 12  1  0
 13 14  1  0
 13 17  1  0
 13 18  1  0
 13 19  1  0
 14 15  1  0
 14 16  1  0
 15 21  1  0
 15 22  1  0
 15 23  1  0
 16 24  1  0
 16 25  1  0
 16 26  1  0
M  RAD  1  14   2
M  END
>  <reaction>  (7) 
rxn_983

>  <mol_properties>  (7) 
{"1": {"label": "*1", "atom_type": "Cs"}, "4": {"label": "*0", "atom_type": "S2s"}, "12": {"label": "*4", "atom_type": "Cs"}, "13": {"label": "*3", "atom_type": "Cs"}, "19": {"label": "*2", "atom_type": "H0"}}

>  <type>  (7) 
unop_3

>  <geom_source>  (7) 
Heuristics

$$$$

     RDKit          3D

 26 24  0  0  0  0  0  0  0  0999 V2000
    0.8123   -1.9118   -0.4493 C   0  0  0  0  0  0  0  0  0  0  0  0
    0.7871   -0.4882    0.0819 C   0  0  0  0  0  0  0  0  0  0  0  0
    0.1357   -0.3129    1.4216 C   0  0  0  0  0  0  0  0  0  0  0  0
   -0.3162   -1.2842    2.2005 C   0  0  0  0  0  0  0  0  0  0  0  0
    2.4564    0.2711    0.1060 S   0  0  0  0  0  0  0  0  0  0  0  0
    1.3878   -2.5659    0.2081 H   0  0  0  0  0  0  0  0  0  0  0  0
   -0.2018   -2.3103   -0.5268 H   0  0  0  0  0  0  0  0  0  0  0  0
    1.2727   -1.9388   -1.4357 H   0  0  0  0  0  0  0  0  0  0  0  0
    0.0606    0.7169    1.7569 H   0  0  0  0  0  0  0  0  0  0  0  0
   -0.7635   -1.0612    3.1605 H   0  0  0  0  0  0  0  0  0  0  0  0
   -0.2620   -2.3285    1.9182 H   0  0  0  0  0  0  0  0  0  0  0  0
    2.9432   -0.4843    1.1004 H   0  0  0  0  0  0  0  0  0  0  0  0
   -1.4191    0.6879   -2.2526 C   0  0  0  0  0  0  0  0  0  0  0  0
   -1.4191    0.6879   -0.7269 C   0  0  0  0  0  3  0  0  0  0  0  0
   -1.4191    2.1126   -0.1809 C   0  0  0  0  0  0  0  0  0  0  0  0
   -2.6019   -0.1061   -0.1809 C   0  0  0  0  0  0  0  0  0  0  0  0
   -0.5583    1.2302   -2.6497 H   0  0  0  0  0  0  0  0  0  0  0  0
   -2.3230    1.1700   -2.6364 H   0  0  0  0  0  0  0  0  0  0  0  0
   -1.3897   -0.3289   -2.6497 H   0  0  0  0  0  0  0  0  0  0  0  0
   -0.3154    0.0996   -0.3223 H   0  0  0  0  0  0  0  0  0  0  0  0
   -2.3230    2.6435   -0.4936 H   0  0  0  0  0  0  0  0  0  0  0  0
   -1.3896    2.1194    0.9107 H   0  0  0  0  0  0  0  0  0  0  0  0
   -0.5583    2.6774   -0.5451 H   0  0  0  0  0  0  0  0  0  0  0  0
   -2.5911   -1.1355   -0.5451 H   0  0  0  0  0  0  0  0  0  0  0  0
   -3.5465    0.3485   -0.4935 H   0  0  0  0  0  0  0  0  0  0  0  0
   -2.5911   -0.1344    0.9107 H   0  0  0  0  0  0  0  0  0  0  0  0
  1  2  1  0
  1  6  1  0
  1  7  1  0
  1  8  1  0
  2  3  1  0
  2  5  1  0
  2 20  1  0
  3  4  2  3
  3  9  1  0
  4 10  1  0
  4 11  1  0
  5 12  1  0
 13 14  1  0
 13 17  1  0
 13 18  1  0
 13 19  1  0
 14 15  1  0
 14 16  1  0
 15 21  1  0
 15 22  1  0
 15 23  1  0
 16 24  1  0
 16 25  1  0
 16 26  1  0
M  RAD  1  14   2
M  END
>  <reaction>  (8) 
rxn_983

>  <mol_properties>  (8) 
{"1": {"label": "*1", "atom_type": "Cs"}, "4": {"label": "*0", "atom_type": "S2s"}, "12": {"label": "*4", "atom_type": "Cs"}, "13": {"label": "*3", "atom_type": "Cs"}, "19": {"label": "*2", "atom_type": "H0"}}

>  <type>  (8) 
unop_4

>  <geom_source>  (8) 
Heuristics

$$$$

     RDKit          3D

 26 24  0  0  0  0  0  0  0  0999 V2000
    0.7375   -0.3423    1.9465 C   0  0  0  0  0  0  0  0  0  0  0  0
    0.7123   -0.3288    0.4271 C   0  0  0  0  0  0  0  0  0  0  0  0
    1.8699    0.3632   -0.2294 C   0  0  0  0  0  0  0  0  0  0  0  0
    2.9309    0.8610    0.3876 C   0  0  0  0  0  0  0  0  0  0  0  0
    0.5229   -2.0119   -0.2768 S   0  0  0  0  0  0  0  0  0  0  0  0
    1.6099   -0.8818    2.3199 H   0  0  0  0  0  0  0  0  0  0  0  0
    0.7713    0.6767    2.3386 H   0  0  0  0  0  0  0  0  0  0  0  0
   -0.1526   -0.8348    2.3348 H   0  0  0  0  0  0  0  0  0  0  0  0
    1.8039    0.4281   -1.3110 H   0  0  0  0  0  0  0  0  0  0  0  0
    3.7257    1.3355   -0.1734 H   0  0  0  0  0  0  0  0  0  0  0  0
    3.0507    0.8191    1.4633 H   0  0  0  0  0  0  0  0  0  0  0  0
    1.7422   -2.4494    0.0673 H   0  0  0  0  0  0  0  0  0  0  0  0
   -1.4938    0.8473   -1.9074 C   0  0  0  0  0  0  0  0  0  0  0  0
   -1.4938    0.8473   -0.3817 C   0  0  0  0  0  3  0  0  0  0  0  0
   -1.4938    2.2719    0.1643 C   0  0  0  0  0  0  0  0  0  0  0  0
   -2.6766    0.0532    0.1643 C   0  0  0  0  0  0  0  0  0  0  0  0
   -0.6331    1.3895   -2.3044 H   0  0  0  0  0  0  0  0  0  0  0  0
   -2.3978    1.3293   -2.2912 H   0  0  0  0  0  0  0  0  0  0  0  0
   -1.4644   -0.1696   -2.3045 H   0  0  0  0  0  0  0  0  0  0  0  0
   -0.3901    0.2589    0.0229 H   0  0  0  0  0  0  0  0  0  0  0  0
   -2.3978    2.8028   -0.1484 H   0  0  0  0  0  0  0  0  0  0  0  0
   -1.4644    2.2788    1.2559 H   0  0  0  0  0  0  0  0  0  0  0  0
   -0.6331    2.8367   -0.1999 H   0  0  0  0  0  0  0  0  0  0  0  0
   -2.6658   -0.9762   -0.1999 H   0  0  0  0  0  0  0  0  0  0  0  0
   -3.6213    0.5079   -0.1483 H   0  0  0  0  0  0  0  0  0  0  0  0
   -2.6659    0.0249    1.2559 H   0  0  0  0  0  0  0  0  0  0  0  0
  1  2  1  0
  1  6  1  0
  1  7  1  0
  1  8  1  0
  2  3  1  0
  2  5  1  0
  2 20  1  0
  3  4  2  3
  3  9  1  0
  4 10  1  0
  4 11  1  0
  5 12  1  0
 13 14  1  0
 13 17  1  0
 13 18  1  0
 13 19  1  0
 14 15  1  0
 14 16  1  0
 15 21  1  0
 15 22  1  0
 15 23  1  0
 16 24  1  0
 16 25  1  0
 16 26  1  0
M  RAD  1  14   2
M  END
>  <reaction>  (9) 
rxn_983

>  <mol_properties>  (9) 
{"1": {"label": "*1", "atom_type": "Cs"}, "4": {"label": "*0", "atom_type": "S2s"}, "12": {"label": "*4", "atom_type": "Cs"}, "13": {"label": "*3", "atom_type": "Cs"}, "19": {"label": "*2", "atom_type": "H0"}}

>  <type>  (9) 
unop_5

>  <geom_source>  (9) 
Heuristics

$$$$

     RDKit          3D

 26 24  0  0  0  0  0  0  0  0999 V2000
    0.4969   -2.0618    0.2577 C   0  0  0  0  0  0  0  0  0  0  0  0
    0.7574   -0.5724    0.1054 C   0  0  0  0  0  0  0  0  0  0  0  0
    0.3386    0.2763    1.2691 C   0  0  0  0  0  0  0  0  0  0  0  0
   -0.1338   -0.1658    2.4249 C   0  0  0  0  0  0  0  0  0  0  0  0
    2.5059   -0.2154   -0.3180 S   0  0  0  0  0  0  0  0  0  0  0  0
    1.0590   -2.4748    1.0974 H   0  0  0  0  0  0  0  0  0  0  0  0
   -0.5651   -2.2497    0.4310 H   0  0  0  0  0  0  0  0  0  0  0  0
    0.8015   -2.5927   -0.6429 H   0  0  0  0  0  0  0  0  0  0  0  0
    0.4643    1.3440    1.1189 H   0  0  0  0  0  0  0  0  0  0  0  0
   -0.4006    0.5247    3.2145 H   0  0  0  0  0  0  0  0  0  0  0  0
   -0.2745   -1.2199    2.6303 H   0  0  0  0  0  0  0  0  0  0  0  0
    3.0148   -0.5582    0.8737 H   0  0  0  0  0  0  0  0  0  0  0  0
   -1.4488    0.6037   -2.2291 C   0  0  0  0  0  0  0  0  0  0  0  0
   -1.4488    0.6037   -0.7034 C   0  0  0  0  0  3  0  0  0  0  0  0
   -1.4488    2.0284   -0.1574 C   0  0  0  0  0  0  0  0  0  0  0  0
   -2.6316   -0.1903   -0.1574 C   0  0  0  0  0  0  0  0  0  0  0  0
   -0.5880    1.1459   -2.6262 H   0  0  0  0  0  0  0  0  0  0  0  0
   -2.3527    1.0857   -2.6129 H   0  0  0  0  0  0  0  0  0  0  0  0
   -1.4194   -0.4131   -2.6262 H   0  0  0  0  0  0  0  0  0  0  0  0
   -0.3451    0.0153   -0.2988 H   0  0  0  0  0  0  0  0  0  0  0  0
   -2.3527    2.5593   -0.4701 H   0  0  0  0  0  0  0  0  0  0  0  0
   -1.4193    2.0352    0.9342 H   0  0  0  0  0  0  0  0  0  0  0  0
   -0.5880    2.5932   -0.5216 H   0  0  0  0  0  0  0  0  0  0  0  0
   -2.6208   -1.2198   -0.5216 H   0  0  0  0  0  0  0  0  0  0  0  0
   -3.5762    0.2643   -0.4700 H   0  0  0  0  0  0  0  0  0  0  0  0
   -2.6208   -0.2186    0.9342 H   0  0  0  0  0  0  0  0  0  0  0  0
  1  2  1  0
  1  6  1  0
  1  7  1  0
  1  8  1  0
  2  3  1  0
  2  5  1  0
  2 20  1  0
  3  4  2  3
  3  9  1  0
  4 10  1  0
  4 11  1  0
  5 12  1  0
 13 14  1  0
 13 17  1  0
 13 18  1  0
 13 19  1  0
 14 15  1  0
 14 16  1  0
 15 21  1  0
 15 22  1  0
 15 23  1  0
 16 24  1  0
 16 25  1  0
 16 26  1  0
M  RAD  1  14   2
M  END
>  <reaction>  (10) 
rxn_983

>  <mol_properties>  (10) 
{"1": {"label": "*1", "atom_type": "Cs"}, "4": {"label": "*0", "atom_type": "S2s"}, "12": {"label": "*4", "atom_type": "Cs"}, "13": {"label": "*3", "atom_type": "Cs"}, "19": {"label": "*2", "atom_type": "H0"}}

>  <type>  (10) 
unop_6

>  <geom_source>  (10) 
Heuristics

$$$$

     RDKit          3D

 26 24  0  0  0  0  0  0  0  0999 V2000
    0.3300   -1.8386    1.0364 C   0  0  0  0  0  0  0  0  0  0  0  0
    0.6951   -0.6231    0.2006 C   0  0  0  0  0  0  0  0  0  0  0  0
    0.6836    0.6870    0.9310 C   0  0  0  0  0  0  0  0  0  0  0  0
    0.4846    0.8522    2.2300 C   0  0  0  0  0  0  0  0  0  0  0  0
    2.3008   -0.8325   -0.6608 S   0  0  0  0  0  0  0  0  0  0  0  0
    1.0451   -1.9861    1.8479 H   0  0  0  0  0  0  0  0  0  0  0  0
   -0.6640   -1.7192    1.4732 H   0  0  0  0  0  0  0  0  0  0  0  0
    0.3333   -2.7361    0.4197 H   0  0  0  0  0  0  0  0  0  0  0  0
    0.8761    1.5544    0.3073 H   0  0  0  0  0  0  0  0  0  0  0  0
    0.5053    1.8399    2.6720 H   0  0  0  0  0  0  0  0  0  0  0  0
    0.2935    0.0221    2.8990 H   0  0  0  0  0  0  0  0  0  0  0  0
    3.0635   -0.7654    0.4393 H   0  0  0  0  0  0  0  0  0  0  0  0
   -1.5110    0.5530   -2.1340 C   0  0  0  0  0  0  0  0  0  0  0  0
   -1.5110    0.5530   -0.6082 C   0  0  0  0  0  3  0  0  0  0  0  0
   -1.5110    1.9777   -0.0622 C   0  0  0  0  0  0  0  0  0  0  0  0
   -2.6939   -0.2411   -0.0622 C   0  0  0  0  0  0  0  0  0  0  0  0
   -0.6503    1.0952   -2.5310 H   0  0  0  0  0  0  0  0  0  0  0  0
   -2.4150    1.0350   -2.5177 H   0  0  0  0  0  0  0  0  0  0  0  0
   -1.4816   -0.4639   -2.5310 H   0  0  0  0  0  0  0  0  0  0  0  0
   -0.4074   -0.0354   -0.2036 H   0  0  0  0  0  0  0  0  0  0  0  0
   -2.4150    2.5085   -0.3749 H   0  0  0  0  0  0  0  0  0  0  0  0
   -1.4816    1.9845    1.0294 H   0  0  0  0  0  0  0  0  0  0  0  0
   -0.6503    2.5424   -0.4264 H   0  0  0  0  0  0  0  0  0  0  0  0
   -2.6831   -1.2705   -0.4265 H   0  0  0  0  0  0  0  0  0  0  0  0
   -3.6385    0.2136   -0.3749 H   0  0  0  0  0  0  0  0  0  0  0  0
   -2.6831   -0.2694    1.0294 H   0  0  0  0  0  0  0  0  0  0  0  0
  1  2  1  0
  1  6  1  0
  1  7  1  0
  1  8  1  0
  2  3  1  0
  2  5  1  0
  2 20  1  0
  3  4  2  3
  3  9  1  0
  4 10  1  0
  4 11  1  0
  5 12  1  0
 13 14  1  0
 13 17  1  0
 13 18  1  0
 13 19  1  0
 14 15  1  0
 14 16  1  0
 15 21  1  0
 15 22  1  0
 15 23  1  0
 16 24  1  0
 16 25  1  0
 16 26  1  0
M  RAD  1  14   2
M  END
>  <reaction>  (11) 
rxn_983

>  <mol_properties>  (11) 
{"1": {"label": "*1", "atom_type": "Cs"}, "4": {"label": "*0", "atom_type": "S2s"}, "12": {"label": "*4", "atom_type": "Cs"}, "13": {"label": "*3", "atom_type": "Cs"}, "19": {"label": "*2", "atom_type": "H0"}}

>  <type>  (11) 
unop_7

>  <geom_source>  (11) 
Heuristics

$$$$

     RDKit          3D

 26 24  0  0  0  0  0  0  0  0999 V2000
    2.0439    0.6865    0.2075 C   0  0  0  0  0  0  0  0  0  0  0  0
    0.9525   -0.3600    0.0552 C   0  0  0  0  0  0  0  0  0  0  0  0
    1.4317   -1.7757   -0.0713 C   0  0  0  0  0  0  0  0  0  0  0  0
    2.6867   -2.1852    0.0364 C   0  0  0  0  0  0  0  0  0  0  0  0
   -0.3007   -0.2522    1.3901 S   0  0  0  0  0  0  0  0  0  0  0  0
    2.6194    0.5233    1.1206 H   0  0  0  0  0  0  0  0  0  0  0  0
    2.7306    0.6508   -0.6412 H   0  0  0  0  0  0  0  0  0  0  0  0
    1.6075    1.6827    0.2600 H   0  0  0  0  0  0  0  0  0  0  0  0
    0.6475   -2.5045   -0.2508 H   0  0  0  0  0  0  0  0  0  0  0  0
    2.9370   -3.2339   -0.0592 H   0  0  0  0  0  0  0  0  0  0  0  0
    3.5072   -1.5025    0.2202 H   0  0  0  0  0  0  0  0  0  0  0  0
    0.4977   -0.6932    2.3723 H   0  0  0  0  0  0  0  0  0  0  0  0
   -1.2536    0.8162   -2.2793 C   0  0  0  0  0  0  0  0  0  0  0  0
   -1.2536    0.8162   -0.7536 C   0  0  0  0  0  3  0  0  0  0  0  0
   -1.2536    2.2408   -0.2076 C   0  0  0  0  0  0  0  0  0  0  0  0
   -2.4365    0.0221   -0.2075 C   0  0  0  0  0  0  0  0  0  0  0  0
   -0.3929    1.3584   -2.6763 H   0  0  0  0  0  0  0  0  0  0  0  0
   -2.1576    1.2982   -2.6631 H   0  0  0  0  0  0  0  0  0  0  0  0
   -1.2242   -0.2007   -2.6764 H   0  0  0  0  0  0  0  0  0  0  0  0
   -0.1500    0.2278   -0.3490 H   0  0  0  0  0  0  0  0  0  0  0  0
   -2.1576    2.7717   -0.5203 H   0  0  0  0  0  0  0  0  0  0  0  0
   -1.2242    2.2477    0.8840 H   0  0  0  0  0  0  0  0  0  0  0  0
   -0.3929    2.8056   -0.5718 H   0  0  0  0  0  0  0  0  0  0  0  0
   -2.4257   -1.0073   -0.5718 H   0  0  0  0  0  0  0  0  0  0  0  0
   -3.3811    0.4768   -0.5202 H   0  0  0  0  0  0  0  0  0  0  0  0
   -2.4257   -0.0062    0.8841 H   0  0  0  0  0  0  0  0  0  0  0  0
  1  2  1  0
  1  6  1  0
  1  7  1  0
  1  8  1  0
  2  3  1  0
  2  5  1  0
  2 20  1  0
  3  4  2  3
  3  9  1  0
  4 10  1  0
  4 11  1  0
  5 12  1  0
 13 14  1  0
 13 17  1  0
 13 18  1  0
 13 19  1  0
 14 15  1  0
 14 16  1  0
 15 21  1  0
 15 22  1  0
 15 23  1  0
 16 24  1  0
 16 25  1  0
 16 26  1  0
M  RAD  1  14   2
M  END
>  <reaction>  (12) 
rxn_983

>  <mol_properties>  (12) 
{"1": {"label": "*1", "atom_type": "Cs"}, "4": {"label": "*0", "atom_type": "S2s"}, "12": {"label": "*4", "atom_type": "Cs"}, "13": {"label": "*3", "atom_type": "Cs"}, "19": {"label": "*2", "atom_type": "H0"}}

>  <type>  (12) 
unop_8

>  <geom_source>  (12) 
Heuristics

$$$$

     RDKit          3D

 26 24  0  0  0  0  0  0  0  0999 V2000
    1.1916   -1.4753   -0.9283 C   0  0  0  0  0  0  0  0  0  0  0  0
    0.7762   -0.4397    0.1033 C   0  0  0  0  0  0  0  0  0  0  0  0
    0.1322   -0.9880    1.3421 C   0  0  0  0  0  0  0  0  0  0  0  0
   -0.0084   -2.2699    1.6441 C   0  0  0  0  0  0  0  0  0  0  0  0
    2.1622    0.6674    0.5695 S   0  0  0  0  0  0  0  0  0  0  0  0
    1.9436   -2.1543   -0.5221 H   0  0  0  0  0  0  0  0  0  0  0  0
    0.3305   -2.0680   -1.2453 H   0  0  0  0  0  0  0  0  0  0  0  0
    1.6186   -0.9872   -1.8030 H   0  0  0  0  0  0  0  0  0  0  0  0
   -0.2239   -0.2349    2.0381 H   0  0  0  0  0  0  0  0  0  0  0  0
   -0.4788   -2.5719    2.5709 H   0  0  0  0  0  0  0  0  0  0  0  0
    0.3330   -3.0623    0.9894 H   0  0  0  0  0  0  0  0  0  0  0  0
    2.8653   -0.2571    1.2385 H   0  0  0  0  0  0  0  0  0  0  0  0
   -1.4300    0.7364   -2.2312 C   0  0  0  0  0  0  0  0  0  0  0  0
   -1.4300    0.7364   -0.7055 C   0  0  0  0  0  3  0  0  0  0  0  0
   -1.4300    2.1611   -0.1595 C   0  0  0  0  0  0  0  0  0  0  0  0
   -2.6128   -0.0576   -0.1595 C   0  0  0  0  0  0  0  0  0  0  0  0
   -0.5692    1.2786   -2.6283 H   0  0  0  0  0  0  0  0  0  0  0  0
   -2.3339    1.2184   -2.6150 H   0  0  0  0  0  0  0  0  0  0  0  0
   -1.4006   -0.2804   -2.6283 H   0  0  0  0  0  0  0  0  0  0  0  0
   -0.3263    0.1480   -0.3009 H   0  0  0  0  0  0  0  0  0  0  0  0
   -2.3339    2.6920   -0.4722 H   0  0  0  0  0  0  0  0  0  0  0  0
   -1.4005    2.1679    0.9321 H   0  0  0  0  0  0  0  0  0  0  0  0
   -0.5692    2.7259   -0.5237 H   0  0  0  0  0  0  0  0  0  0  0  0
   -2.6020   -1.0871   -0.5238 H   0  0  0  0  0  0  0  0  0  0  0  0
   -3.5574    0.3970   -0.4722 H   0  0  0  0  0  0  0  0  0  0  0  0
   -2.6020   -0.0859    0.9321 H   0  0  0  0  0  0  0  0  0  0  0  0
  1  2  1  0
  1  6  1  0
  1  7  1  0
  1  8  1  0
  2  3  1  0
  2  5  1  0
  2 20  1  0
  3  4  2  3
  3  9  1  0
  4 10  1  0
  4 11  1  0
  5 12  1  0
 13 14  1  0
 13 17  1  0
 13 18  1  0
 13 19  1  0
 14 15  1  0
 14 16  1  0
 15 21  1  0
 15 22  1  0
 15 23  1  0
 16 24  1  0
 16 25  1  0
 16 26  1  0
M  RAD  1  14   2
M  END
>  <reaction>  (13) 
rxn_983

>  <mol_properties>  (13) 
{"1": {"label": "*1", "atom_type": "Cs"}, "4": {"label": "*0", "atom_type": "S2s"}, "12": {"label": "*4", "atom_type": "Cs"}, "13": {"label": "*3", "atom_type": "Cs"}, "19": {"label": "*2", "atom_type": "H0"}}

>  <type>  (13) 
unop_9

>  <geom_source>  (13) 
Heuristics

$$$$

     RDKit          3D

 26 24  0  0  0  0  0  0  0  0999 V2000
    2.0691    0.3173   -0.4913 C   0  0  0  0  0  0  0  0  0  0  0  0
    0.8731   -0.4553    0.0399 C   0  0  0  0  0  0  0  0  0  0  0  0
    1.1127   -1.9130    0.3000 C   0  0  0  0  0  0  0  0  0  0  0  0
    2.2751   -2.5404    0.2019 C   0  0  0  0  0  0  0  0  0  0  0  0
    0.1535    0.3257    1.5353 S   0  0  0  0  0  0  0  0  0  0  0  0
    2.8905    0.3121    0.2276 H   0  0  0  0  0  0  0  0  0  0  0  0
    2.4274   -0.1243   -1.4240 H   0  0  0  0  0  0  0  0  0  0  0  0
    1.7955    1.3542   -0.6801 H   0  0  0  0  0  0  0  0  0  0  0  0
    0.2329   -2.4677    0.6108 H   0  0  0  0  0  0  0  0  0  0  0  0
    2.3539   -3.5973    0.4212 H   0  0  0  0  0  0  0  0  0  0  0  0
    3.1848   -2.0352   -0.0985 H   0  0  0  0  0  0  0  0  0  0  0  0
    1.1735    0.0340    2.3544 H   0  0  0  0  0  0  0  0  0  0  0  0
   -1.3330    0.7209   -2.2946 C   0  0  0  0  0  0  0  0  0  0  0  0
   -1.3330    0.7209   -0.7689 C   0  0  0  0  0  3  0  0  0  0  0  0
   -1.3330    2.1455   -0.2229 C   0  0  0  0  0  0  0  0  0  0  0  0
   -2.5159   -0.0732   -0.2229 C   0  0  0  0  0  0  0  0  0  0  0  0
   -0.4723    1.2631   -2.6917 H   0  0  0  0  0  0  0  0  0  0  0  0
   -2.2370    1.2029   -2.6784 H   0  0  0  0  0  0  0  0  0  0  0  0
   -1.3036   -0.2960   -2.6917 H   0  0  0  0  0  0  0  0  0  0  0  0
   -0.2294    0.1325   -0.3643 H   0  0  0  0  0  0  0  0  0  0  0  0
   -2.2370    2.6764   -0.5356 H   0  0  0  0  0  0  0  0  0  0  0  0
   -1.3036    2.1523    0.8687 H   0  0  0  0  0  0  0  0  0  0  0  0
   -0.4723    2.7103   -0.5871 H   0  0  0  0  0  0  0  0  0  0  0  0
   -2.5051   -1.1026   -0.5871 H   0  0  0  0  0  0  0  0  0  0  0  0
   -3.4605    0.3814   -0.5355 H   0  0  0  0  0  0  0  0  0  0  0  0
   -2.5051   -0.1015    0.8687 H   0  0  0  0  0  0  0  0  0  0  0  0
  1  2  1  0
  1  6  1  0
  1  7  1  0
  1  8  1  0
  2  3  1  0
  2  5  1  0
  2 20  1  0
  3  4  2  3
  3  9  1  0
  4 10  1  0
  4 11  1  0
  5 12  1  0
 13 14  1  0
 13 17  1  0
 13 18  1  0
 13 19  1  0
 14 15  1  0
 14 16  1  0
 15 21  1  0
 15 22  1  0
 15 23  1  0
 16 24  1  0
 16 25  1  0
 16 26  1  0
M  RAD  1  14   2
M  END
>  <reaction>  (14) 
rxn_983

>  <mol_properties>  (14) 
{"1": {"label": "*1", "atom_type": "Cs"}, "4": {"label": "*0", "atom_type": "S2s"}, "12": {"label": "*4", "atom_type": "Cs"}, "13": {"label": "*3", "atom_type": "Cs"}, "19": {"label": "*2", "atom_type": "H0"}}

>  <type>  (14) 
unop_10

>  <geom_source>  (14) 
Heuristics

$$$$

     RDKit          3D

 26 24  0  0  0  0  0  0  0  0999 V2000
    0.3825   -1.2304    1.6834 C   0  0  0  0  0  0  0  0  0  0  0  0
    0.6430   -0.5552    0.3472 C   0  0  0  0  0  0  0  0  0  0  0  0
    1.2095    0.8314    0.4267 C   0  0  0  0  0  0  0  0  0  0  0  0
    1.5833    1.4573    1.5325 C   0  0  0  0  0  0  0  0  0  0  0  0
    1.6870   -1.5834   -0.7559 S   0  0  0  0  0  0  0  0  0  0  0  0
    1.3093   -1.3592    2.2455 H   0  0  0  0  0  0  0  0  0  0  0  0
   -0.3044   -0.6333    2.2875 H   0  0  0  0  0  0  0  0  0  0  0  0
   -0.0559   -2.2153    1.5299 H   0  0  0  0  0  0  0  0  0  0  0  0
    1.3240    1.3290   -0.5313 H   0  0  0  0  0  0  0  0  0  0  0  0
    1.9936    2.4580    1.4905 H   0  0  0  0  0  0  0  0  0  0  0  0
    1.4963    1.0064    2.5134 H   0  0  0  0  0  0  0  0  0  0  0  0
    2.8178   -1.4494   -0.0491 H   0  0  0  0  0  0  0  0  0  0  0  0
   -1.5632    0.6210   -1.9873 C   0  0  0  0  0  0  0  0  0  0  0  0
   -1.5632    0.6210   -0.4616 C   0  0  0  0  0  3  0  0  0  0  0  0
   -1.5632    2.0456    0.0844 C   0  0  0  0  0  0  0  0  0  0  0  0
   -2.7460   -0.1731    0.0844 C   0  0  0  0  0  0  0  0  0  0  0  0
   -0.7024    1.1632   -2.3844 H   0  0  0  0  0  0  0  0  0  0  0  0
   -2.4671    1.1030   -2.3711 H   0  0  0  0  0  0  0  0  0  0  0  0
   -1.5338   -0.3959   -2.3844 H   0  0  0  0  0  0  0  0  0  0  0  0
   -0.4595    0.0326   -0.0570 H   0  0  0  0  0  0  0  0  0  0  0  0
   -2.4671    2.5765   -0.2283 H   0  0  0  0  0  0  0  0  0  0  0  0
   -1.5337    2.0525    1.1760 H   0  0  0  0  0  0  0  0  0  0  0  0
   -0.7024    2.6104   -0.2798 H   0  0  0  0  0  0  0  0  0  0  0  0
   -2.7352   -1.2025   -0.2799 H   0  0  0  0  0  0  0  0  0  0  0  0
   -3.6906    0.2816   -0.2282 H   0  0  0  0  0  0  0  0  0  0  0  0
   -2.7352   -0.2014    1.1760 H   0  0  0  0  0  0  0  0  0  0  0  0
  1  2  1  0
  1  6  1  0
  1  7  1  0
  1  8  1  0
  2  3  1  0
  2  5  1  0
  2 20  1  0
  3  4  2  3
  3  9  1  0
  4 10  1  0
  4 11  1  0
  5 12  1  0
 13 14  1  0
 13 17  1  0
 13 18  1  0
 13 19  1  0
 14 15  1  0
 14 16  1  0
 15 21  1  0
 15 22  1  0
 15 23  1  0
 16 24  1  0
 16 25  1  0
 16 26  1  0
M  RAD  1  14   2
M  END
>  <reaction>  (15) 
rxn_983

>  <mol_properties>  (15) 
{"1": {"label": "*1", "atom_type": "Cs"}, "4": {"label": "*0", "atom_type": "S2s"}, "12": {"label": "*4", "atom_type": "Cs"}, "13": {"label": "*3", "atom_type": "Cs"}, "19": {"label": "*2", "atom_type": "H0"}}

>  <type>  (15) 
unop_11

>  <geom_source>  (15) 
Heuristics

$$$$

     RDKit          3D

 26 24  0  0  0  0  0  0  0  0999 V2000
    1.5656   -0.8856   -1.1022 C   0  0  0  0  0  0  0  0  0  0  0  0
    0.7598   -0.4560    0.1126 C   0  0  0  0  0  0  0  0  0  0  0  0
    0.3747   -1.5599    1.0524 C   0  0  0  0  0  0  0  0  0  0  0  0
    0.7544   -2.8257    0.9635 C   0  0  0  0  0  0  0  0  0  0  0  0
    1.5833    0.8890    1.0490 S   0  0  0  0  0  0  0  0  0  0  0  0
    2.5216   -1.3207   -0.8052 H   0  0  0  0  0  0  0  0  0  0  0  0
    1.0162   -1.6297   -1.6833 H   0  0  0  0  0  0  0  0  0  0  0  0
    1.7717   -0.0283   -1.7412 H   0  0  0  0  0  0  0  0  0  0  0  0
   -0.2601   -1.2511    1.8770 H   0  0  0  0  0  0  0  0  0  0  0  0
    0.4335   -3.5528    1.6982 H   0  0  0  0  0  0  0  0  0  0  0  0
    1.3909   -3.1870    0.1651 H   0  0  0  0  0  0  0  0  0  0  0  0
    2.5897    0.1400    1.5208 H   0  0  0  0  0  0  0  0  0  0  0  0
   -1.4463    0.7201   -2.2219 C   0  0  0  0  0  0  0  0  0  0  0  0
   -1.4463    0.7201   -0.6962 C   0  0  0  0  0  3  0  0  0  0  0  0
   -1.4463    2.1448   -0.1502 C   0  0  0  0  0  0  0  0  0  0  0  0
   -2.6291   -0.0739   -0.1502 C   0  0  0  0  0  0  0  0  0  0  0  0
   -0.5856    1.2624   -2.6189 H   0  0  0  0  0  0  0  0  0  0  0  0
   -2.3502    1.2021   -2.6057 H   0  0  0  0  0  0  0  0  0  0  0  0
   -1.4169   -0.2967   -2.6190 H   0  0  0  0  0  0  0  0  0  0  0  0
   -0.3426    0.1317   -0.2916 H   0  0  0  0  0  0  0  0  0  0  0  0
   -2.3503    2.6757   -0.4629 H   0  0  0  0  0  0  0  0  0  0  0  0
   -1.4169    2.1516    0.9414 H   0  0  0  0  0  0  0  0  0  0  0  0
   -0.5856    2.7096   -0.5144 H   0  0  0  0  0  0  0  0  0  0  0  0
   -2.6183   -1.1034   -0.5144 H   0  0  0  0  0  0  0  0  0  0  0  0
   -3.5737    0.3807   -0.4628 H   0  0  0  0  0  0  0  0  0  0  0  0
   -2.6184   -0.1022    0.9414 H   0  0  0  0  0  0  0  0  0  0  0  0
  1  2  1  0
  1  6  1  0
  1  7  1  0
  1  8  1  0
  2  3  1  0
  2  5  1  0
  2 20  1  0
  3  4  2  3
  3  9  1  0
  4 10  1  0
  4 11  1  0
  5 12  1  0
 13 14  1  0
 13 17  1  0
 13 18  1  0
 13 19  1  0
 14 15  1  0
 14 16  1  0
 15 21  1  0
 15 22  1  0
 15 23  1  0
 16 24  1  0
 16 25  1  0
 16 26  1  0
M  RAD  1  14   2
M  END
>  <reaction>  (16) 
rxn_983

>  <mol_properties>  (16) 
{"1": {"label": "*1", "atom_type": "Cs"}, "4": {"label": "*0", "atom_type": "S2s"}, "12": {"label": "*4", "atom_type": "Cs"}, "13": {"label": "*3", "atom_type": "Cs"}, "19": {"label": "*2", "atom_type": "H0"}}

>  <type>  (16) 
unop_12

>  <geom_source>  (16) 
Heuristics

$$$$

     RDKit          3D

 26 24  0  0  0  0  0  0  0  0999 V2000
    1.4744    0.7812   -1.5536 S   0  0  0  0  0  0  0  0  0  0  0  0
    1.1888   -0.2381   -0.0674 C   0  0  0  0  0  0  0  0  0  0  0  0
    1.6191   -1.6843   -0.3147 C   0  0  0  0  0  0  0  0  0  0  0  0
   -2.0750   -1.0566   -0.3613 C   0  0  0  0  0  0  0  0  0  0  0  0
   -1.7771    0.8603    1.2577 C   0  0  0  0  0  0  0  0  0  0  0  0
   -1.5210    1.2523   -1.2253 C   0  0  0  0  0  0  0  0  0  0  0  0
   -1.3412    0.2557   -0.0784 C   0  0  0  0  0  3  0  0  0  0  0  0
    1.8967    0.3553    1.1240 C   0  0  0  0  0  0  0  0  0  0  0  0
    3.2230    0.5272    1.1666 C   0  0  0  0  0  0  0  0  0  0  0  0
   -0.1139   -0.2342    0.1855 H   0  0  0  0  0  0  0  0  0  0  0  0
    2.6912   -1.7367   -0.5998 H   0  0  0  0  0  0  0  0  0  0  0  0
    1.0112   -2.1217   -1.1342 H   0  0  0  0  0  0  0  0  0  0  0  0
    1.4561   -2.2912    0.6012 H   0  0  0  0  0  0  0  0  0  0  0  0
   -1.8852   -1.7810    0.4586 H   0  0  0  0  0  0  0  0  0  0  0  0
   -3.1694   -0.8834   -0.4468 H   0  0  0  0  0  0  0  0  0  0  0  0
   -1.7030   -1.5022   -1.3079 H   0  0  0  0  0  0  0  0  0  0  0  0
   -1.5869    0.1387    2.0800 H   0  0  0  0  0  0  0  0  0  0  0  0
   -1.1927    1.7814    1.4653 H   0  0  0  0  0  0  0  0  0  0  0  0
   -2.8591    1.1131    1.2393 H   0  0  0  0  0  0  0  0  0  0  0  0
   -1.1481    0.8101   -2.1732 H   0  0  0  0  0  0  0  0  0  0  0  0
   -0.9362    2.1739   -1.0214 H   0  0  0  0  0  0  0  0  0  0  0  0
   -2.5923    1.5213   -1.3467 H   0  0  0  0  0  0  0  0  0  0  0  0
    1.3016    0.6573    1.9802 H   0  0  0  0  0  0  0  0  0  0  0  0
    3.6853    0.9599    2.0477 H   0  0  0  0  0  0  0  0  0  0  0  0
    3.8537    0.2448    0.3295 H   0  0  0  0  0  0  0  0  0  0  0  0
    0.5001    0.0967   -2.3050 H   0  0  0  0  0  0  0  0  0  0  0  0
  1  2  1  0
  1 26  1  0
  2  3  1  0
  2  8  1  0
  2 10  1  0
  3 11  1  0
  3 12  1  0
  3 13  1  0
  4  7  1  0
  4 14  1  0
  4 15  1  0
  4 16  1  0
  5  7  1  0
  5 17  1  0
  5 18  1  0
  5 19  1  0
  6  7  1  0
  6 20  1  0
  6 21  1  0
  6 22  1  0
  8  9  2  3
  8 23  1  0
  9 24  1  0
  9 25  1  0
M  RAD  1   7   2
M  END
>  <reaction>  (17) 
rxn_983

>  <mol_properties>  (17) 
{"1": {"label": "*1", "atom_type": "Cs"}, "4": {"label": "*0", "atom_type": "S2s"}, "12": {"label": "*4", "atom_type": "Cs"}, "13": {"label": "*3", "atom_type": "Cs"}, "19": {"label": "*2", "atom_type": "H0"}}

>  <type>  (17) 
unop_13

>  <geom_source>  (17) 
AutoTST

$$$$
