
     RDKit          3D

 15 15  0  0  0  0  0  0  0  0999 V2000
    2.2031   -0.2111   -0.1693 C   0  0  0  0  0  0  0  0  0  0  0  0
    0.7140   -0.0314   -0.0623 C   0  0  0  0  0  0  0  0  0  0  0  0
   -0.0114    0.5491   -1.0982 C   0  0  0  0  0  0  0  0  0  0  0  0
   -1.3882    0.6886   -1.0150 C   0  0  0  0  0  0  0  0  0  0  0  0
   -2.0661    0.2493    0.1118 C   0  0  0  0  0  0  0  0  0  0  0  0
   -1.3551   -0.3278    1.1528 C   0  0  0  0  0  0  0  0  0  0  0  0
    0.0216   -0.4648    1.0642 C   0  0  0  0  0  0  0  0  0  0  0  0
    2.6776   -0.1836    0.8122 H   0  0  0  0  0  0  0  0  0  0  0  0
    2.4446   -1.1749   -0.6249 H   0  0  0  0  0  0  0  0  0  0  0  0
    2.6532    0.5664   -0.7875 H   0  0  0  0  0  0  0  0  0  0  0  0
    0.5104    0.8989   -1.9819 H   0  0  0  0  0  0  0  0  0  0  0  0
   -1.9328    1.1452   -1.8322 H   0  0  0  0  0  0  0  0  0  0  0  0
   -3.1409    0.3597    0.1800 H   0  0  0  0  0  0  0  0  0  0  0  0
   -1.8736   -0.6702    2.0398 H   0  0  0  0  0  0  0  0  0  0  0  0
    0.5695   -0.9141    1.8849 H   0  0  0  0  0  0  0  0  0  0  0  0
  1  2  1  0
  1  8  1  0
  1  9  1  0
  1 10  1  0
  2  3  2  0
  2  7  1  0
  3  4  1  0
  3 11  1  0
  4  5  2  0
  4 12  1  0
  5  6  1  0
  5 13  1  0
  6  7  2  0
  6 14  1  0
  7 15  1  0
M  END
>  <reaction>  (1) 
rxn_1467

>  <mol_properties>  (1) 
{"0": {"label": "donator", "atom_type": "Cs"}, "7": {"label": "d_hydrogen", "atom_type": "H0"}}

>  <type>  (1) 
r1h

$$$$

     RDKit          3D

  7  6  0  0  0  0  0  0  0  0999 V2000
   -2.0652    0.3855   -0.2963 S   0  0  0  0  0  0  0  0  0  0  0  0
   -0.7169   -0.5853    0.1792 C   0  0  0  0  0  3  0  0  0  0  0  0
    0.5987   -0.2168    0.0254 C   0  0  0  0  0  0  0  0  0  0  0  0
    1.7547    0.1211   -0.1163 C   0  0  0  0  0  0  0  0  0  0  0  0
   -1.3643    1.4227   -0.7731 H   0  0  0  0  0  0  0  0  0  0  0  0
   -0.9781   -1.5363    0.6220 H   0  0  0  0  0  0  0  0  0  0  0  0
    2.7711    0.4089   -0.2366 H   0  0  0  0  0  0  0  0  0  0  0  0
  1  2  1  0
  1  5  1  0
  2  3  1  0
  2  6  1  0
  3  4  3  0
  4  7  1  0
M  RAD  1   2   2
M  END
>  <reaction>  (2) 
rxn_1467

>  <mol_properties>  (2) 
{"1": {"label": "acceptor", "atom_type": "Cs"}}

>  <type>  (2) 
r2

$$$$

     RDKit          3D

  8  7  0  0  0  0  0  0  0  0999 V2000
   -0.7014    1.0753    1.5530 S   0  0  0  0  0  0  0  0  0  0  0  0
   -0.3105   -0.4583    0.6462 C   0  0  0  0  0  0  0  0  0  0  0  0
    0.0935   -0.2424   -0.7319 C   0  0  0  0  0  0  0  0  0  0  0  0
    0.4431   -0.0604   -1.8621 C   0  0  0  0  0  0  0  0  0  0  0  0
    0.4994    1.6466    1.3970 H   0  0  0  0  0  0  0  0  0  0  0  0
   -1.2277   -1.0477    0.6819 H   0  0  0  0  0  0  0  0  0  0  0  0
    0.4563   -1.0151    1.1841 H   0  0  0  0  0  0  0  0  0  0  0  0
    0.7474    0.1020   -2.8681 H   0  0  0  0  0  0  0  0  0  0  0  0
  1  2  1  0
  1  5  1  0
  2  3  1  0
  2  6  1  0
  2  7  1  0
  3  4  3  0
  4  8  1  0
M  END
>  <reaction>  (3) 
rxn_1467

>  <mol_properties>  (3) 
{"1": {"label": "acceptor", "atom_type": "Cs"}, "7": {"label": "a_hydrogen", "atom_type": "H0"}}

>  <type>  (3) 
r2h

$$$$

     RDKit          3D

 22 21  0  0  0  0  0  0  0  0999 V2000
   -0.9285   -2.1074    0.6751 S   0  0  0  0  0  0  0  0  0  0  0  0
   -0.6003   -0.9916    2.0274 C   0  0  0  0  0  0  0  0  0  0  0  0
   -1.5660    0.0214    2.2984 C   0  0  0  0  0  0  0  0  0  0  0  0
   -2.3264    0.9319    2.4899 C   0  0  0  0  0  0  0  0  0  0  0  0
   -1.1252   -1.1591   -0.2529 H   0  0  0  0  0  0  0  0  0  0  0  0
   -0.2998   -1.5662    2.9008 H   0  0  0  0  0  0  0  0  0  0  0  0
   -3.0204    1.7167    2.6718 H   0  0  0  0  0  0  0  0  0  0  0  0
    1.5264    0.4521    1.2180 C   0  0  0  0  0  0  0  0  0  0  0  0
    1.1895    0.6274   -0.1867 C   0  0  0  0  0  0  0  0  0  0  0  0
    0.2219    1.5635   -0.5745 C   0  0  0  0  0  3  0  0  0  0  0  0
   -0.1713    1.6721   -1.8964 C   0  0  0  0  0  0  0  0  0  0  0  0
    0.3922    0.8505   -2.8640 C   0  0  0  0  0  0  0  0  0  0  0  0
    1.3541   -0.0812   -2.4964 C   0  0  0  0  0  0  0  0  0  0  0  0
    1.7440   -0.1956   -1.1745 C   0  0  0  0  0  0  0  0  0  0  0  0
    0.5107   -0.3268    1.6955 H   0  0  0  0  0  0  0  0  0  0  0  0
    2.4163   -0.1325    1.4340 H   0  0  0  0  0  0  0  0  0  0  0  0
    1.4051    1.3231    1.8565 H   0  0  0  0  0  0  0  0  0  0  0  0
   -0.2279    2.1990    0.1791 H   0  0  0  0  0  0  0  0  0  0  0  0
   -0.9217    2.4012   -2.1755 H   0  0  0  0  0  0  0  0  0  0  0  0
    0.0851    0.9373   -3.8983 H   0  0  0  0  0  0  0  0  0  0  0  0
    1.7984   -0.7250   -3.2451 H   0  0  0  0  0  0  0  0  0  0  0  0
    2.4844   -0.9344   -0.8916 H   0  0  0  0  0  0  0  0  0  0  0  0
  1  2  1  0
  1  5  1  0
  2  3  1  0
  2  6  1  0
  2 15  1  0
  3  4  3  0
  4  7  1  0
  8  9  2  3
  8 16  1  0
  8 17  1  0
  9 10  1  0
  9 14  1  0
 10 11  1  0
 10 18  1  0
 11 12  2  0
 11 19  1  0
 12 13  1  0
 12 20  1  0
 13 14  2  0
 13 21  1  0
 14 22  1  0
M  RAD  1  10   2
M  END
>  <reaction>  (4) 
rxn_1467

>  <mol_properties>  (4) 
{"0": {"label": "*0", "atom_type": "S2s"}, "1": {"label": "*1", "atom_type": "Cs"}, "7": {"label": "*3", "atom_type": "Cd"}, "8": {"label": "*4", "atom_type": "Cd"}, "14": {"label": "*2", "atom_type": "H0"}}

>  <type>  (4) 
ts

$$$$

     RDKit          3D

 22 21  0  0  0  0  0  0  0  0999 V2000
    0.5887   -1.6826    2.7990 S   0  0  0  0  0  0  0  0  0  0  0  0
   -0.6900   -0.8412    1.8071 C   0  0  0  0  0  3  0  0  0  0  0  0
   -1.7659   -1.7129    1.3693 C   0  0  0  0  0  0  0  0  0  0  0  0
   -2.6526   -2.4314    1.0084 C   0  0  0  0  0  0  0  0  0  0  0  0
   -0.2342   -2.1096    3.7650 H   0  0  0  0  0  0  0  0  0  0  0  0
   -1.0950   -0.0011    2.3705 H   0  0  0  0  0  0  0  0  0  0  0  0
   -3.4405   -3.0697    0.6878 H   0  0  0  0  0  0  0  0  0  0  0  0
    0.4899    1.2926    0.8548 C   0  0  0  0  0  0  0  0  0  0  0  0
    0.4899    1.2926   -0.6489 C   0  0  0  0  0  0  0  0  0  0  0  0
    0.4899    2.4869   -1.3629 C   0  0  0  0  0  0  0  0  0  0  0  0
    0.5204    2.4902   -2.7489 C   0  0  0  0  0  0  0  0  0  0  0  0
    0.5499    1.2932   -3.4480 C   0  0  0  0  0  0  0  0  0  0  0  0
    0.5468    0.0959   -2.7489 C   0  0  0  0  0  0  0  0  0  0  0  0
    0.5163    0.0985   -1.3629 C   0  0  0  0  0  0  0  0  0  0  0  0
   -0.1000    0.2259    1.3309 H   0  0  0  0  0  0  0  0  0  0  0  0
    1.5121    1.3038    1.2416 H   0  0  0  0  0  0  0  0  0  0  0  0
   -0.0211    2.1705    1.2516 H   0  0  0  0  0  0  0  0  0  0  0  0
    0.4633    3.4280   -0.8251 H   0  0  0  0  0  0  0  0  0  0  0  0
    0.5177    3.4315   -3.2847 H   0  0  0  0  0  0  0  0  0  0  0  0
    0.5711    1.2935   -4.5303 H   0  0  0  0  0  0  0  0  0  0  0  0
    0.5649   -0.8452   -3.2847 H   0  0  0  0  0  0  0  0  0  0  0  0
    0.5104   -0.8429   -0.8251 H   0  0  0  0  0  0  0  0  0  0  0  0
  1  2  1  0
  1  5  1  0
  2  3  1  0
  2  6  1  0
  3  4  3  0
  4  7  1  0
  8  9  1  0
  8 15  1  0
  8 16  1  0
  8 17  1  0
  9 10  2  0
  9 14  1  0
 10 11  1  0
 10 18  1  0
 11 12  2  0
 11 19  1  0
 12 13  1  0
 12 20  1  0
 13 14  2  0
 13 21  1  0
 14 22  1  0
M  RAD  1   2   2
M  END
>  <reaction>  (5) 
rxn_1467

>  <mol_properties>  (5) 
{"0": {"label": "*0", "atom_type": "S2s"}, "1": {"label": "*1", "atom_type": "Cs"}, "7": {"label": "*3", "atom_type": "Cd"}, "8": {"label": "*4", "atom_type": "Cd"}, "14": {"label": "*2", "atom_type": "H0"}}

>  <type>  (5) 
unop_1

>  <geom_source>  (5) 
Heuristics

$$$$

     RDKit          3D

 22 21  0  0  0  0  0  0  0  0999 V2000
   -0.1514   -2.2276    0.7859 S   0  0  0  0  0  0  0  0  0  0  0  0
   -0.4419   -0.9320    2.0364 C   0  0  0  0  0  3  0  0  0  0  0  0
   -1.7804   -0.9446    2.5996 C   0  0  0  0  0  0  0  0  0  0  0  0
   -2.8836   -0.9551    3.0638 C   0  0  0  0  0  0  0  0  0  0  0  0
   -0.4289   -3.2655    1.5848 H   0  0  0  0  0  0  0  0  0  0  0  0
    0.2991   -1.0185    2.8307 H   0  0  0  0  0  0  0  0  0  0  0  0
   -3.8639   -0.9644    3.4762 H   0  0  0  0  0  0  0  0  0  0  0  0
    0.7381    1.2018    1.0841 C   0  0  0  0  0  0  0  0  0  0  0  0
    0.7381    1.2018   -0.4196 C   0  0  0  0  0  0  0  0  0  0  0  0
    0.7381    2.3962   -1.1337 C   0  0  0  0  0  0  0  0  0  0  0  0
    0.7686    2.3995   -2.5197 C   0  0  0  0  0  0  0  0  0  0  0  0
    0.7981    1.2025   -3.2187 C   0  0  0  0  0  0  0  0  0  0  0  0
    0.7950    0.0051   -2.5197 C   0  0  0  0  0  0  0  0  0  0  0  0
    0.7644    0.0078   -1.1337 C   0  0  0  0  0  0  0  0  0  0  0  0
    0.1482    0.1351    1.5602 H   0  0  0  0  0  0  0  0  0  0  0  0
    1.7603    1.2131    1.4709 H   0  0  0  0  0  0  0  0  0  0  0  0
    0.2271    2.0797    1.4808 H   0  0  0  0  0  0  0  0  0  0  0  0
    0.7115    3.3373   -0.5958 H   0  0  0  0  0  0  0  0  0  0  0  0
    0.7659    3.3407   -3.0554 H   0  0  0  0  0  0  0  0  0  0  0  0
    0.8193    1.2027   -4.3010 H   0  0  0  0  0  0  0  0  0  0  0  0
    0.8131   -0.9359   -3.0554 H   0  0  0  0  0  0  0  0  0  0  0  0
    0.7586   -0.9336   -0.5958 H   0  0  0  0  0  0  0  0  0  0  0  0
  1  2  1  0
  1  5  1  0
  2  3  1  0
  2  6  1  0
  3  4  3  0
  4  7  1  0
  8  9  1  0
  8 15  1  0
  8 16  1  0
  8 17  1  0
  9 10  2  0
  9 14  1  0
 10 11  1  0
 10 18  1  0
 11 12  2  0
 11 19  1  0
 12 13  1  0
 12 20  1  0
 13 14  2  0
 13 21  1  0
 14 22  1  0
M  RAD  1   2   2
M  END
>  <reaction>  (6) 
rxn_1467

>  <mol_properties>  (6) 
{"0": {"label": "*0", "atom_type": "S2s"}, "1": {"label": "*1", "atom_type": "Cs"}, "7": {"label": "*3", "atom_type": "Cd"}, "8": {"label": "*4", "atom_type": "Cd"}, "14": {"label": "*2", "atom_type": "H0"}}

>  <type>  (6) 
unop_2

>  <geom_source>  (6) 
Heuristics

$$$$

     RDKit          3D

 22 21  0  0  0  0  0  0  0  0999 V2000
    0.0870   -1.1938    3.3420 S   0  0  0  0  0  0  0  0  0  0  0  0
   -0.7408   -0.8699    1.7492 C   0  0  0  0  0  3  0  0  0  0  0  0
   -1.1641   -2.0699    1.0493 C   0  0  0  0  0  0  0  0  0  0  0  0
   -1.5129   -3.0589    0.4723 C   0  0  0  0  0  0  0  0  0  0  0  0
   -0.9317   -1.8572    3.9030 H   0  0  0  0  0  0  0  0  0  0  0  0
   -1.5927   -0.2094    1.9082 H   0  0  0  0  0  0  0  0  0  0  0  0
   -1.8229   -3.9376   -0.0403 H   0  0  0  0  0  0  0  0  0  0  0  0
    0.4391    1.2639    0.7969 C   0  0  0  0  0  0  0  0  0  0  0  0
    0.4391    1.2639   -0.7068 C   0  0  0  0  0  0  0  0  0  0  0  0
    0.4391    2.4582   -1.4208 C   0  0  0  0  0  0  0  0  0  0  0  0
    0.4696    2.4616   -2.8068 C   0  0  0  0  0  0  0  0  0  0  0  0
    0.4991    1.2646   -3.5059 C   0  0  0  0  0  0  0  0  0  0  0  0
    0.4960    0.0672   -2.8068 C   0  0  0  0  0  0  0  0  0  0  0  0
    0.4655    0.0699   -1.4209 C   0  0  0  0  0  0  0  0  0  0  0  0
   -0.1507    0.1972    1.2730 H   0  0  0  0  0  0  0  0  0  0  0  0
    1.4614    1.2751    1.1837 H   0  0  0  0  0  0  0  0  0  0  0  0
   -0.0719    2.1418    1.1937 H   0  0  0  0  0  0  0  0  0  0  0  0
    0.4125    3.3993   -0.8830 H   0  0  0  0  0  0  0  0  0  0  0  0
    0.4670    3.4028   -3.3426 H   0  0  0  0  0  0  0  0  0  0  0  0
    0.5203    1.2648   -4.5882 H   0  0  0  0  0  0  0  0  0  0  0  0
    0.5141   -0.8739   -3.3426 H   0  0  0  0  0  0  0  0  0  0  0  0
    0.4596   -0.8716   -0.8830 H   0  0  0  0  0  0  0  0  0  0  0  0
  1  2  1  0
  1  5  1  0
  2  3  1  0
  2  6  1  0
  3  4  3  0
  4  7  1  0
  8  9  1  0
  8 15  1  0
  8 16  1  0
  8 17  1  0
  9 10  2  0
  9 14  1  0
 10 11  1  0
 10 18  1  0
 11 12  2  0
 11 19  1  0
 12 13  1  0
 12 20  1  0
 13 14  2  0
 13 21  1  0
 14 22  1  0
M  RAD  1   2   2
M  END
>  <reaction>  (7) 
rxn_1467

>  <mol_properties>  (7) 
{"0": {"label": "*0", "atom_type": "S2s"}, "1": {"label": "*1", "atom_type": "Cs"}, "7": {"label": "*3", "atom_type": "Cd"}, "8": {"label": "*4", "atom_type": "Cd"}, "14": {"label": "*2", "atom_type": "H0"}}

>  <type>  (7) 
unop_3

>  <geom_source>  (7) 
Heuristics

$$$$

     RDKit          3D

 22 21  0  0  0  0  0  0  0  0999 V2000
   -2.0763   -1.2877    1.1105 S   0  0  0  0  0  0  0  0  0  0  0  0
   -0.3735   -1.3624    1.7602 C   0  0  0  0  0  3  0  0  0  0  0  0
   -0.1946   -0.6759    3.0274 C   0  0  0  0  0  0  0  0  0  0  0  0
   -0.0472   -0.1101    4.0718 C   0  0  0  0  0  0  0  0  0  0  0  0
   -2.6602   -1.8684    2.1661 H   0  0  0  0  0  0  0  0  0  0  0  0
   -0.0627   -2.4028    1.8512 H   0  0  0  0  0  0  0  0  0  0  0  0
    0.0839    0.3926    4.9998 H   0  0  0  0  0  0  0  0  0  0  0  0
    0.8064    0.7714    0.8079 C   0  0  0  0  0  0  0  0  0  0  0  0
    0.8064    0.7714   -0.6958 C   0  0  0  0  0  0  0  0  0  0  0  0
    0.8064    1.9657   -1.4099 C   0  0  0  0  0  0  0  0  0  0  0  0
    0.8369    1.9691   -2.7959 C   0  0  0  0  0  0  0  0  0  0  0  0
    0.8664    0.7721   -3.4949 C   0  0  0  0  0  0  0  0  0  0  0  0
    0.8633   -0.4253   -2.7959 C   0  0  0  0  0  0  0  0  0  0  0  0
    0.8328   -0.4226   -1.4099 C   0  0  0  0  0  0  0  0  0  0  0  0
    0.2166   -0.2953    1.2840 H   0  0  0  0  0  0  0  0  0  0  0  0
    1.8287    0.7826    1.1947 H   0  0  0  0  0  0  0  0  0  0  0  0
    0.2954    1.6493    1.2046 H   0  0  0  0  0  0  0  0  0  0  0  0
    0.7798    2.9068   -0.8721 H   0  0  0  0  0  0  0  0  0  0  0  0
    0.8342    2.9103   -3.3316 H   0  0  0  0  0  0  0  0  0  0  0  0
    0.8876    0.7723   -4.5773 H   0  0  0  0  0  0  0  0  0  0  0  0
    0.8814   -1.3664   -3.3316 H   0  0  0  0  0  0  0  0  0  0  0  0
    0.8269   -1.3641   -0.8721 H   0  0  0  0  0  0  0  0  0  0  0  0
  1  2  1  0
  1  5  1  0
  2  3  1  0
  2  6  1  0
  3  4  3  0
  4  7  1  0
  8  9  1  0
  8 15  1  0
  8 16  1  0
  8 17  1  0
  9 10  2  0
  9 14  1  0
 10 11  1  0
 10 18  1  0
 11 12  2  0
 11 19  1  0
 12 13  1  0
 12 20  1  0
 13 14  2  0
 13 21  1  0
 14 22  1  0
M  RAD  1   2   2
M  END
>  <reaction>  (8) 
rxn_1467

>  <mol_properties>  (8) 
{"0": {"label": "*0", "atom_type": "S2s"}, "1": {"label": "*1", "atom_type": "Cs"}, "7": {"label": "*3", "atom_type": "Cd"}, "8": {"label": "*4", "atom_type": "Cd"}, "14": {"label": "*2", "atom_type": "H0"}}

>  <type>  (8) 
unop_4

>  <geom_source>  (8) 
Heuristics

$$$$

     RDKit          3D

 22 21  0  0  0  0  0  0  0  0999 V2000
   -0.7345   -0.7871    3.4798 S   0  0  0  0  0  0  0  0  0  0  0  0
   -0.8328   -0.9649    1.6671 C   0  0  0  0  0  3  0  0  0  0  0  0
   -0.1909   -2.1630    1.1558 C   0  0  0  0  0  0  0  0  0  0  0  0
    0.3382   -3.1505    0.7344 C   0  0  0  0  0  0  0  0  0  0  0  0
   -1.3512   -1.9389    3.7724 H   0  0  0  0  0  0  0  0  0  0  0  0
   -1.8759   -0.9364    1.3535 H   0  0  0  0  0  0  0  0  0  0  0  0
    0.8083   -4.0279    0.3600 H   0  0  0  0  0  0  0  0  0  0  0  0
    0.3472    1.1690    0.7148 C   0  0  0  0  0  0  0  0  0  0  0  0
    0.3472    1.1690   -0.7889 C   0  0  0  0  0  0  0  0  0  0  0  0
    0.3472    2.3633   -1.5030 C   0  0  0  0  0  0  0  0  0  0  0  0
    0.3776    2.3666   -2.8889 C   0  0  0  0  0  0  0  0  0  0  0  0
    0.4072    1.1696   -3.5880 C   0  0  0  0  0  0  0  0  0  0  0  0
    0.4040   -0.0277   -2.8889 C   0  0  0  0  0  0  0  0  0  0  0  0
    0.3735   -0.0251   -1.5030 C   0  0  0  0  0  0  0  0  0  0  0  0
   -0.2427    0.1022    1.1909 H   0  0  0  0  0  0  0  0  0  0  0  0
    1.3694    1.1802    1.1016 H   0  0  0  0  0  0  0  0  0  0  0  0
   -0.1638    2.0469    1.1116 H   0  0  0  0  0  0  0  0  0  0  0  0
    0.3206    3.3044   -0.9651 H   0  0  0  0  0  0  0  0  0  0  0  0
    0.3750    3.3078   -3.4247 H   0  0  0  0  0  0  0  0  0  0  0  0
    0.4283    1.1699   -4.6703 H   0  0  0  0  0  0  0  0  0  0  0  0
    0.4222   -0.9688   -3.4247 H   0  0  0  0  0  0  0  0  0  0  0  0
    0.3677   -0.9665   -0.9651 H   0  0  0  0  0  0  0  0  0  0  0  0
  1  2  1  0
  1  5  1  0
  2  3  1  0
  2  6  1  0
  3  4  3  0
  4  7  1  0
  8  9  1  0
  8 15  1  0
  8 16  1  0
  8 17  1  0
  9 10  2  0
  9 14  1  0
 10 11  1  0
 10 18  1  0
 11 12  2  0
 11 19  1  0
 12 13  1  0
 12 20  1  0
 13 14  2  0
 13 21  1  0
 14 22  1  0
M  RAD  1   2   2
M  END
>  <reaction>  (9) 
rxn_1467

>  <mol_properties>  (9) 
{"0": {"label": "*0", "atom_type": "S2s"}, "1": {"label": "*1", "atom_type": "Cs"}, "7": {"label": "*3", "atom_type": "Cd"}, "8": {"label": "*4", "atom_type": "Cd"}, "14": {"label": "*2", "atom_type": "H0"}}

>  <type>  (9) 
unop_5

>  <geom_source>  (9) 
Heuristics

$$$$

     RDKit          3D

 22 21  0  0  0  0  0  0  0  0999 V2000
   -2.2653   -0.9145    1.8018 S   0  0  0  0  0  0  0  0  0  0  0  0
   -0.5110   -1.3840    1.6307 C   0  0  0  0  0  3  0  0  0  0  0  0
    0.3254   -0.9554    2.7379 C   0  0  0  0  0  0  0  0  0  0  0  0
    1.0148   -0.6022    3.6504 C   0  0  0  0  0  0  0  0  0  0  0  0
   -2.4741   -1.5524    2.9603 H   0  0  0  0  0  0  0  0  0  0  0  0
   -0.4330   -2.4628    1.4986 H   0  0  0  0  0  0  0  0  0  0  0  0
    1.6273   -0.2884    4.4611 H   0  0  0  0  0  0  0  0  0  0  0  0
    0.6689    0.7498    0.6784 C   0  0  0  0  0  0  0  0  0  0  0  0
    0.6689    0.7498   -0.8253 C   0  0  0  0  0  0  0  0  0  0  0  0
    0.6689    1.9441   -1.5394 C   0  0  0  0  0  0  0  0  0  0  0  0
    0.6994    1.9475   -2.9253 C   0  0  0  0  0  0  0  0  0  0  0  0
    0.7289    0.7505   -3.6244 C   0  0  0  0  0  0  0  0  0  0  0  0
    0.7258   -0.4469   -2.9253 C   0  0  0  0  0  0  0  0  0  0  0  0
    0.6953   -0.4442   -1.5394 C   0  0  0  0  0  0  0  0  0  0  0  0
    0.0790   -0.3169    1.1545 H   0  0  0  0  0  0  0  0  0  0  0  0
    1.6911    0.7611    1.0652 H   0  0  0  0  0  0  0  0  0  0  0  0
    0.1579    1.6277    1.0752 H   0  0  0  0  0  0  0  0  0  0  0  0
    0.6423    2.8852   -1.0015 H   0  0  0  0  0  0  0  0  0  0  0  0
    0.6967    2.8887   -3.4611 H   0  0  0  0  0  0  0  0  0  0  0  0
    0.7501    0.7507   -4.7067 H   0  0  0  0  0  0  0  0  0  0  0  0
    0.7439   -1.3879   -3.4611 H   0  0  0  0  0  0  0  0  0  0  0  0
    0.6894   -1.3857   -1.0015 H   0  0  0  0  0  0  0  0  0  0  0  0
  1  2  1  0
  1  5  1  0
  2  3  1  0
  2  6  1  0
  3  4  3  0
  4  7  1  0
  8  9  1  0
  8 15  1  0
  8 16  1  0
  8 17  1  0
  9 10  2  0
  9 14  1  0
 10 11  1  0
 10 18  1  0
 11 12  2  0
 11 19  1  0
 12 13  1  0
 12 20  1  0
 13 14  2  0
 13 21  1  0
 14 22  1  0
M  RAD  1   2   2
M  END
>  <reaction>  (10) 
rxn_1467

>  <mol_properties>  (10) 
{"0": {"label": "*0", "atom_type": "S2s"}, "1": {"label": "*1", "atom_type": "Cs"}, "7": {"label": "*3", "atom_type": "Cd"}, "8": {"label": "*4", "atom_type": "Cd"}, "14": {"label": "*2", "atom_type": "H0"}}

>  <type>  (10) 
unop_6

>  <geom_source>  (10) 
Heuristics

$$$$

     RDKit          3D

 22 21  0  0  0  0  0  0  0  0999 V2000
   -2.0733   -0.6811    2.5487 S   0  0  0  0  0  0  0  0  0  0  0  0
   -0.6808   -1.3169    1.5569 C   0  0  0  0  0  3  0  0  0  0  0  0
    0.5879   -1.3337    2.2633 C   0  0  0  0  0  0  0  0  0  0  0  0
    1.6336   -1.3475    2.8456 C   0  0  0  0  0  0  0  0  0  0  0  0
   -1.9752   -1.5840    3.5324 H   0  0  0  0  0  0  0  0  0  0  0  0
   -0.9188   -2.3154    1.1914 H   0  0  0  0  0  0  0  0  0  0  0  0
    2.5627   -1.3598    3.3629 H   0  0  0  0  0  0  0  0  0  0  0  0
    0.4991    0.8169    0.6046 C   0  0  0  0  0  0  0  0  0  0  0  0
    0.4991    0.8169   -0.8992 C   0  0  0  0  0  0  0  0  0  0  0  0
    0.4991    2.0112   -1.6132 C   0  0  0  0  0  0  0  0  0  0  0  0
    0.5296    2.0146   -2.9992 C   0  0  0  0  0  0  0  0  0  0  0  0
    0.5591    0.8176   -3.6982 C   0  0  0  0  0  0  0  0  0  0  0  0
    0.5560   -0.3798   -2.9992 C   0  0  0  0  0  0  0  0  0  0  0  0
    0.5255   -0.3771   -1.6132 C   0  0  0  0  0  0  0  0  0  0  0  0
   -0.0908   -0.2498    1.0806 H   0  0  0  0  0  0  0  0  0  0  0  0
    1.5213    0.8282    0.9913 H   0  0  0  0  0  0  0  0  0  0  0  0
   -0.0119    1.6948    1.0013 H   0  0  0  0  0  0  0  0  0  0  0  0
    0.4725    2.9523   -1.0754 H   0  0  0  0  0  0  0  0  0  0  0  0
    0.5269    2.9558   -3.5349 H   0  0  0  0  0  0  0  0  0  0  0  0
    0.5803    0.8178   -4.7806 H   0  0  0  0  0  0  0  0  0  0  0  0
    0.5741   -1.3208   -3.5349 H   0  0  0  0  0  0  0  0  0  0  0  0
    0.5196   -1.3186   -1.0754 H   0  0  0  0  0  0  0  0  0  0  0  0
  1  2  1  0
  1  5  1  0
  2  3  1  0
  2  6  1  0
  3  4  3  0
  4  7  1  0
  8  9  1  0
  8 15  1  0
  8 16  1  0
  8 17  1  0
  9 10  2  0
  9 14  1  0
 10 11  1  0
 10 18  1  0
 11 12  2  0
 11 19  1  0
 12 13  1  0
 12 20  1  0
 13 14  2  0
 13 21  1  0
 14 22  1  0
M  RAD  1   2   2
M  END
>  <reaction>  (11) 
rxn_1467

>  <mol_properties>  (11) 
{"0": {"label": "*0", "atom_type": "S2s"}, "1": {"label": "*1", "atom_type": "Cs"}, "7": {"label": "*3", "atom_type": "Cd"}, "8": {"label": "*4", "atom_type": "Cd"}, "14": {"label": "*2", "atom_type": "H0"}}

>  <type>  (11) 
unop_7

>  <geom_source>  (11) 
Heuristics

$$$$

     RDKit          3D

 22 21  0  0  0  0  0  0  0  0999 V2000
    0.6822   -2.0630    2.0578 S   0  0  0  0  0  0  0  0  0  0  0  0
   -0.6481   -0.8269    1.8868 C   0  0  0  0  0  3  0  0  0  0  0  0
   -1.9813   -1.3993    1.8234 C   0  0  0  0  0  0  0  0  0  0  0  0
   -3.0801   -1.8711    1.7711 C   0  0  0  0  0  0  0  0  0  0  0  0
    0.2335   -2.6024    3.1982 H   0  0  0  0  0  0  0  0  0  0  0  0
   -0.5874   -0.1096    2.7048 H   0  0  0  0  0  0  0  0  0  0  0  0
   -4.0563   -2.2903    1.7247 H   0  0  0  0  0  0  0  0  0  0  0  0
    0.5319    1.3070    0.9345 C   0  0  0  0  0  0  0  0  0  0  0  0
    0.5319    1.3070   -0.5693 C   0  0  0  0  0  0  0  0  0  0  0  0
    0.5319    2.5013   -1.2833 C   0  0  0  0  0  0  0  0  0  0  0  0
    0.5623    2.5046   -2.6693 C   0  0  0  0  0  0  0  0  0  0  0  0
    0.5918    1.3076   -3.3683 C   0  0  0  0  0  0  0  0  0  0  0  0
    0.5887    0.1103   -2.6693 C   0  0  0  0  0  0  0  0  0  0  0  0
    0.5582    0.1129   -1.2833 C   0  0  0  0  0  0  0  0  0  0  0  0
   -0.0580    0.2402    1.4105 H   0  0  0  0  0  0  0  0  0  0  0  0
    1.5541    1.3182    1.3212 H   0  0  0  0  0  0  0  0  0  0  0  0
    0.0208    2.1849    1.3312 H   0  0  0  0  0  0  0  0  0  0  0  0
    0.5052    3.4424   -0.7455 H   0  0  0  0  0  0  0  0  0  0  0  0
    0.5597    3.4458   -3.2050 H   0  0  0  0  0  0  0  0  0  0  0  0
    0.6130    1.3079   -4.4507 H   0  0  0  0  0  0  0  0  0  0  0  0
    0.6068   -0.8308   -3.2050 H   0  0  0  0  0  0  0  0  0  0  0  0
    0.5523   -0.8285   -0.7455 H   0  0  0  0  0  0  0  0  0  0  0  0
  1  2  1  0
  1  5  1  0
  2  3  1  0
  2  6  1  0
  3  4  3  0
  4  7  1  0
  8  9  1  0
  8 15  1  0
  8 16  1  0
  8 17  1  0
  9 10  2  0
  9 14  1  0
 10 11  1  0
 10 18  1  0
 11 12  2  0
 11 19  1  0
 12 13  1  0
 12 20  1  0
 13 14  2  0
 13 21  1  0
 14 22  1  0
M  RAD  1   2   2
M  END
>  <reaction>  (12) 
rxn_1467

>  <mol_properties>  (12) 
{"0": {"label": "*0", "atom_type": "S2s"}, "1": {"label": "*1", "atom_type": "Cs"}, "7": {"label": "*3", "atom_type": "Cd"}, "8": {"label": "*4", "atom_type": "Cd"}, "14": {"label": "*2", "atom_type": "H0"}}

>  <type>  (12) 
unop_8

>  <geom_source>  (12) 
Heuristics

$$$$

     RDKit          3D

 22 21  0  0  0  0  0  0  0  0999 V2000
   -1.5555   -1.6984    0.6544 S   0  0  0  0  0  0  0  0  0  0  0  0
   -0.3037   -1.2555    1.9050 C   0  0  0  0  0  3  0  0  0  0  0  0
   -0.8465   -0.5781    3.0692 C   0  0  0  0  0  0  0  0  0  0  0  0
   -1.2938   -0.0198    4.0289 C   0  0  0  0  0  0  0  0  0  0  0  0
   -2.3064   -2.4570    1.4626 H   0  0  0  0  0  0  0  0  0  0  0  0
    0.2386   -2.1496    2.2113 H   0  0  0  0  0  0  0  0  0  0  0  0
   -1.6912    0.4763    4.8815 H   0  0  0  0  0  0  0  0  0  0  0  0
    0.8762    0.8783    0.9526 C   0  0  0  0  0  0  0  0  0  0  0  0
    0.8762    0.8783   -0.5511 C   0  0  0  0  0  0  0  0  0  0  0  0
    0.8762    2.0726   -1.2651 C   0  0  0  0  0  0  0  0  0  0  0  0
    0.9067    2.0760   -2.6511 C   0  0  0  0  0  0  0  0  0  0  0  0
    0.9362    0.8789   -3.3502 C   0  0  0  0  0  0  0  0  0  0  0  0
    0.9331   -0.3184   -2.6511 C   0  0  0  0  0  0  0  0  0  0  0  0
    0.9025   -0.3157   -1.2651 C   0  0  0  0  0  0  0  0  0  0  0  0
    0.2863   -0.1884    1.4287 H   0  0  0  0  0  0  0  0  0  0  0  0
    1.8984    0.8895    1.3394 H   0  0  0  0  0  0  0  0  0  0  0  0
    0.3652    1.7562    1.3494 H   0  0  0  0  0  0  0  0  0  0  0  0
    0.8496    3.0137   -0.7273 H   0  0  0  0  0  0  0  0  0  0  0  0
    0.9040    3.0172   -3.1868 H   0  0  0  0  0  0  0  0  0  0  0  0
    0.9574    0.8792   -4.4325 H   0  0  0  0  0  0  0  0  0  0  0  0
    0.9512   -1.2595   -3.1868 H   0  0  0  0  0  0  0  0  0  0  0  0
    0.8967   -1.2572   -0.7273 H   0  0  0  0  0  0  0  0  0  0  0  0
  1  2  1  0
  1  5  1  0
  2  3  1  0
  2  6  1  0
  3  4  3  0
  4  7  1  0
  8  9  1  0
  8 15  1  0
  8 16  1  0
  8 17  1  0
  9 10  2  0
  9 14  1  0
 10 11  1  0
 10 18  1  0
 11 12  2  0
 11 19  1  0
 12 13  1  0
 12 20  1  0
 13 14  2  0
 13 21  1  0
 14 22  1  0
M  RAD  1   2   2
M  END
>  <reaction>  (13) 
rxn_1467

>  <mol_properties>  (13) 
{"0": {"label": "*0", "atom_type": "S2s"}, "1": {"label": "*1", "atom_type": "Cs"}, "7": {"label": "*3", "atom_type": "Cd"}, "8": {"label": "*4", "atom_type": "Cd"}, "14": {"label": "*2", "atom_type": "H0"}}

>  <type>  (13) 
unop_9

>  <geom_source>  (13) 
Heuristics

$$$$

     RDKit          3D

 22 21  0  0  0  0  0  0  0  0999 V2000
    0.4024   -2.2488    1.3284 S   0  0  0  0  0  0  0  0  0  0  0  0
   -0.5661   -0.8463    1.9781 C   0  0  0  0  0  3  0  0  0  0  0  0
   -1.9569   -1.1646    2.2492 C   0  0  0  0  0  0  0  0  0  0  0  0
   -3.1031   -1.4270    2.4726 C   0  0  0  0  0  0  0  0  0  0  0  0
    0.1919   -3.0650    2.3686 H   0  0  0  0  0  0  0  0  0  0  0  0
   -0.0888   -0.4586    2.8776 H   0  0  0  0  0  0  0  0  0  0  0  0
   -4.1216   -1.6601    2.6711 H   0  0  0  0  0  0  0  0  0  0  0  0
    0.6139    1.2875    1.0258 C   0  0  0  0  0  0  0  0  0  0  0  0
    0.6139    1.2875   -0.4780 C   0  0  0  0  0  0  0  0  0  0  0  0
    0.6139    2.4818   -1.1920 C   0  0  0  0  0  0  0  0  0  0  0  0
    0.6443    2.4852   -2.5780 C   0  0  0  0  0  0  0  0  0  0  0  0
    0.6738    1.2882   -3.2770 C   0  0  0  0  0  0  0  0  0  0  0  0
    0.6707    0.0908   -2.5780 C   0  0  0  0  0  0  0  0  0  0  0  0
    0.6402    0.0935   -1.1920 C   0  0  0  0  0  0  0  0  0  0  0  0
    0.0240    0.2208    1.5018 H   0  0  0  0  0  0  0  0  0  0  0  0
    1.6361    1.2988    1.4125 H   0  0  0  0  0  0  0  0  0  0  0  0
    0.1028    2.1654    1.4225 H   0  0  0  0  0  0  0  0  0  0  0  0
    0.5872    3.4229   -0.6542 H   0  0  0  0  0  0  0  0  0  0  0  0
    0.6417    3.4264   -3.1137 H   0  0  0  0  0  0  0  0  0  0  0  0
    0.6950    1.2884   -4.3594 H   0  0  0  0  0  0  0  0  0  0  0  0
    0.6888   -0.8502   -3.1137 H   0  0  0  0  0  0  0  0  0  0  0  0
    0.6343   -0.8480   -0.6542 H   0  0  0  0  0  0  0  0  0  0  0  0
  1  2  1  0
  1  5  1  0
  2  3  1  0
  2  6  1  0
  3  4  3  0
  4  7  1  0
  8  9  1  0
  8 15  1  0
  8 16  1  0
  8 17  1  0
  9 10  2  0
  9 14  1  0
 10 11  1  0
 10 18  1  0
 11 12  2  0
 11 19  1  0
 12 13  1  0
 12 20  1  0
 13 14  2  0
 13 21  1  0
 14 22  1  0
M  RAD  1   2   2
M  END
>  <reaction>  (14) 
rxn_1467

>  <mol_properties>  (14) 
{"0": {"label": "*0", "atom_type": "S2s"}, "1": {"label": "*1", "atom_type": "Cs"}, "7": {"label": "*3", "atom_type": "Cd"}, "8": {"label": "*4", "atom_type": "Cd"}, "14": {"label": "*2", "atom_type": "H0"}}

>  <type>  (14) 
unop_10

>  <geom_source>  (14) 
Heuristics

$$$$

     RDKit          3D

 22 21  0  0  0  0  0  0  0  0999 V2000
   -1.5377   -0.6312    3.1633 S   0  0  0  0  0  0  0  0  0  0  0  0
   -0.8233   -1.1602    1.5706 C   0  0  0  0  0  3  0  0  0  0  0  0
    0.4841   -1.7815    1.6874 C   0  0  0  0  0  0  0  0  0  0  0  0
    1.5617   -2.2936    1.7837 C   0  0  0  0  0  0  0  0  0  0  0  0
   -1.5255   -1.8409    3.7370 H   0  0  0  0  0  0  0  0  0  0  0  0
   -1.5145   -1.8350    1.0665 H   0  0  0  0  0  0  0  0  0  0  0  0
    2.5191   -2.7486    1.8692 H   0  0  0  0  0  0  0  0  0  0  0  0
    0.3567    0.9736    0.6183 C   0  0  0  0  0  0  0  0  0  0  0  0
    0.3567    0.9736   -0.8855 C   0  0  0  0  0  0  0  0  0  0  0  0
    0.3567    2.1679   -1.5995 C   0  0  0  0  0  0  0  0  0  0  0  0
    0.3871    2.1713   -2.9855 C   0  0  0  0  0  0  0  0  0  0  0  0
    0.4166    0.9743   -3.6845 C   0  0  0  0  0  0  0  0  0  0  0  0
    0.4135   -0.2231   -2.9855 C   0  0  0  0  0  0  0  0  0  0  0  0
    0.3830   -0.2204   -1.5995 C   0  0  0  0  0  0  0  0  0  0  0  0
   -0.2332   -0.0931    1.0944 H   0  0  0  0  0  0  0  0  0  0  0  0
    1.3789    0.9849    1.0050 H   0  0  0  0  0  0  0  0  0  0  0  0
   -0.1544    1.8515    1.0150 H   0  0  0  0  0  0  0  0  0  0  0  0
    0.3300    3.1090   -1.0617 H   0  0  0  0  0  0  0  0  0  0  0  0
    0.3845    3.1125   -3.5212 H   0  0  0  0  0  0  0  0  0  0  0  0
    0.4378    0.9745   -4.7669 H   0  0  0  0  0  0  0  0  0  0  0  0
    0.4316   -1.1641   -3.5212 H   0  0  0  0  0  0  0  0  0  0  0  0
    0.3771   -1.1619   -1.0617 H   0  0  0  0  0  0  0  0  0  0  0  0
  1  2  1  0
  1  5  1  0
  2  3  1  0
  2  6  1  0
  3  4  3  0
  4  7  1  0
  8  9  1  0
  8 15  1  0
  8 16  1  0
  8 17  1  0
  9 10  2  0
  9 14  1  0
 10 11  1  0
 10 18  1  0
 11 12  2  0
 11 19  1  0
 12 13  1  0
 12 20  1  0
 13 14  2  0
 13 21  1  0
 14 22  1  0
M  RAD  1   2   2
M  END
>  <reaction>  (15) 
rxn_1467

>  <mol_properties>  (15) 
{"0": {"label": "*0", "atom_type": "S2s"}, "1": {"label": "*1", "atom_type": "Cs"}, "7": {"label": "*3", "atom_type": "Cd"}, "8": {"label": "*4", "atom_type": "Cd"}, "14": {"label": "*2", "atom_type": "H0"}}

>  <type>  (15) 
unop_11

>  <geom_source>  (15) 
Heuristics

$$$$

     RDKit          3D

 22 21  0  0  0  0  0  0  0  0999 V2000
   -0.8526   -2.0326    0.5427 S   0  0  0  0  0  0  0  0  0  0  0  0
   -0.3304   -1.0882    2.0132 C   0  0  0  0  0  3  0  0  0  0  0  0
   -1.4242   -0.7074    2.8893 C   0  0  0  0  0  0  0  0  0  0  0  0
   -2.3258   -0.3935    3.6113 C   0  0  0  0  0  0  0  0  0  0  0  0
   -1.4289   -3.0382    1.2129 H   0  0  0  0  0  0  0  0  0  0  0  0
    0.4127   -1.6594    2.5691 H   0  0  0  0  0  0  0  0  0  0  0  0
   -3.1268   -0.1146    4.2528 H   0  0  0  0  0  0  0  0  0  0  0  0
    0.8496    1.0456    1.0609 C   0  0  0  0  0  0  0  0  0  0  0  0
    0.8496    1.0456   -0.4428 C   0  0  0  0  0  0  0  0  0  0  0  0
    0.8496    2.2399   -1.1569 C   0  0  0  0  0  0  0  0  0  0  0  0
    0.8800    2.2433   -2.5429 C   0  0  0  0  0  0  0  0  0  0  0  0
    0.9096    1.0463   -3.2419 C   0  0  0  0  0  0  0  0  0  0  0  0
    0.9065   -0.1511   -2.5429 C   0  0  0  0  0  0  0  0  0  0  0  0
    0.8759   -0.1484   -1.1569 C   0  0  0  0  0  0  0  0  0  0  0  0
    0.2597   -0.0211    1.5370 H   0  0  0  0  0  0  0  0  0  0  0  0
    1.8718    1.0568    1.4477 H   0  0  0  0  0  0  0  0  0  0  0  0
    0.3386    1.9235    1.4576 H   0  0  0  0  0  0  0  0  0  0  0  0
    0.8230    3.1810   -0.6191 H   0  0  0  0  0  0  0  0  0  0  0  0
    0.8774    3.1845   -3.0786 H   0  0  0  0  0  0  0  0  0  0  0  0
    0.9307    1.0465   -4.3243 H   0  0  0  0  0  0  0  0  0  0  0  0
    0.9246   -1.0922   -3.0786 H   0  0  0  0  0  0  0  0  0  0  0  0
    0.8701   -1.0899   -0.6191 H   0  0  0  0  0  0  0  0  0  0  0  0
  1  2  1  0
  1  5  1  0
  2  3  1  0
  2  6  1  0
  3  4  3  0
  4  7  1  0
  8  9  1  0
  8 15  1  0
  8 16  1  0
  8 17  1  0
  9 10  2  0
  9 14  1  0
 10 11  1  0
 10 18  1  0
 11 12  2  0
 11 19  1  0
 12 13  1  0
 12 20  1  0
 13 14  2  0
 13 21  1  0
 14 22  1  0
M  RAD  1   2   2
M  END
>  <reaction>  (16) 
rxn_1467

>  <mol_properties>  (16) 
{"0": {"label": "*0", "atom_type": "S2s"}, "1": {"label": "*1", "atom_type": "Cs"}, "7": {"label": "*3", "atom_type": "Cd"}, "8": {"label": "*4", "atom_type": "Cd"}, "14": {"label": "*2", "atom_type": "H0"}}

>  <type>  (16) 
unop_12

>  <geom_source>  (16) 
Heuristics

$$$$

     RDKit          3D

 22 21  0  0  0  0  0  0  0  0999 V2000
    3.5607   -1.6942   -0.7842 S   0  0  0  0  0  0  0  0  0  0  0  0
    2.7583   -0.5881    0.4120 C   0  0  0  0  0  3  0  0  0  0  0  0
   -0.9548   -0.4951    0.2105 C   0  0  0  0  0  0  0  0  0  0  0  0
   -2.2417   -1.0164    0.4123 C   0  0  0  0  0  0  0  0  0  0  0  0
   -0.8021    0.8056   -0.2881 C   0  0  0  0  0  0  0  0  0  0  0  0
   -3.3666   -0.2395    0.1165 C   0  0  0  0  0  0  0  0  0  0  0  0
   -3.2105    1.0580   -0.3808 C   0  0  0  0  0  0  0  0  0  0  0  0
   -1.9291    1.5802   -0.5830 C   0  0  0  0  0  0  0  0  0  0  0  0
    0.2520   -1.3166    0.5232 C   0  0  0  0  0  0  0  0  0  0  0  0
    3.1867    0.7920    0.1766 C   0  0  0  0  0  0  0  0  0  0  0  0
    3.5383    1.9288   -0.0168 C   0  0  0  0  0  0  0  0  0  0  0  0
    3.0447   -0.8905    1.4403 H   0  0  0  0  0  0  0  0  0  0  0  0
    1.3758   -0.6762    0.2745 H   0  0  0  0  0  0  0  0  0  0  0  0
   -2.3718   -2.0204    0.7971 H   0  0  0  0  0  0  0  0  0  0  0  0
   -4.3588   -0.6429    0.2726 H   0  0  0  0  0  0  0  0  0  0  0  0
    0.1865    1.2184   -0.4478 H   0  0  0  0  0  0  0  0  0  0  0  0
   -4.0816    1.6583   -0.6094 H   0  0  0  0  0  0  0  0  0  0  0  0
   -1.8092    2.5846   -0.9680 H   0  0  0  0  0  0  0  0  0  0  0  0
    0.2604   -2.2367   -0.0981 H   0  0  0  0  0  0  0  0  0  0  0  0
    0.2631   -1.5861    1.6003 H   0  0  0  0  0  0  0  0  0  0  0  0
    2.8527   -1.1500   -1.8732 H   0  0  0  0  0  0  0  0  0  0  0  0
    3.8470    2.9267   -0.1867 H   0  0  0  0  0  0  0  0  0  0  0  0
  1  2  1  0
  1 21  1  0
  2 10  1  0
  2 12  1  0
  3  9  1  0
  3  4  2  0
  3  5  1  0
  4  6  1  0
  4 14  1  0
  5  8  2  0
  5 16  1  0
  6  7  2  0
  6 15  1  0
  7  8  1  0
  7 17  1  0
  8 18  1  0
  9 13  1  0
  9 19  1  0
  9 20  1  0
 10 11  3  0
 11 22  1  0
M  RAD  1   2   2
M  END
>  <reaction>  (17) 
rxn_1467

>  <mol_properties>  (17) 
{"0": {"label": "*0", "atom_type": "S2s"}, "1": {"label": "*1", "atom_type": "Cs"}, "7": {"label": "*3", "atom_type": "Cd"}, "8": {"label": "*4", "atom_type": "Cd"}, "14": {"label": "*2", "atom_type": "H0"}}

>  <type>  (17) 
unop_13

>  <geom_source>  (17) 
AutoTST

$$$$

     RDKit          3D

 22 21  0  0  0  0  0  0  0  0999 V2000
   -0.1514   -2.2276    0.7859 S   0  0  0  0  0  0  0  0  0  0  0  0
   -0.4419   -0.9320    2.0364 C   0  0  0  0  0  3  0  0  0  0  0  0
   -1.7804   -0.9446    2.5996 C   0  0  0  0  0  0  0  0  0  0  0  0
   -2.8836   -0.9551    3.0638 C   0  0  0  0  0  0  0  0  0  0  0  0
   -0.4289   -3.2655    1.5848 H   0  0  0  0  0  0  0  0  0  0  0  0
    0.2991   -1.0185    2.8307 H   0  0  0  0  0  0  0  0  0  0  0  0
   -3.8639   -0.9644    3.4762 H   0  0  0  0  0  0  0  0  0  0  0  0
    0.7381    1.2019    1.0841 C   0  0  0  0  0  0  0  0  0  0  0  0
    0.7381    1.2019   -0.4196 C   0  0  0  0  0  0  0  0  0  0  0  0
    0.7381    2.3962   -1.1337 C   0  0  0  0  0  0  0  0  0  0  0  0
    0.7686    2.3995   -2.5196 C   0  0  0  0  0  0  0  0  0  0  0  0
    0.7981    1.2025   -3.2187 C   0  0  0  0  0  0  0  0  0  0  0  0
    0.7950    0.0051   -2.5196 C   0  0  0  0  0  0  0  0  0  0  0  0
    0.7644    0.0078   -1.1337 C   0  0  0  0  0  0  0  0  0  0  0  0
    0.1482    0.1351    1.5602 H   0  0  0  0  0  0  0  0  0  0  0  0
    1.7603    1.2131    1.4709 H   0  0  0  0  0  0  0  0  0  0  0  0
    0.2271    2.0797    1.4808 H   0  0  0  0  0  0  0  0  0  0  0  0
    0.7115    3.3373   -0.5958 H   0  0  0  0  0  0  0  0  0  0  0  0
    0.7659    3.3407   -3.0554 H   0  0  0  0  0  0  0  0  0  0  0  0
    0.8193    1.2027   -4.3010 H   0  0  0  0  0  0  0  0  0  0  0  0
    0.8131   -0.9359   -3.0554 H   0  0  0  0  0  0  0  0  0  0  0  0
    0.7586   -0.9336   -0.5958 H   0  0  0  0  0  0  0  0  0  0  0  0
  1  2  1  0
  1  5  1  0
  2  3  1  0
  2  6  1  0
  3  4  3  0
  4  7  1  0
  8  9  1  0
  8 15  1  0
  8 16  1  0
  8 17  1  0
  9 10  2  0
  9 14  1  0
 10 11  1  0
 10 18  1  0
 11 12  2  0
 11 19  1  0
 12 13  1  0
 12 20  1  0
 13 14  2  0
 13 21  1  0
 14 22  1  0
M  RAD  1   2   2
M  END
>  <reaction>  (18) 
rxn_1467

>  <mol_properties>  (18) 
{"0": {"label": "*0", "atom_type": "S2s"}, "1": {"label": "*1", "atom_type": "Cs"}, "7": {"label": "*3", "atom_type": "Cd"}, "8": {"label": "*4", "atom_type": "Cd"}, "14": {"label": "*2", "atom_type": "H0"}}

>  <type>  (18) 
unop_14

>  <geom_source>  (18) 
gaussian_log

$$$$
