
     RDKit          3D

 22 23  0  0  0  0  0  0  0  0999 V2000
   -2.1093   -0.3263    0.3079 C   0  0  0  0  0  0  0  0  0  0  0  0
   -1.3270    0.9803    0.4115 C   0  0  0  0  0  0  0  0  0  0  0  0
   -0.1818    0.8289   -0.6044 C   0  0  0  0  0  0  0  0  0  0  0  0
    1.1682    1.3904   -0.1341 C   0  0  0  0  0  0  0  0  0  0  0  0
    1.8508    0.2041    0.5479 C   0  0  0  0  0  0  0  0  0  0  0  0
    1.4982   -0.9663   -0.3710 C   0  0  0  0  0  0  0  0  0  0  0  0
    0.0340   -0.7124   -0.7594 C   0  0  0  0  0  0  0  0  0  0  0  0
   -0.9986   -1.3650    0.1756 C   0  0  0  0  0  0  0  0  0  0  0  0
   -2.7686   -0.5042    1.1589 H   0  0  0  0  0  0  0  0  0  0  0  0
   -2.7285   -0.3223   -0.5943 H   0  0  0  0  0  0  0  0  0  0  0  0
   -1.9339    1.8682    0.2289 H   0  0  0  0  0  0  0  0  0  0  0  0
   -0.9144    1.0729    1.4218 H   0  0  0  0  0  0  0  0  0  0  0  0
   -0.4804    1.2763   -1.5535 H   0  0  0  0  0  0  0  0  0  0  0  0
    1.7667    1.7058   -0.9931 H   0  0  0  0  0  0  0  0  0  0  0  0
    1.0540    2.2578    0.5189 H   0  0  0  0  0  0  0  0  0  0  0  0
    1.4197    0.0438    1.5410 H   0  0  0  0  0  0  0  0  0  0  0  0
    2.9248    0.3413    0.6788 H   0  0  0  0  0  0  0  0  0  0  0  0
    2.1362   -0.9329   -1.2584 H   0  0  0  0  0  0  0  0  0  0  0  0
    1.6421   -1.9421    0.0966 H   0  0  0  0  0  0  0  0  0  0  0  0
   -0.1575   -1.0299   -1.7854 H   0  0  0  0  0  0  0  0  0  0  0  0
   -1.3459   -2.3310   -0.1933 H   0  0  0  0  0  0  0  0  0  0  0  0
   -0.5489   -1.5373    1.1593 H   0  0  0  0  0  0  0  0  0  0  0  0
  1  2  1  0
  1  8  1  0
  1  9  1  0
  1 10  1  0
  2  3  1  0
  2 11  1  0
  2 12  1  0
  3  4  1  0
  3  7  1  0
  3 13  1  0
  4  5  1  0
  4 14  1  0
  4 15  1  0
  5  6  1  0
  5 16  1  0
  5 17  1  0
  6  7  1  0
  6 18  1  0
  6 19  1  0
  7  8  1  0
  7 20  1  0
  8 21  1  0
  8 22  1  0
M  END
>  <reaction>  (1) 
rxn_562

>  <mol_properties>  (1) 
{"2": {"label": "donator", "atom_type": "Cs"}, "12": {"label": "d_hydrogen", "atom_type": "H0"}}

>  <type>  (1) 
r1h

$$$$

     RDKit          3D

 12 11  0  0  0  0  0  0  0  0999 V2000
   -2.3791    0.4612   -0.5870 C   0  0  0  0  0  0  0  0  0  0  0  0
   -1.3422   -0.3138   -0.1893 C   0  0  0  0  0  0  0  0  0  0  0  0
   -1.4723   -1.6058    0.3589 C   0  0  0  0  0  3  0  0  0  0  0  0
   -0.3798   -2.3973    0.7671 C   0  0  0  0  0  0  0  0  0  0  0  0
   -0.4849   -3.6397    1.2956 C   0  0  0  0  0  0  0  0  0  0  0  0
   -2.2205    1.4472   -1.0017 H   0  0  0  0  0  0  0  0  0  0  0  0
   -3.4026    0.1153   -0.5011 H   0  0  0  0  0  0  0  0  0  0  0  0
   -0.3330    0.0765   -0.2952 H   0  0  0  0  0  0  0  0  0  0  0  0
   -2.4723   -2.0151    0.4735 H   0  0  0  0  0  0  0  0  0  0  0  0
    0.6117   -1.9687    0.6436 H   0  0  0  0  0  0  0  0  0  0  0  0
    0.3893   -4.2030    1.5920 H   0  0  0  0  0  0  0  0  0  0  0  0
   -1.4516   -4.1084    1.4378 H   0  0  0  0  0  0  0  0  0  0  0  0
  1  2  2  3
  1  6  1  0
  1  7  1  0
  2  3  1  0
  2  8  1  0
  3  4  1  0
  3  9  1  0
  4  5  2  3
  4 10  1  0
  5 11  1  0
  5 12  1  0
M  RAD  1   3   2
M  END
>  <reaction>  (2) 
rxn_562

>  <mol_properties>  (2) 
{"2": {"label": "acceptor", "atom_type": "Cs"}}

>  <type>  (2) 
r2

$$$$

     RDKit          3D

 13 12  0  0  0  0  0  0  0  0999 V2000
    3.0977   -0.3549   -0.5105 C   0  0  0  0  0  0  0  0  0  0  0  0
    2.0556    0.4221   -0.2627 C   0  0  0  0  0  0  0  0  0  0  0  0
    0.6313   -0.0354   -0.2366 C   0  0  0  0  0  0  0  0  0  0  0  0
   -0.2567    0.6038   -1.2694 C   0  0  0  0  0  0  0  0  0  0  0  0
    0.1459    1.3456   -2.2891 C   0  0  0  0  0  0  0  0  0  0  0  0
    4.1081    0.0344   -0.5074 H   0  0  0  0  0  0  0  0  0  0  0  0
    2.9777   -1.4116   -0.7243 H   0  0  0  0  0  0  0  0  0  0  0  0
    2.2171    1.4781   -0.0618 H   0  0  0  0  0  0  0  0  0  0  0  0
    0.5865   -1.1233   -0.3540 H   0  0  0  0  0  0  0  0  0  0  0  0
    0.2065    0.1743    0.7521 H   0  0  0  0  0  0  0  0  0  0  0  0
   -1.3190    0.4126   -1.1445 H   0  0  0  0  0  0  0  0  0  0  0  0
    1.1948    1.5564   -2.4628 H   0  0  0  0  0  0  0  0  0  0  0  0
   -0.5644    1.7621   -2.9918 H   0  0  0  0  0  0  0  0  0  0  0  0
  1  2  2  3
  1  6  1  0
  1  7  1  0
  2  3  1  0
  2  8  1  0
  3  4  1  0
  3  9  1  0
  3 10  1  0
  4  5  2  3
  4 11  1  0
  5 12  1  0
  5 13  1  0
M  END
>  <reaction>  (3) 
rxn_562

>  <mol_properties>  (3) 
{"2": {"label": "acceptor", "atom_type": "Cs"}, "12": {"label": "a_hydrogen", "atom_type": "H0"}}

>  <type>  (3) 
r2h

$$$$

     RDKit          3D

 34 34  0  0  0  0  0  0  0  0999 V2000
   -1.4472   -3.2259    0.2509 C   0  0  0  0  0  0  0  0  0  0  0  0
   -1.6725   -1.9471   -0.0343 C   0  0  0  0  0  0  0  0  0  0  0  0
   -1.6169   -0.8460    0.9400 C   0  0  0  0  0  0  0  0  0  0  0  0
   -2.5231    0.3074    0.7855 C   0  0  0  0  0  0  0  0  0  0  0  0
   -3.2913    0.6016   -0.2611 C   0  0  0  0  0  0  0  0  0  0  0  0
   -1.4561   -3.9869   -0.5187 H   0  0  0  0  0  0  0  0  0  0  0  0
   -1.2521   -3.5535    1.2665 H   0  0  0  0  0  0  0  0  0  0  0  0
   -1.8584   -1.6736   -1.0691 H   0  0  0  0  0  0  0  0  0  0  0  0
   -1.5645   -1.1996    1.9708 H   0  0  0  0  0  0  0  0  0  0  0  0
   -2.5131    1.0040    1.6197 H   0  0  0  0  0  0  0  0  0  0  0  0
   -3.8852    1.5061   -0.2752 H   0  0  0  0  0  0  0  0  0  0  0  0
   -3.3704   -0.0455   -1.1260 H   0  0  0  0  0  0  0  0  0  0  0  0
    1.9807   -1.2973   -0.9415 C   0  0  0  0  0  0  0  0  0  0  0  0
    1.8053   -0.9108    0.5318 C   0  0  0  0  0  0  0  0  0  0  0  0
    0.8208    0.2387    0.5004 C   0  0  0  0  0  3  0  0  0  0  0  0
    0.9764    1.4357    1.4100 C   0  0  0  0  0  0  0  0  0  0  0  0
    1.5074    2.5281    0.4694 C   0  0  0  0  0  0  0  0  0  0  0  0
    0.7560    2.2667   -0.8399 C   0  0  0  0  0  0  0  0  0  0  0  0
    0.6847    0.7362   -0.9391 C   0  0  0  0  0  0  0  0  0  0  0  0
    1.8370    0.0363   -1.6754 C   0  0  0  0  0  0  0  0  0  0  0  0
    2.9268   -1.8015   -1.1414 H   0  0  0  0  0  0  0  0  0  0  0  0
    1.1737   -1.9721   -1.2389 H   0  0  0  0  0  0  0  0  0  0  0  0
    1.4677   -1.7458    1.1513 H   0  0  0  0  0  0  0  0  0  0  0  0
    2.7592   -0.5686    0.9528 H   0  0  0  0  0  0  0  0  0  0  0  0
   -0.4645   -0.3442    0.7935 H   0  0  0  0  0  0  0  0  0  0  0  0
    0.0044    1.7455    1.8112 H   0  0  0  0  0  0  0  0  0  0  0  0
    1.6312    1.2386    2.2604 H   0  0  0  0  0  0  0  0  0  0  0  0
    2.5819    2.3886    0.3185 H   0  0  0  0  0  0  0  0  0  0  0  0
    1.3598    3.5375    0.8554 H   0  0  0  0  0  0  0  0  0  0  0  0
   -0.2542    2.6779   -0.7694 H   0  0  0  0  0  0  0  0  0  0  0  0
    1.2370    2.7217   -1.7073 H   0  0  0  0  0  0  0  0  0  0  0  0
   -0.2656    0.4196   -1.3818 H   0  0  0  0  0  0  0  0  0  0  0  0
    1.6509   -0.0744   -2.7446 H   0  0  0  0  0  0  0  0  0  0  0  0
    2.7557    0.6214   -1.5595 H   0  0  0  0  0  0  0  0  0  0  0  0
  1  2  2  3
  1  6  1  0
  1  7  1  0
  2  3  1  0
  2  8  1  0
  3  4  1  0
  3  9  1  0
  3 25  1  0
  4  5  2  3
  4 10  1  0
  5 11  1  0
  5 12  1  0
 13 20  1  0
 13 14  1  0
 13 21  1  0
 13 22  1  0
 14 15  1  0
 14 23  1  0
 14 24  1  0
 15 16  1  0
 15 19  1  0
 16 17  1  0
 16 26  1  0
 16 27  1  0
 17 18  1  0
 17 28  1  0
 17 29  1  0
 18 19  1  0
 18 30  1  0
 18 31  1  0
 19 20  1  0
 19 32  1  0
 20 33  1  0
 20 34  1  0
M  RAD  1  15   2
M  END
>  <reaction>  (4) 
rxn_562

>  <mol_properties>  (4) 
{"1": {"label": "*0", "atom_type": "Cd"}, "2": {"label": "*1", "atom_type": "Cs"}, "14": {"label": "*3", "atom_type": "Cs"}, "18": {"label": "*4", "atom_type": "Cs"}, "24": {"label": "*2", "atom_type": "H0"}}

>  <type>  (4) 
ts

$$$$

     RDKit          3D

 34 34  0  0  0  0  0  0  0  0999 V2000
   -2.5209    0.5622    2.2513 C   0  0  0  0  0  0  0  0  0  0  0  0
   -1.9958   -0.5779    1.8326 C   0  0  0  0  0  0  0  0  0  0  0  0
   -1.5765   -0.8637    0.4250 C   0  0  0  0  0  3  0  0  0  0  0  0
   -2.3246   -1.9862   -0.2416 C   0  0  0  0  0  0  0  0  0  0  0  0
   -3.4168   -2.5746    0.2200 C   0  0  0  0  0  0  0  0  0  0  0  0
   -2.7976    0.7118    3.2874 H   0  0  0  0  0  0  0  0  0  0  0  0
   -2.6918    1.3901    1.5713 H   0  0  0  0  0  0  0  0  0  0  0  0
   -1.8486   -1.3869    2.5435 H   0  0  0  0  0  0  0  0  0  0  0  0
   -1.6757    0.0405   -0.1848 H   0  0  0  0  0  0  0  0  0  0  0  0
   -1.9109   -2.3147   -1.1910 H   0  0  0  0  0  0  0  0  0  0  0  0
   -3.8964   -3.3735   -0.3310 H   0  0  0  0  0  0  0  0  0  0  0  0
   -3.8738   -2.2761    1.1565 H   0  0  0  0  0  0  0  0  0  0  0  0
    1.7827   -1.0034   -1.8881 C   0  0  0  0  0  0  0  0  0  0  0  0
    1.7827   -1.0034   -0.3617 C   0  0  0  0  0  0  0  0  0  0  0  0
    0.8194    0.1314    0.0267 C   0  0  0  0  0  0  0  0  0  0  0  0
    1.2721    0.9699    1.2311 C   0  0  0  0  0  0  0  0  0  0  0  0
    2.0841    2.1081    0.6117 C   0  0  0  0  0  0  0  0  0  0  0  0
    1.2721    2.4677   -0.6332 C   0  0  0  0  0  0  0  0  0  0  0  0
    0.8194    1.1109   -1.1926 C   0  0  0  0  0  0  0  0  0  0  0  0
    1.7827    0.4872   -2.2170 C   0  0  0  0  0  0  0  0  0  0  0  0
    2.6276   -1.5416   -2.3205 H   0  0  0  0  0  0  0  0  0  0  0  0
    0.8669   -1.4702   -2.2632 H   0  0  0  0  0  0  0  0  0  0  0  0
    1.4984   -1.9617    0.0749 H   0  0  0  0  0  0  0  0  0  0  0  0
    2.7909   -0.7708   -0.0024 H   0  0  0  0  0  0  0  0  0  0  0  0
   -0.3757   -0.3650    0.2253 H   0  0  0  0  0  0  0  0  0  0  0  0
    0.4043    1.3868    1.7495 H   0  0  0  0  0  0  0  0  0  0  0  0
    1.8352    0.3832    1.9594 H   0  0  0  0  0  0  0  0  0  0  0  0
    3.0752    1.7463    0.3210 H   0  0  0  0  0  0  0  0  0  0  0  0
    2.2320    2.9505    1.2885 H   0  0  0  0  0  0  0  0  0  0  0  0
    0.4043    3.0638   -0.3379 H   0  0  0  0  0  0  0  0  0  0  0  0
    1.8352    3.0525   -1.3630 H   0  0  0  0  0  0  0  0  0  0  0  0
   -0.1765    1.1835   -1.6321 H   0  0  0  0  0  0  0  0  0  0  0  0
    1.4984    0.7071   -3.2469 H   0  0  0  0  0  0  0  0  0  0  0  0
    2.7909    0.8882   -2.0673 H   0  0  0  0  0  0  0  0  0  0  0  0
  1  2  2  3
  1  6  1  0
  1  7  1  0
  2  3  1  0
  2  8  1  0
  3  4  1  0
  3  9  1  0
  4  5  2  3
  4 10  1  0
  5 11  1  0
  5 12  1  0
 13 14  1  0
 13 20  1  0
 13 21  1  0
 13 22  1  0
 14 15  1  0
 14 23  1  0
 14 24  1  0
 15 16  1  0
 15 19  1  0
 15 25  1  0
 16 17  1  0
 16 26  1  0
 16 27  1  0
 17 18  1  0
 17 28  1  0
 17 29  1  0
 18 19  1  0
 18 30  1  0
 18 31  1  0
 19 20  1  0
 19 32  1  0
 20 33  1  0
 20 34  1  0
M  RAD  1   3   2
M  END
>  <reaction>  (5) 
rxn_562

>  <mol_properties>  (5) 
{"1": {"label": "*0", "atom_type": "Cd"}, "2": {"label": "*1", "atom_type": "Cs"}, "14": {"label": "*3", "atom_type": "Cs"}, "18": {"label": "*4", "atom_type": "Cs"}, "24": {"label": "*2", "atom_type": "H0"}}

>  <type>  (5) 
unop_1

>  <geom_source>  (5) 
Heuristics

$$$$

     RDKit          3D

 34 34  0  0  0  0  0  0  0  0999 V2000
   -1.6696   -2.4522    2.3576 C   0  0  0  0  0  0  0  0  0  0  0  0
   -1.5149   -2.0722    1.0996 C   0  0  0  0  0  0  0  0  0  0  0  0
   -1.6465   -0.6659    0.6057 C   0  0  0  0  0  3  0  0  0  0  0  0
   -2.7521   -0.4472   -0.3910 C   0  0  0  0  0  0  0  0  0  0  0  0
   -3.7085   -1.3109   -0.6933 C   0  0  0  0  0  0  0  0  0  0  0  0
   -1.5533   -3.4868    2.6553 H   0  0  0  0  0  0  0  0  0  0  0  0
   -1.9170   -1.7400    3.1377 H   0  0  0  0  0  0  0  0  0  0  0  0
   -1.2759   -2.8179    0.3457 H   0  0  0  0  0  0  0  0  0  0  0  0
   -1.7910    0.0146    1.4514 H   0  0  0  0  0  0  0  0  0  0  0  0
   -2.7423    0.5212   -0.8838 H   0  0  0  0  0  0  0  0  0  0  0  0
   -4.4722   -1.0669   -1.4208 H   0  0  0  0  0  0  0  0  0  0  0  0
   -3.7679   -2.2852   -0.2220 H   0  0  0  0  0  0  0  0  0  0  0  0
    1.7128   -0.8056   -1.7074 C   0  0  0  0  0  0  0  0  0  0  0  0
    1.7128   -0.8056   -0.1809 C   0  0  0  0  0  0  0  0  0  0  0  0
    0.7494    0.3292    0.2074 C   0  0  0  0  0  0  0  0  0  0  0  0
    1.2022    1.1677    1.4119 C   0  0  0  0  0  0  0  0  0  0  0  0
    2.0142    2.3059    0.7925 C   0  0  0  0  0  0  0  0  0  0  0  0
    1.2022    2.6655   -0.4524 C   0  0  0  0  0  0  0  0  0  0  0  0
    0.7494    1.3087   -1.0118 C   0  0  0  0  0  0  0  0  0  0  0  0
    1.7128    0.6850   -2.0362 C   0  0  0  0  0  0  0  0  0  0  0  0
    2.5576   -1.3438   -2.1398 H   0  0  0  0  0  0  0  0  0  0  0  0
    0.7969   -1.2724   -2.0824 H   0  0  0  0  0  0  0  0  0  0  0  0
    1.4285   -1.7639    0.2557 H   0  0  0  0  0  0  0  0  0  0  0  0
    2.7209   -0.5730    0.1784 H   0  0  0  0  0  0  0  0  0  0  0  0
   -0.4456   -0.1672    0.4061 H   0  0  0  0  0  0  0  0  0  0  0  0
    0.3344    1.5845    1.9303 H   0  0  0  0  0  0  0  0  0  0  0  0
    1.7653    0.5810    2.1401 H   0  0  0  0  0  0  0  0  0  0  0  0
    3.0053    1.9441    0.5018 H   0  0  0  0  0  0  0  0  0  0  0  0
    2.1621    3.1482    1.4692 H   0  0  0  0  0  0  0  0  0  0  0  0
    0.3344    3.2616   -0.1571 H   0  0  0  0  0  0  0  0  0  0  0  0
    1.7653    3.2503   -1.1822 H   0  0  0  0  0  0  0  0  0  0  0  0
   -0.2464    1.3813   -1.4514 H   0  0  0  0  0  0  0  0  0  0  0  0
    1.4285    0.9049   -3.0661 H   0  0  0  0  0  0  0  0  0  0  0  0
    2.7209    1.0860   -1.8865 H   0  0  0  0  0  0  0  0  0  0  0  0
  1  2  2  3
  1  6  1  0
  1  7  1  0
  2  3  1  0
  2  8  1  0
  3  4  1  0
  3  9  1  0
  4  5  2  3
  4 10  1  0
  5 11  1  0
  5 12  1  0
 13 14  1  0
 13 20  1  0
 13 21  1  0
 13 22  1  0
 14 15  1  0
 14 23  1  0
 14 24  1  0
 15 16  1  0
 15 19  1  0
 15 25  1  0
 16 17  1  0
 16 26  1  0
 16 27  1  0
 17 18  1  0
 17 28  1  0
 17 29  1  0
 18 19  1  0
 18 30  1  0
 18 31  1  0
 19 20  1  0
 19 32  1  0
 20 33  1  0
 20 34  1  0
M  RAD  1   3   2
M  END
>  <reaction>  (6) 
rxn_562

>  <mol_properties>  (6) 
{"1": {"label": "*0", "atom_type": "Cd"}, "2": {"label": "*1", "atom_type": "Cs"}, "14": {"label": "*3", "atom_type": "Cs"}, "18": {"label": "*4", "atom_type": "Cs"}, "24": {"label": "*2", "atom_type": "H0"}}

>  <type>  (6) 
unop_2

>  <geom_source>  (6) 
Heuristics

$$$$

     RDKit          3D

 34 34  0  0  0  0  0  0  0  0999 V2000
   -3.0899    0.9569    1.1663 C   0  0  0  0  0  0  0  0  0  0  0  0
   -2.2831   -0.0549    1.4427 C   0  0  0  0  0  0  0  0  0  0  0  0
   -1.5718   -0.8882    0.4237 C   0  0  0  0  0  3  0  0  0  0  0  0
   -1.9515   -2.3441    0.4216 C   0  0  0  0  0  0  0  0  0  0  0  0
   -2.9695   -2.8831    1.0737 C   0  0  0  0  0  0  0  0  0  0  0  0
   -3.5706    1.5286    1.9502 H   0  0  0  0  0  0  0  0  0  0  0  0
   -3.2979    1.2518    0.1433 H   0  0  0  0  0  0  0  0  0  0  0  0
   -2.1072   -0.3249    2.4809 H   0  0  0  0  0  0  0  0  0  0  0  0
   -1.7382   -0.4763   -0.5773 H   0  0  0  0  0  0  0  0  0  0  0  0
   -1.3186   -2.9837   -0.1875 H   0  0  0  0  0  0  0  0  0  0  0  0
   -3.1753   -3.9440    1.0098 H   0  0  0  0  0  0  0  0  0  0  0  0
   -3.6359   -2.2862    1.6857 H   0  0  0  0  0  0  0  0  0  0  0  0
    1.7875   -1.0279   -1.8894 C   0  0  0  0  0  0  0  0  0  0  0  0
    1.7875   -1.0279   -0.3630 C   0  0  0  0  0  0  0  0  0  0  0  0
    0.8241    0.1069    0.0254 C   0  0  0  0  0  0  0  0  0  0  0  0
    1.2769    0.9454    1.2298 C   0  0  0  0  0  0  0  0  0  0  0  0
    2.0889    2.0836    0.6104 C   0  0  0  0  0  0  0  0  0  0  0  0
    1.2769    2.4433   -0.6345 C   0  0  0  0  0  0  0  0  0  0  0  0
    0.8241    1.0864   -1.1938 C   0  0  0  0  0  0  0  0  0  0  0  0
    1.7875    0.4627   -2.2183 C   0  0  0  0  0  0  0  0  0  0  0  0
    2.6323   -1.5661   -2.3218 H   0  0  0  0  0  0  0  0  0  0  0  0
    0.8716   -1.4947   -2.2645 H   0  0  0  0  0  0  0  0  0  0  0  0
    1.5032   -1.9862    0.0736 H   0  0  0  0  0  0  0  0  0  0  0  0
    2.7956   -0.7953   -0.0037 H   0  0  0  0  0  0  0  0  0  0  0  0
   -0.3709   -0.3895    0.2241 H   0  0  0  0  0  0  0  0  0  0  0  0
    0.4091    1.3623    1.7483 H   0  0  0  0  0  0  0  0  0  0  0  0
    1.8400    0.3587    1.9581 H   0  0  0  0  0  0  0  0  0  0  0  0
    3.0800    1.7218    0.3197 H   0  0  0  0  0  0  0  0  0  0  0  0
    2.2368    2.9260    1.2872 H   0  0  0  0  0  0  0  0  0  0  0  0
    0.4091    3.0393   -0.3391 H   0  0  0  0  0  0  0  0  0  0  0  0
    1.8400    3.0280   -1.3643 H   0  0  0  0  0  0  0  0  0  0  0  0
   -0.1718    1.1590   -1.6334 H   0  0  0  0  0  0  0  0  0  0  0  0
    1.5032    0.6826   -3.2482 H   0  0  0  0  0  0  0  0  0  0  0  0
    2.7956    0.8637   -2.0686 H   0  0  0  0  0  0  0  0  0  0  0  0
  1  2  2  3
  1  6  1  0
  1  7  1  0
  2  3  1  0
  2  8  1  0
  3  4  1  0
  3  9  1  0
  4  5  2  3
  4 10  1  0
  5 11  1  0
  5 12  1  0
 13 14  1  0
 13 20  1  0
 13 21  1  0
 13 22  1  0
 14 15  1  0
 14 23  1  0
 14 24  1  0
 15 16  1  0
 15 19  1  0
 15 25  1  0
 16 17  1  0
 16 26  1  0
 16 27  1  0
 17 18  1  0
 17 28  1  0
 17 29  1  0
 18 19  1  0
 18 30  1  0
 18 31  1  0
 19 20  1  0
 19 32  1  0
 20 33  1  0
 20 34  1  0
M  RAD  1   3   2
M  END
>  <reaction>  (7) 
rxn_562

>  <mol_properties>  (7) 
{"1": {"label": "*0", "atom_type": "Cd"}, "2": {"label": "*1", "atom_type": "Cs"}, "14": {"label": "*3", "atom_type": "Cs"}, "18": {"label": "*4", "atom_type": "Cs"}, "24": {"label": "*2", "atom_type": "H0"}}

>  <type>  (7) 
unop_3

>  <geom_source>  (7) 
Heuristics

$$$$

     RDKit          3D

 34 34  0  0  0  0  0  0  0  0999 V2000
   -2.9552   -2.7014   -0.4701 C   0  0  0  0  0  0  0  0  0  0  0  0
   -2.0941   -1.6983   -0.4133 C   0  0  0  0  0  0  0  0  0  0  0  0
   -1.6224   -1.0426    0.8461 C   0  0  0  0  0  3  0  0  0  0  0  0
   -1.9744    0.4151    0.9695 C   0  0  0  0  0  0  0  0  0  0  0  0
   -2.8109    1.0817    0.1898 C   0  0  0  0  0  0  0  0  0  0  0  0
   -3.2524   -3.1403   -1.4143 H   0  0  0  0  0  0  0  0  0  0  0  0
   -3.3938   -3.1223    0.4285 H   0  0  0  0  0  0  0  0  0  0  0  0
   -1.6836   -1.2986   -1.3371 H   0  0  0  0  0  0  0  0  0  0  0  0
   -2.0171   -1.5780    1.7161 H   0  0  0  0  0  0  0  0  0  0  0  0
   -1.4884    0.9379    1.7887 H   0  0  0  0  0  0  0  0  0  0  0  0
   -3.0124    2.1323    0.3556 H   0  0  0  0  0  0  0  0  0  0  0  0
   -3.3282    0.6030   -0.6337 H   0  0  0  0  0  0  0  0  0  0  0  0
    1.7368   -1.1822   -1.4670 C   0  0  0  0  0  0  0  0  0  0  0  0
    1.7368   -1.1822    0.0595 C   0  0  0  0  0  0  0  0  0  0  0  0
    0.7735   -0.0475    0.4478 C   0  0  0  0  0  0  0  0  0  0  0  0
    1.2262    0.7911    1.6523 C   0  0  0  0  0  0  0  0  0  0  0  0
    2.0382    1.9293    1.0329 C   0  0  0  0  0  0  0  0  0  0  0  0
    1.2262    2.2889   -0.2120 C   0  0  0  0  0  0  0  0  0  0  0  0
    0.7735    0.9321   -0.7714 C   0  0  0  0  0  0  0  0  0  0  0  0
    1.7368    0.3084   -1.7958 C   0  0  0  0  0  0  0  0  0  0  0  0
    2.5817   -1.7204   -1.8993 H   0  0  0  0  0  0  0  0  0  0  0  0
    0.8210   -1.6491   -1.8420 H   0  0  0  0  0  0  0  0  0  0  0  0
    1.4525   -2.1406    0.4961 H   0  0  0  0  0  0  0  0  0  0  0  0
    2.7450   -0.9496    0.4188 H   0  0  0  0  0  0  0  0  0  0  0  0
   -0.4216   -0.5438    0.6465 H   0  0  0  0  0  0  0  0  0  0  0  0
    0.3584    1.2079    2.1707 H   0  0  0  0  0  0  0  0  0  0  0  0
    1.7893    0.2044    2.3806 H   0  0  0  0  0  0  0  0  0  0  0  0
    3.0293    1.5674    0.7422 H   0  0  0  0  0  0  0  0  0  0  0  0
    2.1861    2.7716    1.7097 H   0  0  0  0  0  0  0  0  0  0  0  0
    0.3584    2.8850    0.0833 H   0  0  0  0  0  0  0  0  0  0  0  0
    1.7893    2.8737   -0.9418 H   0  0  0  0  0  0  0  0  0  0  0  0
   -0.2224    1.0046   -1.2110 H   0  0  0  0  0  0  0  0  0  0  0  0
    1.4525    0.5282   -2.8257 H   0  0  0  0  0  0  0  0  0  0  0  0
    2.7450    0.7093   -1.6461 H   0  0  0  0  0  0  0  0  0  0  0  0
  1  2  2  3
  1  6  1  0
  1  7  1  0
  2  3  1  0
  2  8  1  0
  3  4  1  0
  3  9  1  0
  4  5  2  3
  4 10  1  0
  5 11  1  0
  5 12  1  0
 13 14  1  0
 13 20  1  0
 13 21  1  0
 13 22  1  0
 14 15  1  0
 14 23  1  0
 14 24  1  0
 15 16  1  0
 15 19  1  0
 15 25  1  0
 16 17  1  0
 16 26  1  0
 16 27  1  0
 17 18  1  0
 17 28  1  0
 17 29  1  0
 18 19  1  0
 18 30  1  0
 18 31  1  0
 19 20  1  0
 19 32  1  0
 20 33  1  0
 20 34  1  0
M  RAD  1   3   2
M  END
>  <reaction>  (8) 
rxn_562

>  <mol_properties>  (8) 
{"1": {"label": "*0", "atom_type": "Cd"}, "2": {"label": "*1", "atom_type": "Cs"}, "14": {"label": "*3", "atom_type": "Cs"}, "18": {"label": "*4", "atom_type": "Cs"}, "24": {"label": "*2", "atom_type": "H0"}}

>  <type>  (8) 
unop_4

>  <geom_source>  (8) 
Heuristics

$$$$

     RDKit          3D

 34 34  0  0  0  0  0  0  0  0999 V2000
   -3.6391    0.4787    0.0759 C   0  0  0  0  0  0  0  0  0  0  0  0
   -2.5425    0.1505    0.7398 C   0  0  0  0  0  0  0  0  0  0  0  0
   -1.6104   -0.9575    0.3625 C   0  0  0  0  0  3  0  0  0  0  0  0
   -1.4932   -2.0588    1.3809 C   0  0  0  0  0  0  0  0  0  0  0  0
   -2.2710   -2.2254    2.4389 C   0  0  0  0  0  0  0  0  0  0  0  0
   -4.2706    1.2983    0.3951 H   0  0  0  0  0  0  0  0  0  0  0  0
   -3.9447   -0.0608   -0.8143 H   0  0  0  0  0  0  0  0  0  0  0  0
   -2.2752    0.7102    1.6325 H   0  0  0  0  0  0  0  0  0  0  0  0
   -1.9147   -1.3911   -0.5960 H   0  0  0  0  0  0  0  0  0  0  0  0
   -0.6935   -2.7713    1.1980 H   0  0  0  0  0  0  0  0  0  0  0  0
   -2.1194   -3.0540    3.1190 H   0  0  0  0  0  0  0  0  0  0  0  0
   -3.0883   -1.5484    2.6591 H   0  0  0  0  0  0  0  0  0  0  0  0
    1.7488   -1.0972   -1.9506 C   0  0  0  0  0  0  0  0  0  0  0  0
    1.7488   -1.0972   -0.4242 C   0  0  0  0  0  0  0  0  0  0  0  0
    0.7855    0.0376   -0.0358 C   0  0  0  0  0  0  0  0  0  0  0  0
    1.2382    0.8761    1.1686 C   0  0  0  0  0  0  0  0  0  0  0  0
    2.0502    2.0143    0.5493 C   0  0  0  0  0  0  0  0  0  0  0  0
    1.2382    2.3740   -0.6956 C   0  0  0  0  0  0  0  0  0  0  0  0
    0.7855    1.0171   -1.2550 C   0  0  0  0  0  0  0  0  0  0  0  0
    1.7488    0.3934   -2.2795 C   0  0  0  0  0  0  0  0  0  0  0  0
    2.5937   -1.6354   -2.3830 H   0  0  0  0  0  0  0  0  0  0  0  0
    0.8330   -1.5640   -2.3257 H   0  0  0  0  0  0  0  0  0  0  0  0
    1.4645   -2.0555    0.0124 H   0  0  0  0  0  0  0  0  0  0  0  0
    2.7570   -0.8646   -0.0649 H   0  0  0  0  0  0  0  0  0  0  0  0
   -0.4096   -0.4588    0.1629 H   0  0  0  0  0  0  0  0  0  0  0  0
    0.3704    1.2930    1.6871 H   0  0  0  0  0  0  0  0  0  0  0  0
    1.8013    0.2894    1.8969 H   0  0  0  0  0  0  0  0  0  0  0  0
    3.0413    1.6525    0.2585 H   0  0  0  0  0  0  0  0  0  0  0  0
    2.1981    2.8567    1.2260 H   0  0  0  0  0  0  0  0  0  0  0  0
    0.3704    2.9700   -0.4003 H   0  0  0  0  0  0  0  0  0  0  0  0
    1.8013    2.9587   -1.4255 H   0  0  0  0  0  0  0  0  0  0  0  0
   -0.2104    1.0897   -1.6946 H   0  0  0  0  0  0  0  0  0  0  0  0
    1.4645    0.6133   -3.3094 H   0  0  0  0  0  0  0  0  0  0  0  0
    2.7570    0.7944   -2.1298 H   0  0  0  0  0  0  0  0  0  0  0  0
  1  2  2  3
  1  6  1  0
  1  7  1  0
  2  3  1  0
  2  8  1  0
  3  4  1  0
  3  9  1  0
  4  5  2  3
  4 10  1  0
  5 11  1  0
  5 12  1  0
 13 14  1  0
 13 20  1  0
 13 21  1  0
 13 22  1  0
 14 15  1  0
 14 23  1  0
 14 24  1  0
 15 16  1  0
 15 19  1  0
 15 25  1  0
 16 17  1  0
 16 26  1  0
 16 27  1  0
 17 18  1  0
 17 28  1  0
 17 29  1  0
 18 19  1  0
 18 30  1  0
 18 31  1  0
 19 20  1  0
 19 32  1  0
 20 33  1  0
 20 34  1  0
M  RAD  1   3   2
M  END
>  <reaction>  (9) 
rxn_562

>  <mol_properties>  (9) 
{"1": {"label": "*0", "atom_type": "Cd"}, "2": {"label": "*1", "atom_type": "Cs"}, "14": {"label": "*3", "atom_type": "Cs"}, "18": {"label": "*4", "atom_type": "Cs"}, "24": {"label": "*2", "atom_type": "H0"}}

>  <type>  (9) 
unop_5

>  <geom_source>  (9) 
Heuristics

$$$$

     RDKit          3D

 34 34  0  0  0  0  0  0  0  0999 V2000
   -3.4393   -1.8998   -0.8295 C   0  0  0  0  0  0  0  0  0  0  0  0
   -2.3790   -1.1550   -0.5610 C   0  0  0  0  0  0  0  0  0  0  0  0
   -1.6224   -1.1730    0.7297 C   0  0  0  0  0  3  0  0  0  0  0  0
   -1.6281    0.1292    1.4835 C   0  0  0  0  0  0  0  0  0  0  0  0
   -2.3884    1.1792    1.2159 C   0  0  0  0  0  0  0  0  0  0  0  0
   -3.9404   -1.8475   -1.7879 H   0  0  0  0  0  0  0  0  0  0  0  0
   -3.8444   -2.5920   -0.0989 H   0  0  0  0  0  0  0  0  0  0  0  0
   -2.0089   -0.4669   -1.3168 H   0  0  0  0  0  0  0  0  0  0  0  0
   -2.0136   -1.9619    1.3807 H   0  0  0  0  0  0  0  0  0  0  0  0
   -0.9415    0.1770    2.3242 H   0  0  0  0  0  0  0  0  0  0  0  0
   -2.3326    2.0774    1.8176 H   0  0  0  0  0  0  0  0  0  0  0  0
   -3.0963    1.1772    0.3951 H   0  0  0  0  0  0  0  0  0  0  0  0
    1.7369   -1.3126   -1.5834 C   0  0  0  0  0  0  0  0  0  0  0  0
    1.7369   -1.3126   -0.0570 C   0  0  0  0  0  0  0  0  0  0  0  0
    0.7735   -0.1779    0.3314 C   0  0  0  0  0  0  0  0  0  0  0  0
    1.2263    0.6607    1.5358 C   0  0  0  0  0  0  0  0  0  0  0  0
    2.0383    1.7989    0.9165 C   0  0  0  0  0  0  0  0  0  0  0  0
    1.2263    2.1585   -0.3285 C   0  0  0  0  0  0  0  0  0  0  0  0
    0.7735    0.8017   -0.8878 C   0  0  0  0  0  0  0  0  0  0  0  0
    1.7369    0.1780   -1.9123 C   0  0  0  0  0  0  0  0  0  0  0  0
    2.5817   -1.8508   -2.0158 H   0  0  0  0  0  0  0  0  0  0  0  0
    0.8210   -1.7795   -1.9585 H   0  0  0  0  0  0  0  0  0  0  0  0
    1.4525   -2.2710    0.3796 H   0  0  0  0  0  0  0  0  0  0  0  0
    2.7450   -1.0800    0.3023 H   0  0  0  0  0  0  0  0  0  0  0  0
   -0.4215   -0.6742    0.5301 H   0  0  0  0  0  0  0  0  0  0  0  0
    0.3584    1.0775    2.0543 H   0  0  0  0  0  0  0  0  0  0  0  0
    1.7893    0.0740    2.2641 H   0  0  0  0  0  0  0  0  0  0  0  0
    3.0294    1.4370    0.6257 H   0  0  0  0  0  0  0  0  0  0  0  0
    2.1862    2.6412    1.5932 H   0  0  0  0  0  0  0  0  0  0  0  0
    0.3584    2.7546   -0.0331 H   0  0  0  0  0  0  0  0  0  0  0  0
    1.7893    2.7433   -1.0583 H   0  0  0  0  0  0  0  0  0  0  0  0
   -0.2224    0.8742   -1.3274 H   0  0  0  0  0  0  0  0  0  0  0  0
    1.4525    0.3978   -2.9422 H   0  0  0  0  0  0  0  0  0  0  0  0
    2.7450    0.5789   -1.7626 H   0  0  0  0  0  0  0  0  0  0  0  0
  1  2  2  3
  1  6  1  0
  1  7  1  0
  2  3  1  0
  2  8  1  0
  3  4  1  0
  3  9  1  0
  4  5  2  3
  4 10  1  0
  5 11  1  0
  5 12  1  0
 13 14  1  0
 13 20  1  0
 13 21  1  0
 13 22  1  0
 14 15  1  0
 14 23  1  0
 14 24  1  0
 15 16  1  0
 15 19  1  0
 15 25  1  0
 16 17  1  0
 16 26  1  0
 16 27  1  0
 17 18  1  0
 17 28  1  0
 17 29  1  0
 18 19  1  0
 18 30  1  0
 18 31  1  0
 19 20  1  0
 19 32  1  0
 20 33  1  0
 20 34  1  0
M  RAD  1   3   2
M  END
>  <reaction>  (10) 
rxn_562

>  <mol_properties>  (10) 
{"1": {"label": "*0", "atom_type": "Cd"}, "2": {"label": "*1", "atom_type": "Cs"}, "14": {"label": "*3", "atom_type": "Cs"}, "18": {"label": "*4", "atom_type": "Cs"}, "24": {"label": "*2", "atom_type": "H0"}}

>  <type>  (10) 
unop_6

>  <geom_source>  (10) 
Heuristics

$$$$

     RDKit          3D

 34 34  0  0  0  0  0  0  0  0999 V2000
   -3.7658   -1.0785   -0.7478 C   0  0  0  0  0  0  0  0  0  0  0  0
   -2.5930   -0.5741   -0.3997 C   0  0  0  0  0  0  0  0  0  0  0  0
   -1.6348   -1.2114    0.5566 C   0  0  0  0  0  3  0  0  0  0  0  0
   -1.3540   -0.4094    1.7982 C   0  0  0  0  0  0  0  0  0  0  0  0
   -2.0160    0.6658    2.1957 C   0  0  0  0  0  0  0  0  0  0  0  0
   -4.4132   -0.5725   -1.4530 H   0  0  0  0  0  0  0  0  0  0  0  0
   -4.1208   -2.0191   -0.3404 H   0  0  0  0  0  0  0  0  0  0  0  0
   -2.2770    0.3756   -0.8236 H   0  0  0  0  0  0  0  0  0  0  0  0
   -2.0015   -2.2011    0.8485 H   0  0  0  0  0  0  0  0  0  0  0  0
   -0.5331   -0.7772    2.4077 H   0  0  0  0  0  0  0  0  0  0  0  0
   -1.7499    1.1794    3.1107 H   0  0  0  0  0  0  0  0  0  0  0  0
   -2.8487    1.0656    1.6286 H   0  0  0  0  0  0  0  0  0  0  0  0
    1.7245   -1.3511   -1.7565 C   0  0  0  0  0  0  0  0  0  0  0  0
    1.7245   -1.3511   -0.2301 C   0  0  0  0  0  0  0  0  0  0  0  0
    0.7612   -0.2163    0.1583 C   0  0  0  0  0  0  0  0  0  0  0  0
    1.2139    0.6222    1.3627 C   0  0  0  0  0  0  0  0  0  0  0  0
    2.0259    1.7604    0.7434 C   0  0  0  0  0  0  0  0  0  0  0  0
    1.2139    2.1201   -0.5015 C   0  0  0  0  0  0  0  0  0  0  0  0
    0.7612    0.7632   -1.0609 C   0  0  0  0  0  0  0  0  0  0  0  0
    1.7245    0.1395   -2.0854 C   0  0  0  0  0  0  0  0  0  0  0  0
    2.5694   -1.8893   -2.1889 H   0  0  0  0  0  0  0  0  0  0  0  0
    0.8087   -1.8179   -2.1316 H   0  0  0  0  0  0  0  0  0  0  0  0
    1.4402   -2.3094    0.2065 H   0  0  0  0  0  0  0  0  0  0  0  0
    2.7327   -1.1185    0.1292 H   0  0  0  0  0  0  0  0  0  0  0  0
   -0.4339   -0.7127    0.3570 H   0  0  0  0  0  0  0  0  0  0  0  0
    0.3461    1.0391    1.8812 H   0  0  0  0  0  0  0  0  0  0  0  0
    1.7770    0.0355    2.0910 H   0  0  0  0  0  0  0  0  0  0  0  0
    3.0170    1.3986    0.4527 H   0  0  0  0  0  0  0  0  0  0  0  0
    2.1738    2.6028    1.4201 H   0  0  0  0  0  0  0  0  0  0  0  0
    0.3461    2.7161   -0.2062 H   0  0  0  0  0  0  0  0  0  0  0  0
    1.7770    2.7048   -1.2314 H   0  0  0  0  0  0  0  0  0  0  0  0
   -0.2347    0.8358   -1.5005 H   0  0  0  0  0  0  0  0  0  0  0  0
    1.4402    0.3594   -3.1153 H   0  0  0  0  0  0  0  0  0  0  0  0
    2.7327    0.5405   -1.9356 H   0  0  0  0  0  0  0  0  0  0  0  0
  1  2  2  3
  1  6  1  0
  1  7  1  0
  2  3  1  0
  2  8  1  0
  3  4  1  0
  3  9  1  0
  4  5  2  3
  4 10  1  0
  5 11  1  0
  5 12  1  0
 13 14  1  0
 13 20  1  0
 13 21  1  0
 13 22  1  0
 14 15  1  0
 14 23  1  0
 14 24  1  0
 15 16  1  0
 15 19  1  0
 15 25  1  0
 16 17  1  0
 16 26  1  0
 16 27  1  0
 17 18  1  0
 17 28  1  0
 17 29  1  0
 18 19  1  0
 18 30  1  0
 18 31  1  0
 19 20  1  0
 19 32  1  0
 20 33  1  0
 20 34  1  0
M  RAD  1   3   2
M  END
>  <reaction>  (11) 
rxn_562

>  <mol_properties>  (11) 
{"1": {"label": "*0", "atom_type": "Cd"}, "2": {"label": "*1", "atom_type": "Cs"}, "14": {"label": "*3", "atom_type": "Cs"}, "18": {"label": "*4", "atom_type": "Cs"}, "24": {"label": "*2", "atom_type": "H0"}}

>  <type>  (11) 
unop_7

>  <geom_source>  (11) 
Heuristics

$$$$

     RDKit          3D

 34 34  0  0  0  0  0  0  0  0999 V2000
   -2.0394   -0.3554    2.8448 C   0  0  0  0  0  0  0  0  0  0  0  0
   -1.7387   -1.1862    1.8598 C   0  0  0  0  0  0  0  0  0  0  0  0
   -1.6044   -0.7983    0.4210 C   0  0  0  0  0  3  0  0  0  0  0  0
   -2.5883   -1.4589   -0.5060 C   0  0  0  0  0  0  0  0  0  0  0  0
   -3.6500   -2.1602   -0.1412 C   0  0  0  0  0  0  0  0  0  0  0  0
   -2.1145   -0.6957    3.8700 H   0  0  0  0  0  0  0  0  0  0  0  0
   -2.2200    0.6984    2.6612 H   0  0  0  0  0  0  0  0  0  0  0  0
   -1.5736   -2.2370    2.0838 H   0  0  0  0  0  0  0  0  0  0  0  0
   -1.6934    0.2883    0.3175 H   0  0  0  0  0  0  0  0  0  0  0  0
   -2.3866   -1.3215   -1.5647 H   0  0  0  0  0  0  0  0  0  0  0  0
   -4.3118   -2.5965   -0.8785 H   0  0  0  0  0  0  0  0  0  0  0  0
   -3.9001   -2.3169    0.9018 H   0  0  0  0  0  0  0  0  0  0  0  0
    1.7549   -0.9379   -1.8921 C   0  0  0  0  0  0  0  0  0  0  0  0
    1.7549   -0.9379   -0.3657 C   0  0  0  0  0  0  0  0  0  0  0  0
    0.7915    0.1968    0.0227 C   0  0  0  0  0  0  0  0  0  0  0  0
    1.2443    1.0354    1.2271 C   0  0  0  0  0  0  0  0  0  0  0  0
    2.0563    2.1736    0.6077 C   0  0  0  0  0  0  0  0  0  0  0  0
    1.2443    2.5332   -0.6372 C   0  0  0  0  0  0  0  0  0  0  0  0
    0.7915    1.1764   -1.1966 C   0  0  0  0  0  0  0  0  0  0  0  0
    1.7549    0.5526   -2.2210 C   0  0  0  0  0  0  0  0  0  0  0  0
    2.5997   -1.4761   -2.3245 H   0  0  0  0  0  0  0  0  0  0  0  0
    0.8390   -1.4048   -2.2672 H   0  0  0  0  0  0  0  0  0  0  0  0
    1.4706   -1.8963    0.0709 H   0  0  0  0  0  0  0  0  0  0  0  0
    2.7630   -0.7054   -0.0064 H   0  0  0  0  0  0  0  0  0  0  0  0
   -0.4035   -0.2995    0.2213 H   0  0  0  0  0  0  0  0  0  0  0  0
    0.3765    1.4522    1.7455 H   0  0  0  0  0  0  0  0  0  0  0  0
    1.8074    0.4487    1.9554 H   0  0  0  0  0  0  0  0  0  0  0  0
    3.0474    1.8117    0.3170 H   0  0  0  0  0  0  0  0  0  0  0  0
    2.2042    3.0159    1.2845 H   0  0  0  0  0  0  0  0  0  0  0  0
    0.3765    3.1292   -0.3418 H   0  0  0  0  0  0  0  0  0  0  0  0
    1.8074    3.1179   -1.3670 H   0  0  0  0  0  0  0  0  0  0  0  0
   -0.2043    1.2489   -1.6361 H   0  0  0  0  0  0  0  0  0  0  0  0
    1.4706    0.7725   -3.2509 H   0  0  0  0  0  0  0  0  0  0  0  0
    2.7630    0.9536   -2.0713 H   0  0  0  0  0  0  0  0  0  0  0  0
  1  2  2  3
  1  6  1  0
  1  7  1  0
  2  3  1  0
  2  8  1  0
  3  4  1  0
  3  9  1  0
  4  5  2  3
  4 10  1  0
  5 11  1  0
  5 12  1  0
 13 14  1  0
 13 20  1  0
 13 21  1  0
 13 22  1  0
 14 15  1  0
 14 23  1  0
 14 24  1  0
 15 16  1  0
 15 19  1  0
 15 25  1  0
 16 17  1  0
 16 26  1  0
 16 27  1  0
 17 18  1  0
 17 28  1  0
 17 29  1  0
 18 19  1  0
 18 30  1  0
 18 31  1  0
 19 20  1  0
 19 32  1  0
 20 33  1  0
 20 34  1  0
M  RAD  1   3   2
M  END
>  <reaction>  (12) 
rxn_562

>  <mol_properties>  (12) 
{"1": {"label": "*0", "atom_type": "Cd"}, "2": {"label": "*1", "atom_type": "Cs"}, "14": {"label": "*3", "atom_type": "Cs"}, "18": {"label": "*4", "atom_type": "Cs"}, "24": {"label": "*2", "atom_type": "H0"}}

>  <type>  (12) 
unop_8

>  <geom_source>  (12) 
Heuristics

$$$$

     RDKit          3D

 34 34  0  0  0  0  0  0  0  0999 V2000
   -2.4039   -3.1944    0.3623 C   0  0  0  0  0  0  0  0  0  0  0  0
   -1.8115   -2.0707   -0.0086 C   0  0  0  0  0  0  0  0  0  0  0  0
   -1.6319   -0.8674    0.8623 C   0  0  0  0  0  3  0  0  0  0  0  0
   -2.3259    0.3751    0.3741 C   0  0  0  0  0  0  0  0  0  0  0  0
   -3.2152    0.4354   -0.6046 C   0  0  0  0  0  0  0  0  0  0  0  0
   -2.4964   -4.0357   -0.3129 H   0  0  0  0  0  0  0  0  0  0  0  0
   -2.8172   -3.3142    1.3582 H   0  0  0  0  0  0  0  0  0  0  0  0
   -1.4180   -1.9868   -1.0184 H   0  0  0  0  0  0  0  0  0  0  0  0
   -1.9730   -1.0884    1.8792 H   0  0  0  0  0  0  0  0  0  0  0  0
   -2.0583    1.2879    0.8992 H   0  0  0  0  0  0  0  0  0  0  0  0
   -3.6725    1.3751   -0.8869 H   0  0  0  0  0  0  0  0  0  0  0  0
   -3.5231   -0.4483   -1.1515 H   0  0  0  0  0  0  0  0  0  0  0  0
    1.7273   -1.0071   -1.4508 C   0  0  0  0  0  0  0  0  0  0  0  0
    1.7273   -1.0071    0.0756 C   0  0  0  0  0  0  0  0  0  0  0  0
    0.7640    0.1277    0.4640 C   0  0  0  0  0  0  0  0  0  0  0  0
    1.2167    0.9662    1.6684 C   0  0  0  0  0  0  0  0  0  0  0  0
    2.0287    2.1044    1.0490 C   0  0  0  0  0  0  0  0  0  0  0  0
    1.2167    2.4640   -0.1959 C   0  0  0  0  0  0  0  0  0  0  0  0
    0.7640    1.1072   -0.7553 C   0  0  0  0  0  0  0  0  0  0  0  0
    1.7273    0.4835   -1.7797 C   0  0  0  0  0  0  0  0  0  0  0  0
    2.5722   -1.5453   -1.8832 H   0  0  0  0  0  0  0  0  0  0  0  0
    0.8115   -1.4739   -1.8259 H   0  0  0  0  0  0  0  0  0  0  0  0
    1.4430   -1.9654    0.5122 H   0  0  0  0  0  0  0  0  0  0  0  0
    2.7355   -0.7745    0.4349 H   0  0  0  0  0  0  0  0  0  0  0  0
   -0.4311   -0.3687    0.6626 H   0  0  0  0  0  0  0  0  0  0  0  0
    0.3489    1.3830    2.1868 H   0  0  0  0  0  0  0  0  0  0  0  0
    1.7798    0.3795    2.3967 H   0  0  0  0  0  0  0  0  0  0  0  0
    3.0199    1.7426    0.7583 H   0  0  0  0  0  0  0  0  0  0  0  0
    2.1767    2.9467    1.7258 H   0  0  0  0  0  0  0  0  0  0  0  0
    0.3489    3.0601    0.0995 H   0  0  0  0  0  0  0  0  0  0  0  0
    1.7798    3.0488   -0.9257 H   0  0  0  0  0  0  0  0  0  0  0  0
   -0.2319    1.1798   -1.1948 H   0  0  0  0  0  0  0  0  0  0  0  0
    1.4430    0.7034   -2.8096 H   0  0  0  0  0  0  0  0  0  0  0  0
    2.7355    0.8845   -1.6300 H   0  0  0  0  0  0  0  0  0  0  0  0
  1  2  2  3
  1  6  1  0
  1  7  1  0
  2  3  1  0
  2  8  1  0
  3  4  1  0
  3  9  1  0
  4  5  2  3
  4 10  1  0
  5 11  1  0
  5 12  1  0
 13 14  1  0
 13 20  1  0
 13 21  1  0
 13 22  1  0
 14 15  1  0
 14 23  1  0
 14 24  1  0
 15 16  1  0
 15 19  1  0
 15 25  1  0
 16 17  1  0
 16 26  1  0
 16 27  1  0
 17 18  1  0
 17 28  1  0
 17 29  1  0
 18 19  1  0
 18 30  1  0
 18 31  1  0
 19 20  1  0
 19 32  1  0
 20 33  1  0
 20 34  1  0
M  RAD  1   3   2
M  END
>  <reaction>  (13) 
rxn_562

>  <mol_properties>  (13) 
{"1": {"label": "*0", "atom_type": "Cd"}, "2": {"label": "*1", "atom_type": "Cs"}, "14": {"label": "*3", "atom_type": "Cs"}, "18": {"label": "*4", "atom_type": "Cs"}, "24": {"label": "*2", "atom_type": "H0"}}

>  <type>  (13) 
unop_9

>  <geom_source>  (13) 
Heuristics

$$$$

     RDKit          3D

 34 34  0  0  0  0  0  0  0  0999 V2000
   -1.7243   -1.4482    2.8656 C   0  0  0  0  0  0  0  0  0  0  0  0
   -1.5655   -1.7197    1.5803 C   0  0  0  0  0  0  0  0  0  0  0  0
   -1.6329   -0.7124    0.4759 C   0  0  0  0  0  3  0  0  0  0  0  0
   -2.7378   -0.9396   -0.5198 C   0  0  0  0  0  0  0  0  0  0  0  0
   -3.7393   -1.7950   -0.3883 C   0  0  0  0  0  0  0  0  0  0  0  0
   -1.6561   -2.2214    3.6206 H   0  0  0  0  0  0  0  0  0  0  0  0
   -1.9270   -0.4398    3.2103 H   0  0  0  0  0  0  0  0  0  0  0  0
   -1.3726   -2.7448    1.2745 H   0  0  0  0  0  0  0  0  0  0  0  0
   -1.7337    0.2944    0.8947 H   0  0  0  0  0  0  0  0  0  0  0  0
   -2.6856   -0.3234   -1.4133 H   0  0  0  0  0  0  0  0  0  0  0  0
   -4.4983   -1.8888   -1.1544 H   0  0  0  0  0  0  0  0  0  0  0  0
   -3.8415   -2.4241    0.4885 H   0  0  0  0  0  0  0  0  0  0  0  0
    1.7264   -0.8521   -1.8372 C   0  0  0  0  0  0  0  0  0  0  0  0
    1.7264   -0.8521   -0.3107 C   0  0  0  0  0  0  0  0  0  0  0  0
    0.7630    0.2826    0.0776 C   0  0  0  0  0  0  0  0  0  0  0  0
    1.2158    1.1212    1.2821 C   0  0  0  0  0  0  0  0  0  0  0  0
    2.0278    2.2594    0.6627 C   0  0  0  0  0  0  0  0  0  0  0  0
    1.2158    2.6190   -0.5822 C   0  0  0  0  0  0  0  0  0  0  0  0
    0.7630    1.2622   -1.1416 C   0  0  0  0  0  0  0  0  0  0  0  0
    1.7264    0.6385   -2.1660 C   0  0  0  0  0  0  0  0  0  0  0  0
    2.5712   -1.3903   -2.2696 H   0  0  0  0  0  0  0  0  0  0  0  0
    0.8105   -1.3190   -2.2123 H   0  0  0  0  0  0  0  0  0  0  0  0
    1.4420   -1.8105    0.1258 H   0  0  0  0  0  0  0  0  0  0  0  0
    2.7345   -0.6195    0.0485 H   0  0  0  0  0  0  0  0  0  0  0  0
   -0.4320   -0.2137    0.2763 H   0  0  0  0  0  0  0  0  0  0  0  0
    0.3479    1.5380    1.8005 H   0  0  0  0  0  0  0  0  0  0  0  0
    1.7788    0.5345    2.0103 H   0  0  0  0  0  0  0  0  0  0  0  0
    3.0189    1.8975    0.3720 H   0  0  0  0  0  0  0  0  0  0  0  0
    2.1757    3.1017    1.3394 H   0  0  0  0  0  0  0  0  0  0  0  0
    0.3479    3.2151   -0.2869 H   0  0  0  0  0  0  0  0  0  0  0  0
    1.7788    3.2038   -1.3121 H   0  0  0  0  0  0  0  0  0  0  0  0
   -0.2329    1.3348   -1.5812 H   0  0  0  0  0  0  0  0  0  0  0  0
    1.4420    0.8584   -3.1959 H   0  0  0  0  0  0  0  0  0  0  0  0
    2.7345    1.0394   -2.0163 H   0  0  0  0  0  0  0  0  0  0  0  0
  1  2  2  3
  1  6  1  0
  1  7  1  0
  2  3  1  0
  2  8  1  0
  3  4  1  0
  3  9  1  0
  4  5  2  3
  4 10  1  0
  5 11  1  0
  5 12  1  0
 13 14  1  0
 13 20  1  0
 13 21  1  0
 13 22  1  0
 14 15  1  0
 14 23  1  0
 14 24  1  0
 15 16  1  0
 15 19  1  0
 15 25  1  0
 16 17  1  0
 16 26  1  0
 16 27  1  0
 17 18  1  0
 17 28  1  0
 17 29  1  0
 18 19  1  0
 18 30  1  0
 18 31  1  0
 19 20  1  0
 19 32  1  0
 20 33  1  0
 20 34  1  0
M  RAD  1   3   2
M  END
>  <reaction>  (14) 
rxn_562

>  <mol_properties>  (14) 
{"1": {"label": "*0", "atom_type": "Cd"}, "2": {"label": "*1", "atom_type": "Cs"}, "14": {"label": "*3", "atom_type": "Cs"}, "18": {"label": "*4", "atom_type": "Cs"}, "24": {"label": "*2", "atom_type": "H0"}}

>  <type>  (14) 
unop_10

>  <geom_source>  (14) 
Heuristics

$$$$

     RDKit          3D

 34 34  0  0  0  0  0  0  0  0999 V2000
   -3.8695   -0.3445   -0.4372 C   0  0  0  0  0  0  0  0  0  0  0  0
   -2.6658   -0.0899    0.0498 C   0  0  0  0  0  0  0  0  0  0  0  0
   -1.6433   -1.1261    0.3955 C   0  0  0  0  0  3  0  0  0  0  0  0
   -1.2532   -1.1688    1.8480 C   0  0  0  0  0  0  0  0  0  0  0  0
   -1.8663   -0.5373    2.8366 C   0  0  0  0  0  0  0  0  0  0  0  0
   -4.5640    0.4513   -0.6759 H   0  0  0  0  0  0  0  0  0  0  0  0
   -4.2041   -1.3606   -0.6169 H   0  0  0  0  0  0  0  0  0  0  0  0
   -2.3713    0.9419    0.2241 H   0  0  0  0  0  0  0  0  0  0  0  0
   -1.9994   -2.1169    0.0942 H   0  0  0  0  0  0  0  0  0  0  0  0
   -0.3915   -1.7906    2.0748 H   0  0  0  0  0  0  0  0  0  0  0  0
   -1.5209   -0.6302    3.8584 H   0  0  0  0  0  0  0  0  0  0  0  0
   -2.7359    0.0862    2.6636 H   0  0  0  0  0  0  0  0  0  0  0  0
    1.7159   -1.2658   -1.9176 C   0  0  0  0  0  0  0  0  0  0  0  0
    1.7159   -1.2658   -0.3912 C   0  0  0  0  0  0  0  0  0  0  0  0
    0.7526   -0.1311   -0.0028 C   0  0  0  0  0  0  0  0  0  0  0  0
    1.2053    0.7075    1.2016 C   0  0  0  0  0  0  0  0  0  0  0  0
    2.0173    1.8457    0.5823 C   0  0  0  0  0  0  0  0  0  0  0  0
    1.2053    2.2053   -0.6626 C   0  0  0  0  0  0  0  0  0  0  0  0
    0.7526    0.8485   -1.2220 C   0  0  0  0  0  0  0  0  0  0  0  0
    1.7159    0.2248   -2.2464 C   0  0  0  0  0  0  0  0  0  0  0  0
    2.5608   -1.8040   -2.3500 H   0  0  0  0  0  0  0  0  0  0  0  0
    0.8001   -1.7326   -2.2927 H   0  0  0  0  0  0  0  0  0  0  0  0
    1.4316   -2.2242    0.0454 H   0  0  0  0  0  0  0  0  0  0  0  0
    2.7241   -1.0332   -0.0319 H   0  0  0  0  0  0  0  0  0  0  0  0
   -0.4425   -0.6274    0.1959 H   0  0  0  0  0  0  0  0  0  0  0  0
    0.3375    1.1243    1.7201 H   0  0  0  0  0  0  0  0  0  0  0  0
    1.7684    0.1208    1.9299 H   0  0  0  0  0  0  0  0  0  0  0  0
    3.0084    1.4839    0.2916 H   0  0  0  0  0  0  0  0  0  0  0  0
    2.1653    2.6880    1.2590 H   0  0  0  0  0  0  0  0  0  0  0  0
    0.3375    2.8014   -0.3673 H   0  0  0  0  0  0  0  0  0  0  0  0
    1.7684    2.7901   -1.3925 H   0  0  0  0  0  0  0  0  0  0  0  0
   -0.2433    0.9211   -1.6616 H   0  0  0  0  0  0  0  0  0  0  0  0
    1.4316    0.4447   -3.2764 H   0  0  0  0  0  0  0  0  0  0  0  0
    2.7241    0.6257   -2.0967 H   0  0  0  0  0  0  0  0  0  0  0  0
  1  2  2  3
  1  6  1  0
  1  7  1  0
  2  3  1  0
  2  8  1  0
  3  4  1  0
  3  9  1  0
  4  5  2  3
  4 10  1  0
  5 11  1  0
  5 12  1  0
 13 14  1  0
 13 20  1  0
 13 21  1  0
 13 22  1  0
 14 15  1  0
 14 23  1  0
 14 24  1  0
 15 16  1  0
 15 19  1  0
 15 25  1  0
 16 17  1  0
 16 26  1  0
 16 27  1  0
 17 18  1  0
 17 28  1  0
 17 29  1  0
 18 19  1  0
 18 30  1  0
 18 31  1  0
 19 20  1  0
 19 32  1  0
 20 33  1  0
 20 34  1  0
M  RAD  1   3   2
M  END
>  <reaction>  (15) 
rxn_562

>  <mol_properties>  (15) 
{"1": {"label": "*0", "atom_type": "Cd"}, "2": {"label": "*1", "atom_type": "Cs"}, "14": {"label": "*3", "atom_type": "Cs"}, "18": {"label": "*4", "atom_type": "Cs"}, "24": {"label": "*2", "atom_type": "H0"}}

>  <type>  (15) 
unop_11

>  <geom_source>  (15) 
Heuristics

$$$$

     RDKit          3D

 34 34  0  0  0  0  0  0  0  0999 V2000
   -1.9216   -3.1127    1.4349 C   0  0  0  0  0  0  0  0  0  0  0  0
   -1.6018   -2.1962    0.5356 C   0  0  0  0  0  0  0  0  0  0  0  0
   -1.6429   -0.7182    0.7647 C   0  0  0  0  0  3  0  0  0  0  0  0
   -2.6092    0.0304   -0.1125 C   0  0  0  0  0  0  0  0  0  0  0  0
   -3.5360   -0.5109   -0.8872 C   0  0  0  0  0  0  0  0  0  0  0  0
   -1.8636   -4.1706    1.2111 H   0  0  0  0  0  0  0  0  0  0  0  0
   -2.2520   -2.8374    2.4308 H   0  0  0  0  0  0  0  0  0  0  0  0
   -1.2836   -2.5128   -0.4545 H   0  0  0  0  0  0  0  0  0  0  0  0
   -1.8803   -0.5096    1.8133 H   0  0  0  0  0  0  0  0  0  0  0  0
   -2.5187    1.1127   -0.0776 H   0  0  0  0  0  0  0  0  0  0  0  0
   -4.1968    0.1062   -1.4826 H   0  0  0  0  0  0  0  0  0  0  0  0
   -3.6732   -1.5844   -0.9486 H   0  0  0  0  0  0  0  0  0  0  0  0
    1.7163   -0.8579   -1.5484 C   0  0  0  0  0  0  0  0  0  0  0  0
    1.7163   -0.8579   -0.0219 C   0  0  0  0  0  0  0  0  0  0  0  0
    0.7530    0.2769    0.3664 C   0  0  0  0  0  0  0  0  0  0  0  0
    1.2057    1.1154    1.5709 C   0  0  0  0  0  0  0  0  0  0  0  0
    2.0177    2.2536    0.9515 C   0  0  0  0  0  0  0  0  0  0  0  0
    1.2057    2.6132   -0.2934 C   0  0  0  0  0  0  0  0  0  0  0  0
    0.7530    1.2564   -0.8528 C   0  0  0  0  0  0  0  0  0  0  0  0
    1.7163    0.6327   -1.8772 C   0  0  0  0  0  0  0  0  0  0  0  0
    2.5612   -1.3961   -1.9807 H   0  0  0  0  0  0  0  0  0  0  0  0
    0.8005   -1.3247   -1.9234 H   0  0  0  0  0  0  0  0  0  0  0  0
    1.4320   -1.8162    0.4147 H   0  0  0  0  0  0  0  0  0  0  0  0
    2.7245   -0.6253    0.3374 H   0  0  0  0  0  0  0  0  0  0  0  0
   -0.4421   -0.2195    0.5651 H   0  0  0  0  0  0  0  0  0  0  0  0
    0.3379    1.5322    2.0893 H   0  0  0  0  0  0  0  0  0  0  0  0
    1.7688    0.5287    2.2992 H   0  0  0  0  0  0  0  0  0  0  0  0
    3.0088    1.8918    0.6608 H   0  0  0  0  0  0  0  0  0  0  0  0
    2.1656    3.0960    1.6283 H   0  0  0  0  0  0  0  0  0  0  0  0
    0.3379    3.2093    0.0019 H   0  0  0  0  0  0  0  0  0  0  0  0
    1.7688    3.1980   -1.0232 H   0  0  0  0  0  0  0  0  0  0  0  0
   -0.2429    1.3290   -1.2924 H   0  0  0  0  0  0  0  0  0  0  0  0
    1.4320    0.8526   -2.9071 H   0  0  0  0  0  0  0  0  0  0  0  0
    2.7245    1.0337   -1.7275 H   0  0  0  0  0  0  0  0  0  0  0  0
  1  2  2  3
  1  6  1  0
  1  7  1  0
  2  3  1  0
  2  8  1  0
  3  4  1  0
  3  9  1  0
  4  5  2  3
  4 10  1  0
  5 11  1  0
  5 12  1  0
 13 14  1  0
 13 20  1  0
 13 21  1  0
 13 22  1  0
 14 15  1  0
 14 23  1  0
 14 24  1  0
 15 16  1  0
 15 19  1  0
 15 25  1  0
 16 17  1  0
 16 26  1  0
 16 27  1  0
 17 18  1  0
 17 28  1  0
 17 29  1  0
 18 19  1  0
 18 30  1  0
 18 31  1  0
 19 20  1  0
 19 32  1  0
 20 33  1  0
 20 34  1  0
M  RAD  1   3   2
M  END
>  <reaction>  (16) 
rxn_562

>  <mol_properties>  (16) 
{"1": {"label": "*0", "atom_type": "Cd"}, "2": {"label": "*1", "atom_type": "Cs"}, "14": {"label": "*3", "atom_type": "Cs"}, "18": {"label": "*4", "atom_type": "Cs"}, "24": {"label": "*2", "atom_type": "H0"}}

>  <type>  (16) 
unop_12

>  <geom_source>  (16) 
Heuristics

$$$$

     RDKit          3D

 34 32  0  0  0  0  0  0  0  0999 V2000
   -1.0280   -0.2097    0.3296 C   0  0  0  0  0  3  0  0  0  0  0  0
   -1.8519    0.8214    1.1075 C   0  0  0  0  0  0  0  0  0  0  0  0
   -1.8461   -1.3352   -0.3116 C   0  0  0  0  0  3  0  0  0  0  0  0
   -1.2627    2.1713    0.7322 C   0  0  0  0  0  0  0  0  0  0  0  0
   -1.2525   -1.5224   -1.6983 C   0  0  0  0  0  0  0  0  0  0  0  0
   -0.7583    2.0069   -0.6917 C   0  0  0  0  0  0  0  0  0  0  0  0
   -0.7522   -0.1478   -2.1095 C   0  0  0  0  0  0  0  0  0  0  0  0
    1.1033   -0.6354    1.0623 C   0  0  0  0  0  3  0  0  0  0  0  0
   -0.3468    0.5390   -0.8054 C   0  0  0  0  0  0  0  0  0  0  0  0
    1.9484    0.4834    1.5979 C   0  0  0  0  0  3  0  0  0  0  0  0
    1.9450   -1.8439    0.7738 C   0  0  0  0  0  0  0  0  0  0  0  0
    2.4869    1.3999    0.7899 C   0  0  0  0  0  0  0  0  0  0  0  0
    2.7065   -1.9192   -0.3207 C   0  0  0  0  0  3  0  0  0  0  0  0
   -0.2371   -0.6382    0.9841 H   0  0  0  0  0  0  0  0  0  0  0  0
   -1.7817    0.6467    2.2030 H   0  0  0  0  0  0  0  0  0  0  0  0
   -2.9233    0.8063    0.8105 H   0  0  0  0  0  0  0  0  0  0  0  0
   -2.0206    2.9812    0.8050 H   0  0  0  0  0  0  0  0  0  0  0  0
   -0.4089    2.4057    1.4062 H   0  0  0  0  0  0  0  0  0  0  0  0
   -2.9182   -1.0604   -0.4181 H   0  0  0  0  0  0  0  0  0  0  0  0
   -1.7739   -2.2718    0.2824 H   0  0  0  0  0  0  0  0  0  0  0  0
   -0.3962   -2.2309   -1.6446 H   0  0  0  0  0  0  0  0  0  0  0  0
   -2.0071   -1.9126   -2.4153 H   0  0  0  0  0  0  0  0  0  0  0  0
    0.1125    2.6683   -0.8851 H   0  0  0  0  0  0  0  0  0  0  0  0
   -1.5783    2.2665   -1.3963 H   0  0  0  0  0  0  0  0  0  0  0  0
    0.1207   -0.2286   -2.7911 H   0  0  0  0  0  0  0  0  0  0  0  0
   -1.5730    0.3935   -2.6289 H   0  0  0  0  0  0  0  0  0  0  0  0
    0.3476   -0.9025    1.8312 H   0  0  0  0  0  0  0  0  0  0  0  0
    0.4083   -0.2316   -0.1045 H   0  0  0  0  0  0  0  0  0  0  0  0
    2.1494    0.5302    2.6642 H   0  0  0  0  0  0  0  0  0  0  0  0
    1.9232   -2.6816    1.4647 H   0  0  0  0  0  0  0  0  0  0  0  0
    3.1065    2.1895    1.2023 H   0  0  0  0  0  0  0  0  0  0  0  0
    2.3162    1.3719   -0.2819 H   0  0  0  0  0  0  0  0  0  0  0  0
    2.7413   -1.1029   -1.0356 H   0  0  0  0  0  0  0  0  0  0  0  0
    3.3011   -2.8074   -0.5080 H   0  0  0  0  0  0  0  0  0  0  0  0
  1  2  1  0
  1  9  1  0
  1 14  1  0
  2  4  1  0
  2 15  1  0
  2 16  1  0
  3  5  1  0
  3 19  1  0
  3 20  1  0
  4  6  1  0
  4 17  1  0
  4 18  1  0
  5  7  1  0
  5 21  1  0
  5 22  1  0
  6  9  1  0
  6 23  1  0
  6 24  1  0
  7  9  1  0
  7 25  1  0
  7 26  1  0
  8 11  2  3
  8 27  1  0
  9 28  1  0
 10 12  2  3
 10 29  1  0
 11 13  1  0
 11 30  1  0
 12 31  1  0
 12 32  1  0
 13 33  1  0
 13 34  1  0
M  CHG  4   1   1   3  -1   8  -1  13   1
M  RAD  1  10   2
M  END
>  <reaction>  (17) 
rxn_562

>  <mol_properties>  (17) 
{"1": {"label": "*0", "atom_type": "Cd"}, "2": {"label": "*1", "atom_type": "Cs"}, "14": {"label": "*3", "atom_type": "Cs"}, "18": {"label": "*4", "atom_type": "Cs"}, "24": {"label": "*2", "atom_type": "H0"}}

>  <type>  (17) 
unop_13

>  <geom_source>  (17) 
AutoTST

$$$$

     RDKit          3D

 34 34  0  0  0  0  0  0  0  0999 V2000
   -1.6696   -2.4522    2.3576 C   0  0  0  0  0  0  0  0  0  0  0  0
   -1.5149   -2.0722    1.0996 C   0  0  0  0  0  0  0  0  0  0  0  0
   -1.6465   -0.6659    0.6057 C   0  0  0  0  0  3  0  0  0  0  0  0
   -2.7521   -0.4472   -0.3910 C   0  0  0  0  0  0  0  0  0  0  0  0
   -3.7085   -1.3109   -0.6933 C   0  0  0  0  0  0  0  0  0  0  0  0
   -1.5533   -3.4868    2.6553 H   0  0  0  0  0  0  0  0  0  0  0  0
   -1.9170   -1.7400    3.1377 H   0  0  0  0  0  0  0  0  0  0  0  0
   -1.2759   -2.8179    0.3457 H   0  0  0  0  0  0  0  0  0  0  0  0
   -1.7910    0.0146    1.4514 H   0  0  0  0  0  0  0  0  0  0  0  0
   -2.7423    0.5212   -0.8838 H   0  0  0  0  0  0  0  0  0  0  0  0
   -4.4722   -1.0670   -1.4207 H   0  0  0  0  0  0  0  0  0  0  0  0
   -3.7679   -2.2852   -0.2220 H   0  0  0  0  0  0  0  0  0  0  0  0
    1.7128   -0.8056   -1.7074 C   0  0  0  0  0  0  0  0  0  0  0  0
    1.7128   -0.8056   -0.1809 C   0  0  0  0  0  0  0  0  0  0  0  0
    0.7494    0.3292    0.2074 C   0  0  0  0  0  0  0  0  0  0  0  0
    1.2022    1.1677    1.4119 C   0  0  0  0  0  0  0  0  0  0  0  0
    2.0142    2.3059    0.7925 C   0  0  0  0  0  0  0  0  0  0  0  0
    1.2022    2.6655   -0.4524 C   0  0  0  0  0  0  0  0  0  0  0  0
    0.7494    1.3087   -1.0118 C   0  0  0  0  0  0  0  0  0  0  0  0
    1.7128    0.6850   -2.0362 C   0  0  0  0  0  0  0  0  0  0  0  0
    2.5576   -1.3438   -2.1398 H   0  0  0  0  0  0  0  0  0  0  0  0
    0.7969   -1.2724   -2.0824 H   0  0  0  0  0  0  0  0  0  0  0  0
    1.4285   -1.7639    0.2557 H   0  0  0  0  0  0  0  0  0  0  0  0
    2.7209   -0.5730    0.1784 H   0  0  0  0  0  0  0  0  0  0  0  0
   -0.4456   -0.1672    0.4061 H   0  0  0  0  0  0  0  0  0  0  0  0
    0.3344    1.5845    1.9303 H   0  0  0  0  0  0  0  0  0  0  0  0
    1.7653    0.5810    2.1402 H   0  0  0  0  0  0  0  0  0  0  0  0
    3.0053    1.9441    0.5018 H   0  0  0  0  0  0  0  0  0  0  0  0
    2.1621    3.1482    1.4692 H   0  0  0  0  0  0  0  0  0  0  0  0
    0.3344    3.2616   -0.1571 H   0  0  0  0  0  0  0  0  0  0  0  0
    1.7653    3.2503   -1.1823 H   0  0  0  0  0  0  0  0  0  0  0  0
   -0.2465    1.3813   -1.4514 H   0  0  0  0  0  0  0  0  0  0  0  0
    1.4285    0.9049   -3.0661 H   0  0  0  0  0  0  0  0  0  0  0  0
    2.7209    1.0860   -1.8865 H   0  0  0  0  0  0  0  0  0  0  0  0
  1  2  2  3
  1  6  1  0
  1  7  1  0
  2  3  1  0
  2  8  1  0
  3  4  1  0
  3  9  1  0
  4  5  2  3
  4 10  1  0
  5 11  1  0
  5 12  1  0
 13 14  1  0
 13 20  1  0
 13 21  1  0
 13 22  1  0
 14 15  1  0
 14 23  1  0
 14 24  1  0
 15 16  1  0
 15 19  1  0
 15 25  1  0
 16 17  1  0
 16 26  1  0
 16 27  1  0
 17 18  1  0
 17 28  1  0
 17 29  1  0
 18 19  1  0
 18 30  1  0
 18 31  1  0
 19 20  1  0
 19 32  1  0
 20 33  1  0
 20 34  1  0
M  RAD  1   3   2
M  END
>  <reaction>  (18) 
rxn_562

>  <mol_properties>  (18) 
{"1": {"label": "*0", "atom_type": "Cd"}, "2": {"label": "*1", "atom_type": "Cs"}, "14": {"label": "*3", "atom_type": "Cs"}, "18": {"label": "*4", "atom_type": "Cs"}, "24": {"label": "*2", "atom_type": "H0"}}

>  <type>  (18) 
unop_14

>  <geom_source>  (18) 
gaussian_log

$$$$
