
     RDKit          3D

 19 20  0  0  0  0  0  0  0  0999 V2000
    1.1087   -0.4716   -0.9619 C   0  0  0  0  0  0  0  0  0  0  0  0
    0.9355    1.0407   -0.6470 C   0  0  0  0  0  0  0  0  0  0  0  0
   -0.0085    1.0377    0.5657 C   0  0  0  0  0  0  0  0  0  0  0  0
   -1.4093    0.6181    0.0927 C   0  0  0  0  0  0  0  0  0  0  0  0
   -1.2361   -0.8942   -0.2222 C   0  0  0  0  0  0  0  0  0  0  0  0
    0.2422   -1.1516    0.1099 C   0  0  0  0  0  0  0  0  0  0  0  0
    0.4537   -0.2211    1.3118 C   0  0  0  0  0  0  0  0  0  0  0  0
    2.1524   -0.7752   -0.8653 H   0  0  0  0  0  0  0  0  0  0  0  0
    0.7855   -0.7316   -1.9710 H   0  0  0  0  0  0  0  0  0  0  0  0
    1.8918    1.5001   -0.3916 H   0  0  0  0  0  0  0  0  0  0  0  0
    0.5184    1.6005   -1.4855 H   0  0  0  0  0  0  0  0  0  0  0  0
    0.0038    1.9661    1.1351 H   0  0  0  0  0  0  0  0  0  0  0  0
   -1.7351    1.1944   -0.7746 H   0  0  0  0  0  0  0  0  0  0  0  0
   -2.1465    0.7723    0.8824 H   0  0  0  0  0  0  0  0  0  0  0  0
   -1.4680   -1.1377   -1.2601 H   0  0  0  0  0  0  0  0  0  0  0  0
   -1.8859   -1.5030    0.4087 H   0  0  0  0  0  0  0  0  0  0  0  0
    0.4812   -2.2025    0.2673 H   0  0  0  0  0  0  0  0  0  0  0  0
    1.4942   -0.1701    1.6391 H   0  0  0  0  0  0  0  0  0  0  0  0
   -0.1779   -0.4714    2.1666 H   0  0  0  0  0  0  0  0  0  0  0  0
  1  2  1  0
  1  6  1  0
  1  8  1  0
  1  9  1  0
  2  3  1  0
  2 10  1  0
  2 11  1  0
  3  4  1  0
  3  7  1  0
  3 12  1  0
  4  5  1  0
  4 13  1  0
  4 14  1  0
  5  6  1  0
  5 15  1  0
  5 16  1  0
  6  7  1  0
  6 17  1  0
  7 18  1  0
  7 19  1  0
M  END
>  <reaction>  (1) 
rxn_483

>  <mol_properties>  (1) 
{"0": {"label": "donator", "atom_type": "Cs"}, "7": {"label": "d_hydrogen", "atom_type": "H0"}}

>  <type>  (1) 
r1h

$$$$

     RDKit          3D

  4  3  0  0  0  0  0  0  0  0999 V2000
    0.0000    0.0000    0.0000 C   0  0  0  0  0  3  0  0  0  0  0  0
    1.0638   -0.1747    0.0540 H   0  0  0  0  0  0  0  0  0  0  0  0
   -0.6833   -0.8351   -0.0280 H   0  0  0  0  0  0  0  0  0  0  0  0
   -0.3805    1.0098   -0.0260 H   0  0  0  0  0  0  0  0  0  0  0  0
  1  2  1  0
  1  3  1  0
  1  4  1  0
M  RAD  1   1   2
M  END
>  <reaction>  (2) 
rxn_483

>  <mol_properties>  (2) 
{"0": {"label": "acceptor", "atom_type": "Cs"}}

>  <type>  (2) 
r2

$$$$

     RDKit          3D

  5  4  0  0  0  0  0  0  0  0999 V2000
    0.0000    0.0000    0.0000 C   0  0  0  0  0  0  0  0  0  0  0  0
   -0.6486   -0.7720   -0.4113 H   0  0  0  0  0  0  0  0  0  0  0  0
   -0.3482    0.9787   -0.3267 H   0  0  0  0  0  0  0  0  0  0  0  0
   -0.0223   -0.0487    1.0876 H   0  0  0  0  0  0  0  0  0  0  0  0
    1.0191   -0.1580   -0.3496 H   0  0  0  0  0  0  0  0  0  0  0  0
  1  2  1  0
  1  3  1  0
  1  4  1  0
  1  5  1  0
M  END
>  <reaction>  (3) 
rxn_483

>  <mol_properties>  (3) 
{"0": {"label": "acceptor", "atom_type": "Cs"}, "4": {"label": "a_hydrogen", "atom_type": "H0"}}

>  <type>  (3) 
r2h

$$$$

     RDKit          3D

 23 23  0  0  0  0  0  0  0  0999 V2000
    2.0951   -2.0147    1.5312 C   0  0  0  0  0  3  0  0  0  0  0  0
    2.6258   -1.1788    1.9776 H   0  0  0  0  0  0  0  0  0  0  0  0
    2.5584   -2.3940    0.6252 H   0  0  0  0  0  0  0  0  0  0  0  0
    1.8214   -2.7895    2.2408 H   0  0  0  0  0  0  0  0  0  0  0  0
   -0.1961   -0.9121    0.6677 C   0  0  0  0  0  0  0  0  0  0  0  0
   -0.2607   -1.1092   -0.8520 C   0  0  0  0  0  0  0  0  0  0  0  0
   -0.1156    0.3287   -1.3803 C   0  0  0  0  0  0  0  0  0  0  0  0
   -1.4112    1.0939   -1.0644 C   0  0  0  0  0  0  0  0  0  0  0  0
   -1.3512    1.2714    0.4783 C   0  0  0  0  0  0  0  0  0  0  0  0
   -0.0222    0.5871    0.8537 C   0  0  0  0  0  0  0  0  0  0  0  0
    0.8547    0.9354   -0.3573 C   0  0  0  0  0  0  0  0  0  0  0  0
    0.8823   -1.4715    1.1050 H   0  0  0  0  0  0  0  0  0  0  0  0
   -0.9905   -1.3734    1.2532 H   0  0  0  0  0  0  0  0  0  0  0  0
    0.5622   -1.7383   -1.2045 H   0  0  0  0  0  0  0  0  0  0  0  0
   -1.1900   -1.5789   -1.1800 H   0  0  0  0  0  0  0  0  0  0  0  0
    0.1884    0.3868   -2.4244 H   0  0  0  0  0  0  0  0  0  0  0  0
   -2.2968    0.5466   -1.3908 H   0  0  0  0  0  0  0  0  0  0  0  0
   -1.4204    2.0610   -1.5696 H   0  0  0  0  0  0  0  0  0  0  0  0
   -2.2010    0.8167    0.9891 H   0  0  0  0  0  0  0  0  0  0  0  0
   -1.3305    2.3277    0.7539 H   0  0  0  0  0  0  0  0  0  0  0  0
    0.3634    0.8742    1.8314 H   0  0  0  0  0  0  0  0  0  0  0  0
    1.8269    0.4397   -0.3375 H   0  0  0  0  0  0  0  0  0  0  0  0
    1.0007    2.0093   -0.4883 H   0  0  0  0  0  0  0  0  0  0  0  0
  1  2  1  0
  1  3  1  0
  1  4  1  0
  5  6  1  0
  5 10  1  0
  5 12  1  0
  5 13  1  0
  6  7  1  0
  6 14  1  0
  6 15  1  0
  7  8  1  0
  7 11  1  0
  7 16  1  0
  8  9  1  0
  8 17  1  0
  8 18  1  0
  9 10  1  0
  9 19  1  0
  9 20  1  0
 10 11  1  0
 10 21  1  0
 11 22  1  0
 11 23  1  0
M  RAD  1   1   2
M  END
>  <reaction>  (4) 
rxn_483

>  <mol_properties>  (4) 
{"0": {"label": "*3", "atom_type": "Cs"}, "1": {"label": "*4", "atom_type": "H0"}, "4": {"label": "*1", "atom_type": "Cs"}, "5": {"label": "*0", "atom_type": "Cs"}, "11": {"label": "*2", "atom_type": "H0"}}

>  <type>  (4) 
ts

$$$$

     RDKit          3D

 23 23  0  0  0  0  0  0  0  0999 V2000
    2.0858   -2.1436    1.4752 C   0  0  0  0  0  0  0  0  0  0  0  0
    2.6475   -1.4373    2.0847 H   0  0  0  0  0  0  0  0  0  0  0  0
    2.7446   -2.9481    1.1519 H   0  0  0  0  0  0  0  0  0  0  0  0
    1.3448   -2.4671    2.2046 H   0  0  0  0  0  0  0  0  0  0  0  0
   -0.0568   -0.9731    0.5351 C   0  0  0  0  0  3  0  0  0  0  0  0
   -0.0568   -0.9731   -1.0193 C   0  0  0  0  0  0  0  0  0  0  0  0
   -0.0568    0.5238   -1.3672 C   0  0  0  0  0  0  0  0  0  0  0  0
   -1.4361    1.1057   -1.0193 C   0  0  0  0  0  0  0  0  0  0  0  0
   -1.4361    1.1057    0.5351 C   0  0  0  0  0  0  0  0  0  0  0  0
   -0.0568    0.5238    0.8830 C   0  0  0  0  0  0  0  0  0  0  0  0
    0.8127    1.1008   -0.2421 C   0  0  0  0  0  0  0  0  0  0  0  0
    1.0156   -1.5590    1.0056 H   0  0  0  0  0  0  0  0  0  0  0  0
   -0.9213   -1.4884    0.9564 H   0  0  0  0  0  0  0  0  0  0  0  0
    0.8369   -1.4614   -1.4114 H   0  0  0  0  0  0  0  0  0  0  0  0
   -0.9213   -1.4884   -1.4406 H   0  0  0  0  0  0  0  0  0  0  0  0
    0.2676    0.7391   -2.3844 H   0  0  0  0  0  0  0  0  0  0  0  0
   -2.2469    0.5095   -1.4406 H   0  0  0  0  0  0  0  0  0  0  0  0
   -1.5385    2.1189   -1.4114 H   0  0  0  0  0  0  0  0  0  0  0  0
   -2.2469    0.5095    0.9564 H   0  0  0  0  0  0  0  0  0  0  0  0
   -1.5385    2.1189    0.9272 H   0  0  0  0  0  0  0  0  0  0  0  0
    0.2676    0.7391    1.9002 H   0  0  0  0  0  0  0  0  0  0  0  0
    1.8322    0.7097   -0.2421 H   0  0  0  0  0  0  0  0  0  0  0  0
    0.8487    2.1921   -0.2421 H   0  0  0  0  0  0  0  0  0  0  0  0
  1  2  1  0
  1  3  1  0
  1  4  1  0
  1 12  1  0
  5  6  1  0
  5 10  1  0
  5 13  1  0
  6  7  1  0
  6 14  1  0
  6 15  1  0
  7  8  1  0
  7 11  1  0
  7 16  1  0
  8  9  1  0
  8 17  1  0
  8 18  1  0
  9 10  1  0
  9 19  1  0
  9 20  1  0
 10 11  1  0
 10 21  1  0
 11 22  1  0
 11 23  1  0
M  RAD  1   5   2
M  END
>  <reaction>  (5) 
rxn_483

>  <mol_properties>  (5) 
{"0": {"label": "*3", "atom_type": "Cs"}, "1": {"label": "*4", "atom_type": "H0"}, "4": {"label": "*1", "atom_type": "Cs"}, "5": {"label": "*0", "atom_type": "Cs"}, "11": {"label": "*2", "atom_type": "H0"}}

>  <type>  (5) 
unop_1

>  <geom_source>  (5) 
Heuristics

$$$$

     RDKit          3D

 23 23  0  0  0  0  0  0  0  0999 V2000
    2.0866   -2.1445    1.4798 C   0  0  0  0  0  0  0  0  0  0  0  0
    2.9103   -2.0095    0.7805 H   0  0  0  0  0  0  0  0  0  0  0  0
    2.0959   -3.1652    1.8591 H   0  0  0  0  0  0  0  0  0  0  0  0
    1.6478   -1.5867    2.3057 H   0  0  0  0  0  0  0  0  0  0  0  0
   -0.0561   -0.9740    0.5397 C   0  0  0  0  0  3  0  0  0  0  0  0
   -0.0561   -0.9740   -1.0147 C   0  0  0  0  0  0  0  0  0  0  0  0
   -0.0561    0.5230   -1.3626 C   0  0  0  0  0  0  0  0  0  0  0  0
   -1.4353    1.1048   -1.0147 C   0  0  0  0  0  0  0  0  0  0  0  0
   -1.4353    1.1048    0.5397 C   0  0  0  0  0  0  0  0  0  0  0  0
   -0.0561    0.5230    0.8877 C   0  0  0  0  0  0  0  0  0  0  0  0
    0.8135    1.0999   -0.2375 C   0  0  0  0  0  0  0  0  0  0  0  0
    1.0164   -1.5598    1.0103 H   0  0  0  0  0  0  0  0  0  0  0  0
   -0.9205   -1.4893    0.9610 H   0  0  0  0  0  0  0  0  0  0  0  0
    0.8377   -1.4622   -1.4068 H   0  0  0  0  0  0  0  0  0  0  0  0
   -0.9205   -1.4893   -1.4360 H   0  0  0  0  0  0  0  0  0  0  0  0
    0.2684    0.7382   -2.3798 H   0  0  0  0  0  0  0  0  0  0  0  0
   -2.2461    0.5086   -1.4360 H   0  0  0  0  0  0  0  0  0  0  0  0
   -1.5377    2.1180   -1.4068 H   0  0  0  0  0  0  0  0  0  0  0  0
   -2.2461    0.5086    0.9610 H   0  0  0  0  0  0  0  0  0  0  0  0
   -1.5377    2.1180    0.9318 H   0  0  0  0  0  0  0  0  0  0  0  0
    0.2684    0.7382    1.9049 H   0  0  0  0  0  0  0  0  0  0  0  0
    1.8330    0.7088   -0.2375 H   0  0  0  0  0  0  0  0  0  0  0  0
    0.8494    2.1913   -0.2375 H   0  0  0  0  0  0  0  0  0  0  0  0
  1  2  1  0
  1  3  1  0
  1  4  1  0
  1 12  1  0
  5  6  1  0
  5 10  1  0
  5 13  1  0
  6  7  1  0
  6 14  1  0
  6 15  1  0
  7  8  1  0
  7 11  1  0
  7 16  1  0
  8  9  1  0
  8 17  1  0
  8 18  1  0
  9 10  1  0
  9 19  1  0
  9 20  1  0
 10 11  1  0
 10 21  1  0
 11 22  1  0
 11 23  1  0
M  RAD  1   5   2
M  END
>  <reaction>  (6) 
rxn_483

>  <mol_properties>  (6) 
{"0": {"label": "*3", "atom_type": "Cs"}, "1": {"label": "*4", "atom_type": "H0"}, "4": {"label": "*1", "atom_type": "Cs"}, "5": {"label": "*0", "atom_type": "Cs"}, "11": {"label": "*2", "atom_type": "H0"}}

>  <type>  (6) 
unop_2

>  <geom_source>  (6) 
Heuristics

$$$$

     RDKit          3D

 23 23  0  0  0  0  0  0  0  0999 V2000
    2.0848   -2.1416    1.4757 C   0  0  0  0  0  0  0  0  0  0  0  0
    2.3478   -1.7003    2.4359 H   0  0  0  0  0  0  0  0  0  0  0  0
    2.9908   -2.4587    0.9617 H   0  0  0  0  0  0  0  0  0  0  0  0
    1.5095   -2.9139    1.9840 H   0  0  0  0  0  0  0  0  0  0  0  0
   -0.0579   -0.9711    0.5356 C   0  0  0  0  0  3  0  0  0  0  0  0
   -0.0579   -0.9711   -1.0187 C   0  0  0  0  0  0  0  0  0  0  0  0
   -0.0579    0.5259   -1.3667 C   0  0  0  0  0  0  0  0  0  0  0  0
   -1.4371    1.1077   -1.0187 C   0  0  0  0  0  0  0  0  0  0  0  0
   -1.4371    1.1077    0.5356 C   0  0  0  0  0  0  0  0  0  0  0  0
   -0.0579    0.5259    0.8836 C   0  0  0  0  0  0  0  0  0  0  0  0
    0.8117    1.1028   -0.2416 C   0  0  0  0  0  0  0  0  0  0  0  0
    1.0146   -1.5569    1.0062 H   0  0  0  0  0  0  0  0  0  0  0  0
   -0.9223   -1.4864    0.9570 H   0  0  0  0  0  0  0  0  0  0  0  0
    0.8359   -1.4593   -1.4109 H   0  0  0  0  0  0  0  0  0  0  0  0
   -0.9224   -1.4864   -1.4401 H   0  0  0  0  0  0  0  0  0  0  0  0
    0.2666    0.7411   -2.3839 H   0  0  0  0  0  0  0  0  0  0  0  0
   -2.2479    0.5115   -1.4401 H   0  0  0  0  0  0  0  0  0  0  0  0
   -1.5396    2.1209   -1.4109 H   0  0  0  0  0  0  0  0  0  0  0  0
   -2.2479    0.5115    0.9570 H   0  0  0  0  0  0  0  0  0  0  0  0
   -1.5396    2.1209    0.9278 H   0  0  0  0  0  0  0  0  0  0  0  0
    0.2666    0.7411    1.9008 H   0  0  0  0  0  0  0  0  0  0  0  0
    1.8312    0.7117   -0.2416 H   0  0  0  0  0  0  0  0  0  0  0  0
    0.8476    2.1942   -0.2416 H   0  0  0  0  0  0  0  0  0  0  0  0
  1  2  1  0
  1  3  1  0
  1  4  1  0
  1 12  1  0
  5  6  1  0
  5 10  1  0
  5 13  1  0
  6  7  1  0
  6 14  1  0
  6 15  1  0
  7  8  1  0
  7 11  1  0
  7 16  1  0
  8  9  1  0
  8 17  1  0
  8 18  1  0
  9 10  1  0
  9 19  1  0
  9 20  1  0
 10 11  1  0
 10 21  1  0
 11 22  1  0
 11 23  1  0
M  RAD  1   5   2
M  END
>  <reaction>  (7) 
rxn_483

>  <mol_properties>  (7) 
{"0": {"label": "*3", "atom_type": "Cs"}, "1": {"label": "*4", "atom_type": "H0"}, "4": {"label": "*1", "atom_type": "Cs"}, "5": {"label": "*0", "atom_type": "Cs"}, "11": {"label": "*2", "atom_type": "H0"}}

>  <type>  (7) 
unop_3

>  <geom_source>  (7) 
Heuristics

$$$$

     RDKit          3D

 23 23  0  0  0  0  0  0  0  0999 V2000
    2.0872   -2.1445    1.4777 C   0  0  0  0  0  0  0  0  0  0  0  0
    2.1201   -3.1756    1.1291 H   0  0  0  0  0  0  0  0  0  0  0  0
    1.5229   -2.0936    2.4076 H   0  0  0  0  0  0  0  0  0  0  0  0
    2.9421   -1.4889    1.6362 H   0  0  0  0  0  0  0  0  0  0  0  0
   -0.0554   -0.9740    0.5376 C   0  0  0  0  0  3  0  0  0  0  0  0
   -0.0554   -0.9740   -1.0168 C   0  0  0  0  0  0  0  0  0  0  0  0
   -0.0554    0.5229   -1.3647 C   0  0  0  0  0  0  0  0  0  0  0  0
   -1.4347    1.1048   -1.0168 C   0  0  0  0  0  0  0  0  0  0  0  0
   -1.4347    1.1048    0.5376 C   0  0  0  0  0  0  0  0  0  0  0  0
   -0.0554    0.5229    0.8855 C   0  0  0  0  0  0  0  0  0  0  0  0
    0.8142    1.0999   -0.2396 C   0  0  0  0  0  0  0  0  0  0  0  0
    1.0171   -1.5599    1.0081 H   0  0  0  0  0  0  0  0  0  0  0  0
   -0.9199   -1.4893    0.9589 H   0  0  0  0  0  0  0  0  0  0  0  0
    0.8383   -1.4622   -1.4089 H   0  0  0  0  0  0  0  0  0  0  0  0
   -0.9199   -1.4893   -1.4381 H   0  0  0  0  0  0  0  0  0  0  0  0
    0.2690    0.7382   -2.3819 H   0  0  0  0  0  0  0  0  0  0  0  0
   -2.2455    0.5086   -1.4381 H   0  0  0  0  0  0  0  0  0  0  0  0
   -1.5371    2.1180   -1.4089 H   0  0  0  0  0  0  0  0  0  0  0  0
   -2.2455    0.5086    0.9589 H   0  0  0  0  0  0  0  0  0  0  0  0
   -1.5371    2.1180    0.9297 H   0  0  0  0  0  0  0  0  0  0  0  0
    0.2690    0.7382    1.9027 H   0  0  0  0  0  0  0  0  0  0  0  0
    1.8337    0.7088   -0.2396 H   0  0  0  0  0  0  0  0  0  0  0  0
    0.8501    2.1912   -0.2396 H   0  0  0  0  0  0  0  0  0  0  0  0
  1  2  1  0
  1  3  1  0
  1  4  1  0
  1 12  1  0
  5  6  1  0
  5 10  1  0
  5 13  1  0
  6  7  1  0
  6 14  1  0
  6 15  1  0
  7  8  1  0
  7 11  1  0
  7 16  1  0
  8  9  1  0
  8 17  1  0
  8 18  1  0
  9 10  1  0
  9 19  1  0
  9 20  1  0
 10 11  1  0
 10 21  1  0
 11 22  1  0
 11 23  1  0
M  RAD  1   5   2
M  END
>  <reaction>  (8) 
rxn_483

>  <mol_properties>  (8) 
{"0": {"label": "*3", "atom_type": "Cs"}, "1": {"label": "*4", "atom_type": "H0"}, "4": {"label": "*1", "atom_type": "Cs"}, "5": {"label": "*0", "atom_type": "Cs"}, "11": {"label": "*2", "atom_type": "H0"}}

>  <type>  (8) 
unop_4

>  <geom_source>  (8) 
Heuristics

$$$$

     RDKit          3D

 23 23  0  0  0  0  0  0  0  0999 V2000
    2.0820   -2.1425    1.4769 C   0  0  0  0  0  0  0  0  0  0  0  0
    2.0555   -2.1281    2.5654 H   0  0  0  0  0  0  0  0  0  0  0  0
    2.9674   -1.6131    1.1283 H   0  0  0  0  0  0  0  0  0  0  0  0
    2.1232   -3.2274    1.5616 H   0  0  0  0  0  0  0  0  0  0  0  0
   -0.0606   -0.9720    0.5368 C   0  0  0  0  0  3  0  0  0  0  0  0
   -0.0606   -0.9720   -1.0176 C   0  0  0  0  0  0  0  0  0  0  0  0
   -0.0606    0.5249   -1.3655 C   0  0  0  0  0  0  0  0  0  0  0  0
   -1.4399    1.1067   -1.0176 C   0  0  0  0  0  0  0  0  0  0  0  0
   -1.4399    1.1067    0.5368 C   0  0  0  0  0  0  0  0  0  0  0  0
   -0.0606    0.5249    0.8848 C   0  0  0  0  0  0  0  0  0  0  0  0
    0.8089    1.1018   -0.2404 C   0  0  0  0  0  0  0  0  0  0  0  0
    1.0118   -1.5579    1.0074 H   0  0  0  0  0  0  0  0  0  0  0  0
   -0.9251   -1.4874    0.9582 H   0  0  0  0  0  0  0  0  0  0  0  0
    0.8331   -1.4603   -1.4097 H   0  0  0  0  0  0  0  0  0  0  0  0
   -0.9251   -1.4874   -1.4389 H   0  0  0  0  0  0  0  0  0  0  0  0
    0.2638    0.7402   -2.3827 H   0  0  0  0  0  0  0  0  0  0  0  0
   -2.2507    0.5105   -1.4389 H   0  0  0  0  0  0  0  0  0  0  0  0
   -1.5423    2.1200   -1.4097 H   0  0  0  0  0  0  0  0  0  0  0  0
   -2.2507    0.5105    0.9582 H   0  0  0  0  0  0  0  0  0  0  0  0
   -1.5423    2.1200    0.9289 H   0  0  0  0  0  0  0  0  0  0  0  0
    0.2638    0.7402    1.9020 H   0  0  0  0  0  0  0  0  0  0  0  0
    1.8284    0.7108   -0.2404 H   0  0  0  0  0  0  0  0  0  0  0  0
    0.8449    2.1932   -0.2404 H   0  0  0  0  0  0  0  0  0  0  0  0
  1  2  1  0
  1  3  1  0
  1  4  1  0
  1 12  1  0
  5  6  1  0
  5 10  1  0
  5 13  1  0
  6  7  1  0
  6 14  1  0
  6 15  1  0
  7  8  1  0
  7 11  1  0
  7 16  1  0
  8  9  1  0
  8 17  1  0
  8 18  1  0
  9 10  1  0
  9 19  1  0
  9 20  1  0
 10 11  1  0
 10 21  1  0
 11 22  1  0
 11 23  1  0
M  RAD  1   5   2
M  END
>  <reaction>  (9) 
rxn_483

>  <mol_properties>  (9) 
{"0": {"label": "*3", "atom_type": "Cs"}, "1": {"label": "*4", "atom_type": "H0"}, "4": {"label": "*1", "atom_type": "Cs"}, "5": {"label": "*0", "atom_type": "Cs"}, "11": {"label": "*2", "atom_type": "H0"}}

>  <type>  (9) 
unop_5

>  <geom_source>  (9) 
Heuristics

$$$$

     RDKit          3D

 23 23  0  0  0  0  0  0  0  0999 V2000
    2.0860   -2.1448    1.4763 C   0  0  0  0  0  0  0  0  0  0  0  0
    1.8911   -3.2082    1.6067 H   0  0  0  0  0  0  0  0  0  0  0  0
    1.6805   -1.5948    2.3241 H   0  0  0  0  0  0  0  0  0  0  0  0
    3.1485   -1.9204    1.3962 H   0  0  0  0  0  0  0  0  0  0  0  0
   -0.0567   -0.9743    0.5361 C   0  0  0  0  0  3  0  0  0  0  0  0
   -0.0567   -0.9743   -1.0182 C   0  0  0  0  0  0  0  0  0  0  0  0
   -0.0567    0.5226   -1.3662 C   0  0  0  0  0  0  0  0  0  0  0  0
   -1.4359    1.1045   -1.0182 C   0  0  0  0  0  0  0  0  0  0  0  0
   -1.4359    1.1045    0.5361 C   0  0  0  0  0  0  0  0  0  0  0  0
   -0.0567    0.5226    0.8841 C   0  0  0  0  0  0  0  0  0  0  0  0
    0.8129    1.0996   -0.2410 C   0  0  0  0  0  0  0  0  0  0  0  0
    1.0158   -1.5602    1.0067 H   0  0  0  0  0  0  0  0  0  0  0  0
   -0.9212   -1.4896    0.9575 H   0  0  0  0  0  0  0  0  0  0  0  0
    0.8371   -1.4626   -1.4104 H   0  0  0  0  0  0  0  0  0  0  0  0
   -0.9212   -1.4896   -1.4396 H   0  0  0  0  0  0  0  0  0  0  0  0
    0.2678    0.7379   -2.3834 H   0  0  0  0  0  0  0  0  0  0  0  0
   -2.2467    0.5082   -1.4396 H   0  0  0  0  0  0  0  0  0  0  0  0
   -1.5384    2.1177   -1.4104 H   0  0  0  0  0  0  0  0  0  0  0  0
   -2.2467    0.5082    0.9575 H   0  0  0  0  0  0  0  0  0  0  0  0
   -1.5384    2.1177    0.9283 H   0  0  0  0  0  0  0  0  0  0  0  0
    0.2678    0.7379    1.9013 H   0  0  0  0  0  0  0  0  0  0  0  0
    1.8324    0.7085   -0.2410 H   0  0  0  0  0  0  0  0  0  0  0  0
    0.8488    2.1909   -0.2410 H   0  0  0  0  0  0  0  0  0  0  0  0
  1  2  1  0
  1  3  1  0
  1  4  1  0
  1 12  1  0
  5  6  1  0
  5 10  1  0
  5 13  1  0
  6  7  1  0
  6 14  1  0
  6 15  1  0
  7  8  1  0
  7 11  1  0
  7 16  1  0
  8  9  1  0
  8 17  1  0
  8 18  1  0
  9 10  1  0
  9 19  1  0
  9 20  1  0
 10 11  1  0
 10 21  1  0
 11 22  1  0
 11 23  1  0
M  RAD  1   5   2
M  END
>  <reaction>  (10) 
rxn_483

>  <mol_properties>  (10) 
{"0": {"label": "*3", "atom_type": "Cs"}, "1": {"label": "*4", "atom_type": "H0"}, "4": {"label": "*1", "atom_type": "Cs"}, "5": {"label": "*0", "atom_type": "Cs"}, "11": {"label": "*2", "atom_type": "H0"}}

>  <type>  (10) 
unop_6

>  <geom_source>  (10) 
Heuristics

$$$$

     RDKit          3D

 23 23  0  0  0  0  0  0  0  0999 V2000
    2.0843   -2.1455    1.4755 C   0  0  0  0  0  0  0  0  0  0  0  0
    1.7934   -2.9998    2.0849 H   0  0  0  0  0  0  0  0  0  0  0  0
    1.9908   -1.2327    2.0618 H   0  0  0  0  0  0  0  0  0  0  0  0
    3.1188   -2.4131    1.2659 H   0  0  0  0  0  0  0  0  0  0  0  0
   -0.0584   -0.9751    0.5354 C   0  0  0  0  0  3  0  0  0  0  0  0
   -0.0584   -0.9751   -1.0190 C   0  0  0  0  0  0  0  0  0  0  0  0
   -0.0584    0.5219   -1.3670 C   0  0  0  0  0  0  0  0  0  0  0  0
   -1.4376    1.1037   -1.0190 C   0  0  0  0  0  0  0  0  0  0  0  0
   -1.4376    1.1037    0.5354 C   0  0  0  0  0  0  0  0  0  0  0  0
   -0.0584    0.5219    0.8833 C   0  0  0  0  0  0  0  0  0  0  0  0
    0.8112    1.0988   -0.2418 C   0  0  0  0  0  0  0  0  0  0  0  0
    1.0141   -1.5609    1.0059 H   0  0  0  0  0  0  0  0  0  0  0  0
   -0.9229   -1.4904    0.9567 H   0  0  0  0  0  0  0  0  0  0  0  0
    0.8354   -1.4633   -1.4112 H   0  0  0  0  0  0  0  0  0  0  0  0
   -0.9229   -1.4904   -1.4404 H   0  0  0  0  0  0  0  0  0  0  0  0
    0.2661    0.7371   -2.3842 H   0  0  0  0  0  0  0  0  0  0  0  0
   -2.2484    0.5075   -1.4404 H   0  0  0  0  0  0  0  0  0  0  0  0
   -1.5401    2.1170   -1.4112 H   0  0  0  0  0  0  0  0  0  0  0  0
   -2.2484    0.5075    0.9567 H   0  0  0  0  0  0  0  0  0  0  0  0
   -1.5401    2.1170    0.9275 H   0  0  0  0  0  0  0  0  0  0  0  0
    0.2661    0.7371    1.9005 H   0  0  0  0  0  0  0  0  0  0  0  0
    1.8307    0.7077   -0.2418 H   0  0  0  0  0  0  0  0  0  0  0  0
    0.8471    2.1902   -0.2418 H   0  0  0  0  0  0  0  0  0  0  0  0
  1  2  1  0
  1  3  1  0
  1  4  1  0
  1 12  1  0
  5  6  1  0
  5 10  1  0
  5 13  1  0
  6  7  1  0
  6 14  1  0
  6 15  1  0
  7  8  1  0
  7 11  1  0
  7 16  1  0
  8  9  1  0
  8 17  1  0
  8 18  1  0
  9 10  1  0
  9 19  1  0
  9 20  1  0
 10 11  1  0
 10 21  1  0
 11 22  1  0
 11 23  1  0
M  RAD  1   5   2
M  END
>  <reaction>  (11) 
rxn_483

>  <mol_properties>  (11) 
{"0": {"label": "*3", "atom_type": "Cs"}, "1": {"label": "*4", "atom_type": "H0"}, "4": {"label": "*1", "atom_type": "Cs"}, "5": {"label": "*0", "atom_type": "Cs"}, "11": {"label": "*2", "atom_type": "H0"}}

>  <type>  (11) 
unop_7

>  <geom_source>  (11) 
Heuristics

$$$$

     RDKit          3D

 23 23  0  0  0  0  0  0  0  0999 V2000
    2.0856   -2.1452    1.4764 C   0  0  0  0  0  0  0  0  0  0  0  0
    2.8750   -1.4066    1.6068 H   0  0  0  0  0  0  0  0  0  0  0  0
    2.5252   -3.1395    1.4154 H   0  0  0  0  0  0  0  0  0  0  0  0
    1.3648   -2.1365    2.2926 H   0  0  0  0  0  0  0  0  0  0  0  0
   -0.0571   -0.9747    0.5363 C   0  0  0  0  0  3  0  0  0  0  0  0
   -0.0571   -0.9747   -1.0181 C   0  0  0  0  0  0  0  0  0  0  0  0
   -0.0571    0.5222   -1.3661 C   0  0  0  0  0  0  0  0  0  0  0  0
   -1.4363    1.1041   -1.0181 C   0  0  0  0  0  0  0  0  0  0  0  0
   -1.4363    1.1041    0.5363 C   0  0  0  0  0  0  0  0  0  0  0  0
   -0.0571    0.5222    0.8842 C   0  0  0  0  0  0  0  0  0  0  0  0
    0.8125    1.0992   -0.2409 C   0  0  0  0  0  0  0  0  0  0  0  0
    1.0154   -1.5606    1.0068 H   0  0  0  0  0  0  0  0  0  0  0  0
   -0.9216   -1.4900    0.9576 H   0  0  0  0  0  0  0  0  0  0  0  0
    0.8366   -1.4629   -1.4103 H   0  0  0  0  0  0  0  0  0  0  0  0
   -0.9216   -1.4900   -1.4395 H   0  0  0  0  0  0  0  0  0  0  0  0
    0.2673    0.7375   -2.3833 H   0  0  0  0  0  0  0  0  0  0  0  0
   -2.2471    0.5079   -1.4395 H   0  0  0  0  0  0  0  0  0  0  0  0
   -1.5388    2.1173   -1.4103 H   0  0  0  0  0  0  0  0  0  0  0  0
   -2.2471    0.5079    0.9576 H   0  0  0  0  0  0  0  0  0  0  0  0
   -1.5388    2.1173    0.9284 H   0  0  0  0  0  0  0  0  0  0  0  0
    0.2673    0.7375    1.9014 H   0  0  0  0  0  0  0  0  0  0  0  0
    1.8320    0.7081   -0.2409 H   0  0  0  0  0  0  0  0  0  0  0  0
    0.8484    2.1905   -0.2409 H   0  0  0  0  0  0  0  0  0  0  0  0
  1  2  1  0
  1  3  1  0
  1  4  1  0
  1 12  1  0
  5  6  1  0
  5 10  1  0
  5 13  1  0
  6  7  1  0
  6 14  1  0
  6 15  1  0
  7  8  1  0
  7 11  1  0
  7 16  1  0
  8  9  1  0
  8 17  1  0
  8 18  1  0
  9 10  1  0
  9 19  1  0
  9 20  1  0
 10 11  1  0
 10 21  1  0
 11 22  1  0
 11 23  1  0
M  RAD  1   5   2
M  END
>  <reaction>  (12) 
rxn_483

>  <mol_properties>  (12) 
{"0": {"label": "*3", "atom_type": "Cs"}, "1": {"label": "*4", "atom_type": "H0"}, "4": {"label": "*1", "atom_type": "Cs"}, "5": {"label": "*0", "atom_type": "Cs"}, "11": {"label": "*2", "atom_type": "H0"}}

>  <type>  (12) 
unop_8

>  <geom_source>  (12) 
Heuristics

$$$$

     RDKit          3D

 23 23  0  0  0  0  0  0  0  0999 V2000
    2.0881   -2.1443    1.4790 C   0  0  0  0  0  0  0  0  0  0  0  0
    2.4196   -2.9104    0.7798 H   0  0  0  0  0  0  0  0  0  0  0  0
    1.5616   -2.6136    2.3087 H   0  0  0  0  0  0  0  0  0  0  0  0
    2.5121   -1.2529    1.9387 H   0  0  0  0  0  0  0  0  0  0  0  0
   -0.0546   -0.9738    0.5389 C   0  0  0  0  0  3  0  0  0  0  0  0
   -0.0546   -0.9738   -1.0154 C   0  0  0  0  0  0  0  0  0  0  0  0
   -0.0546    0.5231   -1.3634 C   0  0  0  0  0  0  0  0  0  0  0  0
   -1.4338    1.1050   -1.0154 C   0  0  0  0  0  0  0  0  0  0  0  0
   -1.4338    1.1050    0.5389 C   0  0  0  0  0  0  0  0  0  0  0  0
   -0.0546    0.5231    0.8869 C   0  0  0  0  0  0  0  0  0  0  0  0
    0.8150    1.1001   -0.2382 C   0  0  0  0  0  0  0  0  0  0  0  0
    1.0179   -1.5597    1.0095 H   0  0  0  0  0  0  0  0  0  0  0  0
   -0.9190   -1.4891    0.9603 H   0  0  0  0  0  0  0  0  0  0  0  0
    0.8392   -1.4621   -1.4076 H   0  0  0  0  0  0  0  0  0  0  0  0
   -0.9190   -1.4891   -1.4368 H   0  0  0  0  0  0  0  0  0  0  0  0
    0.2699    0.7384   -2.3806 H   0  0  0  0  0  0  0  0  0  0  0  0
   -2.2446    0.5087   -1.4368 H   0  0  0  0  0  0  0  0  0  0  0  0
   -1.5363    2.1182   -1.4076 H   0  0  0  0  0  0  0  0  0  0  0  0
   -2.2446    0.5087    0.9603 H   0  0  0  0  0  0  0  0  0  0  0  0
   -1.5363    2.1182    0.9311 H   0  0  0  0  0  0  0  0  0  0  0  0
    0.2699    0.7384    1.9041 H   0  0  0  0  0  0  0  0  0  0  0  0
    1.8345    0.7090   -0.2382 H   0  0  0  0  0  0  0  0  0  0  0  0
    0.8509    2.1914   -0.2382 H   0  0  0  0  0  0  0  0  0  0  0  0
  1  2  1  0
  1  3  1  0
  1  4  1  0
  1 12  1  0
  5  6  1  0
  5 10  1  0
  5 13  1  0
  6  7  1  0
  6 14  1  0
  6 15  1  0
  7  8  1  0
  7 11  1  0
  7 16  1  0
  8  9  1  0
  8 17  1  0
  8 18  1  0
  9 10  1  0
  9 19  1  0
  9 20  1  0
 10 11  1  0
 10 21  1  0
 11 22  1  0
 11 23  1  0
M  RAD  1   5   2
M  END
>  <reaction>  (13) 
rxn_483

>  <mol_properties>  (13) 
{"0": {"label": "*3", "atom_type": "Cs"}, "1": {"label": "*4", "atom_type": "H0"}, "4": {"label": "*1", "atom_type": "Cs"}, "5": {"label": "*0", "atom_type": "Cs"}, "11": {"label": "*2", "atom_type": "H0"}}

>  <type>  (13) 
unop_9

>  <geom_source>  (13) 
Heuristics

$$$$

     RDKit          3D

 23 23  0  0  0  0  0  0  0  0999 V2000
    2.0856   -2.1453    1.4783 C   0  0  0  0  0  0  0  0  0  0  0  0
    2.9710   -1.6158    1.1297 H   0  0  0  0  0  0  0  0  0  0  0  0
    2.3324   -3.1920    1.6491 H   0  0  0  0  0  0  0  0  0  0  0  0
    1.4580   -1.8671    2.3236 H   0  0  0  0  0  0  0  0  0  0  0  0
   -0.0571   -0.9748    0.5382 C   0  0  0  0  0  3  0  0  0  0  0  0
   -0.0571   -0.9748   -1.0161 C   0  0  0  0  0  0  0  0  0  0  0  0
   -0.0571    0.5222   -1.3641 C   0  0  0  0  0  0  0  0  0  0  0  0
   -1.4363    1.1040   -1.0161 C   0  0  0  0  0  0  0  0  0  0  0  0
   -1.4363    1.1040    0.5382 C   0  0  0  0  0  0  0  0  0  0  0  0
   -0.0571    0.5222    0.8862 C   0  0  0  0  0  0  0  0  0  0  0  0
    0.8125    1.0991   -0.2389 C   0  0  0  0  0  0  0  0  0  0  0  0
    1.0154   -1.5607    1.0088 H   0  0  0  0  0  0  0  0  0  0  0  0
   -0.9215   -1.4901    0.9596 H   0  0  0  0  0  0  0  0  0  0  0  0
    0.8367   -1.4630   -1.4083 H   0  0  0  0  0  0  0  0  0  0  0  0
   -0.9215   -1.4901   -1.4375 H   0  0  0  0  0  0  0  0  0  0  0  0
    0.2674    0.7374   -2.3813 H   0  0  0  0  0  0  0  0  0  0  0  0
   -2.2471    0.5078   -1.4375 H   0  0  0  0  0  0  0  0  0  0  0  0
   -1.5387    2.1172   -1.4083 H   0  0  0  0  0  0  0  0  0  0  0  0
   -2.2471    0.5078    0.9596 H   0  0  0  0  0  0  0  0  0  0  0  0
   -1.5387    2.1172    0.9304 H   0  0  0  0  0  0  0  0  0  0  0  0
    0.2674    0.7374    1.9034 H   0  0  0  0  0  0  0  0  0  0  0  0
    1.8320    0.7080   -0.2389 H   0  0  0  0  0  0  0  0  0  0  0  0
    0.8484    2.1904   -0.2389 H   0  0  0  0  0  0  0  0  0  0  0  0
  1  2  1  0
  1  3  1  0
  1  4  1  0
  1 12  1  0
  5  6  1  0
  5 10  1  0
  5 13  1  0
  6  7  1  0
  6 14  1  0
  6 15  1  0
  7  8  1  0
  7 11  1  0
  7 16  1  0
  8  9  1  0
  8 17  1  0
  8 18  1  0
  9 10  1  0
  9 19  1  0
  9 20  1  0
 10 11  1  0
 10 21  1  0
 11 22  1  0
 11 23  1  0
M  RAD  1   5   2
M  END
>  <reaction>  (14) 
rxn_483

>  <mol_properties>  (14) 
{"0": {"label": "*3", "atom_type": "Cs"}, "1": {"label": "*4", "atom_type": "H0"}, "4": {"label": "*1", "atom_type": "Cs"}, "5": {"label": "*0", "atom_type": "Cs"}, "11": {"label": "*2", "atom_type": "H0"}}

>  <type>  (14) 
unop_10

>  <geom_source>  (14) 
Heuristics

$$$$

     RDKit          3D

 23 23  0  0  0  0  0  0  0  0999 V2000
    2.0821   -2.1454    1.4760 C   0  0  0  0  0  0  0  0  0  0  0  0
    1.8529   -2.6051    2.4362 H   0  0  0  0  0  0  0  0  0  0  0  0
    2.4578   -1.1361    1.6373 H   0  0  0  0  0  0  0  0  0  0  0  0
    2.8202   -2.9208    1.2767 H   0  0  0  0  0  0  0  0  0  0  0  0
   -0.0605   -0.9749    0.5359 C   0  0  0  0  0  3  0  0  0  0  0  0
   -0.0605   -0.9749   -1.0185 C   0  0  0  0  0  0  0  0  0  0  0  0
   -0.0605    0.5220   -1.3664 C   0  0  0  0  0  0  0  0  0  0  0  0
   -1.4397    1.1039   -1.0184 C   0  0  0  0  0  0  0  0  0  0  0  0
   -1.4397    1.1039    0.5359 C   0  0  0  0  0  0  0  0  0  0  0  0
   -0.0605    0.5220    0.8839 C   0  0  0  0  0  0  0  0  0  0  0  0
    0.8091    1.0990   -0.2413 C   0  0  0  0  0  0  0  0  0  0  0  0
    1.0120   -1.5608    1.0065 H   0  0  0  0  0  0  0  0  0  0  0  0
   -0.9250   -1.4902    0.9573 H   0  0  0  0  0  0  0  0  0  0  0  0
    0.8332   -1.4631   -1.4106 H   0  0  0  0  0  0  0  0  0  0  0  0
   -0.9250   -1.4902   -1.4398 H   0  0  0  0  0  0  0  0  0  0  0  0
    0.2639    0.7373   -2.3836 H   0  0  0  0  0  0  0  0  0  0  0  0
   -2.2506    0.5077   -1.4398 H   0  0  0  0  0  0  0  0  0  0  0  0
   -1.5422    2.1171   -1.4106 H   0  0  0  0  0  0  0  0  0  0  0  0
   -2.2506    0.5077    0.9573 H   0  0  0  0  0  0  0  0  0  0  0  0
   -1.5422    2.1171    0.9281 H   0  0  0  0  0  0  0  0  0  0  0  0
    0.2639    0.7373    1.9011 H   0  0  0  0  0  0  0  0  0  0  0  0
    1.8286    0.7079   -0.2413 H   0  0  0  0  0  0  0  0  0  0  0  0
    0.8450    2.1903   -0.2413 H   0  0  0  0  0  0  0  0  0  0  0  0
  1  2  1  0
  1  3  1  0
  1  4  1  0
  1 12  1  0
  5  6  1  0
  5 10  1  0
  5 13  1  0
  6  7  1  0
  6 14  1  0
  6 15  1  0
  7  8  1  0
  7 11  1  0
  7 16  1  0
  8  9  1  0
  8 17  1  0
  8 18  1  0
  9 10  1  0
  9 19  1  0
  9 20  1  0
 10 11  1  0
 10 21  1  0
 11 22  1  0
 11 23  1  0
M  RAD  1   5   2
M  END
>  <reaction>  (15) 
rxn_483

>  <mol_properties>  (15) 
{"0": {"label": "*3", "atom_type": "Cs"}, "1": {"label": "*4", "atom_type": "H0"}, "4": {"label": "*1", "atom_type": "Cs"}, "5": {"label": "*0", "atom_type": "Cs"}, "11": {"label": "*2", "atom_type": "H0"}}

>  <type>  (15) 
unop_11

>  <geom_source>  (15) 
Heuristics

$$$$

     RDKit          3D

 23 23  0  0  0  0  0  0  0  0999 V2000
    2.0879   -2.1441    1.4799 C   0  0  0  0  0  0  0  0  0  0  0  0
    2.7089   -2.4833    0.6523 H   0  0  0  0  0  0  0  0  0  0  0  0
    1.7970   -2.9983    2.0894 H   0  0  0  0  0  0  0  0  0  0  0  0
    2.0111   -1.3211    2.1889 H   0  0  0  0  0  0  0  0  0  0  0  0
   -0.0548   -0.9736    0.5398 C   0  0  0  0  0  3  0  0  0  0  0  0
   -0.0548   -0.9736   -1.0145 C   0  0  0  0  0  0  0  0  0  0  0  0
   -0.0548    0.5234   -1.3625 C   0  0  0  0  0  0  0  0  0  0  0  0
   -1.4340    1.1052   -1.0145 C   0  0  0  0  0  0  0  0  0  0  0  0
   -1.4340    1.1052    0.5398 C   0  0  0  0  0  0  0  0  0  0  0  0
   -0.0548    0.5234    0.8878 C   0  0  0  0  0  0  0  0  0  0  0  0
    0.8148    1.1003   -0.2373 C   0  0  0  0  0  0  0  0  0  0  0  0
    1.0177   -1.5595    1.0104 H   0  0  0  0  0  0  0  0  0  0  0  0
   -0.9193   -1.4889    0.9612 H   0  0  0  0  0  0  0  0  0  0  0  0
    0.8390   -1.4618   -1.4067 H   0  0  0  0  0  0  0  0  0  0  0  0
   -0.9193   -1.4889   -1.4359 H   0  0  0  0  0  0  0  0  0  0  0  0
    0.2697    0.7386   -2.3797 H   0  0  0  0  0  0  0  0  0  0  0  0
   -2.2448    0.5090   -1.4359 H   0  0  0  0  0  0  0  0  0  0  0  0
   -1.5365    2.1184   -1.4067 H   0  0  0  0  0  0  0  0  0  0  0  0
   -2.2448    0.5090    0.9612 H   0  0  0  0  0  0  0  0  0  0  0  0
   -1.5365    2.1184    0.9320 H   0  0  0  0  0  0  0  0  0  0  0  0
    0.2697    0.7386    1.9050 H   0  0  0  0  0  0  0  0  0  0  0  0
    1.8343    0.7092   -0.2373 H   0  0  0  0  0  0  0  0  0  0  0  0
    0.8507    2.1916   -0.2373 H   0  0  0  0  0  0  0  0  0  0  0  0
  1  2  1  0
  1  3  1  0
  1  4  1  0
  1 12  1  0
  5  6  1  0
  5 10  1  0
  5 13  1  0
  6  7  1  0
  6 14  1  0
  6 15  1  0
  7  8  1  0
  7 11  1  0
  7 16  1  0
  8  9  1  0
  8 17  1  0
  8 18  1  0
  9 10  1  0
  9 19  1  0
  9 20  1  0
 10 11  1  0
 10 21  1  0
 11 22  1  0
 11 23  1  0
M  RAD  1   5   2
M  END
>  <reaction>  (16) 
rxn_483

>  <mol_properties>  (16) 
{"0": {"label": "*3", "atom_type": "Cs"}, "1": {"label": "*4", "atom_type": "H0"}, "4": {"label": "*1", "atom_type": "Cs"}, "5": {"label": "*0", "atom_type": "Cs"}, "11": {"label": "*2", "atom_type": "H0"}}

>  <type>  (16) 
unop_12

>  <geom_source>  (16) 
Heuristics

$$$$

     RDKit          3D

 23 23  0  0  0  0  0  0  0  0999 V2000
   -1.2797   -0.3667    1.0546 C   0  0  0  0  0  0  0  0  0  0  0  0
   -0.2188   -0.3001   -0.8905 C   0  0  0  0  0  0  0  0  0  0  0  0
   -0.7498   -1.3588    0.0454 C   0  0  0  0  0  0  0  0  0  0  0  0
   -2.2140    0.4967    0.1881 C   0  0  0  0  0  0  0  0  0  0  0  0
   -1.4757    0.5466   -1.1601 C   0  0  0  0  0  0  0  0  0  0  0  0
   -0.0189    0.4524    1.3821 C   0  0  0  0  0  0  0  0  0  0  0  0
    3.2075   -0.1102   -0.3461 C   0  0  0  0  0  0  0  0  0  0  0  0
    0.7191    0.4884    0.0373 C   0  0  0  0  0  3  0  0  0  0  0  0
   -1.7710   -0.8214    1.9413 H   0  0  0  0  0  0  0  0  0  0  0  0
    0.2755   -0.6918   -1.8045 H   0  0  0  0  0  0  0  0  0  0  0  0
   -1.5508   -1.9839   -0.4134 H   0  0  0  0  0  0  0  0  0  0  0  0
    0.0503   -2.0165    0.4585 H   0  0  0  0  0  0  0  0  0  0  0  0
   -2.3628    1.5123    0.6159 H   0  0  0  0  0  0  0  0  0  0  0  0
   -3.2023   -0.0009    0.0738 H   0  0  0  0  0  0  0  0  0  0  0  0
   -2.0912    0.0787   -1.9598 H   0  0  0  0  0  0  0  0  0  0  0  0
   -1.2229    1.5888   -1.4542 H   0  0  0  0  0  0  0  0  0  0  0  0
    0.6039   -0.0771    2.1347 H   0  0  0  0  0  0  0  0  0  0  0  0
   -0.2618    1.4728    1.7513 H   0  0  0  0  0  0  0  0  0  0  0  0
    3.7534   -0.8995    0.2104 H   0  0  0  0  0  0  0  0  0  0  0  0
    3.2423   -0.3323   -1.4325 H   0  0  0  0  0  0  0  0  0  0  0  0
    3.6829    0.8736   -0.1543 H   0  0  0  0  0  0  0  0  0  0  0  0
    1.9957   -0.0786    0.0418 H   0  0  0  0  0  0  0  0  0  0  0  0
    0.8891    1.5276   -0.3196 H   0  0  0  0  0  0  0  0  0  0  0  0
  1  6  1  0
  1  4  1  0
  1  3  1  0
  1  9  1  0
  2  8  1  0
  2  5  1  0
  2  3  1  0
  2 10  1  0
  3 11  1  0
  3 12  1  0
  4  5  1  0
  4 13  1  0
  4 14  1  0
  5 15  1  0
  5 16  1  0
  6  8  1  0
  6 17  1  0
  6 18  1  0
  7 19  1  0
  7 20  1  0
  7 21  1  0
  7 22  1  0
  8 23  1  0
M  RAD  1   8   2
M  END
>  <reaction>  (17) 
rxn_483

>  <mol_properties>  (17) 
{"0": {"label": "*3", "atom_type": "Cs"}, "1": {"label": "*4", "atom_type": "H0"}, "4": {"label": "*1", "atom_type": "Cs"}, "5": {"label": "*0", "atom_type": "Cs"}, "11": {"label": "*2", "atom_type": "H0"}}

>  <type>  (17) 
unop_13

>  <geom_source>  (17) 
AutoTST

$$$$

     RDKit          3D

 23 23  0  0  0  0  0  0  0  0999 V2000
    2.0866   -2.1445    1.4798 C   0  0  0  0  0  0  0  0  0  0  0  0
    2.9103   -2.0095    0.7805 H   0  0  0  0  0  0  0  0  0  0  0  0
    2.0960   -3.1652    1.8591 H   0  0  0  0  0  0  0  0  0  0  0  0
    1.6478   -1.5866    2.3057 H   0  0  0  0  0  0  0  0  0  0  0  0
   -0.0561   -0.9740    0.5397 C   0  0  0  0  0  3  0  0  0  0  0  0
   -0.0561   -0.9740   -1.0147 C   0  0  0  0  0  0  0  0  0  0  0  0
   -0.0561    0.5230   -1.3626 C   0  0  0  0  0  0  0  0  0  0  0  0
   -1.4353    1.1048   -1.0147 C   0  0  0  0  0  0  0  0  0  0  0  0
   -1.4353    1.1048    0.5397 C   0  0  0  0  0  0  0  0  0  0  0  0
   -0.0561    0.5230    0.8877 C   0  0  0  0  0  0  0  0  0  0  0  0
    0.8135    1.0999   -0.2375 C   0  0  0  0  0  0  0  0  0  0  0  0
    1.0164   -1.5598    1.0103 H   0  0  0  0  0  0  0  0  0  0  0  0
   -0.9205   -1.4893    0.9610 H   0  0  0  0  0  0  0  0  0  0  0  0
    0.8377   -1.4622   -1.4068 H   0  0  0  0  0  0  0  0  0  0  0  0
   -0.9205   -1.4893   -1.4360 H   0  0  0  0  0  0  0  0  0  0  0  0
    0.2684    0.7382   -2.3798 H   0  0  0  0  0  0  0  0  0  0  0  0
   -2.2461    0.5086   -1.4360 H   0  0  0  0  0  0  0  0  0  0  0  0
   -1.5377    2.1180   -1.4068 H   0  0  0  0  0  0  0  0  0  0  0  0
   -2.2461    0.5086    0.9610 H   0  0  0  0  0  0  0  0  0  0  0  0
   -1.5377    2.1180    0.9318 H   0  0  0  0  0  0  0  0  0  0  0  0
    0.2684    0.7382    1.9048 H   0  0  0  0  0  0  0  0  0  0  0  0
    1.8330    0.7088   -0.2375 H   0  0  0  0  0  0  0  0  0  0  0  0
    0.8495    2.1913   -0.2375 H   0  0  0  0  0  0  0  0  0  0  0  0
  1  2  1  0
  1  3  1  0
  1  4  1  0
  1 12  1  0
  5  6  1  0
  5 10  1  0
  5 13  1  0
  6  7  1  0
  6 14  1  0
  6 15  1  0
  7  8  1  0
  7 11  1  0
  7 16  1  0
  8  9  1  0
  8 17  1  0
  8 18  1  0
  9 10  1  0
  9 19  1  0
  9 20  1  0
 10 11  1  0
 10 21  1  0
 11 22  1  0
 11 23  1  0
M  RAD  1   5   2
M  END
>  <reaction>  (18) 
rxn_483

>  <mol_properties>  (18) 
{"0": {"label": "*3", "atom_type": "Cs"}, "1": {"label": "*4", "atom_type": "H0"}, "4": {"label": "*1", "atom_type": "Cs"}, "5": {"label": "*0", "atom_type": "Cs"}, "11": {"label": "*2", "atom_type": "H0"}}

>  <type>  (18) 
unop_14

>  <geom_source>  (18) 
gaussian_log

$$$$
