
     RDKit          3D

 16 15  0  0  0  0  0  0  0  0999 V2000
    1.7961   -0.3807    1.6176 C   0  0  0  0  0  0  0  0  0  0  0  0
    0.8562   -0.8708    0.8256 C   0  0  0  0  0  0  0  0  0  0  0  0
    0.0895   -0.0826   -0.2048 C   0  0  0  0  0  0  0  0  0  0  0  0
   -1.4061   -0.1111    0.0982 C   0  0  0  0  0  0  0  0  0  0  0  0
    0.4476   -0.5902   -1.5797 C   0  0  0  0  0  0  0  0  0  0  0  0
   -0.3793   -1.1113   -2.4728 C   0  0  0  0  0  0  0  0  0  0  0  0
    2.3110   -1.0032    2.3386 H   0  0  0  0  0  0  0  0  0  0  0  0
    2.0846    0.6643    1.5737 H   0  0  0  0  0  0  0  0  0  0  0  0
    0.5921   -1.9241    0.8925 H   0  0  0  0  0  0  0  0  0  0  0  0
    0.4358    0.9557   -0.1462 H   0  0  0  0  0  0  0  0  0  0  0  0
   -1.5968    0.3080    1.0865 H   0  0  0  0  0  0  0  0  0  0  0  0
   -1.9674    0.4693   -0.6359 H   0  0  0  0  0  0  0  0  0  0  0  0
   -1.7902   -1.1338    0.0883 H   0  0  0  0  0  0  0  0  0  0  0  0
    1.5049   -0.5197   -1.8214 H   0  0  0  0  0  0  0  0  0  0  0  0
   -1.4421   -1.2131   -2.2889 H   0  0  0  0  0  0  0  0  0  0  0  0
   -0.0162   -1.4558   -3.4328 H   0  0  0  0  0  0  0  0  0  0  0  0
  1  2  2  3
  1  7  1  0
  1  8  1  0
  2  3  1  0
  2  9  1  0
  3  4  1  0
  3  5  1  0
  3 10  1  0
  4 11  1  0
  4 12  1  0
  4 13  1  0
  5  6  2  3
  5 14  1  0
  6 15  1  0
  6 16  1  0
M  END
>  <reaction>  (1) 
rxn_1205

>  <mol_properties>  (1) 
{"2": {"label": "donator", "atom_type": "Cs"}, "9": {"label": "d_hydrogen", "atom_type": "H0"}}

>  <type>  (1) 
r1h

$$$$

     RDKit          3D

 10  9  0  0  0  0  0  0  0  0999 V2000
   -1.2648    0.1959    0.8197 C   0  0  0  0  0  0  0  0  0  0  0  0
   -0.2805    0.0995   -0.3030 C   0  0  0  0  0  3  0  0  0  0  0  0
   -0.0444    1.1347   -1.1797 C   0  0  0  0  0  0  0  0  0  0  0  0
    0.1640    2.0467   -1.9525 C   0  0  0  0  0  0  0  0  0  0  0  0
    0.5686   -1.4168   -0.4488 S   0  0  0  0  0  0  0  0  0  0  0  0
   -2.0466   -0.5638    0.7258 H   0  0  0  0  0  0  0  0  0  0  0  0
   -0.7765    0.0454    1.7871 H   0  0  0  0  0  0  0  0  0  0  0  0
   -1.7371    1.1762    0.8222 H   0  0  0  0  0  0  0  0  0  0  0  0
    0.3433    2.8484   -2.6273 H   0  0  0  0  0  0  0  0  0  0  0  0
    1.3075   -1.0953   -1.5176 H   0  0  0  0  0  0  0  0  0  0  0  0
  1  2  1  0
  1  6  1  0
  1  7  1  0
  1  8  1  0
  2  3  1  0
  2  5  1  0
  3  4  3  0
  4  9  1  0
  5 10  1  0
M  RAD  1   2   2
M  END
>  <reaction>  (2) 
rxn_1205

>  <mol_properties>  (2) 
{"1": {"label": "acceptor", "atom_type": "Cs"}}

>  <type>  (2) 
r2

$$$$

     RDKit          3D

 11 10  0  0  0  0  0  0  0  0999 V2000
   -1.2582   -0.5130    0.2160 C   0  0  0  0  0  0  0  0  0  0  0  0
   -0.1109    0.0509   -0.6210 C   0  0  0  0  0  0  0  0  0  0  0  0
    1.1862   -0.2025   -0.0072 C   0  0  0  0  0  0  0  0  0  0  0  0
    2.2351   -0.4206    0.5274 C   0  0  0  0  0  0  0  0  0  0  0  0
   -0.3298    1.8272   -1.0120 S   0  0  0  0  0  0  0  0  0  0  0  0
   -1.2875   -0.0327    1.1945 H   0  0  0  0  0  0  0  0  0  0  0  0
   -2.2088   -0.3391   -0.2866 H   0  0  0  0  0  0  0  0  0  0  0  0
   -1.1220   -1.5854    0.3655 H   0  0  0  0  0  0  0  0  0  0  0  0
   -0.1222   -0.4181   -1.6078 H   0  0  0  0  0  0  0  0  0  0  0  0
    3.1729   -0.6098    0.9920 H   0  0  0  0  0  0  0  0  0  0  0  0
   -0.1942    2.2663    0.2466 H   0  0  0  0  0  0  0  0  0  0  0  0
  1  2  1  0
  1  6  1  0
  1  7  1  0
  1  8  1  0
  2  3  1  0
  2  5  1  0
  2  9  1  0
  3  4  3  0
  4 10  1  0
  5 11  1  0
M  END
>  <reaction>  (3) 
rxn_1205

>  <mol_properties>  (3) 
{"1": {"label": "acceptor", "atom_type": "Cs"}, "10": {"label": "a_hydrogen", "atom_type": "H0"}}

>  <type>  (3) 
r2h

$$$$

     RDKit          3D

 26 24  0  0  0  0  0  0  0  0999 V2000
   -0.0105    2.3020    0.7062 C   0  0  0  0  0  0  0  0  0  0  0  0
    0.0876    1.3338   -0.4506 C   0  0  0  0  0  3  0  0  0  0  0  0
    1.3557    1.1988   -1.0739 C   0  0  0  0  0  0  0  0  0  0  0  0
    2.4414    1.0378   -1.5662 C   0  0  0  0  0  0  0  0  0  0  0  0
   -1.2530    1.3608   -1.6317 S   0  0  0  0  0  0  0  0  0  0  0  0
   -0.0323    3.3344    0.3498 H   0  0  0  0  0  0  0  0  0  0  0  0
   -0.9205    2.1135    1.2789 H   0  0  0  0  0  0  0  0  0  0  0  0
    0.8478    2.1807    1.3675 H   0  0  0  0  0  0  0  0  0  0  0  0
    3.3973    0.9004   -2.0110 H   0  0  0  0  0  0  0  0  0  0  0  0
   -2.2310    1.3386   -0.7135 H   0  0  0  0  0  0  0  0  0  0  0  0
    1.1610   -2.6772   -0.4166 C   0  0  0  0  0  0  0  0  0  0  0  0
    0.0233   -2.0149   -0.2194 C   0  0  0  0  0  0  0  0  0  0  0  0
   -0.2441   -1.0267    0.8400 C   0  0  0  0  0  0  0  0  0  0  0  0
    0.7968   -0.8847    1.9255 C   0  0  0  0  0  0  0  0  0  0  0  0
   -1.6607   -0.9456    1.2366 C   0  0  0  0  0  0  0  0  0  0  0  0
   -2.1461   -0.5424    2.4108 C   0  0  0  0  0  0  0  0  0  0  0  0
    1.2652   -3.3611   -1.2486 H   0  0  0  0  0  0  0  0  0  0  0  0
    2.0172   -2.5684    0.2371 H   0  0  0  0  0  0  0  0  0  0  0  0
   -0.7941   -2.1731   -0.9178 H   0  0  0  0  0  0  0  0  0  0  0  0
   -0.0915    0.0834    0.1759 H   0  0  0  0  0  0  0  0  0  0  0  0
    1.7812   -0.7030    1.4922 H   0  0  0  0  0  0  0  0  0  0  0  0
    0.5697   -0.0458    2.5830 H   0  0  0  0  0  0  0  0  0  0  0  0
    0.8522   -1.7896    2.5364 H   0  0  0  0  0  0  0  0  0  0  0  0
   -2.3683   -1.2279    0.4609 H   0  0  0  0  0  0  0  0  0  0  0  0
   -1.5080   -0.2598    3.2388 H   0  0  0  0  0  0  0  0  0  0  0  0
   -3.2137   -0.5031    2.5834 H   0  0  0  0  0  0  0  0  0  0  0  0
  1  2  1  0
  1  6  1  0
  1  7  1  0
  1  8  1  0
  2  3  1  0
  2  5  1  0
  3  4  3  0
  4  9  1  0
  5 10  1  0
 11 12  2  3
 11 17  1  0
 11 18  1  0
 12 13  1  0
 12 19  1  0
 13 14  1  0
 13 15  1  0
 13 20  1  0
 14 21  1  0
 14 22  1  0
 14 23  1  0
 15 16  2  3
 15 24  1  0
 16 25  1  0
 16 26  1  0
M  RAD  1   2   2
M  END
>  <reaction>  (4) 
rxn_1205

>  <mol_properties>  (4) 
{"1": {"label": "*3", "atom_type": "Cs"}, "4": {"label": "*4", "atom_type": "S2s"}, "11": {"label": "*0", "atom_type": "Cd"}, "12": {"label": "*1", "atom_type": "Cs"}, "19": {"label": "*2", "atom_type": "H0"}}

>  <type>  (4) 
ts

$$$$

     RDKit          3D

 26 24  0  0  0  0  0  0  0  0999 V2000
   -1.3316    1.8882   -0.5102 C   0  0  0  0  0  0  0  0  0  0  0  0
   -0.0900    1.0301   -0.7486 C   0  0  0  0  0  0  0  0  0  0  0  0
    0.9442    1.2810    0.2467 C   0  0  0  0  0  0  0  0  0  0  0  0
    1.7758    1.5162    1.0755 C   0  0  0  0  0  0  0  0  0  0  0  0
    0.5661    1.1963   -2.4509 S   0  0  0  0  0  0  0  0  0  0  0  0
   -1.0840    2.9470   -0.5916 H   0  0  0  0  0  0  0  0  0  0  0  0
   -2.0975    1.6514   -1.2477 H   0  0  0  0  0  0  0  0  0  0  0  0
   -1.7277    1.7056    0.4901 H   0  0  0  0  0  0  0  0  0  0  0  0
    2.5143    1.7251    1.8116 H   0  0  0  0  0  0  0  0  0  0  0  0
    0.9492    2.4745   -2.3301 H   0  0  0  0  0  0  0  0  0  0  0  0
   -0.1631   -2.2861   -1.3461 C   0  0  0  0  0  0  0  0  0  0  0  0
   -0.1631   -2.2861   -0.0228 C   0  0  0  0  0  0  0  0  0  0  0  0
   -0.1631   -1.0554    0.8466 C   0  0  0  0  0  3  0  0  0  0  0  0
    1.0752   -1.0256    1.7382 C   0  0  0  0  0  0  0  0  0  0  0  0
   -1.4666   -0.9868    1.6031 C   0  0  0  0  0  0  0  0  0  0  0  0
   -1.6213   -0.9866    2.9180 C   0  0  0  0  0  0  0  0  0  0  0  0
   -0.1639   -3.2088   -1.9128 H   0  0  0  0  0  0  0  0  0  0  0  0
   -0.1614   -1.3604   -1.9118 H   0  0  0  0  0  0  0  0  0  0  0  0
   -0.1679   -3.2320    0.5148 H   0  0  0  0  0  0  0  0  0  0  0  0
   -0.1265   -0.0110    0.0477 H   0  0  0  0  0  0  0  0  0  0  0  0
    1.9780   -1.0339    1.1269 H   0  0  0  0  0  0  0  0  0  0  0  0
    1.0899   -0.1298    2.3613 H   0  0  0  0  0  0  0  0  0  0  0  0
    1.1078   -1.8973    2.3958 H   0  0  0  0  0  0  0  0  0  0  0  0
   -2.3498   -0.9511    0.9705 H   0  0  0  0  0  0  0  0  0  0  0  0
   -0.7809   -1.0259    3.6005 H   0  0  0  0  0  0  0  0  0  0  0  0
   -2.6077   -0.9434    3.3622 H   0  0  0  0  0  0  0  0  0  0  0  0
  1  2  1  0
  1  6  1  0
  1  7  1  0
  1  8  1  0
  2  3  1  0
  2  5  1  0
  2 20  1  0
  3  4  3  0
  4  9  1  0
  5 10  1  0
 11 12  2  3
 11 17  1  0
 11 18  1  0
 12 13  1  0
 12 19  1  0
 13 14  1  0
 13 15  1  0
 14 21  1  0
 14 22  1  0
 14 23  1  0
 15 16  2  3
 15 24  1  0
 16 25  1  0
 16 26  1  0
M  RAD  1  13   2
M  END
>  <reaction>  (5) 
rxn_1205

>  <mol_properties>  (5) 
{"1": {"label": "*3", "atom_type": "Cs"}, "4": {"label": "*4", "atom_type": "S2s"}, "11": {"label": "*0", "atom_type": "Cd"}, "12": {"label": "*1", "atom_type": "Cs"}, "19": {"label": "*2", "atom_type": "H0"}}

>  <type>  (5) 
unop_1

>  <geom_source>  (5) 
Heuristics

$$$$

     RDKit          3D

 26 24  0  0  0  0  0  0  0  0999 V2000
   -0.6135    0.5542   -2.1680 C   0  0  0  0  0  0  0  0  0  0  0  0
    0.0829    0.9030   -0.8535 C   0  0  0  0  0  0  0  0  0  0  0  0
   -0.7683    1.7028    0.0179 C   0  0  0  0  0  0  0  0  0  0  0  0
   -1.4903    2.3650    0.7062 C   0  0  0  0  0  0  0  0  0  0  0  0
    1.7134    1.6983   -1.1084 S   0  0  0  0  0  0  0  0  0  0  0  0
   -0.8504    1.4609   -2.7256 H   0  0  0  0  0  0  0  0  0  0  0  0
    0.0341   -0.0725   -2.7799 H   0  0  0  0  0  0  0  0  0  0  0  0
   -1.5452    0.0218   -1.9694 H   0  0  0  0  0  0  0  0  0  0  0  0
   -2.1316    2.9532    1.3176 H   0  0  0  0  0  0  0  0  0  0  0  0
    1.2364    2.8273   -1.6498 H   0  0  0  0  0  0  0  0  0  0  0  0
    0.0098   -2.4132   -1.4509 C   0  0  0  0  0  0  0  0  0  0  0  0
    0.0098   -2.4132   -0.1277 C   0  0  0  0  0  0  0  0  0  0  0  0
    0.0098   -1.1824    0.7417 C   0  0  0  0  0  3  0  0  0  0  0  0
    1.2482   -1.1526    1.6333 C   0  0  0  0  0  0  0  0  0  0  0  0
   -1.2937   -1.1138    1.4982 C   0  0  0  0  0  0  0  0  0  0  0  0
   -1.4483   -1.1136    2.8132 C   0  0  0  0  0  0  0  0  0  0  0  0
    0.0091   -3.3358   -2.0176 H   0  0  0  0  0  0  0  0  0  0  0  0
    0.0116   -1.4874   -2.0166 H   0  0  0  0  0  0  0  0  0  0  0  0
    0.0051   -3.3590    0.4099 H   0  0  0  0  0  0  0  0  0  0  0  0
    0.0464   -0.1381   -0.0571 H   0  0  0  0  0  0  0  0  0  0  0  0
    2.1510   -1.1610    1.0221 H   0  0  0  0  0  0  0  0  0  0  0  0
    1.2629   -0.2569    2.2564 H   0  0  0  0  0  0  0  0  0  0  0  0
    1.2808   -2.0244    2.2909 H   0  0  0  0  0  0  0  0  0  0  0  0
   -2.1768   -1.0781    0.8657 H   0  0  0  0  0  0  0  0  0  0  0  0
   -0.6079   -1.1529    3.4957 H   0  0  0  0  0  0  0  0  0  0  0  0
   -2.4347   -1.0705    3.2574 H   0  0  0  0  0  0  0  0  0  0  0  0
  1  2  1  0
  1  6  1  0
  1  7  1  0
  1  8  1  0
  2  3  1  0
  2  5  1  0
  2 20  1  0
  3  4  3  0
  4  9  1  0
  5 10  1  0
 11 12  2  3
 11 17  1  0
 11 18  1  0
 12 13  1  0
 12 19  1  0
 13 14  1  0
 13 15  1  0
 14 21  1  0
 14 22  1  0
 14 23  1  0
 15 16  2  3
 15 24  1  0
 16 25  1  0
 16 26  1  0
M  RAD  1  13   2
M  END
>  <reaction>  (6) 
rxn_1205

>  <mol_properties>  (6) 
{"1": {"label": "*3", "atom_type": "Cs"}, "4": {"label": "*4", "atom_type": "S2s"}, "11": {"label": "*0", "atom_type": "Cd"}, "12": {"label": "*1", "atom_type": "Cs"}, "19": {"label": "*2", "atom_type": "H0"}}

>  <type>  (6) 
unop_2

>  <geom_source>  (6) 
Heuristics

$$$$

     RDKit          3D

 26 24  0  0  0  0  0  0  0  0999 V2000
   -0.7528    2.2754    0.0584 C   0  0  0  0  0  0  0  0  0  0  0  0
   -0.0347    1.1052   -0.6120 C   0  0  0  0  0  0  0  0  0  0  0  0
    1.3950    1.1104   -0.3300 C   0  0  0  0  0  0  0  0  0  0  0  0
    2.5664    1.1480   -0.0850 C   0  0  0  0  0  0  0  0  0  0  0  0
   -0.3604    1.0158   -2.4125 S   0  0  0  0  0  0  0  0  0  0  0  0
   -0.3728    3.2239   -0.3223 H   0  0  0  0  0  0  0  0  0  0  0  0
   -1.8222    2.2225   -0.1417 H   0  0  0  0  0  0  0  0  0  0  0  0
   -0.5876    2.2491    1.1368 H   0  0  0  0  0  0  0  0  0  0  0  0
    3.6068    1.1814    0.1327 H   0  0  0  0  0  0  0  0  0  0  0  0
    0.2834    2.1475   -2.7286 H   0  0  0  0  0  0  0  0  0  0  0  0
   -0.1078   -2.2110   -1.2095 C   0  0  0  0  0  0  0  0  0  0  0  0
   -0.1078   -2.2110    0.1138 C   0  0  0  0  0  0  0  0  0  0  0  0
   -0.1078   -0.9802    0.9832 C   0  0  0  0  0  3  0  0  0  0  0  0
    1.1306   -0.9505    1.8748 C   0  0  0  0  0  0  0  0  0  0  0  0
   -1.4113   -0.9117    1.7397 C   0  0  0  0  0  0  0  0  0  0  0  0
   -1.5659   -0.9114    3.0546 C   0  0  0  0  0  0  0  0  0  0  0  0
   -0.1085   -3.1336   -1.7762 H   0  0  0  0  0  0  0  0  0  0  0  0
   -0.1060   -1.2852   -1.7752 H   0  0  0  0  0  0  0  0  0  0  0  0
   -0.1125   -3.1568    0.6514 H   0  0  0  0  0  0  0  0  0  0  0  0
   -0.0712    0.0641    0.1843 H   0  0  0  0  0  0  0  0  0  0  0  0
    2.0334   -0.9588    1.2635 H   0  0  0  0  0  0  0  0  0  0  0  0
    1.1453   -0.0547    2.4979 H   0  0  0  0  0  0  0  0  0  0  0  0
    1.1632   -1.8222    2.5324 H   0  0  0  0  0  0  0  0  0  0  0  0
   -2.2944   -0.8759    1.1071 H   0  0  0  0  0  0  0  0  0  0  0  0
   -0.7255   -0.9508    3.7372 H   0  0  0  0  0  0  0  0  0  0  0  0
   -2.5523   -0.8683    3.4988 H   0  0  0  0  0  0  0  0  0  0  0  0
  1  2  1  0
  1  6  1  0
  1  7  1  0
  1  8  1  0
  2  3  1  0
  2  5  1  0
  2 20  1  0
  3  4  3  0
  4  9  1  0
  5 10  1  0
 11 12  2  3
 11 17  1  0
 11 18  1  0
 12 13  1  0
 12 19  1  0
 13 14  1  0
 13 15  1  0
 14 21  1  0
 14 22  1  0
 14 23  1  0
 15 16  2  3
 15 24  1  0
 16 25  1  0
 16 26  1  0
M  RAD  1  13   2
M  END
>  <reaction>  (7) 
rxn_1205

>  <mol_properties>  (7) 
{"1": {"label": "*3", "atom_type": "Cs"}, "4": {"label": "*4", "atom_type": "S2s"}, "11": {"label": "*0", "atom_type": "Cd"}, "12": {"label": "*1", "atom_type": "Cs"}, "19": {"label": "*2", "atom_type": "H0"}}

>  <type>  (7) 
unop_3

>  <geom_source>  (7) 
Heuristics

$$$$

     RDKit          3D

 26 24  0  0  0  0  0  0  0  0999 V2000
    1.4702    0.8547   -1.7878 C   0  0  0  0  0  0  0  0  0  0  0  0
    0.2007    0.9157   -0.9397 C   0  0  0  0  0  0  0  0  0  0  0  0
   -0.8762    1.6217   -1.6218 C   0  0  0  0  0  0  0  0  0  0  0  0
   -1.7372    2.2133   -2.2069 C   0  0  0  0  0  0  0  0  0  0  0  0
    0.5005    1.6068    0.7302 S   0  0  0  0  0  0  0  0  0  0  0  0
    1.8447    1.8596   -1.9853 H   0  0  0  0  0  0  0  0  0  0  0  0
    2.2424    0.2910   -1.2658 H   0  0  0  0  0  0  0  0  0  0  0  0
    1.2597    0.3741   -2.7447 H   0  0  0  0  0  0  0  0  0  0  0  0
   -2.5020    2.7388   -2.7264 H   0  0  0  0  0  0  0  0  0  0  0  0
    0.7969    2.8468    0.3184 H   0  0  0  0  0  0  0  0  0  0  0  0
    0.1276   -2.4006   -1.5371 C   0  0  0  0  0  0  0  0  0  0  0  0
    0.1276   -2.4006   -0.2139 C   0  0  0  0  0  0  0  0  0  0  0  0
    0.1276   -1.1698    0.6555 C   0  0  0  0  0  3  0  0  0  0  0  0
    1.3660   -1.1400    1.5471 C   0  0  0  0  0  0  0  0  0  0  0  0
   -1.1759   -1.1012    1.4120 C   0  0  0  0  0  0  0  0  0  0  0  0
   -1.3305   -1.1010    2.7269 C   0  0  0  0  0  0  0  0  0  0  0  0
    0.1269   -3.3232   -2.1038 H   0  0  0  0  0  0  0  0  0  0  0  0
    0.1294   -1.4748   -2.1028 H   0  0  0  0  0  0  0  0  0  0  0  0
    0.1229   -3.3464    0.3237 H   0  0  0  0  0  0  0  0  0  0  0  0
    0.1642   -0.1254   -0.1433 H   0  0  0  0  0  0  0  0  0  0  0  0
    2.2687   -1.1484    0.9358 H   0  0  0  0  0  0  0  0  0  0  0  0
    1.3807   -0.2442    2.1702 H   0  0  0  0  0  0  0  0  0  0  0  0
    1.3986   -2.0118    2.2047 H   0  0  0  0  0  0  0  0  0  0  0  0
   -2.0591   -1.0655    0.7795 H   0  0  0  0  0  0  0  0  0  0  0  0
   -0.4902   -1.1403    3.4095 H   0  0  0  0  0  0  0  0  0  0  0  0
   -2.3169   -1.0579    3.1712 H   0  0  0  0  0  0  0  0  0  0  0  0
  1  2  1  0
  1  6  1  0
  1  7  1  0
  1  8  1  0
  2  3  1  0
  2  5  1  0
  2 20  1  0
  3  4  3  0
  4  9  1  0
  5 10  1  0
 11 12  2  3
 11 17  1  0
 11 18  1  0
 12 13  1  0
 12 19  1  0
 13 14  1  0
 13 15  1  0
 14 21  1  0
 14 22  1  0
 14 23  1  0
 15 16  2  3
 15 24  1  0
 16 25  1  0
 16 26  1  0
M  RAD  1  13   2
M  END
>  <reaction>  (8) 
rxn_1205

>  <mol_properties>  (8) 
{"1": {"label": "*3", "atom_type": "Cs"}, "4": {"label": "*4", "atom_type": "S2s"}, "11": {"label": "*0", "atom_type": "Cd"}, "12": {"label": "*1", "atom_type": "Cs"}, "19": {"label": "*2", "atom_type": "H0"}}

>  <type>  (8) 
unop_4

>  <geom_source>  (8) 
Heuristics

$$$$

     RDKit          3D

 26 24  0  0  0  0  0  0  0  0999 V2000
    0.1904    2.4148    0.3001 C   0  0  0  0  0  0  0  0  0  0  0  0
    0.1890    1.1392   -0.5411 C   0  0  0  0  0  0  0  0  0  0  0  0
    1.3787    1.0367   -1.3763 C   0  0  0  0  0  0  0  0  0  0  0  0
    2.3639    0.9868   -2.0549 C   0  0  0  0  0  0  0  0  0  0  0  0
   -1.3408    0.9485   -1.5306 S   0  0  0  0  0  0  0  0  0  0  0  0
    0.1851    3.2951   -0.3434 H   0  0  0  0  0  0  0  0  0  0  0  0
   -0.6921    2.4435    0.9379 H   0  0  0  0  0  0  0  0  0  0  0  0
    1.0854    2.4524    0.9234 H   0  0  0  0  0  0  0  0  0  0  0  0
    3.2389    0.9426   -2.6577 H   0  0  0  0  0  0  0  0  0  0  0  0
   -1.1158    1.9919   -2.3405 H   0  0  0  0  0  0  0  0  0  0  0  0
    0.1159   -2.1771   -1.1386 C   0  0  0  0  0  0  0  0  0  0  0  0
    0.1159   -2.1771    0.1847 C   0  0  0  0  0  0  0  0  0  0  0  0
    0.1159   -0.9463    1.0541 C   0  0  0  0  0  3  0  0  0  0  0  0
    1.3543   -0.9165    1.9457 C   0  0  0  0  0  0  0  0  0  0  0  0
   -1.1876   -0.8777    1.8106 C   0  0  0  0  0  0  0  0  0  0  0  0
   -1.3422   -0.8775    3.1255 C   0  0  0  0  0  0  0  0  0  0  0  0
    0.1152   -3.0997   -1.7053 H   0  0  0  0  0  0  0  0  0  0  0  0
    0.1177   -1.2513   -1.7043 H   0  0  0  0  0  0  0  0  0  0  0  0
    0.1112   -3.1229    0.7223 H   0  0  0  0  0  0  0  0  0  0  0  0
    0.1525    0.0981    0.2553 H   0  0  0  0  0  0  0  0  0  0  0  0
    2.2571   -0.9249    1.3344 H   0  0  0  0  0  0  0  0  0  0  0  0
    1.3690   -0.0207    2.5688 H   0  0  0  0  0  0  0  0  0  0  0  0
    1.3869   -1.7883    2.6033 H   0  0  0  0  0  0  0  0  0  0  0  0
   -2.0708   -0.8420    1.1781 H   0  0  0  0  0  0  0  0  0  0  0  0
   -0.5018   -0.9168    3.8081 H   0  0  0  0  0  0  0  0  0  0  0  0
   -2.3286   -0.8344    3.5697 H   0  0  0  0  0  0  0  0  0  0  0  0
  1  2  1  0
  1  6  1  0
  1  7  1  0
  1  8  1  0
  2  3  1  0
  2  5  1  0
  2 20  1  0
  3  4  3  0
  4  9  1  0
  5 10  1  0
 11 12  2  3
 11 17  1  0
 11 18  1  0
 12 13  1  0
 12 19  1  0
 13 14  1  0
 13 15  1  0
 14 21  1  0
 14 22  1  0
 14 23  1  0
 15 16  2  3
 15 24  1  0
 16 25  1  0
 16 26  1  0
M  RAD  1  13   2
M  END
>  <reaction>  (9) 
rxn_1205

>  <mol_properties>  (9) 
{"1": {"label": "*3", "atom_type": "Cs"}, "4": {"label": "*4", "atom_type": "S2s"}, "11": {"label": "*0", "atom_type": "Cd"}, "12": {"label": "*1", "atom_type": "Cs"}, "19": {"label": "*2", "atom_type": "H0"}}

>  <type>  (9) 
unop_5

>  <geom_source>  (9) 
Heuristics

$$$$

     RDKit          3D

 26 24  0  0  0  0  0  0  0  0999 V2000
    1.7691    1.3291   -1.1945 C   0  0  0  0  0  0  0  0  0  0  0  0
    0.3126    0.9548   -0.9240 C   0  0  0  0  0  0  0  0  0  0  0  0
   -0.5829    1.4782   -1.9474 C   0  0  0  0  0  0  0  0  0  0  0  0
   -1.2918    1.9287   -2.8008 C   0  0  0  0  0  0  0  0  0  0  0  0
   -0.2388    1.4350    0.7557 S   0  0  0  0  0  0  0  0  0  0  0  0
    1.8929    2.4124   -1.1796 H   0  0  0  0  0  0  0  0  0  0  0  0
    2.4151    0.8937   -0.4331 H   0  0  0  0  0  0  0  0  0  0  0  0
    2.0745    0.9636   -2.1764 H   0  0  0  0  0  0  0  0  0  0  0  0
   -1.9214    2.3288   -3.5587 H   0  0  0  0  0  0  0  0  0  0  0  0
   -0.1699    2.7578    0.5539 H   0  0  0  0  0  0  0  0  0  0  0  0
    0.2395   -2.3614   -1.5214 C   0  0  0  0  0  0  0  0  0  0  0  0
    0.2395   -2.3614   -0.1982 C   0  0  0  0  0  0  0  0  0  0  0  0
    0.2395   -1.1306    0.6712 C   0  0  0  0  0  3  0  0  0  0  0  0
    1.4779   -1.1009    1.5628 C   0  0  0  0  0  0  0  0  0  0  0  0
   -1.0640   -1.0621    1.4277 C   0  0  0  0  0  0  0  0  0  0  0  0
   -1.2186   -1.0618    2.7426 C   0  0  0  0  0  0  0  0  0  0  0  0
    0.2388   -3.2840   -2.0881 H   0  0  0  0  0  0  0  0  0  0  0  0
    0.2413   -1.4356   -2.0871 H   0  0  0  0  0  0  0  0  0  0  0  0
    0.2348   -3.3072    0.3394 H   0  0  0  0  0  0  0  0  0  0  0  0
    0.2761   -0.0863   -0.1276 H   0  0  0  0  0  0  0  0  0  0  0  0
    2.3807   -1.1092    0.9516 H   0  0  0  0  0  0  0  0  0  0  0  0
    1.4926   -0.2051    2.1859 H   0  0  0  0  0  0  0  0  0  0  0  0
    1.5105   -1.9726    2.2204 H   0  0  0  0  0  0  0  0  0  0  0  0
   -1.9471   -1.0263    0.7952 H   0  0  0  0  0  0  0  0  0  0  0  0
   -0.3782   -1.1011    3.4252 H   0  0  0  0  0  0  0  0  0  0  0  0
   -2.2050   -1.0187    3.1869 H   0  0  0  0  0  0  0  0  0  0  0  0
  1  2  1  0
  1  6  1  0
  1  7  1  0
  1  8  1  0
  2  3  1  0
  2  5  1  0
  2 20  1  0
  3  4  3  0
  4  9  1  0
  5 10  1  0
 11 12  2  3
 11 17  1  0
 11 18  1  0
 12 13  1  0
 12 19  1  0
 13 14  1  0
 13 15  1  0
 14 21  1  0
 14 22  1  0
 14 23  1  0
 15 16  2  3
 15 24  1  0
 16 25  1  0
 16 26  1  0
M  RAD  1  13   2
M  END
>  <reaction>  (10) 
rxn_1205

>  <mol_properties>  (10) 
{"1": {"label": "*3", "atom_type": "Cs"}, "4": {"label": "*4", "atom_type": "S2s"}, "11": {"label": "*0", "atom_type": "Cd"}, "12": {"label": "*1", "atom_type": "Cs"}, "19": {"label": "*2", "atom_type": "H0"}}

>  <type>  (10) 
unop_6

>  <geom_source>  (10) 
Heuristics

$$$$

     RDKit          3D

 26 24  0  0  0  0  0  0  0  0999 V2000
    1.6561    1.8378   -0.5344 C   0  0  0  0  0  0  0  0  0  0  0  0
    0.3992    1.0217   -0.8323 C   0  0  0  0  0  0  0  0  0  0  0  0
   -0.1247    1.2957   -2.1642 C   0  0  0  0  0  0  0  0  0  0  0  0
   -0.5329    1.5492   -3.2609 C   0  0  0  0  0  0  0  0  0  0  0  0
   -0.8939    1.2249    0.4493 S   0  0  0  0  0  0  0  0  0  0  0  0
    1.4318    2.9047   -0.5577 H   0  0  0  0  0  0  0  0  0  0  0  0
    2.0422    1.5839    0.4521 H   0  0  0  0  0  0  0  0  0  0  0  0
    2.4228    1.6332   -1.2836 H   0  0  0  0  0  0  0  0  0  0  0  0
   -0.8955    1.7744   -4.2349 H   0  0  0  0  0  0  0  0  0  0  0  0
   -1.1512    2.5134    0.1870 H   0  0  0  0  0  0  0  0  0  0  0  0
    0.3261   -2.2945   -1.4297 C   0  0  0  0  0  0  0  0  0  0  0  0
    0.3261   -2.2945   -0.1065 C   0  0  0  0  0  0  0  0  0  0  0  0
    0.3261   -1.0637    0.7629 C   0  0  0  0  0  3  0  0  0  0  0  0
    1.5644   -1.0339    1.6545 C   0  0  0  0  0  0  0  0  0  0  0  0
   -0.9775   -0.9952    1.5194 C   0  0  0  0  0  0  0  0  0  0  0  0
   -1.1321   -0.9949    2.8343 C   0  0  0  0  0  0  0  0  0  0  0  0
    0.3253   -3.2171   -1.9964 H   0  0  0  0  0  0  0  0  0  0  0  0
    0.3278   -1.3687   -1.9954 H   0  0  0  0  0  0  0  0  0  0  0  0
    0.3213   -3.2403    0.4311 H   0  0  0  0  0  0  0  0  0  0  0  0
    0.3627   -0.0194   -0.0359 H   0  0  0  0  0  0  0  0  0  0  0  0
    2.4672   -1.0423    1.0432 H   0  0  0  0  0  0  0  0  0  0  0  0
    1.5791   -0.1382    2.2776 H   0  0  0  0  0  0  0  0  0  0  0  0
    1.5970   -1.9057    2.3121 H   0  0  0  0  0  0  0  0  0  0  0  0
   -1.8606   -0.9594    0.8869 H   0  0  0  0  0  0  0  0  0  0  0  0
   -0.2917   -1.0342    3.5169 H   0  0  0  0  0  0  0  0  0  0  0  0
   -2.1185   -0.9518    3.2786 H   0  0  0  0  0  0  0  0  0  0  0  0
  1  2  1  0
  1  6  1  0
  1  7  1  0
  1  8  1  0
  2  3  1  0
  2  5  1  0
  2 20  1  0
  3  4  3  0
  4  9  1  0
  5 10  1  0
 11 12  2  3
 11 17  1  0
 11 18  1  0
 12 13  1  0
 12 19  1  0
 13 14  1  0
 13 15  1  0
 14 21  1  0
 14 22  1  0
 14 23  1  0
 15 16  2  3
 15 24  1  0
 16 25  1  0
 16 26  1  0
M  RAD  1  13   2
M  END
>  <reaction>  (11) 
rxn_1205

>  <mol_properties>  (11) 
{"1": {"label": "*3", "atom_type": "Cs"}, "4": {"label": "*4", "atom_type": "S2s"}, "11": {"label": "*0", "atom_type": "Cd"}, "12": {"label": "*1", "atom_type": "Cs"}, "19": {"label": "*2", "atom_type": "H0"}}

>  <type>  (11) 
unop_7

>  <geom_source>  (11) 
Heuristics

$$$$

     RDKit          3D

 26 24  0  0  0  0  0  0  0  0999 V2000
   -1.4708    1.3838   -1.1762 C   0  0  0  0  0  0  0  0  0  0  0  0
   -0.0422    0.9609   -0.8370 C   0  0  0  0  0  0  0  0  0  0  0  0
    0.3805    1.4652    0.4632 C   0  0  0  0  0  0  0  0  0  0  0  0
    0.6988    1.9011    1.5320 C   0  0  0  0  0  0  0  0  0  0  0  0
    1.1560    1.4075   -2.1488 S   0  0  0  0  0  0  0  0  0  0  0  0
   -1.5423    2.4702   -1.2353 H   0  0  0  0  0  0  0  0  0  0  0  0
   -1.7682    0.9619   -2.1354 H   0  0  0  0  0  0  0  0  0  0  0  0
   -2.1584    1.0374   -0.4029 H   0  0  0  0  0  0  0  0  0  0  0  0
    0.9815    2.2881    2.4813 H   0  0  0  0  0  0  0  0  0  0  0  0
    1.0549    2.7336   -1.9865 H   0  0  0  0  0  0  0  0  0  0  0  0
   -0.1153   -2.3553   -1.4345 C   0  0  0  0  0  0  0  0  0  0  0  0
   -0.1153   -2.3553   -0.1113 C   0  0  0  0  0  0  0  0  0  0  0  0
   -0.1153   -1.1245    0.7582 C   0  0  0  0  0  3  0  0  0  0  0  0
    1.1231   -1.0948    1.6498 C   0  0  0  0  0  0  0  0  0  0  0  0
   -1.4188   -1.0560    1.5147 C   0  0  0  0  0  0  0  0  0  0  0  0
   -1.5734   -1.0557    2.8296 C   0  0  0  0  0  0  0  0  0  0  0  0
   -0.1160   -3.2779   -2.0012 H   0  0  0  0  0  0  0  0  0  0  0  0
   -0.1135   -1.4295   -2.0002 H   0  0  0  0  0  0  0  0  0  0  0  0
   -0.1200   -3.3011    0.4264 H   0  0  0  0  0  0  0  0  0  0  0  0
   -0.0787   -0.0802   -0.0407 H   0  0  0  0  0  0  0  0  0  0  0  0
    2.0259   -1.1031    1.0385 H   0  0  0  0  0  0  0  0  0  0  0  0
    1.1378   -0.1990    2.2729 H   0  0  0  0  0  0  0  0  0  0  0  0
    1.1557   -1.9665    2.3074 H   0  0  0  0  0  0  0  0  0  0  0  0
   -2.3019   -1.0202    0.8821 H   0  0  0  0  0  0  0  0  0  0  0  0
   -0.7330   -1.0950    3.5121 H   0  0  0  0  0  0  0  0  0  0  0  0
   -2.5598   -1.0126    3.2738 H   0  0  0  0  0  0  0  0  0  0  0  0
  1  2  1  0
  1  6  1  0
  1  7  1  0
  1  8  1  0
  2  3  1  0
  2  5  1  0
  2 20  1  0
  3  4  3  0
  4  9  1  0
  5 10  1  0
 11 12  2  3
 11 17  1  0
 11 18  1  0
 12 13  1  0
 12 19  1  0
 13 14  1  0
 13 15  1  0
 14 21  1  0
 14 22  1  0
 14 23  1  0
 15 16  2  3
 15 24  1  0
 16 25  1  0
 16 26  1  0
M  RAD  1  13   2
M  END
>  <reaction>  (12) 
rxn_1205

>  <mol_properties>  (12) 
{"1": {"label": "*3", "atom_type": "Cs"}, "4": {"label": "*4", "atom_type": "S2s"}, "11": {"label": "*0", "atom_type": "Cd"}, "12": {"label": "*1", "atom_type": "Cs"}, "19": {"label": "*2", "atom_type": "H0"}}

>  <type>  (12) 
unop_8

>  <geom_source>  (12) 
Heuristics

$$$$

     RDKit          3D

 26 24  0  0  0  0  0  0  0  0999 V2000
    0.8665    0.5293   -2.1801 C   0  0  0  0  0  0  0  0  0  0  0  0
    0.1204    0.9024   -0.8999 C   0  0  0  0  0  0  0  0  0  0  0  0
   -1.0636    1.7062   -1.1747 C   0  0  0  0  0  0  0  0  0  0  0  0
   -2.0249    2.3711   -1.4343 C   0  0  0  0  0  0  0  0  0  0  0  0
    1.2033    1.7089    0.3381 S   0  0  0  0  0  0  0  0  0  0  0  0
    1.2211    1.4260   -2.6892 H   0  0  0  0  0  0  0  0  0  0  0  0
    1.7238   -0.0998   -1.9439 H   0  0  0  0  0  0  0  0  0  0  0  0
    0.2023   -0.0089   -2.8584 H   0  0  0  0  0  0  0  0  0  0  0  0
   -2.8787    2.9617   -1.6648 H   0  0  0  0  0  0  0  0  0  0  0  0
    1.4188    2.8260   -0.3697 H   0  0  0  0  0  0  0  0  0  0  0  0
    0.0473   -2.4139   -1.4974 C   0  0  0  0  0  0  0  0  0  0  0  0
    0.0473   -2.4139   -0.1742 C   0  0  0  0  0  0  0  0  0  0  0  0
    0.0473   -1.1831    0.6952 C   0  0  0  0  0  3  0  0  0  0  0  0
    1.2857   -1.1533    1.5868 C   0  0  0  0  0  0  0  0  0  0  0  0
   -1.2562   -1.1145    1.4517 C   0  0  0  0  0  0  0  0  0  0  0  0
   -1.4108   -1.1143    2.7667 C   0  0  0  0  0  0  0  0  0  0  0  0
    0.0466   -3.3365   -2.0641 H   0  0  0  0  0  0  0  0  0  0  0  0
    0.0491   -1.4881   -2.0631 H   0  0  0  0  0  0  0  0  0  0  0  0
    0.0426   -3.3597    0.3635 H   0  0  0  0  0  0  0  0  0  0  0  0
    0.0839   -0.1388   -0.1036 H   0  0  0  0  0  0  0  0  0  0  0  0
    2.1884   -1.1617    0.9756 H   0  0  0  0  0  0  0  0  0  0  0  0
    1.3004   -0.2576    2.2099 H   0  0  0  0  0  0  0  0  0  0  0  0
    1.3183   -2.0251    2.2444 H   0  0  0  0  0  0  0  0  0  0  0  0
   -2.1394   -1.0788    0.8192 H   0  0  0  0  0  0  0  0  0  0  0  0
   -0.5705   -1.1536    3.4492 H   0  0  0  0  0  0  0  0  0  0  0  0
   -2.3972   -1.0712    3.2109 H   0  0  0  0  0  0  0  0  0  0  0  0
  1  2  1  0
  1  6  1  0
  1  7  1  0
  1  8  1  0
  2  3  1  0
  2  5  1  0
  2 20  1  0
  3  4  3  0
  4  9  1  0
  5 10  1  0
 11 12  2  3
 11 17  1  0
 11 18  1  0
 12 13  1  0
 12 19  1  0
 13 14  1  0
 13 15  1  0
 14 21  1  0
 14 22  1  0
 14 23  1  0
 15 16  2  3
 15 24  1  0
 16 25  1  0
 16 26  1  0
M  RAD  1  13   2
M  END
>  <reaction>  (13) 
rxn_1205

>  <mol_properties>  (13) 
{"1": {"label": "*3", "atom_type": "Cs"}, "4": {"label": "*4", "atom_type": "S2s"}, "11": {"label": "*0", "atom_type": "Cd"}, "12": {"label": "*1", "atom_type": "Cs"}, "19": {"label": "*2", "atom_type": "H0"}}

>  <type>  (13) 
unop_9

>  <geom_source>  (13) 
Heuristics

$$$$

     RDKit          3D

 26 24  0  0  0  0  0  0  0  0999 V2000
   -1.1956    0.8997   -1.7715 C   0  0  0  0  0  0  0  0  0  0  0  0
    0.0335    0.9186   -0.8639 C   0  0  0  0  0  0  0  0  0  0  0  0
   -0.2268    1.6135    0.3902 C   0  0  0  0  0  0  0  0  0  0  0  0
   -0.4715    2.1969    1.4068 C   0  0  0  0  0  0  0  0  0  0  0  0
    1.5192    1.5863   -1.7021 S   0  0  0  0  0  0  0  0  0  0  0  0
   -1.4842    1.9156   -2.0428 H   0  0  0  0  0  0  0  0  0  0  0  0
   -0.9794    0.3433   -2.6827 H   0  0  0  0  0  0  0  0  0  0  0  0
   -2.0358    0.4317   -1.2559 H   0  0  0  0  0  0  0  0  0  0  0  0
   -0.6888    2.7151    2.3097 H   0  0  0  0  0  0  0  0  0  0  0  0
    1.0610    2.8395   -1.8240 H   0  0  0  0  0  0  0  0  0  0  0  0
   -0.0396   -2.3976   -1.4613 C   0  0  0  0  0  0  0  0  0  0  0  0
   -0.0396   -2.3976   -0.1381 C   0  0  0  0  0  0  0  0  0  0  0  0
   -0.0396   -1.1668    0.7313 C   0  0  0  0  0  3  0  0  0  0  0  0
    1.1987   -1.1371    1.6229 C   0  0  0  0  0  0  0  0  0  0  0  0
   -1.3431   -1.0983    1.4878 C   0  0  0  0  0  0  0  0  0  0  0  0
   -1.4978   -1.0980    2.8027 C   0  0  0  0  0  0  0  0  0  0  0  0
   -0.0404   -3.3202   -2.0281 H   0  0  0  0  0  0  0  0  0  0  0  0
   -0.0379   -1.4718   -2.0270 H   0  0  0  0  0  0  0  0  0  0  0  0
   -0.0444   -3.3434    0.3995 H   0  0  0  0  0  0  0  0  0  0  0  0
   -0.0030   -0.1225   -0.0675 H   0  0  0  0  0  0  0  0  0  0  0  0
    2.1015   -1.1454    1.0116 H   0  0  0  0  0  0  0  0  0  0  0  0
    1.2134   -0.2413    2.2460 H   0  0  0  0  0  0  0  0  0  0  0  0
    1.2313   -2.0088    2.2805 H   0  0  0  0  0  0  0  0  0  0  0  0
   -2.2263   -1.0625    0.8553 H   0  0  0  0  0  0  0  0  0  0  0  0
   -0.6574   -1.1374    3.4853 H   0  0  0  0  0  0  0  0  0  0  0  0
   -2.4842   -1.0549    3.2470 H   0  0  0  0  0  0  0  0  0  0  0  0
  1  2  1  0
  1  6  1  0
  1  7  1  0
  1  8  1  0
  2  3  1  0
  2  5  1  0
  2 20  1  0
  3  4  3  0
  4  9  1  0
  5 10  1  0
 11 12  2  3
 11 17  1  0
 11 18  1  0
 12 13  1  0
 12 19  1  0
 13 14  1  0
 13 15  1  0
 14 21  1  0
 14 22  1  0
 14 23  1  0
 15 16  2  3
 15 24  1  0
 16 25  1  0
 16 26  1  0
M  RAD  1  13   2
M  END
>  <reaction>  (14) 
rxn_1205

>  <mol_properties>  (14) 
{"1": {"label": "*3", "atom_type": "Cs"}, "4": {"label": "*4", "atom_type": "S2s"}, "11": {"label": "*0", "atom_type": "Cd"}, "12": {"label": "*1", "atom_type": "Cs"}, "19": {"label": "*2", "atom_type": "H0"}}

>  <type>  (14) 
unop_10

>  <geom_source>  (14) 
Heuristics

$$$$

     RDKit          3D

 26 24  0  0  0  0  0  0  0  0999 V2000
    1.1105    2.2440    0.0323 C   0  0  0  0  0  0  0  0  0  0  0  0
    0.3861    1.0980   -0.6725 C   0  0  0  0  0  0  0  0  0  0  0  0
    0.6031    1.1213   -2.1132 C   0  0  0  0  0  0  0  0  0  0  0  0
    0.7954    1.1735   -3.2939 C   0  0  0  0  0  0  0  0  0  0  0  0
   -1.3992    1.0362   -0.2663 S   0  0  0  0  0  0  0  0  0  0  0  0
    0.7309    3.2053   -0.3153 H   0  0  0  0  0  0  0  0  0  0  0  0
    0.9580    2.1774    1.1088 H   0  0  0  0  0  0  0  0  0  0  0  0
    2.1796    2.2007   -0.1823 H   0  0  0  0  0  0  0  0  0  0  0  0
    0.9663    1.2198   -4.3425 H   0  0  0  0  0  0  0  0  0  0  0  0
   -1.7226    2.1838   -0.8776 H   0  0  0  0  0  0  0  0  0  0  0  0
    0.3130   -2.2182   -1.2699 C   0  0  0  0  0  0  0  0  0  0  0  0
    0.3130   -2.2182    0.0533 C   0  0  0  0  0  0  0  0  0  0  0  0
    0.3130   -0.9874    0.9227 C   0  0  0  0  0  3  0  0  0  0  0  0
    1.5514   -0.9576    1.8143 C   0  0  0  0  0  0  0  0  0  0  0  0
   -0.9905   -0.9188    1.6792 C   0  0  0  0  0  0  0  0  0  0  0  0
   -1.1451   -0.9186    2.9941 C   0  0  0  0  0  0  0  0  0  0  0  0
    0.3123   -3.1408   -1.8367 H   0  0  0  0  0  0  0  0  0  0  0  0
    0.3148   -1.2924   -1.8357 H   0  0  0  0  0  0  0  0  0  0  0  0
    0.3083   -3.1640    0.5909 H   0  0  0  0  0  0  0  0  0  0  0  0
    0.3496    0.0569    0.1239 H   0  0  0  0  0  0  0  0  0  0  0  0
    2.4541   -0.9660    1.2030 H   0  0  0  0  0  0  0  0  0  0  0  0
    1.5661   -0.0619    2.4374 H   0  0  0  0  0  0  0  0  0  0  0  0
    1.5840   -1.8294    2.4719 H   0  0  0  0  0  0  0  0  0  0  0  0
   -1.8737   -0.8831    1.0467 H   0  0  0  0  0  0  0  0  0  0  0  0
   -0.3048   -0.9579    3.6767 H   0  0  0  0  0  0  0  0  0  0  0  0
   -2.1315   -0.8755    3.4384 H   0  0  0  0  0  0  0  0  0  0  0  0
  1  2  1  0
  1  6  1  0
  1  7  1  0
  1  8  1  0
  2  3  1  0
  2  5  1  0
  2 20  1  0
  3  4  3  0
  4  9  1  0
  5 10  1  0
 11 12  2  3
 11 17  1  0
 11 18  1  0
 12 13  1  0
 12 19  1  0
 13 14  1  0
 13 15  1  0
 14 21  1  0
 14 22  1  0
 14 23  1  0
 15 16  2  3
 15 24  1  0
 16 25  1  0
 16 26  1  0
M  RAD  1  13   2
M  END
>  <reaction>  (15) 
rxn_1205

>  <mol_properties>  (15) 
{"1": {"label": "*3", "atom_type": "Cs"}, "4": {"label": "*4", "atom_type": "S2s"}, "11": {"label": "*0", "atom_type": "Cd"}, "12": {"label": "*1", "atom_type": "Cs"}, "19": {"label": "*2", "atom_type": "H0"}}

>  <type>  (15) 
unop_11

>  <geom_source>  (15) 
Heuristics

$$$$

     RDKit          3D

 26 24  0  0  0  0  0  0  0  0999 V2000
    0.1215    0.4224   -2.3079 C   0  0  0  0  0  0  0  0  0  0  0  0
    0.0950    0.9008   -0.8570 C   0  0  0  0  0  0  0  0  0  0  0  0
   -1.0691    1.7321   -0.5793 C   0  0  0  0  0  0  0  0  0  0  0  0
   -2.0321    2.4171   -0.3864 C   0  0  0  0  0  0  0  0  0  0  0  0
    1.6475    1.7378   -0.3618 S   0  0  0  0  0  0  0  0  0  0  0  0
    0.1874    1.2723   -2.9879 H   0  0  0  0  0  0  0  0  0  0  0  0
    0.9824   -0.2242   -2.4731 H   0  0  0  0  0  0  0  0  0  0  0  0
   -0.7914   -0.1295   -2.5379 H   0  0  0  0  0  0  0  0  0  0  0  0
   -2.8874    3.0255   -0.2152 H   0  0  0  0  0  0  0  0  0  0  0  0
    1.4962    2.8009   -1.1632 H   0  0  0  0  0  0  0  0  0  0  0  0
    0.0219   -2.4154   -1.4545 C   0  0  0  0  0  0  0  0  0  0  0  0
    0.0219   -2.4154   -0.1312 C   0  0  0  0  0  0  0  0  0  0  0  0
    0.0219   -1.1846    0.7382 C   0  0  0  0  0  3  0  0  0  0  0  0
    1.2603   -1.1548    1.6298 C   0  0  0  0  0  0  0  0  0  0  0  0
   -1.2816   -1.1160    1.4947 C   0  0  0  0  0  0  0  0  0  0  0  0
   -1.4362   -1.1158    2.8096 C   0  0  0  0  0  0  0  0  0  0  0  0
    0.0212   -3.3380   -2.0212 H   0  0  0  0  0  0  0  0  0  0  0  0
    0.0237   -1.4896   -2.0202 H   0  0  0  0  0  0  0  0  0  0  0  0
    0.0172   -3.3612    0.4064 H   0  0  0  0  0  0  0  0  0  0  0  0
    0.0585   -0.1403   -0.0606 H   0  0  0  0  0  0  0  0  0  0  0  0
    2.1631   -1.1632    1.0185 H   0  0  0  0  0  0  0  0  0  0  0  0
    1.2750   -0.2591    2.2529 H   0  0  0  0  0  0  0  0  0  0  0  0
    1.2929   -2.0266    2.2874 H   0  0  0  0  0  0  0  0  0  0  0  0
   -2.1648   -1.0803    0.8622 H   0  0  0  0  0  0  0  0  0  0  0  0
   -0.5959   -1.1551    3.4922 H   0  0  0  0  0  0  0  0  0  0  0  0
   -2.4226   -1.0727    3.2538 H   0  0  0  0  0  0  0  0  0  0  0  0
  1  2  1  0
  1  6  1  0
  1  7  1  0
  1  8  1  0
  2  3  1  0
  2  5  1  0
  2 20  1  0
  3  4  3  0
  4  9  1  0
  5 10  1  0
 11 12  2  3
 11 17  1  0
 11 18  1  0
 12 13  1  0
 12 19  1  0
 13 14  1  0
 13 15  1  0
 14 21  1  0
 14 22  1  0
 14 23  1  0
 15 16  2  3
 15 24  1  0
 16 25  1  0
 16 26  1  0
M  RAD  1  13   2
M  END
>  <reaction>  (16) 
rxn_1205

>  <mol_properties>  (16) 
{"1": {"label": "*3", "atom_type": "Cs"}, "4": {"label": "*4", "atom_type": "S2s"}, "11": {"label": "*0", "atom_type": "Cd"}, "12": {"label": "*1", "atom_type": "Cs"}, "19": {"label": "*2", "atom_type": "H0"}}

>  <type>  (16) 
unop_12

>  <geom_source>  (16) 
Heuristics

$$$$

     RDKit          3D

 26 24  0  0  0  0  0  0  0  0999 V2000
    1.2851    0.6722    2.3365 S   0  0  0  0  0  0  0  0  0  0  0  0
    1.5128    0.1557    0.6065 C   0  0  0  0  0  0  0  0  0  0  0  0
    2.0094    1.3267   -0.2361 C   0  0  0  0  0  0  0  0  0  0  0  0
   -1.3407   -1.4202    0.8512 C   0  0  0  0  0  0  0  0  0  0  0  0
   -0.9955   -0.1448    0.0834 C   0  0  0  0  0  3  0  0  0  0  0  0
   -2.1828    0.7644   -0.0489 C   0  0  0  0  0  0  0  0  0  0  0  0
   -0.3563   -0.4258   -1.2516 C   0  0  0  0  0  0  0  0  0  0  0  0
   -2.1350    2.0126    0.4172 C   0  0  0  0  0  0  0  0  0  0  0  0
   -0.9917   -1.0731   -2.2350 C   0  0  0  0  0  0  0  0  0  0  0  0
    2.4752   -0.9507    0.5586 C   0  0  0  0  0  0  0  0  0  0  0  0
    3.2652   -1.8607    0.5181 C   0  0  0  0  0  0  0  0  0  0  0  0
    0.3483   -0.2686    0.1241 H   0  0  0  0  0  0  0  0  0  0  0  0
    2.1428    1.0074   -1.2919 H   0  0  0  0  0  0  0  0  0  0  0  0
    1.2641    2.1494   -0.2145 H   0  0  0  0  0  0  0  0  0  0  0  0
    2.9782    1.7081    0.1533 H   0  0  0  0  0  0  0  0  0  0  0  0
   -2.1300   -1.9992    0.3258 H   0  0  0  0  0  0  0  0  0  0  0  0
   -0.4346   -2.0534    0.9574 H   0  0  0  0  0  0  0  0  0  0  0  0
   -1.7034   -1.1580    1.8675 H   0  0  0  0  0  0  0  0  0  0  0  0
   -3.0849    0.4085   -0.5385 H   0  0  0  0  0  0  0  0  0  0  0  0
    0.6579   -0.0774   -1.4177 H   0  0  0  0  0  0  0  0  0  0  0  0
   -2.9957    2.6651    0.3121 H   0  0  0  0  0  0  0  0  0  0  0  0
   -1.2418    2.3917    0.9049 H   0  0  0  0  0  0  0  0  0  0  0  0
   -0.4902   -1.2481   -3.1812 H   0  0  0  0  0  0  0  0  0  0  0  0
   -2.0095   -1.4282   -2.1076 H   0  0  0  0  0  0  0  0  0  0  0  0
    0.1944    1.5057    2.0236 H   0  0  0  0  0  0  0  0  0  0  0  0
    3.9587   -2.6593    0.4827 H   0  0  0  0  0  0  0  0  0  0  0  0
  1  2  1  0
  1 25  1  0
  2  3  1  0
  2 10  1  0
  2 12  1  0
  3 13  1  0
  3 14  1  0
  3 15  1  0
  4  5  1  0
  4 16  1  0
  4 17  1  0
  4 18  1  0
  5  6  1  0
  5  7  1  0
  6  8  2  3
  6 19  1  0
  7  9  2  3
  7 20  1  0
  8 21  1  0
  8 22  1  0
  9 23  1  0
  9 24  1  0
 10 11  3  0
 11 26  1  0
M  RAD  1   5   2
M  END
>  <reaction>  (17) 
rxn_1205

>  <mol_properties>  (17) 
{"1": {"label": "*3", "atom_type": "Cs"}, "4": {"label": "*4", "atom_type": "S2s"}, "11": {"label": "*0", "atom_type": "Cd"}, "12": {"label": "*1", "atom_type": "Cs"}, "19": {"label": "*2", "atom_type": "H0"}}

>  <type>  (17) 
unop_13

>  <geom_source>  (17) 
AutoTST

$$$$
