
     RDKit          3D

  5  4  0  0  0  0  0  0  0  0999 V2000
   -1.2625    0.9482    0.0857 O   0  0  0  0  0  0  0  0  0  0  0  0
   -0.5905    0.0369   -0.2890 C   0  0  0  0  0  0  0  0  0  0  0  0
    0.8561   -0.0368   -0.0218 C   0  0  0  0  0  0  0  0  0  0  0  0
    1.9840   -0.1310    0.1657 N   0  0  0  0  0  0  0  0  0  0  0  0
   -0.9871   -0.8172   -0.8597 H   0  0  0  0  0  0  0  0  0  0  0  0
  1  2  2  0
  2  3  1  0
  2  5  1  0
  3  4  3  0
M  END
>  <reaction>  (1) 
rxn_3156

>  <mol_properties>  (1) 
{"1": {"label": "donator", "atom_type": "CO"}, "4": {"label": "d_hydrogen", "atom_type": "H0"}}

>  <type>  (1) 
r1h

$$$$

     RDKit          3D

  6  6  0  0  0  0  0  0  0  0999 V2000
    1.9594    0.0134   -0.3734 N   0  0  0  0  0  2  0  0  0  0  0  0
    0.7437    0.0051   -0.0788 C   0  0  0  0  0  0  0  0  0  0  0  0
   -0.0745    1.0868    0.0233 O   0  0  0  0  0  0  0  0  0  0  0  0
   -1.3223    0.5972    0.3682 N   0  0  0  0  0  0  0  0  0  0  0  0
   -1.2899   -0.6150    0.4676 N   0  0  0  0  0  0  0  0  0  0  0  0
   -0.0165   -1.0874    0.2015 O   0  0  0  0  0  0  0  0  0  0  0  0
  1  2  2  0
  2  3  1  0
  2  6  1  0
  3  4  1  0
  4  5  2  0
  5  6  1  0
M  RAD  1   1   2
M  END
>  <reaction>  (2) 
rxn_3156

>  <mol_properties>  (2) 
{"0": {"label": "acceptor", "atom_type": "N3d"}}

>  <type>  (2) 
r2

$$$$

     RDKit          3D

  7  7  0  0  0  0  0  0  0  0999 V2000
    1.6064   -0.4313    0.1905 N   0  0  0  0  0  0  0  0  0  0  0  0
    0.3982   -0.1725    0.0701 C   0  0  0  0  0  0  0  0  0  0  0  0
   -0.6051   -1.0481    0.3497 O   0  0  0  0  0  0  0  0  0  0  0  0
   -1.7906   -0.4044    0.0958 N   0  0  0  0  0  0  0  0  0  0  0  0
   -1.5819    0.7348   -0.2956 N   0  0  0  0  0  0  0  0  0  0  0  0
   -0.2229    0.9708   -0.3436 O   0  0  0  0  0  0  0  0  0  0  0  0
    2.1958    0.3506   -0.0669 H   0  0  0  0  0  0  0  0  0  0  0  0
  1  2  2  3
  1  7  1  0
  2  3  1  0
  2  6  1  0
  3  4  1  0
  4  5  2  0
  5  6  1  0
M  END
>  <reaction>  (3) 
rxn_3156

>  <mol_properties>  (3) 
{"0": {"label": "acceptor", "atom_type": "N3d"}, "6": {"label": "a_hydrogen", "atom_type": "H0"}}

>  <type>  (3) 
r2h

$$$$

     RDKit          3D

 11 10  0  0  0  0  0  0  0  0999 V2000
   -1.2033   -0.2324    0.9091 N   0  0  0  0  0  2  0  0  0  0  0  0
   -0.3842   -1.0454    0.4269 C   0  0  0  0  0  0  0  0  0  0  0  0
   -0.3110   -2.3649    0.7458 O   0  0  0  0  0  0  0  0  0  0  0  0
    0.7203   -2.8989    0.0006 N   0  0  0  0  0  0  0  0  0  0  0  0
    1.2319   -2.0402   -0.6962 N   0  0  0  0  0  0  0  0  0  0  0  0
    0.5951   -0.8273   -0.4949 O   0  0  0  0  0  0  0  0  0  0  0  0
   -1.2931    2.5041   -1.1354 O   0  0  0  0  0  0  0  0  0  0  0  0
   -0.6362    2.0455   -0.2664 C   0  0  0  0  0  0  0  0  0  0  0  0
    0.6238    2.5988    0.2268 C   0  0  0  0  0  0  0  0  0  0  0  0
    1.6199    2.9406    0.6836 N   0  0  0  0  0  0  0  0  0  0  0  0
   -0.9632    1.0007    0.3351 H   0  0  0  0  0  0  0  0  0  0  0  0
  1  2  2  0
  2  3  1  0
  2  6  1  0
  3  4  1  0
  4  5  2  0
  5  6  1  0
  7  8  2  0
  8  9  1  0
  8 11  1  0
  9 10  3  0
M  RAD  1   1   2
M  END
>  <reaction>  (4) 
rxn_3156

>  <mol_properties>  (4) 
{"0": {"label": "*3", "atom_type": "N3d"}, "1": {"label": "*4", "atom_type": "Cd"}, "7": {"label": "*1", "atom_type": "CO"}, "8": {"label": "*0", "atom_type": "Ct"}, "10": {"label": "*2", "atom_type": "H0"}}

>  <type>  (4) 
ts

$$$$

     RDKit          3D

 11 10  0  0  0  0  0  0  0  0999 V2000
   -0.9755   -1.0533   -0.2961 N   0  0  0  0  0  0  0  0  0  0  0  0
    0.0187   -1.1303    0.4435 C   0  0  0  0  0  0  0  0  0  0  0  0
   -0.0215   -1.5335    1.7425 O   0  0  0  0  0  0  0  0  0  0  0  0
    1.2633   -1.4879    2.2235 N   0  0  0  0  0  0  0  0  0  0  0  0
    2.0314   -1.1062    1.3524 N   0  0  0  0  0  0  0  0  0  0  0  0
    1.3316   -0.8556    0.1894 O   0  0  0  0  0  0  0  0  0  0  0  0
   -0.9755    1.0607   -2.8901 O   0  0  0  0  0  0  0  0  0  0  0  0
   -0.9755    1.0607   -1.6974 C   0  0  0  0  0  0  0  0  0  0  0  0
   -0.9755    2.3055   -0.9099 C   0  0  0  0  0  0  0  0  0  0  0  0
   -0.9755    3.2517   -0.2613 N   0  0  0  0  0  2  0  0  0  0  0  0
   -0.9755   -0.0406   -0.9674 H   0  0  0  0  0  0  0  0  0  0  0  0
  1  2  2  3
  1 11  1  0
  2  3  1  0
  2  6  1  0
  3  4  1  0
  4  5  2  0
  5  6  1  0
  7  8  2  0
  8  9  2  0
  9 10  2  0
M  RAD  1  10   2
M  END
>  <reaction>  (5) 
rxn_3156

>  <mol_properties>  (5) 
{"0": {"label": "*3", "atom_type": "N3d"}, "1": {"label": "*4", "atom_type": "Cd"}, "7": {"label": "*1", "atom_type": "CO"}, "8": {"label": "*0", "atom_type": "Ct"}, "10": {"label": "*2", "atom_type": "H0"}}

>  <type>  (5) 
unop_1

>  <geom_source>  (5) 
Heuristics

$$$$

     RDKit          3D

 11 10  0  0  0  0  0  0  0  0999 V2000
   -0.5770   -0.1824    1.0065 N   0  0  0  0  0  0  0  0  0  0  0  0
   -0.0031   -1.1258    0.4391 C   0  0  0  0  0  0  0  0  0  0  0  0
    0.4657   -2.2328    1.0764 O   0  0  0  0  0  0  0  0  0  0  0  0
    1.0317   -3.0428    0.1236 N   0  0  0  0  0  0  0  0  0  0  0  0
    0.9410   -2.5285   -0.9817 N   0  0  0  0  0  0  0  0  0  0  0  0
    0.2992   -1.3108   -0.8793 O   0  0  0  0  0  0  0  0  0  0  0  0
   -0.5770    1.9316   -1.5875 O   0  0  0  0  0  0  0  0  0  0  0  0
   -0.5770    1.9316   -0.3948 C   0  0  0  0  0  0  0  0  0  0  0  0
   -0.5770    3.1764    0.3926 C   0  0  0  0  0  0  0  0  0  0  0  0
   -0.5770    4.1226    1.0413 N   0  0  0  0  0  2  0  0  0  0  0  0
   -0.5770    0.8303    0.3352 H   0  0  0  0  0  0  0  0  0  0  0  0
  1  2  2  3
  1 11  1  0
  2  3  1  0
  2  6  1  0
  3  4  1  0
  4  5  2  0
  5  6  1  0
  7  8  2  0
  8  9  2  0
  9 10  2  0
M  RAD  1  10   2
M  END
>  <reaction>  (6) 
rxn_3156

>  <mol_properties>  (6) 
{"0": {"label": "*3", "atom_type": "N3d"}, "1": {"label": "*4", "atom_type": "Cd"}, "7": {"label": "*1", "atom_type": "CO"}, "8": {"label": "*0", "atom_type": "Ct"}, "10": {"label": "*2", "atom_type": "H0"}}

>  <type>  (6) 
unop_2

>  <geom_source>  (6) 
Heuristics

$$$$

     RDKit          3D

 11 10  0  0  0  0  0  0  0  0999 V2000
   -0.5541   -1.2745   -0.6359 N   0  0  0  0  0  0  0  0  0  0  0  0
    0.0199   -1.1194    0.4540 C   0  0  0  0  0  0  0  0  0  0  0  0
   -0.3258   -1.7643    1.6012 O   0  0  0  0  0  0  0  0  0  0  0  0
    0.5313   -1.3356    2.5840 N   0  0  0  0  0  0  0  0  0  0  0  0
    1.3247   -0.5224    2.1328 N   0  0  0  0  0  0  0  0  0  0  0  0
    1.0766   -0.3229    0.7899 O   0  0  0  0  0  0  0  0  0  0  0  0
   -0.5541    0.8394   -3.2299 O   0  0  0  0  0  0  0  0  0  0  0  0
   -0.5541    0.8394   -2.0372 C   0  0  0  0  0  0  0  0  0  0  0  0
   -0.5541    2.0842   -1.2497 C   0  0  0  0  0  0  0  0  0  0  0  0
   -0.5541    3.0305   -0.6011 N   0  0  0  0  0  2  0  0  0  0  0  0
   -0.5541   -0.2619   -1.3071 H   0  0  0  0  0  0  0  0  0  0  0  0
  1  2  2  3
  1 11  1  0
  2  3  1  0
  2  6  1  0
  3  4  1  0
  4  5  2  0
  5  6  1  0
  7  8  2  0
  8  9  2  0
  9 10  2  0
M  RAD  1  10   2
M  END
>  <reaction>  (7) 
rxn_3156

>  <mol_properties>  (7) 
{"0": {"label": "*3", "atom_type": "N3d"}, "1": {"label": "*4", "atom_type": "Cd"}, "7": {"label": "*1", "atom_type": "CO"}, "8": {"label": "*0", "atom_type": "Ct"}, "10": {"label": "*2", "atom_type": "H0"}}

>  <type>  (7) 
unop_3

>  <geom_source>  (7) 
Heuristics

$$$$

     RDKit          3D

 11 10  0  0  0  0  0  0  0  0999 V2000
    0.9939   -0.4200    0.6539 N   0  0  0  0  0  0  0  0  0  0  0  0
   -0.0002   -1.1312    0.4367 C   0  0  0  0  0  0  0  0  0  0  0  0
   -0.6140   -1.8990    1.3777 O   0  0  0  0  0  0  0  0  0  0  0  0
   -1.6651   -2.5336    0.7639 N   0  0  0  0  0  0  0  0  0  0  0  0
   -1.7233   -2.2184   -0.4158 N   0  0  0  0  0  0  0  0  0  0  0  0
   -0.7075   -1.3327   -0.7135 O   0  0  0  0  0  0  0  0  0  0  0  0
    0.9939    1.6940   -1.9401 O   0  0  0  0  0  0  0  0  0  0  0  0
    0.9939    1.6940   -0.7474 C   0  0  0  0  0  0  0  0  0  0  0  0
    0.9939    2.9388    0.0401 C   0  0  0  0  0  0  0  0  0  0  0  0
    0.9939    3.8850    0.6887 N   0  0  0  0  0  2  0  0  0  0  0  0
    0.9939    0.5927   -0.0174 H   0  0  0  0  0  0  0  0  0  0  0  0
  1  2  2  3
  1 11  1  0
  2  3  1  0
  2  6  1  0
  3  4  1  0
  4  5  2  0
  5  6  1  0
  7  8  2  0
  8  9  2  0
  9 10  2  0
M  RAD  1  10   2
M  END
>  <reaction>  (8) 
rxn_3156

>  <mol_properties>  (8) 
{"0": {"label": "*3", "atom_type": "N3d"}, "1": {"label": "*4", "atom_type": "Cd"}, "7": {"label": "*1", "atom_type": "CO"}, "8": {"label": "*0", "atom_type": "Ct"}, "10": {"label": "*2", "atom_type": "H0"}}

>  <type>  (8) 
unop_4

>  <geom_source>  (8) 
Heuristics

$$$$

     RDKit          3D

 11 10  0  0  0  0  0  0  0  0999 V2000
   -0.0000   -1.3493   -0.7568 N   0  0  0  0  0  0  0  0  0  0  0  0
   -0.0000   -1.1092    0.4612 C   0  0  0  0  0  0  0  0  0  0  0  0
    0.0000   -2.0638    1.4309 O   0  0  0  0  0  0  0  0  0  0  0  0
   -0.0000   -1.4158    2.6410 N   0  0  0  0  0  0  0  0  0  0  0  0
    0.0000   -0.2045    2.4760 N   0  0  0  0  0  0  0  0  0  0  0  0
   -0.0000    0.0832    1.1261 O   0  0  0  0  0  0  0  0  0  0  0  0
    0.0000    0.7647   -3.3508 O   0  0  0  0  0  0  0  0  0  0  0  0
    0.0000    0.7647   -2.1581 C   0  0  0  0  0  0  0  0  0  0  0  0
    0.0000    2.0095   -1.3706 C   0  0  0  0  0  0  0  0  0  0  0  0
   -0.0000    2.9557   -0.7220 N   0  0  0  0  0  2  0  0  0  0  0  0
   -0.0000   -0.3366   -1.4281 H   0  0  0  0  0  0  0  0  0  0  0  0
  1  2  2  3
  1 11  1  0
  2  3  1  0
  2  6  1  0
  3  4  1  0
  4  5  2  0
  5  6  1  0
  7  8  2  0
  8  9  2  0
  9 10  2  0
M  RAD  1  10   2
M  END
>  <reaction>  (9) 
rxn_3156

>  <mol_properties>  (9) 
{"0": {"label": "*3", "atom_type": "N3d"}, "1": {"label": "*4", "atom_type": "Cd"}, "7": {"label": "*1", "atom_type": "CO"}, "8": {"label": "*0", "atom_type": "Ct"}, "10": {"label": "*2", "atom_type": "H0"}}

>  <type>  (9) 
unop_5

>  <geom_source>  (9) 
Heuristics

$$$$

     RDKit          3D

 11 10  0  0  0  0  0  0  0  0999 V2000
    1.1386   -0.7397    0.1762 N   0  0  0  0  0  0  0  0  0  0  0  0
   -0.0093   -1.1338    0.4375 C   0  0  0  0  0  0  0  0  0  0  0  0
   -0.3984   -1.6113    1.6508 O   0  0  0  0  0  0  0  0  0  0  0  0
   -1.7264   -1.9444    1.5510 N   0  0  0  0  0  0  0  0  0  0  0  0
   -2.1404   -1.7132    0.4243 N   0  0  0  0  0  0  0  0  0  0  0  0
   -1.1219   -1.1972   -0.3511 O   0  0  0  0  0  0  0  0  0  0  0  0
    1.1386    1.3743   -2.4177 O   0  0  0  0  0  0  0  0  0  0  0  0
    1.1386    1.3743   -1.2250 C   0  0  0  0  0  0  0  0  0  0  0  0
    1.1386    2.6191   -0.4376 C   0  0  0  0  0  0  0  0  0  0  0  0
    1.1386    3.5653    0.2110 N   0  0  0  0  0  2  0  0  0  0  0  0
    1.1386    0.2730   -0.4950 H   0  0  0  0  0  0  0  0  0  0  0  0
  1  2  2  3
  1 11  1  0
  2  3  1  0
  2  6  1  0
  3  4  1  0
  4  5  2  0
  5  6  1  0
  7  8  2  0
  8  9  2  0
  9 10  2  0
M  RAD  1  10   2
M  END
>  <reaction>  (10) 
rxn_3156

>  <mol_properties>  (10) 
{"0": {"label": "*3", "atom_type": "N3d"}, "1": {"label": "*4", "atom_type": "Cd"}, "7": {"label": "*1", "atom_type": "CO"}, "8": {"label": "*0", "atom_type": "Ct"}, "10": {"label": "*2", "atom_type": "H0"}}

>  <type>  (10) 
unop_6

>  <geom_source>  (10) 
Heuristics

$$$$

     RDKit          3D

 11 10  0  0  0  0  0  0  0  0999 V2000
    0.9755   -1.0533   -0.2961 N   0  0  0  0  0  0  0  0  0  0  0  0
   -0.0187   -1.1303    0.4435 C   0  0  0  0  0  0  0  0  0  0  0  0
    0.0215   -1.5335    1.7425 O   0  0  0  0  0  0  0  0  0  0  0  0
   -1.2633   -1.4879    2.2235 N   0  0  0  0  0  0  0  0  0  0  0  0
   -2.0314   -1.1062    1.3524 N   0  0  0  0  0  0  0  0  0  0  0  0
   -1.3316   -0.8556    0.1894 O   0  0  0  0  0  0  0  0  0  0  0  0
    0.9755    1.0607   -2.8901 O   0  0  0  0  0  0  0  0  0  0  0  0
    0.9755    1.0607   -1.6974 C   0  0  0  0  0  0  0  0  0  0  0  0
    0.9755    2.3055   -0.9099 C   0  0  0  0  0  0  0  0  0  0  0  0
    0.9755    3.2517   -0.2613 N   0  0  0  0  0  2  0  0  0  0  0  0
    0.9755   -0.0406   -0.9674 H   0  0  0  0  0  0  0  0  0  0  0  0
  1  2  2  3
  1 11  1  0
  2  3  1  0
  2  6  1  0
  3  4  1  0
  4  5  2  0
  5  6  1  0
  7  8  2  0
  8  9  2  0
  9 10  2  0
M  RAD  1  10   2
M  END
>  <reaction>  (11) 
rxn_3156

>  <mol_properties>  (11) 
{"0": {"label": "*3", "atom_type": "N3d"}, "1": {"label": "*4", "atom_type": "Cd"}, "7": {"label": "*1", "atom_type": "CO"}, "8": {"label": "*0", "atom_type": "Ct"}, "10": {"label": "*2", "atom_type": "H0"}}

>  <type>  (11) 
unop_7

>  <geom_source>  (11) 
Heuristics

$$$$

     RDKit          3D

 11 10  0  0  0  0  0  0  0  0999 V2000
   -1.1386   -0.7397    0.1762 N   0  0  0  0  0  0  0  0  0  0  0  0
    0.0093   -1.1338    0.4375 C   0  0  0  0  0  0  0  0  0  0  0  0
    0.3984   -1.6113    1.6508 O   0  0  0  0  0  0  0  0  0  0  0  0
    1.7264   -1.9444    1.5510 N   0  0  0  0  0  0  0  0  0  0  0  0
    2.1404   -1.7132    0.4243 N   0  0  0  0  0  0  0  0  0  0  0  0
    1.1219   -1.1972   -0.3511 O   0  0  0  0  0  0  0  0  0  0  0  0
   -1.1386    1.3743   -2.4177 O   0  0  0  0  0  0  0  0  0  0  0  0
   -1.1386    1.3743   -1.2250 C   0  0  0  0  0  0  0  0  0  0  0  0
   -1.1386    2.6191   -0.4376 C   0  0  0  0  0  0  0  0  0  0  0  0
   -1.1386    3.5653    0.2110 N   0  0  0  0  0  2  0  0  0  0  0  0
   -1.1386    0.2730   -0.4950 H   0  0  0  0  0  0  0  0  0  0  0  0
  1  2  2  3
  1 11  1  0
  2  3  1  0
  2  6  1  0
  3  4  1  0
  4  5  2  0
  5  6  1  0
  7  8  2  0
  8  9  2  0
  9 10  2  0
M  RAD  1  10   2
M  END
>  <reaction>  (12) 
rxn_3156

>  <mol_properties>  (12) 
{"0": {"label": "*3", "atom_type": "N3d"}, "1": {"label": "*4", "atom_type": "Cd"}, "7": {"label": "*1", "atom_type": "CO"}, "8": {"label": "*0", "atom_type": "Ct"}, "10": {"label": "*2", "atom_type": "H0"}}

>  <type>  (12) 
unop_8

>  <geom_source>  (12) 
Heuristics

$$$$

     RDKit          3D

 11 10  0  0  0  0  0  0  0  0999 V2000
    0.5770   -0.1824    1.0065 N   0  0  0  0  0  0  0  0  0  0  0  0
    0.0031   -1.1258    0.4391 C   0  0  0  0  0  0  0  0  0  0  0  0
   -0.4657   -2.2328    1.0764 O   0  0  0  0  0  0  0  0  0  0  0  0
   -1.0317   -3.0428    0.1236 N   0  0  0  0  0  0  0  0  0  0  0  0
   -0.9410   -2.5285   -0.9817 N   0  0  0  0  0  0  0  0  0  0  0  0
   -0.2992   -1.3108   -0.8793 O   0  0  0  0  0  0  0  0  0  0  0  0
    0.5770    1.9316   -1.5875 O   0  0  0  0  0  0  0  0  0  0  0  0
    0.5770    1.9316   -0.3948 C   0  0  0  0  0  0  0  0  0  0  0  0
    0.5770    3.1764    0.3926 C   0  0  0  0  0  0  0  0  0  0  0  0
    0.5770    4.1226    1.0413 N   0  0  0  0  0  2  0  0  0  0  0  0
    0.5770    0.8303    0.3352 H   0  0  0  0  0  0  0  0  0  0  0  0
  1  2  2  3
  1 11  1  0
  2  3  1  0
  2  6  1  0
  3  4  1  0
  4  5  2  0
  5  6  1  0
  7  8  2  0
  8  9  2  0
  9 10  2  0
M  RAD  1  10   2
M  END
>  <reaction>  (13) 
rxn_3156

>  <mol_properties>  (13) 
{"0": {"label": "*3", "atom_type": "N3d"}, "1": {"label": "*4", "atom_type": "Cd"}, "7": {"label": "*1", "atom_type": "CO"}, "8": {"label": "*0", "atom_type": "Ct"}, "10": {"label": "*2", "atom_type": "H0"}}

>  <type>  (13) 
unop_9

>  <geom_source>  (13) 
Heuristics

$$$$

     RDKit          3D

 11 10  0  0  0  0  0  0  0  0999 V2000
   -0.9939   -0.4200    0.6539 N   0  0  0  0  0  0  0  0  0  0  0  0
    0.0002   -1.1312    0.4367 C   0  0  0  0  0  0  0  0  0  0  0  0
    0.6140   -1.8990    1.3777 O   0  0  0  0  0  0  0  0  0  0  0  0
    1.6651   -2.5336    0.7639 N   0  0  0  0  0  0  0  0  0  0  0  0
    1.7233   -2.2184   -0.4158 N   0  0  0  0  0  0  0  0  0  0  0  0
    0.7075   -1.3327   -0.7135 O   0  0  0  0  0  0  0  0  0  0  0  0
   -0.9939    1.6940   -1.9401 O   0  0  0  0  0  0  0  0  0  0  0  0
   -0.9939    1.6940   -0.7474 C   0  0  0  0  0  0  0  0  0  0  0  0
   -0.9939    2.9388    0.0401 C   0  0  0  0  0  0  0  0  0  0  0  0
   -0.9939    3.8850    0.6887 N   0  0  0  0  0  2  0  0  0  0  0  0
   -0.9939    0.5927   -0.0174 H   0  0  0  0  0  0  0  0  0  0  0  0
  1  2  2  3
  1 11  1  0
  2  3  1  0
  2  6  1  0
  3  4  1  0
  4  5  2  0
  5  6  1  0
  7  8  2  0
  8  9  2  0
  9 10  2  0
M  RAD  1  10   2
M  END
>  <reaction>  (14) 
rxn_3156

>  <mol_properties>  (14) 
{"0": {"label": "*3", "atom_type": "N3d"}, "1": {"label": "*4", "atom_type": "Cd"}, "7": {"label": "*1", "atom_type": "CO"}, "8": {"label": "*0", "atom_type": "Ct"}, "10": {"label": "*2", "atom_type": "H0"}}

>  <type>  (14) 
unop_10

>  <geom_source>  (14) 
Heuristics

$$$$

     RDKit          3D

 11 10  0  0  0  0  0  0  0  0999 V2000
    0.5541   -1.2745   -0.6359 N   0  0  0  0  0  0  0  0  0  0  0  0
   -0.0199   -1.1194    0.4540 C   0  0  0  0  0  0  0  0  0  0  0  0
    0.3258   -1.7643    1.6012 O   0  0  0  0  0  0  0  0  0  0  0  0
   -0.5313   -1.3356    2.5840 N   0  0  0  0  0  0  0  0  0  0  0  0
   -1.3247   -0.5224    2.1328 N   0  0  0  0  0  0  0  0  0  0  0  0
   -1.0766   -0.3229    0.7899 O   0  0  0  0  0  0  0  0  0  0  0  0
    0.5541    0.8394   -3.2299 O   0  0  0  0  0  0  0  0  0  0  0  0
    0.5541    0.8394   -2.0372 C   0  0  0  0  0  0  0  0  0  0  0  0
    0.5541    2.0842   -1.2497 C   0  0  0  0  0  0  0  0  0  0  0  0
    0.5541    3.0305   -0.6011 N   0  0  0  0  0  2  0  0  0  0  0  0
    0.5541   -0.2619   -1.3071 H   0  0  0  0  0  0  0  0  0  0  0  0
  1  2  2  3
  1 11  1  0
  2  3  1  0
  2  6  1  0
  3  4  1  0
  4  5  2  0
  5  6  1  0
  7  8  2  0
  8  9  2  0
  9 10  2  0
M  RAD  1  10   2
M  END
>  <reaction>  (15) 
rxn_3156

>  <mol_properties>  (15) 
{"0": {"label": "*3", "atom_type": "N3d"}, "1": {"label": "*4", "atom_type": "Cd"}, "7": {"label": "*1", "atom_type": "CO"}, "8": {"label": "*0", "atom_type": "Ct"}, "10": {"label": "*2", "atom_type": "H0"}}

>  <type>  (15) 
unop_11

>  <geom_source>  (15) 
Heuristics

$$$$

     RDKit          3D

 11 10  0  0  0  0  0  0  0  0999 V2000
    0.0000   -0.0944    1.1362 N   0  0  0  0  0  0  0  0  0  0  0  0
   -0.0000   -1.1228    0.4407 C   0  0  0  0  0  0  0  0  0  0  0  0
   -0.0000   -2.3877    0.9423 O   0  0  0  0  0  0  0  0  0  0  0  0
   -0.0000   -3.2499   -0.1259 N   0  0  0  0  0  0  0  0  0  0  0  0
   -0.0000   -2.6261   -1.1772 N   0  0  0  0  0  0  0  0  0  0  0  0
   -0.0000   -1.2708   -0.9165 O   0  0  0  0  0  0  0  0  0  0  0  0
    0.0000    2.0195   -1.4578 O   0  0  0  0  0  0  0  0  0  0  0  0
    0.0000    2.0195   -0.2651 C   0  0  0  0  0  0  0  0  0  0  0  0
    0.0000    3.2643    0.5224 C   0  0  0  0  0  0  0  0  0  0  0  0
    0.0000    4.2106    1.1710 N   0  0  0  0  0  2  0  0  0  0  0  0
    0.0000    0.9182    0.4650 H   0  0  0  0  0  0  0  0  0  0  0  0
  1  2  2  3
  1 11  1  0
  2  3  1  0
  2  6  1  0
  3  4  1  0
  4  5  2  0
  5  6  1  0
  7  8  2  0
  8  9  2  0
  9 10  2  0
M  RAD  1  10   2
M  END
>  <reaction>  (16) 
rxn_3156

>  <mol_properties>  (16) 
{"0": {"label": "*3", "atom_type": "N3d"}, "1": {"label": "*4", "atom_type": "Cd"}, "7": {"label": "*1", "atom_type": "CO"}, "8": {"label": "*0", "atom_type": "Ct"}, "10": {"label": "*2", "atom_type": "H0"}}

>  <type>  (16) 
unop_12

>  <geom_source>  (16) 
Heuristics

$$$$

     RDKit          3D

 11 10  0  0  0  0  0  0  0  0999 V2000
   -0.9939   -0.4200    0.6539 N   0  0  0  0  0  0  0  0  0  0  0  0
    0.0002   -1.1312    0.4367 C   0  0  0  0  0  0  0  0  0  0  0  0
    0.6139   -1.8990    1.3777 O   0  0  0  0  0  0  0  0  0  0  0  0
    1.6651   -2.5336    0.7639 N   0  0  0  0  0  0  0  0  0  0  0  0
    1.7233   -2.2184   -0.4158 N   0  0  0  0  0  0  0  0  0  0  0  0
    0.7075   -1.3327   -0.7135 O   0  0  0  0  0  0  0  0  0  0  0  0
   -0.9939    1.6940   -1.9401 O   0  0  0  0  0  0  0  0  0  0  0  0
   -0.9939    1.6940   -0.7474 C   0  0  0  0  0  0  0  0  0  0  0  0
   -0.9939    2.9388    0.0401 C   0  0  0  0  0  0  0  0  0  0  0  0
   -0.9939    3.8850    0.6887 N   0  0  0  0  0  2  0  0  0  0  0  0
   -0.9939    0.5927   -0.0174 H   0  0  0  0  0  0  0  0  0  0  0  0
  1  2  2  3
  1 11  1  0
  2  3  1  0
  2  6  1  0
  3  4  1  0
  4  5  2  0
  5  6  1  0
  7  8  2  0
  8  9  2  0
  9 10  2  0
M  RAD  1  10   2
M  END
>  <reaction>  (17) 
rxn_3156

>  <mol_properties>  (17) 
{"0": {"label": "*3", "atom_type": "N3d"}, "1": {"label": "*4", "atom_type": "Cd"}, "7": {"label": "*1", "atom_type": "CO"}, "8": {"label": "*0", "atom_type": "Ct"}, "10": {"label": "*2", "atom_type": "H0"}}

>  <type>  (17) 
unop_13

>  <geom_source>  (17) 
gaussian_log

$$$$
