
     RDKit          3D

 12 11  0  0  0  0  0  0  0  0999 V2000
    1.2394   -0.3763   -0.3020 C   0  0  0  0  0  0  0  0  0  0  0  0
    0.1007    0.3023    0.4464 C   0  0  0  0  0  0  0  0  0  0  0  0
   -0.1187    2.0399   -0.0725 S   0  0  0  0  0  0  0  0  0  0  0  0
   -1.1974   -0.4877    0.3552 C   0  0  0  0  0  0  0  0  0  0  0  0
    2.1681    0.1849   -0.2048 H   0  0  0  0  0  0  0  0  0  0  0  0
    1.0031   -0.4606   -1.3656 H   0  0  0  0  0  0  0  0  0  0  0  0
    1.3994   -1.3856    0.0860 H   0  0  0  0  0  0  0  0  0  0  0  0
    0.3796    0.4050    1.4981 H   0  0  0  0  0  0  0  0  0  0  0  0
   -0.4500    1.7779   -1.3452 H   0  0  0  0  0  0  0  0  0  0  0  0
   -1.0545   -1.4978    0.7479 H   0  0  0  0  0  0  0  0  0  0  0  0
   -1.5206   -0.5759   -0.6849 H   0  0  0  0  0  0  0  0  0  0  0  0
   -1.9957   -0.0054    0.9183 H   0  0  0  0  0  0  0  0  0  0  0  0
  1  2  1  0
  1  5  1  0
  1  6  1  0
  1  7  1  0
  2  4  1  0
  2  3  1  0
  2  8  1  0
  3  9  1  0
  4 10  1  0
  4 11  1  0
  4 12  1  0
M  END
>  <reaction>  (1) 
rxn_1914

>  <mol_properties>  (1) 
{"1": {"label": "donator", "atom_type": "Cs"}, "7": {"label": "d_hydrogen", "atom_type": "H0"}}

>  <type>  (1) 
r1h

$$$$

     RDKit          3D

 14 13  0  0  0  0  0  0  0  0999 V2000
    1.0767   -1.6838    1.2931 C   0  0  0  0  0  0  0  0  0  0  0  0
    1.0020   -0.3665    0.9163 C   0  0  0  0  0  0  0  0  0  0  0  0
    1.3965    0.7260    1.6806 C   0  0  0  0  0  3  0  0  0  0  0  0
    1.2666    2.1197    1.1619 C   0  0  0  0  0  0  0  0  0  0  0  0
    1.9670    0.5479    3.0536 C   0  0  0  0  0  0  0  0  0  0  0  0
    0.7448   -2.4705    0.6300 H   0  0  0  0  0  0  0  0  0  0  0  0
    1.4663   -1.9826    2.2578 H   0  0  0  0  0  0  0  0  0  0  0  0
    0.5980   -0.1511   -0.0695 H   0  0  0  0  0  0  0  0  0  0  0  0
    0.6296    2.7241    1.8172 H   0  0  0  0  0  0  0  0  0  0  0  0
    2.2410    2.6200    1.1341 H   0  0  0  0  0  0  0  0  0  0  0  0
    0.8426    2.1448    0.1579 H   0  0  0  0  0  0  0  0  0  0  0  0
    2.8745   -0.0634    3.0328 H   0  0  0  0  0  0  0  0  0  0  0  0
    1.2599    0.0408    3.7173 H   0  0  0  0  0  0  0  0  0  0  0  0
    2.2205    1.5071    3.5054 H   0  0  0  0  0  0  0  0  0  0  0  0
  1  2  2  3
  1  6  1  0
  1  7  1  0
  2  3  1  0
  2  8  1  0
  3  4  1  0
  3  5  1  0
  4  9  1  0
  4 10  1  0
  4 11  1  0
  5 12  1  0
  5 13  1  0
  5 14  1  0
M  RAD  1   3   2
M  END
>  <reaction>  (2) 
rxn_1914

>  <mol_properties>  (2) 
{"2": {"label": "acceptor", "atom_type": "Cs"}}

>  <type>  (2) 
r2

$$$$

     RDKit          3D

 15 14  0  0  0  0  0  0  0  0999 V2000
    2.1256    0.4849   -0.6284 C   0  0  0  0  0  0  0  0  0  0  0  0
    1.1128    0.2141    0.1794 C   0  0  0  0  0  0  0  0  0  0  0  0
   -0.3017   -0.0425   -0.2513 C   0  0  0  0  0  0  0  0  0  0  0  0
   -1.2427    1.0075    0.3423 C   0  0  0  0  0  0  0  0  0  0  0  0
   -0.7381   -1.4526    0.1504 C   0  0  0  0  0  0  0  0  0  0  0  0
    3.1243    0.6602   -0.2486 H   0  0  0  0  0  0  0  0  0  0  0  0
    1.9908    0.5411   -1.7036 H   0  0  0  0  0  0  0  0  0  0  0  0
    1.2888    0.1665    1.2533 H   0  0  0  0  0  0  0  0  0  0  0  0
   -0.3426    0.0343   -1.3424 H   0  0  0  0  0  0  0  0  0  0  0  0
   -0.9570    2.0133    0.0315 H   0  0  0  0  0  0  0  0  0  0  0  0
   -1.2189    0.9728    1.4350 H   0  0  0  0  0  0  0  0  0  0  0  0
   -2.2723    0.8287    0.0254 H   0  0  0  0  0  0  0  0  0  0  0  0
   -0.6964   -1.5744    1.2363 H   0  0  0  0  0  0  0  0  0  0  0  0
   -0.0911   -2.2079   -0.2978 H   0  0  0  0  0  0  0  0  0  0  0  0
   -1.7646   -1.6461   -0.1677 H   0  0  0  0  0  0  0  0  0  0  0  0
  1  2  2  3
  1  6  1  0
  1  7  1  0
  2  3  1  0
  2  8  1  0
  3  4  1  0
  3  5  1  0
  3  9  1  0
  4 10  1  0
  4 11  1  0
  4 12  1  0
  5 13  1  0
  5 14  1  0
  5 15  1  0
M  END
>  <reaction>  (3) 
rxn_1914

>  <mol_properties>  (3) 
{"0": {"label": "a_hydrogen", "atom_type": "H0"}, "3": {"label": "acceptor", "atom_type": "Cs"}}

>  <type>  (3) 
r2h

$$$$

     RDKit          3D

 26 24  0  0  0  0  0  0  0  0999 V2000
    0.6288    0.6664   -2.4065 C   0  0  0  0  0  0  0  0  0  0  0  0
    0.7875    0.8611   -0.9210 C   0  0  0  0  0  3  0  0  0  0  0  0
    2.2259    0.0105   -0.2979 S   0  0  0  0  0  0  0  0  0  0  0  0
    0.5935    2.2682   -0.4209 C   0  0  0  0  0  0  0  0  0  0  0  0
    0.6682   -0.3896   -2.6777 H   0  0  0  0  0  0  0  0  0  0  0  0
    1.4110    1.1895   -2.9683 H   0  0  0  0  0  0  0  0  0  0  0  0
   -0.3332    1.0685   -2.7312 H   0  0  0  0  0  0  0  0  0  0  0  0
   -0.2941    0.1914   -0.3357 H   0  0  0  0  0  0  0  0  0  0  0  0
    1.9859    0.2329    1.0024 H   0  0  0  0  0  0  0  0  0  0  0  0
   -0.3555    2.6683   -0.7873 H   0  0  0  0  0  0  0  0  0  0  0  0
    1.3967    2.9282   -0.7637 H   0  0  0  0  0  0  0  0  0  0  0  0
    0.5763    2.3005    0.6704 H   0  0  0  0  0  0  0  0  0  0  0  0
   -0.5045   -0.9320    2.5457 C   0  0  0  0  0  0  0  0  0  0  0  0
   -1.1003   -0.1479    1.6445 C   0  0  0  0  0  0  0  0  0  0  0  0
   -1.2924   -0.4321    0.2173 C   0  0  0  0  0  0  0  0  0  0  0  0
   -2.5144    0.2239   -0.3928 C   0  0  0  0  0  0  0  0  0  0  0  0
   -1.0681   -1.8590   -0.2280 C   0  0  0  0  0  0  0  0  0  0  0  0
   -0.3835   -0.6085    3.5714 H   0  0  0  0  0  0  0  0  0  0  0  0
   -0.1317   -1.9177    2.2955 H   0  0  0  0  0  0  0  0  0  0  0  0
   -1.4562    0.8266    1.9733 H   0  0  0  0  0  0  0  0  0  0  0  0
   -2.4775    0.1810   -1.4835 H   0  0  0  0  0  0  0  0  0  0  0  0
   -3.4330   -0.2801   -0.0747 H   0  0  0  0  0  0  0  0  0  0  0  0
   -2.5929    1.2723   -0.0970 H   0  0  0  0  0  0  0  0  0  0  0  0
   -1.7843   -2.5375    0.2469 H   0  0  0  0  0  0  0  0  0  0  0  0
   -0.0617   -2.2016    0.0183 H   0  0  0  0  0  0  0  0  0  0  0  0
   -1.1907   -1.9447   -1.3092 H   0  0  0  0  0  0  0  0  0  0  0  0
  1  2  1  0
  1  5  1  0
  1  6  1  0
  1  7  1  0
  2  4  1  0
  2  3  1  0
  3  9  1  0
  4 10  1  0
  4 11  1  0
  4 12  1  0
  8 15  1  0
 13 14  2  3
 13 18  1  0
 13 19  1  0
 14 15  1  0
 14 20  1  0
 15 16  1  0
 15 17  1  0
 16 21  1  0
 16 22  1  0
 16 23  1  0
 17 24  1  0
 17 25  1  0
 17 26  1  0
M  RAD  1   2   2
M  END
>  <reaction>  (4) 
rxn_1914

>  <mol_properties>  (4) 
{"1": {"label": "*3", "atom_type": "Cs"}, "2": {"label": "*4", "atom_type": "S2s"}, "7": {"label": "*2", "atom_type": "H0"}, "13": {"label": "*0", "atom_type": "Cd"}, "14": {"label": "*1", "atom_type": "Cs"}}

>  <type>  (4) 
ts

$$$$

     RDKit          3D

 26 24  0  0  0  0  0  0  0  0999 V2000
    0.6705    0.8622   -2.1420 C   0  0  0  0  0  0  0  0  0  0  0  0
    0.6705    0.8622   -0.6197 C   0  0  0  0  0  0  0  0  0  0  0  0
    2.0255   -0.1543    0.0640 S   0  0  0  0  0  0  0  0  0  0  0  0
    0.6705    2.2721   -0.0456 C   0  0  0  0  0  0  0  0  0  0  0  0
    0.6419   -0.1521   -2.5387 H   0  0  0  0  0  0  0  0  0  0  0  0
    1.5689    1.3519   -2.5256 H   0  0  0  0  0  0  0  0  0  0  0  0
   -0.1965    1.4096   -2.5208 H   0  0  0  0  0  0  0  0  0  0  0  0
   -0.3974    0.2303   -0.1947 H   0  0  0  0  0  0  0  0  0  0  0  0
    3.0318    0.5812   -0.4307 H   0  0  0  0  0  0  0  0  0  0  0  0
   -0.1965    2.8294   -0.4098 H   0  0  0  0  0  0  0  0  0  0  0  0
    1.5689    2.8121   -0.3545 H   0  0  0  0  0  0  0  0  0  0  0  0
    0.6419    2.2571    1.0433 H   0  0  0  0  0  0  0  0  0  0  0  0
    0.0288   -2.3407    0.7951 C   0  0  0  0  0  0  0  0  0  0  0  0
   -1.0164   -1.5720    1.0564 C   0  0  0  0  0  0  0  0  0  0  0  0
   -1.4668   -0.4025    0.2309 C   0  0  0  0  0  3  0  0  0  0  0  0
   -1.4117    0.8873    1.0518 C   0  0  0  0  0  0  0  0  0  0  0  0
   -2.8766   -0.6404   -0.3134 C   0  0  0  0  0  0  0  0  0  0  0  0
    0.2978   -3.1712    1.4357 H   0  0  0  0  0  0  0  0  0  0  0  0
    0.6554   -2.1656   -0.0732 H   0  0  0  0  0  0  0  0  0  0  0  0
   -1.6209   -1.7804    1.9382 H   0  0  0  0  0  0  0  0  0  0  0  0
   -1.7318    1.7422    0.4525 H   0  0  0  0  0  0  0  0  0  0  0  0
   -2.0741    0.8208    1.9192 H   0  0  0  0  0  0  0  0  0  0  0  0
   -0.4012    1.0806    1.4144 H   0  0  0  0  0  0  0  0  0  0  0  0
   -3.5908   -0.7609    0.5057 H   0  0  0  0  0  0  0  0  0  0  0  0
   -2.9147   -1.5408   -0.9282 H   0  0  0  0  0  0  0  0  0  0  0  0
   -3.2054    0.2054   -0.9209 H   0  0  0  0  0  0  0  0  0  0  0  0
  1  2  1  0
  1  5  1  0
  1  6  1  0
  1  7  1  0
  2  4  1  0
  2  3  1  0
  2  8  1  0
  3  9  1  0
  4 10  1  0
  4 11  1  0
  4 12  1  0
 13 14  2  3
 13 18  1  0
 13 19  1  0
 14 15  1  0
 14 20  1  0
 15 16  1  0
 15 17  1  0
 16 21  1  0
 16 22  1  0
 16 23  1  0
 17 24  1  0
 17 25  1  0
 17 26  1  0
M  RAD  1  15   2
M  END
>  <reaction>  (5) 
rxn_1914

>  <mol_properties>  (5) 
{"1": {"label": "*3", "atom_type": "Cs"}, "2": {"label": "*4", "atom_type": "S2s"}, "7": {"label": "*2", "atom_type": "H0"}, "13": {"label": "*0", "atom_type": "Cd"}, "14": {"label": "*1", "atom_type": "Cs"}}

>  <type>  (5) 
unop_1

>  <geom_source>  (5) 
Heuristics

$$$$

     RDKit          3D

 26 24  0  0  0  0  0  0  0  0999 V2000
    0.7935    0.8698   -1.8434 C   0  0  0  0  0  0  0  0  0  0  0  0
    0.7935    0.8698   -0.3211 C   0  0  0  0  0  0  0  0  0  0  0  0
    2.1485   -0.1466    0.3625 S   0  0  0  0  0  0  0  0  0  0  0  0
    0.7935    2.2798    0.2529 C   0  0  0  0  0  0  0  0  0  0  0  0
    0.7649   -0.1444   -2.2401 H   0  0  0  0  0  0  0  0  0  0  0  0
    1.6919    1.3596   -2.2270 H   0  0  0  0  0  0  0  0  0  0  0  0
   -0.0735    1.4173   -2.2222 H   0  0  0  0  0  0  0  0  0  0  0  0
   -0.2744    0.2380    0.1039 H   0  0  0  0  0  0  0  0  0  0  0  0
    3.1548    0.5889   -0.1321 H   0  0  0  0  0  0  0  0  0  0  0  0
   -0.0735    2.8371   -0.1112 H   0  0  0  0  0  0  0  0  0  0  0  0
    1.6919    2.8197   -0.0560 H   0  0  0  0  0  0  0  0  0  0  0  0
    0.7649    2.2647    1.3419 H   0  0  0  0  0  0  0  0  0  0  0  0
   -1.2866   -1.4595   -1.7454 C   0  0  0  0  0  0  0  0  0  0  0  0
   -1.7030   -1.4365   -0.4894 C   0  0  0  0  0  0  0  0  0  0  0  0
   -1.3438   -0.3948    0.5295 C   0  0  0  0  0  3  0  0  0  0  0  0
   -0.5947   -1.0278    1.7036 C   0  0  0  0  0  0  0  0  0  0  0  0
   -2.5968    0.3363    1.0149 C   0  0  0  0  0  0  0  0  0  0  0  0
   -1.5860   -2.2441   -2.4291 H   0  0  0  0  0  0  0  0  0  0  0  0
   -0.6283   -0.6906   -2.1362 H   0  0  0  0  0  0  0  0  0  0  0  0
   -2.3634   -2.2268   -0.1348 H   0  0  0  0  0  0  0  0  0  0  0  0
   -0.3249   -0.2718    2.4441 H   0  0  0  0  0  0  0  0  0  0  0  0
   -1.2189   -1.7749    2.2014 H   0  0  0  0  0  0  0  0  0  0  0  0
    0.3182   -1.5218    1.3682 H   0  0  0  0  0  0  0  0  0  0  0  0
   -3.2919   -0.3626    1.4883 H   0  0  0  0  0  0  0  0  0  0  0  0
   -3.1172    0.8188    0.1864 H   0  0  0  0  0  0  0  0  0  0  0  0
   -2.3390    1.1004    1.7512 H   0  0  0  0  0  0  0  0  0  0  0  0
  1  2  1  0
  1  5  1  0
  1  6  1  0
  1  7  1  0
  2  4  1  0
  2  3  1  0
  2  8  1  0
  3  9  1  0
  4 10  1  0
  4 11  1  0
  4 12  1  0
 13 14  2  3
 13 18  1  0
 13 19  1  0
 14 15  1  0
 14 20  1  0
 15 16  1  0
 15 17  1  0
 16 21  1  0
 16 22  1  0
 16 23  1  0
 17 24  1  0
 17 25  1  0
 17 26  1  0
M  RAD  1  15   2
M  END
>  <reaction>  (6) 
rxn_1914

>  <mol_properties>  (6) 
{"1": {"label": "*3", "atom_type": "Cs"}, "2": {"label": "*4", "atom_type": "S2s"}, "7": {"label": "*2", "atom_type": "H0"}, "13": {"label": "*0", "atom_type": "Cd"}, "14": {"label": "*1", "atom_type": "Cs"}}

>  <type>  (6) 
unop_2

>  <geom_source>  (6) 
Heuristics

$$$$

     RDKit          3D

 26 24  0  0  0  0  0  0  0  0999 V2000
    0.6995    0.7798   -2.2058 C   0  0  0  0  0  0  0  0  0  0  0  0
    0.6995    0.7798   -0.6834 C   0  0  0  0  0  0  0  0  0  0  0  0
    2.0545   -0.2366    0.0002 S   0  0  0  0  0  0  0  0  0  0  0  0
    0.6995    2.1898   -0.1094 C   0  0  0  0  0  0  0  0  0  0  0  0
    0.6709   -0.2344   -2.6024 H   0  0  0  0  0  0  0  0  0  0  0  0
    1.5979    1.2695   -2.5894 H   0  0  0  0  0  0  0  0  0  0  0  0
   -0.1675    1.3272   -2.5846 H   0  0  0  0  0  0  0  0  0  0  0  0
   -0.3684    0.1479   -0.2585 H   0  0  0  0  0  0  0  0  0  0  0  0
    3.0607    0.4989   -0.4945 H   0  0  0  0  0  0  0  0  0  0  0  0
   -0.1675    2.7470   -0.4736 H   0  0  0  0  0  0  0  0  0  0  0  0
    1.5979    2.7297   -0.4183 H   0  0  0  0  0  0  0  0  0  0  0  0
    0.6709    2.1747    0.9796 H   0  0  0  0  0  0  0  0  0  0  0  0
    0.0992   -1.4940    1.8792 C   0  0  0  0  0  0  0  0  0  0  0  0
   -1.1077   -1.1186    1.4868 C   0  0  0  0  0  0  0  0  0  0  0  0
   -1.4378   -0.4848    0.1671 C   0  0  0  0  0  3  0  0  0  0  0  0
   -2.0216    0.9140    0.3742 C   0  0  0  0  0  0  0  0  0  0  0  0
   -2.4058   -1.3659   -0.6247 C   0  0  0  0  0  0  0  0  0  0  0  0
    0.2664   -1.9468    2.8485 H   0  0  0  0  0  0  0  0  0  0  0  0
    0.9670   -1.3609    1.2416 H   0  0  0  0  0  0  0  0  0  0  0  0
   -1.9539   -1.2692    2.1560 H   0  0  0  0  0  0  0  0  0  0  0  0
   -2.2564    1.3818   -0.5842 H   0  0  0  0  0  0  0  0  0  0  0  0
   -2.9456    0.8638    0.9566 H   0  0  0  0  0  0  0  0  0  0  0  0
   -1.3217    1.5578    0.9087 H   0  0  0  0  0  0  0  0  0  0  0  0
   -3.3435   -1.4968   -0.0777 H   0  0  0  0  0  0  0  0  0  0  0  0
   -1.9810   -2.3543   -0.8053 H   0  0  0  0  0  0  0  0  0  0  0  0
   -2.6429   -0.9117   -1.5891 H   0  0  0  0  0  0  0  0  0  0  0  0
  1  2  1  0
  1  5  1  0
  1  6  1  0
  1  7  1  0
  2  4  1  0
  2  3  1  0
  2  8  1  0
  3  9  1  0
  4 10  1  0
  4 11  1  0
  4 12  1  0
 13 14  2  3
 13 18  1  0
 13 19  1  0
 14 15  1  0
 14 20  1  0
 15 16  1  0
 15 17  1  0
 16 21  1  0
 16 22  1  0
 16 23  1  0
 17 24  1  0
 17 25  1  0
 17 26  1  0
M  RAD  1  15   2
M  END
>  <reaction>  (7) 
rxn_1914

>  <mol_properties>  (7) 
{"1": {"label": "*3", "atom_type": "Cs"}, "2": {"label": "*4", "atom_type": "S2s"}, "7": {"label": "*2", "atom_type": "H0"}, "13": {"label": "*0", "atom_type": "Cd"}, "14": {"label": "*1", "atom_type": "Cs"}}

>  <type>  (7) 
unop_3

>  <geom_source>  (7) 
Heuristics

$$$$

     RDKit          3D

 26 24  0  0  0  0  0  0  0  0999 V2000
    0.9296    0.5728   -1.9301 C   0  0  0  0  0  0  0  0  0  0  0  0
    0.9296    0.5728   -0.4078 C   0  0  0  0  0  0  0  0  0  0  0  0
    2.2846   -0.4437    0.2758 S   0  0  0  0  0  0  0  0  0  0  0  0
    0.9296    1.9827    0.1663 C   0  0  0  0  0  0  0  0  0  0  0  0
    0.9010   -0.4415   -2.3268 H   0  0  0  0  0  0  0  0  0  0  0  0
    1.8280    1.0625   -2.3137 H   0  0  0  0  0  0  0  0  0  0  0  0
    0.0626    1.1202   -2.3089 H   0  0  0  0  0  0  0  0  0  0  0  0
   -0.1383   -0.0591    0.0172 H   0  0  0  0  0  0  0  0  0  0  0  0
    3.2909    0.2918   -0.2188 H   0  0  0  0  0  0  0  0  0  0  0  0
    0.0626    2.5400   -0.1979 H   0  0  0  0  0  0  0  0  0  0  0  0
    1.8280    2.5227   -0.1427 H   0  0  0  0  0  0  0  0  0  0  0  0
    0.9010    1.9676    1.2552 H   0  0  0  0  0  0  0  0  0  0  0  0
   -2.4796    0.6843   -1.2307 C   0  0  0  0  0  0  0  0  0  0  0  0
   -2.4140    0.0304   -0.0819 C   0  0  0  0  0  0  0  0  0  0  0  0
   -1.2077   -0.6919    0.4428 C   0  0  0  0  0  3  0  0  0  0  0  0
   -1.5054   -2.1830    0.6107 C   0  0  0  0  0  0  0  0  0  0  0  0
   -0.7470   -0.0773    1.7658 C   0  0  0  0  0  0  0  0  0  0  0  0
   -3.3855    1.1850   -1.5487 H   0  0  0  0  0  0  0  0  0  0  0  0
   -1.6252    0.7421   -1.8970 H   0  0  0  0  0  0  0  0  0  0  0  0
   -3.2937   -0.0047    0.5596 H   0  0  0  0  0  0  0  0  0  0  0  0
   -0.6277   -2.7137    0.9855 H   0  0  0  0  0  0  0  0  0  0  0  0
   -2.3184   -2.3358    1.3257 H   0  0  0  0  0  0  0  0  0  0  0  0
   -1.8017   -2.6348   -0.3371 H   0  0  0  0  0  0  0  0  0  0  0  0
   -1.5332   -0.1555    2.5217 H   0  0  0  0  0  0  0  0  0  0  0  0
   -0.5004    0.9784    1.6451 H   0  0  0  0  0  0  0  0  0  0  0  0
    0.1352   -0.5954    2.1475 H   0  0  0  0  0  0  0  0  0  0  0  0
  1  2  1  0
  1  5  1  0
  1  6  1  0
  1  7  1  0
  2  4  1  0
  2  3  1  0
  2  8  1  0
  3  9  1  0
  4 10  1  0
  4 11  1  0
  4 12  1  0
 13 14  2  3
 13 18  1  0
 13 19  1  0
 14 15  1  0
 14 20  1  0
 15 16  1  0
 15 17  1  0
 16 21  1  0
 16 22  1  0
 16 23  1  0
 17 24  1  0
 17 25  1  0
 17 26  1  0
M  RAD  1  15   2
M  END
>  <reaction>  (8) 
rxn_1914

>  <mol_properties>  (8) 
{"1": {"label": "*3", "atom_type": "Cs"}, "2": {"label": "*4", "atom_type": "S2s"}, "7": {"label": "*2", "atom_type": "H0"}, "13": {"label": "*0", "atom_type": "Cd"}, "14": {"label": "*1", "atom_type": "Cs"}}

>  <type>  (8) 
unop_4

>  <geom_source>  (8) 
Heuristics

$$$$

     RDKit          3D

 26 24  0  0  0  0  0  0  0  0999 V2000
    0.7453    0.6997   -2.2241 C   0  0  0  0  0  0  0  0  0  0  0  0
    0.7453    0.6997   -0.7017 C   0  0  0  0  0  0  0  0  0  0  0  0
    2.1004   -0.3168   -0.0181 S   0  0  0  0  0  0  0  0  0  0  0  0
    0.7453    2.1096   -0.1277 C   0  0  0  0  0  0  0  0  0  0  0  0
    0.7168   -0.3146   -2.6207 H   0  0  0  0  0  0  0  0  0  0  0  0
    1.6438    1.1894   -2.6077 H   0  0  0  0  0  0  0  0  0  0  0  0
   -0.1216    1.2471   -2.6029 H   0  0  0  0  0  0  0  0  0  0  0  0
   -0.3225    0.0678   -0.2767 H   0  0  0  0  0  0  0  0  0  0  0  0
    3.1066    0.4187   -0.5128 H   0  0  0  0  0  0  0  0  0  0  0  0
   -0.1216    2.6669   -0.4919 H   0  0  0  0  0  0  0  0  0  0  0  0
    1.6438    2.6496   -0.4366 H   0  0  0  0  0  0  0  0  0  0  0  0
    0.7168    2.0946    0.9613 H   0  0  0  0  0  0  0  0  0  0  0  0
   -0.4348    0.0014    2.4016 C   0  0  0  0  0  0  0  0  0  0  0  0
   -1.3719   -0.5531    1.6494 C   0  0  0  0  0  0  0  0  0  0  0  0
   -1.3919   -0.5650    0.1488 C   0  0  0  0  0  3  0  0  0  0  0  0
   -2.6278    0.1670   -0.3776 C   0  0  0  0  0  0  0  0  0  0  0  0
   -1.3452   -2.0006   -0.3776 C   0  0  0  0  0  0  0  0  0  0  0  0
   -0.4832   -0.0273    3.4830 H   0  0  0  0  0  0  0  0  0  0  0  0
    0.4183    0.5061    1.9602 H   0  0  0  0  0  0  0  0  0  0  0  0
   -2.2129   -1.0508    2.1305 H   0  0  0  0  0  0  0  0  0  0  0  0
   -2.6425    0.1671   -1.4695 H   0  0  0  0  0  0  0  0  0  0  0  0
   -3.5423   -0.3223   -0.0314 H   0  0  0  0  0  0  0  0  0  0  0  0
   -2.6491    1.2019   -0.0334 H   0  0  0  0  0  0  0  0  0  0  0  0
   -2.2143   -2.5667   -0.0314 H   0  0  0  0  0  0  0  0  0  0  0  0
   -0.4483   -2.5174   -0.0334 H   0  0  0  0  0  0  0  0  0  0  0  0
   -1.3522   -2.0135   -1.4695 H   0  0  0  0  0  0  0  0  0  0  0  0
  1  2  1  0
  1  5  1  0
  1  6  1  0
  1  7  1  0
  2  4  1  0
  2  3  1  0
  2  8  1  0
  3  9  1  0
  4 10  1  0
  4 11  1  0
  4 12  1  0
 13 14  2  3
 13 18  1  0
 13 19  1  0
 14 15  1  0
 14 20  1  0
 15 16  1  0
 15 17  1  0
 16 21  1  0
 16 22  1  0
 16 23  1  0
 17 24  1  0
 17 25  1  0
 17 26  1  0
M  RAD  1  15   2
M  END
>  <reaction>  (9) 
rxn_1914

>  <mol_properties>  (9) 
{"1": {"label": "*3", "atom_type": "Cs"}, "2": {"label": "*4", "atom_type": "S2s"}, "7": {"label": "*2", "atom_type": "H0"}, "13": {"label": "*0", "atom_type": "Cd"}, "14": {"label": "*1", "atom_type": "Cs"}}

>  <type>  (9) 
unop_5

>  <geom_source>  (9) 
Heuristics

$$$$

     RDKit          3D

 26 24  0  0  0  0  0  0  0  0999 V2000
    0.9037    0.5357   -2.0408 C   0  0  0  0  0  0  0  0  0  0  0  0
    0.9037    0.5357   -0.5185 C   0  0  0  0  0  0  0  0  0  0  0  0
    2.2587   -0.4807    0.1651 S   0  0  0  0  0  0  0  0  0  0  0  0
    0.9037    1.9457    0.0555 C   0  0  0  0  0  0  0  0  0  0  0  0
    0.8751   -0.4785   -2.4375 H   0  0  0  0  0  0  0  0  0  0  0  0
    1.8021    1.0254   -2.4244 H   0  0  0  0  0  0  0  0  0  0  0  0
    0.0367    1.0831   -2.4196 H   0  0  0  0  0  0  0  0  0  0  0  0
   -0.1642   -0.0962   -0.0935 H   0  0  0  0  0  0  0  0  0  0  0  0
    3.2650    0.2548   -0.3295 H   0  0  0  0  0  0  0  0  0  0  0  0
    0.0367    2.5029   -0.3086 H   0  0  0  0  0  0  0  0  0  0  0  0
    1.8021    2.4856   -0.2534 H   0  0  0  0  0  0  0  0  0  0  0  0
    0.8751    1.9306    1.1445 H   0  0  0  0  0  0  0  0  0  0  0  0
   -2.5735    1.2884   -0.3364 C   0  0  0  0  0  0  0  0  0  0  0  0
   -2.3383    0.2757    0.4825 C   0  0  0  0  0  0  0  0  0  0  0  0
   -1.2335   -0.7289    0.3321 C   0  0  0  0  0  3  0  0  0  0  0  0
   -1.8074   -2.1364    0.1586 C   0  0  0  0  0  0  0  0  0  0  0  0
   -0.2883   -0.6717    1.5336 C   0  0  0  0  0  0  0  0  0  0  0  0
   -3.3912    1.9778   -0.1674 H   0  0  0  0  0  0  0  0  0  0  0  0
   -1.9534    1.4646   -1.2092 H   0  0  0  0  0  0  0  0  0  0  0  0
   -2.9837    0.1324    1.3481 H   0  0  0  0  0  0  0  0  0  0  0  0
   -1.0068   -2.8697    0.0415 H   0  0  0  0  0  0  0  0  0  0  0  0
   -2.3972   -2.4228    1.0337 H   0  0  0  0  0  0  0  0  0  0  0  0
   -2.4558   -2.1923   -0.7169 H   0  0  0  0  0  0  0  0  0  0  0  0
   -0.8243   -0.9063    2.4573 H   0  0  0  0  0  0  0  0  0  0  0  0
    0.1509    0.3209    1.6424 H   0  0  0  0  0  0  0  0  0  0  0  0
    0.5214   -1.3963    1.4247 H   0  0  0  0  0  0  0  0  0  0  0  0
  1  2  1  0
  1  5  1  0
  1  6  1  0
  1  7  1  0
  2  4  1  0
  2  3  1  0
  2  8  1  0
  3  9  1  0
  4 10  1  0
  4 11  1  0
  4 12  1  0
 13 14  2  3
 13 18  1  0
 13 19  1  0
 14 15  1  0
 14 20  1  0
 15 16  1  0
 15 17  1  0
 16 21  1  0
 16 22  1  0
 16 23  1  0
 17 24  1  0
 17 25  1  0
 17 26  1  0
M  RAD  1  15   2
M  END
>  <reaction>  (10) 
rxn_1914

>  <mol_properties>  (10) 
{"1": {"label": "*3", "atom_type": "Cs"}, "2": {"label": "*4", "atom_type": "S2s"}, "7": {"label": "*2", "atom_type": "H0"}, "13": {"label": "*0", "atom_type": "Cd"}, "14": {"label": "*1", "atom_type": "Cs"}}

>  <type>  (10) 
unop_6

>  <geom_source>  (10) 
Heuristics

$$$$

     RDKit          3D

 26 24  0  0  0  0  0  0  0  0999 V2000
    0.8517    0.5558   -2.1420 C   0  0  0  0  0  0  0  0  0  0  0  0
    0.8517    0.5558   -0.6197 C   0  0  0  0  0  0  0  0  0  0  0  0
    2.2068   -0.4606    0.0640 S   0  0  0  0  0  0  0  0  0  0  0  0
    0.8517    1.9658   -0.0456 C   0  0  0  0  0  0  0  0  0  0  0  0
    0.8232   -0.4584   -2.5387 H   0  0  0  0  0  0  0  0  0  0  0  0
    1.7502    1.0455   -2.5256 H   0  0  0  0  0  0  0  0  0  0  0  0
   -0.0152    1.1032   -2.5208 H   0  0  0  0  0  0  0  0  0  0  0  0
   -0.2161   -0.0761   -0.1947 H   0  0  0  0  0  0  0  0  0  0  0  0
    3.2130    0.2749   -0.4307 H   0  0  0  0  0  0  0  0  0  0  0  0
   -0.0152    2.5230   -0.4098 H   0  0  0  0  0  0  0  0  0  0  0  0
    1.7502    2.5057   -0.3545 H   0  0  0  0  0  0  0  0  0  0  0  0
    0.8232    1.9507    1.0433 H   0  0  0  0  0  0  0  0  0  0  0  0
   -2.2646    1.5351    0.7951 C   0  0  0  0  0  0  0  0  0  0  0  0
   -2.0939    0.2489    1.0564 C   0  0  0  0  0  0  0  0  0  0  0  0
   -1.2855   -0.7088    0.2309 C   0  0  0  0  0  3  0  0  0  0  0  0
   -2.1727   -1.8300   -0.3134 C   0  0  0  0  0  0  0  0  0  0  0  0
   -0.1285   -1.2813    1.0518 C   0  0  0  0  0  0  0  0  0  0  0  0
   -2.8630    2.1706    1.4357 H   0  0  0  0  0  0  0  0  0  0  0  0
   -1.8095    2.0001   -0.0732 H   0  0  0  0  0  0  0  0  0  0  0  0
   -2.5675   -0.1807    1.9382 H   0  0  0  0  0  0  0  0  0  0  0  0
   -1.5896   -2.5253   -0.9209 H   0  0  0  0  0  0  0  0  0  0  0  0
   -2.6221   -2.3981    0.5057 H   0  0  0  0  0  0  0  0  0  0  0  0
   -2.9802   -1.4301   -0.9282 H   0  0  0  0  0  0  0  0  0  0  0  0
   -0.5056   -1.8300    1.9192 H   0  0  0  0  0  0  0  0  0  0  0  0
    0.5274   -0.4886    1.4144 H   0  0  0  0  0  0  0  0  0  0  0  0
    0.4668   -1.9734    0.4525 H   0  0  0  0  0  0  0  0  0  0  0  0
  1  2  1  0
  1  5  1  0
  1  6  1  0
  1  7  1  0
  2  4  1  0
  2  3  1  0
  2  8  1  0
  3  9  1  0
  4 10  1  0
  4 11  1  0
  4 12  1  0
 13 14  2  3
 13 18  1  0
 13 19  1  0
 14 15  1  0
 14 20  1  0
 15 16  1  0
 15 17  1  0
 16 21  1  0
 16 22  1  0
 16 23  1  0
 17 24  1  0
 17 25  1  0
 17 26  1  0
M  RAD  1  15   2
M  END
>  <reaction>  (11) 
rxn_1914

>  <mol_properties>  (11) 
{"1": {"label": "*3", "atom_type": "Cs"}, "2": {"label": "*4", "atom_type": "S2s"}, "7": {"label": "*2", "atom_type": "H0"}, "13": {"label": "*0", "atom_type": "Cd"}, "14": {"label": "*1", "atom_type": "Cs"}}

>  <type>  (11) 
unop_7

>  <geom_source>  (11) 
Heuristics

$$$$

     RDKit          3D

 26 24  0  0  0  0  0  0  0  0999 V2000
    0.6779    0.9174   -2.0408 C   0  0  0  0  0  0  0  0  0  0  0  0
    0.6779    0.9174   -0.5185 C   0  0  0  0  0  0  0  0  0  0  0  0
    2.0329   -0.0990    0.1651 S   0  0  0  0  0  0  0  0  0  0  0  0
    0.6779    2.3274    0.0555 C   0  0  0  0  0  0  0  0  0  0  0  0
    0.6493   -0.0969   -2.4375 H   0  0  0  0  0  0  0  0  0  0  0  0
    1.5763    1.4071   -2.4244 H   0  0  0  0  0  0  0  0  0  0  0  0
   -0.1891    1.4648   -2.4196 H   0  0  0  0  0  0  0  0  0  0  0  0
   -0.3900    0.2855   -0.0935 H   0  0  0  0  0  0  0  0  0  0  0  0
    3.0392    0.6365   -0.3295 H   0  0  0  0  0  0  0  0  0  0  0  0
   -0.1891    2.8846   -0.3086 H   0  0  0  0  0  0  0  0  0  0  0  0
    1.5763    2.8673   -0.2534 H   0  0  0  0  0  0  0  0  0  0  0  0
    0.6493    2.3123    1.1445 H   0  0  0  0  0  0  0  0  0  0  0  0
   -0.3361   -2.4928   -0.3364 C   0  0  0  0  0  0  0  0  0  0  0  0
   -1.1106   -1.7991    0.4825 C   0  0  0  0  0  0  0  0  0  0  0  0
   -1.4594   -0.3472    0.3321 C   0  0  0  0  0  3  0  0  0  0  0  0
   -0.9543    0.4537    1.5336 C   0  0  0  0  0  0  0  0  0  0  0  0
   -2.9693   -0.1728    0.1586 C   0  0  0  0  0  0  0  0  0  0  0  0
   -0.1255   -3.5414   -0.1674 H   0  0  0  0  0  0  0  0  0  0  0  0
    0.1168   -2.0341   -1.2092 H   0  0  0  0  0  0  0  0  0  0  0  0
   -1.5468   -2.2959    1.3481 H   0  0  0  0  0  0  0  0  0  0  0  0
   -1.1996    1.5122    1.4247 H   0  0  0  0  0  0  0  0  0  0  0  0
   -1.4179    0.0968    2.4573 H   0  0  0  0  0  0  0  0  0  0  0  0
    0.1272    0.3609    1.6424 H   0  0  0  0  0  0  0  0  0  0  0  0
   -3.5043   -0.5519    1.0337 H   0  0  0  0  0  0  0  0  0  0  0  0
   -3.3304   -0.7142   -0.7169 H   0  0  0  0  0  0  0  0  0  0  0  0
   -3.2267    0.8819    0.0415 H   0  0  0  0  0  0  0  0  0  0  0  0
  1  2  1  0
  1  5  1  0
  1  6  1  0
  1  7  1  0
  2  4  1  0
  2  3  1  0
  2  8  1  0
  3  9  1  0
  4 10  1  0
  4 11  1  0
  4 12  1  0
 13 14  2  3
 13 18  1  0
 13 19  1  0
 14 15  1  0
 14 20  1  0
 15 16  1  0
 15 17  1  0
 16 21  1  0
 16 22  1  0
 16 23  1  0
 17 24  1  0
 17 25  1  0
 17 26  1  0
M  RAD  1  15   2
M  END
>  <reaction>  (12) 
rxn_1914

>  <mol_properties>  (12) 
{"1": {"label": "*3", "atom_type": "Cs"}, "2": {"label": "*4", "atom_type": "S2s"}, "7": {"label": "*2", "atom_type": "H0"}, "13": {"label": "*0", "atom_type": "Cd"}, "14": {"label": "*1", "atom_type": "Cs"}}

>  <type>  (12) 
unop_8

>  <geom_source>  (12) 
Heuristics

$$$$

     RDKit          3D

 26 24  0  0  0  0  0  0  0  0999 V2000
    0.9177    0.6600   -1.8434 C   0  0  0  0  0  0  0  0  0  0  0  0
    0.9177    0.6600   -0.3211 C   0  0  0  0  0  0  0  0  0  0  0  0
    2.2727   -0.3565    0.3625 S   0  0  0  0  0  0  0  0  0  0  0  0
    0.9177    2.0699    0.2529 C   0  0  0  0  0  0  0  0  0  0  0  0
    0.8891   -0.3543   -2.2401 H   0  0  0  0  0  0  0  0  0  0  0  0
    1.8161    1.1497   -2.2270 H   0  0  0  0  0  0  0  0  0  0  0  0
    0.0507    1.2074   -2.2222 H   0  0  0  0  0  0  0  0  0  0  0  0
   -0.1502    0.0281    0.1039 H   0  0  0  0  0  0  0  0  0  0  0  0
    3.2790    0.3790   -0.1321 H   0  0  0  0  0  0  0  0  0  0  0  0
    0.0507    2.6272   -0.1112 H   0  0  0  0  0  0  0  0  0  0  0  0
    1.8161    2.6099   -0.0560 H   0  0  0  0  0  0  0  0  0  0  0  0
    0.8891    2.0548    1.3419 H   0  0  0  0  0  0  0  0  0  0  0  0
   -2.1253   -0.0421   -1.7454 C   0  0  0  0  0  0  0  0  0  0  0  0
   -2.3056   -0.4181   -0.4894 C   0  0  0  0  0  0  0  0  0  0  0  0
   -1.2196   -0.6047    0.5295 C   0  0  0  0  0  3  0  0  0  0  0  0
   -1.1819   -2.0549    1.0149 C   0  0  0  0  0  0  0  0  0  0  0  0
   -1.4138    0.3566    1.7036 C   0  0  0  0  0  0  0  0  0  0  0  0
   -2.9571    0.0732   -2.4291 H   0  0  0  0  0  0  0  0  0  0  0  0
   -1.1345    0.1648   -2.1362 H   0  0  0  0  0  0  0  0  0  0  0  0
   -3.3162   -0.6166   -0.1348 H   0  0  0  0  0  0  0  0  0  0  0  0
   -0.3881   -2.1967    1.7512 H   0  0  0  0  0  0  0  0  0  0  0  0
   -2.1291   -2.3278    1.4883 H   0  0  0  0  0  0  0  0  0  0  0  0
   -1.0094   -2.7433    0.1864 H   0  0  0  0  0  0  0  0  0  0  0  0
   -2.3692    0.1691    2.2014 H   0  0  0  0  0  0  0  0  0  0  0  0
   -1.4074    1.3946    1.3682 H   0  0  0  0  0  0  0  0  0  0  0  0
   -0.6214    0.2292    2.4441 H   0  0  0  0  0  0  0  0  0  0  0  0
  1  2  1  0
  1  5  1  0
  1  6  1  0
  1  7  1  0
  2  4  1  0
  2  3  1  0
  2  8  1  0
  3  9  1  0
  4 10  1  0
  4 11  1  0
  4 12  1  0
 13 14  2  3
 13 18  1  0
 13 19  1  0
 14 15  1  0
 14 20  1  0
 15 16  1  0
 15 17  1  0
 16 21  1  0
 16 22  1  0
 16 23  1  0
 17 24  1  0
 17 25  1  0
 17 26  1  0
M  RAD  1  15   2
M  END
>  <reaction>  (13) 
rxn_1914

>  <mol_properties>  (13) 
{"1": {"label": "*3", "atom_type": "Cs"}, "2": {"label": "*4", "atom_type": "S2s"}, "7": {"label": "*2", "atom_type": "H0"}, "13": {"label": "*0", "atom_type": "Cd"}, "14": {"label": "*1", "atom_type": "Cs"}}

>  <type>  (13) 
unop_9

>  <geom_source>  (13) 
Heuristics

$$$$

     RDKit          3D

 26 24  0  0  0  0  0  0  0  0999 V2000
    0.7228    0.9222   -1.9301 C   0  0  0  0  0  0  0  0  0  0  0  0
    0.7228    0.9222   -0.4078 C   0  0  0  0  0  0  0  0  0  0  0  0
    2.0778   -0.0942    0.2758 S   0  0  0  0  0  0  0  0  0  0  0  0
    0.7228    2.3322    0.1663 C   0  0  0  0  0  0  0  0  0  0  0  0
    0.6942   -0.0920   -2.3268 H   0  0  0  0  0  0  0  0  0  0  0  0
    1.6212    1.4120   -2.3137 H   0  0  0  0  0  0  0  0  0  0  0  0
   -0.1442    1.4697   -2.3089 H   0  0  0  0  0  0  0  0  0  0  0  0
   -0.3451    0.2904    0.0172 H   0  0  0  0  0  0  0  0  0  0  0  0
    3.0841    0.6413   -0.2188 H   0  0  0  0  0  0  0  0  0  0  0  0
   -0.1442    2.8895   -0.1979 H   0  0  0  0  0  0  0  0  0  0  0  0
    1.6212    2.8722   -0.1427 H   0  0  0  0  0  0  0  0  0  0  0  0
    0.6942    2.3171    1.2552 H   0  0  0  0  0  0  0  0  0  0  0  0
   -0.8205   -2.1197   -1.2307 C   0  0  0  0  0  0  0  0  0  0  0  0
   -1.3620   -1.7475   -0.0819 C   0  0  0  0  0  0  0  0  0  0  0  0
   -1.4145   -0.3424    0.4428 C   0  0  0  0  0  3  0  0  0  0  0  0
   -0.6541   -0.2344    1.7658 C   0  0  0  0  0  0  0  0  0  0  0  0
   -2.8648    0.1144    0.6107 C   0  0  0  0  0  0  0  0  0  0  0  0
   -0.8177   -3.1547   -1.5487 H   0  0  0  0  0  0  0  0  0  0  0  0
   -0.3586   -1.3986   -1.8970 H   0  0  0  0  0  0  0  0  0  0  0  0
   -1.8162   -2.5016    0.5596 H   0  0  0  0  0  0  0  0  0  0  0  0
   -0.6835    0.7883    2.1475 H   0  0  0  0  0  0  0  0  0  0  0  0
   -1.1010   -0.8859    2.5217 H   0  0  0  0  0  0  0  0  0  0  0  0
    0.3901   -0.5264    1.6451 H   0  0  0  0  0  0  0  0  0  0  0  0
   -3.3900   -0.5247    1.3257 H   0  0  0  0  0  0  0  0  0  0  0  0
   -3.4034    0.0722   -0.3370 H   0  0  0  0  0  0  0  0  0  0  0  0
   -2.9075    1.1392    0.9855 H   0  0  0  0  0  0  0  0  0  0  0  0
  1  2  1  0
  1  5  1  0
  1  6  1  0
  1  7  1  0
  2  4  1  0
  2  3  1  0
  2  8  1  0
  3  9  1  0
  4 10  1  0
  4 11  1  0
  4 12  1  0
 13 14  2  3
 13 18  1  0
 13 19  1  0
 14 15  1  0
 14 20  1  0
 15 16  1  0
 15 17  1  0
 16 21  1  0
 16 22  1  0
 16 23  1  0
 17 24  1  0
 17 25  1  0
 17 26  1  0
M  RAD  1  15   2
M  END
>  <reaction>  (14) 
rxn_1914

>  <mol_properties>  (14) 
{"1": {"label": "*3", "atom_type": "Cs"}, "2": {"label": "*4", "atom_type": "S2s"}, "7": {"label": "*2", "atom_type": "H0"}, "13": {"label": "*0", "atom_type": "Cd"}, "14": {"label": "*1", "atom_type": "Cs"}}

>  <type>  (14) 
unop_10

>  <geom_source>  (14) 
Heuristics

$$$$

     RDKit          3D

 26 24  0  0  0  0  0  0  0  0999 V2000
    0.7935    0.6209   -2.2058 C   0  0  0  0  0  0  0  0  0  0  0  0
    0.7935    0.6209   -0.6834 C   0  0  0  0  0  0  0  0  0  0  0  0
    2.1485   -0.3956    0.0002 S   0  0  0  0  0  0  0  0  0  0  0  0
    0.7935    2.0308   -0.1094 C   0  0  0  0  0  0  0  0  0  0  0  0
    0.7649   -0.3934   -2.6024 H   0  0  0  0  0  0  0  0  0  0  0  0
    1.6919    1.1106   -2.5894 H   0  0  0  0  0  0  0  0  0  0  0  0
   -0.0735    1.1683   -2.5846 H   0  0  0  0  0  0  0  0  0  0  0  0
   -0.2744   -0.0110   -0.2585 H   0  0  0  0  0  0  0  0  0  0  0  0
    3.1548    0.3399   -0.4945 H   0  0  0  0  0  0  0  0  0  0  0  0
   -0.0735    2.5881   -0.4736 H   0  0  0  0  0  0  0  0  0  0  0  0
    1.6919    2.5708   -0.4183 H   0  0  0  0  0  0  0  0  0  0  0  0
    0.7649    2.0157    0.9796 H   0  0  0  0  0  0  0  0  0  0  0  0
   -1.4885    1.1892    1.8792 C   0  0  0  0  0  0  0  0  0  0  0  0
   -1.7404   -0.0494    1.4868 C   0  0  0  0  0  0  0  0  0  0  0  0
   -1.3437   -0.6438    0.1671 C   0  0  0  0  0  3  0  0  0  0  0  0
   -2.5820   -1.0681   -0.6247 C   0  0  0  0  0  0  0  0  0  0  0  0
   -0.3987   -1.8288    0.3742 C   0  0  0  0  0  0  0  0  0  0  0  0
   -1.8049    1.5538    2.8485 H   0  0  0  0  0  0  0  0  0  0  0  0
   -0.9541    1.8858    1.2416 H   0  0  0  0  0  0  0  0  0  0  0  0
   -2.2797   -0.7185    2.1560 H   0  0  0  0  0  0  0  0  0  0  0  0
   -2.2981   -1.4946   -1.5891 H   0  0  0  0  0  0  0  0  0  0  0  0
   -3.1481   -1.8270   -0.0777 H   0  0  0  0  0  0  0  0  0  0  0  0
   -3.2439   -0.2200   -0.8053 H   0  0  0  0  0  0  0  0  0  0  0  0
   -0.8875   -2.6146    0.9566 H   0  0  0  0  0  0  0  0  0  0  0  0
    0.5025   -1.5252    0.9087 H   0  0  0  0  0  0  0  0  0  0  0  0
   -0.1017   -2.2598   -0.5842 H   0  0  0  0  0  0  0  0  0  0  0  0
  1  2  1  0
  1  5  1  0
  1  6  1  0
  1  7  1  0
  2  4  1  0
  2  3  1  0
  2  8  1  0
  3  9  1  0
  4 10  1  0
  4 11  1  0
  4 12  1  0
 13 14  2  3
 13 18  1  0
 13 19  1  0
 14 15  1  0
 14 20  1  0
 15 16  1  0
 15 17  1  0
 16 21  1  0
 16 22  1  0
 16 23  1  0
 17 24  1  0
 17 25  1  0
 17 26  1  0
M  RAD  1  15   2
M  END
>  <reaction>  (15) 
rxn_1914

>  <mol_properties>  (15) 
{"1": {"label": "*3", "atom_type": "Cs"}, "2": {"label": "*4", "atom_type": "S2s"}, "7": {"label": "*2", "atom_type": "H0"}, "13": {"label": "*0", "atom_type": "Cd"}, "14": {"label": "*1", "atom_type": "Cs"}}

>  <type>  (15) 
unop_11

>  <geom_source>  (15) 
Heuristics

$$$$

     RDKit          3D

 26 24  0  0  0  0  0  0  0  0999 V2000
    0.8673    0.7718   -1.8103 C   0  0  0  0  0  0  0  0  0  0  0  0
    0.8673    0.7718   -0.2880 C   0  0  0  0  0  0  0  0  0  0  0  0
    2.2223   -0.2446    0.3957 S   0  0  0  0  0  0  0  0  0  0  0  0
    0.8673    2.1818    0.2861 C   0  0  0  0  0  0  0  0  0  0  0  0
    0.8387   -0.2424   -2.2070 H   0  0  0  0  0  0  0  0  0  0  0  0
    1.7657    1.2616   -2.1939 H   0  0  0  0  0  0  0  0  0  0  0  0
    0.0003    1.3193   -2.1891 H   0  0  0  0  0  0  0  0  0  0  0  0
   -0.2006    0.1400    0.1370 H   0  0  0  0  0  0  0  0  0  0  0  0
    3.2286    0.4909   -0.0990 H   0  0  0  0  0  0  0  0  0  0  0  0
    0.0003    2.7391   -0.0781 H   0  0  0  0  0  0  0  0  0  0  0  0
    1.7657    2.7218   -0.0228 H   0  0  0  0  0  0  0  0  0  0  0  0
    0.8387    2.1667    1.3750 H   0  0  0  0  0  0  0  0  0  0  0  0
   -1.7024   -0.7487   -1.8990 C   0  0  0  0  0  0  0  0  0  0  0  0
   -2.0459   -0.9519   -0.6371 C   0  0  0  0  0  0  0  0  0  0  0  0
   -1.2699   -0.4928    0.5626 C   0  0  0  0  0  3  0  0  0  0  0  0
   -0.8206   -1.6902    1.4021 C   0  0  0  0  0  0  0  0  0  0  0  0
   -2.1032    0.4774    1.4021 C   0  0  0  0  0  0  0  0  0  0  0  0
   -2.3113   -1.1090   -2.7188 H   0  0  0  0  0  0  0  0  0  0  0  0
   -0.7956   -0.2121   -2.1579 H   0  0  0  0  0  0  0  0  0  0  0  0
   -2.9642   -1.4953   -0.4181 H   0  0  0  0  0  0  0  0  0  0  0  0
   -0.2493   -1.3608    2.2724 H   0  0  0  0  0  0  0  0  0  0  0  0
   -1.6852   -2.2535    1.7639 H   0  0  0  0  0  0  0  0  0  0  0  0
   -0.1973   -2.3689    0.8183 H   0  0  0  0  0  0  0  0  0  0  0  0
   -3.0131   -0.0092    1.7639 H   0  0  0  0  0  0  0  0  0  0  0  0
   -2.3981    1.3505    0.8183 H   0  0  0  0  0  0  0  0  0  0  0  0
   -1.5395    0.8197    2.2724 H   0  0  0  0  0  0  0  0  0  0  0  0
  1  2  1  0
  1  5  1  0
  1  6  1  0
  1  7  1  0
  2  4  1  0
  2  3  1  0
  2  8  1  0
  3  9  1  0
  4 10  1  0
  4 11  1  0
  4 12  1  0
 13 14  2  3
 13 18  1  0
 13 19  1  0
 14 15  1  0
 14 20  1  0
 15 16  1  0
 15 17  1  0
 16 21  1  0
 16 22  1  0
 16 23  1  0
 17 24  1  0
 17 25  1  0
 17 26  1  0
M  RAD  1  15   2
M  END
>  <reaction>  (16) 
rxn_1914

>  <mol_properties>  (16) 
{"1": {"label": "*3", "atom_type": "Cs"}, "2": {"label": "*4", "atom_type": "S2s"}, "7": {"label": "*2", "atom_type": "H0"}, "13": {"label": "*0", "atom_type": "Cd"}, "14": {"label": "*1", "atom_type": "Cs"}}

>  <type>  (16) 
unop_12

>  <geom_source>  (16) 
Heuristics

$$$$

     RDKit          3D

 26 24  0  0  0  0  0  0  0  0999 V2000
   -2.1341    1.9030   -0.6234 S   0  0  0  0  0  0  0  0  0  0  0  0
    0.9382    0.2323    0.0341 C   0  0  0  0  0  0  0  0  0  0  0  0
    1.2138    0.4902   -1.4507 C   0  0  0  0  0  0  0  0  0  0  0  0
    1.6751    1.2415    0.9203 C   0  0  0  0  0  0  0  0  0  0  0  0
   -2.2096   -0.1145    1.2530 C   0  0  0  0  0  0  0  0  0  0  0  0
   -2.1216   -0.7910   -1.1755 C   0  0  0  0  0  0  0  0  0  0  0  0
   -1.6531    0.2163   -0.1297 C   0  0  0  0  0  3  0  0  0  0  0  0
    1.2736   -1.1900    0.4195 C   0  0  0  0  0  0  0  0  0  0  0  0
    2.5107   -1.6942    0.3386 C   0  0  0  0  0  0  0  0  0  0  0  0
   -0.3672    0.4044    0.2335 H   0  0  0  0  0  0  0  0  0  0  0  0
    0.6644   -0.2484   -2.0724 H   0  0  0  0  0  0  0  0  0  0  0  0
    2.2992    0.4155   -1.6748 H   0  0  0  0  0  0  0  0  0  0  0  0
    0.8622    1.5064   -1.7284 H   0  0  0  0  0  0  0  0  0  0  0  0
    1.4548    1.0389    1.9900 H   0  0  0  0  0  0  0  0  0  0  0  0
    1.3317    2.2711    0.6850 H   0  0  0  0  0  0  0  0  0  0  0  0
    2.7731    1.1873    0.7605 H   0  0  0  0  0  0  0  0  0  0  0  0
   -1.8883   -1.1328    1.5575 H   0  0  0  0  0  0  0  0  0  0  0  0
   -1.8192    0.6095    1.9983 H   0  0  0  0  0  0  0  0  0  0  0  0
   -3.3198   -0.0680    1.2488 H   0  0  0  0  0  0  0  0  0  0  0  0
   -3.2291   -0.7764   -1.2644 H   0  0  0  0  0  0  0  0  0  0  0  0
   -1.7915   -1.8128   -0.8926 H   0  0  0  0  0  0  0  0  0  0  0  0
   -1.6752   -0.5415   -2.1608 H   0  0  0  0  0  0  0  0  0  0  0  0
    0.4719   -1.8285    0.7778 H   0  0  0  0  0  0  0  0  0  0  0  0
    3.3427   -1.0933   -0.0137 H   0  0  0  0  0  0  0  0  0  0  0  0
    2.6959   -2.7232    0.6286 H   0  0  0  0  0  0  0  0  0  0  0  0
   -1.2987    2.4979    0.3409 H   0  0  0  0  0  0  0  0  0  0  0  0
  1  7  1  0
  1 26  1  0
  2  3  1  0
  2  4  1  0
  2  8  1  0
  2 10  1  0
  3 11  1  0
  3 12  1  0
  3 13  1  0
  4 14  1  0
  4 15  1  0
  4 16  1  0
  5  7  1  0
  5 17  1  0
  5 18  1  0
  5 19  1  0
  6  7  1  0
  6 20  1  0
  6 21  1  0
  6 22  1  0
  8  9  2  3
  8 23  1  0
  9 24  1  0
  9 25  1  0
M  RAD  1   7   2
M  END
>  <reaction>  (17) 
rxn_1914

>  <mol_properties>  (17) 
{"1": {"label": "*3", "atom_type": "Cs"}, "2": {"label": "*4", "atom_type": "S2s"}, "7": {"label": "*2", "atom_type": "H0"}, "13": {"label": "*0", "atom_type": "Cd"}, "14": {"label": "*1", "atom_type": "Cs"}}

>  <type>  (17) 
unop_13

>  <geom_source>  (17) 
AutoTST

$$$$
