
     RDKit          3D

  7  6  0  0  0  0  0  0  0  0999 V2000
   -0.6782    0.0507    0.0301 C   0  0  0  0  0  0  0  0  0  0  0  0
    0.8092    0.0996    0.0213 C   0  0  0  0  0  0  0  0  0  0  0  0
    1.7473    0.7521    1.1507 S   0  0  0  0  0  0  0  0  0  0  0  0
   -1.0667    0.5456   -0.8653 H   0  0  0  0  0  0  0  0  0  0  0  0
   -1.0112   -0.9904   -0.0239 H   0  0  0  0  0  0  0  0  0  0  0  0
   -1.0920    0.5225    0.9188 H   0  0  0  0  0  0  0  0  0  0  0  0
    1.2740   -0.3620   -0.8520 H   0  0  0  0  0  0  0  0  0  0  0  0
  1  2  1  0
  1  4  1  0
  1  5  1  0
  1  6  1  0
  2  3  2  0
  2  7  1  0
M  END
>  <reaction>  (1) 
rxn_1964

>  <mol_properties>  (1) 
{"0": {"label": "donator", "atom_type": "Cs"}, "3": {"label": "d_hydrogen", "atom_type": "H0"}}

>  <type>  (1) 
r1h

$$$$

     RDKit          3D

  8  7  0  0  0  0  0  0  0  0999 V2000
   -2.2129    0.4855    0.7390 C   0  0  0  0  0  0  0  0  0  0  0  0
   -1.2226    0.0526    0.1974 C   0  0  0  0  0  0  0  0  0  0  0  0
   -0.1006   -0.4575   -0.4419 C   0  0  0  0  0  3  0  0  0  0  0  0
    1.1960   -0.1737   -0.0342 C   0  0  0  0  0  0  0  0  0  0  0  0
    2.3329    0.0603    0.3036 C   0  0  0  0  0  0  0  0  0  0  0  0
   -3.0803    0.8696    1.2198 H   0  0  0  0  0  0  0  0  0  0  0  0
   -0.2433   -1.1067   -1.2980 H   0  0  0  0  0  0  0  0  0  0  0  0
    3.3308    0.2700    0.6058 H   0  0  0  0  0  0  0  0  0  0  0  0
  1  2  3  0
  1  6  1  0
  2  3  1  0
  3  4  1  0
  3  7  1  0
  4  5  3  0
  5  8  1  0
M  RAD  1   3   2
M  END
>  <reaction>  (2) 
rxn_1964

>  <mol_properties>  (2) 
{"2": {"label": "acceptor", "atom_type": "Cs"}}

>  <type>  (2) 
r2

$$$$

     RDKit          3D

  9  8  0  0  0  0  0  0  0  0999 V2000
   -2.1022   -0.6873    0.3932 C   0  0  0  0  0  0  0  0  0  0  0  0
   -1.2072   -0.1086   -0.1482 C   0  0  0  0  0  0  0  0  0  0  0  0
   -0.1242    0.6105   -0.8193 C   0  0  0  0  0  0  0  0  0  0  0  0
    1.2067    0.1106   -0.4741 C   0  0  0  0  0  0  0  0  0  0  0  0
    2.3005   -0.2875   -0.2012 C   0  0  0  0  0  0  0  0  0  0  0  0
   -2.8942   -1.2059    0.8778 H   0  0  0  0  0  0  0  0  0  0  0  0
   -0.1862    1.6723   -0.5649 H   0  0  0  0  0  0  0  0  0  0  0  0
   -0.2641    0.5418   -1.9017 H   0  0  0  0  0  0  0  0  0  0  0  0
    3.2709   -0.6459    0.0455 H   0  0  0  0  0  0  0  0  0  0  0  0
  1  2  3  0
  1  6  1  0
  2  3  1  0
  3  4  1  0
  3  7  1  0
  3  8  1  0
  4  5  3  0
  5  9  1  0
M  END
>  <reaction>  (3) 
rxn_1964

>  <mol_properties>  (3) 
{"2": {"label": "acceptor", "atom_type": "Cs"}, "8": {"label": "a_hydrogen", "atom_type": "H0"}}

>  <type>  (3) 
r2h

$$$$

     RDKit          3D

 15 13  0  0  0  0  0  0  0  0999 V2000
   -0.1858   -1.2233    3.4307 C   0  0  0  0  0  0  0  0  0  0  0  0
   -0.3632   -0.3389    2.6395 C   0  0  0  0  0  0  0  0  0  0  0  0
   -0.5102    0.6990    1.6691 C   0  0  0  0  0  3  0  0  0  0  0  0
   -1.6597    0.6901    0.8291 C   0  0  0  0  0  0  0  0  0  0  0  0
   -2.5514    0.6781    0.0252 C   0  0  0  0  0  0  0  0  0  0  0  0
   -0.0483   -2.0018    4.1424 H   0  0  0  0  0  0  0  0  0  0  0  0
   -0.2130    1.6870    2.0165 H   0  0  0  0  0  0  0  0  0  0  0  0
   -3.3595    0.6779   -0.6667 H   0  0  0  0  0  0  0  0  0  0  0  0
    1.4404    0.2322   -0.1438 C   0  0  0  0  0  0  0  0  0  0  0  0
    0.7467    0.2094   -1.3900 C   0  0  0  0  0  0  0  0  0  0  0  0
    0.5417    1.5047   -2.3703 S   0  0  0  0  0  0  0  0  0  0  0  0
    0.4797    0.4632    0.7527 H   0  0  0  0  0  0  0  0  0  0  0  0
    1.7991   -0.7187    0.2445 H   0  0  0  0  0  0  0  0  0  0  0  0
    2.0901    1.0843    0.0347 H   0  0  0  0  0  0  0  0  0  0  0  0
    0.2886   -0.7390   -1.6666 H   0  0  0  0  0  0  0  0  0  0  0  0
  1  2  3  0
  1  6  1  0
  2  3  1  0
  3  4  1  0
  3  7  1  0
  4  5  3  0
  5  8  1  0
  9 10  1  0
  9 12  1  0
  9 13  1  0
  9 14  1  0
 10 11  2  0
 10 15  1  0
M  RAD  1   3   2
M  END
>  <reaction>  (4) 
rxn_1964

>  <mol_properties>  (4) 
{"1": {"label": "*4", "atom_type": "Ct"}, "2": {"label": "*3", "atom_type": "Cs"}, "8": {"label": "*1", "atom_type": "Cs"}, "9": {"label": "*0", "atom_type": "CS"}, "11": {"label": "*2", "atom_type": "H0"}}

>  <type>  (4) 
ts

$$$$

     RDKit          3D

 15 13  0  0  0  0  0  0  0  0999 V2000
    0.0566    0.5081    3.6726 C   0  0  0  0  0  0  0  0  0  0  0  0
   -0.3054    0.5228    2.5333 C   0  0  0  0  0  0  0  0  0  0  0  0
   -0.7484    0.5408    1.1391 C   0  0  0  0  0  0  0  0  0  0  0  0
   -2.1253    0.0794    0.9608 C   0  0  0  0  0  0  0  0  0  0  0  0
   -3.2503   -0.2977    0.8151 C   0  0  0  0  0  0  0  0  0  0  0  0
    0.3786    0.4951    4.6861 H   0  0  0  0  0  0  0  0  0  0  0  0
   -0.6565    1.5572    0.7461 H   0  0  0  0  0  0  0  0  0  0  0  0
   -4.2512   -0.6331    0.6855 H   0  0  0  0  0  0  0  0  0  0  0  0
    1.3535    0.6054   -0.4329 C   0  0  0  0  0  0  0  0  0  0  0  0
    1.3535   -0.5931   -1.3151 C   0  0  0  0  0  0  0  0  0  0  0  0
    1.3535   -0.5931   -2.9217 S   0  0  0  0  0  1  0  0  0  0  0  0
    0.3022    0.5731    0.3534 H   0  0  0  0  0  0  0  0  0  0  0  0
    2.2297    0.5785    0.2223 H   0  0  0  0  0  0  0  0  0  0  0  0
    1.3535    1.5292   -1.0076 H   0  0  0  0  0  0  0  0  0  0  0  0
    1.3535   -1.5475   -0.7851 H   0  0  0  0  0  0  0  0  0  0  0  0
  1  2  3  0
  1  6  1  0
  2  3  1  0
  3  4  1  0
  3  7  1  0
  3 12  1  0
  4  5  3  0
  5  8  1  0
  9 10  2  3
  9 13  1  0
  9 14  1  0
 10 11  1  0
 10 15  1  0
M  RAD  1  11   2
M  END
>  <reaction>  (5) 
rxn_1964

>  <mol_properties>  (5) 
{"1": {"label": "*4", "atom_type": "Ct"}, "2": {"label": "*3", "atom_type": "Cs"}, "8": {"label": "*1", "atom_type": "Cs"}, "9": {"label": "*0", "atom_type": "CS"}, "11": {"label": "*2", "atom_type": "H0"}}

>  <type>  (5) 
unop_1

>  <geom_source>  (5) 
Heuristics

$$$$

     RDKit          3D

 15 13  0  0  0  0  0  0  0  0999 V2000
   -1.2362   -1.9732    1.9482 C   0  0  0  0  0  0  0  0  0  0  0  0
   -0.9410   -0.8347    1.7338 C   0  0  0  0  0  0  0  0  0  0  0  0
   -0.5798    0.5585    1.4713 C   0  0  0  0  0  0  0  0  0  0  0  0
   -1.7368    1.4302    1.2669 C   0  0  0  0  0  0  0  0  0  0  0  0
   -2.6822    2.1426    1.0999 C   0  0  0  0  0  0  0  0  0  0  0  0
   -1.4987   -2.9860    2.1390 H   0  0  0  0  0  0  0  0  0  0  0  0
    0.0136    0.9393    2.3073 H   0  0  0  0  0  0  0  0  0  0  0  0
   -3.5233    2.7763    0.9513 H   0  0  0  0  0  0  0  0  0  0  0  0
    1.5222    0.6230   -0.1007 C   0  0  0  0  0  0  0  0  0  0  0  0
    1.5222   -0.5755   -0.9828 C   0  0  0  0  0  0  0  0  0  0  0  0
    1.5222   -0.5755   -2.5895 S   0  0  0  0  0  1  0  0  0  0  0  0
    0.4708    0.5907    0.6856 H   0  0  0  0  0  0  0  0  0  0  0  0
    2.3983    0.5961    0.5546 H   0  0  0  0  0  0  0  0  0  0  0  0
    1.5222    1.5468   -0.6753 H   0  0  0  0  0  0  0  0  0  0  0  0
    1.5222   -1.5299   -0.4529 H   0  0  0  0  0  0  0  0  0  0  0  0
  1  2  3  0
  1  6  1  0
  2  3  1  0
  3  4  1  0
  3  7  1  0
  3 12  1  0
  4  5  3  0
  5  8  1  0
  9 10  2  3
  9 13  1  0
  9 14  1  0
 10 11  1  0
 10 15  1  0
M  RAD  1  11   2
M  END
>  <reaction>  (6) 
rxn_1964

>  <mol_properties>  (6) 
{"1": {"label": "*4", "atom_type": "Ct"}, "2": {"label": "*3", "atom_type": "Cs"}, "8": {"label": "*1", "atom_type": "Cs"}, "9": {"label": "*0", "atom_type": "CS"}, "11": {"label": "*2", "atom_type": "H0"}}

>  <type>  (6) 
unop_2

>  <geom_source>  (6) 
Heuristics

$$$$

     RDKit          3D

 15 13  0  0  0  0  0  0  0  0999 V2000
   -0.2424    1.7433    3.3722 C   0  0  0  0  0  0  0  0  0  0  0  0
   -0.5042    1.1930    2.3437 C   0  0  0  0  0  0  0  0  0  0  0  0
   -0.8246    0.5194    1.0851 C   0  0  0  0  0  0  0  0  0  0  0  0
   -1.8081   -0.5533    1.2340 C   0  0  0  0  0  0  0  0  0  0  0  0
   -2.6119   -1.4299    1.3557 C   0  0  0  0  0  0  0  0  0  0  0  0
   -0.0095    2.2329    4.2871 H   0  0  0  0  0  0  0  0  0  0  0  0
   -1.2015    1.2556    0.3696 H   0  0  0  0  0  0  0  0  0  0  0  0
   -3.3268   -2.2098    1.4639 H   0  0  0  0  0  0  0  0  0  0  0  0
    1.2773    0.5840   -0.4869 C   0  0  0  0  0  0  0  0  0  0  0  0
    1.2773   -0.6145   -1.3691 C   0  0  0  0  0  0  0  0  0  0  0  0
    1.2773   -0.6145   -2.9758 S   0  0  0  0  0  1  0  0  0  0  0  0
    0.2260    0.5517    0.2994 H   0  0  0  0  0  0  0  0  0  0  0  0
    2.1535    0.5571    0.1683 H   0  0  0  0  0  0  0  0  0  0  0  0
    1.2773    1.5078   -1.0616 H   0  0  0  0  0  0  0  0  0  0  0  0
    1.2774   -1.5689   -0.8392 H   0  0  0  0  0  0  0  0  0  0  0  0
  1  2  3  0
  1  6  1  0
  2  3  1  0
  3  4  1  0
  3  7  1  0
  3 12  1  0
  4  5  3  0
  5  8  1  0
  9 10  2  3
  9 13  1  0
  9 14  1  0
 10 11  1  0
 10 15  1  0
M  RAD  1  11   2
M  END
>  <reaction>  (7) 
rxn_1964

>  <mol_properties>  (7) 
{"1": {"label": "*4", "atom_type": "Ct"}, "2": {"label": "*3", "atom_type": "Cs"}, "8": {"label": "*1", "atom_type": "Cs"}, "9": {"label": "*0", "atom_type": "CS"}, "11": {"label": "*2", "atom_type": "H0"}}

>  <type>  (7) 
unop_3

>  <geom_source>  (7) 
Heuristics

$$$$

     RDKit          3D

 15 13  0  0  0  0  0  0  0  0999 V2000
   -3.0014    0.0062    0.1369 C   0  0  0  0  0  0  0  0  0  0  0  0
   -2.0107    0.0108    0.8060 C   0  0  0  0  0  0  0  0  0  0  0  0
   -0.7983    0.0164    1.6248 C   0  0  0  0  0  0  0  0  0  0  0  0
   -0.3434    1.3606    1.9804 C   0  0  0  0  0  0  0  0  0  0  0  0
    0.0283    2.4591    2.2709 C   0  0  0  0  0  0  0  0  0  0  0  0
   -3.8828    0.0021   -0.4582 H   0  0  0  0  0  0  0  0  0  0  0  0
   -0.9799   -0.5550    2.5394 H   0  0  0  0  0  0  0  0  0  0  0  0
    0.3590    3.4362    2.5294 H   0  0  0  0  0  0  0  0  0  0  0  0
    1.3036    0.0809    0.0528 C   0  0  0  0  0  0  0  0  0  0  0  0
    1.3036   -1.1176   -0.8294 C   0  0  0  0  0  0  0  0  0  0  0  0
    1.3036   -1.1176   -2.4361 S   0  0  0  0  0  1  0  0  0  0  0  0
    0.2523    0.0486    0.8391 H   0  0  0  0  0  0  0  0  0  0  0  0
    2.1798    0.0540    0.7080 H   0  0  0  0  0  0  0  0  0  0  0  0
    1.3036    1.0047   -0.5219 H   0  0  0  0  0  0  0  0  0  0  0  0
    1.3036   -2.0720   -0.2995 H   0  0  0  0  0  0  0  0  0  0  0  0
  1  2  3  0
  1  6  1  0
  2  3  1  0
  3  4  1  0
  3  7  1  0
  3 12  1  0
  4  5  3  0
  5  8  1  0
  9 10  2  3
  9 13  1  0
  9 14  1  0
 10 11  1  0
 10 15  1  0
M  RAD  1  11   2
M  END
>  <reaction>  (8) 
rxn_1964

>  <mol_properties>  (8) 
{"1": {"label": "*4", "atom_type": "Ct"}, "2": {"label": "*3", "atom_type": "Cs"}, "8": {"label": "*1", "atom_type": "Cs"}, "9": {"label": "*0", "atom_type": "CS"}, "11": {"label": "*2", "atom_type": "H0"}}

>  <type>  (8) 
unop_4

>  <geom_source>  (8) 
Heuristics

$$$$

     RDKit          3D

 15 13  0  0  0  0  0  0  0  0999 V2000
   -1.0011    2.5775    2.5944 C   0  0  0  0  0  0  0  0  0  0  0  0
   -1.0083    1.6121    1.8893 C   0  0  0  0  0  0  0  0  0  0  0  0
   -1.0171    0.4307    1.0264 C   0  0  0  0  0  0  0  0  0  0  0  0
   -1.0241   -0.8305    1.7679 C   0  0  0  0  0  0  0  0  0  0  0  0
   -1.0298   -1.8610    2.3738 C   0  0  0  0  0  0  0  0  0  0  0  0
   -0.9947    3.4363    3.2216 H   0  0  0  0  0  0  0  0  0  0  0  0
   -1.8941    0.4688    0.3742 H   0  0  0  0  0  0  0  0  0  0  0  0
   -1.0349   -2.7778    2.9128 H   0  0  0  0  0  0  0  0  0  0  0  0
    1.0849    0.4952   -0.5456 C   0  0  0  0  0  0  0  0  0  0  0  0
    1.0849   -0.7032   -1.4278 C   0  0  0  0  0  0  0  0  0  0  0  0
    1.0849   -0.7032   -3.0345 S   0  0  0  0  0  1  0  0  0  0  0  0
    0.0335    0.4629    0.2407 H   0  0  0  0  0  0  0  0  0  0  0  0
    1.9610    0.4683    0.1096 H   0  0  0  0  0  0  0  0  0  0  0  0
    1.0848    1.4190   -1.1203 H   0  0  0  0  0  0  0  0  0  0  0  0
    1.0849   -1.6577   -0.8979 H   0  0  0  0  0  0  0  0  0  0  0  0
  1  2  3  0
  1  6  1  0
  2  3  1  0
  3  4  1  0
  3  7  1  0
  3 12  1  0
  4  5  3  0
  5  8  1  0
  9 10  2  3
  9 13  1  0
  9 14  1  0
 10 11  1  0
 10 15  1  0
M  RAD  1  11   2
M  END
>  <reaction>  (9) 
rxn_1964

>  <mol_properties>  (9) 
{"1": {"label": "*4", "atom_type": "Ct"}, "2": {"label": "*3", "atom_type": "Cs"}, "8": {"label": "*1", "atom_type": "Cs"}, "9": {"label": "*0", "atom_type": "CS"}, "11": {"label": "*2", "atom_type": "H0"}}

>  <type>  (9) 
unop_5

>  <geom_source>  (9) 
Heuristics

$$$$

     RDKit          3D

 15 13  0  0  0  0  0  0  0  0999 V2000
   -2.9852    1.1855    0.2850 C   0  0  0  0  0  0  0  0  0  0  0  0
   -2.0755    0.6264    0.8226 C   0  0  0  0  0  0  0  0  0  0  0  0
   -0.9622   -0.0578    1.4805 C   0  0  0  0  0  0  0  0  0  0  0  0
   -0.0460    0.8518    2.1686 C   0  0  0  0  0  0  0  0  0  0  0  0
    0.7026    1.5951    2.7309 C   0  0  0  0  0  0  0  0  0  0  0  0
   -3.7945    1.6829   -0.1932 H   0  0  0  0  0  0  0  0  0  0  0  0
   -1.3590   -0.7799    2.1996 H   0  0  0  0  0  0  0  0  0  0  0  0
    1.3686    2.2564    3.2311 H   0  0  0  0  0  0  0  0  0  0  0  0
    1.1397    0.0067   -0.0915 C   0  0  0  0  0  0  0  0  0  0  0  0
    1.1397   -1.1918   -0.9737 C   0  0  0  0  0  0  0  0  0  0  0  0
    1.1397   -1.1918   -2.5803 S   0  0  0  0  0  1  0  0  0  0  0  0
    0.0884   -0.0256    0.6948 H   0  0  0  0  0  0  0  0  0  0  0  0
    2.0159   -0.0202    0.5637 H   0  0  0  0  0  0  0  0  0  0  0  0
    1.1397    0.9305   -0.6662 H   0  0  0  0  0  0  0  0  0  0  0  0
    1.1397   -2.1462   -0.4437 H   0  0  0  0  0  0  0  0  0  0  0  0
  1  2  3  0
  1  6  1  0
  2  3  1  0
  3  4  1  0
  3  7  1  0
  3 12  1  0
  4  5  3  0
  5  8  1  0
  9 10  2  3
  9 13  1  0
  9 14  1  0
 10 11  1  0
 10 15  1  0
M  RAD  1  11   2
M  END
>  <reaction>  (10) 
rxn_1964

>  <mol_properties>  (10) 
{"1": {"label": "*4", "atom_type": "Ct"}, "2": {"label": "*3", "atom_type": "Cs"}, "8": {"label": "*1", "atom_type": "Cs"}, "9": {"label": "*0", "atom_type": "CS"}, "11": {"label": "*2", "atom_type": "H0"}}

>  <type>  (10) 
unop_6

>  <geom_source>  (10) 
Heuristics

$$$$

     RDKit          3D

 15 13  0  0  0  0  0  0  0  0999 V2000
   -2.5928    2.1503    0.8488 C   0  0  0  0  0  0  0  0  0  0  0  0
   -1.9236    1.1799    1.0479 C   0  0  0  0  0  0  0  0  0  0  0  0
   -1.1047   -0.0077    1.2915 C   0  0  0  0  0  0  0  0  0  0  0  0
    0.0057    0.2312    2.2136 C   0  0  0  0  0  0  0  0  0  0  0  0
    0.9131    0.4264    2.9670 C   0  0  0  0  0  0  0  0  0  0  0  0
   -3.1881    3.0136    0.6717 H   0  0  0  0  0  0  0  0  0  0  0  0
   -1.7380   -0.8050    1.6907 H   0  0  0  0  0  0  0  0  0  0  0  0
    1.7203    0.6001    3.6373 H   0  0  0  0  0  0  0  0  0  0  0  0
    0.9972    0.0568   -0.2805 C   0  0  0  0  0  0  0  0  0  0  0  0
    0.9972   -1.1417   -1.1627 C   0  0  0  0  0  0  0  0  0  0  0  0
    0.9972   -1.1417   -2.7694 S   0  0  0  0  0  1  0  0  0  0  0  0
   -0.0542    0.0245    0.5058 H   0  0  0  0  0  0  0  0  0  0  0  0
    1.8734    0.0299    0.3747 H   0  0  0  0  0  0  0  0  0  0  0  0
    0.9972    0.9806   -0.8552 H   0  0  0  0  0  0  0  0  0  0  0  0
    0.9972   -2.0961   -0.6328 H   0  0  0  0  0  0  0  0  0  0  0  0
  1  2  3  0
  1  6  1  0
  2  3  1  0
  3  4  1  0
  3  7  1  0
  3 12  1  0
  4  5  3  0
  5  8  1  0
  9 10  2  3
  9 13  1  0
  9 14  1  0
 10 11  1  0
 10 15  1  0
M  RAD  1  11   2
M  END
>  <reaction>  (11) 
rxn_1964

>  <mol_properties>  (11) 
{"1": {"label": "*4", "atom_type": "Ct"}, "2": {"label": "*3", "atom_type": "Cs"}, "8": {"label": "*1", "atom_type": "Cs"}, "9": {"label": "*0", "atom_type": "CS"}, "11": {"label": "*2", "atom_type": "H0"}}

>  <type>  (11) 
unop_7

>  <geom_source>  (11) 
Heuristics

$$$$

     RDKit          3D

 15 13  0  0  0  0  0  0  0  0999 V2000
   -0.0780   -0.7020    3.4428 C   0  0  0  0  0  0  0  0  0  0  0  0
   -0.3590   -0.1236    2.4349 C   0  0  0  0  0  0  0  0  0  0  0  0
   -0.7029    0.5843    1.2016 C   0  0  0  0  0  0  0  0  0  0  0  0
   -2.1436    0.6659    0.9608 C   0  0  0  0  0  0  0  0  0  0  0  0
   -3.3209    0.7325    0.7639 C   0  0  0  0  0  0  0  0  0  0  0  0
    0.1719   -1.2166    4.3393 H   0  0  0  0  0  0  0  0  0  0  0  0
   -0.2873    1.5951    1.2398 H   0  0  0  0  0  0  0  0  0  0  0  0
   -4.3682    0.7918    0.5888 H   0  0  0  0  0  0  0  0  0  0  0  0
    1.3991    0.6488   -0.3704 C   0  0  0  0  0  0  0  0  0  0  0  0
    1.3991   -0.5496   -1.2526 C   0  0  0  0  0  0  0  0  0  0  0  0
    1.3991   -0.5496   -2.8592 S   0  0  0  0  0  1  0  0  0  0  0  0
    0.3477    0.6166    0.4159 H   0  0  0  0  0  0  0  0  0  0  0  0
    2.2752    0.6219    0.2849 H   0  0  0  0  0  0  0  0  0  0  0  0
    1.3990    1.5726   -0.9450 H   0  0  0  0  0  0  0  0  0  0  0  0
    1.3991   -1.5041   -0.7226 H   0  0  0  0  0  0  0  0  0  0  0  0
  1  2  3  0
  1  6  1  0
  2  3  1  0
  3  4  1  0
  3  7  1  0
  3 12  1  0
  4  5  3  0
  5  8  1  0
  9 10  2  3
  9 13  1  0
  9 14  1  0
 10 11  1  0
 10 15  1  0
M  RAD  1  11   2
M  END
>  <reaction>  (12) 
rxn_1964

>  <mol_properties>  (12) 
{"1": {"label": "*4", "atom_type": "Ct"}, "2": {"label": "*3", "atom_type": "Cs"}, "8": {"label": "*1", "atom_type": "Cs"}, "9": {"label": "*0", "atom_type": "CS"}, "11": {"label": "*2", "atom_type": "H0"}}

>  <type>  (12) 
unop_8

>  <geom_source>  (12) 
Heuristics

$$$$

     RDKit          3D

 15 13  0  0  0  0  0  0  0  0999 V2000
   -2.6336   -1.0799    0.4400 C   0  0  0  0  0  0  0  0  0  0  0  0
   -1.7431   -0.5102    0.9983 C   0  0  0  0  0  0  0  0  0  0  0  0
   -0.6533    0.1869    1.6815 C   0  0  0  0  0  0  0  0  0  0  0  0
   -0.8187    1.6403    1.7066 C   0  0  0  0  0  0  0  0  0  0  0  0
   -0.9538    2.8280    1.7271 C   0  0  0  0  0  0  0  0  0  0  0  0
   -3.4258   -1.5867   -0.0566 H   0  0  0  0  0  0  0  0  0  0  0  0
   -0.5772   -0.1837    2.7075 H   0  0  0  0  0  0  0  0  0  0  0  0
   -1.0740    3.8845    1.7454 H   0  0  0  0  0  0  0  0  0  0  0  0
    1.4486    0.2514    0.1095 C   0  0  0  0  0  0  0  0  0  0  0  0
    1.4486   -0.9470   -0.7727 C   0  0  0  0  0  0  0  0  0  0  0  0
    1.4486   -0.9470   -2.3794 S   0  0  0  0  0  1  0  0  0  0  0  0
    0.3973    0.2192    0.8958 H   0  0  0  0  0  0  0  0  0  0  0  0
    2.3248    0.2246    0.7647 H   0  0  0  0  0  0  0  0  0  0  0  0
    1.4486    1.1752   -0.4652 H   0  0  0  0  0  0  0  0  0  0  0  0
    1.4486   -1.9015   -0.2428 H   0  0  0  0  0  0  0  0  0  0  0  0
  1  2  3  0
  1  6  1  0
  2  3  1  0
  3  4  1  0
  3  7  1  0
  3 12  1  0
  4  5  3  0
  5  8  1  0
  9 10  2  3
  9 13  1  0
  9 14  1  0
 10 11  1  0
 10 15  1  0
M  RAD  1  11   2
M  END
>  <reaction>  (13) 
rxn_1964

>  <mol_properties>  (13) 
{"1": {"label": "*4", "atom_type": "Ct"}, "2": {"label": "*3", "atom_type": "Cs"}, "8": {"label": "*1", "atom_type": "Cs"}, "9": {"label": "*0", "atom_type": "CS"}, "11": {"label": "*2", "atom_type": "H0"}}

>  <type>  (13) 
unop_9

>  <geom_source>  (13) 
Heuristics

$$$$

     RDKit          3D

 15 13  0  0  0  0  0  0  0  0999 V2000
   -0.5520   -1.5899    2.8014 C   0  0  0  0  0  0  0  0  0  0  0  0
   -0.5924   -0.6001    2.1321 C   0  0  0  0  0  0  0  0  0  0  0  0
   -0.6419    0.6111    1.3131 C   0  0  0  0  0  0  0  0  0  0  0  0
   -1.9996    1.1117    1.0973 C   0  0  0  0  0  0  0  0  0  0  0  0
   -3.1090    1.5207    0.9210 C   0  0  0  0  0  0  0  0  0  0  0  0
   -0.5160   -2.4703    3.3968 H   0  0  0  0  0  0  0  0  0  0  0  0
   -0.0428    1.3919    1.7899 H   0  0  0  0  0  0  0  0  0  0  0  0
   -4.0959    1.8846    0.7641 H   0  0  0  0  0  0  0  0  0  0  0  0
    1.4600    0.6757   -0.2589 C   0  0  0  0  0  0  0  0  0  0  0  0
    1.4600   -0.5228   -1.1411 C   0  0  0  0  0  0  0  0  0  0  0  0
    1.4600   -0.5228   -2.7478 S   0  0  0  0  0  1  0  0  0  0  0  0
    0.4087    0.6434    0.5274 H   0  0  0  0  0  0  0  0  0  0  0  0
    2.3362    0.6488    0.3963 H   0  0  0  0  0  0  0  0  0  0  0  0
    1.4600    1.5995   -0.8336 H   0  0  0  0  0  0  0  0  0  0  0  0
    1.4600   -1.4772   -0.6112 H   0  0  0  0  0  0  0  0  0  0  0  0
  1  2  3  0
  1  6  1  0
  2  3  1  0
  3  4  1  0
  3  7  1  0
  3 12  1  0
  4  5  3  0
  5  8  1  0
  9 10  2  3
  9 13  1  0
  9 14  1  0
 10 11  1  0
 10 15  1  0
M  RAD  1  11   2
M  END
>  <reaction>  (14) 
rxn_1964

>  <mol_properties>  (14) 
{"1": {"label": "*4", "atom_type": "Ct"}, "2": {"label": "*3", "atom_type": "Cs"}, "8": {"label": "*1", "atom_type": "Cs"}, "9": {"label": "*0", "atom_type": "CS"}, "11": {"label": "*2", "atom_type": "H0"}}

>  <type>  (14) 
unop_10

>  <geom_source>  (14) 
Heuristics

$$$$

     RDKit          3D

 15 13  0  0  0  0  0  0  0  0999 V2000
   -1.9000    2.6696    1.6755 C   0  0  0  0  0  0  0  0  0  0  0  0
   -1.5664    1.5504    1.4197 C   0  0  0  0  0  0  0  0  0  0  0  0
   -1.1583    0.1808    1.1067 C   0  0  0  0  0  0  0  0  0  0  0  0
   -0.2704   -0.4049    2.1111 C   0  0  0  0  0  0  0  0  0  0  0  0
    0.4552   -0.8835    2.9319 C   0  0  0  0  0  0  0  0  0  0  0  0
   -2.1967    3.6652    1.9030 H   0  0  0  0  0  0  0  0  0  0  0  0
   -2.0491   -0.4453    1.0059 H   0  0  0  0  0  0  0  0  0  0  0  0
    1.1006   -1.3093    3.6621 H   0  0  0  0  0  0  0  0  0  0  0  0
    0.9437    0.2454   -0.4653 C   0  0  0  0  0  0  0  0  0  0  0  0
    0.9437   -0.9531   -1.3475 C   0  0  0  0  0  0  0  0  0  0  0  0
    0.9437   -0.9531   -2.9542 S   0  0  0  0  0  1  0  0  0  0  0  0
   -0.1077    0.2131    0.3210 H   0  0  0  0  0  0  0  0  0  0  0  0
    1.8198    0.2185    0.1899 H   0  0  0  0  0  0  0  0  0  0  0  0
    0.9437    1.1692   -1.0400 H   0  0  0  0  0  0  0  0  0  0  0  0
    0.9437   -1.9075   -0.8176 H   0  0  0  0  0  0  0  0  0  0  0  0
  1  2  3  0
  1  6  1  0
  2  3  1  0
  3  4  1  0
  3  7  1  0
  3 12  1  0
  4  5  3  0
  5  8  1  0
  9 10  2  3
  9 13  1  0
  9 14  1  0
 10 11  1  0
 10 15  1  0
M  RAD  1  11   2
M  END
>  <reaction>  (15) 
rxn_1964

>  <mol_properties>  (15) 
{"1": {"label": "*4", "atom_type": "Ct"}, "2": {"label": "*3", "atom_type": "Cs"}, "8": {"label": "*1", "atom_type": "Cs"}, "9": {"label": "*0", "atom_type": "CS"}, "11": {"label": "*2", "atom_type": "H0"}}

>  <type>  (15) 
unop_11

>  <geom_source>  (15) 
Heuristics

$$$$

     RDKit          3D

 15 13  0  0  0  0  0  0  0  0999 V2000
   -1.9855   -1.7915    1.0987 C   0  0  0  0  0  0  0  0  0  0  0  0
   -1.3496   -0.8068    1.3336 C   0  0  0  0  0  0  0  0  0  0  0  0
   -0.5714    0.3983    1.6210 C   0  0  0  0  0  0  0  0  0  0  0  0
   -1.3338    1.6358    1.4550 C   0  0  0  0  0  0  0  0  0  0  0  0
   -1.9568    2.6471    1.3193 C   0  0  0  0  0  0  0  0  0  0  0  0
   -2.5512   -2.6675    0.8897 H   0  0  0  0  0  0  0  0  0  0  0  0
   -0.1918    0.3449    2.6452 H   0  0  0  0  0  0  0  0  0  0  0  0
   -2.5110    3.5467    1.1986 H   0  0  0  0  0  0  0  0  0  0  0  0
    1.5305    0.4628    0.0490 C   0  0  0  0  0  0  0  0  0  0  0  0
    1.5305   -0.7357   -0.8332 C   0  0  0  0  0  0  0  0  0  0  0  0
    1.5305   -0.7357   -2.4398 S   0  0  0  0  0  1  0  0  0  0  0  0
    0.4792    0.4305    0.8353 H   0  0  0  0  0  0  0  0  0  0  0  0
    2.4067    0.4359    0.7042 H   0  0  0  0  0  0  0  0  0  0  0  0
    1.5305    1.3866   -0.5257 H   0  0  0  0  0  0  0  0  0  0  0  0
    1.5305   -1.6901   -0.3032 H   0  0  0  0  0  0  0  0  0  0  0  0
  1  2  3  0
  1  6  1  0
  2  3  1  0
  3  4  1  0
  3  7  1  0
  3 12  1  0
  4  5  3  0
  5  8  1  0
  9 10  2  3
  9 13  1  0
  9 14  1  0
 10 11  1  0
 10 15  1  0
M  RAD  1  11   2
M  END
>  <reaction>  (16) 
rxn_1964

>  <mol_properties>  (16) 
{"1": {"label": "*4", "atom_type": "Ct"}, "2": {"label": "*3", "atom_type": "Cs"}, "8": {"label": "*1", "atom_type": "Cs"}, "9": {"label": "*0", "atom_type": "CS"}, "11": {"label": "*2", "atom_type": "H0"}}

>  <type>  (16) 
unop_12

>  <geom_source>  (16) 
Heuristics

$$$$

     RDKit          3D

 15 13  0  0  0  0  0  0  0  0999 V2000
    2.7201    1.6196    0.5914 S   0  0  0  0  0  0  0  0  0  0  0  0
   -0.8401    0.0312   -0.6532 C   0  0  0  0  0  3  0  0  0  0  0  0
    1.7285   -0.4669   -0.4597 C   0  0  0  0  0  0  0  0  0  0  0  0
    2.3949    0.2257    0.6831 C   0  0  0  0  0  0  0  0  0  0  0  0
   -1.6318   -1.0827   -0.1277 C   0  0  0  0  0  0  0  0  0  0  0  0
   -1.3515    1.2957   -0.1208 C   0  0  0  0  0  0  0  0  0  0  0  0
   -2.2824   -2.0013    0.3043 C   0  0  0  0  0  0  0  0  0  0  0  0
   -1.7710    2.3379    0.3168 C   0  0  0  0  0  0  0  0  0  0  0  0
   -0.9077    0.0424   -1.7606 H   0  0  0  0  0  0  0  0  0  0  0  0
    0.4950   -0.1272   -0.2714 H   0  0  0  0  0  0  0  0  0  0  0  0
    2.5768   -0.3074    1.6107 H   0  0  0  0  0  0  0  0  0  0  0  0
    1.4486   -1.4997   -0.1645 H   0  0  0  0  0  0  0  0  0  0  0  0
    2.4136   -0.5123   -1.3330 H   0  0  0  0  0  0  0  0  0  0  0  0
   -2.8535   -2.8076    0.6834 H   0  0  0  0  0  0  0  0  0  0  0  0
   -2.1394    3.2526    0.7010 H   0  0  0  0  0  0  0  0  0  0  0  0
  1  4  2  0
  2  5  1  0
  2  6  1  0
  2  9  1  0
  3  4  1  0
  3 10  1  0
  3 12  1  0
  3 13  1  0
  4 11  1  0
  5  7  3  0
  6  8  3  0
  7 14  1  0
  8 15  1  0
M  RAD  1   2   2
M  END
>  <reaction>  (17) 
rxn_1964

>  <mol_properties>  (17) 
{"1": {"label": "*4", "atom_type": "Ct"}, "2": {"label": "*3", "atom_type": "Cs"}, "8": {"label": "*1", "atom_type": "Cs"}, "9": {"label": "*0", "atom_type": "CS"}, "11": {"label": "*2", "atom_type": "H0"}}

>  <type>  (17) 
unop_13

>  <geom_source>  (17) 
AutoTST

$$$$
