
     RDKit          3D

 10  9  0  0  0  0  0  0  0  0999 V2000
    1.8334    0.0847   -0.1062 C   0  0  0  0  0  0  0  0  0  0  0  0
    0.5993   -0.4071   -0.0750 C   0  0  0  0  0  0  0  0  0  0  0  0
   -0.5993    0.4071    0.0750 C   0  0  0  0  0  0  0  0  0  0  0  0
   -1.8334   -0.0847    0.1062 C   0  0  0  0  0  0  0  0  0  0  0  0
    2.0179    1.1498   -0.0189 H   0  0  0  0  0  0  0  0  0  0  0  0
    2.6972   -0.5572   -0.2194 H   0  0  0  0  0  0  0  0  0  0  0  0
    0.4465   -1.4793   -0.1649 H   0  0  0  0  0  0  0  0  0  0  0  0
   -0.4465    1.4793    0.1649 H   0  0  0  0  0  0  0  0  0  0  0  0
   -2.0179   -1.1498    0.0189 H   0  0  0  0  0  0  0  0  0  0  0  0
   -2.6972    0.5572    0.2194 H   0  0  0  0  0  0  0  0  0  0  0  0
  1  2  2  3
  1  5  1  0
  1  6  1  0
  2  3  1  0
  2  7  1  0
  3  4  2  3
  3  8  1  0
  4  9  1  0
  4 10  1  0
M  END
>  <reaction>  (1) 
rxn_1654

>  <mol_properties>  (1) 
{"2": {"label": "donator", "atom_type": "Cd"}, "7": {"label": "d_hydrogen", "atom_type": "H0"}}

>  <type>  (1) 
r1h

$$$$

     RDKit          3D

 12 11  0  0  0  0  0  0  0  0999 V2000
   -2.3791    0.4612   -0.5870 C   0  0  0  0  0  0  0  0  0  0  0  0
   -1.3422   -0.3138   -0.1893 C   0  0  0  0  0  0  0  0  0  0  0  0
   -1.4723   -1.6058    0.3589 C   0  0  0  0  0  3  0  0  0  0  0  0
   -0.3798   -2.3973    0.7671 C   0  0  0  0  0  0  0  0  0  0  0  0
   -0.4849   -3.6397    1.2956 C   0  0  0  0  0  0  0  0  0  0  0  0
   -2.2205    1.4472   -1.0017 H   0  0  0  0  0  0  0  0  0  0  0  0
   -3.4026    0.1153   -0.5011 H   0  0  0  0  0  0  0  0  0  0  0  0
   -0.3330    0.0765   -0.2952 H   0  0  0  0  0  0  0  0  0  0  0  0
   -2.4723   -2.0151    0.4735 H   0  0  0  0  0  0  0  0  0  0  0  0
    0.6117   -1.9687    0.6436 H   0  0  0  0  0  0  0  0  0  0  0  0
    0.3893   -4.2030    1.5920 H   0  0  0  0  0  0  0  0  0  0  0  0
   -1.4516   -4.1084    1.4378 H   0  0  0  0  0  0  0  0  0  0  0  0
  1  2  2  3
  1  6  1  0
  1  7  1  0
  2  3  1  0
  2  8  1  0
  3  4  1  0
  3  9  1  0
  4  5  2  3
  4 10  1  0
  5 11  1  0
  5 12  1  0
M  RAD  1   3   2
M  END
>  <reaction>  (2) 
rxn_1654

>  <mol_properties>  (2) 
{"2": {"label": "acceptor", "atom_type": "Cs"}}

>  <type>  (2) 
r2

$$$$

     RDKit          3D

 13 12  0  0  0  0  0  0  0  0999 V2000
    3.0977   -0.3549   -0.5105 C   0  0  0  0  0  0  0  0  0  0  0  0
    2.0556    0.4221   -0.2627 C   0  0  0  0  0  0  0  0  0  0  0  0
    0.6313   -0.0354   -0.2366 C   0  0  0  0  0  0  0  0  0  0  0  0
   -0.2567    0.6038   -1.2694 C   0  0  0  0  0  0  0  0  0  0  0  0
    0.1459    1.3456   -2.2891 C   0  0  0  0  0  0  0  0  0  0  0  0
    4.1081    0.0344   -0.5074 H   0  0  0  0  0  0  0  0  0  0  0  0
    2.9777   -1.4116   -0.7243 H   0  0  0  0  0  0  0  0  0  0  0  0
    2.2171    1.4781   -0.0618 H   0  0  0  0  0  0  0  0  0  0  0  0
    0.5865   -1.1233   -0.3540 H   0  0  0  0  0  0  0  0  0  0  0  0
    0.2065    0.1743    0.7521 H   0  0  0  0  0  0  0  0  0  0  0  0
   -1.3190    0.4126   -1.1445 H   0  0  0  0  0  0  0  0  0  0  0  0
    1.1948    1.5564   -2.4628 H   0  0  0  0  0  0  0  0  0  0  0  0
   -0.5644    1.7621   -2.9918 H   0  0  0  0  0  0  0  0  0  0  0  0
  1  2  2  3
  1  6  1  0
  1  7  1  0
  2  3  1  0
  2  8  1  0
  3  4  1  0
  3  9  1  0
  3 10  1  0
  4  5  2  3
  4 11  1  0
  5 12  1  0
  5 13  1  0
M  END
>  <reaction>  (3) 
rxn_1654

>  <mol_properties>  (3) 
{"2": {"label": "acceptor", "atom_type": "Cs"}, "12": {"label": "a_hydrogen", "atom_type": "H0"}}

>  <type>  (3) 
r2h

$$$$

     RDKit          3D

 22 20  0  0  0  0  0  0  0  0999 V2000
   -1.5038    2.4414    1.4158 C   0  0  0  0  0  0  0  0  0  0  0  0
   -1.0666    1.7309    0.3799 C   0  0  0  0  0  0  0  0  0  0  0  0
    0.2978    1.2027    0.2438 C   0  0  0  0  0  0  0  0  0  0  0  0
    0.9434    1.1896   -1.0834 C   0  0  0  0  0  0  0  0  0  0  0  0
    0.4138    1.5997   -2.2318 C   0  0  0  0  0  0  0  0  0  0  0  0
   -2.5324    2.7725    1.4797 H   0  0  0  0  0  0  0  0  0  0  0  0
   -0.8444    2.7177    2.2312 H   0  0  0  0  0  0  0  0  0  0  0  0
   -1.7654    1.4733   -0.4111 H   0  0  0  0  0  0  0  0  0  0  0  0
    0.9689    1.5471    1.0326 H   0  0  0  0  0  0  0  0  0  0  0  0
    1.9457    0.7708   -1.0969 H   0  0  0  0  0  0  0  0  0  0  0  0
    0.9671    1.5174   -3.1583 H   0  0  0  0  0  0  0  0  0  0  0  0
   -0.5729    2.0430   -2.2893 H   0  0  0  0  0  0  0  0  0  0  0  0
    1.1223   -2.7710   -0.9079 C   0  0  0  0  0  0  0  0  0  0  0  0
    1.0939   -2.2310    0.3160 C   0  0  0  0  0  0  0  0  0  0  0  0
    0.0218   -1.4285    0.8172 C   0  0  0  0  0  3  0  0  0  0  0  0
   -1.1329   -1.6065    1.4125 C   0  0  0  0  0  0  0  0  0  0  0  0
    0.2863   -2.6637   -1.5880 H   0  0  0  0  0  0  0  0  0  0  0  0
    1.9815   -3.3324   -1.2509 H   0  0  0  0  0  0  0  0  0  0  0  0
    1.9652   -2.3298    0.9591 H   0  0  0  0  0  0  0  0  0  0  0  0
    0.2196   -0.0318    0.5372 H   0  0  0  0  0  0  0  0  0  0  0  0
   -1.4900   -2.5988    1.6784 H   0  0  0  0  0  0  0  0  0  0  0  0
   -1.7719   -0.7649    1.6603 H   0  0  0  0  0  0  0  0  0  0  0  0
  1  2  2  3
  1  6  1  0
  1  7  1  0
  2  3  1  0
  2  8  1  0
  3  4  1  0
  3  9  1  0
  3 20  1  0
  4  5  2  3
  4 10  1  0
  5 11  1  0
  5 12  1  0
 13 14  2  3
 13 17  1  0
 13 18  1  0
 14 15  1  0
 14 19  1  0
 15 16  2  3
 16 21  1  0
 16 22  1  0
M  RAD  1  15   2
M  END
>  <reaction>  (4) 
rxn_1654

>  <mol_properties>  (4) 
{"1": {"label": "*0", "atom_type": "Cd"}, "2": {"label": "*1", "atom_type": "Cs"}, "13": {"label": "*4", "atom_type": "Cd"}, "14": {"label": "*3", "atom_type": "Cd"}, "19": {"label": "*2", "atom_type": "H0"}}

>  <type>  (4) 
ts

$$$$

     RDKit          3D

 22 20  0  0  0  0  0  0  0  0999 V2000
   -1.1757    2.3150    1.2244 C   0  0  0  0  0  0  0  0  0  0  0  0
   -1.0508    1.5706    0.1375 C   0  0  0  0  0  0  0  0  0  0  0  0
    0.1742    0.7970   -0.2365 C   0  0  0  0  0  3  0  0  0  0  0  0
    0.8208    1.2227   -1.5266 C   0  0  0  0  0  0  0  0  0  0  0  0
    0.5313    2.3133   -2.2186 C   0  0  0  0  0  0  0  0  0  0  0  0
   -2.0931    2.8462    1.4449 H   0  0  0  0  0  0  0  0  0  0  0  0
   -0.3633    2.4188    1.9357 H   0  0  0  0  0  0  0  0  0  0  0  0
   -1.8852    1.4993   -0.5555 H   0  0  0  0  0  0  0  0  0  0  0  0
    0.9141    0.8576    0.5685 H   0  0  0  0  0  0  0  0  0  0  0  0
    1.5988    0.5582   -1.8924 H   0  0  0  0  0  0  0  0  0  0  0  0
    1.0539    2.5472   -3.1374 H   0  0  0  0  0  0  0  0  0  0  0  0
   -0.2289    3.0128   -1.8904 H   0  0  0  0  0  0  0  0  0  0  0  0
    0.1742   -2.6882   -1.0871 C   0  0  0  0  0  0  0  0  0  0  0  0
    0.1742   -2.6882    0.2418 C   0  0  0  0  0  0  0  0  0  0  0  0
    0.1742   -1.4808    1.0571 C   0  0  0  0  0  0  0  0  0  0  0  0
    0.1742   -1.4808    2.3860 C   0  0  0  0  0  0  0  0  0  0  0  0
    0.1742   -1.7616   -1.6505 H   0  0  0  0  0  0  0  0  0  0  0  0
    0.1742   -3.6097   -1.6543 H   0  0  0  0  0  0  0  0  0  0  0  0
    0.1742   -3.6331    0.7784 H   0  0  0  0  0  0  0  0  0  0  0  0
    0.1742   -0.3469    0.4132 H   0  0  0  0  0  0  0  0  0  0  0  0
    0.1742   -2.4074    2.9494 H   0  0  0  0  0  0  0  0  0  0  0  0
    0.1742   -0.5593    2.9532 H   0  0  0  0  0  0  0  0  0  0  0  0
  1  2  2  3
  1  6  1  0
  1  7  1  0
  2  3  1  0
  2  8  1  0
  3  4  1  0
  3  9  1  0
  4  5  2  3
  4 10  1  0
  5 11  1  0
  5 12  1  0
 13 14  2  3
 13 17  1  0
 13 18  1  0
 14 15  1  0
 14 19  1  0
 15 16  2  3
 15 20  1  0
 16 21  1  0
 16 22  1  0
M  RAD  1   3   2
M  END
>  <reaction>  (5) 
rxn_1654

>  <mol_properties>  (5) 
{"1": {"label": "*0", "atom_type": "Cd"}, "2": {"label": "*1", "atom_type": "Cs"}, "13": {"label": "*4", "atom_type": "Cd"}, "14": {"label": "*3", "atom_type": "Cd"}, "19": {"label": "*2", "atom_type": "H0"}}

>  <type>  (5) 
unop_1

>  <geom_source>  (5) 
Heuristics

$$$$

     RDKit          3D

 22 20  0  0  0  0  0  0  0  0999 V2000
   -1.9586    1.2152   -1.5009 C   0  0  0  0  0  0  0  0  0  0  0  0
   -0.7242    0.8132   -1.2445 C   0  0  0  0  0  0  0  0  0  0  0  0
   -0.0170    0.9937    0.0617 C   0  0  0  0  0  3  0  0  0  0  0  0
    1.2194    1.8488   -0.0022 C   0  0  0  0  0  0  0  0  0  0  0  0
    1.5976    2.5933   -1.0292 C   0  0  0  0  0  0  0  0  0  0  0  0
   -2.4198    1.0479   -2.4662 H   0  0  0  0  0  0  0  0  0  0  0  0
   -2.5546    1.7258   -0.7520 H   0  0  0  0  0  0  0  0  0  0  0  0
   -0.1563    0.3128   -2.0247 H   0  0  0  0  0  0  0  0  0  0  0  0
   -0.7036    1.4170    0.8024 H   0  0  0  0  0  0  0  0  0  0  0  0
    1.8316    1.8400    0.8954 H   0  0  0  0  0  0  0  0  0  0  0  0
    2.5025    3.1860   -0.9865 H   0  0  0  0  0  0  0  0  0  0  0  0
    1.0161    2.6441   -1.9425 H   0  0  0  0  0  0  0  0  0  0  0  0
   -0.0170   -2.4915   -0.7889 C   0  0  0  0  0  0  0  0  0  0  0  0
   -0.0170   -2.4915    0.5400 C   0  0  0  0  0  0  0  0  0  0  0  0
   -0.0170   -1.2841    1.3552 C   0  0  0  0  0  0  0  0  0  0  0  0
   -0.0170   -1.2841    2.6841 C   0  0  0  0  0  0  0  0  0  0  0  0
   -0.0170   -1.5649   -1.3524 H   0  0  0  0  0  0  0  0  0  0  0  0
   -0.0170   -3.4130   -1.3561 H   0  0  0  0  0  0  0  0  0  0  0  0
   -0.0170   -3.4364    1.0766 H   0  0  0  0  0  0  0  0  0  0  0  0
   -0.0170   -0.1502    0.7113 H   0  0  0  0  0  0  0  0  0  0  0  0
   -0.0170   -2.2107    3.2476 H   0  0  0  0  0  0  0  0  0  0  0  0
   -0.0170   -0.3626    3.2513 H   0  0  0  0  0  0  0  0  0  0  0  0
  1  2  2  3
  1  6  1  0
  1  7  1  0
  2  3  1  0
  2  8  1  0
  3  4  1  0
  3  9  1  0
  4  5  2  3
  4 10  1  0
  5 11  1  0
  5 12  1  0
 13 14  2  3
 13 17  1  0
 13 18  1  0
 14 15  1  0
 14 19  1  0
 15 16  2  3
 15 20  1  0
 16 21  1  0
 16 22  1  0
M  RAD  1   3   2
M  END
>  <reaction>  (6) 
rxn_1654

>  <mol_properties>  (6) 
{"1": {"label": "*0", "atom_type": "Cd"}, "2": {"label": "*1", "atom_type": "Cs"}, "13": {"label": "*4", "atom_type": "Cd"}, "14": {"label": "*3", "atom_type": "Cd"}, "19": {"label": "*2", "atom_type": "H0"}}

>  <type>  (6) 
unop_2

>  <geom_source>  (6) 
Heuristics

$$$$

     RDKit          3D

 22 20  0  0  0  0  0  0  0  0999 V2000
    0.0514    2.6497    1.3939 C   0  0  0  0  0  0  0  0  0  0  0  0
   -0.5379    1.8147    0.5534 C   0  0  0  0  0  0  0  0  0  0  0  0
    0.1693    0.7855   -0.2708 C   0  0  0  0  0  3  0  0  0  0  0  0
    0.0460    0.9736   -1.7585 C   0  0  0  0  0  0  0  0  0  0  0  0
   -0.4366    2.0441   -2.3695 C   0  0  0  0  0  0  0  0  0  0  0  0
   -0.5172    3.3690    1.9700 H   0  0  0  0  0  0  0  0  0  0  0  0
    1.1266    2.6428    1.5380 H   0  0  0  0  0  0  0  0  0  0  0  0
   -1.6171    1.8593    0.4306 H   0  0  0  0  0  0  0  0  0  0  0  0
    1.2308    0.7580   -0.0031 H   0  0  0  0  0  0  0  0  0  0  0  0
    0.4027    0.1410   -2.3586 H   0  0  0  0  0  0  0  0  0  0  0  0
   -0.4819    2.0981   -3.4498 H   0  0  0  0  0  0  0  0  0  0  0  0
   -0.7949    2.9045   -1.8161 H   0  0  0  0  0  0  0  0  0  0  0  0
    0.1693   -2.6997   -1.1214 C   0  0  0  0  0  0  0  0  0  0  0  0
    0.1693   -2.6997    0.2075 C   0  0  0  0  0  0  0  0  0  0  0  0
    0.1693   -1.4923    1.0227 C   0  0  0  0  0  0  0  0  0  0  0  0
    0.1693   -1.4923    2.3516 C   0  0  0  0  0  0  0  0  0  0  0  0
    0.1693   -1.7731   -1.6849 H   0  0  0  0  0  0  0  0  0  0  0  0
    0.1693   -3.6212   -1.6886 H   0  0  0  0  0  0  0  0  0  0  0  0
    0.1693   -3.6446    0.7441 H   0  0  0  0  0  0  0  0  0  0  0  0
    0.1693   -0.3584    0.3788 H   0  0  0  0  0  0  0  0  0  0  0  0
    0.1693   -2.4190    2.9151 H   0  0  0  0  0  0  0  0  0  0  0  0
    0.1693   -0.5708    2.9188 H   0  0  0  0  0  0  0  0  0  0  0  0
  1  2  2  3
  1  6  1  0
  1  7  1  0
  2  3  1  0
  2  8  1  0
  3  4  1  0
  3  9  1  0
  4  5  2  3
  4 10  1  0
  5 11  1  0
  5 12  1  0
 13 14  2  3
 13 17  1  0
 13 18  1  0
 14 15  1  0
 14 19  1  0
 15 16  2  3
 15 20  1  0
 16 21  1  0
 16 22  1  0
M  RAD  1   3   2
M  END
>  <reaction>  (7) 
rxn_1654

>  <mol_properties>  (7) 
{"1": {"label": "*0", "atom_type": "Cd"}, "2": {"label": "*1", "atom_type": "Cs"}, "13": {"label": "*4", "atom_type": "Cd"}, "14": {"label": "*3", "atom_type": "Cd"}, "19": {"label": "*2", "atom_type": "H0"}}

>  <type>  (7) 
unop_3

>  <geom_source>  (7) 
Heuristics

$$$$

     RDKit          3D

 22 20  0  0  0  0  0  0  0  0999 V2000
    0.8821    1.7457   -2.4129 C   0  0  0  0  0  0  0  0  0  0  0  0
    0.7818    1.0515   -1.2909 C   0  0  0  0  0  0  0  0  0  0  0  0
   -0.4431    0.9764   -0.4349 C   0  0  0  0  0  3  0  0  0  0  0  0
   -0.2756    1.5224    0.9570 C   0  0  0  0  0  0  0  0  0  0  0  0
    0.7564    2.2242    1.3980 C   0  0  0  0  0  0  0  0  0  0  0  0
    1.7956    1.7541   -2.9943 H   0  0  0  0  0  0  0  0  0  0  0  0
    0.0512    2.3309   -2.7926 H   0  0  0  0  0  0  0  0  0  0  0  0
    1.6402    0.4849   -0.9391 H   0  0  0  0  0  0  0  0  0  0  0  0
   -1.2725    1.4984   -0.9237 H   0  0  0  0  0  0  0  0  0  0  0  0
   -1.0980    1.3125    1.6355 H   0  0  0  0  0  0  0  0  0  0  0  0
    0.7915    2.5858    2.4178 H   0  0  0  0  0  0  0  0  0  0  0  0
    1.5961    2.4686    0.7577 H   0  0  0  0  0  0  0  0  0  0  0  0
   -0.4431   -2.5088   -1.2855 C   0  0  0  0  0  0  0  0  0  0  0  0
   -0.4431   -2.5088    0.0433 C   0  0  0  0  0  0  0  0  0  0  0  0
   -0.4431   -1.3014    0.8586 C   0  0  0  0  0  0  0  0  0  0  0  0
   -0.4431   -1.3014    2.1875 C   0  0  0  0  0  0  0  0  0  0  0  0
   -0.4431   -1.5822   -1.8490 H   0  0  0  0  0  0  0  0  0  0  0  0
   -0.4431   -3.4303   -1.8527 H   0  0  0  0  0  0  0  0  0  0  0  0
   -0.4431   -3.4537    0.5800 H   0  0  0  0  0  0  0  0  0  0  0  0
   -0.4431   -0.1675    0.2147 H   0  0  0  0  0  0  0  0  0  0  0  0
   -0.4431   -2.2281    2.7510 H   0  0  0  0  0  0  0  0  0  0  0  0
   -0.4431   -0.3799    2.7547 H   0  0  0  0  0  0  0  0  0  0  0  0
  1  2  2  3
  1  6  1  0
  1  7  1  0
  2  3  1  0
  2  8  1  0
  3  4  1  0
  3  9  1  0
  4  5  2  3
  4 10  1  0
  5 11  1  0
  5 12  1  0
 13 14  2  3
 13 17  1  0
 13 18  1  0
 14 15  1  0
 14 19  1  0
 15 16  2  3
 15 20  1  0
 16 21  1  0
 16 22  1  0
M  RAD  1   3   2
M  END
>  <reaction>  (8) 
rxn_1654

>  <mol_properties>  (8) 
{"1": {"label": "*0", "atom_type": "Cd"}, "2": {"label": "*1", "atom_type": "Cs"}, "13": {"label": "*4", "atom_type": "Cd"}, "14": {"label": "*3", "atom_type": "Cd"}, "19": {"label": "*2", "atom_type": "H0"}}

>  <type>  (8) 
unop_4

>  <geom_source>  (8) 
Heuristics

$$$$

     RDKit          3D

 22 20  0  0  0  0  0  0  0  0999 V2000
    1.1824    2.8680    0.6821 C   0  0  0  0  0  0  0  0  0  0  0  0
    0.2536    1.9292    0.6000 C   0  0  0  0  0  0  0  0  0  0  0  0
    0.2536    0.8064   -0.3890 C   0  0  0  0  0  3  0  0  0  0  0  0
   -0.9129    0.8015   -1.3393 C   0  0  0  0  0  0  0  0  0  0  0  0
   -1.7866    1.7823   -1.5029 C   0  0  0  0  0  0  0  0  0  0  0  0
    1.1310    3.6523    1.4269 H   0  0  0  0  0  0  0  0  0  0  0  0
    2.0312    2.8851    0.0067 H   0  0  0  0  0  0  0  0  0  0  0  0
   -0.5863    1.9521    1.2897 H   0  0  0  0  0  0  0  0  0  0  0  0
    1.1831    0.8188   -0.9677 H   0  0  0  0  0  0  0  0  0  0  0  0
   -1.0146   -0.0994   -1.9382 H   0  0  0  0  0  0  0  0  0  0  0  0
   -2.5950    1.6971   -2.2178 H   0  0  0  0  0  0  0  0  0  0  0  0
   -1.7220    2.7048   -0.9373 H   0  0  0  0  0  0  0  0  0  0  0  0
    0.2536   -2.6788   -1.2395 C   0  0  0  0  0  0  0  0  0  0  0  0
    0.2536   -2.6788    0.0893 C   0  0  0  0  0  0  0  0  0  0  0  0
    0.2536   -1.4715    0.9046 C   0  0  0  0  0  0  0  0  0  0  0  0
    0.2536   -1.4715    2.2335 C   0  0  0  0  0  0  0  0  0  0  0  0
    0.2536   -1.7522   -1.8030 H   0  0  0  0  0  0  0  0  0  0  0  0
    0.2536   -3.6004   -1.8067 H   0  0  0  0  0  0  0  0  0  0  0  0
    0.2536   -3.6238    0.6259 H   0  0  0  0  0  0  0  0  0  0  0  0
    0.2536   -0.3376    0.2607 H   0  0  0  0  0  0  0  0  0  0  0  0
    0.2536   -2.3981    2.7970 H   0  0  0  0  0  0  0  0  0  0  0  0
    0.2536   -0.5500    2.8007 H   0  0  0  0  0  0  0  0  0  0  0  0
  1  2  2  3
  1  6  1  0
  1  7  1  0
  2  3  1  0
  2  8  1  0
  3  4  1  0
  3  9  1  0
  4  5  2  3
  4 10  1  0
  5 11  1  0
  5 12  1  0
 13 14  2  3
 13 17  1  0
 13 18  1  0
 14 15  1  0
 14 19  1  0
 15 16  2  3
 15 20  1  0
 16 21  1  0
 16 22  1  0
M  RAD  1   3   2
M  END
>  <reaction>  (9) 
rxn_1654

>  <mol_properties>  (9) 
{"1": {"label": "*0", "atom_type": "Cd"}, "2": {"label": "*1", "atom_type": "Cs"}, "13": {"label": "*4", "atom_type": "Cd"}, "14": {"label": "*3", "atom_type": "Cd"}, "19": {"label": "*2", "atom_type": "H0"}}

>  <type>  (9) 
unop_5

>  <geom_source>  (9) 
Heuristics

$$$$

     RDKit          3D

 22 20  0  0  0  0  0  0  0  0999 V2000
    1.4937    2.2042   -1.8044 C   0  0  0  0  0  0  0  0  0  0  0  0
    1.1083    1.3369   -0.8823 C   0  0  0  0  0  0  0  0  0  0  0  0
   -0.3061    0.9126   -0.6413 C   0  0  0  0  0  3  0  0  0  0  0  0
   -0.8454    1.2560    0.7207 C   0  0  0  0  0  0  0  0  0  0  0  0
   -0.2693    2.0528    1.6069 C   0  0  0  0  0  0  0  0  0  0  0  0
    2.5363    2.4655   -1.9359 H   0  0  0  0  0  0  0  0  0  0  0  0
    0.7787    2.6840   -2.4642 H   0  0  0  0  0  0  0  0  0  0  0  0
    1.8548    0.8844   -0.2346 H   0  0  0  0  0  0  0  0  0  0  0  0
   -0.9614    1.3483   -1.4029 H   0  0  0  0  0  0  0  0  0  0  0  0
   -1.8008    0.8000    0.9655 H   0  0  0  0  0  0  0  0  0  0  0  0
   -0.7333    2.2514    2.5646 H   0  0  0  0  0  0  0  0  0  0  0  0
    0.6782    2.5395    1.4061 H   0  0  0  0  0  0  0  0  0  0  0  0
   -0.3061   -2.5726   -1.4919 C   0  0  0  0  0  0  0  0  0  0  0  0
   -0.3061   -2.5726   -0.1630 C   0  0  0  0  0  0  0  0  0  0  0  0
   -0.3061   -1.3653    0.6523 C   0  0  0  0  0  0  0  0  0  0  0  0
   -0.3061   -1.3653    1.9812 C   0  0  0  0  0  0  0  0  0  0  0  0
   -0.3061   -1.6460   -2.0553 H   0  0  0  0  0  0  0  0  0  0  0  0
   -0.3061   -3.4941   -2.0591 H   0  0  0  0  0  0  0  0  0  0  0  0
   -0.3061   -3.5175    0.3736 H   0  0  0  0  0  0  0  0  0  0  0  0
   -0.3061   -0.2313    0.0084 H   0  0  0  0  0  0  0  0  0  0  0  0
   -0.3061   -2.2919    2.5446 H   0  0  0  0  0  0  0  0  0  0  0  0
   -0.3061   -0.4437    2.5484 H   0  0  0  0  0  0  0  0  0  0  0  0
  1  2  2  3
  1  6  1  0
  1  7  1  0
  2  3  1  0
  2  8  1  0
  3  4  1  0
  3  9  1  0
  4  5  2  3
  4 10  1  0
  5 11  1  0
  5 12  1  0
 13 14  2  3
 13 17  1  0
 13 18  1  0
 14 15  1  0
 14 19  1  0
 15 16  2  3
 15 20  1  0
 16 21  1  0
 16 22  1  0
M  RAD  1   3   2
M  END
>  <reaction>  (10) 
rxn_1654

>  <mol_properties>  (10) 
{"1": {"label": "*0", "atom_type": "Cd"}, "2": {"label": "*1", "atom_type": "Cs"}, "13": {"label": "*4", "atom_type": "Cd"}, "14": {"label": "*3", "atom_type": "Cd"}, "19": {"label": "*2", "atom_type": "H0"}}

>  <type>  (10) 
unop_6

>  <geom_source>  (10) 
Heuristics

$$$$

     RDKit          3D

 22 20  0  0  0  0  0  0  0  0999 V2000
    1.6806    2.6225   -1.0654 C   0  0  0  0  0  0  0  0  0  0  0  0
    1.1590    1.6365   -0.3535 C   0  0  0  0  0  0  0  0  0  0  0  0
   -0.0659    0.8630   -0.7275 C   0  0  0  0  0  3  0  0  0  0  0  0
   -1.2106    0.9853    0.2412 C   0  0  0  0  0  0  0  0  0  0  0  0
   -1.2942    1.8487    1.2410 C   0  0  0  0  0  0  0  0  0  0  0  0
    2.5761    3.1403   -0.7453 H   0  0  0  0  0  0  0  0  0  0  0  0
    1.2306    2.9470   -1.9976 H   0  0  0  0  0  0  0  0  0  0  0  0
    1.6348    1.3468    0.5799 H   0  0  0  0  0  0  0  0  0  0  0  0
   -0.4089    1.1653   -1.7226 H   0  0  0  0  0  0  0  0  0  0  0  0
   -2.0320    0.2944    0.0723 H   0  0  0  0  0  0  0  0  0  0  0  0
   -2.1620    1.8724    1.8878 H   0  0  0  0  0  0  0  0  0  0  0  0
   -0.5065    2.5650    1.4443 H   0  0  0  0  0  0  0  0  0  0  0  0
   -0.0659   -2.6222   -1.5781 C   0  0  0  0  0  0  0  0  0  0  0  0
   -0.0659   -2.6222   -0.2492 C   0  0  0  0  0  0  0  0  0  0  0  0
   -0.0659   -1.4149    0.5661 C   0  0  0  0  0  0  0  0  0  0  0  0
   -0.0659   -1.4149    1.8950 C   0  0  0  0  0  0  0  0  0  0  0  0
   -0.0659   -1.6956   -2.1415 H   0  0  0  0  0  0  0  0  0  0  0  0
   -0.0659   -3.5438   -2.1453 H   0  0  0  0  0  0  0  0  0  0  0  0
   -0.0659   -3.5672    0.2874 H   0  0  0  0  0  0  0  0  0  0  0  0
   -0.0659   -0.2810   -0.0779 H   0  0  0  0  0  0  0  0  0  0  0  0
   -0.0659   -2.3415    2.4584 H   0  0  0  0  0  0  0  0  0  0  0  0
   -0.0659   -0.4934    2.4622 H   0  0  0  0  0  0  0  0  0  0  0  0
  1  2  2  3
  1  6  1  0
  1  7  1  0
  2  3  1  0
  2  8  1  0
  3  4  1  0
  3  9  1  0
  4  5  2  3
  4 10  1  0
  5 11  1  0
  5 12  1  0
 13 14  2  3
 13 17  1  0
 13 18  1  0
 14 15  1  0
 14 19  1  0
 15 16  2  3
 15 20  1  0
 16 21  1  0
 16 22  1  0
M  RAD  1   3   2
M  END
>  <reaction>  (11) 
rxn_1654

>  <mol_properties>  (11) 
{"1": {"label": "*0", "atom_type": "Cd"}, "2": {"label": "*1", "atom_type": "Cs"}, "13": {"label": "*4", "atom_type": "Cd"}, "14": {"label": "*3", "atom_type": "Cd"}, "19": {"label": "*2", "atom_type": "H0"}}

>  <type>  (11) 
unop_7

>  <geom_source>  (11) 
Heuristics

$$$$

     RDKit          3D

 22 20  0  0  0  0  0  0  0  0999 V2000
   -1.9770    1.8961    0.4899 C   0  0  0  0  0  0  0  0  0  0  0  0
   -1.2120    1.2709   -0.3903 C   0  0  0  0  0  0  0  0  0  0  0  0
    0.2025    0.8465   -0.1493 C   0  0  0  0  0  3  0  0  0  0  0  0
    1.2186    1.4938   -1.0506 C   0  0  0  0  0  0  0  0  0  0  0  0
    0.9995    2.5183   -1.8597 C   0  0  0  0  0  0  0  0  0  0  0  0
   -2.9985    2.1708    0.2586 H   0  0  0  0  0  0  0  0  0  0  0  0
   -1.6089    2.1548    1.4771 H   0  0  0  0  0  0  0  0  0  0  0  0
   -1.6152    1.0371   -1.3723 H   0  0  0  0  0  0  0  0  0  0  0  0
    0.4778    1.0401    0.8928 H   0  0  0  0  0  0  0  0  0  0  0  0
    2.2155    1.0644   -1.0031 H   0  0  0  0  0  0  0  0  0  0  0  0
    1.7940    2.9276   -2.4707 H   0  0  0  0  0  0  0  0  0  0  0  0
    0.0257    2.9882   -1.9352 H   0  0  0  0  0  0  0  0  0  0  0  0
    0.2025   -2.6387   -0.9999 C   0  0  0  0  0  0  0  0  0  0  0  0
    0.2025   -2.6387    0.3290 C   0  0  0  0  0  0  0  0  0  0  0  0
    0.2025   -1.4313    1.1443 C   0  0  0  0  0  0  0  0  0  0  0  0
    0.2025   -1.4313    2.4732 C   0  0  0  0  0  0  0  0  0  0  0  0
    0.2025   -1.7121   -1.5633 H   0  0  0  0  0  0  0  0  0  0  0  0
    0.2025   -3.5602   -1.5671 H   0  0  0  0  0  0  0  0  0  0  0  0
    0.2025   -3.5836    0.8656 H   0  0  0  0  0  0  0  0  0  0  0  0
    0.2025   -0.2974    0.5003 H   0  0  0  0  0  0  0  0  0  0  0  0
    0.2025   -2.3579    3.0366 H   0  0  0  0  0  0  0  0  0  0  0  0
    0.2025   -0.5098    3.0404 H   0  0  0  0  0  0  0  0  0  0  0  0
  1  2  2  3
  1  6  1  0
  1  7  1  0
  2  3  1  0
  2  8  1  0
  3  4  1  0
  3  9  1  0
  4  5  2  3
  4 10  1  0
  5 11  1  0
  5 12  1  0
 13 14  2  3
 13 17  1  0
 13 18  1  0
 14 15  1  0
 14 19  1  0
 15 16  2  3
 15 20  1  0
 16 21  1  0
 16 22  1  0
M  RAD  1   3   2
M  END
>  <reaction>  (12) 
rxn_1654

>  <mol_properties>  (12) 
{"1": {"label": "*0", "atom_type": "Cd"}, "2": {"label": "*1", "atom_type": "Cs"}, "13": {"label": "*4", "atom_type": "Cd"}, "14": {"label": "*3", "atom_type": "Cd"}, "19": {"label": "*2", "atom_type": "H0"}}

>  <type>  (12) 
unop_8

>  <geom_source>  (12) 
Heuristics

$$$$

     RDKit          3D

 22 20  0  0  0  0  0  0  0  0999 V2000
   -0.1077    1.3682   -2.6409 C   0  0  0  0  0  0  0  0  0  0  0  0
    0.2811    0.8460   -1.4889 C   0  0  0  0  0  0  0  0  0  0  0  0
   -0.4261    1.0266   -0.1828 C   0  0  0  0  0  3  0  0  0  0  0  0
    0.3759    1.7306    0.8779 C   0  0  0  0  0  0  0  0  0  0  0  0
    1.5245    2.3621    0.6932 C   0  0  0  0  0  0  0  0  0  0  0  0
    0.4435    1.1943   -3.5566 H   0  0  0  0  0  0  0  0  0  0  0  0
   -0.9949    1.9887   -2.7103 H   0  0  0  0  0  0  0  0  0  0  0  0
    1.1809    0.2369   -1.4594 H   0  0  0  0  0  0  0  0  0  0  0  0
   -1.3639    1.5702   -0.3382 H   0  0  0  0  0  0  0  0  0  0  0  0
   -0.0587    1.7087    1.8735 H   0  0  0  0  0  0  0  0  0  0  0  0
    2.0323    2.8501    1.5153 H   0  0  0  0  0  0  0  0  0  0  0  0
    1.9932    2.4211   -0.2823 H   0  0  0  0  0  0  0  0  0  0  0  0
   -0.4261   -2.4586   -1.0334 C   0  0  0  0  0  0  0  0  0  0  0  0
   -0.4261   -2.4586    0.2955 C   0  0  0  0  0  0  0  0  0  0  0  0
   -0.4261   -1.2513    1.1108 C   0  0  0  0  0  0  0  0  0  0  0  0
   -0.4261   -1.2513    2.4397 C   0  0  0  0  0  0  0  0  0  0  0  0
   -0.4261   -1.5320   -1.5968 H   0  0  0  0  0  0  0  0  0  0  0  0
   -0.4261   -3.3802   -1.6006 H   0  0  0  0  0  0  0  0  0  0  0  0
   -0.4261   -3.4036    0.8321 H   0  0  0  0  0  0  0  0  0  0  0  0
   -0.4261   -0.1174    0.4669 H   0  0  0  0  0  0  0  0  0  0  0  0
   -0.4261   -2.1779    3.0031 H   0  0  0  0  0  0  0  0  0  0  0  0
   -0.4261   -0.3298    3.0069 H   0  0  0  0  0  0  0  0  0  0  0  0
  1  2  2  3
  1  6  1  0
  1  7  1  0
  2  3  1  0
  2  8  1  0
  3  4  1  0
  3  9  1  0
  4  5  2  3
  4 10  1  0
  5 11  1  0
  5 12  1  0
 13 14  2  3
 13 17  1  0
 13 18  1  0
 14 15  1  0
 14 19  1  0
 15 16  2  3
 15 20  1  0
 16 21  1  0
 16 22  1  0
M  RAD  1   3   2
M  END
>  <reaction>  (13) 
rxn_1654

>  <mol_properties>  (13) 
{"1": {"label": "*0", "atom_type": "Cd"}, "2": {"label": "*1", "atom_type": "Cs"}, "13": {"label": "*4", "atom_type": "Cd"}, "14": {"label": "*3", "atom_type": "Cd"}, "19": {"label": "*2", "atom_type": "H0"}}

>  <type>  (13) 
unop_9

>  <geom_source>  (13) 
Heuristics

$$$$

     RDKit          3D

 22 20  0  0  0  0  0  0  0  0999 V2000
   -2.2391    1.4880   -0.4934 C   0  0  0  0  0  0  0  0  0  0  0  0
   -1.0728    0.9962   -0.8793 C   0  0  0  0  0  0  0  0  0  0  0  0
    0.1521    0.9211   -0.0233 C   0  0  0  0  0  3  0  0  0  0  0  0
    1.3234    1.7214   -0.5249 C   0  0  0  0  0  0  0  0  0  0  0  0
    1.2940    2.6136   -1.5022 C   0  0  0  0  0  0  0  0  0  0  0  0
   -3.0936    1.5076   -1.1583 H   0  0  0  0  0  0  0  0  0  0  0  0
   -2.3824    1.8881    0.5047 H   0  0  0  0  0  0  0  0  0  0  0  0
   -0.9673    0.6128   -1.8909 H   0  0  0  0  0  0  0  0  0  0  0  0
   -0.0854    1.2405    0.9969 H   0  0  0  0  0  0  0  0  0  0  0  0
    2.2624    1.5337   -0.0115 H   0  0  0  0  0  0  0  0  0  0  0  0
    2.1868    3.1515   -1.7948 H   0  0  0  0  0  0  0  0  0  0  0  0
    0.3803    2.8440   -2.0378 H   0  0  0  0  0  0  0  0  0  0  0  0
    0.1521   -2.5641   -0.8739 C   0  0  0  0  0  0  0  0  0  0  0  0
    0.1521   -2.5641    0.4549 C   0  0  0  0  0  0  0  0  0  0  0  0
    0.1521   -1.3567    1.2702 C   0  0  0  0  0  0  0  0  0  0  0  0
    0.1521   -1.3567    2.5991 C   0  0  0  0  0  0  0  0  0  0  0  0
    0.1521   -1.6375   -1.4374 H   0  0  0  0  0  0  0  0  0  0  0  0
    0.1521   -3.4856   -1.4411 H   0  0  0  0  0  0  0  0  0  0  0  0
    0.1521   -3.5090    0.9916 H   0  0  0  0  0  0  0  0  0  0  0  0
    0.1521   -0.2228    0.6263 H   0  0  0  0  0  0  0  0  0  0  0  0
    0.1521   -2.2833    3.1626 H   0  0  0  0  0  0  0  0  0  0  0  0
    0.1521   -0.4352    3.1663 H   0  0  0  0  0  0  0  0  0  0  0  0
  1  2  2  3
  1  6  1  0
  1  7  1  0
  2  3  1  0
  2  8  1  0
  3  4  1  0
  3  9  1  0
  4  5  2  3
  4 10  1  0
  5 11  1  0
  5 12  1  0
 13 14  2  3
 13 17  1  0
 13 18  1  0
 14 15  1  0
 14 19  1  0
 15 16  2  3
 15 20  1  0
 16 21  1  0
 16 22  1  0
M  RAD  1   3   2
M  END
>  <reaction>  (14) 
rxn_1654

>  <mol_properties>  (14) 
{"1": {"label": "*0", "atom_type": "Cd"}, "2": {"label": "*1", "atom_type": "Cs"}, "13": {"label": "*4", "atom_type": "Cd"}, "14": {"label": "*3", "atom_type": "Cd"}, "19": {"label": "*2", "atom_type": "H0"}}

>  <type>  (14) 
unop_10

>  <geom_source>  (14) 
Heuristics

$$$$

     RDKit          3D

 22 20  0  0  0  0  0  0  0  0999 V2000
    1.5875    2.8766   -0.2958 C   0  0  0  0  0  0  0  0  0  0  0  0
    0.8894    1.8634    0.1910 C   0  0  0  0  0  0  0  0  0  0  0  0
    0.1822    0.8342   -0.6332 C   0  0  0  0  0  3  0  0  0  0  0  0
   -1.3113    0.7985   -0.4540 C   0  0  0  0  0  0  0  0  0  0  0  0
   -2.0397    1.7013    0.1835 C   0  0  0  0  0  0  0  0  0  0  0  0
    2.0848    3.5860    0.3538 H   0  0  0  0  0  0  0  0  0  0  0  0
    1.6887    3.0325   -1.3645 H   0  0  0  0  0  0  0  0  0  0  0  0
    0.8044    1.7468    1.2684 H   0  0  0  0  0  0  0  0  0  0  0  0
    0.4091    0.9851   -1.6938 H   0  0  0  0  0  0  0  0  0  0  0  0
   -1.8089   -0.0537   -0.9088 H   0  0  0  0  0  0  0  0  0  0  0  0
   -3.1150    1.6001    0.2584 H   0  0  0  0  0  0  0  0  0  0  0  0
   -1.5920    2.5741    0.6447 H   0  0  0  0  0  0  0  0  0  0  0  0
    0.1822   -2.6510   -1.4837 C   0  0  0  0  0  0  0  0  0  0  0  0
    0.1822   -2.6510   -0.1549 C   0  0  0  0  0  0  0  0  0  0  0  0
    0.1822   -1.4437    0.6604 C   0  0  0  0  0  0  0  0  0  0  0  0
    0.1822   -1.4437    1.9893 C   0  0  0  0  0  0  0  0  0  0  0  0
    0.1822   -1.7244   -2.0472 H   0  0  0  0  0  0  0  0  0  0  0  0
    0.1822   -3.5726   -2.0509 H   0  0  0  0  0  0  0  0  0  0  0  0
    0.1822   -3.5960    0.3817 H   0  0  0  0  0  0  0  0  0  0  0  0
    0.1822   -0.3098    0.0165 H   0  0  0  0  0  0  0  0  0  0  0  0
    0.1822   -2.3703    2.5528 H   0  0  0  0  0  0  0  0  0  0  0  0
    0.1822   -0.5222    2.5565 H   0  0  0  0  0  0  0  0  0  0  0  0
  1  2  2  3
  1  6  1  0
  1  7  1  0
  2  3  1  0
  2  8  1  0
  3  4  1  0
  3  9  1  0
  4  5  2  3
  4 10  1  0
  5 11  1  0
  5 12  1  0
 13 14  2  3
 13 17  1  0
 13 18  1  0
 14 15  1  0
 14 19  1  0
 15 16  2  3
 15 20  1  0
 16 21  1  0
 16 22  1  0
M  RAD  1   3   2
M  END
>  <reaction>  (15) 
rxn_1654

>  <mol_properties>  (15) 
{"1": {"label": "*0", "atom_type": "Cd"}, "2": {"label": "*1", "atom_type": "Cs"}, "13": {"label": "*4", "atom_type": "Cd"}, "14": {"label": "*3", "atom_type": "Cd"}, "19": {"label": "*2", "atom_type": "H0"}}

>  <type>  (15) 
unop_11

>  <geom_source>  (15) 
Heuristics

$$$$

     RDKit          3D

 22 20  0  0  0  0  0  0  0  0999 V2000
   -1.1824    1.1711   -2.3060 C   0  0  0  0  0  0  0  0  0  0  0  0
   -0.2536    0.7606   -1.4577 C   0  0  0  0  0  0  0  0  0  0  0  0
   -0.2536    1.0348    0.0132 C   0  0  0  0  0  3  0  0  0  0  0  0
    0.9129    1.8485    0.5043 C   0  0  0  0  0  0  0  0  0  0  0  0
    1.7866    2.4914   -0.2543 C   0  0  0  0  0  0  0  0  0  0  0  0
   -1.1310    0.9332   -3.3611 H   0  0  0  0  0  0  0  0  0  0  0  0
   -2.0312    1.7599   -1.9747 H   0  0  0  0  0  0  0  0  0  0  0  0
    0.5863    0.1801   -1.8307 H   0  0  0  0  0  0  0  0  0  0  0  0
   -1.1831    1.5382    0.2990 H   0  0  0  0  0  0  0  0  0  0  0  0
    1.0146    1.9013    1.5848 H   0  0  0  0  0  0  0  0  0  0  0  0
    2.5950    3.0617    0.1852 H   0  0  0  0  0  0  0  0  0  0  0  0
    1.7220    2.4783   -1.3362 H   0  0  0  0  0  0  0  0  0  0  0  0
   -0.2536   -2.4504   -0.8373 C   0  0  0  0  0  0  0  0  0  0  0  0
   -0.2536   -2.4504    0.4915 C   0  0  0  0  0  0  0  0  0  0  0  0
   -0.2536   -1.2431    1.3068 C   0  0  0  0  0  0  0  0  0  0  0  0
   -0.2536   -1.2431    2.6357 C   0  0  0  0  0  0  0  0  0  0  0  0
   -0.2536   -1.5238   -1.4008 H   0  0  0  0  0  0  0  0  0  0  0  0
   -0.2536   -3.3720   -1.4045 H   0  0  0  0  0  0  0  0  0  0  0  0
   -0.2536   -3.3954    1.0281 H   0  0  0  0  0  0  0  0  0  0  0  0
   -0.2536   -0.1092    0.6629 H   0  0  0  0  0  0  0  0  0  0  0  0
   -0.2536   -2.1697    3.1992 H   0  0  0  0  0  0  0  0  0  0  0  0
   -0.2536   -0.3216    3.2029 H   0  0  0  0  0  0  0  0  0  0  0  0
  1  2  2  3
  1  6  1  0
  1  7  1  0
  2  3  1  0
  2  8  1  0
  3  4  1  0
  3  9  1  0
  4  5  2  3
  4 10  1  0
  5 11  1  0
  5 12  1  0
 13 14  2  3
 13 17  1  0
 13 18  1  0
 14 15  1  0
 14 19  1  0
 15 16  2  3
 15 20  1  0
 16 21  1  0
 16 22  1  0
M  RAD  1   3   2
M  END
>  <reaction>  (16) 
rxn_1654

>  <mol_properties>  (16) 
{"1": {"label": "*0", "atom_type": "Cd"}, "2": {"label": "*1", "atom_type": "Cs"}, "13": {"label": "*4", "atom_type": "Cd"}, "14": {"label": "*3", "atom_type": "Cd"}, "19": {"label": "*2", "atom_type": "H0"}}

>  <type>  (16) 
unop_12

>  <geom_source>  (16) 
Heuristics

$$$$

     RDKit          3D

 22 20  0  0  0  0  0  0  0  0999 V2000
    0.8496    0.0572    0.3207 C   0  0  0  0  0  3  0  0  0  0  0  0
    1.3435   -1.3585    0.4198 C   0  0  0  0  0  0  0  0  0  0  0  0
    1.9227    0.9777   -0.1856 C   0  0  0  0  0  0  0  0  0  0  0  0
   -2.5819    0.3398   -0.1728 C   0  0  0  0  0  0  0  0  0  0  0  0
    0.5212   -2.3401    0.7945 C   0  0  0  0  0  0  0  0  0  0  0  0
    2.9751    1.3109    0.5674 C   0  0  0  0  0  0  0  0  0  0  0  0
   -2.5980    0.6336    1.1223 C   0  0  0  0  0  0  0  0  0  0  0  0
   -1.3286    0.2991   -2.2708 C   0  0  0  0  0  0  0  0  0  0  0  0
   -1.3772    0.5818   -0.9741 C   0  0  0  0  0  0  0  0  0  0  0  0
    0.4903    0.4066    1.3132 H   0  0  0  0  0  0  0  0  0  0  0  0
   -0.3211    0.0955   -0.6546 H   0  0  0  0  0  0  0  0  0  0  0  0
    2.3768   -1.5993    0.1827 H   0  0  0  0  0  0  0  0  0  0  0  0
    1.8277    1.3945   -1.1833 H   0  0  0  0  0  0  0  0  0  0  0  0
   -3.4681   -0.0810   -0.6333 H   0  0  0  0  0  0  0  0  0  0  0  0
   -0.5177   -2.1361    1.0366 H   0  0  0  0  0  0  0  0  0  0  0  0
    0.8869   -3.3596    0.8611 H   0  0  0  0  0  0  0  0  0  0  0  0
    3.7306    1.9851    0.1772 H   0  0  0  0  0  0  0  0  0  0  0  0
    3.0897    0.9152    1.5722 H   0  0  0  0  0  0  0  0  0  0  0  0
   -3.4903    0.4525    1.7074 H   0  0  0  0  0  0  0  0  0  0  0  0
   -1.7278    1.0552    1.6108 H   0  0  0  0  0  0  0  0  0  0  0  0
   -2.1827   -0.1229   -2.7862 H   0  0  0  0  0  0  0  0  0  0  0  0
   -0.4208    0.4928   -2.8255 H   0  0  0  0  0  0  0  0  0  0  0  0
  1  2  1  0
  1  3  1  0
  1 10  1  0
  2  5  2  3
  2 12  1  0
  3  6  2  3
  3 13  1  0
  4  7  2  3
  4  9  1  0
  4 14  1  0
  5 15  1  0
  5 16  1  0
  6 17  1  0
  6 18  1  0
  7 19  1  0
  7 20  1  0
  8  9  2  3
  8 21  1  0
  8 22  1  0
  9 11  1  0
M  RAD  1   1   2
M  END
>  <reaction>  (17) 
rxn_1654

>  <mol_properties>  (17) 
{"1": {"label": "*0", "atom_type": "Cd"}, "2": {"label": "*1", "atom_type": "Cs"}, "13": {"label": "*4", "atom_type": "Cd"}, "14": {"label": "*3", "atom_type": "Cd"}, "19": {"label": "*2", "atom_type": "H0"}}

>  <type>  (17) 
unop_13

>  <geom_source>  (17) 
AutoTST

$$$$
