
     RDKit          3D

  7  6  0  0  0  0  0  0  0  0999 V2000
    1.2985   -0.0065   -0.2721 C   0  0  0  0  0  0  0  0  0  0  0  0
    0.0000    0.0000   -0.2926 C   0  0  0  0  0  0  0  0  0  0  0  0
   -1.2985    0.0065   -0.3130 C   0  0  0  0  0  0  0  0  0  0  0  0
    1.8444   -0.7551    0.2895 H   0  0  0  0  0  0  0  0  0  0  0  0
    1.8693    0.7364   -0.8162 H   0  0  0  0  0  0  0  0  0  0  0  0
   -1.8658    0.5623    0.4239 H   0  0  0  0  0  0  0  0  0  0  0  0
   -1.8479   -0.5437   -1.0675 H   0  0  0  0  0  0  0  0  0  0  0  0
  1  2  2  0
  1  4  1  0
  1  5  1  0
  2  3  2  0
  3  6  1  0
  3  7  1  0
M  END
>  <reaction>  (1) 
rxn_1838

>  <mol_properties>  (1) 
{"0": {"label": "donator", "atom_type": "Cd"}, "3": {"label": "d_hydrogen", "atom_type": "H0"}}

>  <type>  (1) 
r1h

$$$$

     RDKit          3D

  7  6  0  0  0  0  0  0  0  0999 V2000
   -0.6904   -0.9066   -0.0346 C   0  0  0  0  0  0  0  0  0  0  0  0
    0.1413    0.0254   -0.6161 C   0  0  0  0  0  0  0  0  0  0  0  0
    0.4603    0.1105   -1.9267 C   0  0  0  0  0  3  0  0  0  0  0  0
    0.8318    0.2180   -3.4201 S   0  0  0  0  0  0  0  0  0  0  0  0
   -0.8731   -0.8770    1.0287 H   0  0  0  0  0  0  0  0  0  0  0  0
   -1.1718   -1.6767   -0.6199 H   0  0  0  0  0  0  0  0  0  0  0  0
    0.6090    0.7866    0.0044 H   0  0  0  0  0  0  0  0  0  0  0  0
  1  2  2  3
  1  5  1  0
  1  6  1  0
  2  3  1  0
  2  7  1  0
  3  4  2  0
M  RAD  1   3   2
M  END
>  <reaction>  (2) 
rxn_1838

>  <mol_properties>  (2) 
{"2": {"label": "acceptor", "atom_type": "CS"}}

>  <type>  (2) 
r2

$$$$

     RDKit          3D

  8  7  0  0  0  0  0  0  0  0999 V2000
   -1.1617    0.0338    0.5053 C   0  0  0  0  0  0  0  0  0  0  0  0
   -0.1023    0.4503   -0.1863 C   0  0  0  0  0  0  0  0  0  0  0  0
    1.0978   -0.3557   -0.3104 C   0  0  0  0  0  0  0  0  0  0  0  0
    2.4251    0.0667   -1.1256 S   0  0  0  0  0  0  0  0  0  0  0  0
   -1.1653   -0.9292    1.0039 H   0  0  0  0  0  0  0  0  0  0  0  0
   -2.0546    0.6389    0.5948 H   0  0  0  0  0  0  0  0  0  0  0  0
   -0.0991    1.4132   -0.6847 H   0  0  0  0  0  0  0  0  0  0  0  0
    1.0601   -1.3180    0.2032 H   0  0  0  0  0  0  0  0  0  0  0  0
  1  2  2  3
  1  5  1  0
  1  6  1  0
  2  3  1  0
  2  7  1  0
  3  4  2  0
  3  8  1  0
M  END
>  <reaction>  (3) 
rxn_1838

>  <mol_properties>  (3) 
{"0": {"label": "a_hydrogen", "atom_type": "H0"}, "3": {"label": "acceptor", "atom_type": "CS"}}

>  <type>  (3) 
r2h

$$$$

     RDKit          3D

 14 12  0  0  0  0  0  0  0  0999 V2000
    1.0542    1.4114   -0.5309 C   0  0  0  0  0  0  0  0  0  0  0  0
    1.0978    1.4675   -1.8004 C   0  0  0  0  0  0  0  0  0  0  0  0
    1.0778    1.4385   -3.1169 C   0  0  0  0  0  3  0  0  0  0  0  0
    0.3247    0.4368    0.0848 H   0  0  0  0  0  0  0  0  0  0  0  0
    1.5038    2.0140    0.2442 H   0  0  0  0  0  0  0  0  0  0  0  0
    0.3362    1.9968   -3.6749 H   0  0  0  0  0  0  0  0  0  0  0  0
    1.8239    0.8845   -3.6730 H   0  0  0  0  0  0  0  0  0  0  0  0
   -1.0519   -1.4066   -1.2614 C   0  0  0  0  0  0  0  0  0  0  0  0
   -1.0561   -1.4101    0.0714 C   0  0  0  0  0  0  0  0  0  0  0  0
   -0.3258   -0.4320    0.8445 C   0  0  0  0  0  0  0  0  0  0  0  0
   -0.1935   -0.2524    2.4177 S   0  0  0  0  0  0  0  0  0  0  0  0
   -1.6066   -2.1496   -1.8205 H   0  0  0  0  0  0  0  0  0  0  0  0
   -0.4982   -0.6670   -1.8271 H   0  0  0  0  0  0  0  0  0  0  0  0
   -1.6158   -2.1578    0.6259 H   0  0  0  0  0  0  0  0  0  0  0  0
  1  2  3  0
  1  5  1  0
  2  3  1  0
  3  6  1  0
  3  7  1  0
  4 10  1  0
  8  9  2  3
  8 12  1  0
  8 13  1  0
  9 10  1  0
  9 14  1  0
 10 11  2  0
M  RAD  1   3   2
M  END
>  <reaction>  (4) 
rxn_1838

>  <mol_properties>  (4) 
{"0": {"label": "*3", "atom_type": "Ct"}, "1": {"label": "*4", "atom_type": "Ct"}, "3": {"label": "*2", "atom_type": "H0"}, "9": {"label": "*1", "atom_type": "CS"}, "10": {"label": "*0", "atom_type": "S2d"}}

>  <type>  (4) 
ts

$$$$

     RDKit          3D

 14 12  0  0  0  0  0  0  0  0999 V2000
    0.9177    1.2391   -0.6712 C   0  0  0  0  0  0  0  0  0  0  0  0
    0.9177    1.2391   -1.9698 C   0  0  0  0  0  0  0  0  0  0  0  0
    0.9177    1.2391   -3.2685 C   0  0  0  0  0  0  0  0  0  0  0  0
    0.2541    0.3442   -0.0011 H   0  0  0  0  0  0  0  0  0  0  0  0
    1.4707    1.9849   -0.1127 H   0  0  0  0  0  0  0  0  0  0  0  0
    0.1719    1.7921   -3.8269 H   0  0  0  0  0  0  0  0  0  0  0  0
    1.6634    0.6861   -3.8269 H   0  0  0  0  0  0  0  0  0  0  0  0
    1.5785   -1.8592    1.1798 C   0  0  0  0  0  0  0  0  0  0  0  0
    0.3913   -1.3843    1.5528 C   0  0  0  0  0  0  0  0  0  0  0  0
   -0.4145   -0.5574    0.6740 C   0  0  0  0  0  3  0  0  0  0  0  0
   -1.8600    0.0601    1.0402 S   0  0  0  0  0  0  0  0  0  0  0  0
    2.1757   -2.4756    1.8391 H   0  0  0  0  0  0  0  0  0  0  0  0
    1.9882   -1.6435    0.1992 H   0  0  0  0  0  0  0  0  0  0  0  0
   -0.0180   -1.6002    2.5333 H   0  0  0  0  0  0  0  0  0  0  0  0
  1  2  2  0
  1  4  1  0
  1  5  1  0
  2  3  2  0
  3  6  1  0
  3  7  1  0
  8  9  2  3
  8 12  1  0
  8 13  1  0
  9 10  1  0
  9 14  1  0
 10 11  2  0
M  RAD  1  10   2
M  END
>  <reaction>  (5) 
rxn_1838

>  <mol_properties>  (5) 
{"0": {"label": "*3", "atom_type": "Ct"}, "1": {"label": "*4", "atom_type": "Ct"}, "3": {"label": "*2", "atom_type": "H0"}, "9": {"label": "*1", "atom_type": "CS"}, "10": {"label": "*0", "atom_type": "S2d"}}

>  <type>  (5) 
unop_1

>  <geom_source>  (5) 
Heuristics

$$$$

     RDKit          3D

 14 12  0  0  0  0  0  0  0  0999 V2000
    0.9252    1.4130   -0.5161 C   0  0  0  0  0  0  0  0  0  0  0  0
    0.9252    1.4130   -1.8147 C   0  0  0  0  0  0  0  0  0  0  0  0
    0.9252    1.4130   -3.1134 C   0  0  0  0  0  0  0  0  0  0  0  0
    0.2616    0.5181    0.1540 H   0  0  0  0  0  0  0  0  0  0  0  0
    1.4782    2.1588    0.0424 H   0  0  0  0  0  0  0  0  0  0  0  0
    0.1794    1.9661   -3.6718 H   0  0  0  0  0  0  0  0  0  0  0  0
    1.6710    0.8600   -3.6718 H   0  0  0  0  0  0  0  0  0  0  0  0
   -0.3391   -1.8093   -1.1419 C   0  0  0  0  0  0  0  0  0  0  0  0
   -0.5401   -1.6678    0.1672 C   0  0  0  0  0  0  0  0  0  0  0  0
   -0.4070   -0.3835    0.8291 C   0  0  0  0  0  3  0  0  0  0  0  0
   -0.6306   -0.1187    2.4054 S   0  0  0  0  0  0  0  0  0  0  0  0
   -0.4397   -2.7696   -1.6308 H   0  0  0  0  0  0  0  0  0  0  0  0
   -0.0670   -0.9640   -1.7642 H   0  0  0  0  0  0  0  0  0  0  0  0
   -0.8121   -2.5132    0.7892 H   0  0  0  0  0  0  0  0  0  0  0  0
  1  2  2  0
  1  4  1  0
  1  5  1  0
  2  3  2  0
  3  6  1  0
  3  7  1  0
  8  9  2  3
  8 12  1  0
  8 13  1  0
  9 10  1  0
  9 14  1  0
 10 11  2  0
M  RAD  1  10   2
M  END
>  <reaction>  (6) 
rxn_1838

>  <mol_properties>  (6) 
{"0": {"label": "*3", "atom_type": "Ct"}, "1": {"label": "*4", "atom_type": "Ct"}, "3": {"label": "*2", "atom_type": "H0"}, "9": {"label": "*1", "atom_type": "CS"}, "10": {"label": "*0", "atom_type": "S2d"}}

>  <type>  (6) 
unop_2

>  <geom_source>  (6) 
Heuristics

$$$$

     RDKit          3D

 14 12  0  0  0  0  0  0  0  0999 V2000
    0.9983    1.2358   -0.6400 C   0  0  0  0  0  0  0  0  0  0  0  0
    0.9983    1.2358   -1.9387 C   0  0  0  0  0  0  0  0  0  0  0  0
    0.9983    1.2358   -3.2373 C   0  0  0  0  0  0  0  0  0  0  0  0
    0.3347    0.3409    0.0301 H   0  0  0  0  0  0  0  0  0  0  0  0
    1.5513    1.9816   -0.0816 H   0  0  0  0  0  0  0  0  0  0  0  0
    0.2525    1.7888   -3.7958 H   0  0  0  0  0  0  0  0  0  0  0  0
    1.7440    0.6828   -3.7958 H   0  0  0  0  0  0  0  0  0  0  0  0
    1.5450   -0.8624    2.2221 C   0  0  0  0  0  0  0  0  0  0  0  0
    0.2329   -0.9012    1.9968 C   0  0  0  0  0  0  0  0  0  0  0  0
   -0.3339   -0.5607    0.7052 C   0  0  0  0  0  3  0  0  0  0  0  0
   -1.9063   -0.5794    0.3422 S   0  0  0  0  0  0  0  0  0  0  0  0
    1.9627   -1.1174    3.1875 H   0  0  0  0  0  0  0  0  0  0  0  0
    2.2416   -0.5730    1.4431 H   0  0  0  0  0  0  0  0  0  0  0  0
   -0.4634   -1.1906    2.7759 H   0  0  0  0  0  0  0  0  0  0  0  0
  1  2  2  0
  1  4  1  0
  1  5  1  0
  2  3  2  0
  3  6  1  0
  3  7  1  0
  8  9  2  3
  8 12  1  0
  8 13  1  0
  9 10  1  0
  9 14  1  0
 10 11  2  0
M  RAD  1  10   2
M  END
>  <reaction>  (7) 
rxn_1838

>  <mol_properties>  (7) 
{"0": {"label": "*3", "atom_type": "Ct"}, "1": {"label": "*4", "atom_type": "Ct"}, "3": {"label": "*2", "atom_type": "H0"}, "9": {"label": "*1", "atom_type": "CS"}, "10": {"label": "*0", "atom_type": "S2d"}}

>  <type>  (7) 
unop_3

>  <geom_source>  (7) 
Heuristics

$$$$

     RDKit          3D

 14 12  0  0  0  0  0  0  0  0999 V2000
    1.0715    1.2219   -0.5842 C   0  0  0  0  0  0  0  0  0  0  0  0
    1.0715    1.2219   -1.8829 C   0  0  0  0  0  0  0  0  0  0  0  0
    1.0715    1.2219   -3.1816 C   0  0  0  0  0  0  0  0  0  0  0  0
    0.4078    0.3269    0.0859 H   0  0  0  0  0  0  0  0  0  0  0  0
    1.6245    1.9676   -0.0258 H   0  0  0  0  0  0  0  0  0  0  0  0
    0.3257    1.7749   -3.7400 H   0  0  0  0  0  0  0  0  0  0  0  0
    1.8172    0.6688   -3.7400 H   0  0  0  0  0  0  0  0  0  0  0  0
   -2.2014   -0.2609   -0.6736 C   0  0  0  0  0  0  0  0  0  0  0  0
   -1.6901   -0.5886    0.5119 C   0  0  0  0  0  0  0  0  0  0  0  0
   -0.2607   -0.5746    0.7610 C   0  0  0  0  0  3  0  0  0  0  0  0
    0.4461   -0.9553    2.1611 S   0  0  0  0  0  0  0  0  0  0  0  0
   -3.2684   -0.2729   -0.8542 H   0  0  0  0  0  0  0  0  0  0  0  0
   -1.5634    0.0301   -1.5007 H   0  0  0  0  0  0  0  0  0  0  0  0
   -2.3283   -0.8795    1.3387 H   0  0  0  0  0  0  0  0  0  0  0  0
  1  2  2  0
  1  4  1  0
  1  5  1  0
  2  3  2  0
  3  6  1  0
  3  7  1  0
  8  9  2  3
  8 12  1  0
  8 13  1  0
  9 10  1  0
  9 14  1  0
 10 11  2  0
M  RAD  1  10   2
M  END
>  <reaction>  (8) 
rxn_1838

>  <mol_properties>  (8) 
{"0": {"label": "*3", "atom_type": "Ct"}, "1": {"label": "*4", "atom_type": "Ct"}, "3": {"label": "*2", "atom_type": "H0"}, "9": {"label": "*1", "atom_type": "CS"}, "10": {"label": "*0", "atom_type": "S2d"}}

>  <type>  (8) 
unop_4

>  <geom_source>  (8) 
Heuristics

$$$$

     RDKit          3D

 14 12  0  0  0  0  0  0  0  0999 V2000
    0.9813    1.3233   -0.6004 C   0  0  0  0  0  0  0  0  0  0  0  0
    0.9813    1.3233   -1.8990 C   0  0  0  0  0  0  0  0  0  0  0  0
    0.9813    1.3233   -3.1977 C   0  0  0  0  0  0  0  0  0  0  0  0
    0.3177    0.4284    0.0697 H   0  0  0  0  0  0  0  0  0  0  0  0
    1.5343    2.0691   -0.0420 H   0  0  0  0  0  0  0  0  0  0  0  0
    0.2355    1.8763   -3.7561 H   0  0  0  0  0  0  0  0  0  0  0  0
    1.7271    0.7703   -3.7561 H   0  0  0  0  0  0  0  0  0  0  0  0
    0.4558    0.6147    2.7668 C   0  0  0  0  0  0  0  0  0  0  0  0
   -0.2586   -0.3487    2.1875 C   0  0  0  0  0  0  0  0  0  0  0  0
   -0.3509   -0.4732    0.7448 C   0  0  0  0  0  3  0  0  0  0  0  0
   -1.1902   -1.6050   -0.0421 S   0  0  0  0  0  0  0  0  0  0  0  0
    0.5214    0.7031    3.8435 H   0  0  0  0  0  0  0  0  0  0  0  0
    0.9978    1.3456    2.1770 H   0  0  0  0  0  0  0  0  0  0  0  0
   -0.8004   -1.0794    2.7776 H   0  0  0  0  0  0  0  0  0  0  0  0
  1  2  2  0
  1  4  1  0
  1  5  1  0
  2  3  2  0
  3  6  1  0
  3  7  1  0
  8  9  2  3
  8 12  1  0
  8 13  1  0
  9 10  1  0
  9 14  1  0
 10 11  2  0
M  RAD  1  10   2
M  END
>  <reaction>  (9) 
rxn_1838

>  <mol_properties>  (9) 
{"0": {"label": "*3", "atom_type": "Ct"}, "1": {"label": "*4", "atom_type": "Ct"}, "3": {"label": "*2", "atom_type": "H0"}, "9": {"label": "*1", "atom_type": "CS"}, "10": {"label": "*0", "atom_type": "S2d"}}

>  <type>  (9) 
unop_5

>  <geom_source>  (9) 
Heuristics

$$$$

     RDKit          3D

 14 12  0  0  0  0  0  0  0  0999 V2000
    1.0015    1.1995   -0.6479 C   0  0  0  0  0  0  0  0  0  0  0  0
    1.0015    1.1995   -1.9465 C   0  0  0  0  0  0  0  0  0  0  0  0
    1.0015    1.1995   -3.2452 C   0  0  0  0  0  0  0  0  0  0  0  0
    0.3379    0.3046    0.0223 H   0  0  0  0  0  0  0  0  0  0  0  0
    1.5545    1.9453   -0.0894 H   0  0  0  0  0  0  0  0  0  0  0  0
    0.2558    1.7525   -3.8036 H   0  0  0  0  0  0  0  0  0  0  0  0
    1.7473    0.6465   -3.8036 H   0  0  0  0  0  0  0  0  0  0  0  0
   -2.4794    0.3985    0.1366 C   0  0  0  0  0  0  0  0  0  0  0  0
   -1.6996   -0.2334    1.0122 C   0  0  0  0  0  0  0  0  0  0  0  0
   -0.3306   -0.5970    0.6974 C   0  0  0  0  0  3  0  0  0  0  0  0
    0.6841   -1.3613    1.6927 S   0  0  0  0  0  0  0  0  0  0  0  0
   -3.4999    0.6675    0.3764 H   0  0  0  0  0  0  0  0  0  0  0  0
   -2.1166    0.6659   -0.8497 H   0  0  0  0  0  0  0  0  0  0  0  0
   -2.0626   -0.5006    1.9983 H   0  0  0  0  0  0  0  0  0  0  0  0
  1  2  2  0
  1  4  1  0
  1  5  1  0
  2  3  2  0
  3  6  1  0
  3  7  1  0
  8  9  2  3
  8 12  1  0
  8 13  1  0
  9 10  1  0
  9 14  1  0
 10 11  2  0
M  RAD  1  10   2
M  END
>  <reaction>  (10) 
rxn_1838

>  <mol_properties>  (10) 
{"0": {"label": "*3", "atom_type": "Ct"}, "1": {"label": "*4", "atom_type": "Ct"}, "3": {"label": "*2", "atom_type": "H0"}, "9": {"label": "*1", "atom_type": "CS"}, "10": {"label": "*0", "atom_type": "S2d"}}

>  <type>  (10) 
unop_6

>  <geom_source>  (10) 
Heuristics

$$$$

     RDKit          3D

 14 12  0  0  0  0  0  0  0  0999 V2000
    0.9192    1.2380   -0.6712 C   0  0  0  0  0  0  0  0  0  0  0  0
    0.9192    1.2380   -1.9698 C   0  0  0  0  0  0  0  0  0  0  0  0
    0.9192    1.2380   -3.2685 C   0  0  0  0  0  0  0  0  0  0  0  0
    0.2556    0.3431   -0.0011 H   0  0  0  0  0  0  0  0  0  0  0  0
    1.4722    1.9838   -0.1127 H   0  0  0  0  0  0  0  0  0  0  0  0
    0.1734    1.7910   -3.8269 H   0  0  0  0  0  0  0  0  0  0  0  0
    1.6649    0.6850   -3.8269 H   0  0  0  0  0  0  0  0  0  0  0  0
   -2.2375    0.9705    1.1798 C   0  0  0  0  0  0  0  0  0  0  0  0
   -1.4383   -0.0276    1.5528 C   0  0  0  0  0  0  0  0  0  0  0  0
   -0.4130   -0.5585    0.6740 C   0  0  0  0  0  3  0  0  0  0  0  0
    0.5977   -1.7623    1.0402 S   0  0  0  0  0  0  0  0  0  0  0  0
   -3.0008    1.3629    1.8391 H   0  0  0  0  0  0  0  0  0  0  0  0
   -2.1500    1.4252    0.1992 H   0  0  0  0  0  0  0  0  0  0  0  0
   -1.5260   -0.4820    2.5333 H   0  0  0  0  0  0  0  0  0  0  0  0
  1  2  2  0
  1  4  1  0
  1  5  1  0
  2  3  2  0
  3  6  1  0
  3  7  1  0
  8  9  2  3
  8 12  1  0
  8 13  1  0
  9 10  1  0
  9 14  1  0
 10 11  2  0
M  RAD  1  10   2
M  END
>  <reaction>  (11) 
rxn_1838

>  <mol_properties>  (11) 
{"0": {"label": "*3", "atom_type": "Ct"}, "1": {"label": "*4", "atom_type": "Ct"}, "3": {"label": "*2", "atom_type": "H0"}, "9": {"label": "*1", "atom_type": "CS"}, "10": {"label": "*0", "atom_type": "S2d"}}

>  <type>  (11) 
unop_7

>  <geom_source>  (11) 
Heuristics

$$$$

     RDKit          3D

 14 12  0  0  0  0  0  0  0  0999 V2000
    0.8570    1.3067   -0.6479 C   0  0  0  0  0  0  0  0  0  0  0  0
    0.8570    1.3067   -1.9465 C   0  0  0  0  0  0  0  0  0  0  0  0
    0.8570    1.3067   -3.2452 C   0  0  0  0  0  0  0  0  0  0  0  0
    0.1933    0.4118    0.0223 H   0  0  0  0  0  0  0  0  0  0  0  0
    1.4100    2.0525   -0.0894 H   0  0  0  0  0  0  0  0  0  0  0  0
    0.1112    1.8598   -3.8036 H   0  0  0  0  0  0  0  0  0  0  0  0
    1.6027    0.7537   -3.8036 H   0  0  0  0  0  0  0  0  0  0  0  0
    1.1014   -2.2568    0.1366 C   0  0  0  0  0  0  0  0  0  0  0  0
    0.2702   -1.6941    1.0122 C   0  0  0  0  0  0  0  0  0  0  0  0
   -0.4752   -0.4898    0.6974 C   0  0  0  0  0  3  0  0  0  0  0  0
   -1.5014    0.2593    1.6927 S   0  0  0  0  0  0  0  0  0  0  0  0
    1.6551   -3.1552    0.3764 H   0  0  0  0  0  0  0  0  0  0  0  0
    1.2519   -1.8320   -0.8497 H   0  0  0  0  0  0  0  0  0  0  0  0
    0.1200   -2.1191    1.9983 H   0  0  0  0  0  0  0  0  0  0  0  0
  1  2  2  0
  1  4  1  0
  1  5  1  0
  2  3  2  0
  3  6  1  0
  3  7  1  0
  8  9  2  3
  8 12  1  0
  8 13  1  0
  9 10  1  0
  9 14  1  0
 10 11  2  0
M  RAD  1  10   2
M  END
>  <reaction>  (12) 
rxn_1838

>  <mol_properties>  (12) 
{"0": {"label": "*3", "atom_type": "Ct"}, "1": {"label": "*4", "atom_type": "Ct"}, "3": {"label": "*2", "atom_type": "H0"}, "9": {"label": "*1", "atom_type": "CS"}, "10": {"label": "*0", "atom_type": "S2d"}}

>  <type>  (12) 
unop_8

>  <geom_source>  (12) 
Heuristics

$$$$

     RDKit          3D

 14 12  0  0  0  0  0  0  0  0999 V2000
    1.0834    1.2957   -0.5161 C   0  0  0  0  0  0  0  0  0  0  0  0
    1.0834    1.2957   -1.8147 C   0  0  0  0  0  0  0  0  0  0  0  0
    1.0834    1.2957   -3.1134 C   0  0  0  0  0  0  0  0  0  0  0  0
    0.4198    0.4008    0.1540 H   0  0  0  0  0  0  0  0  0  0  0  0
    1.6364    2.0415    0.0424 H   0  0  0  0  0  0  0  0  0  0  0  0
    0.3377    1.8487   -3.6718 H   0  0  0  0  0  0  0  0  0  0  0  0
    1.8292    0.7427   -3.6718 H   0  0  0  0  0  0  0  0  0  0  0  0
   -1.6328   -0.8500   -1.1419 C   0  0  0  0  0  0  0  0  0  0  0  0
   -1.4390   -1.0011    0.1672 C   0  0  0  0  0  0  0  0  0  0  0  0
   -0.2487   -0.5008    0.8291 C   0  0  0  0  0  3  0  0  0  0  0  0
    0.0696   -0.6379    2.4054 S   0  0  0  0  0  0  0  0  0  0  0  0
   -2.5225   -1.2251   -1.6308 H   0  0  0  0  0  0  0  0  0  0  0  0
   -0.9030   -0.3441   -1.7642 H   0  0  0  0  0  0  0  0  0  0  0  0
   -2.1690   -1.5070    0.7892 H   0  0  0  0  0  0  0  0  0  0  0  0
  1  2  2  0
  1  4  1  0
  1  5  1  0
  2  3  2  0
  3  6  1  0
  3  7  1  0
  8  9  2  3
  8 12  1  0
  8 13  1  0
  9 10  1  0
  9 14  1  0
 10 11  2  0
M  RAD  1  10   2
M  END
>  <reaction>  (13) 
rxn_1838

>  <mol_properties>  (13) 
{"0": {"label": "*3", "atom_type": "Ct"}, "1": {"label": "*4", "atom_type": "Ct"}, "3": {"label": "*2", "atom_type": "H0"}, "9": {"label": "*1", "atom_type": "CS"}, "10": {"label": "*0", "atom_type": "S2d"}}

>  <type>  (13) 
unop_9

>  <geom_source>  (13) 
Heuristics

$$$$

     RDKit          3D

 14 12  0  0  0  0  0  0  0  0999 V2000
    0.8580    1.3801   -0.5842 C   0  0  0  0  0  0  0  0  0  0  0  0
    0.8580    1.3801   -1.8829 C   0  0  0  0  0  0  0  0  0  0  0  0
    0.8580    1.3801   -3.1816 C   0  0  0  0  0  0  0  0  0  0  0  0
    0.1944    0.4852    0.0859 H   0  0  0  0  0  0  0  0  0  0  0  0
    1.4110    2.1259   -0.0258 H   0  0  0  0  0  0  0  0  0  0  0  0
    0.1123    1.9331   -3.7400 H   0  0  0  0  0  0  0  0  0  0  0  0
    1.6038    0.8271   -3.7400 H   0  0  0  0  0  0  0  0  0  0  0  0
    0.3897   -2.1823   -0.6736 C   0  0  0  0  0  0  0  0  0  0  0  0
   -0.0724   -1.7882    0.5119 C   0  0  0  0  0  0  0  0  0  0  0  0
   -0.4742   -0.4164    0.7610 C   0  0  0  0  0  3  0  0  0  0  0  0
   -1.0436    0.1494    2.1611 S   0  0  0  0  0  0  0  0  0  0  0  0
    0.6881   -3.2068   -0.8542 H   0  0  0  0  0  0  0  0  0  0  0  0
    0.4828   -1.4873   -1.5007 H   0  0  0  0  0  0  0  0  0  0  0  0
   -0.1654   -2.4833    1.3387 H   0  0  0  0  0  0  0  0  0  0  0  0
  1  2  2  0
  1  4  1  0
  1  5  1  0
  2  3  2  0
  3  6  1  0
  3  7  1  0
  8  9  2  3
  8 12  1  0
  8 13  1  0
  9 10  1  0
  9 14  1  0
 10 11  2  0
M  RAD  1  10   2
M  END
>  <reaction>  (14) 
rxn_1838

>  <mol_properties>  (14) 
{"0": {"label": "*3", "atom_type": "Ct"}, "1": {"label": "*4", "atom_type": "Ct"}, "3": {"label": "*2", "atom_type": "H0"}, "9": {"label": "*1", "atom_type": "CS"}, "10": {"label": "*0", "atom_type": "S2d"}}

>  <type>  (14) 
unop_10

>  <geom_source>  (14) 
Heuristics

$$$$

     RDKit          3D

 14 12  0  0  0  0  0  0  0  0999 V2000
    0.8926    1.3142   -0.6400 C   0  0  0  0  0  0  0  0  0  0  0  0
    0.8926    1.3142   -1.9387 C   0  0  0  0  0  0  0  0  0  0  0  0
    0.8926    1.3142   -3.2373 C   0  0  0  0  0  0  0  0  0  0  0  0
    0.2290    0.4192    0.0301 H   0  0  0  0  0  0  0  0  0  0  0  0
    1.4456    2.0599   -0.0816 H   0  0  0  0  0  0  0  0  0  0  0  0
    0.1468    1.8672   -3.7958 H   0  0  0  0  0  0  0  0  0  0  0  0
    1.6384    0.7611   -3.7958 H   0  0  0  0  0  0  0  0  0  0  0  0
   -1.2740    1.2280    2.2221 C   0  0  0  0  0  0  0  0  0  0  0  0
   -0.9300   -0.0389    1.9968 C   0  0  0  0  0  0  0  0  0  0  0  0
   -0.4396   -0.4823    0.7052 C   0  0  0  0  0  3  0  0  0  0  0  0
   -0.0008   -1.9924    0.3422 S   0  0  0  0  0  0  0  0  0  0  0  0
   -1.6393    1.5536    3.1875 H   0  0  0  0  0  0  0  0  0  0  0  0
   -1.1993    1.9786    1.4431 H   0  0  0  0  0  0  0  0  0  0  0  0
   -1.0048   -0.7892    2.7759 H   0  0  0  0  0  0  0  0  0  0  0  0
  1  2  2  0
  1  4  1  0
  1  5  1  0
  2  3  2  0
  3  6  1  0
  3  7  1  0
  8  9  2  3
  8 12  1  0
  8 13  1  0
  9 10  1  0
  9 14  1  0
 10 11  2  0
M  RAD  1  10   2
M  END
>  <reaction>  (15) 
rxn_1838

>  <mol_properties>  (15) 
{"0": {"label": "*3", "atom_type": "Ct"}, "1": {"label": "*4", "atom_type": "Ct"}, "3": {"label": "*2", "atom_type": "H0"}, "9": {"label": "*1", "atom_type": "CS"}, "10": {"label": "*0", "atom_type": "S2d"}}

>  <type>  (15) 
unop_11

>  <geom_source>  (15) 
Heuristics

$$$$

     RDKit          3D

 14 12  0  0  0  0  0  0  0  0999 V2000
    1.0222    1.3785   -0.4862 C   0  0  0  0  0  0  0  0  0  0  0  0
    1.0222    1.3785   -1.7849 C   0  0  0  0  0  0  0  0  0  0  0  0
    1.0222    1.3785   -3.0836 C   0  0  0  0  0  0  0  0  0  0  0  0
    0.3586    0.4836    0.1839 H   0  0  0  0  0  0  0  0  0  0  0  0
    1.5752    2.1242    0.0722 H   0  0  0  0  0  0  0  0  0  0  0  0
    0.2764    1.9315   -3.6420 H   0  0  0  0  0  0  0  0  0  0  0  0
    1.7680    0.8255   -3.6420 H   0  0  0  0  0  0  0  0  0  0  0  0
   -0.9958   -1.3429   -1.2851 C   0  0  0  0  0  0  0  0  0  0  0  0
   -1.0258   -1.3834    0.0459 C   0  0  0  0  0  0  0  0  0  0  0  0
   -0.3100   -0.4180    0.8590 C   0  0  0  0  0  3  0  0  0  0  0  0
   -0.2893   -0.3901    2.4725 S   0  0  0  0  0  0  0  0  0  0  0  0
   -1.5316   -2.0654   -1.8869 H   0  0  0  0  0  0  0  0  0  0  0  0
   -0.4314   -0.5818   -1.8124 H   0  0  0  0  0  0  0  0  0  0  0  0
   -1.5902   -2.1445    0.5729 H   0  0  0  0  0  0  0  0  0  0  0  0
  1  2  2  0
  1  4  1  0
  1  5  1  0
  2  3  2  0
  3  6  1  0
  3  7  1  0
  8  9  2  3
  8 12  1  0
  8 13  1  0
  9 10  1  0
  9 14  1  0
 10 11  2  0
M  RAD  1  10   2
M  END
>  <reaction>  (16) 
rxn_1838

>  <mol_properties>  (16) 
{"0": {"label": "*3", "atom_type": "Ct"}, "1": {"label": "*4", "atom_type": "Ct"}, "3": {"label": "*2", "atom_type": "H0"}, "9": {"label": "*1", "atom_type": "CS"}, "10": {"label": "*0", "atom_type": "S2d"}}

>  <type>  (16) 
unop_12

>  <geom_source>  (16) 
Heuristics

$$$$

     RDKit          3D

 14 12  0  0  0  0  0  0  0  0999 V2000
   -1.7281    1.4940    1.6560 S   0  0  0  0  0  0  0  0  0  0  0  0
   -1.8061   -0.4179   -0.3084 C   0  0  0  0  0  0  0  0  0  0  0  0
   -2.9226   -0.9796    0.1554 C   0  0  0  0  0  0  0  0  0  0  0  0
   -1.1528    0.7486    0.3136 C   0  0  0  0  0  3  0  0  0  0  0  0
    3.2956   -0.5477   -0.1152 C   0  0  0  0  0  0  0  0  0  0  0  0
    2.2961    0.2764   -0.2511 C   0  0  0  0  0  0  0  0  0  0  0  0
    1.2967    1.1007   -0.3869 C   0  0  0  0  0  0  0  0  0  0  0  0
   -1.3457   -0.8373   -1.1937 H   0  0  0  0  0  0  0  0  0  0  0  0
   -3.4297   -0.6071    1.0354 H   0  0  0  0  0  0  0  0  0  0  0  0
   -3.3449   -1.8354   -0.3551 H   0  0  0  0  0  0  0  0  0  0  0  0
   -0.0103    1.2323   -0.2582 H   0  0  0  0  0  0  0  0  0  0  0  0
    4.2873   -0.1664    0.0862 H   0  0  0  0  0  0  0  0  0  0  0  0
    3.1337   -1.6133   -0.2037 H   0  0  0  0  0  0  0  0  0  0  0  0
    1.4308    2.1525   -0.1744 H   0  0  0  0  0  0  0  0  0  0  0  0
  1  4  2  0
  2  3  2  3
  2  4  1  0
  2  8  1  0
  3  9  1  0
  3 10  1  0
  5  6  2  0
  5 12  1  0
  5 13  1  0
  6  7  2  0
  7 11  1  0
  7 14  1  0
M  RAD  1   4   2
M  END
>  <reaction>  (17) 
rxn_1838

>  <mol_properties>  (17) 
{"0": {"label": "*3", "atom_type": "Ct"}, "1": {"label": "*4", "atom_type": "Ct"}, "3": {"label": "*2", "atom_type": "H0"}, "9": {"label": "*1", "atom_type": "CS"}, "10": {"label": "*0", "atom_type": "S2d"}}

>  <type>  (17) 
unop_13

>  <geom_source>  (17) 
AutoTST

$$$$
