
     RDKit          3D

 25 26  0  0  0  0  0  0  0  0999 V2000
    2.0298   -1.1515    0.0571 C   0  0  0  0  0  0  0  0  0  0  0  0
    2.2278    0.2445    0.6528 C   0  0  0  0  0  0  0  0  0  0  0  0
    1.2292    1.2625    0.0947 C   0  0  0  0  0  0  0  0  0  0  0  0
   -0.1869    0.7454    0.2762 C   0  0  0  0  0  0  0  0  0  0  0  0
   -1.3415    1.5501   -0.3122 C   0  0  0  0  0  0  0  0  0  0  0  0
   -2.5060    0.5338   -0.4178 C   0  0  0  0  0  0  0  0  0  0  0  0
   -1.8709   -0.8658   -0.2234 C   0  0  0  0  0  0  0  0  0  0  0  0
   -0.3715   -0.6265   -0.3693 C   0  0  0  0  0  0  0  0  0  0  0  0
    0.5898   -1.6500    0.2086 C   0  0  0  0  0  0  0  0  0  0  0  0
    2.2820   -1.1226   -1.0088 H   0  0  0  0  0  0  0  0  0  0  0  0
    2.7243   -1.8549    0.5221 H   0  0  0  0  0  0  0  0  0  0  0  0
    2.1030    0.1885    1.7400 H   0  0  0  0  0  0  0  0  0  0  0  0
    3.2514    0.5819    0.4743 H   0  0  0  0  0  0  0  0  0  0  0  0
    1.3611    2.2304    0.5855 H   0  0  0  0  0  0  0  0  0  0  0  0
    1.4198    1.4194   -0.9737 H   0  0  0  0  0  0  0  0  0  0  0  0
   -0.3675    0.6209    1.3539 H   0  0  0  0  0  0  0  0  0  0  0  0
   -1.5992    2.4249    0.2862 H   0  0  0  0  0  0  0  0  0  0  0  0
   -1.0595    1.9116   -1.3055 H   0  0  0  0  0  0  0  0  0  0  0  0
   -3.2666    0.7244    0.3399 H   0  0  0  0  0  0  0  0  0  0  0  0
   -3.0030    0.6112   -1.3853 H   0  0  0  0  0  0  0  0  0  0  0  0
   -2.2549   -1.6039   -0.9288 H   0  0  0  0  0  0  0  0  0  0  0  0
   -2.0796   -1.2429    0.7821 H   0  0  0  0  0  0  0  0  0  0  0  0
   -0.1432   -0.5121   -1.4391 H   0  0  0  0  0  0  0  0  0  0  0  0
    0.4720   -2.6209   -0.2799 H   0  0  0  0  0  0  0  0  0  0  0  0
    0.3601   -1.7986    1.2704 H   0  0  0  0  0  0  0  0  0  0  0  0
  1  2  1  0
  1  9  1  0
  1 10  1  0
  1 11  1  0
  2  3  1  0
  2 12  1  0
  2 13  1  0
  3  4  1  0
  3 14  1  0
  3 15  1  0
  4  5  1  0
  4  8  1  0
  4 16  1  0
  5  6  1  0
  5 17  1  0
  5 18  1  0
  6  7  1  0
  6 19  1  0
  6 20  1  0
  7  8  1  0
  7 21  1  0
  7 22  1  0
  8  9  1  0
  8 23  1  0
  9 24  1  0
  9 25  1  0
M  END
>  <reaction>  (1) 
rxn_611

>  <mol_properties>  (1) 
{"5": {"label": "donator", "atom_type": "Cs"}, "18": {"label": "d_hydrogen", "atom_type": "H0"}}

>  <type>  (1) 
r1h

$$$$

     RDKit          3D

  8  7  0  0  0  0  0  0  0  0999 V2000
   -2.2129    0.4855    0.7390 C   0  0  0  0  0  0  0  0  0  0  0  0
   -1.2226    0.0526    0.1974 C   0  0  0  0  0  0  0  0  0  0  0  0
   -0.1006   -0.4575   -0.4419 C   0  0  0  0  0  3  0  0  0  0  0  0
    1.1960   -0.1737   -0.0342 C   0  0  0  0  0  0  0  0  0  0  0  0
    2.3329    0.0603    0.3036 C   0  0  0  0  0  0  0  0  0  0  0  0
   -3.0803    0.8696    1.2198 H   0  0  0  0  0  0  0  0  0  0  0  0
   -0.2433   -1.1067   -1.2980 H   0  0  0  0  0  0  0  0  0  0  0  0
    3.3308    0.2700    0.6058 H   0  0  0  0  0  0  0  0  0  0  0  0
  1  2  3  0
  1  6  1  0
  2  3  1  0
  3  4  1  0
  3  7  1  0
  4  5  3  0
  5  8  1  0
M  RAD  1   3   2
M  END
>  <reaction>  (2) 
rxn_611

>  <mol_properties>  (2) 
{"2": {"label": "acceptor", "atom_type": "Cs"}}

>  <type>  (2) 
r2

$$$$

     RDKit          3D

  9  8  0  0  0  0  0  0  0  0999 V2000
   -2.1022   -0.6873    0.3932 C   0  0  0  0  0  0  0  0  0  0  0  0
   -1.2072   -0.1086   -0.1482 C   0  0  0  0  0  0  0  0  0  0  0  0
   -0.1242    0.6105   -0.8193 C   0  0  0  0  0  0  0  0  0  0  0  0
    1.2067    0.1106   -0.4741 C   0  0  0  0  0  0  0  0  0  0  0  0
    2.3005   -0.2875   -0.2012 C   0  0  0  0  0  0  0  0  0  0  0  0
   -2.8942   -1.2059    0.8778 H   0  0  0  0  0  0  0  0  0  0  0  0
   -0.1862    1.6723   -0.5649 H   0  0  0  0  0  0  0  0  0  0  0  0
   -0.2641    0.5418   -1.9017 H   0  0  0  0  0  0  0  0  0  0  0  0
    3.2709   -0.6459    0.0455 H   0  0  0  0  0  0  0  0  0  0  0  0
  1  2  3  0
  1  6  1  0
  2  3  1  0
  3  4  1  0
  3  7  1  0
  3  8  1  0
  4  5  3  0
  5  9  1  0
M  END
>  <reaction>  (3) 
rxn_611

>  <mol_properties>  (3) 
{"2": {"label": "acceptor", "atom_type": "Cs"}, "8": {"label": "a_hydrogen", "atom_type": "H0"}}

>  <type>  (3) 
r2h

$$$$

     RDKit          3D

 33 33  0  0  0  0  0  0  0  0999 V2000
    0.6914    2.6244    2.9565 C   0  0  0  0  0  0  0  0  0  0  0  0
    0.4127    2.6438    1.7898 C   0  0  0  0  0  0  0  0  0  0  0  0
    0.1312    2.6302    0.3801 C   0  0  0  0  0  0  0  0  0  0  0  0
   -1.2069    2.2681    0.0001 C   0  0  0  0  0  0  0  0  0  0  0  0
   -2.3019    1.9237   -0.3499 C   0  0  0  0  0  0  0  0  0  0  0  0
    0.9237    2.6196    3.9941 H   0  0  0  0  0  0  0  0  0  0  0  0
    0.4807    3.5303   -0.1259 H   0  0  0  0  0  0  0  0  0  0  0  0
   -3.2806    1.6347   -0.6488 H   0  0  0  0  0  0  0  0  0  0  0  0
   -1.1741   -3.1699   -1.0955 C   0  0  0  0  0  0  0  0  0  0  0  0
   -1.1058   -3.0688    0.4307 C   0  0  0  0  0  0  0  0  0  0  0  0
    0.2067   -2.4479    0.9194 C   0  0  0  0  0  0  0  0  0  0  0  0
    0.4154   -1.1112    0.2329 C   0  0  0  0  0  0  0  0  0  0  0  0
    1.6972   -0.3254    0.4891 C   0  0  0  0  0  0  0  0  0  0  0  0
    1.6941    0.6726   -0.6492 C   0  0  0  0  0  3  0  0  0  0  0  0
    0.8607    0.1148   -1.7925 C   0  0  0  0  0  0  0  0  0  0  0  0
    0.4171   -1.2641   -1.2891 C   0  0  0  0  0  0  0  0  0  0  0  0
   -0.9014   -1.8296   -1.7851 C   0  0  0  0  0  0  0  0  0  0  0  0
   -0.4302   -3.8981   -1.4377 H   0  0  0  0  0  0  0  0  0  0  0  0
   -2.1498   -3.5580   -1.3967 H   0  0  0  0  0  0  0  0  0  0  0  0
   -1.9372   -2.4490    0.7840 H   0  0  0  0  0  0  0  0  0  0  0  0
   -1.2442   -4.0579    0.8730 H   0  0  0  0  0  0  0  0  0  0  0  0
    0.1882   -2.3330    2.0061 H   0  0  0  0  0  0  0  0  0  0  0  0
    1.0447   -3.1141    0.6819 H   0  0  0  0  0  0  0  0  0  0  0  0
   -0.4290   -0.4594    0.4953 H   0  0  0  0  0  0  0  0  0  0  0  0
    1.7323    0.1518    1.4710 H   0  0  0  0  0  0  0  0  0  0  0  0
    2.5711   -0.9864    0.4162 H   0  0  0  0  0  0  0  0  0  0  0  0
    0.9129    1.7228   -0.1296 H   0  0  0  0  0  0  0  0  0  0  0  0
    2.6174    1.1969   -0.8822 H   0  0  0  0  0  0  0  0  0  0  0  0
    1.4206    0.0652   -2.7288 H   0  0  0  0  0  0  0  0  0  0  0  0
   -0.0156    0.7457   -1.9824 H   0  0  0  0  0  0  0  0  0  0  0  0
    1.2097   -1.9845   -1.5362 H   0  0  0  0  0  0  0  0  0  0  0  0
   -0.8937   -1.9579   -2.8707 H   0  0  0  0  0  0  0  0  0  0  0  0
   -1.7025   -1.1187   -1.5517 H   0  0  0  0  0  0  0  0  0  0  0  0
  1  2  3  0
  1  6  1  0
  2  3  1  0
  3  4  1  0
  3  7  1  0
  3 27  1  0
  4  5  3  0
  5  8  1  0
  9 10  1  0
  9 17  1  0
  9 18  1  0
  9 19  1  0
 10 11  1  0
 10 20  1  0
 10 21  1  0
 11 12  1  0
 11 22  1  0
 11 23  1  0
 12 13  1  0
 12 16  1  0
 12 24  1  0
 13 14  1  0
 13 25  1  0
 13 26  1  0
 14 15  1  0
 14 28  1  0
 15 16  1  0
 15 29  1  0
 15 30  1  0
 16 17  1  0
 16 31  1  0
 17 32  1  0
 17 33  1  0
M  RAD  1  14   2
M  END
>  <reaction>  (4) 
rxn_611

>  <mol_properties>  (4) 
{"1": {"label": "*0", "atom_type": "Ct"}, "2": {"label": "*1", "atom_type": "Cs"}, "12": {"label": "*4", "atom_type": "Cs"}, "13": {"label": "*3", "atom_type": "Cs"}, "26": {"label": "*2", "atom_type": "H0"}}

>  <type>  (4) 
ts

$$$$

     RDKit          3D

 33 33  0  0  0  0  0  0  0  0999 V2000
    1.9394    4.6768    0.1400 C   0  0  0  0  0  0  0  0  0  0  0  0
    1.1255    3.8115    0.2740 C   0  0  0  0  0  0  0  0  0  0  0  0
    0.1294    2.7525    0.4380 C   0  0  0  0  0  3  0  0  0  0  0  0
   -0.9134    3.0811    1.4101 C   0  0  0  0  0  0  0  0  0  0  0  0
   -1.7656    3.3496    2.2044 C   0  0  0  0  0  0  0  0  0  0  0  0
    2.6635    5.4465    0.0208 H   0  0  0  0  0  0  0  0  0  0  0  0
   -0.3348    2.5430   -0.5297 H   0  0  0  0  0  0  0  0  0  0  0  0
   -2.5237    3.5884    2.9110 H   0  0  0  0  0  0  0  0  0  0  0  0
   -1.0538   -3.7870   -1.2172 C   0  0  0  0  0  0  0  0  0  0  0  0
   -1.0538   -3.7870    0.3134 C   0  0  0  0  0  0  0  0  0  0  0  0
    0.0893   -2.9506    0.8954 C   0  0  0  0  0  0  0  0  0  0  0  0
    0.0497   -1.5496    0.3113 C   0  0  0  0  0  0  0  0  0  0  0  0
    1.1688   -0.5758    0.6667 C   0  0  0  0  0  0  0  0  0  0  0  0
    1.1188    0.4948   -0.4519 C   0  0  0  0  0  0  0  0  0  0  0  0
    0.2253   -0.0971   -1.5705 C   0  0  0  0  0  0  0  0  0  0  0  0
    0.1003   -1.5752   -1.2151 C   0  0  0  0  0  0  0  0  0  0  0  0
   -1.0538   -2.3705   -1.7992 C   0  0  0  0  0  0  0  0  0  0  0  0
   -0.1613   -4.3138   -1.5731 H   0  0  0  0  0  0  0  0  0  0  0  0
   -1.9147   -4.3481   -1.5879 H   0  0  0  0  0  0  0  0  0  0  0  0
   -2.0059   -3.3778    0.6693 H   0  0  0  0  0  0  0  0  0  0  0  0
   -0.9982   -4.8131    0.6841 H   0  0  0  0  0  0  0  0  0  0  0  0
    0.0221   -2.9246    1.9862 H   0  0  0  0  0  0  0  0  0  0  0  0
    1.0509   -3.4157    0.6473 H   0  0  0  0  0  0  0  0  0  0  0  0
   -0.9091   -1.0907    0.5938 H   0  0  0  0  0  0  0  0  0  0  0  0
    1.0600   -0.1479    1.6641 H   0  0  0  0  0  0  0  0  0  0  0  0
    2.1264   -1.1044    0.6463 H   0  0  0  0  0  0  0  0  0  0  0  0
    0.6248    1.6220   -0.0076 H   0  0  0  0  0  0  0  0  0  0  0  0
    2.1200    0.7172   -0.8222 H   0  0  0  0  0  0  0  0  0  0  0  0
    0.6350    0.0678   -2.5680 H   0  0  0  0  0  0  0  0  0  0  0  0
   -0.7667    0.3636   -1.5501 H   0  0  0  0  0  0  0  0  0  0  0  0
    1.0367   -2.0781   -1.4976 H   0  0  0  0  0  0  0  0  0  0  0  0
   -0.9931   -2.4095   -2.8900 H   0  0  0  0  0  0  0  0  0  0  0  0
   -1.9969   -1.8692   -1.5512 H   0  0  0  0  0  0  0  0  0  0  0  0
  1  2  3  0
  1  6  1  0
  2  3  1  0
  3  4  1  0
  3  7  1  0
  4  5  3  0
  5  8  1  0
  9 10  1  0
  9 17  1  0
  9 18  1  0
  9 19  1  0
 10 11  1  0
 10 20  1  0
 10 21  1  0
 11 12  1  0
 11 22  1  0
 11 23  1  0
 12 13  1  0
 12 16  1  0
 12 24  1  0
 13 14  1  0
 13 25  1  0
 13 26  1  0
 14 15  1  0
 14 27  1  0
 14 28  1  0
 15 16  1  0
 15 29  1  0
 15 30  1  0
 16 17  1  0
 16 31  1  0
 17 32  1  0
 17 33  1  0
M  RAD  1   3   2
M  END
>  <reaction>  (5) 
rxn_611

>  <mol_properties>  (5) 
{"1": {"label": "*0", "atom_type": "Ct"}, "2": {"label": "*1", "atom_type": "Cs"}, "12": {"label": "*4", "atom_type": "Cs"}, "13": {"label": "*3", "atom_type": "Cs"}, "26": {"label": "*2", "atom_type": "H0"}}

>  <type>  (5) 
unop_1

>  <geom_source>  (5) 
Heuristics

$$$$

     RDKit          3D

 33 33  0  0  0  0  0  0  0  0999 V2000
    0.8947    3.1540    2.9648 C   0  0  0  0  0  0  0  0  0  0  0  0
    0.6337    3.0415    1.8036 C   0  0  0  0  0  0  0  0  0  0  0  0
    0.3143    2.9038    0.3826 C   0  0  0  0  0  3  0  0  0  0  0  0
   -1.0361    3.3536    0.0443 C   0  0  0  0  0  0  0  0  0  0  0  0
   -2.1396    3.7212   -0.2322 C   0  0  0  0  0  0  0  0  0  0  0  0
    1.1270    3.2540    3.9978 H   0  0  0  0  0  0  0  0  0  0  0  0
    1.0401    3.4723   -0.2055 H   0  0  0  0  0  0  0  0  0  0  0  0
   -3.1212    4.0482   -0.4781 H   0  0  0  0  0  0  0  0  0  0  0  0
   -0.8689   -3.6357   -1.2726 C   0  0  0  0  0  0  0  0  0  0  0  0
   -0.8689   -3.6357    0.2580 C   0  0  0  0  0  0  0  0  0  0  0  0
    0.2742   -2.7993    0.8400 C   0  0  0  0  0  0  0  0  0  0  0  0
    0.2346   -1.3983    0.2559 C   0  0  0  0  0  0  0  0  0  0  0  0
    1.3536   -0.4245    0.6113 C   0  0  0  0  0  0  0  0  0  0  0  0
    1.3037    0.6460   -0.5073 C   0  0  0  0  0  0  0  0  0  0  0  0
    0.4102    0.0542   -1.6260 C   0  0  0  0  0  0  0  0  0  0  0  0
    0.2851   -1.4240   -1.2705 C   0  0  0  0  0  0  0  0  0  0  0  0
   -0.8689   -2.2193   -1.8546 C   0  0  0  0  0  0  0  0  0  0  0  0
    0.0235   -4.1625   -1.6286 H   0  0  0  0  0  0  0  0  0  0  0  0
   -1.7298   -4.1968   -1.6433 H   0  0  0  0  0  0  0  0  0  0  0  0
   -1.8211   -3.2265    0.6139 H   0  0  0  0  0  0  0  0  0  0  0  0
   -0.8134   -4.6618    0.6287 H   0  0  0  0  0  0  0  0  0  0  0  0
    0.2069   -2.7733    1.9308 H   0  0  0  0  0  0  0  0  0  0  0  0
    1.2357   -3.2644    0.5919 H   0  0  0  0  0  0  0  0  0  0  0  0
   -0.7242   -0.9395    0.5384 H   0  0  0  0  0  0  0  0  0  0  0  0
    1.2448    0.0034    1.6087 H   0  0  0  0  0  0  0  0  0  0  0  0
    2.3113   -0.9531    0.5909 H   0  0  0  0  0  0  0  0  0  0  0  0
    0.8097    1.7733   -0.0630 H   0  0  0  0  0  0  0  0  0  0  0  0
    2.3049    0.8685   -0.8776 H   0  0  0  0  0  0  0  0  0  0  0  0
    0.8198    0.2191   -2.6234 H   0  0  0  0  0  0  0  0  0  0  0  0
   -0.5818    0.5149   -1.6055 H   0  0  0  0  0  0  0  0  0  0  0  0
    1.2216   -1.9268   -1.5530 H   0  0  0  0  0  0  0  0  0  0  0  0
   -0.8083   -2.2582   -2.9455 H   0  0  0  0  0  0  0  0  0  0  0  0
   -1.8121   -1.7179   -1.6066 H   0  0  0  0  0  0  0  0  0  0  0  0
  1  2  3  0
  1  6  1  0
  2  3  1  0
  3  4  1  0
  3  7  1  0
  4  5  3  0
  5  8  1  0
  9 10  1  0
  9 17  1  0
  9 18  1  0
  9 19  1  0
 10 11  1  0
 10 20  1  0
 10 21  1  0
 11 12  1  0
 11 22  1  0
 11 23  1  0
 12 13  1  0
 12 16  1  0
 12 24  1  0
 13 14  1  0
 13 25  1  0
 13 26  1  0
 14 15  1  0
 14 27  1  0
 14 28  1  0
 15 16  1  0
 15 29  1  0
 15 30  1  0
 16 17  1  0
 16 31  1  0
 17 32  1  0
 17 33  1  0
M  RAD  1   3   2
M  END
>  <reaction>  (6) 
rxn_611

>  <mol_properties>  (6) 
{"1": {"label": "*0", "atom_type": "Ct"}, "2": {"label": "*1", "atom_type": "Cs"}, "12": {"label": "*4", "atom_type": "Cs"}, "13": {"label": "*3", "atom_type": "Cs"}, "26": {"label": "*2", "atom_type": "H0"}}

>  <type>  (6) 
unop_2

>  <geom_source>  (6) 
Heuristics

$$$$

     RDKit          3D

 33 33  0  0  0  0  0  0  0  0999 V2000
    1.1457    4.7573   -0.8903 C   0  0  0  0  0  0  0  0  0  0  0  0
    0.6654    3.8497   -0.2781 C   0  0  0  0  0  0  0  0  0  0  0  0
    0.0775    2.7390    0.4710 C   0  0  0  0  0  3  0  0  0  0  0  0
   -0.2781    3.0893    1.8462 C   0  0  0  0  0  0  0  0  0  0  0  0
   -0.5686    3.3754    2.9700 C   0  0  0  0  0  0  0  0  0  0  0  0
    1.5731    5.5647   -1.4348 H   0  0  0  0  0  0  0  0  0  0  0  0
   -0.8156    2.3858   -0.0521 H   0  0  0  0  0  0  0  0  0  0  0  0
   -0.8270    3.6300    3.9697 H   0  0  0  0  0  0  0  0  0  0  0  0
   -1.1057   -3.8005   -1.1843 C   0  0  0  0  0  0  0  0  0  0  0  0
   -1.1057   -3.8005    0.3464 C   0  0  0  0  0  0  0  0  0  0  0  0
    0.0374   -2.9641    0.9283 C   0  0  0  0  0  0  0  0  0  0  0  0
   -0.0022   -1.5631    0.3442 C   0  0  0  0  0  0  0  0  0  0  0  0
    1.1169   -0.5893    0.6997 C   0  0  0  0  0  0  0  0  0  0  0  0
    1.0669    0.4813   -0.4190 C   0  0  0  0  0  0  0  0  0  0  0  0
    0.1734   -0.1106   -1.5376 C   0  0  0  0  0  0  0  0  0  0  0  0
    0.0483   -1.5887   -1.1821 C   0  0  0  0  0  0  0  0  0  0  0  0
   -1.1057   -2.3840   -1.7662 C   0  0  0  0  0  0  0  0  0  0  0  0
   -0.2133   -4.3273   -1.5402 H   0  0  0  0  0  0  0  0  0  0  0  0
   -1.9666   -4.3615   -1.5550 H   0  0  0  0  0  0  0  0  0  0  0  0
   -2.0578   -3.3913    0.7023 H   0  0  0  0  0  0  0  0  0  0  0  0
   -1.0502   -4.8265    0.7171 H   0  0  0  0  0  0  0  0  0  0  0  0
   -0.0298   -2.9381    2.0192 H   0  0  0  0  0  0  0  0  0  0  0  0
    0.9989   -3.4292    0.6803 H   0  0  0  0  0  0  0  0  0  0  0  0
   -0.9610   -1.1042    0.6268 H   0  0  0  0  0  0  0  0  0  0  0  0
    1.0080   -0.1614    1.6971 H   0  0  0  0  0  0  0  0  0  0  0  0
    2.0745   -1.1178    0.6792 H   0  0  0  0  0  0  0  0  0  0  0  0
    0.5729    1.6085    0.0254 H   0  0  0  0  0  0  0  0  0  0  0  0
    2.0681    0.7037   -0.7892 H   0  0  0  0  0  0  0  0  0  0  0  0
    0.5830    0.0543   -2.5350 H   0  0  0  0  0  0  0  0  0  0  0  0
   -0.8186    0.3502   -1.5171 H   0  0  0  0  0  0  0  0  0  0  0  0
    0.9848   -2.0916   -1.4647 H   0  0  0  0  0  0  0  0  0  0  0  0
   -1.0451   -2.4230   -2.8571 H   0  0  0  0  0  0  0  0  0  0  0  0
   -2.0489   -1.8827   -1.5182 H   0  0  0  0  0  0  0  0  0  0  0  0
  1  2  3  0
  1  6  1  0
  2  3  1  0
  3  4  1  0
  3  7  1  0
  4  5  3  0
  5  8  1  0
  9 10  1  0
  9 17  1  0
  9 18  1  0
  9 19  1  0
 10 11  1  0
 10 20  1  0
 10 21  1  0
 11 12  1  0
 11 22  1  0
 11 23  1  0
 12 13  1  0
 12 16  1  0
 12 24  1  0
 13 14  1  0
 13 25  1  0
 13 26  1  0
 14 15  1  0
 14 27  1  0
 14 28  1  0
 15 16  1  0
 15 29  1  0
 15 30  1  0
 16 17  1  0
 16 31  1  0
 17 32  1  0
 17 33  1  0
M  RAD  1   3   2
M  END
>  <reaction>  (7) 
rxn_611

>  <mol_properties>  (7) 
{"1": {"label": "*0", "atom_type": "Ct"}, "2": {"label": "*1", "atom_type": "Cs"}, "12": {"label": "*4", "atom_type": "Cs"}, "13": {"label": "*3", "atom_type": "Cs"}, "26": {"label": "*2", "atom_type": "H0"}}

>  <type>  (7) 
unop_3

>  <geom_source>  (7) 
Heuristics

$$$$

     RDKit          3D

 33 33  0  0  0  0  0  0  0  0999 V2000
   -2.1001    2.5706    1.6574 C   0  0  0  0  0  0  0  0  0  0  0  0
   -0.9897    2.7594    1.2567 C   0  0  0  0  0  0  0  0  0  0  0  0
    0.3692    2.9904    0.7664 C   0  0  0  0  0  3  0  0  0  0  0  0
    0.4218    3.3573   -0.6489 C   0  0  0  0  0  0  0  0  0  0  0  0
    0.4648    3.6571   -1.8054 C   0  0  0  0  0  0  0  0  0  0  0  0
   -3.0880    2.4027    2.0139 H   0  0  0  0  0  0  0  0  0  0  0  0
    0.8357    3.7814    1.3601 H   0  0  0  0  0  0  0  0  0  0  0  0
    0.5031    3.9239   -2.8341 H   0  0  0  0  0  0  0  0  0  0  0  0
   -0.8140   -3.5491   -0.8888 C   0  0  0  0  0  0  0  0  0  0  0  0
   -0.8140   -3.5491    0.6418 C   0  0  0  0  0  0  0  0  0  0  0  0
    0.3291   -2.7127    1.2238 C   0  0  0  0  0  0  0  0  0  0  0  0
    0.2895   -1.3118    0.6396 C   0  0  0  0  0  0  0  0  0  0  0  0
    1.4085   -0.3380    0.9951 C   0  0  0  0  0  0  0  0  0  0  0  0
    1.3586    0.7326   -0.1235 C   0  0  0  0  0  0  0  0  0  0  0  0
    0.4651    0.1407   -1.2422 C   0  0  0  0  0  0  0  0  0  0  0  0
    0.3400   -1.3374   -0.8867 C   0  0  0  0  0  0  0  0  0  0  0  0
   -0.8140   -2.1327   -1.4708 C   0  0  0  0  0  0  0  0  0  0  0  0
    0.0784   -4.0759   -1.2448 H   0  0  0  0  0  0  0  0  0  0  0  0
   -1.6749   -4.1102   -1.2596 H   0  0  0  0  0  0  0  0  0  0  0  0
   -1.7662   -3.1400    0.9977 H   0  0  0  0  0  0  0  0  0  0  0  0
   -0.7585   -4.5752    1.0125 H   0  0  0  0  0  0  0  0  0  0  0  0
    0.2618   -2.6868    2.3146 H   0  0  0  0  0  0  0  0  0  0  0  0
    1.2906   -3.1779    0.9757 H   0  0  0  0  0  0  0  0  0  0  0  0
   -0.6693   -0.8529    0.9222 H   0  0  0  0  0  0  0  0  0  0  0  0
    1.2997    0.0900    1.9925 H   0  0  0  0  0  0  0  0  0  0  0  0
    2.3662   -0.8665    0.9747 H   0  0  0  0  0  0  0  0  0  0  0  0
    0.8646    1.8598    0.3208 H   0  0  0  0  0  0  0  0  0  0  0  0
    2.3598    0.9551   -0.4938 H   0  0  0  0  0  0  0  0  0  0  0  0
    0.8747    0.3056   -2.2396 H   0  0  0  0  0  0  0  0  0  0  0  0
   -0.5269    0.6015   -1.2217 H   0  0  0  0  0  0  0  0  0  0  0  0
    1.2765   -1.8402   -1.1693 H   0  0  0  0  0  0  0  0  0  0  0  0
   -0.7534   -2.1717   -2.5617 H   0  0  0  0  0  0  0  0  0  0  0  0
   -1.7572   -1.6314   -1.2228 H   0  0  0  0  0  0  0  0  0  0  0  0
  1  2  3  0
  1  6  1  0
  2  3  1  0
  3  4  1  0
  3  7  1  0
  4  5  3  0
  5  8  1  0
  9 10  1  0
  9 17  1  0
  9 18  1  0
  9 19  1  0
 10 11  1  0
 10 20  1  0
 10 21  1  0
 11 12  1  0
 11 22  1  0
 11 23  1  0
 12 13  1  0
 12 16  1  0
 12 24  1  0
 13 14  1  0
 13 25  1  0
 13 26  1  0
 14 15  1  0
 14 27  1  0
 14 28  1  0
 15 16  1  0
 15 29  1  0
 15 30  1  0
 16 17  1  0
 16 31  1  0
 17 32  1  0
 17 33  1  0
M  RAD  1   3   2
M  END
>  <reaction>  (8) 
rxn_611

>  <mol_properties>  (8) 
{"1": {"label": "*0", "atom_type": "Ct"}, "2": {"label": "*1", "atom_type": "Cs"}, "12": {"label": "*4", "atom_type": "Cs"}, "13": {"label": "*3", "atom_type": "Cs"}, "26": {"label": "*2", "atom_type": "H0"}}

>  <type>  (8) 
unop_4

>  <geom_source>  (8) 
Heuristics

$$$$

     RDKit          3D

 33 33  0  0  0  0  0  0  0  0999 V2000
   -0.0707    4.5197   -1.4053 C   0  0  0  0  0  0  0  0  0  0  0  0
   -0.0491    3.7223   -0.5148 C   0  0  0  0  0  0  0  0  0  0  0  0
   -0.0227    2.7466    0.5750 C   0  0  0  0  0  3  0  0  0  0  0  0
    0.7551    3.1890    1.7324 C   0  0  0  0  0  0  0  0  0  0  0  0
    1.3907    3.5505    2.6783 C   0  0  0  0  0  0  0  0  0  0  0  0
   -0.0899    5.2290   -2.1975 H   0  0  0  0  0  0  0  0  0  0  0  0
   -1.0476    2.5334    0.8912 H   0  0  0  0  0  0  0  0  0  0  0  0
    1.9561    3.8721    3.5196 H   0  0  0  0  0  0  0  0  0  0  0  0
   -1.2059   -3.7929   -1.0802 C   0  0  0  0  0  0  0  0  0  0  0  0
   -1.2059   -3.7929    0.4504 C   0  0  0  0  0  0  0  0  0  0  0  0
   -0.0627   -2.9565    1.0323 C   0  0  0  0  0  0  0  0  0  0  0  0
   -0.1024   -1.5555    0.4482 C   0  0  0  0  0  0  0  0  0  0  0  0
    1.0167   -0.5817    0.8037 C   0  0  0  0  0  0  0  0  0  0  0  0
    0.9667    0.4888   -0.3149 C   0  0  0  0  0  0  0  0  0  0  0  0
    0.0733   -0.1030   -1.4336 C   0  0  0  0  0  0  0  0  0  0  0  0
   -0.0518   -1.5812   -1.0781 C   0  0  0  0  0  0  0  0  0  0  0  0
   -1.2059   -2.3765   -1.6622 C   0  0  0  0  0  0  0  0  0  0  0  0
   -0.3134   -4.3197   -1.4362 H   0  0  0  0  0  0  0  0  0  0  0  0
   -2.0667   -4.3540   -1.4510 H   0  0  0  0  0  0  0  0  0  0  0  0
   -2.1580   -3.3838    0.8063 H   0  0  0  0  0  0  0  0  0  0  0  0
   -1.1503   -4.8190    0.8211 H   0  0  0  0  0  0  0  0  0  0  0  0
   -0.1300   -2.9306    2.1232 H   0  0  0  0  0  0  0  0  0  0  0  0
    0.8988   -3.4216    0.7843 H   0  0  0  0  0  0  0  0  0  0  0  0
   -1.0611   -1.0967    0.7308 H   0  0  0  0  0  0  0  0  0  0  0  0
    0.9079   -0.1538    1.8011 H   0  0  0  0  0  0  0  0  0  0  0  0
    1.9743   -1.1103    0.7833 H   0  0  0  0  0  0  0  0  0  0  0  0
    0.4728    1.6161    0.1294 H   0  0  0  0  0  0  0  0  0  0  0  0
    1.9679    0.7113   -0.6852 H   0  0  0  0  0  0  0  0  0  0  0  0
    0.4829    0.0618   -2.4310 H   0  0  0  0  0  0  0  0  0  0  0  0
   -0.9188    0.3577   -1.4131 H   0  0  0  0  0  0  0  0  0  0  0  0
    0.8846   -2.0840   -1.3607 H   0  0  0  0  0  0  0  0  0  0  0  0
   -1.1452   -2.4154   -2.7531 H   0  0  0  0  0  0  0  0  0  0  0  0
   -2.1490   -1.8751   -1.4142 H   0  0  0  0  0  0  0  0  0  0  0  0
  1  2  3  0
  1  6  1  0
  2  3  1  0
  3  4  1  0
  3  7  1  0
  4  5  3  0
  5  8  1  0
  9 10  1  0
  9 17  1  0
  9 18  1  0
  9 19  1  0
 10 11  1  0
 10 20  1  0
 10 21  1  0
 11 12  1  0
 11 22  1  0
 11 23  1  0
 12 13  1  0
 12 16  1  0
 12 24  1  0
 13 14  1  0
 13 25  1  0
 13 26  1  0
 14 15  1  0
 14 27  1  0
 14 28  1  0
 15 16  1  0
 15 29  1  0
 15 30  1  0
 16 17  1  0
 16 31  1  0
 17 32  1  0
 17 33  1  0
M  RAD  1   3   2
M  END
>  <reaction>  (9) 
rxn_611

>  <mol_properties>  (9) 
{"1": {"label": "*0", "atom_type": "Ct"}, "2": {"label": "*1", "atom_type": "Cs"}, "12": {"label": "*4", "atom_type": "Cs"}, "13": {"label": "*3", "atom_type": "Cs"}, "26": {"label": "*2", "atom_type": "H0"}}

>  <type>  (9) 
unop_5

>  <geom_source>  (9) 
Heuristics

$$$$

     RDKit          3D

 33 33  0  0  0  0  0  0  0  0999 V2000
   -2.3820    2.9299    0.5228 C   0  0  0  0  0  0  0  0  0  0  0  0
   -1.1959    2.9352    0.6719 C   0  0  0  0  0  0  0  0  0  0  0  0
    0.2557    2.9416    0.8543 C   0  0  0  0  0  3  0  0  0  0  0  0
    0.9907    3.3380   -0.3469 C   0  0  0  0  0  0  0  0  0  0  0  0
    1.5912    3.6620   -1.3286 C   0  0  0  0  0  0  0  0  0  0  0  0
   -3.4372    2.9253    0.3902 H   0  0  0  0  0  0  0  0  0  0  0  0
    0.5119    3.6204    1.6726 H   0  0  0  0  0  0  0  0  0  0  0  0
    2.1255    3.9502   -2.2018 H   0  0  0  0  0  0  0  0  0  0  0  0
   -0.9275   -3.5979   -0.8009 C   0  0  0  0  0  0  0  0  0  0  0  0
   -0.9275   -3.5979    0.7297 C   0  0  0  0  0  0  0  0  0  0  0  0
    0.2156   -2.7615    1.3117 C   0  0  0  0  0  0  0  0  0  0  0  0
    0.1760   -1.3605    0.7276 C   0  0  0  0  0  0  0  0  0  0  0  0
    1.2951   -0.3868    1.0830 C   0  0  0  0  0  0  0  0  0  0  0  0
    1.2451    0.6838   -0.0356 C   0  0  0  0  0  0  0  0  0  0  0  0
    0.3516    0.0920   -1.1542 C   0  0  0  0  0  0  0  0  0  0  0  0
    0.2266   -1.3862   -0.7988 C   0  0  0  0  0  0  0  0  0  0  0  0
   -0.9275   -2.1815   -1.3829 C   0  0  0  0  0  0  0  0  0  0  0  0
   -0.0350   -4.1247   -1.1568 H   0  0  0  0  0  0  0  0  0  0  0  0
   -1.7884   -4.1590   -1.1716 H   0  0  0  0  0  0  0  0  0  0  0  0
   -1.8796   -3.1888    1.0856 H   0  0  0  0  0  0  0  0  0  0  0  0
   -0.8720   -4.6240    1.1004 H   0  0  0  0  0  0  0  0  0  0  0  0
    0.1484   -2.7356    2.4025 H   0  0  0  0  0  0  0  0  0  0  0  0
    1.1772   -3.2266    1.0637 H   0  0  0  0  0  0  0  0  0  0  0  0
   -0.7828   -0.9017    1.0101 H   0  0  0  0  0  0  0  0  0  0  0  0
    1.1862    0.0412    2.0805 H   0  0  0  0  0  0  0  0  0  0  0  0
    2.2527   -0.9153    1.0626 H   0  0  0  0  0  0  0  0  0  0  0  0
    0.7511    1.8111    0.4087 H   0  0  0  0  0  0  0  0  0  0  0  0
    2.2463    0.9063   -0.4059 H   0  0  0  0  0  0  0  0  0  0  0  0
    0.7613    0.2568   -2.1516 H   0  0  0  0  0  0  0  0  0  0  0  0
   -0.6404    0.5527   -1.1338 H   0  0  0  0  0  0  0  0  0  0  0  0
    1.1630   -1.8890   -1.0813 H   0  0  0  0  0  0  0  0  0  0  0  0
   -0.8668   -2.2204   -2.4737 H   0  0  0  0  0  0  0  0  0  0  0  0
   -1.8706   -1.6801   -1.1348 H   0  0  0  0  0  0  0  0  0  0  0  0
  1  2  3  0
  1  6  1  0
  2  3  1  0
  3  4  1  0
  3  7  1  0
  4  5  3  0
  5  8  1  0
  9 10  1  0
  9 17  1  0
  9 18  1  0
  9 19  1  0
 10 11  1  0
 10 20  1  0
 10 21  1  0
 11 12  1  0
 11 22  1  0
 11 23  1  0
 12 13  1  0
 12 16  1  0
 12 24  1  0
 13 14  1  0
 13 25  1  0
 13 26  1  0
 14 15  1  0
 14 27  1  0
 14 28  1  0
 15 16  1  0
 15 29  1  0
 15 30  1  0
 16 17  1  0
 16 31  1  0
 17 32  1  0
 17 33  1  0
M  RAD  1   3   2
M  END
>  <reaction>  (10) 
rxn_611

>  <mol_properties>  (10) 
{"1": {"label": "*0", "atom_type": "Ct"}, "2": {"label": "*1", "atom_type": "Cs"}, "12": {"label": "*4", "atom_type": "Cs"}, "13": {"label": "*3", "atom_type": "Cs"}, "26": {"label": "*2", "atom_type": "H0"}}

>  <type>  (10) 
unop_6

>  <geom_source>  (10) 
Heuristics

$$$$

     RDKit          3D

 33 33  0  0  0  0  0  0  0  0999 V2000
   -2.0763    3.4763   -0.5239 C   0  0  0  0  0  0  0  0  0  0  0  0
   -1.0925    3.2060    0.0992 C   0  0  0  0  0  0  0  0  0  0  0  0
    0.1114    2.8752    0.8618 C   0  0  0  0  0  3  0  0  0  0  0  0
    1.3500    3.2818    0.1978 C   0  0  0  0  0  0  0  0  0  0  0  0
    2.3621    3.6140   -0.3449 C   0  0  0  0  0  0  0  0  0  0  0  0
   -2.9515    3.7167   -1.0783 H   0  0  0  0  0  0  0  0  0  0  0  0
    0.0569    3.3528    1.8440 H   0  0  0  0  0  0  0  0  0  0  0  0
    3.2624    3.9096   -0.8276 H   0  0  0  0  0  0  0  0  0  0  0  0
   -1.0718   -3.6643   -0.7934 C   0  0  0  0  0  0  0  0  0  0  0  0
   -1.0718   -3.6643    0.7372 C   0  0  0  0  0  0  0  0  0  0  0  0
    0.0713   -2.8279    1.3192 C   0  0  0  0  0  0  0  0  0  0  0  0
    0.0317   -1.4270    0.7351 C   0  0  0  0  0  0  0  0  0  0  0  0
    1.1508   -0.4532    1.0905 C   0  0  0  0  0  0  0  0  0  0  0  0
    1.1008    0.6174   -0.0281 C   0  0  0  0  0  0  0  0  0  0  0  0
    0.2073    0.0255   -1.1468 C   0  0  0  0  0  0  0  0  0  0  0  0
    0.0822   -1.4526   -0.7913 C   0  0  0  0  0  0  0  0  0  0  0  0
   -1.0718   -2.2479   -1.3754 C   0  0  0  0  0  0  0  0  0  0  0  0
   -0.1794   -4.1911   -1.1494 H   0  0  0  0  0  0  0  0  0  0  0  0
   -1.9327   -4.2254   -1.1641 H   0  0  0  0  0  0  0  0  0  0  0  0
   -2.0239   -3.2552    1.0931 H   0  0  0  0  0  0  0  0  0  0  0  0
   -1.0163   -4.6904    1.1079 H   0  0  0  0  0  0  0  0  0  0  0  0
    0.0041   -2.8020    2.4100 H   0  0  0  0  0  0  0  0  0  0  0  0
    1.0328   -3.2931    1.0711 H   0  0  0  0  0  0  0  0  0  0  0  0
   -0.9271   -0.9681    1.0176 H   0  0  0  0  0  0  0  0  0  0  0  0
    1.0419   -0.0252    2.0879 H   0  0  0  0  0  0  0  0  0  0  0  0
    2.1084   -0.9817    1.0701 H   0  0  0  0  0  0  0  0  0  0  0  0
    0.6068    1.7446    0.4162 H   0  0  0  0  0  0  0  0  0  0  0  0
    2.1020    0.8399   -0.3984 H   0  0  0  0  0  0  0  0  0  0  0  0
    0.6169    0.1904   -2.1442 H   0  0  0  0  0  0  0  0  0  0  0  0
   -0.7847    0.4863   -1.1263 H   0  0  0  0  0  0  0  0  0  0  0  0
    1.0187   -1.9554   -1.0738 H   0  0  0  0  0  0  0  0  0  0  0  0
   -1.0112   -2.2869   -2.4663 H   0  0  0  0  0  0  0  0  0  0  0  0
   -2.0150   -1.7466   -1.1274 H   0  0  0  0  0  0  0  0  0  0  0  0
  1  2  3  0
  1  6  1  0
  2  3  1  0
  3  4  1  0
  3  7  1  0
  4  5  3  0
  5  8  1  0
  9 10  1  0
  9 17  1  0
  9 18  1  0
  9 19  1  0
 10 11  1  0
 10 20  1  0
 10 21  1  0
 11 12  1  0
 11 22  1  0
 11 23  1  0
 12 13  1  0
 12 16  1  0
 12 24  1  0
 13 14  1  0
 13 25  1  0
 13 26  1  0
 14 15  1  0
 14 27  1  0
 14 28  1  0
 15 16  1  0
 15 29  1  0
 15 30  1  0
 16 17  1  0
 16 31  1  0
 17 32  1  0
 17 33  1  0
M  RAD  1   3   2
M  END
>  <reaction>  (11) 
rxn_611

>  <mol_properties>  (11) 
{"1": {"label": "*0", "atom_type": "Ct"}, "2": {"label": "*1", "atom_type": "Cs"}, "12": {"label": "*4", "atom_type": "Cs"}, "13": {"label": "*3", "atom_type": "Cs"}, "26": {"label": "*2", "atom_type": "H0"}}

>  <type>  (11) 
unop_7

>  <geom_source>  (11) 
Heuristics

$$$$

     RDKit          3D

 33 33  0  0  0  0  0  0  0  0999 V2000
    2.1406    4.2981    1.3243 C   0  0  0  0  0  0  0  0  0  0  0  0
    1.2510    3.6163    0.9085 C   0  0  0  0  0  0  0  0  0  0  0  0
    0.1622    2.7819    0.3998 C   0  0  0  0  0  3  0  0  0  0  0  0
   -1.1549    3.1769    0.8993 C   0  0  0  0  0  0  0  0  0  0  0  0
   -2.2312    3.4997    1.3076 C   0  0  0  0  0  0  0  0  0  0  0  0
    2.9321    4.9046    1.6941 H   0  0  0  0  0  0  0  0  0  0  0  0
    0.1589    2.8227   -0.6930 H   0  0  0  0  0  0  0  0  0  0  0  0
   -3.1886    3.7868    1.6707 H   0  0  0  0  0  0  0  0  0  0  0  0
   -1.0210   -3.7576   -1.2555 C   0  0  0  0  0  0  0  0  0  0  0  0
   -1.0210   -3.7576    0.2751 C   0  0  0  0  0  0  0  0  0  0  0  0
    0.1221   -2.9212    0.8571 C   0  0  0  0  0  0  0  0  0  0  0  0
    0.0825   -1.5202    0.2730 C   0  0  0  0  0  0  0  0  0  0  0  0
    1.2016   -0.5464    0.6285 C   0  0  0  0  0  0  0  0  0  0  0  0
    1.1516    0.5241   -0.4902 C   0  0  0  0  0  0  0  0  0  0  0  0
    0.2581   -0.0677   -1.6088 C   0  0  0  0  0  0  0  0  0  0  0  0
    0.1331   -1.5458   -1.2533 C   0  0  0  0  0  0  0  0  0  0  0  0
   -1.0210   -2.3412   -1.8374 C   0  0  0  0  0  0  0  0  0  0  0  0
   -0.1285   -4.2844   -1.6114 H   0  0  0  0  0  0  0  0  0  0  0  0
   -1.8819   -4.3187   -1.6262 H   0  0  0  0  0  0  0  0  0  0  0  0
   -1.9731   -3.3484    0.6311 H   0  0  0  0  0  0  0  0  0  0  0  0
   -0.9654   -4.7837    0.6459 H   0  0  0  0  0  0  0  0  0  0  0  0
    0.0549   -2.8952    1.9480 H   0  0  0  0  0  0  0  0  0  0  0  0
    1.0837   -3.3863    0.6091 H   0  0  0  0  0  0  0  0  0  0  0  0
   -0.8762   -1.0614    0.5556 H   0  0  0  0  0  0  0  0  0  0  0  0
    1.0928   -0.1185    1.6259 H   0  0  0  0  0  0  0  0  0  0  0  0
    2.1592   -1.0750    0.6080 H   0  0  0  0  0  0  0  0  0  0  0  0
    0.6576    1.6514   -0.0458 H   0  0  0  0  0  0  0  0  0  0  0  0
    2.1528    0.7466   -0.8604 H   0  0  0  0  0  0  0  0  0  0  0  0
    0.6678    0.0972   -2.6062 H   0  0  0  0  0  0  0  0  0  0  0  0
   -0.7339    0.3930   -1.5884 H   0  0  0  0  0  0  0  0  0  0  0  0
    1.0695   -2.0487   -1.5359 H   0  0  0  0  0  0  0  0  0  0  0  0
   -0.9603   -2.3801   -2.9283 H   0  0  0  0  0  0  0  0  0  0  0  0
   -1.9641   -1.8398   -1.5894 H   0  0  0  0  0  0  0  0  0  0  0  0
  1  2  3  0
  1  6  1  0
  2  3  1  0
  3  4  1  0
  3  7  1  0
  4  5  3  0
  5  8  1  0
  9 10  1  0
  9 17  1  0
  9 18  1  0
  9 19  1  0
 10 11  1  0
 10 20  1  0
 10 21  1  0
 11 12  1  0
 11 22  1  0
 11 23  1  0
 12 13  1  0
 12 16  1  0
 12 24  1  0
 13 14  1  0
 13 25  1  0
 13 26  1  0
 14 15  1  0
 14 27  1  0
 14 28  1  0
 15 16  1  0
 15 29  1  0
 15 30  1  0
 16 17  1  0
 16 31  1  0
 17 32  1  0
 17 33  1  0
M  RAD  1   3   2
M  END
>  <reaction>  (12) 
rxn_611

>  <mol_properties>  (12) 
{"1": {"label": "*0", "atom_type": "Ct"}, "2": {"label": "*1", "atom_type": "Cs"}, "12": {"label": "*4", "atom_type": "Cs"}, "13": {"label": "*3", "atom_type": "Cs"}, "26": {"label": "*2", "atom_type": "H0"}}

>  <type>  (12) 
unop_8

>  <geom_source>  (12) 
Heuristics

$$$$

     RDKit          3D

 33 33  0  0  0  0  0  0  0  0999 V2000
   -1.3036    2.4903    2.5798 C   0  0  0  0  0  0  0  0  0  0  0  0
   -0.5267    2.7213    1.7009 C   0  0  0  0  0  0  0  0  0  0  0  0
    0.4240    3.0040    0.6255 C   0  0  0  0  0  3  0  0  0  0  0  0
   -0.2188    3.3516   -0.6419 C   0  0  0  0  0  0  0  0  0  0  0  0
   -0.7441    3.6356   -1.6776 C   0  0  0  0  0  0  0  0  0  0  0  0
   -1.9947    2.2848    3.3615 H   0  0  0  0  0  0  0  0  0  0  0  0
    1.0799    3.8235    0.9322 H   0  0  0  0  0  0  0  0  0  0  0  0
   -1.2113    3.8882   -2.5990 H   0  0  0  0  0  0  0  0  0  0  0  0
   -0.7592   -3.5355   -1.0297 C   0  0  0  0  0  0  0  0  0  0  0  0
   -0.7592   -3.5355    0.5009 C   0  0  0  0  0  0  0  0  0  0  0  0
    0.3839   -2.6991    1.0829 C   0  0  0  0  0  0  0  0  0  0  0  0
    0.3443   -1.2981    0.4988 C   0  0  0  0  0  0  0  0  0  0  0  0
    1.4633   -0.3243    0.8542 C   0  0  0  0  0  0  0  0  0  0  0  0
    1.4134    0.7463   -0.2644 C   0  0  0  0  0  0  0  0  0  0  0  0
    0.5199    0.1544   -1.3830 C   0  0  0  0  0  0  0  0  0  0  0  0
    0.3948   -1.3237   -1.0276 C   0  0  0  0  0  0  0  0  0  0  0  0
   -0.7592   -2.1190   -1.6117 C   0  0  0  0  0  0  0  0  0  0  0  0
    0.1332   -4.0623   -1.3856 H   0  0  0  0  0  0  0  0  0  0  0  0
   -1.6201   -4.0966   -1.4004 H   0  0  0  0  0  0  0  0  0  0  0  0
   -1.7114   -3.1263    0.8568 H   0  0  0  0  0  0  0  0  0  0  0  0
   -0.7037   -4.5616    0.8716 H   0  0  0  0  0  0  0  0  0  0  0  0
    0.3166   -2.6731    2.1737 H   0  0  0  0  0  0  0  0  0  0  0  0
    1.3454   -3.1642    0.8348 H   0  0  0  0  0  0  0  0  0  0  0  0
   -0.6145   -0.8392    0.7813 H   0  0  0  0  0  0  0  0  0  0  0  0
    1.3545    0.1036    1.8516 H   0  0  0  0  0  0  0  0  0  0  0  0
    2.4210   -0.8529    0.8338 H   0  0  0  0  0  0  0  0  0  0  0  0
    0.9194    1.8735    0.1799 H   0  0  0  0  0  0  0  0  0  0  0  0
    2.4146    0.9687   -0.6347 H   0  0  0  0  0  0  0  0  0  0  0  0
    0.9295    0.3193   -2.3805 H   0  0  0  0  0  0  0  0  0  0  0  0
   -0.4721    0.6152   -1.3626 H   0  0  0  0  0  0  0  0  0  0  0  0
    1.3313   -1.8266   -1.3101 H   0  0  0  0  0  0  0  0  0  0  0  0
   -0.6986   -2.1580   -2.7026 H   0  0  0  0  0  0  0  0  0  0  0  0
   -1.7024   -1.6177   -1.3637 H   0  0  0  0  0  0  0  0  0  0  0  0
  1  2  3  0
  1  6  1  0
  2  3  1  0
  3  4  1  0
  3  7  1  0
  4  5  3  0
  5  8  1  0
  9 10  1  0
  9 17  1  0
  9 18  1  0
  9 19  1  0
 10 11  1  0
 10 20  1  0
 10 21  1  0
 11 12  1  0
 11 22  1  0
 11 23  1  0
 12 13  1  0
 12 16  1  0
 12 24  1  0
 13 14  1  0
 13 25  1  0
 13 26  1  0
 14 15  1  0
 14 27  1  0
 14 28  1  0
 15 16  1  0
 15 29  1  0
 15 30  1  0
 16 17  1  0
 16 31  1  0
 17 32  1  0
 17 33  1  0
M  RAD  1   3   2
M  END
>  <reaction>  (13) 
rxn_611

>  <mol_properties>  (13) 
{"1": {"label": "*0", "atom_type": "Ct"}, "2": {"label": "*1", "atom_type": "Cs"}, "12": {"label": "*4", "atom_type": "Cs"}, "13": {"label": "*3", "atom_type": "Cs"}, "26": {"label": "*2", "atom_type": "H0"}}

>  <type>  (13) 
unop_9

>  <geom_source>  (13) 
Heuristics

$$$$

     RDKit          3D

 33 33  0  0  0  0  0  0  0  0999 V2000
    1.7501    3.7373    2.3462 C   0  0  0  0  0  0  0  0  0  0  0  0
    1.0628    3.3311    1.4563 C   0  0  0  0  0  0  0  0  0  0  0  0
    0.2217    2.8339    0.3674 C   0  0  0  0  0  3  0  0  0  0  0  0
   -1.1657    3.2910    0.4495 C   0  0  0  0  0  0  0  0  0  0  0  0
   -2.2993    3.6645    0.5166 C   0  0  0  0  0  0  0  0  0  0  0  0
    2.3615    4.0987    3.1377 H   0  0  0  0  0  0  0  0  0  0  0  0
    0.6480    3.1500   -0.5888 H   0  0  0  0  0  0  0  0  0  0  0  0
   -3.3078    3.9967    0.5763 H   0  0  0  0  0  0  0  0  0  0  0  0
   -0.9615   -3.7056   -1.2878 C   0  0  0  0  0  0  0  0  0  0  0  0
   -0.9615   -3.7056    0.2428 C   0  0  0  0  0  0  0  0  0  0  0  0
    0.1816   -2.8692    0.8248 C   0  0  0  0  0  0  0  0  0  0  0  0
    0.1420   -1.4682    0.2407 C   0  0  0  0  0  0  0  0  0  0  0  0
    1.2611   -0.4944    0.5961 C   0  0  0  0  0  0  0  0  0  0  0  0
    1.2111    0.5761   -0.5225 C   0  0  0  0  0  0  0  0  0  0  0  0
    0.3176   -0.0157   -1.6411 C   0  0  0  0  0  0  0  0  0  0  0  0
    0.1925   -1.4939   -1.2857 C   0  0  0  0  0  0  0  0  0  0  0  0
   -0.9615   -2.2892   -1.8698 C   0  0  0  0  0  0  0  0  0  0  0  0
   -0.0691   -4.2324   -1.6437 H   0  0  0  0  0  0  0  0  0  0  0  0
   -1.8224   -4.2667   -1.6585 H   0  0  0  0  0  0  0  0  0  0  0  0
   -1.9136   -3.2964    0.5987 H   0  0  0  0  0  0  0  0  0  0  0  0
   -0.9060   -4.7317    0.6135 H   0  0  0  0  0  0  0  0  0  0  0  0
    0.1144   -2.8433    1.9156 H   0  0  0  0  0  0  0  0  0  0  0  0
    1.1431   -3.3343    0.5767 H   0  0  0  0  0  0  0  0  0  0  0  0
   -0.8168   -1.0094    0.5232 H   0  0  0  0  0  0  0  0  0  0  0  0
    1.1522   -0.0665    1.5935 H   0  0  0  0  0  0  0  0  0  0  0  0
    2.2187   -1.0230    0.5757 H   0  0  0  0  0  0  0  0  0  0  0  0
    0.7171    1.7034   -0.0782 H   0  0  0  0  0  0  0  0  0  0  0  0
    2.2123    0.7986   -0.8928 H   0  0  0  0  0  0  0  0  0  0  0  0
    0.7272    0.1491   -2.6386 H   0  0  0  0  0  0  0  0  0  0  0  0
   -0.6744    0.4450   -1.6207 H   0  0  0  0  0  0  0  0  0  0  0  0
    1.1290   -1.9967   -1.5682 H   0  0  0  0  0  0  0  0  0  0  0  0
   -0.9009   -2.3281   -2.9606 H   0  0  0  0  0  0  0  0  0  0  0  0
   -1.9047   -1.7878   -1.6218 H   0  0  0  0  0  0  0  0  0  0  0  0
  1  2  3  0
  1  6  1  0
  2  3  1  0
  3  4  1  0
  3  7  1  0
  4  5  3  0
  5  8  1  0
  9 10  1  0
  9 17  1  0
  9 18  1  0
  9 19  1  0
 10 11  1  0
 10 20  1  0
 10 21  1  0
 11 12  1  0
 11 22  1  0
 11 23  1  0
 12 13  1  0
 12 16  1  0
 12 24  1  0
 13 14  1  0
 13 25  1  0
 13 26  1  0
 14 15  1  0
 14 27  1  0
 14 28  1  0
 15 16  1  0
 15 29  1  0
 15 30  1  0
 16 17  1  0
 16 31  1  0
 17 32  1  0
 17 33  1  0
M  RAD  1   3   2
M  END
>  <reaction>  (14) 
rxn_611

>  <mol_properties>  (14) 
{"1": {"label": "*0", "atom_type": "Ct"}, "2": {"label": "*1", "atom_type": "Cs"}, "12": {"label": "*4", "atom_type": "Cs"}, "13": {"label": "*3", "atom_type": "Cs"}, "26": {"label": "*2", "atom_type": "H0"}}

>  <type>  (14) 
unop_10

>  <geom_source>  (14) 
Heuristics

$$$$

     RDKit          3D

 33 33  0  0  0  0  0  0  0  0999 V2000
   -1.2561    4.0575   -1.2268 C   0  0  0  0  0  0  0  0  0  0  0  0
   -0.6986    3.4934   -0.3323 C   0  0  0  0  0  0  0  0  0  0  0  0
   -0.0163    2.8031    0.7624 C   0  0  0  0  0  3  0  0  0  0  0  0
    1.3714    3.2297    0.9432 C   0  0  0  0  0  0  0  0  0  0  0  0
    2.5054    3.5782    1.0909 C   0  0  0  0  0  0  0  0  0  0  0  0
   -1.7521    4.5592   -2.0226 H   0  0  0  0  0  0  0  0  0  0  0  0
   -0.5676    2.9708    1.6919 H   0  0  0  0  0  0  0  0  0  0  0  0
    3.5141    3.8883    1.2223 H   0  0  0  0  0  0  0  0  0  0  0  0
   -1.1995   -3.7364   -0.8928 C   0  0  0  0  0  0  0  0  0  0  0  0
   -1.1995   -3.7364    0.6378 C   0  0  0  0  0  0  0  0  0  0  0  0
   -0.0564   -2.9000    1.2198 C   0  0  0  0  0  0  0  0  0  0  0  0
   -0.0960   -1.4990    0.6357 C   0  0  0  0  0  0  0  0  0  0  0  0
    1.0231   -0.5252    0.9911 C   0  0  0  0  0  0  0  0  0  0  0  0
    0.9731    0.5453   -0.1275 C   0  0  0  0  0  0  0  0  0  0  0  0
    0.0796   -0.0465   -1.2461 C   0  0  0  0  0  0  0  0  0  0  0  0
   -0.0454   -1.5247   -0.8907 C   0  0  0  0  0  0  0  0  0  0  0  0
   -1.1995   -2.3200   -1.4748 C   0  0  0  0  0  0  0  0  0  0  0  0
   -0.3071   -4.2632   -1.2487 H   0  0  0  0  0  0  0  0  0  0  0  0
   -2.0604   -4.2975   -1.2635 H   0  0  0  0  0  0  0  0  0  0  0  0
   -2.1516   -3.3272    0.9937 H   0  0  0  0  0  0  0  0  0  0  0  0
   -1.1440   -4.7625    1.0085 H   0  0  0  0  0  0  0  0  0  0  0  0
   -0.1236   -2.8741    2.3107 H   0  0  0  0  0  0  0  0  0  0  0  0
    0.9052   -3.3651    0.9718 H   0  0  0  0  0  0  0  0  0  0  0  0
   -1.0548   -1.0402    0.9182 H   0  0  0  0  0  0  0  0  0  0  0  0
    0.9142   -0.0973    1.9886 H   0  0  0  0  0  0  0  0  0  0  0  0
    1.9807   -1.0538    0.9707 H   0  0  0  0  0  0  0  0  0  0  0  0
    0.4791    1.6726    0.3168 H   0  0  0  0  0  0  0  0  0  0  0  0
    1.9743    0.7678   -0.4977 H   0  0  0  0  0  0  0  0  0  0  0  0
    0.4893    0.1183   -2.2435 H   0  0  0  0  0  0  0  0  0  0  0  0
   -0.9124    0.4142   -1.2257 H   0  0  0  0  0  0  0  0  0  0  0  0
    0.8910   -2.0275   -1.1732 H   0  0  0  0  0  0  0  0  0  0  0  0
   -1.1388   -2.3589   -2.5656 H   0  0  0  0  0  0  0  0  0  0  0  0
   -2.1427   -1.8186   -1.2267 H   0  0  0  0  0  0  0  0  0  0  0  0
  1  2  3  0
  1  6  1  0
  2  3  1  0
  3  4  1  0
  3  7  1  0
  4  5  3  0
  5  8  1  0
  9 10  1  0
  9 17  1  0
  9 18  1  0
  9 19  1  0
 10 11  1  0
 10 20  1  0
 10 21  1  0
 11 12  1  0
 11 22  1  0
 11 23  1  0
 12 13  1  0
 12 16  1  0
 12 24  1  0
 13 14  1  0
 13 25  1  0
 13 26  1  0
 14 15  1  0
 14 27  1  0
 14 28  1  0
 15 16  1  0
 15 29  1  0
 15 30  1  0
 16 17  1  0
 16 31  1  0
 17 32  1  0
 17 33  1  0
M  RAD  1   3   2
M  END
>  <reaction>  (15) 
rxn_611

>  <mol_properties>  (15) 
{"1": {"label": "*0", "atom_type": "Ct"}, "2": {"label": "*1", "atom_type": "Cs"}, "12": {"label": "*4", "atom_type": "Cs"}, "13": {"label": "*3", "atom_type": "Cs"}, "26": {"label": "*2", "atom_type": "H0"}}

>  <type>  (15) 
unop_11

>  <geom_source>  (15) 
Heuristics

$$$$

     RDKit          3D

 33 33  0  0  0  0  0  0  0  0999 V2000
   -0.2107    2.7022    3.0500 C   0  0  0  0  0  0  0  0  0  0  0  0
    0.0642    2.8230    1.8928 C   0  0  0  0  0  0  0  0  0  0  0  0
    0.4006    2.9708    0.4767 C   0  0  0  0  0  3  0  0  0  0  0  0
   -0.7400    3.3564   -0.3544 C   0  0  0  0  0  0  0  0  0  0  0  0
   -1.6721    3.6714   -1.0335 C   0  0  0  0  0  0  0  0  0  0  0  0
   -0.4552    2.5948    4.0794 H   0  0  0  0  0  0  0  0  0  0  0  0
    1.1910    3.7192    0.3715 H   0  0  0  0  0  0  0  0  0  0  0  0
   -2.5012    3.9517   -1.6377 H   0  0  0  0  0  0  0  0  0  0  0  0
   -0.7826   -3.5687   -1.1785 C   0  0  0  0  0  0  0  0  0  0  0  0
   -0.7826   -3.5687    0.3521 C   0  0  0  0  0  0  0  0  0  0  0  0
    0.3605   -2.7323    0.9341 C   0  0  0  0  0  0  0  0  0  0  0  0
    0.3209   -1.3313    0.3500 C   0  0  0  0  0  0  0  0  0  0  0  0
    1.4400   -0.3575    0.7054 C   0  0  0  0  0  0  0  0  0  0  0  0
    1.3900    0.7130   -0.4132 C   0  0  0  0  0  0  0  0  0  0  0  0
    0.4965    0.1212   -1.5318 C   0  0  0  0  0  0  0  0  0  0  0  0
    0.3715   -1.3570   -1.1764 C   0  0  0  0  0  0  0  0  0  0  0  0
   -0.7826   -2.1523   -1.7605 C   0  0  0  0  0  0  0  0  0  0  0  0
    0.1098   -4.0955   -1.5344 H   0  0  0  0  0  0  0  0  0  0  0  0
   -1.6435   -4.1298   -1.5492 H   0  0  0  0  0  0  0  0  0  0  0  0
   -1.7347   -3.1595    0.7080 H   0  0  0  0  0  0  0  0  0  0  0  0
   -0.7271   -4.5948    0.7228 H   0  0  0  0  0  0  0  0  0  0  0  0
    0.2933   -2.7063    2.0249 H   0  0  0  0  0  0  0  0  0  0  0  0
    1.3221   -3.1974    0.6860 H   0  0  0  0  0  0  0  0  0  0  0  0
   -0.6379   -0.8725    0.6325 H   0  0  0  0  0  0  0  0  0  0  0  0
    1.3311    0.0704    1.7028 H   0  0  0  0  0  0  0  0  0  0  0  0
    2.3976   -0.8861    0.6850 H   0  0  0  0  0  0  0  0  0  0  0  0
    0.8960    1.8403    0.0311 H   0  0  0  0  0  0  0  0  0  0  0  0
    2.3912    0.9355   -0.7835 H   0  0  0  0  0  0  0  0  0  0  0  0
    0.9062    0.2861   -2.5293 H   0  0  0  0  0  0  0  0  0  0  0  0
   -0.4955    0.5819   -1.5114 H   0  0  0  0  0  0  0  0  0  0  0  0
    1.3079   -1.8598   -1.4589 H   0  0  0  0  0  0  0  0  0  0  0  0
   -0.7219   -2.1912   -2.8513 H   0  0  0  0  0  0  0  0  0  0  0  0
   -1.7258   -1.6509   -1.5124 H   0  0  0  0  0  0  0  0  0  0  0  0
  1  2  3  0
  1  6  1  0
  2  3  1  0
  3  4  1  0
  3  7  1  0
  4  5  3  0
  5  8  1  0
  9 10  1  0
  9 17  1  0
  9 18  1  0
  9 19  1  0
 10 11  1  0
 10 20  1  0
 10 21  1  0
 11 12  1  0
 11 22  1  0
 11 23  1  0
 12 13  1  0
 12 16  1  0
 12 24  1  0
 13 14  1  0
 13 25  1  0
 13 26  1  0
 14 15  1  0
 14 27  1  0
 14 28  1  0
 15 16  1  0
 15 29  1  0
 15 30  1  0
 16 17  1  0
 16 31  1  0
 17 32  1  0
 17 33  1  0
M  RAD  1   3   2
M  END
>  <reaction>  (16) 
rxn_611

>  <mol_properties>  (16) 
{"1": {"label": "*0", "atom_type": "Ct"}, "2": {"label": "*1", "atom_type": "Cs"}, "12": {"label": "*4", "atom_type": "Cs"}, "13": {"label": "*3", "atom_type": "Cs"}, "26": {"label": "*2", "atom_type": "H0"}}

>  <type>  (16) 
unop_12

>  <geom_source>  (16) 
Heuristics

$$$$

     RDKit          3D

 33 33  0  0  0  0  0  0  0  0999 V2000
   -1.2243    0.0717   -0.8458 C   0  0  0  0  0  0  0  0  0  0  0  0
   -1.1633   -0.0356    0.6650 C   0  0  0  0  0  0  0  0  0  0  0  0
   -2.2045    1.1828   -1.2716 C   0  0  0  0  0  0  0  0  0  0  0  0
   -2.4932   -0.5791    1.2242 C   0  0  0  0  0  0  0  0  0  0  0  0
   -3.4292    1.2664   -0.3218 C   0  0  0  0  0  0  0  0  0  0  0  0
   -3.7130   -0.0617    0.4160 C   0  0  0  0  0  0  0  0  0  0  0  0
    0.2281    0.2556   -1.2609 C   0  0  0  0  0  0  0  0  0  0  0  0
    0.0749   -0.8811    0.9225 C   0  0  0  0  0  0  0  0  0  0  0  0
    3.4835   -0.2170    0.5979 C   0  0  0  0  0  3  0  0  0  0  0  0
    1.0363   -0.5176   -0.2140 C   0  0  0  0  0  0  0  0  0  0  0  0
    4.4467   -1.3180    0.6600 C   0  0  0  0  0  0  0  0  0  0  0  0
    4.0530    0.8956   -0.1646 C   0  0  0  0  0  0  0  0  0  0  0  0
    5.2385   -2.2258    0.7121 C   0  0  0  0  0  0  0  0  0  0  0  0
    4.5202    1.8129   -0.7925 C   0  0  0  0  0  0  0  0  0  0  0  0
   -1.5813   -0.8985   -1.2670 H   0  0  0  0  0  0  0  0  0  0  0  0
   -0.9836    0.9781    1.0968 H   0  0  0  0  0  0  0  0  0  0  0  0
   -2.5504    0.9749   -2.3074 H   0  0  0  0  0  0  0  0  0  0  0  0
   -1.6950    2.1709   -1.2810 H   0  0  0  0  0  0  0  0  0  0  0  0
   -3.2473    2.0574    0.4387 H   0  0  0  0  0  0  0  0  0  0  0  0
   -4.3282    1.5666   -0.9020 H   0  0  0  0  0  0  0  0  0  0  0  0
   -4.0013   -0.8265   -0.3383 H   0  0  0  0  0  0  0  0  0  0  0  0
   -4.5798    0.0722    1.0985 H   0  0  0  0  0  0  0  0  0  0  0  0
   -2.5005   -1.6907    1.2043 H   0  0  0  0  0  0  0  0  0  0  0  0
   -2.5889   -0.2631    2.2857 H   0  0  0  0  0  0  0  0  0  0  0  0
    0.5238    1.3258   -1.2147 H   0  0  0  0  0  0  0  0  0  0  0  0
    0.4065   -0.1359   -2.2859 H   0  0  0  0  0  0  0  0  0  0  0  0
   -0.1681   -1.9657    0.8745 H   0  0  0  0  0  0  0  0  0  0  0  0
    0.5269   -0.6426    1.9085 H   0  0  0  0  0  0  0  0  0  0  0  0
    3.2451    0.1238    1.6265 H   0  0  0  0  0  0  0  0  0  0  0  0
    2.3208   -0.6555   -0.0239 H   0  0  0  0  0  0  0  0  0  0  0  0
    1.4836   -1.4355   -0.6540 H   0  0  0  0  0  0  0  0  0  0  0  0
    5.9335   -3.0226    0.7577 H   0  0  0  0  0  0  0  0  0  0  0  0
    4.9303    2.6179   -1.3436 H   0  0  0  0  0  0  0  0  0  0  0  0
  1  3  1  0
  1  7  1  0
  1  2  1  0
  1 15  1  0
  2  4  1  0
  2  8  1  0
  2 16  1  0
  3  5  1  0
  3 17  1  0
  3 18  1  0
  4  6  1  0
  4 23  1  0
  4 24  1  0
  5  6  1  0
  5 19  1  0
  5 20  1  0
  6 21  1  0
  6 22  1  0
  7 10  1  0
  7 25  1  0
  7 26  1  0
  8 10  1  0
  8 27  1  0
  8 28  1  0
  9 11  1  0
  9 12  1  0
  9 29  1  0
 10 30  1  0
 10 31  1  0
 11 13  3  0
 12 14  3  0
 13 32  1  0
 14 33  1  0
M  RAD  1   9   2
M  END
>  <reaction>  (17) 
rxn_611

>  <mol_properties>  (17) 
{"1": {"label": "*0", "atom_type": "Ct"}, "2": {"label": "*1", "atom_type": "Cs"}, "12": {"label": "*4", "atom_type": "Cs"}, "13": {"label": "*3", "atom_type": "Cs"}, "26": {"label": "*2", "atom_type": "H0"}}

>  <type>  (17) 
unop_13

>  <geom_source>  (17) 
AutoTST

$$$$
