
     RDKit          3D

 18 18  0  0  0  0  0  0  0  0999 V2000
   -2.4852    0.3210   -0.3966 C   0  0  0  0  0  0  0  0  0  0  0  0
   -1.5917   -0.2708    0.6941 C   0  0  0  0  0  0  0  0  0  0  0  0
   -0.1292   -0.1692    0.3493 C   0  0  0  0  0  0  0  0  0  0  0  0
    0.6099    0.9558    0.7015 C   0  0  0  0  0  0  0  0  0  0  0  0
    1.9447    1.0728    0.3458 C   0  0  0  0  0  0  0  0  0  0  0  0
    2.5646    0.0613   -0.3720 C   0  0  0  0  0  0  0  0  0  0  0  0
    1.8399   -1.0657   -0.7287 C   0  0  0  0  0  0  0  0  0  0  0  0
    0.5055   -1.1769   -0.3700 C   0  0  0  0  0  0  0  0  0  0  0  0
   -2.3325   -0.1971   -1.3452 H   0  0  0  0  0  0  0  0  0  0  0  0
   -2.2554    1.3763   -0.5546 H   0  0  0  0  0  0  0  0  0  0  0  0
   -3.5397    0.2376   -0.1280 H   0  0  0  0  0  0  0  0  0  0  0  0
   -1.7801    0.2462    1.6380 H   0  0  0  0  0  0  0  0  0  0  0  0
   -1.8568   -1.3190    0.8516 H   0  0  0  0  0  0  0  0  0  0  0  0
    0.1327    1.7497    1.2656 H   0  0  0  0  0  0  0  0  0  0  0  0
    2.5033    1.9550    0.6330 H   0  0  0  0  0  0  0  0  0  0  0  0
    3.6077    0.1491   -0.6484 H   0  0  0  0  0  0  0  0  0  0  0  0
    2.3163   -1.8632   -1.2854 H   0  0  0  0  0  0  0  0  0  0  0  0
   -0.0540   -2.0629   -0.6500 H   0  0  0  0  0  0  0  0  0  0  0  0
  1  2  1  0
  1  9  1  0
  1 10  1  0
  1 11  1  0
  2  3  1  0
  2 12  1  0
  2 13  1  0
  3  4  2  0
  3  8  1  0
  4  5  1  0
  4 14  1  0
  5  6  2  0
  5 15  1  0
  6  7  1  0
  6 16  1  0
  7  8  2  0
  7 17  1  0
  8 18  1  0
M  END
>  <reaction>  (1) 
rxn_1491

>  <mol_properties>  (1) 
{"1": {"label": "donator", "atom_type": "Cs"}, "11": {"label": "d_hydrogen", "atom_type": "H0"}}

>  <type>  (1) 
r1h

$$$$

     RDKit          3D

 11 10  0  0  0  0  0  0  0  0999 V2000
   -0.9580    1.1013   -2.2955 C   0  0  0  0  0  0  0  0  0  0  0  0
   -0.5129    0.5941   -1.2929 C   0  0  0  0  0  0  0  0  0  0  0  0
   -0.0301   -0.0160   -0.1357 C   0  0  0  0  0  3  0  0  0  0  0  0
   -0.6593   -1.2845    0.3661 C   0  0  0  0  0  0  0  0  0  0  0  0
    1.0691    0.5292    0.5269 C   0  0  0  0  0  0  0  0  0  0  0  0
    2.0168    0.9794    1.1266 C   0  0  0  0  0  0  0  0  0  0  0  0
   -1.3415    1.5561   -3.1769 H   0  0  0  0  0  0  0  0  0  0  0  0
   -1.7166   -1.3186    0.1054 H   0  0  0  0  0  0  0  0  0  0  0  0
   -0.1742   -2.1550   -0.0865 H   0  0  0  0  0  0  0  0  0  0  0  0
   -0.5505   -1.3663    1.4470 H   0  0  0  0  0  0  0  0  0  0  0  0
    2.8514    1.3842    1.6465 H   0  0  0  0  0  0  0  0  0  0  0  0
  1  2  3  0
  1  7  1  0
  2  3  1  0
  3  4  1  0
  3  5  1  0
  4  8  1  0
  4  9  1  0
  4 10  1  0
  5  6  3  0
  6 11  1  0
M  RAD  1   3   2
M  END
>  <reaction>  (2) 
rxn_1491

>  <mol_properties>  (2) 
{"2": {"label": "acceptor", "atom_type": "Cs"}}

>  <type>  (2) 
r2

$$$$

     RDKit          3D

 12 11  0  0  0  0  0  0  0  0999 V2000
    2.1696    0.6854    1.1310 C   0  0  0  0  0  0  0  0  0  0  0  0
    1.2518    0.4145    0.4134 C   0  0  0  0  0  0  0  0  0  0  0  0
    0.1391    0.0443   -0.4683 C   0  0  0  0  0  0  0  0  0  0  0  0
   -0.2054   -1.4492   -0.3339 C   0  0  0  0  0  0  0  0  0  0  0  0
   -1.0375    0.8853   -0.2222 C   0  0  0  0  0  0  0  0  0  0  0  0
   -2.0160    1.5463   -0.0311 C   0  0  0  0  0  0  0  0  0  0  0  0
    2.9819    0.9356    1.7702 H   0  0  0  0  0  0  0  0  0  0  0  0
    0.4629    0.2285   -1.4981 H   0  0  0  0  0  0  0  0  0  0  0  0
   -0.5327   -1.6703    0.6812 H   0  0  0  0  0  0  0  0  0  0  0  0
    0.6727   -2.0535   -0.5593 H   0  0  0  0  0  0  0  0  0  0  0  0
   -1.0064   -1.7081   -1.0256 H   0  0  0  0  0  0  0  0  0  0  0  0
   -2.8802    2.1413    0.1426 H   0  0  0  0  0  0  0  0  0  0  0  0
  1  2  3  0
  1  7  1  0
  2  3  1  0
  3  4  1  0
  3  5  1  0
  3  8  1  0
  4  9  1  0
  4 10  1  0
  4 11  1  0
  5  6  3  0
  6 12  1  0
M  END
>  <reaction>  (3) 
rxn_1491

>  <mol_properties>  (3) 
{"2": {"label": "acceptor", "atom_type": "Cs"}, "11": {"label": "a_hydrogen", "atom_type": "H0"}}

>  <type>  (3) 
r2h

$$$$

     RDKit          3D

 29 28  0  0  0  0  0  0  0  0999 V2000
   -1.7098   -3.5523   -1.3612 C   0  0  0  0  0  0  0  0  0  0  0  0
   -1.2971   -2.7463   -0.5733 C   0  0  0  0  0  0  0  0  0  0  0  0
   -0.7998   -1.7327    0.3169 C   0  0  0  0  0  0  0  0  0  0  0  0
   -1.8200   -0.6886    0.7497 C   0  0  0  0  0  0  0  0  0  0  0  0
    0.0673   -2.2089    1.3602 C   0  0  0  0  0  0  0  0  0  0  0  0
    0.8309   -2.5498    2.2212 C   0  0  0  0  0  0  0  0  0  0  0  0
   -2.0786   -4.2794   -2.0437 H   0  0  0  0  0  0  0  0  0  0  0  0
   -2.3200   -0.2727   -0.1251 H   0  0  0  0  0  0  0  0  0  0  0  0
   -2.5733   -1.1324    1.4030 H   0  0  0  0  0  0  0  0  0  0  0  0
   -1.3212    0.1190    1.2853 H   0  0  0  0  0  0  0  0  0  0  0  0
    1.4904   -2.8714    2.9907 H   0  0  0  0  0  0  0  0  0  0  0  0
    0.2623   -0.3295   -2.5762 C   0  0  0  0  0  0  0  0  0  0  0  0
    0.8340   -0.2036   -1.1924 C   0  0  0  0  0  0  0  0  0  0  0  0
    0.7890    1.0684   -0.4729 C   0  0  0  0  0  0  0  0  0  0  0  0
   -0.0072    2.1406   -0.8889 C   0  0  0  0  0  3  0  0  0  0  0  0
   -0.0810    3.3028   -0.1395 C   0  0  0  0  0  0  0  0  0  0  0  0
    0.6316    3.4214    1.0446 C   0  0  0  0  0  0  0  0  0  0  0  0
    1.4282    2.3661    1.4713 C   0  0  0  0  0  0  0  0  0  0  0  0
    1.5069    1.2075    0.7225 C   0  0  0  0  0  0  0  0  0  0  0  0
    0.7973    0.3084   -3.2872 H   0  0  0  0  0  0  0  0  0  0  0  0
   -0.7919   -0.0464   -2.6064 H   0  0  0  0  0  0  0  0  0  0  0  0
    0.3327   -1.3595   -2.9243 H   0  0  0  0  0  0  0  0  0  0  0  0
    0.0200   -1.0174   -0.4384 H   0  0  0  0  0  0  0  0  0  0  0  0
    1.7550   -0.7616   -1.0303 H   0  0  0  0  0  0  0  0  0  0  0  0
   -0.5714    2.0677   -1.8098 H   0  0  0  0  0  0  0  0  0  0  0  0
   -0.6999    4.1226   -0.4827 H   0  0  0  0  0  0  0  0  0  0  0  0
    0.5701    4.3300    1.6297 H   0  0  0  0  0  0  0  0  0  0  0  0
    1.9896    2.4492    2.3934 H   0  0  0  0  0  0  0  0  0  0  0  0
    2.1192    0.3814    1.0656 H   0  0  0  0  0  0  0  0  0  0  0  0
  1  2  3  0
  1  7  1  0
  2  3  1  0
  3  4  1  0
  3  5  1  0
  3 23  1  0
  4  8  1  0
  4  9  1  0
  4 10  1  0
  5  6  3  0
  6 11  1  0
 12 13  1  0
 12 20  1  0
 12 21  1  0
 12 22  1  0
 13 14  2  3
 13 24  1  0
 14 15  1  0
 14 19  1  0
 15 16  1  0
 15 25  1  0
 16 17  2  0
 16 26  1  0
 17 18  1  0
 17 27  1  0
 18 19  2  0
 18 28  1  0
 19 29  1  0
M  RAD  1  15   2
M  END
>  <reaction>  (4) 
rxn_1491

>  <mol_properties>  (4) 
{"1": {"label": "*0", "atom_type": "Ct"}, "2": {"label": "*1", "atom_type": "Cs"}, "12": {"label": "*3", "atom_type": "Cd"}, "13": {"label": "*4", "atom_type": "Cd"}, "22": {"label": "*2", "atom_type": "H0"}}

>  <type>  (4) 
ts

$$$$

     RDKit          3D

 29 28  0  0  0  0  0  0  0  0999 V2000
   -0.3398   -3.9669    1.3685 C   0  0  0  0  0  0  0  0  0  0  0  0
   -0.7150   -3.0286    0.7285 C   0  0  0  0  0  0  0  0  0  0  0  0
   -1.1990   -1.9022   -0.0773 C   0  0  0  0  0  3  0  0  0  0  0  0
   -2.6114   -2.1742   -0.6239 C   0  0  0  0  0  0  0  0  0  0  0  0
   -1.1554   -0.6473    0.6814 C   0  0  0  0  0  0  0  0  0  0  0  0
   -1.1451    0.3869    1.2824 C   0  0  0  0  0  0  0  0  0  0  0  0
   -0.0063   -4.8011    1.9375 H   0  0  0  0  0  0  0  0  0  0  0  0
   -2.6096   -3.0891   -1.2155 H   0  0  0  0  0  0  0  0  0  0  0  0
   -3.3174   -2.2886    0.1976 H   0  0  0  0  0  0  0  0  0  0  0  0
   -2.9326   -1.3426   -1.2501 H   0  0  0  0  0  0  0  0  0  0  0  0
   -1.1359    1.3063    1.8167 H   0  0  0  0  0  0  0  0  0  0  0  0
    0.9073   -0.6007   -2.4789 C   0  0  0  0  0  0  0  0  0  0  0  0
    0.9073   -0.6007   -0.9498 C   0  0  0  0  0  0  0  0  0  0  0  0
    0.9073    0.7936   -0.3804 C   0  0  0  0  0  0  0  0  0  0  0  0
   -0.2872    1.4625   -0.1327 C   0  0  0  0  0  0  0  0  0  0  0  0
   -0.2905    2.7627    0.3482 C   0  0  0  0  0  0  0  0  0  0  0  0
    0.9073    3.4181    0.5900 C   0  0  0  0  0  0  0  0  0  0  0  0
    2.1051    2.7627    0.3482 C   0  0  0  0  0  0  0  0  0  0  0  0
    2.1018    1.4625   -0.1327 C   0  0  0  0  0  0  0  0  0  0  0  0
    1.7886   -0.0857   -2.8658 H   0  0  0  0  0  0  0  0  0  0  0  0
    0.0260   -0.0857   -2.8658 H   0  0  0  0  0  0  0  0  0  0  0  0
    0.9073   -1.6191   -2.8713 H   0  0  0  0  0  0  0  0  0  0  0  0
   -0.1447   -1.2507   -0.5141 H   0  0  0  0  0  0  0  0  0  0  0  0
    1.7839   -1.1424   -0.5867 H   0  0  0  0  0  0  0  0  0  0  0  0
   -1.2281    0.9553   -0.3164 H   0  0  0  0  0  0  0  0  0  0  0  0
   -1.2313    3.2644    0.5382 H   0  0  0  0  0  0  0  0  0  0  0  0
    0.9073    4.4324    0.9684 H   0  0  0  0  0  0  0  0  0  0  0  0
    3.0459    3.2644    0.5382 H   0  0  0  0  0  0  0  0  0  0  0  0
    3.0427    0.9553   -0.3164 H   0  0  0  0  0  0  0  0  0  0  0  0
  1  2  3  0
  1  7  1  0
  2  3  1  0
  3  4  1  0
  3  5  1  0
  4  8  1  0
  4  9  1  0
  4 10  1  0
  5  6  3  0
  6 11  1  0
 12 13  1  0
 12 20  1  0
 12 21  1  0
 12 22  1  0
 13 14  1  0
 13 23  1  0
 13 24  1  0
 14 15  2  0
 14 19  1  0
 15 16  1  0
 15 25  1  0
 16 17  2  0
 16 26  1  0
 17 18  1  0
 17 27  1  0
 18 19  2  0
 18 28  1  0
 19 29  1  0
M  RAD  1   3   2
M  END
>  <reaction>  (5) 
rxn_1491

>  <mol_properties>  (5) 
{"1": {"label": "*0", "atom_type": "Ct"}, "2": {"label": "*1", "atom_type": "Cs"}, "12": {"label": "*3", "atom_type": "Cd"}, "13": {"label": "*4", "atom_type": "Cd"}, "22": {"label": "*2", "atom_type": "H0"}}

>  <type>  (5) 
unop_1

>  <geom_source>  (5) 
Heuristics

$$$$

     RDKit          3D

 29 28  0  0  0  0  0  0  0  0999 V2000
   -1.8124   -3.4923   -1.7037 C   0  0  0  0  0  0  0  0  0  0  0  0
   -1.5196   -2.6738   -0.8820 C   0  0  0  0  0  0  0  0  0  0  0  0
   -1.1934   -1.6493    0.1162 C   0  0  0  0  0  3  0  0  0  0  0  0
   -2.4605   -0.9312    0.6123 C   0  0  0  0  0  0  0  0  0  0  0  0
   -0.4329   -2.2184    1.2342 C   0  0  0  0  0  0  0  0  0  0  0  0
    0.1744   -2.6597    2.1655 C   0  0  0  0  0  0  0  0  0  0  0  0
   -2.0727   -4.2199   -2.4342 H   0  0  0  0  0  0  0  0  0  0  0  0
   -2.9866   -0.4839   -0.2304 H   0  0  0  0  0  0  0  0  0  0  0  0
   -3.1254   -1.6387    1.1060 H   0  0  0  0  0  0  0  0  0  0  0  0
   -2.1896   -0.1499    1.3217 H   0  0  0  0  0  0  0  0  0  0  0  0
    0.7144   -3.0520    2.9935 H   0  0  0  0  0  0  0  0  0  0  0  0
    0.9129   -0.3478   -2.2855 C   0  0  0  0  0  0  0  0  0  0  0  0
    0.9129   -0.3478   -0.7564 C   0  0  0  0  0  0  0  0  0  0  0  0
    0.9129    1.0465   -0.1869 C   0  0  0  0  0  0  0  0  0  0  0  0
   -0.2816    1.7154    0.0608 C   0  0  0  0  0  0  0  0  0  0  0  0
   -0.2849    3.0157    0.5417 C   0  0  0  0  0  0  0  0  0  0  0  0
    0.9129    3.6710    0.7835 C   0  0  0  0  0  0  0  0  0  0  0  0
    2.1107    3.0157    0.5417 C   0  0  0  0  0  0  0  0  0  0  0  0
    2.1075    1.7154    0.0608 C   0  0  0  0  0  0  0  0  0  0  0  0
    1.7942    0.1673   -2.6723 H   0  0  0  0  0  0  0  0  0  0  0  0
    0.0317    0.1673   -2.6723 H   0  0  0  0  0  0  0  0  0  0  0  0
    0.9129   -1.3662   -2.6778 H   0  0  0  0  0  0  0  0  0  0  0  0
   -0.1390   -0.9978   -0.3206 H   0  0  0  0  0  0  0  0  0  0  0  0
    1.7896   -0.8895   -0.3932 H   0  0  0  0  0  0  0  0  0  0  0  0
   -1.2225    1.2083   -0.1229 H   0  0  0  0  0  0  0  0  0  0  0  0
   -1.2257    3.5174    0.7316 H   0  0  0  0  0  0  0  0  0  0  0  0
    0.9129    4.6853    1.1619 H   0  0  0  0  0  0  0  0  0  0  0  0
    3.0515    3.5174    0.7316 H   0  0  0  0  0  0  0  0  0  0  0  0
    3.0484    1.2083   -0.1229 H   0  0  0  0  0  0  0  0  0  0  0  0
  1  2  3  0
  1  7  1  0
  2  3  1  0
  3  4  1  0
  3  5  1  0
  4  8  1  0
  4  9  1  0
  4 10  1  0
  5  6  3  0
  6 11  1  0
 12 13  1  0
 12 20  1  0
 12 21  1  0
 12 22  1  0
 13 14  1  0
 13 23  1  0
 13 24  1  0
 14 15  2  0
 14 19  1  0
 15 16  1  0
 15 25  1  0
 16 17  2  0
 16 26  1  0
 17 18  1  0
 17 27  1  0
 18 19  2  0
 18 28  1  0
 19 29  1  0
M  RAD  1   3   2
M  END
>  <reaction>  (6) 
rxn_1491

>  <mol_properties>  (6) 
{"1": {"label": "*0", "atom_type": "Ct"}, "2": {"label": "*1", "atom_type": "Cs"}, "12": {"label": "*3", "atom_type": "Cd"}, "13": {"label": "*4", "atom_type": "Cd"}, "22": {"label": "*2", "atom_type": "H0"}}

>  <type>  (6) 
unop_2

>  <geom_source>  (6) 
Heuristics

$$$$

     RDKit          3D

 29 28  0  0  0  0  0  0  0  0999 V2000
   -0.4461   -3.0867    2.2912 C   0  0  0  0  0  0  0  0  0  0  0  0
   -0.7339   -2.5672    1.2529 C   0  0  0  0  0  0  0  0  0  0  0  0
   -1.0934   -1.9664   -0.0363 C   0  0  0  0  0  3  0  0  0  0  0  0
   -2.0458   -2.8779   -0.8298 C   0  0  0  0  0  0  0  0  0  0  0  0
   -1.6651   -0.6270    0.1415 C   0  0  0  0  0  0  0  0  0  0  0  0
   -2.1486    0.4607    0.2593 C   0  0  0  0  0  0  0  0  0  0  0  0
   -0.1903   -3.5485    3.2144 H   0  0  0  0  0  0  0  0  0  0  0  0
   -1.5836   -3.8526   -0.9828 H   0  0  0  0  0  0  0  0  0  0  0  0
   -2.9789   -3.0133   -0.2844 H   0  0  0  0  0  0  0  0  0  0  0  0
   -2.2666   -2.4296   -1.7979 H   0  0  0  0  0  0  0  0  0  0  0  0
   -2.5785    1.4278    0.3640 H   0  0  0  0  0  0  0  0  0  0  0  0
    1.0129   -0.6649   -2.4379 C   0  0  0  0  0  0  0  0  0  0  0  0
    1.0129   -0.6649   -0.9088 C   0  0  0  0  0  0  0  0  0  0  0  0
    1.0129    0.7294   -0.3394 C   0  0  0  0  0  0  0  0  0  0  0  0
   -0.1816    1.3983   -0.0917 C   0  0  0  0  0  0  0  0  0  0  0  0
   -0.1849    2.6986    0.3892 C   0  0  0  0  0  0  0  0  0  0  0  0
    1.0129    3.3539    0.6310 C   0  0  0  0  0  0  0  0  0  0  0  0
    2.2107    2.6986    0.3892 C   0  0  0  0  0  0  0  0  0  0  0  0
    2.2074    1.3983   -0.0917 C   0  0  0  0  0  0  0  0  0  0  0  0
    1.8942   -0.1498   -2.8248 H   0  0  0  0  0  0  0  0  0  0  0  0
    0.1316   -0.1498   -2.8248 H   0  0  0  0  0  0  0  0  0  0  0  0
    1.0129   -1.6833   -2.8303 H   0  0  0  0  0  0  0  0  0  0  0  0
   -0.0391   -1.3149   -0.4731 H   0  0  0  0  0  0  0  0  0  0  0  0
    1.8895   -1.2065   -0.5457 H   0  0  0  0  0  0  0  0  0  0  0  0
   -1.1225    0.8912   -0.2754 H   0  0  0  0  0  0  0  0  0  0  0  0
   -1.1257    3.2003    0.5792 H   0  0  0  0  0  0  0  0  0  0  0  0
    1.0129    4.3683    1.0094 H   0  0  0  0  0  0  0  0  0  0  0  0
    3.1515    3.2003    0.5792 H   0  0  0  0  0  0  0  0  0  0  0  0
    3.1483    0.8912   -0.2754 H   0  0  0  0  0  0  0  0  0  0  0  0
  1  2  3  0
  1  7  1  0
  2  3  1  0
  3  4  1  0
  3  5  1  0
  4  8  1  0
  4  9  1  0
  4 10  1  0
  5  6  3  0
  6 11  1  0
 12 13  1  0
 12 20  1  0
 12 21  1  0
 12 22  1  0
 13 14  1  0
 13 23  1  0
 13 24  1  0
 14 15  2  0
 14 19  1  0
 15 16  1  0
 15 25  1  0
 16 17  2  0
 16 26  1  0
 17 18  1  0
 17 27  1  0
 18 19  2  0
 18 28  1  0
 19 29  1  0
M  RAD  1   3   2
M  END
>  <reaction>  (7) 
rxn_1491

>  <mol_properties>  (7) 
{"1": {"label": "*0", "atom_type": "Ct"}, "2": {"label": "*1", "atom_type": "Cs"}, "12": {"label": "*3", "atom_type": "Cd"}, "13": {"label": "*4", "atom_type": "Cd"}, "22": {"label": "*2", "atom_type": "H0"}}

>  <type>  (7) 
unop_3

>  <geom_source>  (7) 
Heuristics

$$$$

     RDKit          3D

 29 28  0  0  0  0  0  0  0  0999 V2000
   -3.1234   -0.5245   -0.7789 C   0  0  0  0  0  0  0  0  0  0  0  0
   -2.1652   -1.1158   -0.3750 C   0  0  0  0  0  0  0  0  0  0  0  0
   -0.9785   -1.8080    0.1397 C   0  0  0  0  0  3  0  0  0  0  0  0
   -0.5016   -1.1866    1.4641 C   0  0  0  0  0  0  0  0  0  0  0  0
   -1.2232   -3.2471    0.2858 C   0  0  0  0  0  0  0  0  0  0  0  0
   -1.4009   -4.4213    0.4292 C   0  0  0  0  0  0  0  0  0  0  0  0
   -3.9752    0.0012   -1.1380 H   0  0  0  0  0  0  0  0  0  0  0  0
   -0.2891   -0.1276    1.3208 H   0  0  0  0  0  0  0  0  0  0  0  0
   -1.2715   -1.2902    2.2275 H   0  0  0  0  0  0  0  0  0  0  0  0
    0.4019   -1.6908    1.8055 H   0  0  0  0  0  0  0  0  0  0  0  0
   -1.5590   -5.4652    0.5568 H   0  0  0  0  0  0  0  0  0  0  0  0
    1.1278   -0.5065   -2.2619 C   0  0  0  0  0  0  0  0  0  0  0  0
    1.1278   -0.5065   -0.7328 C   0  0  0  0  0  0  0  0  0  0  0  0
    1.1278    0.8878   -0.1634 C   0  0  0  0  0  0  0  0  0  0  0  0
   -0.0667    1.5567    0.0844 C   0  0  0  0  0  0  0  0  0  0  0  0
   -0.0700    2.8569    0.5653 C   0  0  0  0  0  0  0  0  0  0  0  0
    1.1278    3.5123    0.8071 C   0  0  0  0  0  0  0  0  0  0  0  0
    2.3256    2.8569    0.5653 C   0  0  0  0  0  0  0  0  0  0  0  0
    2.3223    1.5567    0.0844 C   0  0  0  0  0  0  0  0  0  0  0  0
    2.0091    0.0086   -2.6487 H   0  0  0  0  0  0  0  0  0  0  0  0
    0.2465    0.0086   -2.6487 H   0  0  0  0  0  0  0  0  0  0  0  0
    1.1278   -1.5249   -2.6542 H   0  0  0  0  0  0  0  0  0  0  0  0
    0.0758   -1.1565   -0.2970 H   0  0  0  0  0  0  0  0  0  0  0  0
    2.0044   -1.0482   -0.3696 H   0  0  0  0  0  0  0  0  0  0  0  0
   -1.0076    1.0496   -0.0994 H   0  0  0  0  0  0  0  0  0  0  0  0
   -1.0108    3.3586    0.7552 H   0  0  0  0  0  0  0  0  0  0  0  0
    1.1278    4.5266    1.1855 H   0  0  0  0  0  0  0  0  0  0  0  0
    3.2664    3.3586    0.7552 H   0  0  0  0  0  0  0  0  0  0  0  0
    3.2632    1.0496   -0.0994 H   0  0  0  0  0  0  0  0  0  0  0  0
  1  2  3  0
  1  7  1  0
  2  3  1  0
  3  4  1  0
  3  5  1  0
  4  8  1  0
  4  9  1  0
  4 10  1  0
  5  6  3  0
  6 11  1  0
 12 13  1  0
 12 20  1  0
 12 21  1  0
 12 22  1  0
 13 14  1  0
 13 23  1  0
 13 24  1  0
 14 15  2  0
 14 19  1  0
 15 16  1  0
 15 25  1  0
 16 17  2  0
 16 26  1  0
 17 18  1  0
 17 27  1  0
 18 19  2  0
 18 28  1  0
 19 29  1  0
M  RAD  1   3   2
M  END
>  <reaction>  (8) 
rxn_1491

>  <mol_properties>  (8) 
{"1": {"label": "*0", "atom_type": "Ct"}, "2": {"label": "*1", "atom_type": "Cs"}, "12": {"label": "*3", "atom_type": "Cd"}, "13": {"label": "*4", "atom_type": "Cd"}, "22": {"label": "*2", "atom_type": "H0"}}

>  <type>  (8) 
unop_4

>  <geom_source>  (8) 
Heuristics

$$$$

     RDKit          3D

 29 28  0  0  0  0  0  0  0  0999 V2000
   -0.9028   -1.8950    2.7027 C   0  0  0  0  0  0  0  0  0  0  0  0
   -0.9555   -1.8891    1.5077 C   0  0  0  0  0  0  0  0  0  0  0  0
   -1.0000   -1.9167    0.0416 C   0  0  0  0  0  3  0  0  0  0  0  0
   -0.9274   -3.3583   -0.4912 C   0  0  0  0  0  0  0  0  0  0  0  0
   -2.1868   -1.2209   -0.4681 C   0  0  0  0  0  0  0  0  0  0  0  0
   -3.1542   -0.6733   -0.9098 C   0  0  0  0  0  0  0  0  0  0  0  0
   -0.8561   -1.9002    3.7651 H   0  0  0  0  0  0  0  0  0  0  0  0
   -0.0191   -3.8407   -0.1316 H   0  0  0  0  0  0  0  0  0  0  0  0
   -1.7885   -3.9304   -0.1481 H   0  0  0  0  0  0  0  0  0  0  0  0
   -0.9223   -3.3506   -1.5807 H   0  0  0  0  0  0  0  0  0  0  0  0
   -4.0142   -0.1864   -1.3025 H   0  0  0  0  0  0  0  0  0  0  0  0
    1.1063   -0.6152   -2.3601 C   0  0  0  0  0  0  0  0  0  0  0  0
    1.1063   -0.6152   -0.8309 C   0  0  0  0  0  0  0  0  0  0  0  0
    1.1063    0.7791   -0.2615 C   0  0  0  0  0  0  0  0  0  0  0  0
   -0.0882    1.4481   -0.0138 C   0  0  0  0  0  0  0  0  0  0  0  0
   -0.0915    2.7483    0.4671 C   0  0  0  0  0  0  0  0  0  0  0  0
    1.1063    3.4036    0.7089 C   0  0  0  0  0  0  0  0  0  0  0  0
    2.3041    2.7483    0.4671 C   0  0  0  0  0  0  0  0  0  0  0  0
    2.3008    1.4481   -0.0138 C   0  0  0  0  0  0  0  0  0  0  0  0
    1.9876   -0.1001   -2.7469 H   0  0  0  0  0  0  0  0  0  0  0  0
    0.2250   -0.1001   -2.7469 H   0  0  0  0  0  0  0  0  0  0  0  0
    1.1063   -1.6336   -2.7524 H   0  0  0  0  0  0  0  0  0  0  0  0
    0.0544   -1.2652   -0.3952 H   0  0  0  0  0  0  0  0  0  0  0  0
    1.9830   -1.1568   -0.4678 H   0  0  0  0  0  0  0  0  0  0  0  0
   -1.0291    0.9409   -0.1975 H   0  0  0  0  0  0  0  0  0  0  0  0
   -1.0323    3.2500    0.6570 H   0  0  0  0  0  0  0  0  0  0  0  0
    1.1063    4.4180    1.0873 H   0  0  0  0  0  0  0  0  0  0  0  0
    3.2449    3.2500    0.6570 H   0  0  0  0  0  0  0  0  0  0  0  0
    3.2417    0.9409   -0.1975 H   0  0  0  0  0  0  0  0  0  0  0  0
  1  2  3  0
  1  7  1  0
  2  3  1  0
  3  4  1  0
  3  5  1  0
  4  8  1  0
  4  9  1  0
  4 10  1  0
  5  6  3  0
  6 11  1  0
 12 13  1  0
 12 20  1  0
 12 21  1  0
 12 22  1  0
 13 14  1  0
 13 23  1  0
 13 24  1  0
 14 15  2  0
 14 19  1  0
 15 16  1  0
 15 25  1  0
 16 17  2  0
 16 26  1  0
 17 18  1  0
 17 27  1  0
 18 19  2  0
 18 28  1  0
 19 29  1  0
M  RAD  1   3   2
M  END
>  <reaction>  (9) 
rxn_1491

>  <mol_properties>  (9) 
{"1": {"label": "*0", "atom_type": "Ct"}, "2": {"label": "*1", "atom_type": "Cs"}, "12": {"label": "*3", "atom_type": "Cd"}, "13": {"label": "*4", "atom_type": "Cd"}, "22": {"label": "*2", "atom_type": "H0"}}

>  <type>  (9) 
unop_5

>  <geom_source>  (9) 
Heuristics

$$$$

     RDKit          3D

 29 28  0  0  0  0  0  0  0  0999 V2000
   -2.9408   -0.0440    0.3691 C   0  0  0  0  0  0  0  0  0  0  0  0
   -2.0739   -0.8566    0.2320 C   0  0  0  0  0  0  0  0  0  0  0  0
   -0.9865   -1.8307    0.0865 C   0  0  0  0  0  3  0  0  0  0  0  0
   -0.0168   -1.7657    1.2793 C   0  0  0  0  0  0  0  0  0  0  0  0
   -1.5097   -3.1886   -0.0996 C   0  0  0  0  0  0  0  0  0  0  0  0
   -1.9092   -4.3077   -0.2373 C   0  0  0  0  0  0  0  0  0  0  0  0
   -3.7116    0.6786    0.4910 H   0  0  0  0  0  0  0  0  0  0  0  0
    0.3880   -0.7585    1.3730 H   0  0  0  0  0  0  0  0  0  0  0  0
   -0.5364   -2.0226    2.2015 H   0  0  0  0  0  0  0  0  0  0  0  0
    0.8019   -2.4689    1.1297 H   0  0  0  0  0  0  0  0  0  0  0  0
   -2.2644   -5.3026   -0.3597 H   0  0  0  0  0  0  0  0  0  0  0  0
    1.1198   -0.5292   -2.3151 C   0  0  0  0  0  0  0  0  0  0  0  0
    1.1198   -0.5292   -0.7860 C   0  0  0  0  0  0  0  0  0  0  0  0
    1.1198    0.8651   -0.2166 C   0  0  0  0  0  0  0  0  0  0  0  0
   -0.0747    1.5340    0.0311 C   0  0  0  0  0  0  0  0  0  0  0  0
   -0.0780    2.8342    0.5121 C   0  0  0  0  0  0  0  0  0  0  0  0
    1.1198    3.4896    0.7539 C   0  0  0  0  0  0  0  0  0  0  0  0
    2.3176    2.8342    0.5121 C   0  0  0  0  0  0  0  0  0  0  0  0
    2.3143    1.5340    0.0311 C   0  0  0  0  0  0  0  0  0  0  0  0
    2.0011   -0.0141   -2.7019 H   0  0  0  0  0  0  0  0  0  0  0  0
    0.2385   -0.0141   -2.7019 H   0  0  0  0  0  0  0  0  0  0  0  0
    1.1198   -1.5476   -2.7074 H   0  0  0  0  0  0  0  0  0  0  0  0
    0.0678   -1.1792   -0.3502 H   0  0  0  0  0  0  0  0  0  0  0  0
    1.9964   -1.0709   -0.4229 H   0  0  0  0  0  0  0  0  0  0  0  0
   -1.0156    1.0269   -0.1526 H   0  0  0  0  0  0  0  0  0  0  0  0
   -1.0188    3.3359    0.7020 H   0  0  0  0  0  0  0  0  0  0  0  0
    1.1198    4.5039    1.1322 H   0  0  0  0  0  0  0  0  0  0  0  0
    3.2584    3.3359    0.7020 H   0  0  0  0  0  0  0  0  0  0  0  0
    3.2552    1.0269   -0.1526 H   0  0  0  0  0  0  0  0  0  0  0  0
  1  2  3  0
  1  7  1  0
  2  3  1  0
  3  4  1  0
  3  5  1  0
  4  8  1  0
  4  9  1  0
  4 10  1  0
  5  6  3  0
  6 11  1  0
 12 13  1  0
 12 20  1  0
 12 21  1  0
 12 22  1  0
 13 14  1  0
 13 23  1  0
 13 24  1  0
 14 15  2  0
 14 19  1  0
 15 16  1  0
 15 25  1  0
 16 17  2  0
 16 26  1  0
 17 18  1  0
 17 27  1  0
 18 19  2  0
 18 28  1  0
 19 29  1  0
M  RAD  1   3   2
M  END
>  <reaction>  (10) 
rxn_1491

>  <mol_properties>  (10) 
{"1": {"label": "*0", "atom_type": "Ct"}, "2": {"label": "*1", "atom_type": "Cs"}, "12": {"label": "*3", "atom_type": "Cd"}, "13": {"label": "*4", "atom_type": "Cd"}, "22": {"label": "*2", "atom_type": "H0"}}

>  <type>  (10) 
unop_6

>  <geom_source>  (10) 
Heuristics

$$$$

     RDKit          3D

 29 28  0  0  0  0  0  0  0  0999 V2000
   -2.4108   -0.1164    1.5409 C   0  0  0  0  0  0  0  0  0  0  0  0
   -1.7927   -0.8866    0.8660 C   0  0  0  0  0  0  0  0  0  0  0  0
   -1.0018   -1.8234    0.0602 C   0  0  0  0  0  3  0  0  0  0  0  0
    0.1822   -2.3884    0.8642 C   0  0  0  0  0  0  0  0  0  0  0  0
   -1.8396   -2.9001   -0.4795 C   0  0  0  0  0  0  0  0  0  0  0  0
   -2.4967   -3.7977   -0.9192 C   0  0  0  0  0  0  0  0  0  0  0  0
   -2.9604    0.5683    2.1409 H   0  0  0  0  0  0  0  0  0  0  0  0
    0.8104   -1.5727    1.2208 H   0  0  0  0  0  0  0  0  0  0  0  0
   -0.1806   -2.9532    1.7220 H   0  0  0  0  0  0  0  0  0  0  0  0
    0.7760   -3.0495    0.2339 H   0  0  0  0  0  0  0  0  0  0  0  0
   -3.0808   -4.5957   -1.3102 H   0  0  0  0  0  0  0  0  0  0  0  0
    1.1045   -0.5219   -2.3415 C   0  0  0  0  0  0  0  0  0  0  0  0
    1.1045   -0.5219   -0.8123 C   0  0  0  0  0  0  0  0  0  0  0  0
    1.1045    0.8724   -0.2429 C   0  0  0  0  0  0  0  0  0  0  0  0
   -0.0900    1.5413    0.0048 C   0  0  0  0  0  0  0  0  0  0  0  0
   -0.0933    2.8415    0.4857 C   0  0  0  0  0  0  0  0  0  0  0  0
    1.1045    3.4969    0.7275 C   0  0  0  0  0  0  0  0  0  0  0  0
    2.3023    2.8415    0.4857 C   0  0  0  0  0  0  0  0  0  0  0  0
    2.2990    1.5413    0.0048 C   0  0  0  0  0  0  0  0  0  0  0  0
    1.9858   -0.0069   -2.7283 H   0  0  0  0  0  0  0  0  0  0  0  0
    0.2232   -0.0069   -2.7283 H   0  0  0  0  0  0  0  0  0  0  0  0
    1.1045   -1.5403   -2.7338 H   0  0  0  0  0  0  0  0  0  0  0  0
    0.0525   -1.1719   -0.3766 H   0  0  0  0  0  0  0  0  0  0  0  0
    1.9811   -1.0636   -0.4492 H   0  0  0  0  0  0  0  0  0  0  0  0
   -1.0309    1.0341   -0.1789 H   0  0  0  0  0  0  0  0  0  0  0  0
   -1.0341    3.3432    0.6756 H   0  0  0  0  0  0  0  0  0  0  0  0
    1.1045    4.5112    1.1059 H   0  0  0  0  0  0  0  0  0  0  0  0
    3.2431    3.3432    0.6756 H   0  0  0  0  0  0  0  0  0  0  0  0
    3.2399    1.0341   -0.1789 H   0  0  0  0  0  0  0  0  0  0  0  0
  1  2  3  0
  1  7  1  0
  2  3  1  0
  3  4  1  0
  3  5  1  0
  4  8  1  0
  4  9  1  0
  4 10  1  0
  5  6  3  0
  6 11  1  0
 12 13  1  0
 12 20  1  0
 12 21  1  0
 12 22  1  0
 13 14  1  0
 13 23  1  0
 13 24  1  0
 14 15  2  0
 14 19  1  0
 15 16  1  0
 15 25  1  0
 16 17  2  0
 16 26  1  0
 17 18  1  0
 17 27  1  0
 18 19  2  0
 18 28  1  0
 19 29  1  0
M  RAD  1   3   2
M  END
>  <reaction>  (11) 
rxn_1491

>  <mol_properties>  (11) 
{"1": {"label": "*0", "atom_type": "Ct"}, "2": {"label": "*1", "atom_type": "Cs"}, "12": {"label": "*3", "atom_type": "Cd"}, "13": {"label": "*4", "atom_type": "Cd"}, "22": {"label": "*2", "atom_type": "H0"}}

>  <type>  (11) 
unop_7

>  <geom_source>  (11) 
Heuristics

$$$$

     RDKit          3D

 29 28  0  0  0  0  0  0  0  0999 V2000
   -0.5858   -4.3594    0.1949 C   0  0  0  0  0  0  0  0  0  0  0  0
   -0.8728   -3.2027    0.0931 C   0  0  0  0  0  0  0  0  0  0  0  0
   -1.2574   -1.7944   -0.0524 C   0  0  0  0  0  3  0  0  0  0  0  0
   -2.7794   -1.6473   -0.2245 C   0  0  0  0  0  0  0  0  0  0  0  0
   -0.7698   -0.9903    1.0736 C   0  0  0  0  0  0  0  0  0  0  0  0
   -0.3976   -0.3145    1.9877 C   0  0  0  0  0  0  0  0  0  0  0  0
   -0.3307   -5.3879    0.2855 H   0  0  0  0  0  0  0  0  0  0  0  0
   -3.1114   -2.2212   -1.0892 H   0  0  0  0  0  0  0  0  0  0  0  0
   -3.2958   -2.0157    0.6609 H   0  0  0  0  0  0  0  0  0  0  0  0
   -3.0359   -0.5985   -0.3700 H   0  0  0  0  0  0  0  0  0  0  0  0
   -0.0667    0.2864    2.8003 H   0  0  0  0  0  0  0  0  0  0  0  0
    0.8489   -0.4929   -2.4541 C   0  0  0  0  0  0  0  0  0  0  0  0
    0.8489   -0.4929   -0.9250 C   0  0  0  0  0  0  0  0  0  0  0  0
    0.8489    0.9014   -0.3555 C   0  0  0  0  0  0  0  0  0  0  0  0
   -0.3456    1.5703   -0.1078 C   0  0  0  0  0  0  0  0  0  0  0  0
   -0.3489    2.8705    0.3731 C   0  0  0  0  0  0  0  0  0  0  0  0
    0.8489    3.5259    0.6149 C   0  0  0  0  0  0  0  0  0  0  0  0
    2.0467    2.8705    0.3731 C   0  0  0  0  0  0  0  0  0  0  0  0
    2.0434    1.5703   -0.1078 C   0  0  0  0  0  0  0  0  0  0  0  0
    1.7302    0.0221   -2.8409 H   0  0  0  0  0  0  0  0  0  0  0  0
   -0.0324    0.0221   -2.8409 H   0  0  0  0  0  0  0  0  0  0  0  0
    0.8489   -1.5113   -2.8464 H   0  0  0  0  0  0  0  0  0  0  0  0
   -0.2031   -1.1429   -0.4892 H   0  0  0  0  0  0  0  0  0  0  0  0
    1.7255   -1.0346   -0.5618 H   0  0  0  0  0  0  0  0  0  0  0  0
   -1.2865    1.0631   -0.2915 H   0  0  0  0  0  0  0  0  0  0  0  0
   -1.2897    3.3722    0.5630 H   0  0  0  0  0  0  0  0  0  0  0  0
    0.8489    4.5402    0.9933 H   0  0  0  0  0  0  0  0  0  0  0  0
    2.9875    3.3722    0.5630 H   0  0  0  0  0  0  0  0  0  0  0  0
    2.9843    1.0631   -0.2915 H   0  0  0  0  0  0  0  0  0  0  0  0
  1  2  3  0
  1  7  1  0
  2  3  1  0
  3  4  1  0
  3  5  1  0
  4  8  1  0
  4  9  1  0
  4 10  1  0
  5  6  3  0
  6 11  1  0
 12 13  1  0
 12 20  1  0
 12 21  1  0
 12 22  1  0
 13 14  1  0
 13 23  1  0
 13 24  1  0
 14 15  2  0
 14 19  1  0
 15 16  1  0
 15 25  1  0
 16 17  2  0
 16 26  1  0
 17 18  1  0
 17 27  1  0
 18 19  2  0
 18 28  1  0
 19 29  1  0
M  RAD  1   3   2
M  END
>  <reaction>  (12) 
rxn_1491

>  <mol_properties>  (12) 
{"1": {"label": "*0", "atom_type": "Ct"}, "2": {"label": "*1", "atom_type": "Cs"}, "12": {"label": "*3", "atom_type": "Cd"}, "13": {"label": "*4", "atom_type": "Cd"}, "22": {"label": "*2", "atom_type": "H0"}}

>  <type>  (12) 
unop_8

>  <geom_source>  (12) 
Heuristics

$$$$

     RDKit          3D

 29 28  0  0  0  0  0  0  0  0999 V2000
   -2.9419   -1.4105   -1.6160 C   0  0  0  0  0  0  0  0  0  0  0  0
   -2.0720   -1.5773   -0.8120 C   0  0  0  0  0  0  0  0  0  0  0  0
   -1.0098   -1.7439    0.1861 C   0  0  0  0  0  3  0  0  0  0  0  0
   -1.2006   -0.7790    1.3694 C   0  0  0  0  0  0  0  0  0  0  0  0
   -0.9227   -3.1351    0.6436 C   0  0  0  0  0  0  0  0  0  0  0  0
   -0.8406   -4.2588    1.0454 C   0  0  0  0  0  0  0  0  0  0  0  0
   -3.7152   -1.2622   -2.3308 H   0  0  0  0  0  0  0  0  0  0  0  0
   -1.2228    0.2489    1.0090 H   0  0  0  0  0  0  0  0  0  0  0  0
   -2.1380   -0.9921    1.8815 H   0  0  0  0  0  0  0  0  0  0  0  0
   -0.3799   -0.8937    2.0767 H   0  0  0  0  0  0  0  0  0  0  0  0
   -0.7675   -5.2578    1.4027 H   0  0  0  0  0  0  0  0  0  0  0  0
    1.0965   -0.4424   -2.2155 C   0  0  0  0  0  0  0  0  0  0  0  0
    1.0965   -0.4424   -0.6864 C   0  0  0  0  0  0  0  0  0  0  0  0
    1.0965    0.9519   -0.1170 C   0  0  0  0  0  0  0  0  0  0  0  0
   -0.0980    1.6208    0.1307 C   0  0  0  0  0  0  0  0  0  0  0  0
   -0.1013    2.9210    0.6117 C   0  0  0  0  0  0  0  0  0  0  0  0
    1.0965    3.5764    0.8535 C   0  0  0  0  0  0  0  0  0  0  0  0
    2.2943    2.9210    0.6117 C   0  0  0  0  0  0  0  0  0  0  0  0
    2.2910    1.6208    0.1307 C   0  0  0  0  0  0  0  0  0  0  0  0
    1.9778    0.0726   -2.6023 H   0  0  0  0  0  0  0  0  0  0  0  0
    0.2152    0.0726   -2.6023 H   0  0  0  0  0  0  0  0  0  0  0  0
    1.0965   -1.4608   -2.6078 H   0  0  0  0  0  0  0  0  0  0  0  0
    0.0445   -1.0924   -0.2506 H   0  0  0  0  0  0  0  0  0  0  0  0
    1.9731   -0.9841   -0.3233 H   0  0  0  0  0  0  0  0  0  0  0  0
   -1.0389    1.1136   -0.0530 H   0  0  0  0  0  0  0  0  0  0  0  0
   -1.0421    3.4227    0.8016 H   0  0  0  0  0  0  0  0  0  0  0  0
    1.0965    4.5907    1.2318 H   0  0  0  0  0  0  0  0  0  0  0  0
    3.2351    3.4227    0.8016 H   0  0  0  0  0  0  0  0  0  0  0  0
    3.2319    1.1136   -0.0530 H   0  0  0  0  0  0  0  0  0  0  0  0
  1  2  3  0
  1  7  1  0
  2  3  1  0
  3  4  1  0
  3  5  1  0
  4  8  1  0
  4  9  1  0
  4 10  1  0
  5  6  3  0
  6 11  1  0
 12 13  1  0
 12 20  1  0
 12 21  1  0
 12 22  1  0
 13 14  1  0
 13 23  1  0
 13 24  1  0
 14 15  2  0
 14 19  1  0
 15 16  1  0
 15 25  1  0
 16 17  2  0
 16 26  1  0
 17 18  1  0
 17 27  1  0
 18 19  2  0
 18 28  1  0
 19 29  1  0
M  RAD  1   3   2
M  END
>  <reaction>  (13) 
rxn_1491

>  <mol_properties>  (13) 
{"1": {"label": "*0", "atom_type": "Ct"}, "2": {"label": "*1", "atom_type": "Cs"}, "12": {"label": "*3", "atom_type": "Cd"}, "13": {"label": "*4", "atom_type": "Cd"}, "22": {"label": "*2", "atom_type": "H0"}}

>  <type>  (13) 
unop_9

>  <geom_source>  (13) 
Heuristics

$$$$

     RDKit          3D

 29 28  0  0  0  0  0  0  0  0999 V2000
   -1.1253   -4.1827   -0.9257 C   0  0  0  0  0  0  0  0  0  0  0  0
   -1.1678   -3.0687   -0.4921 C   0  0  0  0  0  0  0  0  0  0  0  0
   -1.2560   -1.6977    0.0227 C   0  0  0  0  0  3  0  0  0  0  0  0
   -2.7210   -1.2611    0.1973 C   0  0  0  0  0  0  0  0  0  0  0  0
   -0.5046   -1.5497    1.2741 C   0  0  0  0  0  0  0  0  0  0  0  0
    0.0873   -1.4054    2.3035 C   0  0  0  0  0  0  0  0  0  0  0  0
   -1.0876   -5.1731   -1.3111 H   0  0  0  0  0  0  0  0  0  0  0  0
   -3.2474   -1.3425   -0.7532 H   0  0  0  0  0  0  0  0  0  0  0  0
   -3.2183   -1.8956    0.9298 H   0  0  0  0  0  0  0  0  0  0  0  0
   -2.7610   -0.2284    0.5422 H   0  0  0  0  0  0  0  0  0  0  0  0
    0.6135   -1.2771    3.2187 H   0  0  0  0  0  0  0  0  0  0  0  0
    0.8503   -0.3962   -2.3789 C   0  0  0  0  0  0  0  0  0  0  0  0
    0.8503   -0.3962   -0.8498 C   0  0  0  0  0  0  0  0  0  0  0  0
    0.8503    0.9981   -0.2804 C   0  0  0  0  0  0  0  0  0  0  0  0
   -0.3442    1.6670   -0.0327 C   0  0  0  0  0  0  0  0  0  0  0  0
   -0.3475    2.9672    0.4483 C   0  0  0  0  0  0  0  0  0  0  0  0
    0.8503    3.6226    0.6901 C   0  0  0  0  0  0  0  0  0  0  0  0
    2.0482    2.9672    0.4483 C   0  0  0  0  0  0  0  0  0  0  0  0
    2.0449    1.6670   -0.0327 C   0  0  0  0  0  0  0  0  0  0  0  0
    1.7316    0.1188   -2.7658 H   0  0  0  0  0  0  0  0  0  0  0  0
   -0.0309    0.1188   -2.7658 H   0  0  0  0  0  0  0  0  0  0  0  0
    0.8504   -1.4146   -2.7712 H   0  0  0  0  0  0  0  0  0  0  0  0
   -0.2016   -1.0462   -0.4141 H   0  0  0  0  0  0  0  0  0  0  0  0
    1.7270   -0.9379   -0.4867 H   0  0  0  0  0  0  0  0  0  0  0  0
   -1.2851    1.1598   -0.2164 H   0  0  0  0  0  0  0  0  0  0  0  0
   -1.2882    3.4689    0.6382 H   0  0  0  0  0  0  0  0  0  0  0  0
    0.8503    4.6369    1.0684 H   0  0  0  0  0  0  0  0  0  0  0  0
    2.9889    3.4689    0.6382 H   0  0  0  0  0  0  0  0  0  0  0  0
    2.9858    1.1598   -0.2164 H   0  0  0  0  0  0  0  0  0  0  0  0
  1  2  3  0
  1  7  1  0
  2  3  1  0
  3  4  1  0
  3  5  1  0
  4  8  1  0
  4  9  1  0
  4 10  1  0
  5  6  3  0
  6 11  1  0
 12 13  1  0
 12 20  1  0
 12 21  1  0
 12 22  1  0
 13 14  1  0
 13 23  1  0
 13 24  1  0
 14 15  2  0
 14 19  1  0
 15 16  1  0
 15 25  1  0
 16 17  2  0
 16 26  1  0
 17 18  1  0
 17 27  1  0
 18 19  2  0
 18 28  1  0
 19 29  1  0
M  RAD  1   3   2
M  END
>  <reaction>  (14) 
rxn_1491

>  <mol_properties>  (14) 
{"1": {"label": "*0", "atom_type": "Ct"}, "2": {"label": "*1", "atom_type": "Cs"}, "12": {"label": "*3", "atom_type": "Cd"}, "13": {"label": "*4", "atom_type": "Cd"}, "22": {"label": "*2", "atom_type": "H0"}}

>  <type>  (14) 
unop_10

>  <geom_source>  (14) 
Heuristics

$$$$

     RDKit          3D

 29 28  0  0  0  0  0  0  0  0999 V2000
   -1.6517   -0.7727    2.4166 C   0  0  0  0  0  0  0  0  0  0  0  0
   -1.3730   -1.2435    1.3529 C   0  0  0  0  0  0  0  0  0  0  0  0
   -0.9965   -1.8338    0.0637 C   0  0  0  0  0  3  0  0  0  0  0  0
   -0.0263   -3.0131    0.2528 C   0  0  0  0  0  0  0  0  0  0  0  0
   -2.1804   -2.2374   -0.7030 C   0  0  0  0  0  0  0  0  0  0  0  0
   -3.1279   -2.5899   -1.3423 C   0  0  0  0  0  0  0  0  0  0  0  0
   -1.8995   -0.3542    3.3623 H   0  0  0  0  0  0  0  0  0  0  0  0
    0.8613   -2.6799    0.7896 H   0  0  0  0  0  0  0  0  0  0  0  0
   -0.5054   -3.8067    0.8246 H   0  0  0  0  0  0  0  0  0  0  0  0
    0.2691   -3.4088   -0.7183 H   0  0  0  0  0  0  0  0  0  0  0  0
   -3.9703   -2.9033   -1.9107 H   0  0  0  0  0  0  0  0  0  0  0  0
    1.1098   -0.5323   -2.3379 C   0  0  0  0  0  0  0  0  0  0  0  0
    1.1098   -0.5323   -0.8088 C   0  0  0  0  0  0  0  0  0  0  0  0
    1.1098    0.8620   -0.2394 C   0  0  0  0  0  0  0  0  0  0  0  0
   -0.0847    1.5309    0.0083 C   0  0  0  0  0  0  0  0  0  0  0  0
   -0.0880    2.8311    0.4893 C   0  0  0  0  0  0  0  0  0  0  0  0
    1.1098    3.4865    0.7311 C   0  0  0  0  0  0  0  0  0  0  0  0
    2.3077    2.8311    0.4893 C   0  0  0  0  0  0  0  0  0  0  0  0
    2.3044    1.5309    0.0083 C   0  0  0  0  0  0  0  0  0  0  0  0
    1.9911   -0.0173   -2.7248 H   0  0  0  0  0  0  0  0  0  0  0  0
    0.2286   -0.0173   -2.7248 H   0  0  0  0  0  0  0  0  0  0  0  0
    1.1098   -1.5507   -2.7302 H   0  0  0  0  0  0  0  0  0  0  0  0
    0.0579   -1.1823   -0.3731 H   0  0  0  0  0  0  0  0  0  0  0  0
    1.9865   -1.0740   -0.4457 H   0  0  0  0  0  0  0  0  0  0  0  0
   -1.0256    1.0237   -0.1754 H   0  0  0  0  0  0  0  0  0  0  0  0
   -1.0287    3.3328    0.6792 H   0  0  0  0  0  0  0  0  0  0  0  0
    1.1098    4.5008    1.1094 H   0  0  0  0  0  0  0  0  0  0  0  0
    3.2484    3.3328    0.6792 H   0  0  0  0  0  0  0  0  0  0  0  0
    3.2453    1.0237   -0.1754 H   0  0  0  0  0  0  0  0  0  0  0  0
  1  2  3  0
  1  7  1  0
  2  3  1  0
  3  4  1  0
  3  5  1  0
  4  8  1  0
  4  9  1  0
  4 10  1  0
  5  6  3  0
  6 11  1  0
 12 13  1  0
 12 20  1  0
 12 21  1  0
 12 22  1  0
 13 14  1  0
 13 23  1  0
 13 24  1  0
 14 15  2  0
 14 19  1  0
 15 16  1  0
 15 25  1  0
 16 17  2  0
 16 26  1  0
 17 18  1  0
 17 27  1  0
 18 19  2  0
 18 28  1  0
 19 29  1  0
M  RAD  1   3   2
M  END
>  <reaction>  (15) 
rxn_1491

>  <mol_properties>  (15) 
{"1": {"label": "*0", "atom_type": "Ct"}, "2": {"label": "*1", "atom_type": "Cs"}, "12": {"label": "*3", "atom_type": "Cd"}, "13": {"label": "*4", "atom_type": "Cd"}, "22": {"label": "*2", "atom_type": "H0"}}

>  <type>  (15) 
unop_11

>  <geom_source>  (15) 
Heuristics

$$$$

     RDKit          3D

 29 28  0  0  0  0  0  0  0  0999 V2000
   -2.4672   -2.4822   -1.9497 C   0  0  0  0  0  0  0  0  0  0  0  0
   -1.8403   -2.1333   -0.9926 C   0  0  0  0  0  0  0  0  0  0  0  0
   -1.0931   -1.6715    0.1825 C   0  0  0  0  0  3  0  0  0  0  0  0
   -1.9350   -0.7052    1.0340 C   0  0  0  0  0  0  0  0  0  0  0  0
   -0.6090   -2.8015    0.9832 C   0  0  0  0  0  0  0  0  0  0  0  0
   -0.2159   -3.7040    1.6628 C   0  0  0  0  0  0  0  0  0  0  0  0
   -3.0245   -2.7925   -2.8006 H   0  0  0  0  0  0  0  0  0  0  0  0
   -2.2494    0.1441    0.4283 H   0  0  0  0  0  0  0  0  0  0  0  0
   -2.8206   -1.2125    1.4143 H   0  0  0  0  0  0  0  0  0  0  0  0
   -1.3463   -0.3460    1.8774 H   0  0  0  0  0  0  0  0  0  0  0  0
    0.1337   -4.5063    2.2669 H   0  0  0  0  0  0  0  0  0  0  0  0
    1.0132   -0.3700   -2.2191 C   0  0  0  0  0  0  0  0  0  0  0  0
    1.0132   -0.3700   -0.6900 C   0  0  0  0  0  0  0  0  0  0  0  0
    1.0132    1.0242   -0.1206 C   0  0  0  0  0  0  0  0  0  0  0  0
   -0.1813    1.6932    0.1271 C   0  0  0  0  0  0  0  0  0  0  0  0
   -0.1846    2.9934    0.6081 C   0  0  0  0  0  0  0  0  0  0  0  0
    1.0132    3.6488    0.8499 C   0  0  0  0  0  0  0  0  0  0  0  0
    2.2110    2.9934    0.6081 C   0  0  0  0  0  0  0  0  0  0  0  0
    2.2078    1.6932    0.1271 C   0  0  0  0  0  0  0  0  0  0  0  0
    1.8945    0.1450   -2.6060 H   0  0  0  0  0  0  0  0  0  0  0  0
    0.1319    0.1450   -2.6060 H   0  0  0  0  0  0  0  0  0  0  0  0
    1.0132   -1.3885   -2.6115 H   0  0  0  0  0  0  0  0  0  0  0  0
   -0.0387   -1.0201   -0.2543 H   0  0  0  0  0  0  0  0  0  0  0  0
    1.8899   -0.9117   -0.3269 H   0  0  0  0  0  0  0  0  0  0  0  0
   -1.1222    1.1860   -0.0566 H   0  0  0  0  0  0  0  0  0  0  0  0
   -1.1254    3.4951    0.7980 H   0  0  0  0  0  0  0  0  0  0  0  0
    1.0132    4.6631    1.2282 H   0  0  0  0  0  0  0  0  0  0  0  0
    3.1518    3.4951    0.7980 H   0  0  0  0  0  0  0  0  0  0  0  0
    3.1486    1.1860   -0.0566 H   0  0  0  0  0  0  0  0  0  0  0  0
  1  2  3  0
  1  7  1  0
  2  3  1  0
  3  4  1  0
  3  5  1  0
  4  8  1  0
  4  9  1  0
  4 10  1  0
  5  6  3  0
  6 11  1  0
 12 13  1  0
 12 20  1  0
 12 21  1  0
 12 22  1  0
 13 14  1  0
 13 23  1  0
 13 24  1  0
 14 15  2  0
 14 19  1  0
 15 16  1  0
 15 25  1  0
 16 17  2  0
 16 26  1  0
 17 18  1  0
 17 27  1  0
 18 19  2  0
 18 28  1  0
 19 29  1  0
M  RAD  1   3   2
M  END
>  <reaction>  (16) 
rxn_1491

>  <mol_properties>  (16) 
{"1": {"label": "*0", "atom_type": "Ct"}, "2": {"label": "*1", "atom_type": "Cs"}, "12": {"label": "*3", "atom_type": "Cd"}, "13": {"label": "*4", "atom_type": "Cd"}, "22": {"label": "*2", "atom_type": "H0"}}

>  <type>  (16) 
unop_12

>  <geom_source>  (16) 
Heuristics

$$$$

     RDKit          3D

 29 28  0  0  0  0  0  0  0  0999 V2000
   -2.1975   -0.0100    0.2414 C   0  0  0  0  0  0  0  0  0  0  0  0
   -1.6080   -0.2259    1.6335 C   0  0  0  0  0  0  0  0  0  0  0  0
    0.3594   -0.6521   -2.4345 C   0  0  0  0  0  0  0  0  0  0  0  0
    1.3478    0.0104   -0.2403 C   0  0  0  0  0  0  0  0  0  0  0  0
    0.0851   -0.3360   -0.9700 C   0  0  0  0  0  0  0  0  0  0  0  0
    1.6913    1.3560   -0.0486 C   0  0  0  0  0  3  0  0  0  0  0  0
    2.2064   -0.9983    0.2257 C   0  0  0  0  0  0  0  0  0  0  0  0
    2.8770    1.6904    0.6137 C   0  0  0  0  0  0  0  0  0  0  0  0
    3.7259    0.6830    1.0823 C   0  0  0  0  0  0  0  0  0  0  0  0
    3.3912   -0.6604    0.8875 C   0  0  0  0  0  0  0  0  0  0  0  0
   -2.9020    1.2763    0.1782 C   0  0  0  0  0  0  0  0  0  0  0  0
   -3.1308   -1.0930   -0.0923 C   0  0  0  0  0  0  0  0  0  0  0  0
   -3.4792    2.3338    0.1257 C   0  0  0  0  0  0  0  0  0  0  0  0
   -3.8960   -1.9835   -0.3671 C   0  0  0  0  0  0  0  0  0  0  0  0
   -1.2224   -0.0034   -0.6416 H   0  0  0  0  0  0  0  0  0  0  0  0
   -1.0604   -1.1921    1.6683 H   0  0  0  0  0  0  0  0  0  0  0  0
   -2.4079   -0.2368    2.4062 H   0  0  0  0  0  0  0  0  0  0  0  0
   -0.8887    0.5869    1.8713 H   0  0  0  0  0  0  0  0  0  0  0  0
    1.0190   -1.5418   -2.5215 H   0  0  0  0  0  0  0  0  0  0  0  0
    0.8429    0.2171   -2.9285 H   0  0  0  0  0  0  0  0  0  0  0  0
   -0.6003   -0.8648   -2.9495 H   0  0  0  0  0  0  0  0  0  0  0  0
   -0.4327   -1.1882   -0.4788 H   0  0  0  0  0  0  0  0  0  0  0  0
    1.0423    2.1434   -0.4118 H   0  0  0  0  0  0  0  0  0  0  0  0
    3.1386    2.7301    0.7622 H   0  0  0  0  0  0  0  0  0  0  0  0
    1.9582   -2.0418    0.0755 H   0  0  0  0  0  0  0  0  0  0  0  0
    4.6434    0.9433    1.5940 H   0  0  0  0  0  0  0  0  0  0  0  0
    4.0506   -1.4395    1.2477 H   0  0  0  0  0  0  0  0  0  0  0  0
   -3.9858    3.2618    0.0798 H   0  0  0  0  0  0  0  0  0  0  0  0
   -4.5676   -2.7650   -0.6082 H   0  0  0  0  0  0  0  0  0  0  0  0
  1  2  1  0
  1 11  1  0
  1 12  1  0
  1 15  1  0
  2 16  1  0
  2 17  1  0
  2 18  1  0
  3  5  1  0
  3 19  1  0
  3 20  1  0
  3 21  1  0
  4  5  2  3
  4  6  1  0
  4  7  1  0
  5 22  1  0
  6  8  1  0
  6 23  1  0
  7 10  2  0
  7 25  1  0
  8  9  2  0
  8 24  1  0
  9 10  1  0
  9 26  1  0
 10 27  1  0
 11 13  3  0
 12 14  3  0
 13 28  1  0
 14 29  1  0
M  RAD  1   6   2
M  END
>  <reaction>  (17) 
rxn_1491

>  <mol_properties>  (17) 
{"1": {"label": "*0", "atom_type": "Ct"}, "2": {"label": "*1", "atom_type": "Cs"}, "12": {"label": "*3", "atom_type": "Cd"}, "13": {"label": "*4", "atom_type": "Cd"}, "22": {"label": "*2", "atom_type": "H0"}}

>  <type>  (17) 
unop_13

>  <geom_source>  (17) 
AutoTST

$$$$
