
     RDKit          3D

  4  3  0  0  0  0  0  0  0  0999 V2000
   -0.0057    0.0001   -0.0008 C   0  0  0  0  0  0  0  0  0  0  0  0
    1.1789   -0.0174    0.1563 O   0  0  0  0  0  0  0  0  0  0  0  0
   -0.5891    0.9399    0.0445 H   0  0  0  0  0  0  0  0  0  0  0  0
   -0.5841   -0.9226   -0.2001 H   0  0  0  0  0  0  0  0  0  0  0  0
  1  2  2  0
  1  3  1  0
  1  4  1  0
M  END
>  <reaction>  (1) 
rxn_368

>  <mol_properties>  (1) 
{"0": {"label": "donator", "atom_type": "CO"}, "2": {"label": "d_hydrogen", "atom_type": "H0"}}

>  <type>  (1) 
r1h

$$$$

     RDKit          3D

  5  4  0  0  0  0  0  0  0  0999 V2000
   -0.0419    0.0056   -0.0340 C   0  0  0  0  0  0  0  0  0  0  0  0
    1.3118    0.0049   -0.1263 O   0  0  0  0  0  1  0  0  0  0  0  0
   -0.2615   -0.1535    1.0387 H   0  0  0  0  0  0  0  0  0  0  0  0
   -0.4946    0.9694   -0.3042 H   0  0  0  0  0  0  0  0  0  0  0  0
   -0.5138   -0.8264   -0.5743 H   0  0  0  0  0  0  0  0  0  0  0  0
  1  2  1  0
  1  3  1  0
  1  4  1  0
  1  5  1  0
M  RAD  1   2   2
M  END
>  <reaction>  (2) 
rxn_368

>  <mol_properties>  (2) 
{"1": {"label": "acceptor", "atom_type": "O2s"}}

>  <type>  (2) 
r2

$$$$

     RDKit          3D

  6  5  0  0  0  0  0  0  0  0999 V2000
   -0.3669    0.0060    0.0609 C   0  0  0  0  0  0  0  0  0  0  0  0
    0.9818   -0.0507    0.4695 O   0  0  0  0  0  0  0  0  0  0  0  0
   -0.6066    0.9462   -0.4488 H   0  0  0  0  0  0  0  0  0  0  0  0
   -0.5221   -0.8115   -0.6420 H   0  0  0  0  0  0  0  0  0  0  0  0
   -1.0602   -0.1268    0.8992 H   0  0  0  0  0  0  0  0  0  0  0  0
    1.1451    0.6595    1.0897 H   0  0  0  0  0  0  0  0  0  0  0  0
  1  2  1  0
  1  3  1  0
  1  4  1  0
  1  5  1  0
  2  6  1  0
M  END
>  <reaction>  (3) 
rxn_368

>  <mol_properties>  (3) 
{"0": {"label": "a_hydrogen", "atom_type": "H0"}, "2": {"label": "acceptor", "atom_type": "O2s"}}

>  <type>  (3) 
r2h

$$$$

     RDKit          3D

  9  7  0  0  0  0  0  0  0  0999 V2000
    0.4260   -0.9830   -0.4765 C   0  0  0  0  0  0  0  0  0  0  0  0
   -0.1735   -0.5787   -1.4144 O   0  0  0  0  0  0  0  0  0  0  0  0
    0.2822   -0.4745    0.6143 H   0  0  0  0  0  0  0  0  0  0  0  0
    1.1399   -1.8309   -0.5310 H   0  0  0  0  0  0  0  0  0  0  0  0
   -1.0225    1.2096    1.1446 C   0  0  0  0  0  0  0  0  0  0  0  0
   -0.1071    0.3003    1.6435 O   0  0  0  0  0  1  0  0  0  0  0  0
   -0.6654    2.2395    1.2638 H   0  0  0  0  0  0  0  0  0  0  0  0
   -2.0020    1.0911    1.6230 H   0  0  0  0  0  0  0  0  0  0  0  0
   -1.1732    1.0468    0.0631 H   0  0  0  0  0  0  0  0  0  0  0  0
  1  2  2  0
  1  3  1  0
  1  4  1  0
  5  6  1  0
  5  7  1  0
  5  8  1  0
  5  9  1  0
M  RAD  1   6   2
M  END
>  <reaction>  (4) 
rxn_368

>  <mol_properties>  (4) 
{"0": {"label": "*1", "atom_type": "CO"}, "1": {"label": "*0", "atom_type": "O2d"}, "2": {"label": "*2", "atom_type": "H0"}, "4": {"label": "*4", "atom_type": "Cs"}, "5": {"label": "*3", "atom_type": "O2s"}}

>  <type>  (4) 
ts

$$$$

     RDKit          3D

  9  7  0  0  0  0  0  0  0  0999 V2000
    0.2997   -1.0795   -0.5848 C   0  0  0  0  0  3  0  0  0  0  0  0
    0.2997   -1.0795   -1.7798 O   0  0  0  0  0  0  0  0  0  0  0  0
    0.2997    0.0476    0.1185 H   0  0  0  0  0  0  0  0  0  0  0  0
    0.2997   -2.0187    0.0013 H   0  0  0  0  0  0  0  0  0  0  0  0
   -0.8571    1.0525    1.5328 C   0  0  0  0  0  0  0  0  0  0  0  0
    0.2997    1.0219    0.7265 O   0  0  0  0  0  0  0  0  0  0  0  0
   -0.5518    1.4096    2.5155 H   0  0  0  0  0  0  0  0  0  0  0  0
   -1.3051    0.0596    1.6532 H   0  0  0  0  0  0  0  0  0  0  0  0
   -1.6180    1.7370    1.1408 H   0  0  0  0  0  0  0  0  0  0  0  0
  1  2  2  0
  1  4  1  0
  3  6  1  0
  5  6  1  0
  5  7  1  0
  5  8  1  0
  5  9  1  0
M  RAD  1   1   2
M  END
>  <reaction>  (5) 
rxn_368

>  <mol_properties>  (5) 
{"0": {"label": "*1", "atom_type": "CO"}, "1": {"label": "*0", "atom_type": "O2d"}, "2": {"label": "*2", "atom_type": "H0"}, "4": {"label": "*4", "atom_type": "Cs"}, "5": {"label": "*3", "atom_type": "O2s"}}

>  <type>  (5) 
unop_1

>  <geom_source>  (5) 
Heuristics

$$$$

     RDKit          3D

  9  7  0  0  0  0  0  0  0  0999 V2000
    0.1736   -1.3305   -0.1830 C   0  0  0  0  0  3  0  0  0  0  0  0
    0.1736   -1.3305   -1.3780 O   0  0  0  0  0  0  0  0  0  0  0  0
    0.1736   -0.2034    0.5203 H   0  0  0  0  0  0  0  0  0  0  0  0
    0.1736   -2.2697    0.4031 H   0  0  0  0  0  0  0  0  0  0  0  0
   -0.4943    1.7674    0.3866 C   0  0  0  0  0  0  0  0  0  0  0  0
    0.1736    0.7709    1.1283 O   0  0  0  0  0  0  0  0  0  0  0  0
   -0.7985    2.5399    1.0917 H   0  0  0  0  0  0  0  0  0  0  0  0
   -1.3929    1.3831   -0.1092 H   0  0  0  0  0  0  0  0  0  0  0  0
    0.1542    2.2280   -0.3673 H   0  0  0  0  0  0  0  0  0  0  0  0
  1  2  2  0
  1  4  1  0
  3  6  1  0
  5  6  1  0
  5  7  1  0
  5  8  1  0
  5  9  1  0
M  RAD  1   1   2
M  END
>  <reaction>  (6) 
rxn_368

>  <mol_properties>  (6) 
{"0": {"label": "*1", "atom_type": "CO"}, "1": {"label": "*0", "atom_type": "O2d"}, "2": {"label": "*2", "atom_type": "H0"}, "4": {"label": "*4", "atom_type": "Cs"}, "5": {"label": "*3", "atom_type": "O2s"}}

>  <type>  (6) 
unop_2

>  <geom_source>  (6) 
Heuristics

$$$$

     RDKit          3D

  9  7  0  0  0  0  0  0  0  0999 V2000
    0.1727   -1.0127   -0.6921 C   0  0  0  0  0  3  0  0  0  0  0  0
    0.1727   -1.0127   -1.8871 O   0  0  0  0  0  0  0  0  0  0  0  0
    0.1727    0.1144    0.0112 H   0  0  0  0  0  0  0  0  0  0  0  0
    0.1727   -1.9519   -0.1060 H   0  0  0  0  0  0  0  0  0  0  0  0
   -0.4952    0.8605    1.8403 C   0  0  0  0  0  0  0  0  0  0  0  0
    0.1727    1.0887    0.6192 O   0  0  0  0  0  0  0  0  0  0  0  0
   -0.0301    1.5063    2.5840 H   0  0  0  0  0  0  0  0  0  0  0  0
   -0.3975   -0.1773    2.1788 H   0  0  0  0  0  0  0  0  0  0  0  0
   -1.5600    1.1139    1.7843 H   0  0  0  0  0  0  0  0  0  0  0  0
  1  2  2  0
  1  4  1  0
  3  6  1  0
  5  6  1  0
  5  7  1  0
  5  8  1  0
  5  9  1  0
M  RAD  1   1   2
M  END
>  <reaction>  (7) 
rxn_368

>  <mol_properties>  (7) 
{"0": {"label": "*1", "atom_type": "CO"}, "1": {"label": "*0", "atom_type": "O2d"}, "2": {"label": "*2", "atom_type": "H0"}, "4": {"label": "*4", "atom_type": "Cs"}, "5": {"label": "*3", "atom_type": "O2s"}}

>  <type>  (7) 
unop_3

>  <geom_source>  (7) 
Heuristics

$$$$

     RDKit          3D

  9  7  0  0  0  0  0  0  0  0999 V2000
   -0.3004   -1.2630   -0.2908 C   0  0  0  0  0  3  0  0  0  0  0  0
   -0.3004   -1.2630   -1.4858 O   0  0  0  0  0  0  0  0  0  0  0  0
   -0.3004   -0.1360    0.4125 H   0  0  0  0  0  0  0  0  0  0  0  0
   -0.3004   -2.2023    0.2953 H   0  0  0  0  0  0  0  0  0  0  0  0
    0.8564    1.5760    0.6936 C   0  0  0  0  0  0  0  0  0  0  0  0
   -0.3004    0.8383    1.0205 O   0  0  0  0  0  0  0  0  0  0  0  0
    1.1771    2.0856    1.6013 H   0  0  0  0  0  0  0  0  0  0  0  0
    0.6620    2.3337   -0.0740 H   0  0  0  0  0  0  0  0  0  0  0  0
    1.6762    0.9329    0.3539 H   0  0  0  0  0  0  0  0  0  0  0  0
  1  2  2  0
  1  4  1  0
  3  6  1  0
  5  6  1  0
  5  7  1  0
  5  8  1  0
  5  9  1  0
M  RAD  1   1   2
M  END
>  <reaction>  (8) 
rxn_368

>  <mol_properties>  (8) 
{"0": {"label": "*1", "atom_type": "CO"}, "1": {"label": "*0", "atom_type": "O2d"}, "2": {"label": "*2", "atom_type": "H0"}, "4": {"label": "*4", "atom_type": "Cs"}, "5": {"label": "*3", "atom_type": "O2s"}}

>  <type>  (8) 
unop_4

>  <geom_source>  (8) 
Heuristics

$$$$

     RDKit          3D

  9  7  0  0  0  0  0  0  0  0999 V2000
   -0.0000   -0.9884   -0.7312 C   0  0  0  0  0  3  0  0  0  0  0  0
   -0.0000   -0.9884   -1.9263 O   0  0  0  0  0  0  0  0  0  0  0  0
   -0.0000    0.1386   -0.0279 H   0  0  0  0  0  0  0  0  0  0  0  0
   -0.0000   -1.9276   -0.1452 H   0  0  0  0  0  0  0  0  0  0  0  0
   -0.0000    0.7900    1.9529 C   0  0  0  0  0  0  0  0  0  0  0  0
   -0.0000    1.1129    0.5800 O   0  0  0  0  0  0  0  0  0  0  0  0
    0.0000    1.7306    2.5021 H   0  0  0  0  0  0  0  0  0  0  0  0
    0.8908    0.2225    2.2455 H   0  0  0  0  0  0  0  0  0  0  0  0
   -0.8908    0.2225    2.2455 H   0  0  0  0  0  0  0  0  0  0  0  0
  1  2  2  0
  1  4  1  0
  3  6  1  0
  5  6  1  0
  5  7  1  0
  5  8  1  0
  5  9  1  0
M  RAD  1   1   2
M  END
>  <reaction>  (9) 
rxn_368

>  <mol_properties>  (9) 
{"0": {"label": "*1", "atom_type": "CO"}, "1": {"label": "*0", "atom_type": "O2d"}, "2": {"label": "*2", "atom_type": "H0"}, "4": {"label": "*4", "atom_type": "Cs"}, "5": {"label": "*3", "atom_type": "O2s"}}

>  <type>  (9) 
unop_5

>  <geom_source>  (9) 
Heuristics

$$$$

     RDKit          3D

  9  7  0  0  0  0  0  0  0  0999 V2000
   -0.3465   -1.1711   -0.4379 C   0  0  0  0  0  3  0  0  0  0  0  0
   -0.3465   -1.1711   -1.6329 O   0  0  0  0  0  0  0  0  0  0  0  0
   -0.3465   -0.0441    0.2654 H   0  0  0  0  0  0  0  0  0  0  0  0
   -0.3465   -2.1104    0.1482 H   0  0  0  0  0  0  0  0  0  0  0  0
    0.9892    1.3144    1.1131 C   0  0  0  0  0  0  0  0  0  0  0  0
   -0.3465    0.9302    0.8734 O   0  0  0  0  0  0  0  0  0  0  0  0
    1.0453    1.6441    2.1497 H   0  0  0  0  0  0  0  0  0  0  0  0
    1.3032    2.1458    0.4717 H   0  0  0  0  0  0  0  0  0  0  0  0
    1.6903    0.4826    0.9798 H   0  0  0  0  0  0  0  0  0  0  0  0
  1  2  2  0
  1  4  1  0
  3  6  1  0
  5  6  1  0
  5  7  1  0
  5  8  1  0
  5  9  1  0
M  RAD  1   1   2
M  END
>  <reaction>  (10) 
rxn_368

>  <mol_properties>  (10) 
{"0": {"label": "*1", "atom_type": "CO"}, "1": {"label": "*0", "atom_type": "O2d"}, "2": {"label": "*2", "atom_type": "H0"}, "4": {"label": "*4", "atom_type": "Cs"}, "5": {"label": "*3", "atom_type": "O2s"}}

>  <type>  (10) 
unop_6

>  <geom_source>  (10) 
Heuristics

$$$$

     RDKit          3D

  9  7  0  0  0  0  0  0  0  0999 V2000
   -0.2997   -1.0795   -0.5848 C   0  0  0  0  0  3  0  0  0  0  0  0
   -0.2997   -1.0795   -1.7798 O   0  0  0  0  0  0  0  0  0  0  0  0
   -0.2997    0.0476    0.1185 H   0  0  0  0  0  0  0  0  0  0  0  0
   -0.2997   -2.0187    0.0013 H   0  0  0  0  0  0  0  0  0  0  0  0
    0.8571    1.0525    1.5328 C   0  0  0  0  0  0  0  0  0  0  0  0
   -0.2997    1.0219    0.7265 O   0  0  0  0  0  0  0  0  0  0  0  0
    0.5518    1.4096    2.5155 H   0  0  0  0  0  0  0  0  0  0  0  0
    1.6180    1.7369    1.1407 H   0  0  0  0  0  0  0  0  0  0  0  0
    1.3051    0.0596    1.6532 H   0  0  0  0  0  0  0  0  0  0  0  0
  1  2  2  0
  1  4  1  0
  3  6  1  0
  5  6  1  0
  5  7  1  0
  5  8  1  0
  5  9  1  0
M  RAD  1   1   2
M  END
>  <reaction>  (11) 
rxn_368

>  <mol_properties>  (11) 
{"0": {"label": "*1", "atom_type": "CO"}, "1": {"label": "*0", "atom_type": "O2d"}, "2": {"label": "*2", "atom_type": "H0"}, "4": {"label": "*4", "atom_type": "Cs"}, "5": {"label": "*3", "atom_type": "O2s"}}

>  <type>  (11) 
unop_7

>  <geom_source>  (11) 
Heuristics

$$$$

     RDKit          3D

  9  7  0  0  0  0  0  0  0  0999 V2000
    0.3465   -1.1711   -0.4379 C   0  0  0  0  0  3  0  0  0  0  0  0
    0.3465   -1.1711   -1.6329 O   0  0  0  0  0  0  0  0  0  0  0  0
    0.3465   -0.0441    0.2654 H   0  0  0  0  0  0  0  0  0  0  0  0
    0.3465   -2.1104    0.1482 H   0  0  0  0  0  0  0  0  0  0  0  0
   -0.9892    1.3144    1.1131 C   0  0  0  0  0  0  0  0  0  0  0  0
    0.3465    0.9302    0.8734 O   0  0  0  0  0  0  0  0  0  0  0  0
   -1.0453    1.6441    2.1497 H   0  0  0  0  0  0  0  0  0  0  0  0
   -1.6903    0.4826    0.9798 H   0  0  0  0  0  0  0  0  0  0  0  0
   -1.3032    2.1458    0.4717 H   0  0  0  0  0  0  0  0  0  0  0  0
  1  2  2  0
  1  4  1  0
  3  6  1  0
  5  6  1  0
  5  7  1  0
  5  8  1  0
  5  9  1  0
M  RAD  1   1   2
M  END
>  <reaction>  (12) 
rxn_368

>  <mol_properties>  (12) 
{"0": {"label": "*1", "atom_type": "CO"}, "1": {"label": "*0", "atom_type": "O2d"}, "2": {"label": "*2", "atom_type": "H0"}, "4": {"label": "*4", "atom_type": "Cs"}, "5": {"label": "*3", "atom_type": "O2s"}}

>  <type>  (12) 
unop_8

>  <geom_source>  (12) 
Heuristics

$$$$

     RDKit          3D

  9  7  0  0  0  0  0  0  0  0999 V2000
   -0.1736   -1.3305   -0.1830 C   0  0  0  0  0  3  0  0  0  0  0  0
   -0.1736   -1.3305   -1.3780 O   0  0  0  0  0  0  0  0  0  0  0  0
   -0.1736   -0.2034    0.5203 H   0  0  0  0  0  0  0  0  0  0  0  0
   -0.1736   -2.2697    0.4031 H   0  0  0  0  0  0  0  0  0  0  0  0
    0.4943    1.7674    0.3866 C   0  0  0  0  0  0  0  0  0  0  0  0
   -0.1736    0.7709    1.1283 O   0  0  0  0  0  0  0  0  0  0  0  0
    0.7985    2.5400    1.0917 H   0  0  0  0  0  0  0  0  0  0  0  0
   -0.1542    2.2279   -0.3673 H   0  0  0  0  0  0  0  0  0  0  0  0
    1.3930    1.3831   -0.1092 H   0  0  0  0  0  0  0  0  0  0  0  0
  1  2  2  0
  1  4  1  0
  3  6  1  0
  5  6  1  0
  5  7  1  0
  5  8  1  0
  5  9  1  0
M  RAD  1   1   2
M  END
>  <reaction>  (13) 
rxn_368

>  <mol_properties>  (13) 
{"0": {"label": "*1", "atom_type": "CO"}, "1": {"label": "*0", "atom_type": "O2d"}, "2": {"label": "*2", "atom_type": "H0"}, "4": {"label": "*4", "atom_type": "Cs"}, "5": {"label": "*3", "atom_type": "O2s"}}

>  <type>  (13) 
unop_9

>  <geom_source>  (13) 
Heuristics

$$$$

     RDKit          3D

  9  7  0  0  0  0  0  0  0  0999 V2000
    0.3004   -1.2630   -0.2908 C   0  0  0  0  0  3  0  0  0  0  0  0
    0.3004   -1.2630   -1.4858 O   0  0  0  0  0  0  0  0  0  0  0  0
    0.3004   -0.1360    0.4125 H   0  0  0  0  0  0  0  0  0  0  0  0
    0.3004   -2.2023    0.2953 H   0  0  0  0  0  0  0  0  0  0  0  0
   -0.8564    1.5760    0.6936 C   0  0  0  0  0  0  0  0  0  0  0  0
    0.3004    0.8383    1.0205 O   0  0  0  0  0  0  0  0  0  0  0  0
   -1.1771    2.0855    1.6013 H   0  0  0  0  0  0  0  0  0  0  0  0
   -1.6762    0.9329    0.3539 H   0  0  0  0  0  0  0  0  0  0  0  0
   -0.6620    2.3337   -0.0740 H   0  0  0  0  0  0  0  0  0  0  0  0
  1  2  2  0
  1  4  1  0
  3  6  1  0
  5  6  1  0
  5  7  1  0
  5  8  1  0
  5  9  1  0
M  RAD  1   1   2
M  END
>  <reaction>  (14) 
rxn_368

>  <mol_properties>  (14) 
{"0": {"label": "*1", "atom_type": "CO"}, "1": {"label": "*0", "atom_type": "O2d"}, "2": {"label": "*2", "atom_type": "H0"}, "4": {"label": "*4", "atom_type": "Cs"}, "5": {"label": "*3", "atom_type": "O2s"}}

>  <type>  (14) 
unop_10

>  <geom_source>  (14) 
Heuristics

$$$$

     RDKit          3D

  9  7  0  0  0  0  0  0  0  0999 V2000
   -0.1727   -1.0127   -0.6921 C   0  0  0  0  0  3  0  0  0  0  0  0
   -0.1727   -1.0127   -1.8871 O   0  0  0  0  0  0  0  0  0  0  0  0
   -0.1727    0.1144    0.0112 H   0  0  0  0  0  0  0  0  0  0  0  0
   -0.1727   -1.9519   -0.1060 H   0  0  0  0  0  0  0  0  0  0  0  0
    0.4952    0.8605    1.8403 C   0  0  0  0  0  0  0  0  0  0  0  0
   -0.1727    1.0887    0.6192 O   0  0  0  0  0  0  0  0  0  0  0  0
    0.0302    1.5063    2.5839 H   0  0  0  0  0  0  0  0  0  0  0  0
    1.5600    1.1139    1.7843 H   0  0  0  0  0  0  0  0  0  0  0  0
    0.3975   -0.1773    2.1788 H   0  0  0  0  0  0  0  0  0  0  0  0
  1  2  2  0
  1  4  1  0
  3  6  1  0
  5  6  1  0
  5  7  1  0
  5  8  1  0
  5  9  1  0
M  RAD  1   1   2
M  END
>  <reaction>  (15) 
rxn_368

>  <mol_properties>  (15) 
{"0": {"label": "*1", "atom_type": "CO"}, "1": {"label": "*0", "atom_type": "O2d"}, "2": {"label": "*2", "atom_type": "H0"}, "4": {"label": "*4", "atom_type": "Cs"}, "5": {"label": "*3", "atom_type": "O2s"}}

>  <type>  (15) 
unop_11

>  <geom_source>  (15) 
Heuristics

$$$$

     RDKit          3D

  9  7  0  0  0  0  0  0  0  0999 V2000
    0.0000   -1.3552   -0.1435 C   0  0  0  0  0  3  0  0  0  0  0  0
    0.0000   -1.3552   -1.3386 O   0  0  0  0  0  0  0  0  0  0  0  0
    0.0000   -0.2281    0.5598 H   0  0  0  0  0  0  0  0  0  0  0  0
   -0.0000   -2.2944    0.4426 H   0  0  0  0  0  0  0  0  0  0  0  0
    0.0000    1.8374    0.2743 C   0  0  0  0  0  0  0  0  0  0  0  0
    0.0000    0.7462    1.1678 O   0  0  0  0  0  0  0  0  0  0  0  0
   -0.0000    2.7441    0.8779 H   0  0  0  0  0  0  0  0  0  0  0  0
   -0.8908    1.8509   -0.3640 H   0  0  0  0  0  0  0  0  0  0  0  0
    0.8908    1.8509   -0.3640 H   0  0  0  0  0  0  0  0  0  0  0  0
  1  2  2  0
  1  4  1  0
  3  6  1  0
  5  6  1  0
  5  7  1  0
  5  8  1  0
  5  9  1  0
M  RAD  1   1   2
M  END
>  <reaction>  (16) 
rxn_368

>  <mol_properties>  (16) 
{"0": {"label": "*1", "atom_type": "CO"}, "1": {"label": "*0", "atom_type": "O2d"}, "2": {"label": "*2", "atom_type": "H0"}, "4": {"label": "*4", "atom_type": "Cs"}, "5": {"label": "*3", "atom_type": "O2s"}}

>  <type>  (16) 
unop_12

>  <geom_source>  (16) 
Heuristics

$$$$

     RDKit          3D

  9  7  0  0  0  0  0  0  0  0999 V2000
   -0.3239    0.4598   -0.6709 O   0  0  0  0  0  0  0  0  0  0  0  0
    2.3975   -1.1678    0.5466 O   0  0  0  0  0  0  0  0  0  0  0  0
   -1.4988    0.1684    0.0251 C   0  0  0  0  0  0  0  0  0  0  0  0
    1.8520   -0.2167    0.0129 C   0  0  0  0  0  3  0  0  0  0  0  0
   -1.4569    0.6159    1.0406 H   0  0  0  0  0  0  0  0  0  0  0  0
   -1.6267   -0.9318    0.1060 H   0  0  0  0  0  0  0  0  0  0  0  0
   -2.3642    0.5943   -0.5229 H   0  0  0  0  0  0  0  0  0  0  0  0
    0.5774   -0.0374   -0.0113 H   0  0  0  0  0  0  0  0  0  0  0  0
    2.4434    0.5153   -0.5261 H   0  0  0  0  0  0  0  0  0  0  0  0
  1  3  1  0
  1  8  1  0
  2  4  2  0
  3  5  1  0
  3  6  1  0
  3  7  1  0
  4  9  1  0
M  RAD  1   4   2
M  END
>  <reaction>  (17) 
rxn_368

>  <mol_properties>  (17) 
{"0": {"label": "*1", "atom_type": "CO"}, "1": {"label": "*0", "atom_type": "O2d"}, "2": {"label": "*2", "atom_type": "H0"}, "4": {"label": "*4", "atom_type": "Cs"}, "5": {"label": "*3", "atom_type": "O2s"}}

>  <type>  (17) 
unop_13

>  <geom_source>  (17) 
AutoTST

$$$$
