
     RDKit          3D

 14 13  0  0  0  0  0  0  0  0999 V2000
   -0.7647   -1.2352   -0.0349 C   0  0  0  0  0  0  0  0  0  0  0  0
    0.0570   -0.0126    0.3624 C   0  0  0  0  0  0  0  0  0  0  0  0
    1.4161   -0.0194   -0.3308 C   0  0  0  0  0  0  0  0  0  0  0  0
   -0.7022    1.2765    0.0629 C   0  0  0  0  0  0  0  0  0  0  0  0
   -0.2387   -2.1619    0.2040 H   0  0  0  0  0  0  0  0  0  0  0  0
   -0.9625   -1.2316   -1.1108 H   0  0  0  0  0  0  0  0  0  0  0  0
   -1.7273   -1.2512    0.4806 H   0  0  0  0  0  0  0  0  0  0  0  0
    0.2295   -0.0590    1.4432 H   0  0  0  0  0  0  0  0  0  0  0  0
    1.2933    0.0260   -1.4168 H   0  0  0  0  0  0  0  0  0  0  0  0
    2.0206    0.8381   -0.0279 H   0  0  0  0  0  0  0  0  0  0  0  0
    1.9767   -0.9268   -0.0966 H   0  0  0  0  0  0  0  0  0  0  0  0
   -1.6639    1.3001    0.5799 H   0  0  0  0  0  0  0  0  0  0  0  0
   -0.8977    1.3664   -1.0096 H   0  0  0  0  0  0  0  0  0  0  0  0
   -0.1313    2.1545    0.3722 H   0  0  0  0  0  0  0  0  0  0  0  0
  1  2  1  0
  1  5  1  0
  1  6  1  0
  1  7  1  0
  2  3  1  0
  2  4  1  0
  2  8  1  0
  3  9  1  0
  3 10  1  0
  3 11  1  0
  4 12  1  0
  4 13  1  0
  4 14  1  0
M  END
>  <reaction>  (1) 
rxn_966

>  <mol_properties>  (1) 
{"1": {"label": "donator", "atom_type": "Cs"}, "7": {"label": "d_hydrogen", "atom_type": "H0"}}

>  <type>  (1) 
r1h

$$$$

     RDKit          3D

 14 14  0  0  0  0  0  0  0  0999 V2000
    2.3111    0.1295    0.0255 C   0  0  0  0  0  0  0  0  0  0  0  0
    0.9132    0.0511    0.0101 C   0  0  0  0  0  0  0  0  0  0  0  0
    0.2446   -1.1981    0.0389 C   0  0  0  0  0  3  0  0  0  0  0  0
   -1.1306   -1.2689    0.0235 C   0  0  0  0  0  0  0  0  0  0  0  0
   -1.8967   -0.1062   -0.0209 C   0  0  0  0  0  0  0  0  0  0  0  0
   -1.2644    1.1347   -0.0499 C   0  0  0  0  0  0  0  0  0  0  0  0
    0.1101    1.2180   -0.0350 C   0  0  0  0  0  0  0  0  0  0  0  0
    2.9188   -0.7647    0.0599 H   0  0  0  0  0  0  0  0  0  0  0  0
    2.8158    1.0859    0.0034 H   0  0  0  0  0  0  0  0  0  0  0  0
    0.8353   -2.1058    0.0735 H   0  0  0  0  0  0  0  0  0  0  0  0
   -1.6191   -2.2351    0.0461 H   0  0  0  0  0  0  0  0  0  0  0  0
   -2.9772   -0.1668   -0.0328 H   0  0  0  0  0  0  0  0  0  0  0  0
   -1.8572    2.0404   -0.0845 H   0  0  0  0  0  0  0  0  0  0  0  0
    0.5964    2.1860   -0.0577 H   0  0  0  0  0  0  0  0  0  0  0  0
  1  2  2  3
  1  8  1  0
  1  9  1  0
  2  3  1  0
  2  7  1  0
  3  4  1  0
  3 10  1  0
  4  5  2  0
  4 11  1  0
  5  6  1  0
  5 12  1  0
  6  7  2  0
  6 13  1  0
  7 14  1  0
M  RAD  1   3   2
M  END
>  <reaction>  (2) 
rxn_966

>  <mol_properties>  (2) 
{"0": {"label": "acceptor", "atom_type": "Cs"}}

>  <type>  (2) 
r2

$$$$

     RDKit          3D

 15 15  0  0  0  0  0  0  0  0999 V2000
    2.2031   -0.2111   -0.1693 C   0  0  0  0  0  0  0  0  0  0  0  0
    0.7140   -0.0314   -0.0623 C   0  0  0  0  0  0  0  0  0  0  0  0
   -0.0114    0.5491   -1.0982 C   0  0  0  0  0  0  0  0  0  0  0  0
   -1.3882    0.6886   -1.0150 C   0  0  0  0  0  0  0  0  0  0  0  0
   -2.0661    0.2493    0.1118 C   0  0  0  0  0  0  0  0  0  0  0  0
   -1.3551   -0.3278    1.1528 C   0  0  0  0  0  0  0  0  0  0  0  0
    0.0216   -0.4648    1.0642 C   0  0  0  0  0  0  0  0  0  0  0  0
    2.6776   -0.1836    0.8122 H   0  0  0  0  0  0  0  0  0  0  0  0
    2.4446   -1.1749   -0.6249 H   0  0  0  0  0  0  0  0  0  0  0  0
    2.6532    0.5664   -0.7875 H   0  0  0  0  0  0  0  0  0  0  0  0
    0.5104    0.8989   -1.9819 H   0  0  0  0  0  0  0  0  0  0  0  0
   -1.9328    1.1452   -1.8322 H   0  0  0  0  0  0  0  0  0  0  0  0
   -3.1409    0.3597    0.1800 H   0  0  0  0  0  0  0  0  0  0  0  0
   -1.8736   -0.6702    2.0398 H   0  0  0  0  0  0  0  0  0  0  0  0
    0.5695   -0.9141    1.8849 H   0  0  0  0  0  0  0  0  0  0  0  0
  1  2  1  0
  1  8  1  0
  1  9  1  0
  1 10  1  0
  2  3  2  0
  2  7  1  0
  3  4  1  0
  3 11  1  0
  4  5  2  0
  4 12  1  0
  5  6  1  0
  5 13  1  0
  6  7  2  0
  6 14  1  0
  7 15  1  0
M  END
>  <reaction>  (3) 
rxn_966

>  <mol_properties>  (3) 
{"0": {"label": "acceptor", "atom_type": "Cs"}, "14": {"label": "a_hydrogen", "atom_type": "H0"}}

>  <type>  (3) 
r2h

$$$$

     RDKit          3D

 28 27  0  0  0  0  0  0  0  0999 V2000
   -0.2855   -1.4616    0.7926 C   0  0  0  0  0  0  0  0  0  0  0  0
    0.8602   -0.6789    0.3278 C   0  0  0  0  0  0  0  0  0  0  0  0
    1.4522    0.2892    1.1458 C   0  0  0  0  0  0  0  0  0  0  0  0
    2.4878    1.0813    0.6817 C   0  0  0  0  0  0  0  0  0  0  0  0
    2.9590    0.9295   -0.6152 C   0  0  0  0  0  0  0  0  0  0  0  0
    2.3836   -0.0268   -1.4405 C   0  0  0  0  0  0  0  0  0  0  0  0
    1.3481   -0.8187   -0.9758 C   0  0  0  0  0  0  0  0  0  0  0  0
   -0.3789   -1.5582    1.8718 H   0  0  0  0  0  0  0  0  0  0  0  0
   -0.4491   -2.4037    0.2745 H   0  0  0  0  0  0  0  0  0  0  0  0
    1.0891    0.4171    2.1593 H   0  0  0  0  0  0  0  0  0  0  0  0
    2.9318    1.8216    1.3357 H   0  0  0  0  0  0  0  0  0  0  0  0
    3.7696    1.5483   -0.9781 H   0  0  0  0  0  0  0  0  0  0  0  0
    2.7459   -0.1567   -2.4529 H   0  0  0  0  0  0  0  0  0  0  0  0
    0.9036   -1.5616   -1.6285 H   0  0  0  0  0  0  0  0  0  0  0  0
   -2.2859    0.0445   -1.4148 C   0  0  0  0  0  0  0  0  0  0  0  0
   -2.4138    0.0200    0.0864 C   0  0  0  0  0  3  0  0  0  0  0  0
   -2.1121    1.3346    0.7581 C   0  0  0  0  0  0  0  0  0  0  0  0
   -3.6354   -0.6924    0.6066 C   0  0  0  0  0  0  0  0  0  0  0  0
   -1.3164    0.4440   -1.7199 H   0  0  0  0  0  0  0  0  0  0  0  0
   -3.0623    0.6770   -1.8630 H   0  0  0  0  0  0  0  0  0  0  0  0
   -2.3922   -0.9564   -1.8394 H   0  0  0  0  0  0  0  0  0  0  0  0
   -1.3710   -0.7614    0.4670 H   0  0  0  0  0  0  0  0  0  0  0  0
   -2.8709    2.0856    0.5053 H   0  0  0  0  0  0  0  0  0  0  0  0
   -2.1009    1.2321    1.8456 H   0  0  0  0  0  0  0  0  0  0  0  0
   -1.1419    1.7240    0.4425 H   0  0  0  0  0  0  0  0  0  0  0  0
   -3.7266   -1.6921    0.1763 H   0  0  0  0  0  0  0  0  0  0  0  0
   -4.5481   -0.1399    0.3508 H   0  0  0  0  0  0  0  0  0  0  0  0
   -3.6060   -0.7901    1.6941 H   0  0  0  0  0  0  0  0  0  0  0  0
  1  2  1  0
  1  8  1  0
  1  9  1  0
  1 22  1  0
  2  3  2  0
  2  7  1  0
  3  4  1  0
  3 10  1  0
  4  5  2  0
  4 11  1  0
  5  6  1  0
  5 12  1  0
  6  7  2  0
  6 13  1  0
  7 14  1  0
 15 16  1  0
 15 19  1  0
 15 20  1  0
 15 21  1  0
 16 17  1  0
 16 18  1  0
 17 23  1  0
 17 24  1  0
 17 25  1  0
 18 26  1  0
 18 27  1  0
 18 28  1  0
M  RAD  1  16   2
M  END
>  <reaction>  (4) 
rxn_966

>  <mol_properties>  (4) 
{"0": {"label": "*1", "atom_type": "Cs"}, "1": {"label": "*0", "atom_type": "Cd"}, "14": {"label": "*4", "atom_type": "Cs"}, "15": {"label": "*3", "atom_type": "Cs"}, "21": {"label": "*2", "atom_type": "H0"}}

>  <type>  (4) 
ts

$$$$

     RDKit          3D

 28 27  0  0  0  0  0  0  0  0999 V2000
    0.1166   -1.4396   -0.4840 C   0  0  0  0  0  0  0  0  0  0  0  0
    0.9563   -0.5126    0.3507 C   0  0  0  0  0  0  0  0  0  0  0  0
    1.1262   -0.7356    1.7137 C   0  0  0  0  0  0  0  0  0  0  0  0
    1.9242    0.1000    2.4799 C   0  0  0  0  0  0  0  0  0  0  0  0
    2.5677    1.1790    1.8935 C   0  0  0  0  0  0  0  0  0  0  0  0
    2.4043    1.4146    0.5370 C   0  0  0  0  0  0  0  0  0  0  0  0
    1.6051    0.5758   -0.2244 C   0  0  0  0  0  0  0  0  0  0  0  0
   -0.6856   -1.8863    0.1043 H   0  0  0  0  0  0  0  0  0  0  0  0
    0.7235   -2.2550   -0.8858 H   0  0  0  0  0  0  0  0  0  0  0  0
    0.6241   -1.5748    2.1819 H   0  0  0  0  0  0  0  0  0  0  0  0
    2.0409   -0.0909    3.5395 H   0  0  0  0  0  0  0  0  0  0  0  0
    3.1892    1.8343    2.4904 H   0  0  0  0  0  0  0  0  0  0  0  0
    2.8984    2.2572    0.0693 H   0  0  0  0  0  0  0  0  0  0  0  0
    1.4804    0.7702   -1.2837 H   0  0  0  0  0  0  0  0  0  0  0  0
   -2.0858   -0.2655   -2.8171 C   0  0  0  0  0  0  0  0  0  0  0  0
   -2.0858   -0.2655   -1.2914 C   0  0  0  0  0  3  0  0  0  0  0  0
   -2.0858    1.1592   -0.7453 C   0  0  0  0  0  0  0  0  0  0  0  0
   -3.2686   -1.0595   -0.7453 C   0  0  0  0  0  0  0  0  0  0  0  0
   -1.2251    0.2768   -3.2142 H   0  0  0  0  0  0  0  0  0  0  0  0
   -2.9898    0.2165   -3.2009 H   0  0  0  0  0  0  0  0  0  0  0  0
   -2.0564   -1.2823   -3.2142 H   0  0  0  0  0  0  0  0  0  0  0  0
   -0.9821   -0.8539   -0.8868 H   0  0  0  0  0  0  0  0  0  0  0  0
   -2.9898    1.6900   -1.0580 H   0  0  0  0  0  0  0  0  0  0  0  0
   -2.0563    1.1660    0.3463 H   0  0  0  0  0  0  0  0  0  0  0  0
   -1.2251    1.7240   -1.1096 H   0  0  0  0  0  0  0  0  0  0  0  0
   -3.2580   -2.0889   -1.1097 H   0  0  0  0  0  0  0  0  0  0  0  0
   -4.2132   -0.6048   -1.0578 H   0  0  0  0  0  0  0  0  0  0  0  0
   -3.2577   -1.0880    0.3462 H   0  0  0  0  0  0  0  0  0  0  0  0
  1  2  1  0
  1  8  1  0
  1  9  1  0
  1 22  1  0
  2  3  2  0
  2  7  1  0
  3  4  1  0
  3 10  1  0
  4  5  2  0
  4 11  1  0
  5  6  1  0
  5 12  1  0
  6  7  2  0
  6 13  1  0
  7 14  1  0
 15 16  1  0
 15 19  1  0
 15 20  1  0
 15 21  1  0
 16 17  1  0
 16 18  1  0
 17 23  1  0
 17 24  1  0
 17 25  1  0
 18 26  1  0
 18 27  1  0
 18 28  1  0
M  RAD  1  16   2
M  END
>  <reaction>  (5) 
rxn_966

>  <mol_properties>  (5) 
{"0": {"label": "*1", "atom_type": "Cs"}, "1": {"label": "*0", "atom_type": "Cd"}, "14": {"label": "*4", "atom_type": "Cs"}, "15": {"label": "*3", "atom_type": "Cs"}, "21": {"label": "*2", "atom_type": "H0"}}

>  <type>  (5) 
unop_1

>  <geom_source>  (5) 
Heuristics

$$$$

     RDKit          3D

 28 27  0  0  0  0  0  0  0  0999 V2000
   -0.1586   -0.7027    1.3436 C   0  0  0  0  0  0  0  0  0  0  0  0
    0.9596   -0.5052    0.3578 C   0  0  0  0  0  0  0  0  0  0  0  0
    2.2255   -0.1140    0.7829 C   0  0  0  0  0  0  0  0  0  0  0  0
    3.2662    0.0397   -0.1200 C   0  0  0  0  0  0  0  0  0  0  0  0
    3.0572   -0.1950   -1.4704 C   0  0  0  0  0  0  0  0  0  0  0  0
    1.7998   -0.5820   -1.9080 C   0  0  0  0  0  0  0  0  0  0  0  0
    0.7628   -0.7341   -1.0006 C   0  0  0  0  0  0  0  0  0  0  0  0
   -0.0471   -0.0458    2.2069 H   0  0  0  0  0  0  0  0  0  0  0  0
   -0.1720   -1.7316    1.7122 H   0  0  0  0  0  0  0  0  0  0  0  0
    2.3977    0.0753    1.8366 H   0  0  0  0  0  0  0  0  0  0  0  0
    4.2431    0.3470    0.2325 H   0  0  0  0  0  0  0  0  0  0  0  0
    3.8678   -0.0731   -2.1776 H   0  0  0  0  0  0  0  0  0  0  0  0
    1.6239   -0.7634   -2.9611 H   0  0  0  0  0  0  0  0  0  0  0  0
   -0.2180   -1.0336   -1.3527 H   0  0  0  0  0  0  0  0  0  0  0  0
   -2.3610    0.4714   -0.9895 C   0  0  0  0  0  0  0  0  0  0  0  0
   -2.3610    0.4714    0.5362 C   0  0  0  0  0  3  0  0  0  0  0  0
   -2.3610    1.8961    1.0823 C   0  0  0  0  0  0  0  0  0  0  0  0
   -3.5438   -0.3227    1.0822 C   0  0  0  0  0  0  0  0  0  0  0  0
   -1.5003    1.0137   -1.3866 H   0  0  0  0  0  0  0  0  0  0  0  0
   -3.2650    0.9534   -1.3733 H   0  0  0  0  0  0  0  0  0  0  0  0
   -2.3316   -0.5454   -1.3866 H   0  0  0  0  0  0  0  0  0  0  0  0
   -1.2573   -0.1170    0.9408 H   0  0  0  0  0  0  0  0  0  0  0  0
   -3.2650    2.4269    0.7696 H   0  0  0  0  0  0  0  0  0  0  0  0
   -2.3315    1.9028    2.1739 H   0  0  0  0  0  0  0  0  0  0  0  0
   -1.5003    2.4609    0.7180 H   0  0  0  0  0  0  0  0  0  0  0  0
   -3.5331   -1.3520    0.7179 H   0  0  0  0  0  0  0  0  0  0  0  0
   -4.4884    0.1321    0.7698 H   0  0  0  0  0  0  0  0  0  0  0  0
   -3.5329   -0.3511    2.1738 H   0  0  0  0  0  0  0  0  0  0  0  0
  1  2  1  0
  1  8  1  0
  1  9  1  0
  1 22  1  0
  2  3  2  0
  2  7  1  0
  3  4  1  0
  3 10  1  0
  4  5  2  0
  4 11  1  0
  5  6  1  0
  5 12  1  0
  6  7  2  0
  6 13  1  0
  7 14  1  0
 15 16  1  0
 15 19  1  0
 15 20  1  0
 15 21  1  0
 16 17  1  0
 16 18  1  0
 17 23  1  0
 17 24  1  0
 17 25  1  0
 18 26  1  0
 18 27  1  0
 18 28  1  0
M  RAD  1  16   2
M  END
>  <reaction>  (6) 
rxn_966

>  <mol_properties>  (6) 
{"0": {"label": "*1", "atom_type": "Cs"}, "1": {"label": "*0", "atom_type": "Cd"}, "14": {"label": "*4", "atom_type": "Cs"}, "15": {"label": "*3", "atom_type": "Cs"}, "21": {"label": "*2", "atom_type": "H0"}}

>  <type>  (6) 
unop_2

>  <geom_source>  (6) 
Heuristics

$$$$

     RDKit          3D

 28 27  0  0  0  0  0  0  0  0999 V2000
    0.4960   -1.0641   -0.9712 C   0  0  0  0  0  0  0  0  0  0  0  0
    0.9553   -0.5153    0.3513 C   0  0  0  0  0  0  0  0  0  0  0  0
    1.1203   -1.3501    1.4523 C   0  0  0  0  0  0  0  0  0  0  0  0
    1.5725   -0.8522    2.6645 C   0  0  0  0  0  0  0  0  0  0  0  0
    1.8673    0.4960    2.7975 C   0  0  0  0  0  0  0  0  0  0  0  0
    1.7040    1.3396    1.7094 C   0  0  0  0  0  0  0  0  0  0  0  0
    1.2515    0.8362    0.4995 C   0  0  0  0  0  0  0  0  0  0  0  0
   -0.1503   -1.9322   -0.8376 H   0  0  0  0  0  0  0  0  0  0  0  0
    1.3497   -1.3791   -1.5767 H   0  0  0  0  0  0  0  0  0  0  0  0
    0.8889   -2.4052    1.3590 H   0  0  0  0  0  0  0  0  0  0  0  0
    1.6918   -1.5195    3.5091 H   0  0  0  0  0  0  0  0  0  0  0  0
    2.2180    0.8875    3.7439 H   0  0  0  0  0  0  0  0  0  0  0  0
    1.9267    2.3953    1.8031 H   0  0  0  0  0  0  0  0  0  0  0  0
    1.1235    1.5044   -0.3448 H   0  0  0  0  0  0  0  0  0  0  0  0
   -1.7064    0.1101   -3.3043 C   0  0  0  0  0  0  0  0  0  0  0  0
   -1.7064    0.1101   -1.7786 C   0  0  0  0  0  3  0  0  0  0  0  0
   -1.7064    1.5347   -1.2325 C   0  0  0  0  0  0  0  0  0  0  0  0
   -2.8892   -0.6840   -1.2325 C   0  0  0  0  0  0  0  0  0  0  0  0
   -0.8457    0.6523   -3.7014 H   0  0  0  0  0  0  0  0  0  0  0  0
   -2.6104    0.5920   -3.6881 H   0  0  0  0  0  0  0  0  0  0  0  0
   -1.6770   -0.9068   -3.7013 H   0  0  0  0  0  0  0  0  0  0  0  0
   -0.6027   -0.4783   -1.3740 H   0  0  0  0  0  0  0  0  0  0  0  0
   -2.6104    2.0656   -1.5452 H   0  0  0  0  0  0  0  0  0  0  0  0
   -1.6769    1.5415   -0.1409 H   0  0  0  0  0  0  0  0  0  0  0  0
   -0.8457    2.0996   -1.5968 H   0  0  0  0  0  0  0  0  0  0  0  0
   -2.8786   -1.7134   -1.5969 H   0  0  0  0  0  0  0  0  0  0  0  0
   -3.8338   -0.2292   -1.5450 H   0  0  0  0  0  0  0  0  0  0  0  0
   -2.8783   -0.7124   -0.1409 H   0  0  0  0  0  0  0  0  0  0  0  0
  1  2  1  0
  1  8  1  0
  1  9  1  0
  1 22  1  0
  2  3  2  0
  2  7  1  0
  3  4  1  0
  3 10  1  0
  4  5  2  0
  4 11  1  0
  5  6  1  0
  5 12  1  0
  6  7  2  0
  6 13  1  0
  7 14  1  0
 15 16  1  0
 15 19  1  0
 15 20  1  0
 15 21  1  0
 16 17  1  0
 16 18  1  0
 17 23  1  0
 17 24  1  0
 17 25  1  0
 18 26  1  0
 18 27  1  0
 18 28  1  0
M  RAD  1  16   2
M  END
>  <reaction>  (7) 
rxn_966

>  <mol_properties>  (7) 
{"0": {"label": "*1", "atom_type": "Cs"}, "1": {"label": "*0", "atom_type": "Cd"}, "14": {"label": "*4", "atom_type": "Cs"}, "15": {"label": "*3", "atom_type": "Cs"}, "21": {"label": "*2", "atom_type": "H0"}}

>  <type>  (7) 
unop_3

>  <geom_source>  (7) 
Heuristics

$$$$

     RDKit          3D

 28 27  0  0  0  0  0  0  0  0999 V2000
    0.9007    0.9126    0.8410 C   0  0  0  0  0  0  0  0  0  0  0  0
    0.9795   -0.5041    0.3431 C   0  0  0  0  0  0  0  0  0  0  0  0
    2.0405   -1.3295    0.7028 C   0  0  0  0  0  0  0  0  0  0  0  0
    2.1005   -2.6451    0.2699 C   0  0  0  0  0  0  0  0  0  0  0  0
    1.0961   -3.1599   -0.5355 C   0  0  0  0  0  0  0  0  0  0  0  0
    0.0350   -2.3473   -0.9043 C   0  0  0  0  0  0  0  0  0  0  0  0
   -0.0198   -1.0325   -0.4684 C   0  0  0  0  0  0  0  0  0  0  0  0
    1.8942    1.3325    1.0015 H   0  0  0  0  0  0  0  0  0  0  0  0
    0.3660    0.9586    1.7932 H   0  0  0  0  0  0  0  0  0  0  0  0
    2.8325   -0.9348    1.3295 H   0  0  0  0  0  0  0  0  0  0  0  0
    2.9365   -3.2693    0.5603 H   0  0  0  0  0  0  0  0  0  0  0  0
    1.1423   -4.1862   -0.8769 H   0  0  0  0  0  0  0  0  0  0  0  0
   -0.7527   -2.7374   -1.5370 H   0  0  0  0  0  0  0  0  0  0  0  0
   -0.8518   -0.4036   -0.7650 H   0  0  0  0  0  0  0  0  0  0  0  0
   -1.3017    2.0867   -1.4920 C   0  0  0  0  0  0  0  0  0  0  0  0
   -1.3017    2.0867    0.0337 C   0  0  0  0  0  3  0  0  0  0  0  0
   -1.3017    3.5113    0.5797 C   0  0  0  0  0  0  0  0  0  0  0  0
   -2.4845    1.2926    0.5797 C   0  0  0  0  0  0  0  0  0  0  0  0
   -0.4410    2.6289   -1.8891 H   0  0  0  0  0  0  0  0  0  0  0  0
   -2.2057    2.5687   -1.8758 H   0  0  0  0  0  0  0  0  0  0  0  0
   -1.2723    1.0698   -1.8891 H   0  0  0  0  0  0  0  0  0  0  0  0
   -0.1980    1.4983    0.4383 H   0  0  0  0  0  0  0  0  0  0  0  0
   -2.2057    4.0422    0.2671 H   0  0  0  0  0  0  0  0  0  0  0  0
   -1.2722    3.5181    1.6713 H   0  0  0  0  0  0  0  0  0  0  0  0
   -0.4410    4.0762    0.2155 H   0  0  0  0  0  0  0  0  0  0  0  0
   -2.4738    0.2632    0.2154 H   0  0  0  0  0  0  0  0  0  0  0  0
   -3.4291    1.7474    0.2672 H   0  0  0  0  0  0  0  0  0  0  0  0
   -2.4736    1.2642    1.6713 H   0  0  0  0  0  0  0  0  0  0  0  0
  1  2  1  0
  1  8  1  0
  1  9  1  0
  1 22  1  0
  2  3  2  0
  2  7  1  0
  3  4  1  0
  3 10  1  0
  4  5  2  0
  4 11  1  0
  5  6  1  0
  5 12  1  0
  6  7  2  0
  6 13  1  0
  7 14  1  0
 15 16  1  0
 15 19  1  0
 15 20  1  0
 15 21  1  0
 16 17  1  0
 16 18  1  0
 17 23  1  0
 17 24  1  0
 17 25  1  0
 18 26  1  0
 18 27  1  0
 18 28  1  0
M  RAD  1  16   2
M  END
>  <reaction>  (8) 
rxn_966

>  <mol_properties>  (8) 
{"0": {"label": "*1", "atom_type": "Cs"}, "1": {"label": "*0", "atom_type": "Cd"}, "14": {"label": "*4", "atom_type": "Cs"}, "15": {"label": "*3", "atom_type": "Cs"}, "21": {"label": "*2", "atom_type": "H0"}}

>  <type>  (8) 
unop_4

>  <geom_source>  (8) 
Heuristics

$$$$

     RDKit          3D

 28 27  0  0  0  0  0  0  0  0999 V2000
    0.8775   -0.4829   -1.1526 C   0  0  0  0  0  0  0  0  0  0  0  0
    0.9563   -0.5249    0.3485 C   0  0  0  0  0  0  0  0  0  0  0  0
    1.6425   -1.5457    0.9992 C   0  0  0  0  0  0  0  0  0  0  0  0
    1.7426   -1.5707    2.3816 C   0  0  0  0  0  0  0  0  0  0  0  0
    1.1538   -0.5711    3.1408 C   0  0  0  0  0  0  0  0  0  0  0  0
    0.4641    0.4502    2.5054 C   0  0  0  0  0  0  0  0  0  0  0  0
    0.3672    0.4700    1.1226 C   0  0  0  0  0  0  0  0  0  0  0  0
    0.9053   -1.4859   -1.5796 H   0  0  0  0  0  0  0  0  0  0  0  0
    1.7199    0.0756   -1.5686 H   0  0  0  0  0  0  0  0  0  0  0  0
    2.1032   -2.3338    0.4141 H   0  0  0  0  0  0  0  0  0  0  0  0
    2.2797   -2.3758    2.8675 H   0  0  0  0  0  0  0  0  0  0  0  0
    1.2284   -0.5900    4.2207 H   0  0  0  0  0  0  0  0  0  0  0  0
   -0.0038    1.2336    3.0886 H   0  0  0  0  0  0  0  0  0  0  0  0
   -0.1773    1.2708    0.6349 H   0  0  0  0  0  0  0  0  0  0  0  0
   -1.3249    0.6913   -3.4857 C   0  0  0  0  0  0  0  0  0  0  0  0
   -1.3249    0.6913   -1.9600 C   0  0  0  0  0  3  0  0  0  0  0  0
   -1.3249    2.1159   -1.4139 C   0  0  0  0  0  0  0  0  0  0  0  0
   -2.5078   -0.1028   -1.4139 C   0  0  0  0  0  0  0  0  0  0  0  0
   -0.4642    1.2335   -3.8827 H   0  0  0  0  0  0  0  0  0  0  0  0
   -2.2289    1.1732   -3.8694 H   0  0  0  0  0  0  0  0  0  0  0  0
   -1.2955   -0.3256   -3.8827 H   0  0  0  0  0  0  0  0  0  0  0  0
   -0.2213    0.1029   -1.5554 H   0  0  0  0  0  0  0  0  0  0  0  0
   -2.2289    2.6467   -1.7265 H   0  0  0  0  0  0  0  0  0  0  0  0
   -1.2954    2.1227   -0.3223 H   0  0  0  0  0  0  0  0  0  0  0  0
   -0.4643    2.6808   -1.7782 H   0  0  0  0  0  0  0  0  0  0  0  0
   -2.4971   -1.1322   -1.7783 H   0  0  0  0  0  0  0  0  0  0  0  0
   -3.4524    0.3520   -1.7264 H   0  0  0  0  0  0  0  0  0  0  0  0
   -2.4969   -0.1312   -0.3223 H   0  0  0  0  0  0  0  0  0  0  0  0
  1  2  1  0
  1  8  1  0
  1  9  1  0
  1 22  1  0
  2  3  2  0
  2  7  1  0
  3  4  1  0
  3 10  1  0
  4  5  2  0
  4 11  1  0
  5  6  1  0
  5 12  1  0
  6  7  2  0
  6 13  1  0
  7 14  1  0
 15 16  1  0
 15 19  1  0
 15 20  1  0
 15 21  1  0
 16 17  1  0
 16 18  1  0
 17 23  1  0
 17 24  1  0
 17 25  1  0
 18 26  1  0
 18 27  1  0
 18 28  1  0
M  RAD  1  16   2
M  END
>  <reaction>  (9) 
rxn_966

>  <mol_properties>  (9) 
{"0": {"label": "*1", "atom_type": "Cs"}, "1": {"label": "*0", "atom_type": "Cd"}, "14": {"label": "*4", "atom_type": "Cs"}, "15": {"label": "*3", "atom_type": "Cs"}, "21": {"label": "*2", "atom_type": "H0"}}

>  <type>  (9) 
unop_5

>  <geom_source>  (9) 
Heuristics

$$$$

     RDKit          3D

 28 27  0  0  0  0  0  0  0  0999 V2000
    1.1795    0.9681    0.1689 C   0  0  0  0  0  0  0  0  0  0  0  0
    0.9799   -0.5128    0.3373 C   0  0  0  0  0  0  0  0  0  0  0  0
    1.9460   -1.2974    0.9596 C   0  0  0  0  0  0  0  0  0  0  0  0
    1.7516   -2.6577    1.1432 C   0  0  0  0  0  0  0  0  0  0  0  0
    0.5825   -3.2598    0.7041 C   0  0  0  0  0  0  0  0  0  0  0  0
   -0.3870   -2.4903    0.0793 C   0  0  0  0  0  0  0  0  0  0  0  0
   -0.1872   -1.1305   -0.1016 C   0  0  0  0  0  0  0  0  0  0  0  0
    2.2367    1.2173    0.0715 H   0  0  0  0  0  0  0  0  0  0  0  0
    0.7915    1.5115    1.0343 H   0  0  0  0  0  0  0  0  0  0  0  0
    2.8652   -0.8361    1.3032 H   0  0  0  0  0  0  0  0  0  0  0  0
    2.5178   -3.2498    1.6283 H   0  0  0  0  0  0  0  0  0  0  0  0
    0.4297   -4.3224    0.8441 H   0  0  0  0  0  0  0  0  0  0  0  0
   -1.3021   -2.9509   -0.2720 H   0  0  0  0  0  0  0  0  0  0  0  0
   -0.9496   -0.5376   -0.5946 H   0  0  0  0  0  0  0  0  0  0  0  0
   -1.0229    2.1422   -2.1641 C   0  0  0  0  0  0  0  0  0  0  0  0
   -1.0229    2.1422   -0.6384 C   0  0  0  0  0  3  0  0  0  0  0  0
   -1.0229    3.5668   -0.0924 C   0  0  0  0  0  0  0  0  0  0  0  0
   -2.2057    1.3481   -0.0924 C   0  0  0  0  0  0  0  0  0  0  0  0
   -0.1622    2.6844   -2.5612 H   0  0  0  0  0  0  0  0  0  0  0  0
   -1.9269    2.6242   -2.5479 H   0  0  0  0  0  0  0  0  0  0  0  0
   -0.9935    1.1253   -2.5612 H   0  0  0  0  0  0  0  0  0  0  0  0
    0.0808    1.5538   -0.2338 H   0  0  0  0  0  0  0  0  0  0  0  0
   -1.9269    4.0977   -0.4050 H   0  0  0  0  0  0  0  0  0  0  0  0
   -0.9934    3.5736    0.9992 H   0  0  0  0  0  0  0  0  0  0  0  0
   -0.1622    4.1317   -0.4566 H   0  0  0  0  0  0  0  0  0  0  0  0
   -2.1950    0.3187   -0.4567 H   0  0  0  0  0  0  0  0  0  0  0  0
   -3.1503    1.8029   -0.4049 H   0  0  0  0  0  0  0  0  0  0  0  0
   -2.1948    1.3197    0.9992 H   0  0  0  0  0  0  0  0  0  0  0  0
  1  2  1  0
  1  8  1  0
  1  9  1  0
  1 22  1  0
  2  3  2  0
  2  7  1  0
  3  4  1  0
  3 10  1  0
  4  5  2  0
  4 11  1  0
  5  6  1  0
  5 12  1  0
  6  7  2  0
  6 13  1  0
  7 14  1  0
 15 16  1  0
 15 19  1  0
 15 20  1  0
 15 21  1  0
 16 17  1  0
 16 18  1  0
 17 23  1  0
 17 24  1  0
 17 25  1  0
 18 26  1  0
 18 27  1  0
 18 28  1  0
M  RAD  1  16   2
M  END
>  <reaction>  (10) 
rxn_966

>  <mol_properties>  (10) 
{"0": {"label": "*1", "atom_type": "Cs"}, "1": {"label": "*0", "atom_type": "Cd"}, "14": {"label": "*4", "atom_type": "Cs"}, "15": {"label": "*3", "atom_type": "Cs"}, "21": {"label": "*2", "atom_type": "H0"}}

>  <type>  (10) 
unop_6

>  <geom_source>  (10) 
Heuristics

$$$$

     RDKit          3D

 28 27  0  0  0  0  0  0  0  0999 V2000
    1.2769    0.6912   -0.4989 C   0  0  0  0  0  0  0  0  0  0  0  0
    0.9754   -0.5227    0.3358 C   0  0  0  0  0  0  0  0  0  0  0  0
    1.9810   -1.1646    1.0519 C   0  0  0  0  0  0  0  0  0  0  0  0
    1.7006   -2.2658    1.8461 C   0  0  0  0  0  0  0  0  0  0  0  0
    0.4035   -2.7470    1.9370 C   0  0  0  0  0  0  0  0  0  0  0  0
   -0.6075   -2.1188    1.2259 C   0  0  0  0  0  0  0  0  0  0  0  0
   -0.3213   -1.0181    0.4333 C   0  0  0  0  0  0  0  0  0  0  0  0
    2.2958    0.6630   -0.8866 H   0  0  0  0  0  0  0  0  0  0  0  0
    1.1756    1.6035    0.0944 H   0  0  0  0  0  0  0  0  0  0  0  0
    2.9991   -0.7978    0.9843 H   0  0  0  0  0  0  0  0  0  0  0  0
    2.4991   -2.7514    2.3934 H   0  0  0  0  0  0  0  0  0  0  0  0
    0.1827   -3.6083    2.5545 H   0  0  0  0  0  0  0  0  0  0  0  0
   -1.6235   -2.4890    1.2857 H   0  0  0  0  0  0  0  0  0  0  0  0
   -1.1180   -0.5357   -0.1219 H   0  0  0  0  0  0  0  0  0  0  0  0
   -0.9255    1.8653   -2.8320 C   0  0  0  0  0  0  0  0  0  0  0  0
   -0.9255    1.8653   -1.3063 C   0  0  0  0  0  3  0  0  0  0  0  0
   -0.9255    3.2900   -0.7602 C   0  0  0  0  0  0  0  0  0  0  0  0
   -2.1083    1.0713   -0.7602 C   0  0  0  0  0  0  0  0  0  0  0  0
   -0.0647    2.4076   -3.2291 H   0  0  0  0  0  0  0  0  0  0  0  0
   -1.8294    2.3473   -3.2158 H   0  0  0  0  0  0  0  0  0  0  0  0
   -0.8960    0.8485   -3.2291 H   0  0  0  0  0  0  0  0  0  0  0  0
    0.1782    1.2769   -0.9017 H   0  0  0  0  0  0  0  0  0  0  0  0
   -1.8294    3.8208   -1.0729 H   0  0  0  0  0  0  0  0  0  0  0  0
   -0.8959    3.2968    0.3314 H   0  0  0  0  0  0  0  0  0  0  0  0
   -0.0648    3.8548   -1.1245 H   0  0  0  0  0  0  0  0  0  0  0  0
   -2.0976    0.0419   -1.1246 H   0  0  0  0  0  0  0  0  0  0  0  0
   -3.0529    1.5260   -1.0727 H   0  0  0  0  0  0  0  0  0  0  0  0
   -2.0974    1.0428    0.3313 H   0  0  0  0  0  0  0  0  0  0  0  0
  1  2  1  0
  1  8  1  0
  1  9  1  0
  1 22  1  0
  2  3  2  0
  2  7  1  0
  3  4  1  0
  3 10  1  0
  4  5  2  0
  4 11  1  0
  5  6  1  0
  5 12  1  0
  6  7  2  0
  6 13  1  0
  7 14  1  0
 15 16  1  0
 15 19  1  0
 15 20  1  0
 15 21  1  0
 16 17  1  0
 16 18  1  0
 17 23  1  0
 17 24  1  0
 17 25  1  0
 18 26  1  0
 18 27  1  0
 18 28  1  0
M  RAD  1  16   2
M  END
>  <reaction>  (11) 
rxn_966

>  <mol_properties>  (11) 
{"0": {"label": "*1", "atom_type": "Cs"}, "1": {"label": "*0", "atom_type": "Cd"}, "14": {"label": "*4", "atom_type": "Cs"}, "15": {"label": "*3", "atom_type": "Cs"}, "21": {"label": "*2", "atom_type": "H0"}}

>  <type>  (11) 
unop_7

>  <geom_source>  (11) 
Heuristics

$$$$

     RDKit          3D

 28 27  0  0  0  0  0  0  0  0999 V2000
   -0.1622   -1.5034    0.1837 C   0  0  0  0  0  0  0  0  0  0  0  0
    0.9560   -0.5123    0.3521 C   0  0  0  0  0  0  0  0  0  0  0  0
    1.4553   -0.2067    1.6144 C   0  0  0  0  0  0  0  0  0  0  0  0
    2.5063    0.6839    1.7704 C   0  0  0  0  0  0  0  0  0  0  0  0
    3.0776    1.2882    0.6610 C   0  0  0  0  0  0  0  0  0  0  0  0
    2.5875    0.9953   -0.6024 C   0  0  0  0  0  0  0  0  0  0  0  0
    1.5363    0.1040   -0.7524 C   0  0  0  0  0  0  0  0  0  0  0  0
   -0.8219   -1.5085    1.0520 H   0  0  0  0  0  0  0  0  0  0  0  0
    0.2328   -2.5155    0.0643 H   0  0  0  0  0  0  0  0  0  0  0  0
    1.0126   -0.6716    2.4882 H   0  0  0  0  0  0  0  0  0  0  0  0
    2.8779    0.9088    2.7624 H   0  0  0  0  0  0  0  0  0  0  0  0
    3.8966    1.9860    0.7806 H   0  0  0  0  0  0  0  0  0  0  0  0
    3.0229    1.4652   -1.4757 H   0  0  0  0  0  0  0  0  0  0  0  0
    1.1574   -0.1160   -1.7442 H   0  0  0  0  0  0  0  0  0  0  0  0
   -2.3646   -0.3293   -2.1494 C   0  0  0  0  0  0  0  0  0  0  0  0
   -2.3646   -0.3293   -0.6237 C   0  0  0  0  0  3  0  0  0  0  0  0
   -2.3646    1.0954   -0.0776 C   0  0  0  0  0  0  0  0  0  0  0  0
   -3.5474   -1.1234   -0.0776 C   0  0  0  0  0  0  0  0  0  0  0  0
   -1.5039    0.2130   -2.5464 H   0  0  0  0  0  0  0  0  0  0  0  0
   -3.2686    0.1527   -2.5332 H   0  0  0  0  0  0  0  0  0  0  0  0
   -2.3352   -1.3461   -2.5464 H   0  0  0  0  0  0  0  0  0  0  0  0
   -1.2609   -0.9177   -0.2191 H   0  0  0  0  0  0  0  0  0  0  0  0
   -3.2686    1.6262   -0.3903 H   0  0  0  0  0  0  0  0  0  0  0  0
   -2.3351    1.1022    1.0140 H   0  0  0  0  0  0  0  0  0  0  0  0
   -1.5039    1.6602   -0.4419 H   0  0  0  0  0  0  0  0  0  0  0  0
   -3.5368   -2.1527   -0.4420 H   0  0  0  0  0  0  0  0  0  0  0  0
   -4.4920   -0.6686   -0.3901 H   0  0  0  0  0  0  0  0  0  0  0  0
   -3.5365   -1.1518    1.0140 H   0  0  0  0  0  0  0  0  0  0  0  0
  1  2  1  0
  1  8  1  0
  1  9  1  0
  1 22  1  0
  2  3  2  0
  2  7  1  0
  3  4  1  0
  3 10  1  0
  4  5  2  0
  4 11  1  0
  5  6  1  0
  5 12  1  0
  6  7  2  0
  6 13  1  0
  7 14  1  0
 15 16  1  0
 15 19  1  0
 15 20  1  0
 15 21  1  0
 16 17  1  0
 16 18  1  0
 17 23  1  0
 17 24  1  0
 17 25  1  0
 18 26  1  0
 18 27  1  0
 18 28  1  0
M  RAD  1  16   2
M  END
>  <reaction>  (12) 
rxn_966

>  <mol_properties>  (12) 
{"0": {"label": "*1", "atom_type": "Cs"}, "1": {"label": "*0", "atom_type": "Cd"}, "14": {"label": "*4", "atom_type": "Cs"}, "15": {"label": "*3", "atom_type": "Cs"}, "21": {"label": "*2", "atom_type": "H0"}}

>  <type>  (12) 
unop_8

>  <geom_source>  (12) 
Heuristics

$$$$

     RDKit          3D

 28 27  0  0  0  0  0  0  0  0999 V2000
    0.5153    0.5391    1.3364 C   0  0  0  0  0  0  0  0  0  0  0  0
    0.9745   -0.4994    0.3506 C   0  0  0  0  0  0  0  0  0  0  0  0
    2.2324   -1.0837    0.4630 C   0  0  0  0  0  0  0  0  0  0  0  0
    2.6469   -2.0630   -0.4264 C   0  0  0  0  0  0  0  0  0  0  0  0
    1.8069   -2.4757   -1.4494 C   0  0  0  0  0  0  0  0  0  0  0  0
    0.5522   -1.8993   -1.5749 C   0  0  0  0  0  0  0  0  0  0  0  0
    0.1430   -0.9203   -0.6826 C   0  0  0  0  0  0  0  0  0  0  0  0
    1.3555    1.1136    1.7278 H   0  0  0  0  0  0  0  0  0  0  0  0
    0.0126    0.0702    2.1862 H   0  0  0  0  0  0  0  0  0  0  0  0
    2.8977   -0.7649    1.2576 H   0  0  0  0  0  0  0  0  0  0  0  0
    3.6310   -2.5029   -0.3217 H   0  0  0  0  0  0  0  0  0  0  0  0
    2.1295   -3.2384   -2.1466 H   0  0  0  0  0  0  0  0  0  0  0  0
   -0.1105   -2.2105   -2.3730 H   0  0  0  0  0  0  0  0  0  0  0  0
   -0.8387   -0.4728   -0.7910 H   0  0  0  0  0  0  0  0  0  0  0  0
   -1.6871    1.7133   -0.9967 C   0  0  0  0  0  0  0  0  0  0  0  0
   -1.6871    1.7133    0.5290 C   0  0  0  0  0  3  0  0  0  0  0  0
   -1.6871    3.1379    1.0750 C   0  0  0  0  0  0  0  0  0  0  0  0
   -2.8700    0.9192    1.0750 C   0  0  0  0  0  0  0  0  0  0  0  0
   -0.8264    2.2555   -1.3938 H   0  0  0  0  0  0  0  0  0  0  0  0
   -2.5911    2.1952   -1.3805 H   0  0  0  0  0  0  0  0  0  0  0  0
   -1.6577    0.6964   -1.3938 H   0  0  0  0  0  0  0  0  0  0  0  0
   -0.5835    1.1249    0.9336 H   0  0  0  0  0  0  0  0  0  0  0  0
   -2.5911    3.6688    0.7624 H   0  0  0  0  0  0  0  0  0  0  0  0
   -1.6576    3.1447    2.1667 H   0  0  0  0  0  0  0  0  0  0  0  0
   -0.8265    3.7028    0.7108 H   0  0  0  0  0  0  0  0  0  0  0  0
   -2.8593   -0.1102    0.7107 H   0  0  0  0  0  0  0  0  0  0  0  0
   -3.8146    1.3740    0.7626 H   0  0  0  0  0  0  0  0  0  0  0  0
   -2.8591    0.8908    2.1666 H   0  0  0  0  0  0  0  0  0  0  0  0
  1  2  1  0
  1  8  1  0
  1  9  1  0
  1 22  1  0
  2  3  2  0
  2  7  1  0
  3  4  1  0
  3 10  1  0
  4  5  2  0
  4 11  1  0
  5  6  1  0
  5 12  1  0
  6  7  2  0
  6 13  1  0
  7 14  1  0
 15 16  1  0
 15 19  1  0
 15 20  1  0
 15 21  1  0
 16 17  1  0
 16 18  1  0
 17 23  1  0
 17 24  1  0
 17 25  1  0
 18 26  1  0
 18 27  1  0
 18 28  1  0
M  RAD  1  16   2
M  END
>  <reaction>  (13) 
rxn_966

>  <mol_properties>  (13) 
{"0": {"label": "*1", "atom_type": "Cs"}, "1": {"label": "*0", "atom_type": "Cd"}, "14": {"label": "*4", "atom_type": "Cs"}, "15": {"label": "*3", "atom_type": "Cs"}, "21": {"label": "*2", "atom_type": "H0"}}

>  <type>  (13) 
unop_9

>  <geom_source>  (13) 
Heuristics

$$$$

     RDKit          3D

 28 27  0  0  0  0  0  0  0  0999 V2000
   -0.2638   -1.2342    0.8533 C   0  0  0  0  0  0  0  0  0  0  0  0
    0.9564   -0.5101    0.3553 C   0  0  0  0  0  0  0  0  0  0  0  0
    1.8777    0.0325    1.2458 C   0  0  0  0  0  0  0  0  0  0  0  0
    3.0188    0.6743    0.7898 C   0  0  0  0  0  0  0  0  0  0  0  0
    3.2584    0.7863   -0.5712 C   0  0  0  0  0  0  0  0  0  0  0  0
    2.3467    0.2531   -1.4695 C   0  0  0  0  0  0  0  0  0  0  0  0
    1.2073   -0.3876   -1.0079 C   0  0  0  0  0  0  0  0  0  0  0  0
   -0.5947   -0.8395    1.8145 H   0  0  0  0  0  0  0  0  0  0  0  0
   -0.0536   -2.2982    0.9891 H   0  0  0  0  0  0  0  0  0  0  0  0
    1.6972   -0.0470    2.3119 H   0  0  0  0  0  0  0  0  0  0  0  0
    3.7217    1.0912    1.5005 H   0  0  0  0  0  0  0  0  0  0  0  0
    4.1475    1.2894   -0.9295 H   0  0  0  0  0  0  0  0  0  0  0  0
    2.5212    0.3389   -2.5349 H   0  0  0  0  0  0  0  0  0  0  0  0
    0.4984   -0.7982   -1.7181 H   0  0  0  0  0  0  0  0  0  0  0  0
   -2.4662   -0.0601   -1.4798 C   0  0  0  0  0  0  0  0  0  0  0  0
   -2.4662   -0.0601    0.0459 C   0  0  0  0  0  3  0  0  0  0  0  0
   -2.4662    1.3645    0.5920 C   0  0  0  0  0  0  0  0  0  0  0  0
   -3.6490   -0.8542    0.5920 C   0  0  0  0  0  0  0  0  0  0  0  0
   -1.6055    0.4821   -1.8769 H   0  0  0  0  0  0  0  0  0  0  0  0
   -3.3702    0.4219   -1.8636 H   0  0  0  0  0  0  0  0  0  0  0  0
   -2.4368   -1.0770   -1.8769 H   0  0  0  0  0  0  0  0  0  0  0  0
   -1.3625   -0.6485    0.4505 H   0  0  0  0  0  0  0  0  0  0  0  0
   -3.3702    1.8954    0.2793 H   0  0  0  0  0  0  0  0  0  0  0  0
   -2.4367    1.3713    1.6836 H   0  0  0  0  0  0  0  0  0  0  0  0
   -1.6055    1.9294    0.2277 H   0  0  0  0  0  0  0  0  0  0  0  0
   -3.6384   -1.8836    0.2276 H   0  0  0  0  0  0  0  0  0  0  0  0
   -4.5936   -0.3994    0.2795 H   0  0  0  0  0  0  0  0  0  0  0  0
   -3.6381   -0.8826    1.6836 H   0  0  0  0  0  0  0  0  0  0  0  0
  1  2  1  0
  1  8  1  0
  1  9  1  0
  1 22  1  0
  2  3  2  0
  2  7  1  0
  3  4  1  0
  3 10  1  0
  4  5  2  0
  4 11  1  0
  5  6  1  0
  5 12  1  0
  6  7  2  0
  6 13  1  0
  7 14  1  0
 15 16  1  0
 15 19  1  0
 15 20  1  0
 15 21  1  0
 16 17  1  0
 16 18  1  0
 17 23  1  0
 17 24  1  0
 17 25  1  0
 18 26  1  0
 18 27  1  0
 18 28  1  0
M  RAD  1  16   2
M  END
>  <reaction>  (14) 
rxn_966

>  <mol_properties>  (14) 
{"0": {"label": "*1", "atom_type": "Cs"}, "1": {"label": "*0", "atom_type": "Cd"}, "14": {"label": "*4", "atom_type": "Cs"}, "15": {"label": "*3", "atom_type": "Cs"}, "21": {"label": "*2", "atom_type": "H0"}}

>  <type>  (14) 
unop_10

>  <geom_source>  (14) 
Heuristics

$$$$

     RDKit          3D

 28 27  0  0  0  0  0  0  0  0999 V2000
    1.1658    0.1579   -0.9825 C   0  0  0  0  0  0  0  0  0  0  0  0
    0.9662   -0.5293    0.3401 C   0  0  0  0  0  0  0  0  0  0  0  0
    2.0099   -1.2163    0.9525 C   0  0  0  0  0  0  0  0  0  0  0  0
    1.8374   -1.8252    2.1859 C   0  0  0  0  0  0  0  0  0  0  0  0
    0.6115   -1.7586    2.8303 C   0  0  0  0  0  0  0  0  0  0  0  0
   -0.4379   -1.0802    2.2296 C   0  0  0  0  0  0  0  0  0  0  0  0
   -0.2596   -0.4731    0.9961 C   0  0  0  0  0  0  0  0  0  0  0  0
    1.9166   -0.3534   -1.5859 H   0  0  0  0  0  0  0  0  0  0  0  0
    1.5054    1.1865   -0.8365 H   0  0  0  0  0  0  0  0  0  0  0  0
    2.9712   -1.2769    0.4546 H   0  0  0  0  0  0  0  0  0  0  0  0
    2.6627   -2.3564    2.6436 H   0  0  0  0  0  0  0  0  0  0  0  0
    0.4738   -2.2356    3.7923 H   0  0  0  0  0  0  0  0  0  0  0  0
   -1.4011   -1.0258    2.7216 H   0  0  0  0  0  0  0  0  0  0  0  0
   -1.0873    0.0520    0.5326 H   0  0  0  0  0  0  0  0  0  0  0  0
   -1.0365    1.3320   -3.3156 C   0  0  0  0  0  0  0  0  0  0  0  0
   -1.0365    1.3320   -1.7898 C   0  0  0  0  0  3  0  0  0  0  0  0
   -1.0365    2.7567   -1.2438 C   0  0  0  0  0  0  0  0  0  0  0  0
   -2.2194    0.5380   -1.2438 C   0  0  0  0  0  0  0  0  0  0  0  0
   -0.1758    1.8743   -3.7126 H   0  0  0  0  0  0  0  0  0  0  0  0
   -1.9405    1.8140   -3.6993 H   0  0  0  0  0  0  0  0  0  0  0  0
   -1.0071    0.3152   -3.7126 H   0  0  0  0  0  0  0  0  0  0  0  0
    0.0671    0.7436   -1.3853 H   0  0  0  0  0  0  0  0  0  0  0  0
   -1.9405    3.2875   -1.5564 H   0  0  0  0  0  0  0  0  0  0  0  0
   -1.0070    2.7635   -0.1522 H   0  0  0  0  0  0  0  0  0  0  0  0
   -0.1759    3.3215   -1.6080 H   0  0  0  0  0  0  0  0  0  0  0  0
   -2.2087   -0.4914   -1.6082 H   0  0  0  0  0  0  0  0  0  0  0  0
   -3.1640    0.9927   -1.5563 H   0  0  0  0  0  0  0  0  0  0  0  0
   -2.2085    0.5095   -0.1522 H   0  0  0  0  0  0  0  0  0  0  0  0
  1  2  1  0
  1  8  1  0
  1  9  1  0
  1 22  1  0
  2  3  2  0
  2  7  1  0
  3  4  1  0
  3 10  1  0
  4  5  2  0
  4 11  1  0
  5  6  1  0
  5 12  1  0
  6  7  2  0
  6 13  1  0
  7 14  1  0
 15 16  1  0
 15 19  1  0
 15 20  1  0
 15 21  1  0
 16 17  1  0
 16 18  1  0
 17 23  1  0
 17 24  1  0
 17 25  1  0
 18 26  1  0
 18 27  1  0
 18 28  1  0
M  RAD  1  16   2
M  END
>  <reaction>  (15) 
rxn_966

>  <mol_properties>  (15) 
{"0": {"label": "*1", "atom_type": "Cs"}, "1": {"label": "*0", "atom_type": "Cd"}, "14": {"label": "*4", "atom_type": "Cs"}, "15": {"label": "*3", "atom_type": "Cs"}, "21": {"label": "*2", "atom_type": "H0"}}

>  <type>  (15) 
unop_11

>  <geom_source>  (15) 
Heuristics

$$$$

     RDKit          3D

 28 27  0  0  0  0  0  0  0  0999 V2000
    0.1269   -0.0525    1.5207 C   0  0  0  0  0  0  0  0  0  0  0  0
    0.9666   -0.5002    0.3564 C   0  0  0  0  0  0  0  0  0  0  0  0
    2.3513   -0.5835    0.4650 C   0  0  0  0  0  0  0  0  0  0  0  0
    3.1256   -1.0246   -0.5970 C   0  0  0  0  0  0  0  0  0  0  0  0
    2.5254   -1.3904   -1.7921 C   0  0  0  0  0  0  0  0  0  0  0  0
    1.1467   -1.3089   -1.9149 C   0  0  0  0  0  0  0  0  0  0  0  0
    0.3774   -0.8670   -0.8496 C   0  0  0  0  0  0  0  0  0  0  0  0
    0.6715    0.6453    2.1576 H   0  0  0  0  0  0  0  0  0  0  0  0
   -0.1627   -0.9058    2.1395 H   0  0  0  0  0  0  0  0  0  0  0  0
    2.8301   -0.2963    1.3944 H   0  0  0  0  0  0  0  0  0  0  0  0
    4.2020   -1.0797   -0.4914 H   0  0  0  0  0  0  0  0  0  0  0  0
    3.1283   -1.7326   -2.6236 H   0  0  0  0  0  0  0  0  0  0  0  0
    0.6675   -1.5875   -2.8453 H   0  0  0  0  0  0  0  0  0  0  0  0
   -0.6997   -0.8033   -0.9564 H   0  0  0  0  0  0  0  0  0  0  0  0
   -2.0755    1.1216   -0.8123 C   0  0  0  0  0  0  0  0  0  0  0  0
   -2.0755    1.1216    0.7134 C   0  0  0  0  0  3  0  0  0  0  0  0
   -2.0755    2.5462    1.2594 C   0  0  0  0  0  0  0  0  0  0  0  0
   -3.2584    0.3275    1.2594 C   0  0  0  0  0  0  0  0  0  0  0  0
   -1.2148    1.6638   -1.2094 H   0  0  0  0  0  0  0  0  0  0  0  0
   -2.9795    1.6036   -1.1961 H   0  0  0  0  0  0  0  0  0  0  0  0
   -2.0461    0.1047   -1.2094 H   0  0  0  0  0  0  0  0  0  0  0  0
   -0.9719    0.5332    1.1180 H   0  0  0  0  0  0  0  0  0  0  0  0
   -2.9795    3.0771    0.9468 H   0  0  0  0  0  0  0  0  0  0  0  0
   -2.0460    2.5530    2.3510 H   0  0  0  0  0  0  0  0  0  0  0  0
   -1.2148    3.1111    0.8952 H   0  0  0  0  0  0  0  0  0  0  0  0
   -3.2477   -0.7019    0.8951 H   0  0  0  0  0  0  0  0  0  0  0  0
   -4.2030    0.7823    0.9469 H   0  0  0  0  0  0  0  0  0  0  0  0
   -3.2475    0.2991    2.3510 H   0  0  0  0  0  0  0  0  0  0  0  0
  1  2  1  0
  1  8  1  0
  1  9  1  0
  1 22  1  0
  2  3  2  0
  2  7  1  0
  3  4  1  0
  3 10  1  0
  4  5  2  0
  4 11  1  0
  5  6  1  0
  5 12  1  0
  6  7  2  0
  6 13  1  0
  7 14  1  0
 15 16  1  0
 15 19  1  0
 15 20  1  0
 15 21  1  0
 16 17  1  0
 16 18  1  0
 17 23  1  0
 17 24  1  0
 17 25  1  0
 18 26  1  0
 18 27  1  0
 18 28  1  0
M  RAD  1  16   2
M  END
>  <reaction>  (16) 
rxn_966

>  <mol_properties>  (16) 
{"0": {"label": "*1", "atom_type": "Cs"}, "1": {"label": "*0", "atom_type": "Cd"}, "14": {"label": "*4", "atom_type": "Cs"}, "15": {"label": "*3", "atom_type": "Cs"}, "21": {"label": "*2", "atom_type": "H0"}}

>  <type>  (16) 
unop_12

>  <geom_source>  (16) 
Heuristics

$$$$

     RDKit          3D

 28 27  0  0  0  0  0  0  0  0999 V2000
   -2.1431    1.4625    1.0045 C   0  0  0  0  0  0  0  0  0  0  0  0
   -2.1801   -1.0623    1.0986 C   0  0  0  0  0  0  0  0  0  0  0  0
   -3.0069    0.1373   -0.9659 C   0  0  0  0  0  0  0  0  0  0  0  0
    0.1220   -0.0225   -1.2295 C   0  0  0  0  0  0  0  0  0  0  0  0
   -2.0181    0.1663    0.2013 C   0  0  0  0  0  3  0  0  0  0  0  0
    1.5083   -0.1155   -0.6657 C   0  0  0  0  0  0  0  0  0  0  0  0
    2.0504   -1.3649   -0.3233 C   0  0  0  0  0  0  0  0  0  0  0  0
    2.2475    1.0507   -0.4096 C   0  0  0  0  0  0  0  0  0  0  0  0
    3.3286   -1.4470    0.2385 C   0  0  0  0  0  0  0  0  0  0  0  0
    4.0666   -0.2836    0.4738 C   0  0  0  0  0  0  0  0  0  0  0  0
    3.5254    0.9644    0.1524 C   0  0  0  0  0  0  0  0  0  0  0  0
   -0.1192   -0.9266   -1.8282 H   0  0  0  0  0  0  0  0  0  0  0  0
    0.0269    0.8640   -1.8922 H   0  0  0  0  0  0  0  0  0  0  0  0
   -0.7322    0.0820   -0.2544 H   0  0  0  0  0  0  0  0  0  0  0  0
   -1.3803    1.4832    1.8111 H   0  0  0  0  0  0  0  0  0  0  0  0
   -1.9685    2.3366    0.3424 H   0  0  0  0  0  0  0  0  0  0  0  0
   -3.1540    1.5467    1.4583 H   0  0  0  0  0  0  0  0  0  0  0  0
   -1.4174   -1.0453    1.9054 H   0  0  0  0  0  0  0  0  0  0  0  0
   -3.1926   -1.0828    1.5563 H   0  0  0  0  0  0  0  0  0  0  0  0
   -2.0320   -1.9880    0.5036 H   0  0  0  0  0  0  0  0  0  0  0  0
   -4.0537    0.1665   -0.5938 H   0  0  0  0  0  0  0  0  0  0  0  0
   -2.8336    1.0095   -1.6309 H   0  0  0  0  0  0  0  0  0  0  0  0
   -2.8600   -0.7867   -1.5639 H   0  0  0  0  0  0  0  0  0  0  0  0
    1.4851   -2.2732   -0.4915 H   0  0  0  0  0  0  0  0  0  0  0  0
    3.7454   -2.4124    0.4952 H   0  0  0  0  0  0  0  0  0  0  0  0
    5.0551   -0.3486    0.9100 H   0  0  0  0  0  0  0  0  0  0  0  0
    4.0944    1.8653    0.3424 H   0  0  0  0  0  0  0  0  0  0  0  0
    1.8358    2.0244   -0.6450 H   0  0  0  0  0  0  0  0  0  0  0  0
  1  5  1  0
  1 15  1  0
  1 16  1  0
  1 17  1  0
  2  5  1  0
  2 18  1  0
  2 19  1  0
  2 20  1  0
  3  5  1  0
  3 21  1  0
  3 22  1  0
  3 23  1  0
  4  6  1  0
  4 12  1  0
  4 13  1  0
  4 14  1  0
  6  7  2  0
  6  8  1  0
  7  9  1  0
  7 24  1  0
  8 11  2  0
  8 28  1  0
  9 10  2  0
  9 25  1  0
 10 11  1  0
 10 26  1  0
 11 27  1  0
M  RAD  1   5   2
M  END
>  <reaction>  (17) 
rxn_966

>  <mol_properties>  (17) 
{"0": {"label": "*1", "atom_type": "Cs"}, "1": {"label": "*0", "atom_type": "Cd"}, "14": {"label": "*4", "atom_type": "Cs"}, "15": {"label": "*3", "atom_type": "Cs"}, "21": {"label": "*2", "atom_type": "H0"}}

>  <type>  (17) 
unop_13

>  <geom_source>  (17) 
AutoTST

$$$$

     RDKit          3D

 28 27  0  0  0  0  0  0  0  0999 V2000
   -0.1586   -0.7027    1.3436 C   0  0  0  0  0  0  0  0  0  0  0  0
    0.9596   -0.5052    0.3578 C   0  0  0  0  0  0  0  0  0  0  0  0
    2.2255   -0.1140    0.7829 C   0  0  0  0  0  0  0  0  0  0  0  0
    3.2662    0.0397   -0.1200 C   0  0  0  0  0  0  0  0  0  0  0  0
    3.0572   -0.1950   -1.4704 C   0  0  0  0  0  0  0  0  0  0  0  0
    1.7998   -0.5820   -1.9080 C   0  0  0  0  0  0  0  0  0  0  0  0
    0.7628   -0.7341   -1.0006 C   0  0  0  0  0  0  0  0  0  0  0  0
   -0.0471   -0.0458    2.2069 H   0  0  0  0  0  0  0  0  0  0  0  0
   -0.1720   -1.7316    1.7122 H   0  0  0  0  0  0  0  0  0  0  0  0
    2.3977    0.0753    1.8365 H   0  0  0  0  0  0  0  0  0  0  0  0
    4.2431    0.3470    0.2325 H   0  0  0  0  0  0  0  0  0  0  0  0
    3.8678   -0.0731   -2.1776 H   0  0  0  0  0  0  0  0  0  0  0  0
    1.6239   -0.7634   -2.9611 H   0  0  0  0  0  0  0  0  0  0  0  0
   -0.2180   -1.0336   -1.3527 H   0  0  0  0  0  0  0  0  0  0  0  0
   -2.3610    0.4714   -0.9895 C   0  0  0  0  0  0  0  0  0  0  0  0
   -2.3610    0.4714    0.5362 C   0  0  0  0  0  3  0  0  0  0  0  0
   -2.3610    1.8961    1.0822 C   0  0  0  0  0  0  0  0  0  0  0  0
   -3.5438   -0.3227    1.0822 C   0  0  0  0  0  0  0  0  0  0  0  0
   -1.5003    1.0137   -1.3866 H   0  0  0  0  0  0  0  0  0  0  0  0
   -3.2650    0.9534   -1.3733 H   0  0  0  0  0  0  0  0  0  0  0  0
   -2.3316   -0.5454   -1.3866 H   0  0  0  0  0  0  0  0  0  0  0  0
   -1.2573   -0.1170    0.9408 H   0  0  0  0  0  0  0  0  0  0  0  0
   -3.2650    2.4269    0.7696 H   0  0  0  0  0  0  0  0  0  0  0  0
   -2.3315    1.9028    2.1739 H   0  0  0  0  0  0  0  0  0  0  0  0
   -1.5003    2.4609    0.7180 H   0  0  0  0  0  0  0  0  0  0  0  0
   -3.5331   -1.3520    0.7179 H   0  0  0  0  0  0  0  0  0  0  0  0
   -4.4884    0.1321    0.7698 H   0  0  0  0  0  0  0  0  0  0  0  0
   -3.5329   -0.3511    2.1738 H   0  0  0  0  0  0  0  0  0  0  0  0
  1  2  1  0
  1  8  1  0
  1  9  1  0
  1 22  1  0
  2  3  2  0
  2  7  1  0
  3  4  1  0
  3 10  1  0
  4  5  2  0
  4 11  1  0
  5  6  1  0
  5 12  1  0
  6  7  2  0
  6 13  1  0
  7 14  1  0
 15 16  1  0
 15 19  1  0
 15 20  1  0
 15 21  1  0
 16 17  1  0
 16 18  1  0
 17 23  1  0
 17 24  1  0
 17 25  1  0
 18 26  1  0
 18 27  1  0
 18 28  1  0
M  RAD  1  16   2
M  END
>  <reaction>  (18) 
rxn_966

>  <mol_properties>  (18) 
{"0": {"label": "*1", "atom_type": "Cs"}, "1": {"label": "*0", "atom_type": "Cd"}, "14": {"label": "*4", "atom_type": "Cs"}, "15": {"label": "*3", "atom_type": "Cs"}, "21": {"label": "*2", "atom_type": "H0"}}

>  <type>  (18) 
unop_14

>  <geom_source>  (18) 
gaussian_log

$$$$
