
     RDKit          3D

 10  9  0  0  0  0  0  0  0  0999 V2000
   -1.1508    0.0666    0.2839 C   0  0  0  0  0  0  0  0  0  0  0  0
    0.1022   -0.3749   -0.4771 C   0  0  0  0  0  0  0  0  0  0  0  0
    1.3428    0.1620    0.1542 C   0  0  0  0  0  0  0  0  0  0  0  0
    2.5613   -0.6971    0.7526 S   0  0  0  0  0  0  0  0  0  0  0  0
   -1.2137    1.1546    0.3481 H   0  0  0  0  0  0  0  0  0  0  0  0
   -2.0472   -0.2935   -0.2212 H   0  0  0  0  0  0  0  0  0  0  0  0
   -1.1467   -0.3334    1.2987 H   0  0  0  0  0  0  0  0  0  0  0  0
    0.1602   -1.4616   -0.5369 H   0  0  0  0  0  0  0  0  0  0  0  0
    0.0536    0.0174   -1.4997 H   0  0  0  0  0  0  0  0  0  0  0  0
    1.3824    1.2528    0.2110 H   0  0  0  0  0  0  0  0  0  0  0  0
  1  2  1  0
  1  5  1  0
  1  6  1  0
  1  7  1  0
  2  3  1  0
  2  8  1  0
  2  9  1  0
  3  4  2  0
  3 10  1  0
M  END
>  <reaction>  (1) 
rxn_2012

>  <mol_properties>  (1) 
{"1": {"label": "donator", "atom_type": "Cs"}, "7": {"label": "d_hydrogen", "atom_type": "H0"}}

>  <type>  (1) 
r1h

$$$$

     RDKit          3D

 20 20  0  0  0  0  0  0  0  0999 V2000
   -2.4774    0.8083    0.1488 C   0  0  0  0  0  0  0  0  0  0  0  0
   -1.4172   -0.1696   -0.2476 C   0  0  0  0  0  3  0  0  0  0  0  0
   -0.2904    0.2932   -1.1156 C   0  0  0  0  0  0  0  0  0  0  0  0
   -1.4797   -1.5204    0.1947 C   0  0  0  0  0  0  0  0  0  0  0  0
   -0.4907   -2.4664   -0.1650 C   0  0  0  0  0  0  0  0  0  0  0  0
   -0.5559   -3.7750    0.2665 C   0  0  0  0  0  0  0  0  0  0  0  0
   -1.6038   -4.2041    1.0733 C   0  0  0  0  0  0  0  0  0  0  0  0
   -2.5899   -3.2959    1.4424 C   0  0  0  0  0  0  0  0  0  0  0  0
   -2.5339   -1.9852    1.0162 C   0  0  0  0  0  0  0  0  0  0  0  0
   -3.4697    0.4933   -0.1924 H   0  0  0  0  0  0  0  0  0  0  0  0
   -2.5434    0.9184    1.2368 H   0  0  0  0  0  0  0  0  0  0  0  0
   -2.2829    1.7944   -0.2706 H   0  0  0  0  0  0  0  0  0  0  0  0
   -0.2452   -0.2661   -2.0565 H   0  0  0  0  0  0  0  0  0  0  0  0
   -0.3905    1.3487   -1.3647 H   0  0  0  0  0  0  0  0  0  0  0  0
    0.6811    0.1589   -0.6274 H   0  0  0  0  0  0  0  0  0  0  0  0
    0.3373   -2.1635   -0.7918 H   0  0  0  0  0  0  0  0  0  0  0  0
    0.2187   -4.4725   -0.0281 H   0  0  0  0  0  0  0  0  0  0  0  0
   -1.6513   -5.2316    1.4097 H   0  0  0  0  0  0  0  0  0  0  0  0
   -3.4116   -3.6175    2.0706 H   0  0  0  0  0  0  0  0  0  0  0  0
   -3.3164   -1.3029    1.3205 H   0  0  0  0  0  0  0  0  0  0  0  0
  1  2  1  0
  1 10  1  0
  1 11  1  0
  1 12  1  0
  2  3  1  0
  2  4  1  0
  3 13  1  0
  3 14  1  0
  3 15  1  0
  4  5  2  0
  4  9  1  0
  5  6  1  0
  5 16  1  0
  6  7  2  0
  6 17  1  0
  7  8  1  0
  7 18  1  0
  8  9  2  0
  8 19  1  0
  9 20  1  0
M  RAD  1   2   2
M  END
>  <reaction>  (2) 
rxn_2012

>  <mol_properties>  (2) 
{"1": {"label": "acceptor", "atom_type": "Cs"}}

>  <type>  (2) 
r2

$$$$

     RDKit          3D

 21 21  0  0  0  0  0  0  0  0999 V2000
   -1.3695    1.3367   -1.0719 C   0  0  0  0  0  0  0  0  0  0  0  0
   -1.4091   -0.0981   -0.5428 C   0  0  0  0  0  0  0  0  0  0  0  0
   -0.1819   -0.3999    0.3191 C   0  0  0  0  0  0  0  0  0  0  0  0
   -1.5636   -1.1028   -1.6652 C   0  0  0  0  0  0  0  0  0  0  0  0
   -0.5920   -1.2314   -2.6553 C   0  0  0  0  0  0  0  0  0  0  0  0
   -0.7353   -2.1509   -3.6809 C   0  0  0  0  0  0  0  0  0  0  0  0
   -1.8582   -2.9642   -3.7377 C   0  0  0  0  0  0  0  0  0  0  0  0
   -2.8325   -2.8475   -2.7602 C   0  0  0  0  0  0  0  0  0  0  0  0
   -2.6828   -1.9241   -1.7351 C   0  0  0  0  0  0  0  0  0  0  0  0
   -0.4920    1.4974   -1.7025 H   0  0  0  0  0  0  0  0  0  0  0  0
   -2.2553    1.5607   -1.6679 H   0  0  0  0  0  0  0  0  0  0  0  0
   -1.3211    2.0496   -0.2461 H   0  0  0  0  0  0  0  0  0  0  0  0
   -2.2930   -0.1918    0.0948 H   0  0  0  0  0  0  0  0  0  0  0  0
   -0.1215    0.2955    1.1588 H   0  0  0  0  0  0  0  0  0  0  0  0
   -0.2200   -1.4155    0.7159 H   0  0  0  0  0  0  0  0  0  0  0  0
    0.7383   -0.3016   -0.2615 H   0  0  0  0  0  0  0  0  0  0  0  0
    0.2915   -0.6040   -2.6263 H   0  0  0  0  0  0  0  0  0  0  0  0
    0.0326   -2.2338   -4.4401 H   0  0  0  0  0  0  0  0  0  0  0  0
   -1.9712   -3.6833   -4.5391 H   0  0  0  0  0  0  0  0  0  0  0  0
   -3.7135   -3.4765   -2.7932 H   0  0  0  0  0  0  0  0  0  0  0  0
   -3.4509   -1.8400   -0.9743 H   0  0  0  0  0  0  0  0  0  0  0  0
  1  2  1  0
  1 10  1  0
  1 11  1  0
  1 12  1  0
  2  3  1  0
  2  4  1  0
  2 13  1  0
  3 14  1  0
  3 15  1  0
  3 16  1  0
  4  5  2  0
  4  9  1  0
  5  6  1  0
  5 17  1  0
  6  7  2  0
  6 18  1  0
  7  8  1  0
  7 19  1  0
  8  9  2  0
  8 20  1  0
  9 21  1  0
M  END
>  <reaction>  (3) 
rxn_2012

>  <mol_properties>  (3) 
{"0": {"label": "a_hydrogen", "atom_type": "H0"}, "2": {"label": "acceptor", "atom_type": "Cs"}}

>  <type>  (3) 
r2h

$$$$

     RDKit          3D

 30 29  0  0  0  0  0  0  0  0999 V2000
    0.3699   -0.0437   -3.4849 C   0  0  0  0  0  0  0  0  0  0  0  0
    0.8767    0.3197   -2.1132 C   0  0  0  0  0  0  0  0  0  0  0  0
    0.6303    1.6255   -1.5654 C   0  0  0  0  0  0  0  0  0  0  0  0
   -0.4912    2.7053   -2.0760 S   0  0  0  0  0  0  0  0  0  0  0  0
   -0.6797    0.2257   -3.5969 H   0  0  0  0  0  0  0  0  0  0  0  0
    0.9271    0.4960   -4.2540 H   0  0  0  0  0  0  0  0  0  0  0  0
    0.4864   -1.1127   -3.6680 H   0  0  0  0  0  0  0  0  0  0  0  0
    0.2101   -0.4467   -1.3059 H   0  0  0  0  0  0  0  0  0  0  0  0
    1.8744   -0.0570   -1.8822 H   0  0  0  0  0  0  0  0  0  0  0  0
    1.2288    1.8735   -0.6895 H   0  0  0  0  0  0  0  0  0  0  0  0
   -1.9419   -0.9825   -1.0817 C   0  0  0  0  0  0  0  0  0  0  0  0
   -0.5747   -1.3077   -0.5297 C   0  0  0  0  0  3  0  0  0  0  0  0
   -0.0475   -2.6676   -0.9100 C   0  0  0  0  0  0  0  0  0  0  0  0
   -0.2388   -0.7838    0.8067 C   0  0  0  0  0  0  0  0  0  0  0  0
   -0.7763    0.4305    1.2540 C   0  0  0  0  0  0  0  0  0  0  0  0
   -0.4166    0.9657    2.4785 C   0  0  0  0  0  0  0  0  0  0  0  0
    0.4865    0.3033    3.2956 C   0  0  0  0  0  0  0  0  0  0  0  0
    1.0281   -0.9013    2.8718 C   0  0  0  0  0  0  0  0  0  0  0  0
    0.6763   -1.4338    1.6441 C   0  0  0  0  0  0  0  0  0  0  0  0
   -2.1107    0.0916   -1.1652 H   0  0  0  0  0  0  0  0  0  0  0  0
   -2.0642   -1.4098   -2.0768 H   0  0  0  0  0  0  0  0  0  0  0  0
   -2.7242   -1.3938   -0.4359 H   0  0  0  0  0  0  0  0  0  0  0  0
   -0.5055   -3.4509   -0.2964 H   0  0  0  0  0  0  0  0  0  0  0  0
   -0.2813   -2.8865   -1.9519 H   0  0  0  0  0  0  0  0  0  0  0  0
    1.0339   -2.7409   -0.7882 H   0  0  0  0  0  0  0  0  0  0  0  0
   -1.4752    0.9746    0.6344 H   0  0  0  0  0  0  0  0  0  0  0  0
   -0.8449    1.9087    2.7935 H   0  0  0  0  0  0  0  0  0  0  0  0
    0.7652    0.7209    4.2545 H   0  0  0  0  0  0  0  0  0  0  0  0
    1.7305   -1.4319    3.5026 H   0  0  0  0  0  0  0  0  0  0  0  0
    1.1113   -2.3771    1.3433 H   0  0  0  0  0  0  0  0  0  0  0  0
  1  2  1  0
  1  5  1  0
  1  6  1  0
  1  7  1  0
  2  3  1  0
  2  8  1  0
  2  9  1  0
  3  4  2  0
  3 10  1  0
 11 12  1  0
 11 20  1  0
 11 21  1  0
 11 22  1  0
 12 13  1  0
 12 14  1  0
 13 23  1  0
 13 24  1  0
 13 25  1  0
 14 15  2  0
 14 19  1  0
 15 16  1  0
 15 26  1  0
 16 17  2  0
 16 27  1  0
 17 18  1  0
 17 28  1  0
 18 19  2  0
 18 29  1  0
 19 30  1  0
M  RAD  1  12   2
M  END
>  <reaction>  (4) 
rxn_2012

>  <mol_properties>  (4) 
{"1": {"label": "*1", "atom_type": "Cs"}, "2": {"label": "*0", "atom_type": "CS"}, "7": {"label": "*2", "atom_type": "H0"}, "11": {"label": "*3", "atom_type": "Cs"}, "13": {"label": "*4", "atom_type": "Cd"}}

>  <type>  (4) 
ts

$$$$

     RDKit          3D

 30 29  0  0  0  0  0  0  0  0999 V2000
    2.4840    0.6007   -1.9933 C   0  0  0  0  0  0  0  0  0  0  0  0
    2.4840    0.6007   -0.4622 C   0  0  0  0  0  0  0  0  0  0  0  0
    2.4840    1.9889    0.0845 C   0  0  0  0  0  0  0  0  0  0  0  0
    1.3644    2.6446    1.0320 S   0  0  0  0  0  0  0  0  0  0  0  0
    3.3392    1.1509   -2.3904 H   0  0  0  0  0  0  0  0  0  0  0  0
    2.5348   -0.4202   -2.3719 H   0  0  0  0  0  0  0  0  0  0  0  0
    1.5745    1.0631   -2.3789 H   0  0  0  0  0  0  0  0  0  0  0  0
    1.4563   -0.0586    0.0064 H   0  0  0  0  0  0  0  0  0  0  0  0
    3.3943    0.1040   -0.1068 H   0  0  0  0  0  0  0  0  0  0  0  0
    3.3394    2.5942   -0.2259 H   0  0  0  0  0  0  0  0  0  0  0  0
    0.9624   -1.8756    1.3234 C   0  0  0  0  0  0  0  0  0  0  0  0
    0.4249   -0.7204    0.4768 C   0  0  0  0  0  3  0  0  0  0  0  0
    0.4664    0.5963    1.2543 C   0  0  0  0  0  0  0  0  0  0  0  0
   -0.9641   -1.0139   -0.0502 C   0  0  0  0  0  0  0  0  0  0  0  0
   -2.0377   -1.2050    0.8169 C   0  0  0  0  0  0  0  0  0  0  0  0
   -3.3072   -1.4733    0.3329 C   0  0  0  0  0  0  0  0  0  0  0  0
   -3.5301   -1.5562   -1.0343 C   0  0  0  0  0  0  0  0  0  0  0  0
   -2.4723   -1.3684   -1.9084 C   0  0  0  0  0  0  0  0  0  0  0  0
   -1.2026   -1.0999   -1.4168 C   0  0  0  0  0  0  0  0  0  0  0  0
    0.9547   -2.8112    0.7624 H   0  0  0  0  0  0  0  0  0  0  0  0
    1.9871   -1.6740    1.6422 H   0  0  0  0  0  0  0  0  0  0  0  0
    0.3563   -2.0184    2.2210 H   0  0  0  0  0  0  0  0  0  0  0  0
   -0.1576    0.5424    2.1494 H   0  0  0  0  0  0  0  0  0  0  0  0
    1.4861    0.8228    1.5724 H   0  0  0  0  0  0  0  0  0  0  0  0
    0.1046    1.4251    0.6440 H   0  0  0  0  0  0  0  0  0  0  0  0
   -1.8814   -1.1438    1.8878 H   0  0  0  0  0  0  0  0  0  0  0  0
   -4.1272   -1.6185    1.0253 H   0  0  0  0  0  0  0  0  0  0  0  0
   -4.5222   -1.7659   -1.4136 H   0  0  0  0  0  0  0  0  0  0  0  0
   -2.6332   -1.4306   -2.9775 H   0  0  0  0  0  0  0  0  0  0  0  0
   -0.3807   -0.9543   -2.1089 H   0  0  0  0  0  0  0  0  0  0  0  0
  1  2  1  0
  1  5  1  0
  1  6  1  0
  1  7  1  0
  2  3  1  0
  2  8  1  0
  2  9  1  0
  3  4  2  0
  3 10  1  0
 11 12  1  0
 11 20  1  0
 11 21  1  0
 11 22  1  0
 12 13  1  0
 12 14  1  0
 13 23  1  0
 13 24  1  0
 13 25  1  0
 14 15  2  0
 14 19  1  0
 15 16  1  0
 15 26  1  0
 16 17  2  0
 16 27  1  0
 17 18  1  0
 17 28  1  0
 18 19  2  0
 18 29  1  0
 19 30  1  0
M  RAD  1  12   2
M  END
>  <reaction>  (5) 
rxn_2012

>  <mol_properties>  (5) 
{"1": {"label": "*1", "atom_type": "Cs"}, "2": {"label": "*0", "atom_type": "CS"}, "7": {"label": "*2", "atom_type": "H0"}, "11": {"label": "*3", "atom_type": "Cs"}, "13": {"label": "*4", "atom_type": "Cd"}}

>  <type>  (5) 
unop_1

>  <geom_source>  (5) 
Heuristics

$$$$

     RDKit          3D

 30 29  0  0  0  0  0  0  0  0999 V2000
    2.3740   -0.0396   -2.6693 C   0  0  0  0  0  0  0  0  0  0  0  0
    2.3740   -0.0396   -1.1382 C   0  0  0  0  0  0  0  0  0  0  0  0
    2.3740    1.3486   -0.5915 C   0  0  0  0  0  0  0  0  0  0  0  0
    1.2545    2.0043    0.3560 S   0  0  0  0  0  0  0  0  0  0  0  0
    3.2292    0.5106   -3.0664 H   0  0  0  0  0  0  0  0  0  0  0  0
    2.4249   -1.0605   -3.0480 H   0  0  0  0  0  0  0  0  0  0  0  0
    1.4645    0.4228   -3.0550 H   0  0  0  0  0  0  0  0  0  0  0  0
    1.3464   -0.6989   -0.6696 H   0  0  0  0  0  0  0  0  0  0  0  0
    3.2844   -0.5363   -0.7828 H   0  0  0  0  0  0  0  0  0  0  0  0
    3.2295    1.9539   -0.9019 H   0  0  0  0  0  0  0  0  0  0  0  0
   -0.0364   -2.4522   -1.2118 C   0  0  0  0  0  0  0  0  0  0  0  0
    0.3149   -1.3607   -0.1992 C   0  0  0  0  0  3  0  0  0  0  0  0
    1.1392   -1.9290    0.9574 C   0  0  0  0  0  0  0  0  0  0  0  0
   -0.9216   -0.6412    0.2973 C   0  0  0  0  0  0  0  0  0  0  0  0
   -1.9158   -1.3190    0.9996 C   0  0  0  0  0  0  0  0  0  0  0  0
   -3.0458   -0.6591    1.4528 C   0  0  0  0  0  0  0  0  0  0  0  0
   -3.2055    0.6982    1.2120 C   0  0  0  0  0  0  0  0  0  0  0  0
   -2.2253    1.3851    0.5151 C   0  0  0  0  0  0  0  0  0  0  0  0
   -1.0953    0.7179    0.0637 C   0  0  0  0  0  0  0  0  0  0  0  0
   -0.6047   -2.0440   -2.0488 H   0  0  0  0  0  0  0  0  0  0  0  0
    0.8698   -2.9172   -1.6055 H   0  0  0  0  0  0  0  0  0  0  0  0
   -0.6391   -3.2368   -0.7487 H   0  0  0  0  0  0  0  0  0  0  0  0
    0.5787   -2.6948    1.4986 H   0  0  0  0  0  0  0  0  0  0  0  0
    2.0572   -2.3887    0.5856 H   0  0  0  0  0  0  0  0  0  0  0  0
    1.4098   -1.1474    1.6688 H   0  0  0  0  0  0  0  0  0  0  0  0
   -1.8072   -2.3794    1.1965 H   0  0  0  0  0  0  0  0  0  0  0  0
   -3.8061   -1.2059    1.9967 H   0  0  0  0  0  0  0  0  0  0  0  0
   -4.0886    1.2150    1.5658 H   0  0  0  0  0  0  0  0  0  0  0  0
   -2.3381    2.4445    0.3207 H   0  0  0  0  0  0  0  0  0  0  0  0
   -0.3333    1.2641   -0.4810 H   0  0  0  0  0  0  0  0  0  0  0  0
  1  2  1  0
  1  5  1  0
  1  6  1  0
  1  7  1  0
  2  3  1  0
  2  8  1  0
  2  9  1  0
  3  4  2  0
  3 10  1  0
 11 12  1  0
 11 20  1  0
 11 21  1  0
 11 22  1  0
 12 13  1  0
 12 14  1  0
 13 23  1  0
 13 24  1  0
 13 25  1  0
 14 15  2  0
 14 19  1  0
 15 16  1  0
 15 26  1  0
 16 17  2  0
 16 27  1  0
 17 18  1  0
 17 28  1  0
 18 19  2  0
 18 29  1  0
 19 30  1  0
M  RAD  1  12   2
M  END
>  <reaction>  (6) 
rxn_2012

>  <mol_properties>  (6) 
{"1": {"label": "*1", "atom_type": "Cs"}, "2": {"label": "*0", "atom_type": "CS"}, "7": {"label": "*2", "atom_type": "H0"}, "11": {"label": "*3", "atom_type": "Cs"}, "13": {"label": "*4", "atom_type": "Cd"}}

>  <type>  (6) 
unop_2

>  <geom_source>  (6) 
Heuristics

$$$$

     RDKit          3D

 30 29  0  0  0  0  0  0  0  0999 V2000
    2.1854    1.0399   -1.7991 C   0  0  0  0  0  0  0  0  0  0  0  0
    2.1854    1.0399   -0.2681 C   0  0  0  0  0  0  0  0  0  0  0  0
    2.1854    2.4281    0.2786 C   0  0  0  0  0  0  0  0  0  0  0  0
    1.0658    3.0838    1.2262 S   0  0  0  0  0  0  0  0  0  0  0  0
    3.0406    1.5901   -2.1962 H   0  0  0  0  0  0  0  0  0  0  0  0
    2.2362    0.0190   -2.1778 H   0  0  0  0  0  0  0  0  0  0  0  0
    1.2759    1.5023   -2.1848 H   0  0  0  0  0  0  0  0  0  0  0  0
    1.1577    0.3805    0.2006 H   0  0  0  0  0  0  0  0  0  0  0  0
    3.0957    0.5432    0.0874 H   0  0  0  0  0  0  0  0  0  0  0  0
    3.0408    3.0333   -0.0317 H   0  0  0  0  0  0  0  0  0  0  0  0
    0.5365   -0.8841    2.0157 C   0  0  0  0  0  0  0  0  0  0  0  0
    0.1262   -0.2813    0.6710 C   0  0  0  0  0  3  0  0  0  0  0  0
   -0.4905    1.1063    0.8561 C   0  0  0  0  0  0  0  0  0  0  0  0
   -0.7970   -1.2045   -0.0961 C   0  0  0  0  0  0  0  0  0  0  0  0
   -2.0471   -1.5552    0.4091 C   0  0  0  0  0  0  0  0  0  0  0  0
   -2.8899   -2.3997   -0.2941 C   0  0  0  0  0  0  0  0  0  0  0  0
   -2.4981   -2.9131   -1.5223 C   0  0  0  0  0  0  0  0  0  0  0  0
   -1.2580   -2.5732   -2.0371 C   0  0  0  0  0  0  0  0  0  0  0  0
   -0.4182   -1.7265   -1.3274 C   0  0  0  0  0  0  0  0  0  0  0  0
    0.9973   -1.8640    1.8833 H   0  0  0  0  0  0  0  0  0  0  0  0
    1.2504   -0.2344    2.5263 H   0  0  0  0  0  0  0  0  0  0  0  0
   -0.3294   -1.0069    2.6703 H   0  0  0  0  0  0  0  0  0  0  0  0
   -1.3933    1.0550    1.4690 H   0  0  0  0  0  0  0  0  0  0  0  0
    0.2130    1.7761    1.3550 H   0  0  0  0  0  0  0  0  0  0  0  0
   -0.7627    1.5471   -0.1040 H   0  0  0  0  0  0  0  0  0  0  0  0
   -2.3691   -1.1632    1.3671 H   0  0  0  0  0  0  0  0  0  0  0  0
   -3.8574   -2.6590    0.1178 H   0  0  0  0  0  0  0  0  0  0  0  0
   -3.1562   -3.5734   -2.0727 H   0  0  0  0  0  0  0  0  0  0  0  0
   -0.9405   -2.9672   -2.9946 H   0  0  0  0  0  0  0  0  0  0  0  0
    0.5508   -1.4660   -1.7385 H   0  0  0  0  0  0  0  0  0  0  0  0
  1  2  1  0
  1  5  1  0
  1  6  1  0
  1  7  1  0
  2  3  1  0
  2  8  1  0
  2  9  1  0
  3  4  2  0
  3 10  1  0
 11 12  1  0
 11 20  1  0
 11 21  1  0
 11 22  1  0
 12 13  1  0
 12 14  1  0
 13 23  1  0
 13 24  1  0
 13 25  1  0
 14 15  2  0
 14 19  1  0
 15 16  1  0
 15 26  1  0
 16 17  2  0
 16 27  1  0
 17 18  1  0
 17 28  1  0
 18 19  2  0
 18 29  1  0
 19 30  1  0
M  RAD  1  12   2
M  END
>  <reaction>  (7) 
rxn_2012

>  <mol_properties>  (7) 
{"1": {"label": "*1", "atom_type": "Cs"}, "2": {"label": "*0", "atom_type": "CS"}, "7": {"label": "*2", "atom_type": "H0"}, "11": {"label": "*3", "atom_type": "Cs"}, "13": {"label": "*4", "atom_type": "Cd"}}

>  <type>  (7) 
unop_3

>  <geom_source>  (7) 
Heuristics

$$$$

     RDKit          3D

 30 28  0  0  0  0  0  0  0  0999 V2000
    1.1739   -0.0535   -3.2312 C   0  0  0  0  0  3  0  0  0  0  0  0
    1.1739   -0.0535   -1.7001 C   0  0  0  0  0  0  0  0  0  0  0  0
    1.1739    1.3347   -1.1534 C   0  0  0  0  0  0  0  0  0  0  0  0
    0.0543    1.9904   -0.2059 S   0  0  0  0  0  1  0  0  0  0  0  0
    2.0291    0.4967   -3.6283 H   0  0  0  0  0  0  0  0  0  0  0  0
    1.2247   -1.0744   -3.6098 H   0  0  0  0  0  0  0  0  0  0  0  0
    0.2644    0.4089   -3.6168 H   0  0  0  0  0  0  0  0  0  0  0  0
    0.1462   -0.7129   -1.2314 H   0  0  0  0  0  0  0  0  0  0  0  0
    2.0842   -0.5502   -1.3447 H   0  0  0  0  0  0  0  0  0  0  0  0
    2.0293    1.9399   -1.4637 H   0  0  0  0  0  0  0  0  0  0  0  0
   -2.1510   -0.6867   -1.2755 C   0  0  0  0  0  0  0  0  0  0  0  0
   -0.8852   -1.3747   -0.7611 C   0  0  0  0  0  3  0  0  0  0  0  0
   -1.1132   -2.8756   -0.5734 C   0  0  0  0  0  0  0  0  0  0  0  0
   -0.3732   -0.7250    0.5074 C   0  0  0  0  0  0  0  0  0  0  0  0
   -1.1392   -0.7150    1.6710 C   0  0  0  0  0  0  0  0  0  0  0  0
   -0.6691   -0.1203    2.8300 C   0  0  0  0  0  0  0  0  0  0  0  0
    0.5823    0.4791    2.8492 C   0  0  0  0  0  0  0  0  0  0  0  0
    1.3551    0.4768    1.6998 C   0  0  0  0  0  0  0  0  0  0  0  0
    0.8781   -0.1208    0.5417 C   0  0  0  0  0  0  0  0  0  0  0  0
   -1.9832    0.3799   -1.4315 H   0  0  0  0  0  0  0  0  0  0  0  0
   -2.4698   -1.1270   -2.2226 H   0  0  0  0  0  0  0  0  0  0  0  0
   -2.9728   -0.7959   -0.5641 H   0  0  0  0  0  0  0  0  0  0  0  0
   -1.8977   -3.0635    0.1633 H   0  0  0  0  0  0  0  0  0  0  0  0
   -1.4215   -3.3379   -1.5134 H   0  0  0  0  0  0  0  0  0  0  0  0
   -0.2047   -3.3713   -0.2283 H   0  0  0  0  0  0  0  0  0  0  0  0
   -2.1190   -1.1786    1.6738 H   0  0  0  0  0  0  0  0  0  0  0  0
   -1.2816   -0.1243    3.7232 H   0  0  0  0  0  0  0  0  0  0  0  0
    0.9507    0.9443    3.7547 H   0  0  0  0  0  0  0  0  0  0  0  0
    2.3334    0.9413    1.7018 H   0  0  0  0  0  0  0  0  0  0  0  0
    1.4903   -0.1176   -0.3533 H   0  0  0  0  0  0  0  0  0  0  0  0
  1  5  1  0
  1  6  1  0
  1  7  1  0
  2  3  2  3
  2  8  1  0
  2  9  1  0
  3  4  1  0
  3 10  1  0
 11 12  1  0
 11 20  1  0
 11 21  1  0
 11 22  1  0
 12 13  1  0
 12 14  1  0
 13 23  1  0
 13 24  1  0
 13 25  1  0
 14 15  2  0
 14 19  1  0
 15 16  1  0
 15 26  1  0
 16 17  2  0
 16 27  1  0
 17 18  1  0
 17 28  1  0
 18 19  2  0
 18 29  1  0
 19 30  1  0
M  RAD  3   1   2   4   2  12   2
M  END
>  <reaction>  (8) 
rxn_2012

>  <mol_properties>  (8) 
{"1": {"label": "*1", "atom_type": "Cs"}, "2": {"label": "*0", "atom_type": "CS"}, "7": {"label": "*2", "atom_type": "H0"}, "11": {"label": "*3", "atom_type": "Cs"}, "13": {"label": "*4", "atom_type": "Cd"}}

>  <type>  (8) 
unop_4

>  <geom_source>  (8) 
Heuristics

$$$$

     RDKit          3D

 30 29  0  0  0  0  0  0  0  0999 V2000
    1.4625    1.4281   -1.9503 C   0  0  0  0  0  0  0  0  0  0  0  0
    1.4625    1.4281   -0.4192 C   0  0  0  0  0  0  0  0  0  0  0  0
    1.4625    2.8163    0.1275 C   0  0  0  0  0  0  0  0  0  0  0  0
    0.3430    3.4720    1.0750 S   0  0  0  0  0  0  0  0  0  0  0  0
    2.3177    1.9783   -2.3474 H   0  0  0  0  0  0  0  0  0  0  0  0
    1.5134    0.4072   -2.3289 H   0  0  0  0  0  0  0  0  0  0  0  0
    0.5530    1.8905   -2.3359 H   0  0  0  0  0  0  0  0  0  0  0  0
    0.4349    0.7688    0.0495 H   0  0  0  0  0  0  0  0  0  0  0  0
    2.3729    0.9314   -0.0638 H   0  0  0  0  0  0  0  0  0  0  0  0
    2.3180    3.4216   -0.1828 H   0  0  0  0  0  0  0  0  0  0  0  0
   -0.5210    0.1555    2.0469 C   0  0  0  0  0  0  0  0  0  0  0  0
   -0.5966    0.1070    0.5199 C   0  0  0  0  0  3  0  0  0  0  0  0
   -1.8623    0.7983    0.0101 C   0  0  0  0  0  0  0  0  0  0  0  0
   -0.4875   -1.3113    0.0004 C   0  0  0  0  0  0  0  0  0  0  0  0
   -1.4420   -2.2726    0.3256 C   0  0  0  0  0  0  0  0  0  0  0  0
   -1.3404   -3.5691   -0.1505 C   0  0  0  0  0  0  0  0  0  0  0  0
   -0.2775   -3.9324   -0.9652 C   0  0  0  0  0  0  0  0  0  0  0  0
    0.6791   -2.9873   -1.2969 C   0  0  0  0  0  0  0  0  0  0  0  0
    0.5714   -1.6898   -0.8165 C   0  0  0  0  0  0  0  0  0  0  0  0
    0.3925   -0.3171    2.4108 H   0  0  0  0  0  0  0  0  0  0  0  0
   -0.5379    1.1887    2.3999 H   0  0  0  0  0  0  0  0  0  0  0  0
   -1.3695   -0.3645    2.4977 H   0  0  0  0  0  0  0  0  0  0  0  0
   -2.7590    0.3015    0.3877 H   0  0  0  0  0  0  0  0  0  0  0  0
   -1.8928    1.8380    0.3426 H   0  0  0  0  0  0  0  0  0  0  0  0
   -1.9063    0.7846   -1.0799 H   0  0  0  0  0  0  0  0  0  0  0  0
   -2.2789   -2.0059    0.9609 H   0  0  0  0  0  0  0  0  0  0  0  0
   -2.0941   -4.3001    0.1150 H   0  0  0  0  0  0  0  0  0  0  0  0
   -0.1972   -4.9457   -1.3379 H   0  0  0  0  0  0  0  0  0  0  0  0
    1.5135   -3.2583   -1.9319 H   0  0  0  0  0  0  0  0  0  0  0  0
    1.3253   -0.9568   -1.0815 H   0  0  0  0  0  0  0  0  0  0  0  0
  1  2  1  0
  1  5  1  0
  1  6  1  0
  1  7  1  0
  2  3  1  0
  2  8  1  0
  2  9  1  0
  3  4  2  0
  3 10  1  0
 11 12  1  0
 11 20  1  0
 11 21  1  0
 11 22  1  0
 12 13  1  0
 12 14  1  0
 13 23  1  0
 13 24  1  0
 13 25  1  0
 14 15  2  0
 14 19  1  0
 15 16  1  0
 15 26  1  0
 16 17  2  0
 16 27  1  0
 17 18  1  0
 17 28  1  0
 18 19  2  0
 18 29  1  0
 19 30  1  0
M  RAD  1  12   2
M  END
>  <reaction>  (9) 
rxn_2012

>  <mol_properties>  (9) 
{"1": {"label": "*1", "atom_type": "Cs"}, "2": {"label": "*0", "atom_type": "CS"}, "7": {"label": "*2", "atom_type": "H0"}, "11": {"label": "*3", "atom_type": "Cs"}, "13": {"label": "*4", "atom_type": "Cd"}}

>  <type>  (9) 
unop_5

>  <geom_source>  (9) 
Heuristics

$$$$

     RDKit          3D

 30 27  0  0  0  0  0  0  0  0999 V2000
    0.8093    0.3349   -3.1524 C   0  0  0  0  0  3  0  0  0  0  0  0
    0.8093    0.3349   -1.6213 C   0  0  0  0  0  1  0  0  0  0  0  0
    0.8093    1.7231   -1.0746 C   0  0  0  0  0  3  0  0  0  0  0  0
   -0.3103    2.3788   -0.1271 S   0  0  0  0  0  0  0  0  0  0  0  0
    1.6645    0.8851   -3.5495 H   0  0  0  0  0  0  0  0  0  0  0  0
    0.8601   -0.6860   -3.5311 H   0  0  0  0  0  0  0  0  0  0  0  0
   -0.1002    0.7973   -3.5380 H   0  0  0  0  0  0  0  0  0  0  0  0
   -0.2184   -0.3245   -1.1527 H   0  0  0  0  0  0  0  0  0  0  0  0
    1.7196   -0.1618   -1.2659 H   0  0  0  0  0  0  0  0  0  0  0  0
    1.6647    2.3283   -1.3850 H   0  0  0  0  0  0  0  0  0  0  0  0
   -2.4012    0.0071   -0.5162 C   0  0  0  0  0  0  0  0  0  0  0  0
   -1.2498   -0.9863   -0.6823 C   0  0  0  0  0  0  0  0  0  0  0  0
   -1.7745   -2.4152   -0.8334 C   0  0  0  0  0  0  0  0  0  0  0  0
   -0.2497   -0.8756    0.4493 C   0  0  0  0  0  0  0  0  0  0  0  0
   -0.6192   -1.1436    1.7656 C   0  0  0  0  0  0  0  0  0  0  0  0
    0.2971   -1.0418    2.7991 C   0  0  0  0  0  0  0  0  0  0  0  0
    1.6075   -0.6683    2.5362 C   0  0  0  0  0  0  0  0  0  0  0  0
    1.9892   -0.3989    1.2324 C   0  0  0  0  0  0  0  0  0  0  0  0
    1.0662   -0.5027    0.2014 C   0  0  0  0  0  0  0  0  0  0  0  0
   -2.0296    1.0293   -0.4313 H   0  0  0  0  0  0  0  0  0  0  0  0
   -3.0782   -0.0429   -1.3715 H   0  0  0  0  0  0  0  0  0  0  0  0
   -2.9824   -0.2137    0.3820 H   0  0  0  0  0  0  0  0  0  0  0  0
   -2.3332   -2.7231    0.0535 H   0  0  0  0  0  0  0  0  0  0  0  0
   -2.4452   -2.4896   -1.6918 H   0  0  0  0  0  0  0  0  0  0  0  0
   -0.9555   -3.1220   -0.9747 H   0  0  0  0  0  0  0  0  0  0  0  0
   -1.6386   -1.4366    1.9889 H   0  0  0  0  0  0  0  0  0  0  0  0
   -0.0122   -1.2548    3.8149 H   0  0  0  0  0  0  0  0  0  0  0  0
    2.3245   -0.5885    3.3434 H   0  0  0  0  0  0  0  0  0  0  0  0
    3.0089   -0.1065    1.0141 H   0  0  0  0  0  0  0  0  0  0  0  0
    1.3744   -0.2898   -0.8162 H   0  0  0  0  0  0  0  0  0  0  0  0
  1  5  1  0
  1  6  1  0
  1  7  1  0
  2  9  1  0
  3  4  2  0
  3 10  1  0
  8 12  1  0
 11 12  1  0
 11 20  1  0
 11 21  1  0
 11 22  1  0
 12 13  1  0
 12 14  1  0
 13 23  1  0
 13 24  1  0
 13 25  1  0
 14 15  2  0
 14 19  1  0
 15 16  1  0
 15 26  1  0
 16 17  2  0
 16 27  1  0
 17 18  1  0
 17 28  1  0
 18 19  2  0
 18 29  1  0
 19 30  1  0
M  RAD  3   1   2   2   2   3   2
M  END
>  <reaction>  (10) 
rxn_2012

>  <mol_properties>  (10) 
{"1": {"label": "*1", "atom_type": "Cs"}, "2": {"label": "*0", "atom_type": "CS"}, "7": {"label": "*2", "atom_type": "H0"}, "11": {"label": "*3", "atom_type": "Cs"}, "13": {"label": "*4", "atom_type": "Cd"}}

>  <type>  (10) 
unop_6

>  <geom_source>  (10) 
Heuristics

$$$$

     RDKit          3D

 30 27  0  0  0  0  0  0  0  0999 V2000
    0.6460    0.7938   -2.8844 C   0  0  0  0  0  3  0  0  0  0  0  0
    0.6460    0.7938   -1.3533 C   0  0  0  0  0  1  0  0  0  0  0  0
    0.6460    2.1820   -0.8066 C   0  0  0  0  0  3  0  0  0  0  0  0
   -0.4735    2.8377    0.1409 S   0  0  0  0  0  0  0  0  0  0  0  0
    1.5012    1.3439   -3.2815 H   0  0  0  0  0  0  0  0  0  0  0  0
    0.6969   -0.2271   -3.2630 H   0  0  0  0  0  0  0  0  0  0  0  0
   -0.2635    1.2562   -3.2700 H   0  0  0  0  0  0  0  0  0  0  0  0
   -0.3816    0.1344   -0.8846 H   0  0  0  0  0  0  0  0  0  0  0  0
    1.5564    0.2971   -0.9979 H   0  0  0  0  0  0  0  0  0  0  0  0
    1.5015    2.7872   -1.1169 H   0  0  0  0  0  0  0  0  0  0  0  0
   -2.2391    0.4426    0.4323 C   0  0  0  0  0  0  0  0  0  0  0  0
   -1.4131   -0.5274   -0.4142 C   0  0  0  0  0  0  0  0  0  0  0  0
   -2.2773   -1.6790   -0.9309 C   0  0  0  0  0  0  0  0  0  0  0  0
   -0.2013   -1.0337    0.3398 C   0  0  0  0  0  0  0  0  0  0  0  0
   -0.3403   -1.7812    1.5071 C   0  0  0  0  0  0  0  0  0  0  0  0
    0.7692   -2.2433    2.1952 C   0  0  0  0  0  0  0  0  0  0  0  0
    2.0461   -1.9660    1.7279 C   0  0  0  0  0  0  0  0  0  0  0  0
    2.1996   -1.2239    0.5686 C   0  0  0  0  0  0  0  0  0  0  0  0
    1.0837   -0.7638   -0.1162 C   0  0  0  0  0  0  0  0  0  0  0  0
   -1.6292    1.2766    0.7826 H   0  0  0  0  0  0  0  0  0  0  0  0
   -3.0722    0.8454   -0.1476 H   0  0  0  0  0  0  0  0  0  0  0  0
   -2.6553   -0.0592    1.3089 H   0  0  0  0  0  0  0  0  0  0  0  0
   -2.6949   -2.2571   -0.1033 H   0  0  0  0  0  0  0  0  0  0  0  0
   -3.1107   -1.2976   -1.5245 H   0  0  0  0  0  0  0  0  0  0  0  0
   -1.6947   -2.3593   -1.5537 H   0  0  0  0  0  0  0  0  0  0  0  0
   -1.3303   -2.0071    1.8864 H   0  0  0  0  0  0  0  0  0  0  0  0
    0.6377   -2.8227    3.1007 H   0  0  0  0  0  0  0  0  0  0  0  0
    2.9140   -2.3268    2.2650 H   0  0  0  0  0  0  0  0  0  0  0  0
    3.1908   -1.0007    0.1935 H   0  0  0  0  0  0  0  0  0  0  0  0
    1.2139   -0.1836   -1.0229 H   0  0  0  0  0  0  0  0  0  0  0  0
  1  5  1  0
  1  6  1  0
  1  7  1  0
  2  9  1  0
  3  4  2  0
  3 10  1  0
  8 12  1  0
 11 12  1  0
 11 20  1  0
 11 21  1  0
 11 22  1  0
 12 13  1  0
 12 14  1  0
 13 23  1  0
 13 24  1  0
 13 25  1  0
 14 15  2  0
 14 19  1  0
 15 16  1  0
 15 26  1  0
 16 17  2  0
 16 27  1  0
 17 18  1  0
 17 28  1  0
 18 19  2  0
 18 29  1  0
 19 30  1  0
M  RAD  3   1   2   2   2   3   2
M  END
>  <reaction>  (11) 
rxn_2012

>  <mol_properties>  (11) 
{"1": {"label": "*1", "atom_type": "Cs"}, "2": {"label": "*0", "atom_type": "CS"}, "7": {"label": "*2", "atom_type": "H0"}, "11": {"label": "*3", "atom_type": "Cs"}, "13": {"label": "*4", "atom_type": "Cd"}}

>  <type>  (11) 
unop_7

>  <geom_source>  (11) 
Heuristics

$$$$

     RDKit          3D

 30 29  0  0  0  0  0  0  0  0999 V2000
    2.5408    0.3320   -2.2532 C   0  0  0  0  0  0  0  0  0  0  0  0
    2.5408    0.3320   -0.7221 C   0  0  0  0  0  0  0  0  0  0  0  0
    2.5408    1.7202   -0.1754 C   0  0  0  0  0  0  0  0  0  0  0  0
    1.4213    2.3759    0.7721 S   0  0  0  0  0  0  0  0  0  0  0  0
    3.3960    0.8822   -2.6503 H   0  0  0  0  0  0  0  0  0  0  0  0
    2.5917   -0.6889   -2.6319 H   0  0  0  0  0  0  0  0  0  0  0  0
    1.6313    0.7944   -2.6388 H   0  0  0  0  0  0  0  0  0  0  0  0
    1.5132   -0.3273   -0.2535 H   0  0  0  0  0  0  0  0  0  0  0  0
    3.4512   -0.1647   -0.3667 H   0  0  0  0  0  0  0  0  0  0  0  0
    3.3963    2.3255   -0.4858 H   0  0  0  0  0  0  0  0  0  0  0  0
    0.9048   -2.4497    0.3830 C   0  0  0  0  0  0  0  0  0  0  0  0
    0.4817   -0.9891    0.2169 C   0  0  0  0  0  3  0  0  0  0  0  0
    1.0022   -0.1316    1.3718 C   0  0  0  0  0  0  0  0  0  0  0  0
   -1.0183   -0.8574    0.0559 C   0  0  0  0  0  0  0  0  0  0  0  0
   -1.8887   -1.2531    1.0691 C   0  0  0  0  0  0  0  0  0  0  0  0
   -3.2602   -1.1318    0.9198 C   0  0  0  0  0  0  0  0  0  0  0  0
   -3.7916   -0.6101   -0.2511 C   0  0  0  0  0  0  0  0  0  0  0  0
   -2.9384   -0.2125   -1.2671 C   0  0  0  0  0  0  0  0  0  0  0  0
   -1.5651   -0.3367   -1.1111 C   0  0  0  0  0  0  0  0  0  0  0  0
    0.5538   -3.0583   -0.4517 H   0  0  0  0  0  0  0  0  0  0  0  0
    1.9925   -2.5312    0.4346 H   0  0  0  0  0  0  0  0  0  0  0  0
    0.4950   -2.8741    1.3024 H   0  0  0  0  0  0  0  0  0  0  0  0
    0.5959   -0.4725    2.3268 H   0  0  0  0  0  0  0  0  0  0  0  0
    2.0909   -0.1897    1.4333 H   0  0  0  0  0  0  0  0  0  0  0  0
    0.7206    0.9145    1.2430 H   0  0  0  0  0  0  0  0  0  0  0  0
   -1.4906   -1.6628    1.9904 H   0  0  0  0  0  0  0  0  0  0  0  0
   -3.9182   -1.4458    1.7207 H   0  0  0  0  0  0  0  0  0  0  0  0
   -4.8636   -0.5149   -0.3688 H   0  0  0  0  0  0  0  0  0  0  0  0
   -3.3407    0.1962   -2.1858 H   0  0  0  0  0  0  0  0  0  0  0  0
   -0.9050   -0.0228   -1.9121 H   0  0  0  0  0  0  0  0  0  0  0  0
  1  2  1  0
  1  5  1  0
  1  6  1  0
  1  7  1  0
  2  3  1  0
  2  8  1  0
  2  9  1  0
  3  4  2  0
  3 10  1  0
 11 12  1  0
 11 20  1  0
 11 21  1  0
 11 22  1  0
 12 13  1  0
 12 14  1  0
 13 23  1  0
 13 24  1  0
 13 25  1  0
 14 15  2  0
 14 19  1  0
 15 16  1  0
 15 26  1  0
 16 17  2  0
 16 27  1  0
 17 18  1  0
 17 28  1  0
 18 19  2  0
 18 29  1  0
 19 30  1  0
M  RAD  1  12   2
M  END
>  <reaction>  (12) 
rxn_2012

>  <mol_properties>  (12) 
{"1": {"label": "*1", "atom_type": "Cs"}, "2": {"label": "*0", "atom_type": "CS"}, "7": {"label": "*2", "atom_type": "H0"}, "11": {"label": "*3", "atom_type": "Cs"}, "13": {"label": "*4", "atom_type": "Cd"}}

>  <type>  (12) 
unop_8

>  <geom_source>  (12) 
Heuristics

$$$$

     RDKit          3D

 30 29  0  0  0  0  0  0  0  0999 V2000
    1.6522   -0.2690   -3.1211 C   0  0  0  0  0  0  0  0  0  0  0  0
    1.6522   -0.2690   -1.5900 C   0  0  0  0  0  0  0  0  0  0  0  0
    1.6522    1.1192   -1.0433 C   0  0  0  0  0  0  0  0  0  0  0  0
    0.5326    1.7749   -0.0958 S   0  0  0  0  0  0  0  0  0  0  0  0
    2.5074    0.2812   -3.5182 H   0  0  0  0  0  0  0  0  0  0  0  0
    1.7030   -1.2899   -3.4997 H   0  0  0  0  0  0  0  0  0  0  0  0
    0.7427    0.1934   -3.5067 H   0  0  0  0  0  0  0  0  0  0  0  0
    0.6245   -0.9284   -1.1214 H   0  0  0  0  0  0  0  0  0  0  0  0
    2.5625   -0.7657   -1.2346 H   0  0  0  0  0  0  0  0  0  0  0  0
    2.5076    1.7245   -1.3537 H   0  0  0  0  0  0  0  0  0  0  0  0
   -1.5455   -1.4546   -1.6636 C   0  0  0  0  0  0  0  0  0  0  0  0
   -0.4070   -1.5902   -0.6510 C   0  0  0  0  0  3  0  0  0  0  0  0
   -0.2853   -3.0305   -0.1505 C   0  0  0  0  0  0  0  0  0  0  0  0
   -0.5599   -0.6122    0.4950 C   0  0  0  0  0  0  0  0  0  0  0  0
   -1.6587   -0.6704    1.3495 C   0  0  0  0  0  0  0  0  0  0  0  0
   -1.7967    0.2249    2.3970 C   0  0  0  0  0  0  0  0  0  0  0  0
   -0.8344    1.2012    2.6124 C   0  0  0  0  0  0  0  0  0  0  0  0
    0.2635    1.2712    1.7709 C   0  0  0  0  0  0  0  0  0  0  0  0
    0.3958    0.3710    0.7231 C   0  0  0  0  0  0  0  0  0  0  0  0
   -1.6188   -0.4327   -2.0386 H   0  0  0  0  0  0  0  0  0  0  0  0
   -1.3859   -2.1221   -2.5129 H   0  0  0  0  0  0  0  0  0  0  0  0
   -2.5051   -1.7149   -1.2111 H   0  0  0  0  0  0  0  0  0  0  0  0
   -1.1996   -3.3476    0.3564 H   0  0  0  0  0  0  0  0  0  0  0  0
   -0.1130   -3.7139   -0.9846 H   0  0  0  0  0  0  0  0  0  0  0  0
    0.5408   -3.1336    0.5545 H   0  0  0  0  0  0  0  0  0  0  0  0
   -2.4199   -1.4267    1.1958 H   0  0  0  0  0  0  0  0  0  0  0  0
   -2.6592    0.1612    3.0489 H   0  0  0  0  0  0  0  0  0  0  0  0
   -0.9413    1.9016    3.4310 H   0  0  0  0  0  0  0  0  0  0  0  0
    1.0215    2.0285    1.9284 H   0  0  0  0  0  0  0  0  0  0  0  0
    1.2588    0.4336    0.0696 H   0  0  0  0  0  0  0  0  0  0  0  0
  1  2  1  0
  1  5  1  0
  1  6  1  0
  1  7  1  0
  2  3  1  0
  2  8  1  0
  2  9  1  0
  3  4  2  0
  3 10  1  0
 11 12  1  0
 11 20  1  0
 11 21  1  0
 11 22  1  0
 12 13  1  0
 12 14  1  0
 13 23  1  0
 13 24  1  0
 13 25  1  0
 14 15  2  0
 14 19  1  0
 15 16  1  0
 15 26  1  0
 16 17  2  0
 16 27  1  0
 17 18  1  0
 17 28  1  0
 18 19  2  0
 18 29  1  0
 19 30  1  0
M  RAD  1  12   2
M  END
>  <reaction>  (13) 
rxn_2012

>  <mol_properties>  (13) 
{"1": {"label": "*1", "atom_type": "Cs"}, "2": {"label": "*0", "atom_type": "CS"}, "7": {"label": "*2", "atom_type": "H0"}, "11": {"label": "*3", "atom_type": "Cs"}, "13": {"label": "*4", "atom_type": "Cd"}}

>  <type>  (13) 
unop_9

>  <geom_source>  (13) 
Heuristics

$$$$

     RDKit          3D

 30 29  0  0  0  0  0  0  0  0999 V2000
    2.4975    0.1520   -2.4745 C   0  0  0  0  0  0  0  0  0  0  0  0
    2.4975    0.1520   -0.9435 C   0  0  0  0  0  0  0  0  0  0  0  0
    2.4975    1.5402   -0.3968 C   0  0  0  0  0  0  0  0  0  0  0  0
    1.3780    2.1959    0.5508 S   0  0  0  0  0  0  0  0  0  0  0  0
    3.3527    0.7022   -2.8716 H   0  0  0  0  0  0  0  0  0  0  0  0
    2.5484   -0.8689   -2.8532 H   0  0  0  0  0  0  0  0  0  0  0  0
    1.5880    0.6144   -2.8602 H   0  0  0  0  0  0  0  0  0  0  0  0
    1.4699   -0.5074   -0.4748 H   0  0  0  0  0  0  0  0  0  0  0  0
    3.4079   -0.3447   -0.5880 H   0  0  0  0  0  0  0  0  0  0  0  0
    3.3530    2.1455   -0.7071 H   0  0  0  0  0  0  0  0  0  0  0  0
    0.5362   -2.6064   -0.5189 C   0  0  0  0  0  0  0  0  0  0  0  0
    0.4384   -1.1692   -0.0044 C   0  0  0  0  0  3  0  0  0  0  0  0
    1.2463   -0.9899    1.2821 C   0  0  0  0  0  0  0  0  0  0  0  0
   -1.0019   -0.7379    0.1763 C   0  0  0  0  0  0  0  0  0  0  0  0
   -1.8381   -1.3829    1.0849 C   0  0  0  0  0  0  0  0  0  0  0  0
   -3.1550   -0.9869    1.2487 C   0  0  0  0  0  0  0  0  0  0  0  0
   -3.6650    0.0670    0.5038 C   0  0  0  0  0  0  0  0  0  0  0  0
   -2.8454    0.7177   -0.4035 C   0  0  0  0  0  0  0  0  0  0  0  0
   -1.5266    0.3160   -0.5627 C   0  0  0  0  0  0  0  0  0  0  0  0
   -0.0208   -2.7302   -1.4487 H   0  0  0  0  0  0  0  0  0  0  0  0
    1.5776   -2.8787   -0.7028 H   0  0  0  0  0  0  0  0  0  0  0  0
    0.1313   -3.3119    0.2104 H   0  0  0  0  0  0  0  0  0  0  0  0
    0.8669   -1.6371    2.0762 H   0  0  0  0  0  0  0  0  0  0  0  0
    2.2948   -1.2459    1.1163 H   0  0  0  0  0  0  0  0  0  0  0  0
    1.1961    0.0403    1.6378 H   0  0  0  0  0  0  0  0  0  0  0  0
   -1.4561   -2.2081    1.6750 H   0  0  0  0  0  0  0  0  0  0  0  0
   -3.7871   -1.5027    1.9609 H   0  0  0  0  0  0  0  0  0  0  0  0
   -4.6943    0.3773    0.6310 H   0  0  0  0  0  0  0  0  0  0  0  0
   -3.2314    1.5417   -0.9908 H   0  0  0  0  0  0  0  0  0  0  0  0
   -0.8925    0.8315   -1.2755 H   0  0  0  0  0  0  0  0  0  0  0  0
  1  2  1  0
  1  5  1  0
  1  6  1  0
  1  7  1  0
  2  3  1  0
  2  8  1  0
  2  9  1  0
  3  4  2  0
  3 10  1  0
 11 12  1  0
 11 20  1  0
 11 21  1  0
 11 22  1  0
 12 13  1  0
 12 14  1  0
 13 23  1  0
 13 24  1  0
 13 25  1  0
 14 15  2  0
 14 19  1  0
 15 16  1  0
 15 26  1  0
 16 17  2  0
 16 27  1  0
 17 18  1  0
 17 28  1  0
 18 19  2  0
 18 29  1  0
 19 30  1  0
M  RAD  1  12   2
M  END
>  <reaction>  (14) 
rxn_2012

>  <mol_properties>  (14) 
{"1": {"label": "*1", "atom_type": "Cs"}, "2": {"label": "*0", "atom_type": "CS"}, "7": {"label": "*2", "atom_type": "H0"}, "11": {"label": "*3", "atom_type": "Cs"}, "13": {"label": "*4", "atom_type": "Cd"}}

>  <type>  (14) 
unop_10

>  <geom_source>  (14) 
Heuristics

$$$$

     RDKit          3D

 30 29  0  0  0  0  0  0  0  0999 V2000
    0.8033    1.2453   -2.4491 C   0  0  0  0  0  0  0  0  0  0  0  0
    0.8033    1.2453   -0.9180 C   0  0  0  0  0  0  0  0  0  0  0  0
    0.8033    2.6335   -0.3713 C   0  0  0  0  0  0  0  0  0  0  0  0
   -0.3162    3.2892    0.5762 S   0  0  0  0  0  0  0  0  0  0  0  0
    1.6585    1.7955   -2.8462 H   0  0  0  0  0  0  0  0  0  0  0  0
    0.8542    0.2244   -2.8277 H   0  0  0  0  0  0  0  0  0  0  0  0
   -0.1061    1.7077   -2.8347 H   0  0  0  0  0  0  0  0  0  0  0  0
   -0.2243    0.5859   -0.4493 H   0  0  0  0  0  0  0  0  0  0  0  0
    1.7137    0.7486   -0.5626 H   0  0  0  0  0  0  0  0  0  0  0  0
    1.6588    3.2388   -0.6816 H   0  0  0  0  0  0  0  0  0  0  0  0
   -1.6327    0.5483    1.3658 C   0  0  0  0  0  0  0  0  0  0  0  0
   -1.2558   -0.0759    0.0210 C   0  0  0  0  0  3  0  0  0  0  0  0
   -2.5005   -0.5394   -0.7378 C   0  0  0  0  0  0  0  0  0  0  0  0
   -0.2536   -1.1987    0.1883 C   0  0  0  0  0  0  0  0  0  0  0  0
   -0.5715   -2.3456    0.9125 C   0  0  0  0  0  0  0  0  0  0  0  0
    0.3465   -3.3714    1.0643 C   0  0  0  0  0  0  0  0  0  0  0  0
    1.6068   -3.2708    0.4923 C   0  0  0  0  0  0  0  0  0  0  0  0
    1.9370   -2.1364   -0.2305 C   0  0  0  0  0  0  0  0  0  0  0  0
    1.0125   -1.1121   -0.3788 C   0  0  0  0  0  0  0  0  0  0  0  0
   -0.7478    0.9001    1.8980 H   0  0  0  0  0  0  0  0  0  0  0  0
   -2.3064    1.3954    1.2209 H   0  0  0  0  0  0  0  0  0  0  0  0
   -2.1419   -0.1766    2.0051 H   0  0  0  0  0  0  0  0  0  0  0  0
   -3.0408   -1.3035   -0.1741 H   0  0  0  0  0  0  0  0  0  0  0  0
   -3.1829    0.2967   -0.9038 H   0  0  0  0  0  0  0  0  0  0  0  0
   -2.2349   -0.9641   -1.7070 H   0  0  0  0  0  0  0  0  0  0  0  0
   -1.5515   -2.4408    1.3660 H   0  0  0  0  0  0  0  0  0  0  0  0
    0.0778   -4.2540    1.6315 H   0  0  0  0  0  0  0  0  0  0  0  0
    2.3251   -4.0721    0.6104 H   0  0  0  0  0  0  0  0  0  0  0  0
    2.9173   -2.0458   -0.6817 H   0  0  0  0  0  0  0  0  0  0  0  0
    1.2801   -0.2278   -0.9464 H   0  0  0  0  0  0  0  0  0  0  0  0
  1  2  1  0
  1  5  1  0
  1  6  1  0
  1  7  1  0
  2  3  1  0
  2  8  1  0
  2  9  1  0
  3  4  2  0
  3 10  1  0
 11 12  1  0
 11 20  1  0
 11 21  1  0
 11 22  1  0
 12 13  1  0
 12 14  1  0
 13 23  1  0
 13 24  1  0
 13 25  1  0
 14 15  2  0
 14 19  1  0
 15 16  1  0
 15 26  1  0
 16 17  2  0
 16 27  1  0
 17 18  1  0
 17 28  1  0
 18 19  2  0
 18 29  1  0
 19 30  1  0
M  RAD  1  12   2
M  END
>  <reaction>  (15) 
rxn_2012

>  <mol_properties>  (15) 
{"1": {"label": "*1", "atom_type": "Cs"}, "2": {"label": "*0", "atom_type": "CS"}, "7": {"label": "*2", "atom_type": "H0"}, "11": {"label": "*3", "atom_type": "Cs"}, "13": {"label": "*4", "atom_type": "Cd"}}

>  <type>  (15) 
unop_11

>  <geom_source>  (15) 
Heuristics

$$$$

     RDKit          3D

 30 29  0  0  0  0  0  0  0  0999 V2000
    2.0987   -0.2341   -2.8939 C   0  0  0  0  0  0  0  0  0  0  0  0
    2.0987   -0.2341   -1.3628 C   0  0  0  0  0  0  0  0  0  0  0  0
    2.0987    1.1541   -0.8161 C   0  0  0  0  0  3  0  0  0  0  0  0
    0.9792    1.8098    0.1314 S   0  0  0  0  0  0  0  0  0  0  0  0
    2.9539    0.3161   -3.2910 H   0  0  0  0  0  0  0  0  0  0  0  0
    2.1496   -1.2550   -3.2725 H   0  0  0  0  0  0  0  0  0  0  0  0
    1.1892    0.2283   -3.2795 H   0  0  0  0  0  0  0  0  0  0  0  0
    1.0711   -0.8935   -0.8941 H   0  0  0  0  0  0  0  0  0  0  0  0
    3.0091   -0.7308   -1.0074 H   0  0  0  0  0  0  0  0  0  0  0  0
    2.9542    1.7593   -1.1264 H   0  0  0  0  0  0  0  0  0  0  0  0
   -0.7642   -2.0710   -1.6187 C   0  0  0  0  0  0  0  0  0  0  0  0
    0.0396   -1.5553   -0.4237 C   0  0  0  0  0  3  0  0  0  0  0  0
    0.5772   -2.7138    0.4181 C   0  0  0  0  0  0  0  0  0  0  0  0
   -0.7659   -0.5839    0.4133 C   0  0  0  0  0  0  0  0  0  0  0  0
   -1.9348   -0.9850    1.0565 C   0  0  0  0  0  0  0  0  0  0  0  0
   -2.6700   -0.0950    1.8216 C   0  0  0  0  0  0  0  0  0  0  0  0
   -2.2495    1.2202    1.9597 C   0  0  0  0  0  0  0  0  0  0  0  0
   -1.0893    1.6332    1.3261 C   0  0  0  0  0  0  0  0  0  0  0  0
   -0.3572    0.7364    0.5609 C   0  0  0  0  0  3  0  0  0  0  0  0
   -1.1290   -1.2463   -2.2328 H   0  0  0  0  0  0  0  0  0  0  0  0
   -0.1483   -2.7199   -2.2448 H   0  0  0  0  0  0  0  0  0  0  0  0
   -1.6292   -2.6504   -1.2881 H   0  0  0  0  0  0  0  0  0  0  0  0
   -0.2397   -3.3164    0.8220 H   0  0  0  0  0  0  0  0  0  0  0  0
    1.2065   -3.3693   -0.1875 H   0  0  0  0  0  0  0  0  0  0  0  0
    1.1698   -2.3481    1.2579 H   0  0  0  0  0  0  0  0  0  0  0  0
   -2.2779   -2.0087    0.9593 H   0  0  0  0  0  0  0  0  0  0  0  0
   -3.5758   -0.4287    2.3128 H   0  0  0  0  0  0  0  0  0  0  0  0
   -2.8236    1.9166    2.5576 H   0  0  0  0  0  0  0  0  0  0  0  0
   -0.7505    2.6570    1.4260 H   0  0  0  0  0  0  0  0  0  0  0  0
    0.5499    1.0690    0.0685 H   0  0  0  0  0  0  0  0  0  0  0  0
  1  2  1  0
  1  5  1  0
  1  6  1  0
  1  7  1  0
  2  3  1  0
  2  8  1  0
  2  9  1  0
  3  4  1  0
  3 10  1  0
  4 30  1  0
 11 12  1  0
 11 20  1  0
 11 21  1  0
 11 22  1  0
 12 13  1  0
 12 14  1  0
 13 23  1  0
 13 24  1  0
 13 25  1  0
 14 15  2  0
 14 19  1  0
 15 16  1  0
 15 26  1  0
 16 17  2  0
 16 27  1  0
 17 18  1  0
 17 28  1  0
 18 19  2  0
 18 29  1  0
M  CHG  2  12   1  19  -1
M  RAD  1   3   2
M  END
>  <reaction>  (16) 
rxn_2012

>  <mol_properties>  (16) 
{"1": {"label": "*1", "atom_type": "Cs"}, "2": {"label": "*0", "atom_type": "CS"}, "7": {"label": "*2", "atom_type": "H0"}, "11": {"label": "*3", "atom_type": "Cs"}, "13": {"label": "*4", "atom_type": "Cd"}}

>  <type>  (16) 
unop_12

>  <geom_source>  (16) 
Heuristics

$$$$

     RDKit          3D

 30 29  0  0  0  0  0  0  0  0999 V2000
    2.8189   -0.8681    2.1136 S   0  0  0  0  0  1  0  0  0  0  0  0
    0.1963   -0.8952   -0.1506 C   0  0  0  0  0  0  0  0  0  0  0  0
    0.3283   -1.4769   -1.5620 C   0  0  0  0  0  0  0  0  0  0  0  0
    0.3288   -1.9898    0.9133 C   0  0  0  0  0  0  0  0  0  0  0  0
    2.2898    1.6193   -0.7647 C   0  0  0  0  0  0  0  0  0  0  0  0
   -1.1038   -0.1322    0.0077 C   0  0  0  0  0  0  0  0  0  0  0  0
    2.5497    0.2493   -0.1518 C   0  0  0  0  0  0  0  0  0  0  0  0
   -2.3488   -0.7782   -0.1259 C   0  0  0  0  0  0  0  0  0  0  0  0
   -1.0787    1.2446    0.2930 C   0  0  0  0  0  0  0  0  0  0  0  0
   -3.5385   -0.0592    0.0233 C   0  0  0  0  0  0  0  0  0  0  0  0
   -3.5002    1.3078    0.3066 C   0  0  0  0  0  0  0  0  0  0  0  0
   -2.2718    1.9588    0.4412 C   0  0  0  0  0  0  0  0  0  0  0  0
    2.7330    0.3329    1.3342 C   0  0  0  0  0  0  0  0  0  0  0  0
    1.2108   -0.0750    0.0191 H   0  0  0  0  0  0  0  0  0  0  0  0
    0.2305   -0.6670   -2.3159 H   0  0  0  0  0  0  0  0  0  0  0  0
   -0.4498   -2.2457   -1.7544 H   0  0  0  0  0  0  0  0  0  0  0  0
    1.3277   -1.9454   -1.6848 H   0  0  0  0  0  0  0  0  0  0  0  0
    0.2314   -1.5461    1.9270 H   0  0  0  0  0  0  0  0  0  0  0  0
    1.3282   -2.4685    0.8395 H   0  0  0  0  0  0  0  0  0  0  0  0
   -0.4493   -2.7718    0.7848 H   0  0  0  0  0  0  0  0  0  0  0  0
    2.1381    1.5090   -1.8586 H   0  0  0  0  0  0  0  0  0  0  0  0
    1.3746    2.0675   -0.3229 H   0  0  0  0  0  0  0  0  0  0  0  0
    3.1557    2.2925   -0.5877 H   0  0  0  0  0  0  0  0  0  0  0  0
    3.4477   -0.2072   -0.6226 H   0  0  0  0  0  0  0  0  0  0  0  0
   -2.4009   -1.8367   -0.3452 H   0  0  0  0  0  0  0  0  0  0  0  0
   -4.4909   -0.5627   -0.0808 H   0  0  0  0  0  0  0  0  0  0  0  0
   -0.1381    1.7696    0.4016 H   0  0  0  0  0  0  0  0  0  0  0  0
   -4.4223    1.8627    0.4218 H   0  0  0  0  0  0  0  0  0  0  0  0
   -2.2436    3.0183    0.6608 H   0  0  0  0  0  0  0  0  0  0  0  0
    2.7470    1.2937    1.8404 H   0  0  0  0  0  0  0  0  0  0  0  0
  1 13  1  0
  2  3  1  0
  2  4  1  0
  2  6  1  0
  2 14  1  0
  3 15  1  0
  3 16  1  0
  3 17  1  0
  4 18  1  0
  4 19  1  0
  4 20  1  0
  5  7  1  0
  5 21  1  0
  5 22  1  0
  5 23  1  0
  6  8  2  0
  6  9  1  0
  7 13  2  3
  7 24  1  0
  8 10  1  0
  8 25  1  0
  9 12  2  0
  9 27  1  0
 10 11  2  0
 10 26  1  0
 11 12  1  0
 11 28  1  0
 12 29  1  0
 13 30  1  0
M  RAD  1   1   2
M  END
>  <reaction>  (17) 
rxn_2012

>  <mol_properties>  (17) 
{"1": {"label": "*1", "atom_type": "Cs"}, "2": {"label": "*0", "atom_type": "CS"}, "7": {"label": "*2", "atom_type": "H0"}, "11": {"label": "*3", "atom_type": "Cs"}, "13": {"label": "*4", "atom_type": "Cd"}}

>  <type>  (17) 
unop_13

>  <geom_source>  (17) 
AutoTST

$$$$
