
     RDKit          3D

 19 20  0  0  0  0  0  0  0  0999 V2000
    1.1087   -0.4716   -0.9619 C   0  0  0  0  0  0  0  0  0  0  0  0
    0.9355    1.0407   -0.6470 C   0  0  0  0  0  0  0  0  0  0  0  0
   -0.0085    1.0377    0.5657 C   0  0  0  0  0  0  0  0  0  0  0  0
   -1.4093    0.6181    0.0927 C   0  0  0  0  0  0  0  0  0  0  0  0
   -1.2361   -0.8942   -0.2222 C   0  0  0  0  0  0  0  0  0  0  0  0
    0.2422   -1.1516    0.1099 C   0  0  0  0  0  0  0  0  0  0  0  0
    0.4537   -0.2211    1.3118 C   0  0  0  0  0  0  0  0  0  0  0  0
    2.1524   -0.7752   -0.8653 H   0  0  0  0  0  0  0  0  0  0  0  0
    0.7855   -0.7316   -1.9710 H   0  0  0  0  0  0  0  0  0  0  0  0
    1.8918    1.5001   -0.3916 H   0  0  0  0  0  0  0  0  0  0  0  0
    0.5184    1.6005   -1.4855 H   0  0  0  0  0  0  0  0  0  0  0  0
    0.0038    1.9661    1.1351 H   0  0  0  0  0  0  0  0  0  0  0  0
   -1.7351    1.1944   -0.7746 H   0  0  0  0  0  0  0  0  0  0  0  0
   -2.1465    0.7723    0.8824 H   0  0  0  0  0  0  0  0  0  0  0  0
   -1.4680   -1.1377   -1.2601 H   0  0  0  0  0  0  0  0  0  0  0  0
   -1.8859   -1.5030    0.4087 H   0  0  0  0  0  0  0  0  0  0  0  0
    0.4812   -2.2025    0.2673 H   0  0  0  0  0  0  0  0  0  0  0  0
    1.4942   -0.1701    1.6391 H   0  0  0  0  0  0  0  0  0  0  0  0
   -0.1779   -0.4714    2.1666 H   0  0  0  0  0  0  0  0  0  0  0  0
  1  2  1  0
  1  6  1  0
  1  8  1  0
  1  9  1  0
  2  3  1  0
  2 10  1  0
  2 11  1  0
  3  4  1  0
  3  7  1  0
  3 12  1  0
  4  5  1  0
  4 13  1  0
  4 14  1  0
  5  6  1  0
  5 15  1  0
  5 16  1  0
  6  7  1  0
  6 17  1  0
  7 18  1  0
  7 19  1  0
M  END
>  <reaction>  (1) 
rxn_487

>  <mol_properties>  (1) 
{"0": {"label": "donator", "atom_type": "Cs"}, "7": {"label": "d_hydrogen", "atom_type": "H0"}}

>  <type>  (1) 
r1h

$$$$

     RDKit          3D

 10  9  0  0  0  0  0  0  0  0999 V2000
    1.2930    0.1441    0.3288 C   0  0  0  0  0  0  0  0  0  0  0  0
   -0.0374   -0.1647    0.9100 C   0  0  0  0  0  3  0  0  0  0  0  0
   -1.2664    0.4569    0.3567 C   0  0  0  0  0  0  0  0  0  0  0  0
    1.4384    1.2242    0.2174 H   0  0  0  0  0  0  0  0  0  0  0  0
    2.1077   -0.2477    0.9385 H   0  0  0  0  0  0  0  0  0  0  0  0
    1.4057   -0.2836   -0.6789 H   0  0  0  0  0  0  0  0  0  0  0  0
   -0.1309   -0.9912    1.6030 H   0  0  0  0  0  0  0  0  0  0  0  0
   -1.5005    0.0716   -0.6471 H   0  0  0  0  0  0  0  0  0  0  0  0
   -2.1382    0.2713    0.9849 H   0  0  0  0  0  0  0  0  0  0  0  0
   -1.1497    1.5406    0.2456 H   0  0  0  0  0  0  0  0  0  0  0  0
  1  2  1  0
  1  4  1  0
  1  5  1  0
  1  6  1  0
  2  3  1  0
  2  7  1  0
  3  8  1  0
  3  9  1  0
  3 10  1  0
M  RAD  1   2   2
M  END
>  <reaction>  (2) 
rxn_487

>  <mol_properties>  (2) 
{"1": {"label": "acceptor", "atom_type": "Cs"}}

>  <type>  (2) 
r2

$$$$

     RDKit          3D

 11 10  0  0  0  0  0  0  0  0999 V2000
   -1.2710    0.1907   -0.2084 C   0  0  0  0  0  0  0  0  0  0  0  0
    0.0202   -0.6130   -0.2928 C   0  0  0  0  0  0  0  0  0  0  0  0
    0.1086   -1.6953    0.7756 C   0  0  0  0  0  0  0  0  0  0  0  0
   -1.3607    0.6851    0.7620 H   0  0  0  0  0  0  0  0  0  0  0  0
   -2.1429   -0.4567   -0.3299 H   0  0  0  0  0  0  0  0  0  0  0  0
   -1.3158    0.9602   -0.9809 H   0  0  0  0  0  0  0  0  0  0  0  0
    0.8757    0.0616   -0.1992 H   0  0  0  0  0  0  0  0  0  0  0  0
    0.0997   -1.0712   -1.2825 H   0  0  0  0  0  0  0  0  0  0  0  0
   -0.7198   -2.4022    0.6850 H   0  0  0  0  0  0  0  0  0  0  0  0
    1.0395   -2.2596    0.6989 H   0  0  0  0  0  0  0  0  0  0  0  0
    0.0624   -1.2603    1.7770 H   0  0  0  0  0  0  0  0  0  0  0  0
  1  2  1  0
  1  4  1  0
  1  5  1  0
  1  6  1  0
  2  3  1  0
  2  7  1  0
  2  8  1  0
  3  9  1  0
  3 10  1  0
  3 11  1  0
M  END
>  <reaction>  (3) 
rxn_487

>  <mol_properties>  (3) 
{"1": {"label": "acceptor", "atom_type": "Cs"}, "10": {"label": "a_hydrogen", "atom_type": "H0"}}

>  <type>  (3) 
r2h

$$$$

     RDKit          3D

 29 29  0  0  0  0  0  0  0  0999 V2000
    1.1481   -2.4767    1.5275 C   0  0  0  0  0  0  0  0  0  0  0  0
    1.8686   -1.8351    0.3696 C   0  0  0  0  0  3  0  0  0  0  0  0
    2.9419   -0.8448    0.7406 C   0  0  0  0  0  0  0  0  0  0  0  0
    0.7034   -1.7203    2.1798 H   0  0  0  0  0  0  0  0  0  0  0  0
    0.3483   -3.1364    1.1862 H   0  0  0  0  0  0  0  0  0  0  0  0
    1.8308   -3.0748    2.1421 H   0  0  0  0  0  0  0  0  0  0  0  0
    2.2021   -2.5598   -0.3743 H   0  0  0  0  0  0  0  0  0  0  0  0
    3.7473   -1.3235    1.3104 H   0  0  0  0  0  0  0  0  0  0  0  0
    3.3917   -0.3877   -0.1426 H   0  0  0  0  0  0  0  0  0  0  0  0
    2.5391   -0.0431    1.3659 H   0  0  0  0  0  0  0  0  0  0  0  0
   -0.0431   -0.4515   -0.9288 C   0  0  0  0  0  0  0  0  0  0  0  0
    0.4487    0.9836   -1.1446 C   0  0  0  0  0  0  0  0  0  0  0  0
   -0.5005    1.7982   -0.2484 C   0  0  0  0  0  0  0  0  0  0  0  0
   -1.8971    1.7948   -0.8919 C   0  0  0  0  0  0  0  0  0  0  0  0
   -2.3809    0.3329   -0.6837 C   0  0  0  0  0  0  0  0  0  0  0  0
   -1.1950   -0.3212    0.0537 C   0  0  0  0  0  0  0  0  0  0  0  0
   -0.7073    0.8396    0.9321 C   0  0  0  0  0  0  0  0  0  0  0  0
    0.9278   -1.1510   -0.3114 H   0  0  0  0  0  0  0  0  0  0  0  0
   -0.2443   -1.0400   -1.8230 H   0  0  0  0  0  0  0  0  0  0  0  0
    1.4864    1.1050   -0.8200 H   0  0  0  0  0  0  0  0  0  0  0  0
    0.4001    1.2972   -2.1897 H   0  0  0  0  0  0  0  0  0  0  0  0
   -0.1306    2.7923   -0.0009 H   0  0  0  0  0  0  0  0  0  0  0  0
   -1.8600    2.0801   -1.9443 H   0  0  0  0  0  0  0  0  0  0  0  0
   -2.5565    2.5013   -0.3852 H   0  0  0  0  0  0  0  0  0  0  0  0
   -2.6050   -0.1755   -1.6223 H   0  0  0  0  0  0  0  0  0  0  0  0
   -3.2828    0.2990   -0.0688 H   0  0  0  0  0  0  0  0  0  0  0  0
   -1.4531   -1.2447    0.5705 H   0  0  0  0  0  0  0  0  0  0  0  0
    0.2156    0.6127    1.4689 H   0  0  0  0  0  0  0  0  0  0  0  0
   -1.4594    1.1880    1.6427 H   0  0  0  0  0  0  0  0  0  0  0  0
  1  2  1  0
  1  4  1  0
  1  5  1  0
  1  6  1  0
  2  3  1  0
  2  7  1  0
  3  8  1  0
  3  9  1  0
  3 10  1  0
 11 12  1  0
 11 16  1  0
 11 18  1  0
 11 19  1  0
 12 13  1  0
 12 20  1  0
 12 21  1  0
 13 14  1  0
 13 17  1  0
 13 22  1  0
 14 15  1  0
 14 23  1  0
 14 24  1  0
 15 16  1  0
 15 25  1  0
 15 26  1  0
 16 17  1  0
 16 27  1  0
 17 28  1  0
 17 29  1  0
M  RAD  1   2   2
M  END
>  <reaction>  (4) 
rxn_487

>  <mol_properties>  (4) 
{"0": {"label": "*4", "atom_type": "Cs"}, "1": {"label": "*3", "atom_type": "Cs"}, "10": {"label": "*1", "atom_type": "Cs"}, "11": {"label": "*0", "atom_type": "Cs"}, "17": {"label": "*2", "atom_type": "H0"}}

>  <type>  (4) 
ts

$$$$

     RDKit          3D

 29 29  0  0  0  0  0  0  0  0999 V2000
    2.2783   -0.7032    1.9899 C   0  0  0  0  0  0  0  0  0  0  0  0
    1.4931   -1.6918    1.1375 C   0  0  0  0  0  3  0  0  0  0  0  0
    2.3383   -2.8746    0.6823 C   0  0  0  0  0  0  0  0  0  0  0  0
    3.1292   -0.2994    1.4360 H   0  0  0  0  0  0  0  0  0  0  0  0
    1.6566    0.1361    2.3060 H   0  0  0  0  0  0  0  0  0  0  0  0
    2.6697   -1.1868    2.8883 H   0  0  0  0  0  0  0  0  0  0  0  0
    0.6315   -2.0565    1.7035 H   0  0  0  0  0  0  0  0  0  0  0  0
    2.7315   -3.4266    1.5394 H   0  0  0  0  0  0  0  0  0  0  0  0
    1.7590   -3.5709    0.0735 H   0  0  0  0  0  0  0  0  0  0  0  0
    3.1911   -2.5393    0.0871 H   0  0  0  0  0  0  0  0  0  0  0  0
   -0.6541   -0.5189    0.1954 C   0  0  0  0  0  0  0  0  0  0  0  0
   -0.6541   -0.5189   -1.3590 C   0  0  0  0  0  0  0  0  0  0  0  0
   -0.6541    0.9781   -1.7069 C   0  0  0  0  0  0  0  0  0  0  0  0
   -2.0333    1.5599   -1.3590 C   0  0  0  0  0  0  0  0  0  0  0  0
   -2.0333    1.5599    0.1954 C   0  0  0  0  0  0  0  0  0  0  0  0
   -0.6541    0.9781    0.5433 C   0  0  0  0  0  0  0  0  0  0  0  0
    0.2155    1.5550   -0.5818 C   0  0  0  0  0  0  0  0  0  0  0  0
    0.4184   -1.1047    0.6659 H   0  0  0  0  0  0  0  0  0  0  0  0
   -1.5185   -1.0342    0.6167 H   0  0  0  0  0  0  0  0  0  0  0  0
    0.2397   -1.0071   -1.7511 H   0  0  0  0  0  0  0  0  0  0  0  0
   -1.5185   -1.0342   -1.7803 H   0  0  0  0  0  0  0  0  0  0  0  0
   -0.3296    1.1933   -2.7241 H   0  0  0  0  0  0  0  0  0  0  0  0
   -2.8441    0.9637   -1.7803 H   0  0  0  0  0  0  0  0  0  0  0  0
   -2.1357    2.5731   -1.7511 H   0  0  0  0  0  0  0  0  0  0  0  0
   -2.8441    0.9637    0.6167 H   0  0  0  0  0  0  0  0  0  0  0  0
   -2.1357    2.5731    0.5875 H   0  0  0  0  0  0  0  0  0  0  0  0
   -0.3296    1.1933    1.5605 H   0  0  0  0  0  0  0  0  0  0  0  0
    1.2350    1.1639   -0.5818 H   0  0  0  0  0  0  0  0  0  0  0  0
    0.2515    2.6464   -0.5818 H   0  0  0  0  0  0  0  0  0  0  0  0
  1  2  1  0
  1  4  1  0
  1  5  1  0
  1  6  1  0
  2  3  1  0
  2  7  1  0
  3  8  1  0
  3  9  1  0
  3 10  1  0
 11 12  1  0
 11 16  1  0
 11 18  1  0
 11 19  1  0
 12 13  1  0
 12 20  1  0
 12 21  1  0
 13 14  1  0
 13 17  1  0
 13 22  1  0
 14 15  1  0
 14 23  1  0
 14 24  1  0
 15 16  1  0
 15 25  1  0
 15 26  1  0
 16 17  1  0
 16 27  1  0
 17 28  1  0
 17 29  1  0
M  RAD  1   2   2
M  END
>  <reaction>  (5) 
rxn_487

>  <mol_properties>  (5) 
{"0": {"label": "*4", "atom_type": "Cs"}, "1": {"label": "*3", "atom_type": "Cs"}, "10": {"label": "*1", "atom_type": "Cs"}, "11": {"label": "*0", "atom_type": "Cs"}, "17": {"label": "*2", "atom_type": "H0"}}

>  <type>  (5) 
unop_1

>  <geom_source>  (5) 
Heuristics

$$$$

     RDKit          3D

 29 29  0  0  0  0  0  0  0  0999 V2000
    2.6957   -1.3958    0.2439 C   0  0  0  0  0  0  0  0  0  0  0  0
    1.5438   -1.5849    1.2226 C   0  0  0  0  0  3  0  0  0  0  0  0
    1.5173   -2.9794    1.8351 C   0  0  0  0  0  0  0  0  0  0  0  0
    2.6296   -2.1105   -0.5800 H   0  0  0  0  0  0  0  0  0  0  0  0
    2.6978   -0.3918   -0.1839 H   0  0  0  0  0  0  0  0  0  0  0  0
    3.6577   -1.5510    0.7382 H   0  0  0  0  0  0  0  0  0  0  0  0
    1.6164   -0.8389    2.0189 H   0  0  0  0  0  0  0  0  0  0  0  0
    2.4422   -3.1846    2.3795 H   0  0  0  0  0  0  0  0  0  0  0  0
    0.6861   -3.0955    2.5326 H   0  0  0  0  0  0  0  0  0  0  0  0
    1.4140   -3.7440    1.0613 H   0  0  0  0  0  0  0  0  0  0  0  0
   -0.6034   -0.4120    0.2805 C   0  0  0  0  0  0  0  0  0  0  0  0
   -0.6034   -0.4120   -1.2739 C   0  0  0  0  0  0  0  0  0  0  0  0
   -0.6034    1.0850   -1.6218 C   0  0  0  0  0  0  0  0  0  0  0  0
   -1.9827    1.6668   -1.2739 C   0  0  0  0  0  0  0  0  0  0  0  0
   -1.9827    1.6668    0.2805 C   0  0  0  0  0  0  0  0  0  0  0  0
   -0.6034    1.0850    0.6285 C   0  0  0  0  0  0  0  0  0  0  0  0
    0.2662    1.6619   -0.4967 C   0  0  0  0  0  0  0  0  0  0  0  0
    0.4691   -0.9978    0.7511 H   0  0  0  0  0  0  0  0  0  0  0  0
   -1.4679   -0.9273    0.7019 H   0  0  0  0  0  0  0  0  0  0  0  0
    0.2903   -0.9002   -1.6660 H   0  0  0  0  0  0  0  0  0  0  0  0
   -1.4679   -0.9273   -1.6952 H   0  0  0  0  0  0  0  0  0  0  0  0
   -0.2790    1.3002   -2.6390 H   0  0  0  0  0  0  0  0  0  0  0  0
   -2.7935    1.0706   -1.6952 H   0  0  0  0  0  0  0  0  0  0  0  0
   -2.0851    2.6801   -1.6660 H   0  0  0  0  0  0  0  0  0  0  0  0
   -2.7935    1.0706    0.7019 H   0  0  0  0  0  0  0  0  0  0  0  0
   -2.0851    2.6801    0.6727 H   0  0  0  0  0  0  0  0  0  0  0  0
   -0.2790    1.3002    1.6457 H   0  0  0  0  0  0  0  0  0  0  0  0
    1.2857    1.2708   -0.4967 H   0  0  0  0  0  0  0  0  0  0  0  0
    0.3021    2.7533   -0.4967 H   0  0  0  0  0  0  0  0  0  0  0  0
  1  2  1  0
  1  4  1  0
  1  5  1  0
  1  6  1  0
  2  3  1  0
  2  7  1  0
  3  8  1  0
  3  9  1  0
  3 10  1  0
 11 12  1  0
 11 16  1  0
 11 18  1  0
 11 19  1  0
 12 13  1  0
 12 20  1  0
 12 21  1  0
 13 14  1  0
 13 17  1  0
 13 22  1  0
 14 15  1  0
 14 23  1  0
 14 24  1  0
 15 16  1  0
 15 25  1  0
 15 26  1  0
 16 17  1  0
 16 27  1  0
 17 28  1  0
 17 29  1  0
M  RAD  1   2   2
M  END
>  <reaction>  (6) 
rxn_487

>  <mol_properties>  (6) 
{"0": {"label": "*4", "atom_type": "Cs"}, "1": {"label": "*3", "atom_type": "Cs"}, "10": {"label": "*1", "atom_type": "Cs"}, "11": {"label": "*0", "atom_type": "Cs"}, "17": {"label": "*2", "atom_type": "H0"}}

>  <type>  (6) 
unop_2

>  <geom_source>  (6) 
Heuristics

$$$$

     RDKit          3D

 29 29  0  0  0  0  0  0  0  0999 V2000
    1.8647   -1.1049    2.4627 C   0  0  0  0  0  0  0  0  0  0  0  0
    1.4974   -1.7227    1.1196 C   0  0  0  0  0  3  0  0  0  0  0  0
    2.7129   -2.2339    0.3569 C   0  0  0  0  0  0  0  0  0  0  0  0
    2.5440   -0.2592    2.3310 H   0  0  0  0  0  0  0  0  0  0  0  0
    0.9818   -0.7450    2.9936 H   0  0  0  0  0  0  0  0  0  0  0  0
    2.3666   -1.8338    3.1038 H   0  0  0  0  0  0  0  0  0  0  0  0
    0.7942   -2.5452    1.2774 H   0  0  0  0  0  0  0  0  0  0  0  0
    3.2415   -2.9983    0.9315 H   0  0  0  0  0  0  0  0  0  0  0  0
    2.4298   -2.6724   -0.6015 H   0  0  0  0  0  0  0  0  0  0  0  0
    3.4189   -1.4238    0.1588 H   0  0  0  0  0  0  0  0  0  0  0  0
   -0.6498   -0.5497    0.1775 C   0  0  0  0  0  0  0  0  0  0  0  0
   -0.6498   -0.5497   -1.3769 C   0  0  0  0  0  0  0  0  0  0  0  0
   -0.6498    0.9472   -1.7248 C   0  0  0  0  0  0  0  0  0  0  0  0
   -2.0290    1.5290   -1.3769 C   0  0  0  0  0  0  0  0  0  0  0  0
   -2.0290    1.5290    0.1775 C   0  0  0  0  0  0  0  0  0  0  0  0
   -0.6498    0.9472    0.5255 C   0  0  0  0  0  0  0  0  0  0  0  0
    0.2198    1.5241   -0.5997 C   0  0  0  0  0  0  0  0  0  0  0  0
    0.4227   -1.1356    0.6481 H   0  0  0  0  0  0  0  0  0  0  0  0
   -1.5143   -1.0651    0.5989 H   0  0  0  0  0  0  0  0  0  0  0  0
    0.2439   -1.0380   -1.7690 H   0  0  0  0  0  0  0  0  0  0  0  0
   -1.5143   -1.0651   -1.7982 H   0  0  0  0  0  0  0  0  0  0  0  0
   -0.3254    1.1625   -2.7420 H   0  0  0  0  0  0  0  0  0  0  0  0
   -2.8398    0.9328   -1.7982 H   0  0  0  0  0  0  0  0  0  0  0  0
   -2.1315    2.5423   -1.7690 H   0  0  0  0  0  0  0  0  0  0  0  0
   -2.8398    0.9328    0.5989 H   0  0  0  0  0  0  0  0  0  0  0  0
   -2.1315    2.5423    0.5697 H   0  0  0  0  0  0  0  0  0  0  0  0
   -0.3254    1.1625    1.5427 H   0  0  0  0  0  0  0  0  0  0  0  0
    1.2393    1.1331   -0.5997 H   0  0  0  0  0  0  0  0  0  0  0  0
    0.2557    2.6155   -0.5997 H   0  0  0  0  0  0  0  0  0  0  0  0
  1  2  1  0
  1  4  1  0
  1  5  1  0
  1  6  1  0
  2  3  1  0
  2  7  1  0
  3  8  1  0
  3  9  1  0
  3 10  1  0
 11 12  1  0
 11 16  1  0
 11 18  1  0
 11 19  1  0
 12 13  1  0
 12 20  1  0
 12 21  1  0
 13 14  1  0
 13 17  1  0
 13 22  1  0
 14 15  1  0
 14 23  1  0
 14 24  1  0
 15 16  1  0
 15 25  1  0
 15 26  1  0
 16 17  1  0
 16 27  1  0
 17 28  1  0
 17 29  1  0
M  RAD  1   2   2
M  END
>  <reaction>  (7) 
rxn_487

>  <mol_properties>  (7) 
{"0": {"label": "*4", "atom_type": "Cs"}, "1": {"label": "*3", "atom_type": "Cs"}, "10": {"label": "*1", "atom_type": "Cs"}, "11": {"label": "*0", "atom_type": "Cs"}, "17": {"label": "*2", "atom_type": "H0"}}

>  <type>  (7) 
unop_3

>  <geom_source>  (7) 
Heuristics

$$$$

     RDKit          3D

 29 29  0  0  0  0  0  0  0  0999 V2000
    1.7882   -3.0144    0.6025 C   0  0  0  0  0  0  0  0  0  0  0  0
    1.7429   -1.5721    1.0905 C   0  0  0  0  0  3  0  0  0  0  0  0
    1.0113   -1.4248    2.4185 C   0  0  0  0  0  0  0  0  0  0  0  0
    0.7798   -3.4115    0.4628 H   0  0  0  0  0  0  0  0  0  0  0  0
    2.3157   -3.0995   -0.3491 H   0  0  0  0  0  0  0  0  0  0  0  0
    2.2975   -3.6557    1.3259 H   0  0  0  0  0  0  0  0  0  0  0  0
    2.7624   -1.1900    1.1922 H   0  0  0  0  0  0  0  0  0  0  0  0
    1.4961   -2.0161    3.1992 H   0  0  0  0  0  0  0  0  0  0  0  0
    0.9893   -0.3857    2.7513 H   0  0  0  0  0  0  0  0  0  0  0  0
   -0.0216   -1.7718    2.3361 H   0  0  0  0  0  0  0  0  0  0  0  0
   -0.4043   -0.3991    0.1484 C   0  0  0  0  0  0  0  0  0  0  0  0
   -0.4043   -0.3991   -1.4060 C   0  0  0  0  0  0  0  0  0  0  0  0
   -0.4043    1.0978   -1.7539 C   0  0  0  0  0  0  0  0  0  0  0  0
   -1.7836    1.6797   -1.4060 C   0  0  0  0  0  0  0  0  0  0  0  0
   -1.7836    1.6797    0.1484 C   0  0  0  0  0  0  0  0  0  0  0  0
   -0.4043    1.0978    0.4964 C   0  0  0  0  0  0  0  0  0  0  0  0
    0.4653    1.6748   -0.6288 C   0  0  0  0  0  0  0  0  0  0  0  0
    0.6682   -0.9850    0.6190 H   0  0  0  0  0  0  0  0  0  0  0  0
   -1.2688   -0.9144    0.5698 H   0  0  0  0  0  0  0  0  0  0  0  0
    0.4894   -0.8874   -1.7981 H   0  0  0  0  0  0  0  0  0  0  0  0
   -1.2688   -0.9144   -1.8273 H   0  0  0  0  0  0  0  0  0  0  0  0
   -0.0799    1.3131   -2.7711 H   0  0  0  0  0  0  0  0  0  0  0  0
   -2.5944    1.0835   -1.8273 H   0  0  0  0  0  0  0  0  0  0  0  0
   -1.8860    2.6929   -1.7981 H   0  0  0  0  0  0  0  0  0  0  0  0
   -2.5944    1.0835    0.5698 H   0  0  0  0  0  0  0  0  0  0  0  0
   -1.8860    2.6929    0.5406 H   0  0  0  0  0  0  0  0  0  0  0  0
   -0.0799    1.3131    1.5136 H   0  0  0  0  0  0  0  0  0  0  0  0
    1.4847    1.2837   -0.6288 H   0  0  0  0  0  0  0  0  0  0  0  0
    0.5012    2.7661   -0.6288 H   0  0  0  0  0  0  0  0  0  0  0  0
  1  2  1  0
  1  4  1  0
  1  5  1  0
  1  6  1  0
  2  3  1  0
  2  7  1  0
  3  8  1  0
  3  9  1  0
  3 10  1  0
 11 12  1  0
 11 16  1  0
 11 18  1  0
 11 19  1  0
 12 13  1  0
 12 20  1  0
 12 21  1  0
 13 14  1  0
 13 17  1  0
 13 22  1  0
 14 15  1  0
 14 23  1  0
 14 24  1  0
 15 16  1  0
 15 25  1  0
 15 26  1  0
 16 17  1  0
 16 27  1  0
 17 28  1  0
 17 29  1  0
M  RAD  1   2   2
M  END
>  <reaction>  (8) 
rxn_487

>  <mol_properties>  (8) 
{"0": {"label": "*4", "atom_type": "Cs"}, "1": {"label": "*3", "atom_type": "Cs"}, "10": {"label": "*1", "atom_type": "Cs"}, "11": {"label": "*0", "atom_type": "Cs"}, "17": {"label": "*2", "atom_type": "H0"}}

>  <type>  (8) 
unop_4

>  <geom_source>  (8) 
Heuristics

$$$$

     RDKit          3D

 29 29  0  0  0  0  0  0  0  0999 V2000
    1.4982   -1.7683    2.6032 C   0  0  0  0  0  0  0  0  0  0  0  0
    1.5359   -1.7889    1.0805 C   0  0  0  0  0  3  0  0  0  0  0  0
    2.7754   -1.1074    0.5150 C   0  0  0  0  0  0  0  0  0  0  0  0
    1.5047   -0.7427    2.9803 H   0  0  0  0  0  0  0  0  0  0  0  0
    0.6039   -2.2605    2.9890 H   0  0  0  0  0  0  0  0  0  0  0  0
    2.3685   -2.2789    3.0224 H   0  0  0  0  0  0  0  0  0  0  0  0
    1.4973   -2.8238    0.7293 H   0  0  0  0  0  0  0  0  0  0  0  0
    3.6860   -1.5972    0.8684 H   0  0  0  0  0  0  0  0  0  0  0  0
    2.7844   -1.1323   -0.5760 H   0  0  0  0  0  0  0  0  0  0  0  0
    2.8222   -0.0610    0.8263 H   0  0  0  0  0  0  0  0  0  0  0  0
   -0.6113   -0.6159    0.1384 C   0  0  0  0  0  0  0  0  0  0  0  0
   -0.6113   -0.6159   -1.4160 C   0  0  0  0  0  0  0  0  0  0  0  0
   -0.6113    0.8810   -1.7640 C   0  0  0  0  0  0  0  0  0  0  0  0
   -1.9905    1.4629   -1.4160 C   0  0  0  0  0  0  0  0  0  0  0  0
   -1.9905    1.4629    0.1384 C   0  0  0  0  0  0  0  0  0  0  0  0
   -0.6113    0.8810    0.4863 C   0  0  0  0  0  0  0  0  0  0  0  0
    0.2583    1.4580   -0.6388 C   0  0  0  0  0  0  0  0  0  0  0  0
    0.4612   -1.2018    0.6089 H   0  0  0  0  0  0  0  0  0  0  0  0
   -1.4758   -1.1312    0.5597 H   0  0  0  0  0  0  0  0  0  0  0  0
    0.2824   -1.1041   -1.8081 H   0  0  0  0  0  0  0  0  0  0  0  0
   -1.4758   -1.1312   -1.8374 H   0  0  0  0  0  0  0  0  0  0  0  0
   -0.2869    1.0963   -2.7812 H   0  0  0  0  0  0  0  0  0  0  0  0
   -2.8013    0.8667   -1.8374 H   0  0  0  0  0  0  0  0  0  0  0  0
   -2.0930    2.4761   -1.8081 H   0  0  0  0  0  0  0  0  0  0  0  0
   -2.8013    0.8667    0.5597 H   0  0  0  0  0  0  0  0  0  0  0  0
   -2.0930    2.4761    0.5305 H   0  0  0  0  0  0  0  0  0  0  0  0
   -0.2869    1.0963    1.5035 H   0  0  0  0  0  0  0  0  0  0  0  0
    1.2778    1.0669   -0.6388 H   0  0  0  0  0  0  0  0  0  0  0  0
    0.2942    2.5493   -0.6388 H   0  0  0  0  0  0  0  0  0  0  0  0
  1  2  1  0
  1  4  1  0
  1  5  1  0
  1  6  1  0
  2  3  1  0
  2  7  1  0
  3  8  1  0
  3  9  1  0
  3 10  1  0
 11 12  1  0
 11 16  1  0
 11 18  1  0
 11 19  1  0
 12 13  1  0
 12 20  1  0
 12 21  1  0
 13 14  1  0
 13 17  1  0
 13 22  1  0
 14 15  1  0
 14 23  1  0
 14 24  1  0
 15 16  1  0
 15 25  1  0
 15 26  1  0
 16 17  1  0
 16 27  1  0
 17 28  1  0
 17 29  1  0
M  RAD  1   2   2
M  END
>  <reaction>  (9) 
rxn_487

>  <mol_properties>  (9) 
{"0": {"label": "*4", "atom_type": "Cs"}, "1": {"label": "*3", "atom_type": "Cs"}, "10": {"label": "*1", "atom_type": "Cs"}, "11": {"label": "*0", "atom_type": "Cs"}, "17": {"label": "*2", "atom_type": "H0"}}

>  <type>  (9) 
unop_5

>  <geom_source>  (9) 
Heuristics

$$$$

     RDKit          3D

 29 29  0  0  0  0  0  0  0  0999 V2000
    1.4782   -3.1310    1.2157 C   0  0  0  0  0  0  0  0  0  0  0  0
    1.7516   -1.6436    1.0335 C   0  0  0  0  0  3  0  0  0  0  0  0
    1.2583   -0.8082    2.2079 C   0  0  0  0  0  0  0  0  0  0  0  0
    0.4075   -3.3213    1.3217 H   0  0  0  0  0  0  0  0  0  0  0  0
    1.8384   -3.7122    0.3651 H   0  0  0  0  0  0  0  0  0  0  0  0
    1.9709   -3.5116    2.1137 H   0  0  0  0  0  0  0  0  0  0  0  0
    2.8251   -1.4845    0.8991 H   0  0  0  0  0  0  0  0  0  0  0  0
    1.7441   -1.1156    3.1373 H   0  0  0  0  0  0  0  0  0  0  0  0
    1.4630    0.2534    2.0591 H   0  0  0  0  0  0  0  0  0  0  0  0
    0.1806   -0.9253    2.3453 H   0  0  0  0  0  0  0  0  0  0  0  0
   -0.3956   -0.4706    0.0914 C   0  0  0  0  0  0  0  0  0  0  0  0
   -0.3956   -0.4706   -1.4630 C   0  0  0  0  0  0  0  0  0  0  0  0
   -0.3956    1.0263   -1.8109 C   0  0  0  0  0  0  0  0  0  0  0  0
   -1.7748    1.6082   -1.4630 C   0  0  0  0  0  0  0  0  0  0  0  0
   -1.7748    1.6082    0.0914 C   0  0  0  0  0  0  0  0  0  0  0  0
   -0.3956    1.0263    0.4393 C   0  0  0  0  0  0  0  0  0  0  0  0
    0.4740    1.6033   -0.6858 C   0  0  0  0  0  0  0  0  0  0  0  0
    0.6769   -1.0565    0.5619 H   0  0  0  0  0  0  0  0  0  0  0  0
   -1.2600   -0.9859    0.5127 H   0  0  0  0  0  0  0  0  0  0  0  0
    0.4982   -0.9588   -1.8551 H   0  0  0  0  0  0  0  0  0  0  0  0
   -1.2600   -0.9859   -1.8843 H   0  0  0  0  0  0  0  0  0  0  0  0
   -0.0711    1.2416   -2.8281 H   0  0  0  0  0  0  0  0  0  0  0  0
   -2.5856    1.0120   -1.8843 H   0  0  0  0  0  0  0  0  0  0  0  0
   -1.8773    2.6214   -1.8551 H   0  0  0  0  0  0  0  0  0  0  0  0
   -2.5856    1.0120    0.5127 H   0  0  0  0  0  0  0  0  0  0  0  0
   -1.8773    2.6214    0.4835 H   0  0  0  0  0  0  0  0  0  0  0  0
   -0.0711    1.2416    1.4565 H   0  0  0  0  0  0  0  0  0  0  0  0
    1.4935    1.2122   -0.6858 H   0  0  0  0  0  0  0  0  0  0  0  0
    0.5099    2.6946   -0.6858 H   0  0  0  0  0  0  0  0  0  0  0  0
  1  2  1  0
  1  4  1  0
  1  5  1  0
  1  6  1  0
  2  3  1  0
  2  7  1  0
  3  8  1  0
  3  9  1  0
  3 10  1  0
 11 12  1  0
 11 16  1  0
 11 18  1  0
 11 19  1  0
 12 13  1  0
 12 20  1  0
 12 21  1  0
 13 14  1  0
 13 17  1  0
 13 22  1  0
 14 15  1  0
 14 23  1  0
 14 24  1  0
 15 16  1  0
 15 25  1  0
 15 26  1  0
 16 17  1  0
 16 27  1  0
 17 28  1  0
 17 29  1  0
M  RAD  1   2   2
M  END
>  <reaction>  (10) 
rxn_487

>  <mol_properties>  (10) 
{"0": {"label": "*4", "atom_type": "Cs"}, "1": {"label": "*3", "atom_type": "Cs"}, "10": {"label": "*1", "atom_type": "Cs"}, "11": {"label": "*0", "atom_type": "Cs"}, "17": {"label": "*2", "atom_type": "H0"}}

>  <type>  (10) 
unop_6

>  <geom_source>  (10) 
Heuristics

$$$$

     RDKit          3D

 29 29  0  0  0  0  0  0  0  0999 V2000
    1.3098   -2.9239    1.8577 C   0  0  0  0  0  0  0  0  0  0  0  0
    1.7174   -1.7290    1.0053 C   0  0  0  0  0  3  0  0  0  0  0  0
    1.6636   -0.4146    1.7734 C   0  0  0  0  0  0  0  0  0  0  0  0
    0.2892   -2.8078    2.2305 H   0  0  0  0  0  0  0  0  0  0  0  0
    1.3546   -3.8552    1.2907 H   0  0  0  0  0  0  0  0  0  0  0  0
    1.9671   -3.0278    2.7244 H   0  0  0  0  0  0  0  0  0  0  0  0
    2.7291   -1.8846    0.6205 H   0  0  0  0  0  0  0  0  0  0  0  0
    2.3320   -0.4395    2.6375 H   0  0  0  0  0  0  0  0  0  0  0  0
    1.9586    0.4287    1.1467 H   0  0  0  0  0  0  0  0  0  0  0  0
    0.6541   -0.2195    2.1435 H   0  0  0  0  0  0  0  0  0  0  0  0
   -0.4298   -0.5561    0.0632 C   0  0  0  0  0  0  0  0  0  0  0  0
   -0.4298   -0.5561   -1.4912 C   0  0  0  0  0  0  0  0  0  0  0  0
   -0.4298    0.9409   -1.8391 C   0  0  0  0  0  0  0  0  0  0  0  0
   -1.8091    1.5227   -1.4912 C   0  0  0  0  0  0  0  0  0  0  0  0
   -1.8091    1.5227    0.0632 C   0  0  0  0  0  0  0  0  0  0  0  0
   -0.4298    0.9409    0.4111 C   0  0  0  0  0  0  0  0  0  0  0  0
    0.4398    1.5178   -0.7140 C   0  0  0  0  0  0  0  0  0  0  0  0
    0.6427   -1.1419    0.5338 H   0  0  0  0  0  0  0  0  0  0  0  0
   -1.2943   -1.0714    0.4845 H   0  0  0  0  0  0  0  0  0  0  0  0
    0.4639   -1.0443   -1.8833 H   0  0  0  0  0  0  0  0  0  0  0  0
   -1.2943   -1.0714   -1.9125 H   0  0  0  0  0  0  0  0  0  0  0  0
   -0.1054    1.1561   -2.8563 H   0  0  0  0  0  0  0  0  0  0  0  0
   -2.6199    0.9265   -1.9125 H   0  0  0  0  0  0  0  0  0  0  0  0
   -1.9115    2.5360   -1.8833 H   0  0  0  0  0  0  0  0  0  0  0  0
   -2.6199    0.9265    0.4845 H   0  0  0  0  0  0  0  0  0  0  0  0
   -1.9115    2.5360    0.4553 H   0  0  0  0  0  0  0  0  0  0  0  0
   -0.1054    1.1561    1.4283 H   0  0  0  0  0  0  0  0  0  0  0  0
    1.4593    1.1268   -0.7140 H   0  0  0  0  0  0  0  0  0  0  0  0
    0.4757    2.6092   -0.7140 H   0  0  0  0  0  0  0  0  0  0  0  0
  1  2  1  0
  1  4  1  0
  1  5  1  0
  1  6  1  0
  2  3  1  0
  2  7  1  0
  3  8  1  0
  3  9  1  0
  3 10  1  0
 11 12  1  0
 11 16  1  0
 11 18  1  0
 11 19  1  0
 12 13  1  0
 12 20  1  0
 12 21  1  0
 13 14  1  0
 13 17  1  0
 13 22  1  0
 14 15  1  0
 14 23  1  0
 14 24  1  0
 15 16  1  0
 15 25  1  0
 15 26  1  0
 16 17  1  0
 16 27  1  0
 17 28  1  0
 17 29  1  0
M  RAD  1   2   2
M  END
>  <reaction>  (11) 
rxn_487

>  <mol_properties>  (11) 
{"0": {"label": "*4", "atom_type": "Cs"}, "1": {"label": "*3", "atom_type": "Cs"}, "10": {"label": "*1", "atom_type": "Cs"}, "11": {"label": "*0", "atom_type": "Cs"}, "17": {"label": "*2", "atom_type": "H0"}}

>  <type>  (11) 
unop_7

>  <geom_source>  (11) 
Heuristics

$$$$

     RDKit          3D

 29 29  0  0  0  0  0  0  0  0999 V2000
    2.5952   -0.6388    1.3478 C   0  0  0  0  0  0  0  0  0  0  0  0
    1.4913   -1.6726    1.1656 C   0  0  0  0  0  3  0  0  0  0  0  0
    2.0250   -3.0986    1.1172 C   0  0  0  0  0  0  0  0  0  0  0  0
    3.3154   -0.6877    0.5275 H   0  0  0  0  0  0  0  0  0  0  0  0
    2.1937    0.3754    1.3801 H   0  0  0  0  0  0  0  0  0  0  0  0
    3.1427   -0.8118    2.2775 H   0  0  0  0  0  0  0  0  0  0  0  0
    0.7692   -1.5817    1.9818 H   0  0  0  0  0  0  0  0  0  0  0  0
    2.5545   -3.3490    2.0396 H   0  0  0  0  0  0  0  0  0  0  0  0
    1.2202   -3.8239    0.9864 H   0  0  0  0  0  0  0  0  0  0  0  0
    2.7272   -3.2249    0.2896 H   0  0  0  0  0  0  0  0  0  0  0  0
   -0.6559   -0.4997    0.2235 C   0  0  0  0  0  0  0  0  0  0  0  0
   -0.6559   -0.4997   -1.3309 C   0  0  0  0  0  0  0  0  0  0  0  0
   -0.6559    0.9973   -1.6788 C   0  0  0  0  0  0  0  0  0  0  0  0
   -2.0351    1.5791   -1.3309 C   0  0  0  0  0  0  0  0  0  0  0  0
   -2.0351    1.5791    0.2235 C   0  0  0  0  0  0  0  0  0  0  0  0
   -0.6559    0.9973    0.5715 C   0  0  0  0  0  0  0  0  0  0  0  0
    0.2137    1.5742   -0.5537 C   0  0  0  0  0  0  0  0  0  0  0  0
    0.4166   -1.0855    0.6941 H   0  0  0  0  0  0  0  0  0  0  0  0
   -1.5204   -1.0150    0.6449 H   0  0  0  0  0  0  0  0  0  0  0  0
    0.2378   -0.9879   -1.7230 H   0  0  0  0  0  0  0  0  0  0  0  0
   -1.5204   -1.0150   -1.7522 H   0  0  0  0  0  0  0  0  0  0  0  0
   -0.3315    1.2125   -2.6960 H   0  0  0  0  0  0  0  0  0  0  0  0
   -2.8459    0.9829   -1.7522 H   0  0  0  0  0  0  0  0  0  0  0  0
   -2.1376    2.5924   -1.7230 H   0  0  0  0  0  0  0  0  0  0  0  0
   -2.8459    0.9829    0.6449 H   0  0  0  0  0  0  0  0  0  0  0  0
   -2.1376    2.5924    0.6157 H   0  0  0  0  0  0  0  0  0  0  0  0
   -0.3315    1.2125    1.5887 H   0  0  0  0  0  0  0  0  0  0  0  0
    1.2332    1.1831   -0.5537 H   0  0  0  0  0  0  0  0  0  0  0  0
    0.2496    2.6656   -0.5537 H   0  0  0  0  0  0  0  0  0  0  0  0
  1  2  1  0
  1  4  1  0
  1  5  1  0
  1  6  1  0
  2  3  1  0
  2  7  1  0
  3  8  1  0
  3  9  1  0
  3 10  1  0
 11 12  1  0
 11 16  1  0
 11 18  1  0
 11 19  1  0
 12 13  1  0
 12 20  1  0
 12 21  1  0
 13 14  1  0
 13 17  1  0
 13 22  1  0
 14 15  1  0
 14 23  1  0
 14 24  1  0
 15 16  1  0
 15 25  1  0
 15 26  1  0
 16 17  1  0
 16 27  1  0
 17 28  1  0
 17 29  1  0
M  RAD  1   2   2
M  END
>  <reaction>  (12) 
rxn_487

>  <mol_properties>  (12) 
{"0": {"label": "*4", "atom_type": "Cs"}, "1": {"label": "*3", "atom_type": "Cs"}, "10": {"label": "*1", "atom_type": "Cs"}, "11": {"label": "*0", "atom_type": "Cs"}, "17": {"label": "*2", "atom_type": "H0"}}

>  <type>  (12) 
unop_8

>  <geom_source>  (12) 
Heuristics

$$$$

     RDKit          3D

 29 29  0  0  0  0  0  0  0  0999 V2000
    2.1566   -2.6042    0.1784 C   0  0  0  0  0  0  0  0  0  0  0  0
    1.6934   -1.5327    1.1571 C   0  0  0  0  0  3  0  0  0  0  0  0
    0.9892   -2.1159    2.3755 C   0  0  0  0  0  0  0  0  0  0  0  0
    1.3108   -3.1919   -0.1865 H   0  0  0  0  0  0  0  0  0  0  0  0
    2.6582   -2.1674   -0.6868 H   0  0  0  0  0  0  0  0  0  0  0  0
    2.8554   -3.2946    0.6570 H   0  0  0  0  0  0  0  0  0  0  0  0
    2.5533   -0.9406    1.4825 H   0  0  0  0  0  0  0  0  0  0  0  0
    1.6511   -2.7910    2.9234 H   0  0  0  0  0  0  0  0  0  0  0  0
    0.6651   -1.3338    3.0642 H   0  0  0  0  0  0  0  0  0  0  0  0
    0.1066   -2.6883    2.0798 H   0  0  0  0  0  0  0  0  0  0  0  0
   -0.4538   -0.3598    0.2150 C   0  0  0  0  0  0  0  0  0  0  0  0
   -0.4538   -0.3598   -1.3393 C   0  0  0  0  0  0  0  0  0  0  0  0
   -0.4538    1.1372   -1.6873 C   0  0  0  0  0  0  0  0  0  0  0  0
   -1.8330    1.7190   -1.3393 C   0  0  0  0  0  0  0  0  0  0  0  0
   -1.8330    1.7190    0.2150 C   0  0  0  0  0  0  0  0  0  0  0  0
   -0.4538    1.1372    0.5630 C   0  0  0  0  0  0  0  0  0  0  0  0
    0.4158    1.7141   -0.5621 C   0  0  0  0  0  0  0  0  0  0  0  0
    0.6187   -0.9456    0.6856 H   0  0  0  0  0  0  0  0  0  0  0  0
   -1.3183   -0.8751    0.6364 H   0  0  0  0  0  0  0  0  0  0  0  0
    0.4400   -0.8480   -1.7315 H   0  0  0  0  0  0  0  0  0  0  0  0
   -1.3183   -0.8751   -1.7607 H   0  0  0  0  0  0  0  0  0  0  0  0
   -0.1293    1.3524   -2.7045 H   0  0  0  0  0  0  0  0  0  0  0  0
   -2.6438    1.1228   -1.7607 H   0  0  0  0  0  0  0  0  0  0  0  0
   -1.9355    2.7323   -1.7315 H   0  0  0  0  0  0  0  0  0  0  0  0
   -2.6438    1.1228    0.6364 H   0  0  0  0  0  0  0  0  0  0  0  0
   -1.9355    2.7323    0.6072 H   0  0  0  0  0  0  0  0  0  0  0  0
   -0.1293    1.3524    1.5802 H   0  0  0  0  0  0  0  0  0  0  0  0
    1.4353    1.3230   -0.5621 H   0  0  0  0  0  0  0  0  0  0  0  0
    0.4517    2.8055   -0.5621 H   0  0  0  0  0  0  0  0  0  0  0  0
  1  2  1  0
  1  4  1  0
  1  5  1  0
  1  6  1  0
  2  3  1  0
  2  7  1  0
  3  8  1  0
  3  9  1  0
  3 10  1  0
 11 12  1  0
 11 16  1  0
 11 18  1  0
 11 19  1  0
 12 13  1  0
 12 20  1  0
 12 21  1  0
 13 14  1  0
 13 17  1  0
 13 22  1  0
 14 15  1  0
 14 23  1  0
 14 24  1  0
 15 16  1  0
 15 25  1  0
 15 26  1  0
 16 17  1  0
 16 27  1  0
 17 28  1  0
 17 29  1  0
M  RAD  1   2   2
M  END
>  <reaction>  (13) 
rxn_487

>  <mol_properties>  (13) 
{"0": {"label": "*4", "atom_type": "Cs"}, "1": {"label": "*3", "atom_type": "Cs"}, "10": {"label": "*1", "atom_type": "Cs"}, "11": {"label": "*0", "atom_type": "Cs"}, "17": {"label": "*2", "atom_type": "H0"}}

>  <type>  (13) 
unop_9

>  <geom_source>  (13) 
Heuristics

$$$$

     RDKit          3D

 29 29  0  0  0  0  0  0  0  0999 V2000
    2.7410   -0.8965    0.7128 C   0  0  0  0  0  0  0  0  0  0  0  0
    1.5028   -1.6377    1.2009 C   0  0  0  0  0  3  0  0  0  0  0  0
    1.7795   -3.1040    1.5074 C   0  0  0  0  0  0  0  0  0  0  0  0
    3.1331   -1.3502   -0.2006 H   0  0  0  0  0  0  0  0  0  0  0  0
    2.5230    0.1511    0.4987 H   0  0  0  0  0  0  0  0  0  0  0  0
    3.5352   -0.9266    1.4627 H   0  0  0  0  0  0  0  0  0  0  0  0
    1.1136   -1.1457    2.0966 H   0  0  0  0  0  0  0  0  0  0  0  0
    2.5434   -3.2036    2.2824 H   0  0  0  0  0  0  0  0  0  0  0  0
    0.8816   -3.6174    1.8553 H   0  0  0  0  0  0  0  0  0  0  0  0
    2.1414   -3.6272    0.6190 H   0  0  0  0  0  0  0  0  0  0  0  0
   -0.6443   -0.4647    0.2588 C   0  0  0  0  0  0  0  0  0  0  0  0
   -0.6443   -0.4647   -1.2956 C   0  0  0  0  0  0  0  0  0  0  0  0
   -0.6443    1.0322   -1.6435 C   0  0  0  0  0  0  0  0  0  0  0  0
   -2.0236    1.6141   -1.2956 C   0  0  0  0  0  0  0  0  0  0  0  0
   -2.0236    1.6141    0.2588 C   0  0  0  0  0  0  0  0  0  0  0  0
   -0.6443    1.0322    0.6067 C   0  0  0  0  0  0  0  0  0  0  0  0
    0.2252    1.6092   -0.5184 C   0  0  0  0  0  0  0  0  0  0  0  0
    0.4281   -1.0506    0.7294 H   0  0  0  0  0  0  0  0  0  0  0  0
   -1.5088   -0.9800    0.6801 H   0  0  0  0  0  0  0  0  0  0  0  0
    0.2494   -0.9529   -1.6877 H   0  0  0  0  0  0  0  0  0  0  0  0
   -1.5088   -0.9800   -1.7169 H   0  0  0  0  0  0  0  0  0  0  0  0
   -0.3199    1.2475   -2.6607 H   0  0  0  0  0  0  0  0  0  0  0  0
   -2.8344    1.0179   -1.7169 H   0  0  0  0  0  0  0  0  0  0  0  0
   -2.1260    2.6273   -1.6877 H   0  0  0  0  0  0  0  0  0  0  0  0
   -2.8344    1.0179    0.6801 H   0  0  0  0  0  0  0  0  0  0  0  0
   -2.1260    2.6273    0.6509 H   0  0  0  0  0  0  0  0  0  0  0  0
   -0.3199    1.2475    1.6239 H   0  0  0  0  0  0  0  0  0  0  0  0
    1.2447    1.2181   -0.5184 H   0  0  0  0  0  0  0  0  0  0  0  0
    0.2612    2.7005   -0.5184 H   0  0  0  0  0  0  0  0  0  0  0  0
  1  2  1  0
  1  4  1  0
  1  5  1  0
  1  6  1  0
  2  3  1  0
  2  7  1  0
  3  8  1  0
  3  9  1  0
  3 10  1  0
 11 12  1  0
 11 16  1  0
 11 18  1  0
 11 19  1  0
 12 13  1  0
 12 20  1  0
 12 21  1  0
 13 14  1  0
 13 17  1  0
 13 22  1  0
 14 15  1  0
 14 23  1  0
 14 24  1  0
 15 16  1  0
 15 25  1  0
 15 26  1  0
 16 17  1  0
 16 27  1  0
 17 28  1  0
 17 29  1  0
M  RAD  1   2   2
M  END
>  <reaction>  (14) 
rxn_487

>  <mol_properties>  (14) 
{"0": {"label": "*4", "atom_type": "Cs"}, "1": {"label": "*3", "atom_type": "Cs"}, "10": {"label": "*1", "atom_type": "Cs"}, "11": {"label": "*0", "atom_type": "Cs"}, "17": {"label": "*2", "atom_type": "H0"}}

>  <type>  (14) 
unop_10

>  <geom_source>  (14) 
Heuristics

$$$$

     RDKit          3D

 29 29  0  0  0  0  0  0  0  0999 V2000
    1.3161   -2.4409    2.3648 C   0  0  0  0  0  0  0  0  0  0  0  0
    1.6375   -1.7981    1.0216 C   0  0  0  0  0  3  0  0  0  0  0  0
    2.2197   -0.3978    1.1657 C   0  0  0  0  0  0  0  0  0  0  0  0
    0.5892   -1.8432    2.9200 H   0  0  0  0  0  0  0  0  0  0  0  0
    0.9005   -3.4424    2.2410 H   0  0  0  0  0  0  0  0  0  0  0  0
    2.2137   -2.5250    2.9823 H   0  0  0  0  0  0  0  0  0  0  0  0
    2.3420   -2.4307    0.4745 H   0  0  0  0  0  0  0  0  0  0  0  0
    3.1457   -0.4175    1.7455 H   0  0  0  0  0  0  0  0  0  0  0  0
    2.4431    0.0457    0.1939 H   0  0  0  0  0  0  0  0  0  0  0  0
    1.5212    0.2644    1.6831 H   0  0  0  0  0  0  0  0  0  0  0  0
   -0.5097   -0.6251    0.0795 C   0  0  0  0  0  0  0  0  0  0  0  0
   -0.5097   -0.6251   -1.4748 C   0  0  0  0  0  0  0  0  0  0  0  0
   -0.5097    0.8718   -1.8228 C   0  0  0  0  0  0  0  0  0  0  0  0
   -1.8889    1.4537   -1.4748 C   0  0  0  0  0  0  0  0  0  0  0  0
   -1.8889    1.4537    0.0795 C   0  0  0  0  0  0  0  0  0  0  0  0
   -0.5097    0.8718    0.4275 C   0  0  0  0  0  0  0  0  0  0  0  0
    0.3599    1.4488   -0.6977 C   0  0  0  0  0  0  0  0  0  0  0  0
    0.5628   -1.2110    0.5501 H   0  0  0  0  0  0  0  0  0  0  0  0
   -1.3742   -1.1404    0.5009 H   0  0  0  0  0  0  0  0  0  0  0  0
    0.3840   -1.1133   -1.8670 H   0  0  0  0  0  0  0  0  0  0  0  0
   -1.3742   -1.1404   -1.8962 H   0  0  0  0  0  0  0  0  0  0  0  0
   -0.1853    1.0871   -2.8400 H   0  0  0  0  0  0  0  0  0  0  0  0
   -2.6998    0.8575   -1.8962 H   0  0  0  0  0  0  0  0  0  0  0  0
   -1.9914    2.4669   -1.8670 H   0  0  0  0  0  0  0  0  0  0  0  0
   -2.6998    0.8575    0.5009 H   0  0  0  0  0  0  0  0  0  0  0  0
   -1.9914    2.4669    0.4717 H   0  0  0  0  0  0  0  0  0  0  0  0
   -0.1853    1.0871    1.4447 H   0  0  0  0  0  0  0  0  0  0  0  0
    1.3794    1.0577   -0.6977 H   0  0  0  0  0  0  0  0  0  0  0  0
    0.3958    2.5401   -0.6977 H   0  0  0  0  0  0  0  0  0  0  0  0
  1  2  1  0
  1  4  1  0
  1  5  1  0
  1  6  1  0
  2  3  1  0
  2  7  1  0
  3  8  1  0
  3  9  1  0
  3 10  1  0
 11 12  1  0
 11 16  1  0
 11 18  1  0
 11 19  1  0
 12 13  1  0
 12 20  1  0
 12 21  1  0
 13 14  1  0
 13 17  1  0
 13 22  1  0
 14 15  1  0
 14 23  1  0
 14 24  1  0
 15 16  1  0
 15 25  1  0
 15 26  1  0
 16 17  1  0
 16 27  1  0
 17 28  1  0
 17 29  1  0
M  RAD  1   2   2
M  END
>  <reaction>  (15) 
rxn_487

>  <mol_properties>  (15) 
{"0": {"label": "*4", "atom_type": "Cs"}, "1": {"label": "*3", "atom_type": "Cs"}, "10": {"label": "*1", "atom_type": "Cs"}, "11": {"label": "*0", "atom_type": "Cs"}, "17": {"label": "*2", "atom_type": "H0"}}

>  <type>  (15) 
unop_11

>  <geom_source>  (15) 
Heuristics

$$$$

     RDKit          3D

 29 29  0  0  0  0  0  0  0  0999 V2000
    2.4844   -2.0134    0.0503 C   0  0  0  0  0  0  0  0  0  0  0  0
    1.6161   -1.5391    1.2086 C   0  0  0  0  0  3  0  0  0  0  0  0
    1.2072   -2.6742    2.1385 C   0  0  0  0  0  0  0  0  0  0  0  0
    1.9570   -2.7545   -0.5553 H   0  0  0  0  0  0  0  0  0  0  0  0
    2.7668   -1.1869   -0.6040 H   0  0  0  0  0  0  0  0  0  0  0  0
    3.4025   -2.4798    0.4157 H   0  0  0  0  0  0  0  0  0  0  0  0
    2.1547   -0.7773    1.7791 H   0  0  0  0  0  0  0  0  0  0  0  0
    2.0850   -3.1614    2.5697 H   0  0  0  0  0  0  0  0  0  0  0  0
    0.5863   -2.3151    2.9610 H   0  0  0  0  0  0  0  0  0  0  0  0
    0.6395   -3.4361    1.5987 H   0  0  0  0  0  0  0  0  0  0  0  0
   -0.5311   -0.3661    0.2665 C   0  0  0  0  0  0  0  0  0  0  0  0
   -0.5311   -0.3661   -1.2879 C   0  0  0  0  0  0  0  0  0  0  0  0
   -0.5311    1.1308   -1.6358 C   0  0  0  0  0  0  0  0  0  0  0  0
   -1.9103    1.7127   -1.2879 C   0  0  0  0  0  0  0  0  0  0  0  0
   -1.9103    1.7127    0.2665 C   0  0  0  0  0  0  0  0  0  0  0  0
   -0.5311    1.1308    0.6144 C   0  0  0  0  0  0  0  0  0  0  0  0
    0.3385    1.7078   -0.5107 C   0  0  0  0  0  0  0  0  0  0  0  0
    0.5414   -0.9520    0.7370 H   0  0  0  0  0  0  0  0  0  0  0  0
   -1.3955   -0.8814    0.6878 H   0  0  0  0  0  0  0  0  0  0  0  0
    0.3627   -0.8544   -1.6800 H   0  0  0  0  0  0  0  0  0  0  0  0
   -1.3955   -0.8814   -1.7092 H   0  0  0  0  0  0  0  0  0  0  0  0
   -0.2066    1.3461   -2.6530 H   0  0  0  0  0  0  0  0  0  0  0  0
   -2.7211    1.1164   -1.7092 H   0  0  0  0  0  0  0  0  0  0  0  0
   -2.0128    2.7259   -1.6800 H   0  0  0  0  0  0  0  0  0  0  0  0
   -2.7211    1.1164    0.6878 H   0  0  0  0  0  0  0  0  0  0  0  0
   -2.0128    2.7259    0.6586 H   0  0  0  0  0  0  0  0  0  0  0  0
   -0.2066    1.3461    1.6316 H   0  0  0  0  0  0  0  0  0  0  0  0
    1.3580    1.3167   -0.5107 H   0  0  0  0  0  0  0  0  0  0  0  0
    0.3744    2.7991   -0.5107 H   0  0  0  0  0  0  0  0  0  0  0  0
  1  2  1  0
  1  4  1  0
  1  5  1  0
  1  6  1  0
  2  3  1  0
  2  7  1  0
  3  8  1  0
  3  9  1  0
  3 10  1  0
 11 12  1  0
 11 16  1  0
 11 18  1  0
 11 19  1  0
 12 13  1  0
 12 20  1  0
 12 21  1  0
 13 14  1  0
 13 17  1  0
 13 22  1  0
 14 15  1  0
 14 23  1  0
 14 24  1  0
 15 16  1  0
 15 25  1  0
 15 26  1  0
 16 17  1  0
 16 27  1  0
 17 28  1  0
 17 29  1  0
M  RAD  1   2   2
M  END
>  <reaction>  (16) 
rxn_487

>  <mol_properties>  (16) 
{"0": {"label": "*4", "atom_type": "Cs"}, "1": {"label": "*3", "atom_type": "Cs"}, "10": {"label": "*1", "atom_type": "Cs"}, "11": {"label": "*0", "atom_type": "Cs"}, "17": {"label": "*2", "atom_type": "H0"}}

>  <type>  (16) 
unop_12

>  <geom_source>  (16) 
Heuristics

$$$$

     RDKit          3D

 29 29  0  0  0  0  0  0  0  0999 V2000
    1.8397   -0.6426   -0.9022 C   0  0  0  0  0  0  0  0  0  0  0  0
    0.7608    0.8904    0.2810 C   0  0  0  0  0  0  0  0  0  0  0  0
    0.9085    0.5161   -1.1740 C   0  0  0  0  0  0  0  0  0  0  0  0
    2.9742    0.0412   -0.1183 C   0  0  0  0  0  0  0  0  0  0  0  0
    2.2252    1.1018    0.7060 C   0  0  0  0  0  0  0  0  0  0  0  0
   -2.0530   -0.1424   -0.2463 C   0  0  0  0  0  0  0  0  0  0  0  0
    1.0090   -1.4904    0.0771 C   0  0  0  0  0  0  0  0  0  0  0  0
   -2.7546    1.2109   -0.2180 C   0  0  0  0  0  0  0  0  0  0  0  0
   -2.7964   -1.1713    0.5984 C   0  0  0  0  0  0  0  0  0  0  0  0
    0.2551   -0.4279    0.8879 C   0  0  0  0  0  3  0  0  0  0  0  0
    2.1771   -1.1913   -1.8073 H   0  0  0  0  0  0  0  0  0  0  0  0
    0.0970    1.7595    0.4734 H   0  0  0  0  0  0  0  0  0  0  0  0
   -1.9910   -0.5031   -1.2957 H   0  0  0  0  0  0  0  0  0  0  0  0
   -0.8213   -0.0025    0.2249 H   0  0  0  0  0  0  0  0  0  0  0  0
    1.3803    1.3205   -1.7851 H   0  0  0  0  0  0  0  0  0  0  0  0
   -0.0532    0.2026   -1.6432 H   0  0  0  0  0  0  0  0  0  0  0  0
    3.5252   -0.6739    0.5311 H   0  0  0  0  0  0  0  0  0  0  0  0
    3.6894    0.5252   -0.8195 H   0  0  0  0  0  0  0  0  0  0  0  0
    2.3693    0.9534    1.7986 H   0  0  0  0  0  0  0  0  0  0  0  0
    2.5636    2.1239    0.4267 H   0  0  0  0  0  0  0  0  0  0  0  0
    1.6449   -2.1341    0.7235 H   0  0  0  0  0  0  0  0  0  0  0  0
    0.2815   -2.1221   -0.4763 H   0  0  0  0  0  0  0  0  0  0  0  0
   -2.1858    1.9344   -0.8388 H   0  0  0  0  0  0  0  0  0  0  0  0
   -2.8028    1.5967    0.8223 H   0  0  0  0  0  0  0  0  0  0  0  0
   -3.7839    1.1216   -0.6265 H   0  0  0  0  0  0  0  0  0  0  0  0
   -2.2572   -2.1407    0.5579 H   0  0  0  0  0  0  0  0  0  0  0  0
   -3.8267   -1.3189    0.2099 H   0  0  0  0  0  0  0  0  0  0  0  0
   -2.8454   -0.8363    1.6562 H   0  0  0  0  0  0  0  0  0  0  0  0
    0.4705   -0.5007    1.9764 H   0  0  0  0  0  0  0  0  0  0  0  0
  1  7  1  0
  1  4  1  0
  1  3  1  0
  1 11  1  0
  2 10  1  0
  2  5  1  0
  2  3  1  0
  2 12  1  0
  3 15  1  0
  3 16  1  0
  4  5  1  0
  4 17  1  0
  4 18  1  0
  5 19  1  0
  5 20  1  0
  6  8  1  0
  6  9  1  0
  6 13  1  0
  6 14  1  0
  7 10  1  0
  7 21  1  0
  7 22  1  0
  8 23  1  0
  8 24  1  0
  8 25  1  0
  9 26  1  0
  9 27  1  0
  9 28  1  0
 10 29  1  0
M  RAD  1  10   2
M  END
>  <reaction>  (17) 
rxn_487

>  <mol_properties>  (17) 
{"0": {"label": "*4", "atom_type": "Cs"}, "1": {"label": "*3", "atom_type": "Cs"}, "10": {"label": "*1", "atom_type": "Cs"}, "11": {"label": "*0", "atom_type": "Cs"}, "17": {"label": "*2", "atom_type": "H0"}}

>  <type>  (17) 
unop_13

>  <geom_source>  (17) 
AutoTST

$$$$
