
     RDKit          3D

  9  8  0  0  0  0  0  0  0  0999 V2000
    1.1303   -0.2933   -0.7510 C   0  0  0  0  0  0  0  0  0  0  0  0
    0.2866    0.4560   -0.0588 C   0  0  0  0  0  0  0  0  0  0  0  0
   -0.9719   -0.0331    0.5823 C   0  0  0  0  0  0  0  0  0  0  0  0
    2.0274    0.1230   -1.1916 H   0  0  0  0  0  0  0  0  0  0  0  0
    0.9532   -1.3530   -0.9023 H   0  0  0  0  0  0  0  0  0  0  0  0
    0.5065    1.5132    0.0659 H   0  0  0  0  0  0  0  0  0  0  0  0
   -0.9526    0.1426    1.6610 H   0  0  0  0  0  0  0  0  0  0  0  0
   -1.1182   -1.1002    0.4106 H   0  0  0  0  0  0  0  0  0  0  0  0
   -1.8412    0.5010    0.1901 H   0  0  0  0  0  0  0  0  0  0  0  0
  1  2  2  3
  1  4  1  0
  1  5  1  0
  2  3  1  0
  2  6  1  0
  3  7  1  0
  3  8  1  0
  3  9  1  0
M  END
>  <reaction>  (1) 
rxn_1009

>  <mol_properties>  (1) 
{"2": {"label": "donator", "atom_type": "Cs"}, "6": {"label": "d_hydrogen", "atom_type": "H0"}}

>  <type>  (1) 
r1h

$$$$

     RDKit          3D

 14 14  0  0  0  0  0  0  0  0999 V2000
    2.3111    0.1295    0.0255 C   0  0  0  0  0  0  0  0  0  0  0  0
    0.9132    0.0511    0.0101 C   0  0  0  0  0  0  0  0  0  0  0  0
    0.2446   -1.1981    0.0389 C   0  0  0  0  0  3  0  0  0  0  0  0
   -1.1306   -1.2689    0.0235 C   0  0  0  0  0  0  0  0  0  0  0  0
   -1.8967   -0.1062   -0.0209 C   0  0  0  0  0  0  0  0  0  0  0  0
   -1.2644    1.1347   -0.0499 C   0  0  0  0  0  0  0  0  0  0  0  0
    0.1101    1.2180   -0.0350 C   0  0  0  0  0  0  0  0  0  0  0  0
    2.9188   -0.7647    0.0599 H   0  0  0  0  0  0  0  0  0  0  0  0
    2.8158    1.0859    0.0034 H   0  0  0  0  0  0  0  0  0  0  0  0
    0.8353   -2.1058    0.0735 H   0  0  0  0  0  0  0  0  0  0  0  0
   -1.6191   -2.2351    0.0461 H   0  0  0  0  0  0  0  0  0  0  0  0
   -2.9772   -0.1668   -0.0328 H   0  0  0  0  0  0  0  0  0  0  0  0
   -1.8572    2.0404   -0.0845 H   0  0  0  0  0  0  0  0  0  0  0  0
    0.5964    2.1860   -0.0577 H   0  0  0  0  0  0  0  0  0  0  0  0
  1  2  2  3
  1  8  1  0
  1  9  1  0
  2  3  1  0
  2  7  1  0
  3  4  1  0
  3 10  1  0
  4  5  2  0
  4 11  1  0
  5  6  1  0
  5 12  1  0
  6  7  2  0
  6 13  1  0
  7 14  1  0
M  RAD  1   3   2
M  END
>  <reaction>  (2) 
rxn_1009

>  <mol_properties>  (2) 
{"0": {"label": "acceptor", "atom_type": "Cs"}}

>  <type>  (2) 
r2

$$$$

     RDKit          3D

 15 15  0  0  0  0  0  0  0  0999 V2000
    2.2031   -0.2111   -0.1693 C   0  0  0  0  0  0  0  0  0  0  0  0
    0.7140   -0.0314   -0.0623 C   0  0  0  0  0  0  0  0  0  0  0  0
   -0.0114    0.5491   -1.0982 C   0  0  0  0  0  0  0  0  0  0  0  0
   -1.3882    0.6886   -1.0150 C   0  0  0  0  0  0  0  0  0  0  0  0
   -2.0661    0.2493    0.1118 C   0  0  0  0  0  0  0  0  0  0  0  0
   -1.3551   -0.3278    1.1528 C   0  0  0  0  0  0  0  0  0  0  0  0
    0.0216   -0.4648    1.0642 C   0  0  0  0  0  0  0  0  0  0  0  0
    2.6776   -0.1836    0.8122 H   0  0  0  0  0  0  0  0  0  0  0  0
    2.4446   -1.1749   -0.6249 H   0  0  0  0  0  0  0  0  0  0  0  0
    2.6532    0.5664   -0.7875 H   0  0  0  0  0  0  0  0  0  0  0  0
    0.5104    0.8989   -1.9819 H   0  0  0  0  0  0  0  0  0  0  0  0
   -1.9328    1.1452   -1.8322 H   0  0  0  0  0  0  0  0  0  0  0  0
   -3.1409    0.3597    0.1800 H   0  0  0  0  0  0  0  0  0  0  0  0
   -1.8736   -0.6702    2.0398 H   0  0  0  0  0  0  0  0  0  0  0  0
    0.5695   -0.9141    1.8849 H   0  0  0  0  0  0  0  0  0  0  0  0
  1  2  1  0
  1  8  1  0
  1  9  1  0
  1 10  1  0
  2  3  2  0
  2  7  1  0
  3  4  1  0
  3 11  1  0
  4  5  2  0
  4 12  1  0
  5  6  1  0
  5 13  1  0
  6  7  2  0
  6 14  1  0
  7 15  1  0
M  END
>  <reaction>  (3) 
rxn_1009

>  <mol_properties>  (3) 
{"0": {"label": "a_hydrogen", "atom_type": "H0"}, "1": {"label": "acceptor", "atom_type": "Cs"}}

>  <type>  (3) 
r2h

$$$$

     RDKit          3D

 23 22  0  0  0  0  0  0  0  0999 V2000
    1.2908   -1.3169   -1.8871 C   0  0  0  0  0  0  0  0  0  0  0  0
    1.7837   -1.7511   -0.7223 C   0  0  0  0  0  0  0  0  0  0  0  0
    2.7464   -1.0308    0.0900 C   0  0  0  0  0  0  0  0  0  0  0  0
    0.5308   -1.8710   -2.4214 H   0  0  0  0  0  0  0  0  0  0  0  0
    1.6313   -0.3884   -2.3316 H   0  0  0  0  0  0  0  0  0  0  0  0
    1.3964   -2.6796   -0.3121 H   0  0  0  0  0  0  0  0  0  0  0  0
    2.0284   -0.2839    0.9332 H   0  0  0  0  0  0  0  0  0  0  0  0
    3.3210   -0.2667   -0.4297 H   0  0  0  0  0  0  0  0  0  0  0  0
    3.3512   -1.6292    0.7664 H   0  0  0  0  0  0  0  0  0  0  0  0
    1.2176    0.5233    1.6866 C   0  0  0  0  0  0  0  0  0  0  0  0
   -0.0159    0.5933    0.9173 C   0  0  0  0  0  0  0  0  0  0  0  0
   -1.0157   -0.3733    1.0728 C   0  0  0  0  0  3  0  0  0  0  0  0
   -2.1476   -0.3623    0.2777 C   0  0  0  0  0  0  0  0  0  0  0  0
   -2.3076    0.6121   -0.6976 C   0  0  0  0  0  0  0  0  0  0  0  0
   -1.3265    1.5807   -0.8638 C   0  0  0  0  0  0  0  0  0  0  0  0
   -0.1958    1.5711   -0.0680 C   0  0  0  0  0  0  0  0  0  0  0  0
    1.1707   -0.0244    2.6241 H   0  0  0  0  0  0  0  0  0  0  0  0
    1.7989    1.4391    1.7517 H   0  0  0  0  0  0  0  0  0  0  0  0
   -0.8947   -1.1414    1.8281 H   0  0  0  0  0  0  0  0  0  0  0  0
   -2.9095   -1.1192    0.4167 H   0  0  0  0  0  0  0  0  0  0  0  0
   -3.1927    0.6200   -1.3207 H   0  0  0  0  0  0  0  0  0  0  0  0
   -1.4457    2.3473   -1.6194 H   0  0  0  0  0  0  0  0  0  0  0  0
    0.5685    2.3272   -0.2074 H   0  0  0  0  0  0  0  0  0  0  0  0
  1  2  2  3
  1  4  1  0
  1  5  1  0
  2  3  1  0
  2  6  1  0
  3  7  1  0
  3  8  1  0
  3  9  1  0
 10 11  2  3
 10 17  1  0
 10 18  1  0
 11 12  1  0
 11 16  1  0
 12 13  1  0
 12 19  1  0
 13 14  2  0
 13 20  1  0
 14 15  1  0
 14 21  1  0
 15 16  2  0
 15 22  1  0
 16 23  1  0
M  RAD  1  12   2
M  END
>  <reaction>  (4) 
rxn_1009

>  <mol_properties>  (4) 
{"1": {"label": "*0", "atom_type": "Cd"}, "2": {"label": "*1", "atom_type": "Cs"}, "6": {"label": "*2", "atom_type": "H0"}, "9": {"label": "*3", "atom_type": "Cd"}, "10": {"label": "*4", "atom_type": "Cd"}}

>  <type>  (4) 
ts

$$$$

     RDKit          3D

 23 22  0  0  0  0  0  0  0  0999 V2000
    1.0159   -1.0206   -4.5820 C   0  0  0  0  0  0  0  0  0  0  0  0
    1.0159   -1.0206   -3.2582 C   0  0  0  0  0  0  0  0  0  0  0  0
    1.0159    0.2016   -2.3977 C   0  0  0  0  0  3  0  0  0  0  0  0
    1.0159   -1.9433   -5.1484 H   0  0  0  0  0  0  0  0  0  0  0  0
    1.0159   -0.0950   -5.1480 H   0  0  0  0  0  0  0  0  0  0  0  0
    1.0159   -1.9732   -2.7347 H   0  0  0  0  0  0  0  0  0  0  0  0
   -0.0374    0.2222   -1.6162 H   0  0  0  0  0  0  0  0  0  0  0  0
    1.0159    1.1121   -2.9983 H   0  0  0  0  0  0  0  0  0  0  0  0
    1.8936    0.2187   -1.7465 H   0  0  0  0  0  0  0  0  0  0  0  0
   -1.0882    0.2426   -0.8366 C   0  0  0  0  0  0  0  0  0  0  0  0
   -0.6928    0.2597    0.6141 C   0  0  0  0  0  0  0  0  0  0  0  0
   -0.9116    1.3866    1.4006 C   0  0  0  0  0  0  0  0  0  0  0  0
   -0.5758    1.3948    2.7457 C   0  0  0  0  0  0  0  0  0  0  0  0
   -0.0111    0.2712    3.3296 C   0  0  0  0  0  0  0  0  0  0  0  0
    0.2156   -0.8572    2.5565 C   0  0  0  0  0  0  0  0  0  0  0  0
   -0.1223   -0.8598    1.2120 C   0  0  0  0  0  0  0  0  0  0  0  0
   -1.0300    1.2393   -1.2754 H   0  0  0  0  0  0  0  0  0  0  0  0
   -2.1165   -0.1089   -0.9530 H   0  0  0  0  0  0  0  0  0  0  0  0
   -1.3494    2.2713    0.9521 H   0  0  0  0  0  0  0  0  0  0  0  0
   -0.7529    2.2835    3.3388 H   0  0  0  0  0  0  0  0  0  0  0  0
    0.2543    0.2763    4.3791 H   0  0  0  0  0  0  0  0  0  0  0  0
    0.6604   -1.7390    3.0009 H   0  0  0  0  0  0  0  0  0  0  0  0
    0.0621   -1.7457    0.6147 H   0  0  0  0  0  0  0  0  0  0  0  0
  1  2  2  3
  1  4  1  0
  1  5  1  0
  2  3  1  0
  2  6  1  0
  3  8  1  0
  3  9  1  0
  7 10  1  0
 10 11  1  0
 10 17  1  0
 10 18  1  0
 11 12  2  0
 11 16  1  0
 12 13  1  0
 12 19  1  0
 13 14  2  0
 13 20  1  0
 14 15  1  0
 14 21  1  0
 15 16  2  0
 15 22  1  0
 16 23  1  0
M  RAD  1   3   2
M  END
>  <reaction>  (5) 
rxn_1009

>  <mol_properties>  (5) 
{"1": {"label": "*0", "atom_type": "Cd"}, "2": {"label": "*1", "atom_type": "Cs"}, "6": {"label": "*2", "atom_type": "H0"}, "9": {"label": "*3", "atom_type": "Cd"}, "10": {"label": "*4", "atom_type": "Cd"}}

>  <type>  (5) 
unop_1

>  <geom_source>  (5) 
Heuristics

$$$$

     RDKit          3D

 23 22  0  0  0  0  0  0  0  0999 V2000
    1.9707    0.5605   -3.3335 C   0  0  0  0  0  0  0  0  0  0  0  0
    1.9707    0.5605   -2.0098 C   0  0  0  0  0  0  0  0  0  0  0  0
    1.9707    1.7826   -1.1493 C   0  0  0  0  0  3  0  0  0  0  0  0
    1.9707   -0.3623   -3.9000 H   0  0  0  0  0  0  0  0  0  0  0  0
    1.9707    1.4861   -3.8995 H   0  0  0  0  0  0  0  0  0  0  0  0
    1.9707   -0.3922   -1.4863 H   0  0  0  0  0  0  0  0  0  0  0  0
    0.9174    1.8032   -0.3678 H   0  0  0  0  0  0  0  0  0  0  0  0
    1.9707    2.6931   -1.7499 H   0  0  0  0  0  0  0  0  0  0  0  0
    2.8484    1.7998   -0.4981 H   0  0  0  0  0  0  0  0  0  0  0  0
   -0.1334    1.8237    0.4118 C   0  0  0  0  0  0  0  0  0  0  0  0
   -0.5852    0.4317    0.7577 C   0  0  0  0  0  0  0  0  0  0  0  0
   -0.8859    0.0843    2.0711 C   0  0  0  0  0  0  0  0  0  0  0  0
   -1.3315   -1.1895    2.3887 C   0  0  0  0  0  0  0  0  0  0  0  0
   -1.4833   -2.1427    1.3934 C   0  0  0  0  0  0  0  0  0  0  0  0
   -1.1839   -1.8108    0.0809 C   0  0  0  0  0  0  0  0  0  0  0  0
   -0.7386   -0.5355   -0.2309 C   0  0  0  0  0  0  0  0  0  0  0  0
    0.4085    2.2821    1.2398 H   0  0  0  0  0  0  0  0  0  0  0  0
   -0.9902    2.4632    0.1848 H   0  0  0  0  0  0  0  0  0  0  0  0
   -0.7669    0.8219    2.8569 H   0  0  0  0  0  0  0  0  0  0  0  0
   -1.5579   -1.4390    3.4179 H   0  0  0  0  0  0  0  0  0  0  0  0
   -1.8286   -3.1388    1.6394 H   0  0  0  0  0  0  0  0  0  0  0  0
   -1.2942   -2.5488   -0.7040 H   0  0  0  0  0  0  0  0  0  0  0  0
   -0.5035   -0.2864   -1.2596 H   0  0  0  0  0  0  0  0  0  0  0  0
  1  2  2  3
  1  4  1  0
  1  5  1  0
  2  3  1  0
  2  6  1  0
  3  8  1  0
  3  9  1  0
  7 10  1  0
 10 11  1  0
 10 17  1  0
 10 18  1  0
 11 12  2  0
 11 16  1  0
 12 13  1  0
 12 19  1  0
 13 14  2  0
 13 20  1  0
 14 15  1  0
 14 21  1  0
 15 16  2  0
 15 22  1  0
 16 23  1  0
M  RAD  1   3   2
M  END
>  <reaction>  (6) 
rxn_1009

>  <mol_properties>  (6) 
{"1": {"label": "*0", "atom_type": "Cd"}, "2": {"label": "*1", "atom_type": "Cs"}, "6": {"label": "*2", "atom_type": "H0"}, "9": {"label": "*3", "atom_type": "Cd"}, "10": {"label": "*4", "atom_type": "Cd"}}

>  <type>  (6) 
unop_2

>  <geom_source>  (6) 
Heuristics

$$$$

     RDKit          3D

 23 22  0  0  0  0  0  0  0  0999 V2000
    1.1323   -1.8018   -4.4036 C   0  0  0  0  0  0  0  0  0  0  0  0
    1.1323   -1.8018   -3.0799 C   0  0  0  0  0  0  0  0  0  0  0  0
    1.1323   -0.5797   -2.2194 C   0  0  0  0  0  3  0  0  0  0  0  0
    1.1323   -2.7246   -4.9701 H   0  0  0  0  0  0  0  0  0  0  0  0
    1.1323   -0.8762   -4.9696 H   0  0  0  0  0  0  0  0  0  0  0  0
    1.1323   -2.7545   -2.5564 H   0  0  0  0  0  0  0  0  0  0  0  0
    0.0790   -0.5591   -1.4379 H   0  0  0  0  0  0  0  0  0  0  0  0
    1.1323    0.3308   -2.8200 H   0  0  0  0  0  0  0  0  0  0  0  0
    2.0100   -0.5625   -1.5681 H   0  0  0  0  0  0  0  0  0  0  0  0
   -0.9718   -0.5386   -0.6583 C   0  0  0  0  0  0  0  0  0  0  0  0
   -0.6819    0.1776    0.6318 C   0  0  0  0  0  0  0  0  0  0  0  0
   -1.4329    1.2832    1.0191 C   0  0  0  0  0  0  0  0  0  0  0  0
   -1.1877    1.9271    2.2220 C   0  0  0  0  0  0  0  0  0  0  0  0
   -0.1813    1.4751    3.0617 C   0  0  0  0  0  0  0  0  0  0  0  0
    0.5769    0.3766    2.6864 C   0  0  0  0  0  0  0  0  0  0  0  0
    0.3273   -0.2635    1.4822 C   0  0  0  0  0  0  0  0  0  0  0  0
   -1.3746    0.1427   -1.4085 H   0  0  0  0  0  0  0  0  0  0  0  0
   -1.7087   -1.3310   -0.5036 H   0  0  0  0  0  0  0  0  0  0  0  0
   -2.2198    1.6462    0.3674 H   0  0  0  0  0  0  0  0  0  0  0  0
   -1.7831    2.7871    2.5028 H   0  0  0  0  0  0  0  0  0  0  0  0
    0.0137    1.9780    4.0003 H   0  0  0  0  0  0  0  0  0  0  0  0
    1.3687    0.0177    3.3322 H   0  0  0  0  0  0  0  0  0  0  0  0
    0.9278   -1.1195    1.1957 H   0  0  0  0  0  0  0  0  0  0  0  0
  1  2  2  3
  1  4  1  0
  1  5  1  0
  2  3  1  0
  2  6  1  0
  3  8  1  0
  3  9  1  0
  7 10  1  0
 10 11  1  0
 10 17  1  0
 10 18  1  0
 11 12  2  0
 11 16  1  0
 12 13  1  0
 12 19  1  0
 13 14  2  0
 13 20  1  0
 14 15  1  0
 14 21  1  0
 15 16  2  0
 15 22  1  0
 16 23  1  0
M  RAD  1   3   2
M  END
>  <reaction>  (7) 
rxn_1009

>  <mol_properties>  (7) 
{"1": {"label": "*0", "atom_type": "Cd"}, "2": {"label": "*1", "atom_type": "Cs"}, "6": {"label": "*2", "atom_type": "H0"}, "9": {"label": "*3", "atom_type": "Cd"}, "10": {"label": "*4", "atom_type": "Cd"}}

>  <type>  (7) 
unop_3

>  <geom_source>  (7) 
Heuristics

$$$$

     RDKit          3D

 23 22  0  0  0  0  0  0  0  0999 V2000
    2.8807   -1.0234   -2.0434 C   0  0  0  0  0  0  0  0  0  0  0  0
    2.8807   -1.0234   -0.7197 C   0  0  0  0  0  0  0  0  0  0  0  0
    2.8807    0.1988    0.1409 C   0  0  0  0  0  3  0  0  0  0  0  0
    2.8807   -1.9461   -2.6099 H   0  0  0  0  0  0  0  0  0  0  0  0
    2.8807   -0.0978   -2.6094 H   0  0  0  0  0  0  0  0  0  0  0  0
    2.8807   -1.9760   -0.1961 H   0  0  0  0  0  0  0  0  0  0  0  0
    1.8274    0.2193    0.9223 H   0  0  0  0  0  0  0  0  0  0  0  0
    2.8807    1.1092   -0.4597 H   0  0  0  0  0  0  0  0  0  0  0  0
    3.7584    0.2159    0.7921 H   0  0  0  0  0  0  0  0  0  0  0  0
    0.7766    0.2398    1.7020 C   0  0  0  0  0  0  0  0  0  0  0  0
   -0.4974    0.2398    0.9031 C   0  0  0  0  0  0  0  0  0  0  0  0
   -1.7355    0.3179    1.5334 C   0  0  0  0  0  0  0  0  0  0  0  0
   -2.9104    0.3485    0.7983 C   0  0  0  0  0  0  0  0  0  0  0  0
   -2.8670    0.2998   -0.5867 C   0  0  0  0  0  0  0  0  0  0  0  0
   -1.6402    0.2184   -1.2274 C   0  0  0  0  0  0  0  0  0  0  0  0
   -0.4684    0.1881   -0.4871 C   0  0  0  0  0  0  0  0  0  0  0  0
    0.6296   -0.2128    2.6832 H   0  0  0  0  0  0  0  0  0  0  0  0
    1.1338    1.2606    1.8604 H   0  0  0  0  0  0  0  0  0  0  0  0
   -1.7796    0.3528    2.6162 H   0  0  0  0  0  0  0  0  0  0  0  0
   -3.8633    0.4074    1.3095 H   0  0  0  0  0  0  0  0  0  0  0  0
   -3.7834    0.3209   -1.1627 H   0  0  0  0  0  0  0  0  0  0  0  0
   -1.5945    0.1750   -2.3086 H   0  0  0  0  0  0  0  0  0  0  0  0
    0.4861    0.1208   -0.9970 H   0  0  0  0  0  0  0  0  0  0  0  0
  1  2  2  3
  1  4  1  0
  1  5  1  0
  2  3  1  0
  2  6  1  0
  3  8  1  0
  3  9  1  0
  7 10  1  0
 10 11  1  0
 10 17  1  0
 10 18  1  0
 11 12  2  0
 11 16  1  0
 12 13  1  0
 12 19  1  0
 13 14  2  0
 13 20  1  0
 14 15  1  0
 14 21  1  0
 15 16  2  0
 15 22  1  0
 16 23  1  0
M  RAD  1   3   2
M  END
>  <reaction>  (8) 
rxn_1009

>  <mol_properties>  (8) 
{"1": {"label": "*0", "atom_type": "Cd"}, "2": {"label": "*1", "atom_type": "Cs"}, "6": {"label": "*2", "atom_type": "H0"}, "9": {"label": "*3", "atom_type": "Cd"}, "10": {"label": "*4", "atom_type": "Cd"}}

>  <type>  (8) 
unop_4

>  <geom_source>  (8) 
Heuristics

$$$$

     RDKit          3D

 23 22  0  0  0  0  0  0  0  0999 V2000
    1.4595   -2.3724   -3.9395 C   0  0  0  0  0  0  0  0  0  0  0  0
    1.4595   -2.3724   -2.6158 C   0  0  0  0  0  0  0  0  0  0  0  0
    1.4595   -1.1502   -1.7552 C   0  0  0  0  0  3  0  0  0  0  0  0
    1.4595   -3.2951   -4.5060 H   0  0  0  0  0  0  0  0  0  0  0  0
    1.4595   -1.4468   -4.5055 H   0  0  0  0  0  0  0  0  0  0  0  0
    1.4595   -3.3250   -2.0922 H   0  0  0  0  0  0  0  0  0  0  0  0
    0.4062   -1.1297   -0.9738 H   0  0  0  0  0  0  0  0  0  0  0  0
    1.4595   -0.2398   -2.3558 H   0  0  0  0  0  0  0  0  0  0  0  0
    2.3372   -1.1331   -1.1040 H   0  0  0  0  0  0  0  0  0  0  0  0
   -0.6446   -1.1092   -0.1941 C   0  0  0  0  0  0  0  0  0  0  0  0
   -0.6557    0.1165    0.6769 C   0  0  0  0  0  0  0  0  0  0  0  0
   -1.8546    0.6693    1.1166 C   0  0  0  0  0  0  0  0  0  0  0  0
   -1.8672    1.7813    1.9443 C   0  0  0  0  0  0  0  0  0  0  0  0
   -0.6751    2.3633    2.3472 C   0  0  0  0  0  0  0  0  0  0  0  0
    0.5267    1.8247    1.9137 C   0  0  0  0  0  0  0  0  0  0  0  0
    0.5333    0.7125    1.0860 C   0  0  0  0  0  0  0  0  0  0  0  0
   -1.5354   -1.1583   -0.8212 H   0  0  0  0  0  0  0  0  0  0  0  0
   -0.6204   -2.0164    0.4150 H   0  0  0  0  0  0  0  0  0  0  0  0
   -2.7921    0.2232    0.8038 H   0  0  0  0  0  0  0  0  0  0  0  0
   -2.8119    2.1964    2.2730 H   0  0  0  0  0  0  0  0  0  0  0  0
   -0.6826    3.2333    2.9915 H   0  0  0  0  0  0  0  0  0  0  0  0
    1.4639    2.2739    2.2183 H   0  0  0  0  0  0  0  0  0  0  0  0
    1.4780    0.3006    0.7492 H   0  0  0  0  0  0  0  0  0  0  0  0
  1  2  2  3
  1  4  1  0
  1  5  1  0
  2  3  1  0
  2  6  1  0
  3  8  1  0
  3  9  1  0
  7 10  1  0
 10 11  1  0
 10 17  1  0
 10 18  1  0
 11 12  2  0
 11 16  1  0
 12 13  1  0
 12 19  1  0
 13 14  2  0
 13 20  1  0
 14 15  1  0
 14 21  1  0
 15 16  2  0
 15 22  1  0
 16 23  1  0
M  RAD  1   3   2
M  END
>  <reaction>  (9) 
rxn_1009

>  <mol_properties>  (9) 
{"1": {"label": "*0", "atom_type": "Cd"}, "2": {"label": "*1", "atom_type": "Cs"}, "6": {"label": "*2", "atom_type": "H0"}, "9": {"label": "*3", "atom_type": "Cd"}, "10": {"label": "*4", "atom_type": "Cd"}}

>  <type>  (9) 
unop_5

>  <geom_source>  (9) 
Heuristics

$$$$

     RDKit          3D

 23 22  0  0  0  0  0  0  0  0999 V2000
    2.7396   -1.8117   -2.2084 C   0  0  0  0  0  0  0  0  0  0  0  0
    2.7396   -1.8117   -0.8846 C   0  0  0  0  0  0  0  0  0  0  0  0
    2.7396   -0.5895   -0.0241 C   0  0  0  0  0  3  0  0  0  0  0  0
    2.7396   -2.7344   -2.7749 H   0  0  0  0  0  0  0  0  0  0  0  0
    2.7396   -0.8861   -2.7744 H   0  0  0  0  0  0  0  0  0  0  0  0
    2.7396   -2.7643   -0.3611 H   0  0  0  0  0  0  0  0  0  0  0  0
    1.6863   -0.5690    0.7573 H   0  0  0  0  0  0  0  0  0  0  0  0
    2.7396    0.3209   -0.6247 H   0  0  0  0  0  0  0  0  0  0  0  0
    3.6173   -0.5724    0.6271 H   0  0  0  0  0  0  0  0  0  0  0  0
    0.6355   -0.5485    1.5370 C   0  0  0  0  0  0  0  0  0  0  0  0
   -0.5204    0.1529    0.8789 C   0  0  0  0  0  0  0  0  0  0  0  0
   -1.6632    0.4795    1.6025 C   0  0  0  0  0  0  0  0  0  0  0  0
   -2.7180    1.1529    1.0060 C   0  0  0  0  0  0  0  0  0  0  0  0
   -2.6482    1.5116   -0.3315 C   0  0  0  0  0  0  0  0  0  0  0  0
   -1.5167    1.1893   -1.0651 C   0  0  0  0  0  0  0  0  0  0  0  0
   -0.4649    0.5158   -0.4633 C   0  0  0  0  0  0  0  0  0  0  0  0
    0.2983   -1.1903    2.3516 H   0  0  0  0  0  0  0  0  0  0  0  0
    1.3385    0.1752    1.9574 H   0  0  0  0  0  0  0  0  0  0  0  0
   -1.7284    0.2000    2.6481 H   0  0  0  0  0  0  0  0  0  0  0  0
   -3.5989    1.3954    1.5875 H   0  0  0  0  0  0  0  0  0  0  0  0
   -3.4718    2.0352   -0.8000 H   0  0  0  0  0  0  0  0  0  0  0  0
   -1.4532    1.4603   -2.1117 H   0  0  0  0  0  0  0  0  0  0  0  0
    0.4143    0.2649   -1.0461 H   0  0  0  0  0  0  0  0  0  0  0  0
  1  2  2  3
  1  4  1  0
  1  5  1  0
  2  3  1  0
  2  6  1  0
  3  8  1  0
  3  9  1  0
  7 10  1  0
 10 11  1  0
 10 17  1  0
 10 18  1  0
 11 12  2  0
 11 16  1  0
 12 13  1  0
 12 19  1  0
 13 14  2  0
 13 20  1  0
 14 15  1  0
 14 21  1  0
 15 16  2  0
 15 22  1  0
 16 23  1  0
M  RAD  1   3   2
M  END
>  <reaction>  (10) 
rxn_1009

>  <mol_properties>  (10) 
{"1": {"label": "*0", "atom_type": "Cd"}, "2": {"label": "*1", "atom_type": "Cs"}, "6": {"label": "*2", "atom_type": "H0"}, "9": {"label": "*3", "atom_type": "Cd"}, "10": {"label": "*4", "atom_type": "Cd"}}

>  <type>  (10) 
unop_6

>  <geom_source>  (10) 
Heuristics

$$$$

     RDKit          3D

 23 22  0  0  0  0  0  0  0  0999 V2000
    2.3852   -2.3852   -2.6706 C   0  0  0  0  0  0  0  0  0  0  0  0
    2.3852   -2.3852   -1.3469 C   0  0  0  0  0  0  0  0  0  0  0  0
    2.3852   -1.1630   -0.4864 C   0  0  0  0  0  3  0  0  0  0  0  0
    2.3852   -3.3079   -3.2371 H   0  0  0  0  0  0  0  0  0  0  0  0
    2.3852   -1.4596   -3.2366 H   0  0  0  0  0  0  0  0  0  0  0  0
    2.3852   -3.3378   -0.8234 H   0  0  0  0  0  0  0  0  0  0  0  0
    1.3320   -1.1425    0.2951 H   0  0  0  0  0  0  0  0  0  0  0  0
    2.3852   -0.2526   -1.0870 H   0  0  0  0  0  0  0  0  0  0  0  0
    3.2629   -1.1459    0.1649 H   0  0  0  0  0  0  0  0  0  0  0  0
    0.2811   -1.1220    1.0748 C   0  0  0  0  0  0  0  0  0  0  0  0
   -0.5646    0.0952    0.8210 C   0  0  0  0  0  0  0  0  0  0  0  0
   -1.6018    0.4365    1.6837 C   0  0  0  0  0  0  0  0  0  0  0  0
   -2.3638    1.5745    1.4691 C   0  0  0  0  0  0  0  0  0  0  0  0
   -2.1014    2.3939    0.3818 C   0  0  0  0  0  0  0  0  0  0  0  0
   -1.0730    2.0636   -0.4876 C   0  0  0  0  0  0  0  0  0  0  0  0
   -0.3142    0.9243   -0.2680 C   0  0  0  0  0  0  0  0  0  0  0  0
   -0.2863   -1.8996    1.5873 H   0  0  0  0  0  0  0  0  0  0  0  0
    1.1396   -0.8722    1.7035 H   0  0  0  0  0  0  0  0  0  0  0  0
   -1.8169   -0.2000    2.5346 H   0  0  0  0  0  0  0  0  0  0  0  0
   -3.1677    1.8202    2.1520 H   0  0  0  0  0  0  0  0  0  0  0  0
   -2.6969    3.2816    0.2108 H   0  0  0  0  0  0  0  0  0  0  0  0
   -0.8621    2.6937   -1.3428 H   0  0  0  0  0  0  0  0  0  0  0  0
    0.4855    0.6723   -0.9554 H   0  0  0  0  0  0  0  0  0  0  0  0
  1  2  2  3
  1  4  1  0
  1  5  1  0
  2  3  1  0
  2  6  1  0
  3  8  1  0
  3  9  1  0
  7 10  1  0
 10 11  1  0
 10 17  1  0
 10 18  1  0
 11 12  2  0
 11 16  1  0
 12 13  1  0
 12 19  1  0
 13 14  2  0
 13 20  1  0
 14 15  1  0
 14 21  1  0
 15 16  2  0
 15 22  1  0
 16 23  1  0
M  RAD  1   3   2
M  END
>  <reaction>  (11) 
rxn_1009

>  <mol_properties>  (11) 
{"1": {"label": "*0", "atom_type": "Cd"}, "2": {"label": "*1", "atom_type": "Cs"}, "6": {"label": "*2", "atom_type": "H0"}, "9": {"label": "*3", "atom_type": "Cd"}, "10": {"label": "*4", "atom_type": "Cd"}}

>  <type>  (11) 
unop_7

>  <geom_source>  (11) 
Heuristics

$$$$

     RDKit          3D

 23 22  0  0  0  0  0  0  0  0999 V2000
    1.1488   -0.2334   -4.4235 C   0  0  0  0  0  0  0  0  0  0  0  0
    1.1488   -0.2334   -3.0998 C   0  0  0  0  0  0  0  0  0  0  0  0
    1.1488    0.9888   -2.2392 C   0  0  0  0  0  3  0  0  0  0  0  0
    1.1488   -1.1561   -4.9900 H   0  0  0  0  0  0  0  0  0  0  0  0
    1.1488    0.6922   -4.9895 H   0  0  0  0  0  0  0  0  0  0  0  0
    1.1488   -1.1860   -2.5762 H   0  0  0  0  0  0  0  0  0  0  0  0
    0.0955    1.0093   -1.4578 H   0  0  0  0  0  0  0  0  0  0  0  0
    1.1488    1.8992   -2.8398 H   0  0  0  0  0  0  0  0  0  0  0  0
    2.0265    1.0059   -1.5880 H   0  0  0  0  0  0  0  0  0  0  0  0
   -0.9553    1.0298   -0.6781 C   0  0  0  0  0  0  0  0  0  0  0  0
   -0.6779    0.3455    0.6319 C   0  0  0  0  0  0  0  0  0  0  0  0
   -0.6194    1.0708    1.8180 C   0  0  0  0  0  0  0  0  0  0  0  0
   -0.3938    0.4387    3.0310 C   0  0  0  0  0  0  0  0  0  0  0  0
   -0.2206   -0.9361    3.0786 C   0  0  0  0  0  0  0  0  0  0  0  0
   -0.2731   -1.6704    1.9038 C   0  0  0  0  0  0  0  0  0  0  0  0
   -0.4990   -1.0330    0.6935 C   0  0  0  0  0  0  0  0  0  0  0  0
   -0.5809    2.0541   -0.6778 H   0  0  0  0  0  0  0  0  0  0  0  0
   -2.0300    1.0722   -0.8724 H   0  0  0  0  0  0  0  0  0  0  0  0
   -0.7501    2.1468    1.7903 H   0  0  0  0  0  0  0  0  0  0  0  0
   -0.3501    1.0229    3.9419 H   0  0  0  0  0  0  0  0  0  0  0  0
   -0.0418   -1.4314    4.0245 H   0  0  0  0  0  0  0  0  0  0  0  0
   -0.1345   -2.7442    1.9284 H   0  0  0  0  0  0  0  0  0  0  0  0
   -0.5348   -1.6153   -0.2204 H   0  0  0  0  0  0  0  0  0  0  0  0
  1  2  2  3
  1  4  1  0
  1  5  1  0
  2  3  1  0
  2  6  1  0
  3  8  1  0
  3  9  1  0
  7 10  1  0
 10 11  1  0
 10 17  1  0
 10 18  1  0
 11 12  2  0
 11 16  1  0
 12 13  1  0
 12 19  1  0
 13 14  2  0
 13 20  1  0
 14 15  1  0
 14 21  1  0
 15 16  2  0
 15 22  1  0
 16 23  1  0
M  RAD  1   3   2
M  END
>  <reaction>  (12) 
rxn_1009

>  <mol_properties>  (12) 
{"1": {"label": "*0", "atom_type": "Cd"}, "2": {"label": "*1", "atom_type": "Cs"}, "6": {"label": "*2", "atom_type": "H0"}, "9": {"label": "*3", "atom_type": "Cd"}, "10": {"label": "*4", "atom_type": "Cd"}}

>  <type>  (12) 
unop_8

>  <geom_source>  (12) 
Heuristics

$$$$

     RDKit          3D

 23 22  0  0  0  0  0  0  0  0999 V2000
    2.7702   -0.2322   -2.2206 C   0  0  0  0  0  0  0  0  0  0  0  0
    2.7702   -0.2322   -0.8969 C   0  0  0  0  0  0  0  0  0  0  0  0
    2.7702    0.9899   -0.0364 C   0  0  0  0  0  3  0  0  0  0  0  0
    2.7702   -1.1550   -2.7871 H   0  0  0  0  0  0  0  0  0  0  0  0
    2.7702    0.6933   -2.7866 H   0  0  0  0  0  0  0  0  0  0  0  0
    2.7702   -1.1849   -0.3734 H   0  0  0  0  0  0  0  0  0  0  0  0
    1.7170    1.0105    0.7451 H   0  0  0  0  0  0  0  0  0  0  0  0
    2.7702    1.9004   -0.6370 H   0  0  0  0  0  0  0  0  0  0  0  0
    3.6479    1.0070    0.6149 H   0  0  0  0  0  0  0  0  0  0  0  0
    0.6662    1.0310    1.5247 C   0  0  0  0  0  0  0  0  0  0  0  0
   -0.5023    0.3319    0.8865 C   0  0  0  0  0  0  0  0  0  0  0  0
   -1.6467    0.0379    1.6214 C   0  0  0  0  0  0  0  0  0  0  0  0
   -2.7372   -0.5794    1.0283 C   0  0  0  0  0  0  0  0  0  0  0  0
   -2.7009   -0.9163   -0.3161 C   0  0  0  0  0  0  0  0  0  0  0  0
   -1.5654   -0.6322   -1.0592 C   0  0  0  0  0  0  0  0  0  0  0  0
   -0.4778   -0.0147   -0.4609 C   0  0  0  0  0  0  0  0  0  0  0  0
    0.7405    0.7912    2.5860 H   0  0  0  0  0  0  0  0  0  0  0  0
    0.5619    2.1156    1.4388 H   0  0  0  0  0  0  0  0  0  0  0  0
   -1.6831    0.2943    2.6743 H   0  0  0  0  0  0  0  0  0  0  0  0
   -3.6171   -0.8008    1.6196 H   0  0  0  0  0  0  0  0  0  0  0  0
   -3.5503   -1.4007   -0.7807 H   0  0  0  0  0  0  0  0  0  0  0  0
   -1.5241   -0.8951   -2.1090 H   0  0  0  0  0  0  0  0  0  0  0  0
    0.4071    0.2002   -1.0493 H   0  0  0  0  0  0  0  0  0  0  0  0
  1  2  2  3
  1  4  1  0
  1  5  1  0
  2  3  1  0
  2  6  1  0
  3  8  1  0
  3  9  1  0
  7 10  1  0
 10 11  1  0
 10 17  1  0
 10 18  1  0
 11 12  2  0
 11 16  1  0
 12 13  1  0
 12 19  1  0
 13 14  2  0
 13 20  1  0
 14 15  1  0
 14 21  1  0
 15 16  2  0
 15 22  1  0
 16 23  1  0
M  RAD  1   3   2
M  END
>  <reaction>  (13) 
rxn_1009

>  <mol_properties>  (13) 
{"1": {"label": "*0", "atom_type": "Cd"}, "2": {"label": "*1", "atom_type": "Cs"}, "6": {"label": "*2", "atom_type": "H0"}, "9": {"label": "*3", "atom_type": "Cd"}, "10": {"label": "*4", "atom_type": "Cd"}}

>  <type>  (13) 
unop_9

>  <geom_source>  (13) 
Heuristics

$$$$

     RDKit          3D

 23 22  0  0  0  0  0  0  0  0999 V2000
    1.4983    0.3465   -3.9671 C   0  0  0  0  0  0  0  0  0  0  0  0
    1.4983    0.3465   -2.6434 C   0  0  0  0  0  0  0  0  0  0  0  0
    1.4983    1.5687   -1.7828 C   0  0  0  0  0  3  0  0  0  0  0  0
    1.4983   -0.5762   -4.5336 H   0  0  0  0  0  0  0  0  0  0  0  0
    1.4983    1.2721   -4.5331 H   0  0  0  0  0  0  0  0  0  0  0  0
    1.4983   -0.6061   -2.1198 H   0  0  0  0  0  0  0  0  0  0  0  0
    0.4451    1.5893   -1.0014 H   0  0  0  0  0  0  0  0  0  0  0  0
    1.4983    2.4792   -2.3834 H   0  0  0  0  0  0  0  0  0  0  0  0
    2.3760    1.5858   -1.1316 H   0  0  0  0  0  0  0  0  0  0  0  0
   -0.6058    1.6097   -0.2217 C   0  0  0  0  0  0  0  0  0  0  0  0
   -0.6385    0.4097    0.6838 C   0  0  0  0  0  0  0  0  0  0  0  0
   -0.6115    0.5581    2.0671 C   0  0  0  0  0  0  0  0  0  0  0  0
   -0.6720   -0.5448    2.9049 C   0  0  0  0  0  0  0  0  0  0  0  0
   -0.7595   -1.8213    2.3709 C   0  0  0  0  0  0  0  0  0  0  0  0
   -0.7838   -1.9836    0.9942 C   0  0  0  0  0  0  0  0  0  0  0  0
   -0.7230   -0.8771    0.1612 C   0  0  0  0  0  0  0  0  0  0  0  0
   -0.0552    2.4344    0.2322 H   0  0  0  0  0  0  0  0  0  0  0  0
   -1.6183    1.9649   -0.4300 H   0  0  0  0  0  0  0  0  0  0  0  0
   -0.5396    1.5522    2.4940 H   0  0  0  0  0  0  0  0  0  0  0  0
   -0.6475   -0.4064    3.9788 H   0  0  0  0  0  0  0  0  0  0  0  0
   -0.8042   -2.6841    3.0233 H   0  0  0  0  0  0  0  0  0  0  0  0
   -0.8471   -2.9763    0.5660 H   0  0  0  0  0  0  0  0  0  0  0  0
   -0.7390   -1.0143   -0.9142 H   0  0  0  0  0  0  0  0  0  0  0  0
  1  2  2  3
  1  4  1  0
  1  5  1  0
  2  3  1  0
  2  6  1  0
  3  8  1  0
  3  9  1  0
  7 10  1  0
 10 11  1  0
 10 17  1  0
 10 18  1  0
 11 12  2  0
 11 16  1  0
 12 13  1  0
 12 19  1  0
 13 14  2  0
 13 20  1  0
 14 15  1  0
 14 21  1  0
 15 16  2  0
 15 22  1  0
 16 23  1  0
M  RAD  1   3   2
M  END
>  <reaction>  (14) 
rxn_1009

>  <mol_properties>  (14) 
{"1": {"label": "*0", "atom_type": "Cd"}, "2": {"label": "*1", "atom_type": "Cs"}, "6": {"label": "*2", "atom_type": "H0"}, "9": {"label": "*3", "atom_type": "Cd"}, "10": {"label": "*4", "atom_type": "Cd"}}

>  <type>  (14) 
unop_10

>  <geom_source>  (14) 
Heuristics

$$$$

     RDKit          3D

 23 22  0  0  0  0  0  0  0  0999 V2000
    1.9148   -2.5892   -3.3056 C   0  0  0  0  0  0  0  0  0  0  0  0
    1.9148   -2.5892   -1.9819 C   0  0  0  0  0  0  0  0  0  0  0  0
    1.9148   -1.3670   -1.1213 C   0  0  0  0  0  3  0  0  0  0  0  0
    1.9148   -3.5119   -3.8721 H   0  0  0  0  0  0  0  0  0  0  0  0
    1.9148   -1.6636   -3.8716 H   0  0  0  0  0  0  0  0  0  0  0  0
    1.9148   -3.5418   -1.4583 H   0  0  0  0  0  0  0  0  0  0  0  0
    0.8616   -1.3465   -0.3399 H   0  0  0  0  0  0  0  0  0  0  0  0
    1.9148   -0.4566   -1.7219 H   0  0  0  0  0  0  0  0  0  0  0  0
    2.7926   -1.3499   -0.4701 H   0  0  0  0  0  0  0  0  0  0  0  0
   -0.1892   -1.3260    0.4398 C   0  0  0  0  0  0  0  0  0  0  0  0
   -0.6160    0.0831    0.7458 C   0  0  0  0  0  0  0  0  0  0  0  0
   -1.7157    0.3352    1.5602 C   0  0  0  0  0  0  0  0  0  0  0  0
   -2.0934    1.6329    1.8686 C   0  0  0  0  0  0  0  0  0  0  0  0
   -1.3751    2.7061    1.3639 C   0  0  0  0  0  0  0  0  0  0  0  0
   -0.2792    2.4691    0.5483 C   0  0  0  0  0  0  0  0  0  0  0  0
    0.0940    1.1692    0.2433 C   0  0  0  0  0  0  0  0  0  0  0  0
   -1.0406   -2.0074    0.4406 H   0  0  0  0  0  0  0  0  0  0  0  0
    0.5213   -1.6861    1.1882 H   0  0  0  0  0  0  0  0  0  0  0  0
   -2.2859   -0.4975    1.9566 H   0  0  0  0  0  0  0  0  0  0  0  0
   -2.9540    1.8063    2.5027 H   0  0  0  0  0  0  0  0  0  0  0  0
   -1.6698    3.7203    1.6013 H   0  0  0  0  0  0  0  0  0  0  0  0
    0.2865    3.2998    0.1447 H   0  0  0  0  0  0  0  0  0  0  0  0
    0.9503    0.9940   -0.3983 H   0  0  0  0  0  0  0  0  0  0  0  0
  1  2  2  3
  1  4  1  0
  1  5  1  0
  2  3  1  0
  2  6  1  0
  3  8  1  0
  3  9  1  0
  7 10  1  0
 10 11  1  0
 10 17  1  0
 10 18  1  0
 11 12  2  0
 11 16  1  0
 12 13  1  0
 12 19  1  0
 13 14  2  0
 13 20  1  0
 14 15  1  0
 14 21  1  0
 15 16  2  0
 15 22  1  0
 16 23  1  0
M  RAD  1   3   2
M  END
>  <reaction>  (15) 
rxn_1009

>  <mol_properties>  (15) 
{"1": {"label": "*0", "atom_type": "Cd"}, "2": {"label": "*1", "atom_type": "Cs"}, "6": {"label": "*2", "atom_type": "H0"}, "9": {"label": "*3", "atom_type": "Cd"}, "10": {"label": "*4", "atom_type": "Cd"}}

>  <type>  (15) 
unop_11

>  <geom_source>  (15) 
Heuristics

$$$$

     RDKit          3D

 23 22  0  0  0  0  0  0  0  0999 V2000
    2.4371    0.3484   -2.6933 C   0  0  0  0  0  0  0  0  0  0  0  0
    2.4371    0.3484   -1.3696 C   0  0  0  0  0  0  0  0  0  0  0  0
    2.4371    1.5706   -0.5090 C   0  0  0  0  0  3  0  0  0  0  0  0
    2.4371   -0.5743   -3.2598 H   0  0  0  0  0  0  0  0  0  0  0  0
    2.4371    1.2740   -3.2593 H   0  0  0  0  0  0  0  0  0  0  0  0
    2.4371   -0.6042   -0.8460 H   0  0  0  0  0  0  0  0  0  0  0  0
    1.3839    1.5911    0.2724 H   0  0  0  0  0  0  0  0  0  0  0  0
    2.4371    2.4810   -1.1096 H   0  0  0  0  0  0  0  0  0  0  0  0
    3.3148    1.5877    0.1422 H   0  0  0  0  0  0  0  0  0  0  0  0
    0.3331    1.6116    1.0521 C   0  0  0  0  0  0  0  0  0  0  0  0
   -0.5344    0.4031    0.8328 C   0  0  0  0  0  0  0  0  0  0  0  0
   -1.3162   -0.1111    1.8628 C   0  0  0  0  0  0  0  0  0  0  0  0
   -2.1398   -1.2068    1.6555 C   0  0  0  0  0  0  0  0  0  0  0  0
   -2.1947   -1.8110    0.4088 C   0  0  0  0  0  0  0  0  0  0  0  0
   -1.4183   -1.3109   -0.6254 C   0  0  0  0  0  0  0  0  0  0  0  0
   -0.5965   -0.2150   -0.4123 C   0  0  0  0  0  0  0  0  0  0  0  0
    0.6763    1.6714    2.0854 H   0  0  0  0  0  0  0  0  0  0  0  0
   -0.2200    2.5291    0.8352 H   0  0  0  0  0  0  0  0  0  0  0  0
   -1.2772    0.3525    2.8422 H   0  0  0  0  0  0  0  0  0  0  0  0
   -2.7383   -1.5918    2.4718 H   0  0  0  0  0  0  0  0  0  0  0  0
   -2.8352   -2.6683    0.2453 H   0  0  0  0  0  0  0  0  0  0  0  0
   -1.4496   -1.7778   -1.6021 H   0  0  0  0  0  0  0  0  0  0  0  0
    0.0097    0.1667   -1.2262 H   0  0  0  0  0  0  0  0  0  0  0  0
  1  2  2  3
  1  4  1  0
  1  5  1  0
  2  3  1  0
  2  6  1  0
  3  8  1  0
  3  9  1  0
  7 10  1  0
 10 11  1  0
 10 17  1  0
 10 18  1  0
 11 12  2  0
 11 16  1  0
 12 13  1  0
 12 19  1  0
 13 14  2  0
 13 20  1  0
 14 15  1  0
 14 21  1  0
 15 16  2  0
 15 22  1  0
 16 23  1  0
M  RAD  1   3   2
M  END
>  <reaction>  (16) 
rxn_1009

>  <mol_properties>  (16) 
{"1": {"label": "*0", "atom_type": "Cd"}, "2": {"label": "*1", "atom_type": "Cs"}, "6": {"label": "*2", "atom_type": "H0"}, "9": {"label": "*3", "atom_type": "Cd"}, "10": {"label": "*4", "atom_type": "Cd"}}

>  <type>  (16) 
unop_12

>  <geom_source>  (16) 
Heuristics

$$$$

     RDKit          3D

 23 22  0  0  0  0  0  0  0  0999 V2000
    0.0927    0.9287   -0.7969 C   0  0  0  0  0  0  0  0  0  0  0  0
   -1.1904    0.2289   -0.4653 C   0  0  0  0  0  0  0  0  0  0  0  0
   -1.1680   -1.0450    0.1242 C   0  0  0  0  0  0  0  0  0  0  0  0
   -2.4226    0.8123   -0.8018 C   0  0  0  0  0  0  0  0  0  0  0  0
   -2.3653   -1.7131    0.4006 C   0  0  0  0  0  0  0  0  0  0  0  0
   -3.6178    0.1411   -0.5239 C   0  0  0  0  0  0  0  0  0  0  0  0
   -3.5893   -1.1196    0.0791 C   0  0  0  0  0  0  0  0  0  0  0  0
    3.4078    0.2129    1.0838 C   0  0  0  0  0  0  0  0  0  0  0  0
    2.1994   -0.1720    0.2922 C   0  0  0  0  0  0  0  0  0  0  0  0
    4.3548    0.9873    0.5521 C   0  0  0  0  0  3  0  0  0  0  0  0
    0.3985    0.6689   -1.8318 H   0  0  0  0  0  0  0  0  0  0  0  0
   -0.0320    2.0299   -0.7203 H   0  0  0  0  0  0  0  0  0  0  0  0
    1.0326    0.5716    0.0255 H   0  0  0  0  0  0  0  0  0  0  0  0
   -0.2264   -1.5205    0.3694 H   0  0  0  0  0  0  0  0  0  0  0  0
   -2.4577    1.7846   -1.2776 H   0  0  0  0  0  0  0  0  0  0  0  0
   -2.3440   -2.6927    0.8605 H   0  0  0  0  0  0  0  0  0  0  0  0
   -4.5658    0.5967   -0.7793 H   0  0  0  0  0  0  0  0  0  0  0  0
   -4.5149   -1.6385    0.2924 H   0  0  0  0  0  0  0  0  0  0  0  0
    3.5093   -0.1322    2.1085 H   0  0  0  0  0  0  0  0  0  0  0  0
    2.4991   -0.7798   -0.5875 H   0  0  0  0  0  0  0  0  0  0  0  0
    1.5046   -0.7634    0.9245 H   0  0  0  0  0  0  0  0  0  0  0  0
    5.2238    1.2639    1.1402 H   0  0  0  0  0  0  0  0  0  0  0  0
    4.2717    1.3498   -0.4683 H   0  0  0  0  0  0  0  0  0  0  0  0
  1  2  1  0
  1 11  1  0
  1 12  1  0
  1 13  1  0
  2  3  2  0
  2  4  1  0
  3  5  1  0
  3 14  1  0
  4  6  2  0
  4 15  1  0
  5  7  2  0
  5 16  1  0
  6  7  1  0
  6 17  1  0
  7 18  1  0
  8  9  2  3
  8 10  1  0
  8 19  1  0
  9 20  1  0
  9 21  1  0
 10 22  1  0
 10 23  1  0
M  RAD  1  10   2
M  END
>  <reaction>  (17) 
rxn_1009

>  <mol_properties>  (17) 
{"1": {"label": "*0", "atom_type": "Cd"}, "2": {"label": "*1", "atom_type": "Cs"}, "6": {"label": "*2", "atom_type": "H0"}, "9": {"label": "*3", "atom_type": "Cd"}, "10": {"label": "*4", "atom_type": "Cd"}}

>  <type>  (17) 
unop_13

>  <geom_source>  (17) 
AutoTST

$$$$

     RDKit          3D

 23 22  0  0  0  0  0  0  0  0999 V2000
    1.9707    0.5605   -3.3335 C   0  0  0  0  0  0  0  0  0  0  0  0
    1.9707    0.5605   -2.0098 C   0  0  0  0  0  0  0  0  0  0  0  0
    1.9707    1.7826   -1.1493 C   0  0  0  0  0  3  0  0  0  0  0  0
    1.9707   -0.3623   -3.9000 H   0  0  0  0  0  0  0  0  0  0  0  0
    1.9707    1.4861   -3.8995 H   0  0  0  0  0  0  0  0  0  0  0  0
    1.9707   -0.3922   -1.4863 H   0  0  0  0  0  0  0  0  0  0  0  0
    0.9174    1.8032   -0.3678 H   0  0  0  0  0  0  0  0  0  0  0  0
    1.9707    2.6931   -1.7499 H   0  0  0  0  0  0  0  0  0  0  0  0
    2.8484    1.7998   -0.4980 H   0  0  0  0  0  0  0  0  0  0  0  0
   -0.1334    1.8237    0.4118 C   0  0  0  0  0  0  0  0  0  0  0  0
   -0.5852    0.4317    0.7577 C   0  0  0  0  0  0  0  0  0  0  0  0
   -0.8859    0.0843    2.0711 C   0  0  0  0  0  0  0  0  0  0  0  0
   -1.3315   -1.1895    2.3887 C   0  0  0  0  0  0  0  0  0  0  0  0
   -1.4833   -2.1427    1.3934 C   0  0  0  0  0  0  0  0  0  0  0  0
   -1.1839   -1.8108    0.0809 C   0  0  0  0  0  0  0  0  0  0  0  0
   -0.7386   -0.5355   -0.2308 C   0  0  0  0  0  0  0  0  0  0  0  0
    0.4085    2.2821    1.2398 H   0  0  0  0  0  0  0  0  0  0  0  0
   -0.9902    2.4632    0.1848 H   0  0  0  0  0  0  0  0  0  0  0  0
   -0.7669    0.8219    2.8569 H   0  0  0  0  0  0  0  0  0  0  0  0
   -1.5579   -1.4390    3.4179 H   0  0  0  0  0  0  0  0  0  0  0  0
   -1.8286   -3.1388    1.6394 H   0  0  0  0  0  0  0  0  0  0  0  0
   -1.2942   -2.5488   -0.7040 H   0  0  0  0  0  0  0  0  0  0  0  0
   -0.5035   -0.2864   -1.2596 H   0  0  0  0  0  0  0  0  0  0  0  0
  1  2  2  3
  1  4  1  0
  1  5  1  0
  2  3  1  0
  2  6  1  0
  3  8  1  0
  3  9  1  0
  7 10  1  0
 10 11  1  0
 10 17  1  0
 10 18  1  0
 11 12  2  0
 11 16  1  0
 12 13  1  0
 12 19  1  0
 13 14  2  0
 13 20  1  0
 14 15  1  0
 14 21  1  0
 15 16  2  0
 15 22  1  0
 16 23  1  0
M  RAD  1   3   2
M  END
>  <reaction>  (18) 
rxn_1009

>  <mol_properties>  (18) 
{"1": {"label": "*0", "atom_type": "Cd"}, "2": {"label": "*1", "atom_type": "Cs"}, "6": {"label": "*2", "atom_type": "H0"}, "9": {"label": "*3", "atom_type": "Cd"}, "10": {"label": "*4", "atom_type": "Cd"}}

>  <type>  (18) 
unop_14

>  <geom_source>  (18) 
gaussian_log

$$$$
