
     RDKit          3D

  5  4  0  0  0  0  0  0  0  0999 V2000
    0.0000    0.0000    0.0000 C   0  0  0  0  0  0  0  0  0  0  0  0
   -0.6486   -0.7720   -0.4113 H   0  0  0  0  0  0  0  0  0  0  0  0
   -0.3482    0.9787   -0.3267 H   0  0  0  0  0  0  0  0  0  0  0  0
   -0.0223   -0.0487    1.0876 H   0  0  0  0  0  0  0  0  0  0  0  0
    1.0191   -0.1580   -0.3496 H   0  0  0  0  0  0  0  0  0  0  0  0
  1  2  1  0
  1  3  1  0
  1  4  1  0
  1  5  1  0
M  END
>  <reaction>  (1) 
rxn_835

>  <mol_properties>  (1) 
{"0": {"label": "donator", "atom_type": "Cs"}, "1": {"label": "d_hydrogen", "atom_type": "H0"}}

>  <type>  (1) 
r1h

$$$$

     RDKit          3D

  9  8  0  0  0  0  0  0  0  0999 V2000
    2.3038   -0.0269    0.1590 C   0  0  0  0  0  0  0  0  0  0  0  0
    1.1426    0.1377   -0.1648 C   0  0  0  0  0  0  0  0  0  0  0  0
   -0.1694    0.3175   -0.5203 C   0  0  0  0  0  3  0  0  0  0  0  0
   -1.3163   -0.1910    0.2856 C   0  0  0  0  0  0  0  0  0  0  0  0
    3.3199   -0.1683    0.4378 H   0  0  0  0  0  0  0  0  0  0  0  0
   -0.3786    0.8584   -1.4360 H   0  0  0  0  0  0  0  0  0  0  0  0
   -1.9694    0.6309    0.5951 H   0  0  0  0  0  0  0  0  0  0  0  0
   -1.9325   -0.8770   -0.3039 H   0  0  0  0  0  0  0  0  0  0  0  0
   -0.9753   -0.7144    1.1774 H   0  0  0  0  0  0  0  0  0  0  0  0
  1  2  3  0
  1  5  1  0
  2  3  1  0
  3  4  1  0
  3  6  1  0
  4  7  1  0
  4  8  1  0
  4  9  1  0
M  RAD  1   3   2
M  END
>  <reaction>  (2) 
rxn_835

>  <mol_properties>  (2) 
{"2": {"label": "acceptor", "atom_type": "Cs"}}

>  <type>  (2) 
r2

$$$$

     RDKit          3D

 10  9  0  0  0  0  0  0  0  0999 V2000
    2.2738    0.0217   -0.0992 C   0  0  0  0  0  0  0  0  0  0  0  0
    1.1083    0.2960   -0.0695 C   0  0  0  0  0  0  0  0  0  0  0  0
   -0.3173    0.6046   -0.0227 C   0  0  0  0  0  0  0  0  0  0  0  0
   -1.1561   -0.5495    0.5292 C   0  0  0  0  0  0  0  0  0  0  0  0
    3.3097   -0.2166   -0.1277 H   0  0  0  0  0  0  0  0  0  0  0  0
   -0.6542    0.8617   -1.0302 H   0  0  0  0  0  0  0  0  0  0  0  0
   -0.4633    1.4978    0.5900 H   0  0  0  0  0  0  0  0  0  0  0  0
   -0.8485   -0.7997    1.5447 H   0  0  0  0  0  0  0  0  0  0  0  0
   -2.2115   -0.2752    0.5459 H   0  0  0  0  0  0  0  0  0  0  0  0
   -1.0409   -1.4407   -0.0879 H   0  0  0  0  0  0  0  0  0  0  0  0
  1  2  3  0
  1  5  1  0
  2  3  1  0
  3  4  1  0
  3  6  1  0
  3  7  1  0
  4  8  1  0
  4  9  1  0
  4 10  1  0
M  END
>  <reaction>  (3) 
rxn_835

>  <mol_properties>  (3) 
{"2": {"label": "acceptor", "atom_type": "Cs"}, "9": {"label": "a_hydrogen", "atom_type": "H0"}}

>  <type>  (3) 
r2h

$$$$

     RDKit          3D

 14 12  0  0  0  0  0  0  0  0999 V2000
   -1.7447    0.7446    1.2017 C   0  0  0  0  0  0  0  0  0  0  0  0
   -0.7483    0.6074    0.5452 C   0  0  0  0  0  0  0  0  0  0  0  0
    0.4332    0.3871   -0.2387 C   0  0  0  0  0  0  0  0  0  0  0  0
    1.7241    0.2245    0.5415 C   0  0  0  0  0  0  0  0  0  0  0  0
   -2.6246    0.8801    1.7830 H   0  0  0  0  0  0  0  0  0  0  0  0
    0.5167    1.1050   -1.0553 H   0  0  0  0  0  0  0  0  0  0  0  0
    2.5433   -0.0308   -0.1321 H   0  0  0  0  0  0  0  0  0  0  0  0
    1.9862    1.1457    1.0658 H   0  0  0  0  0  0  0  0  0  0  0  0
    1.6280   -0.5685    1.2839 H   0  0  0  0  0  0  0  0  0  0  0  0
    0.1363   -1.9838   -1.5021 C   0  0  0  0  0  3  0  0  0  0  0  0
    0.2607   -0.7086   -0.8502 H   0  0  0  0  0  0  0  0  0  0  0  0
    0.2705   -2.6864   -0.6865 H   0  0  0  0  0  0  0  0  0  0  0  0
   -0.8694   -1.9435   -1.9063 H   0  0  0  0  0  0  0  0  0  0  0  0
    0.9289   -1.9877   -2.2430 H   0  0  0  0  0  0  0  0  0  0  0  0
  1  2  3  0
  1  5  1  0
  2  3  1  0
  3  4  1  0
  3  6  1  0
  3 11  1  0
  4  7  1  0
  4  8  1  0
  4  9  1  0
 10 12  1  0
 10 13  1  0
 10 14  1  0
M  RAD  1  10   2
M  END
>  <reaction>  (4) 
rxn_835

>  <mol_properties>  (4) 
{"1": {"label": "*0", "atom_type": "Ct"}, "2": {"label": "*1", "atom_type": "Cs"}, "9": {"label": "*3", "atom_type": "Cs"}, "10": {"label": "*2", "atom_type": "H0"}, "11": {"label": "*4", "atom_type": "H0"}}

>  <type>  (4) 
ts

$$$$

     RDKit          3D

 14 12  0  0  0  0  0  0  0  0999 V2000
   -1.8052    0.9688    1.0864 C   0  0  0  0  0  0  0  0  0  0  0  0
   -0.8339    0.8042    0.4052 C   0  0  0  0  0  0  0  0  0  0  0  0
    0.3630    0.5925   -0.4025 C   0  0  0  0  0  3  0  0  0  0  0  0
    1.5058   -0.0481    0.3873 C   0  0  0  0  0  0  0  0  0  0  0  0
   -2.6675    1.1149    1.6912 H   0  0  0  0  0  0  0  0  0  0  0  0
    0.6853    1.5536   -0.8112 H   0  0  0  0  0  0  0  0  0  0  0  0
    2.3769   -0.1872   -0.2541 H   0  0  0  0  0  0  0  0  0  0  0  0
    1.7942    0.5814    1.2292 H   0  0  0  0  0  0  0  0  0  0  0  0
    1.2072   -1.0205    0.7792 H   0  0  0  0  0  0  0  0  0  0  0  0
    0.3630   -1.8759   -1.2753 C   0  0  0  0  0  0  0  0  0  0  0  0
    0.3630   -0.6440   -0.8397 H   0  0  0  0  0  0  0  0  0  0  0  0
    1.2521   -2.3893   -0.9123 H   0  0  0  0  0  0  0  0  0  0  0  0
   -0.5261   -2.3893   -0.9123 H   0  0  0  0  0  0  0  0  0  0  0  0
    0.3630   -1.8759   -2.3642 H   0  0  0  0  0  0  0  0  0  0  0  0
  1  2  3  0
  1  5  1  0
  2  3  1  0
  3  4  1  0
  3  6  1  0
  4  7  1  0
  4  8  1  0
  4  9  1  0
 10 11  1  0
 10 12  1  0
 10 13  1  0
 10 14  1  0
M  RAD  1   3   2
M  END
>  <reaction>  (5) 
rxn_835

>  <mol_properties>  (5) 
{"1": {"label": "*0", "atom_type": "Ct"}, "2": {"label": "*1", "atom_type": "Cs"}, "9": {"label": "*3", "atom_type": "Cs"}, "10": {"label": "*2", "atom_type": "H0"}, "11": {"label": "*4", "atom_type": "H0"}}

>  <type>  (5) 
unop_1

>  <geom_source>  (5) 
Heuristics

$$$$

     RDKit          3D

 14 12  0  0  0  0  0  0  0  0999 V2000
   -0.7281    1.7187   -1.3318 C   0  0  0  0  0  0  0  0  0  0  0  0
   -0.1425    1.0279   -0.5480 C   0  0  0  0  0  0  0  0  0  0  0  0
    0.5485    0.1869    0.4242 C   0  0  0  0  0  3  0  0  0  0  0  0
   -0.3007   -0.1094    1.6617 C   0  0  0  0  0  0  0  0  0  0  0  0
   -1.2479    2.3320   -2.0277 H   0  0  0  0  0  0  0  0  0  0  0  0
    1.4772    0.6818    0.7193 H   0  0  0  0  0  0  0  0  0  0  0  0
    0.2540   -0.7388    2.3585 H   0  0  0  0  0  0  0  0  0  0  0  0
   -0.5740    0.8137    2.1730 H   0  0  0  0  0  0  0  0  0  0  0  0
   -1.2192   -0.6272    1.3851 H   0  0  0  0  0  0  0  0  0  0  0  0
    0.5485   -2.2816   -0.4485 C   0  0  0  0  0  0  0  0  0  0  0  0
    0.5485   -1.0496   -0.0130 H   0  0  0  0  0  0  0  0  0  0  0  0
    1.4376   -2.7949   -0.0856 H   0  0  0  0  0  0  0  0  0  0  0  0
   -0.3406   -2.7949   -0.0856 H   0  0  0  0  0  0  0  0  0  0  0  0
    0.5485   -2.2816   -1.5375 H   0  0  0  0  0  0  0  0  0  0  0  0
  1  2  3  0
  1  5  1  0
  2  3  1  0
  3  4  1  0
  3  6  1  0
  4  7  1  0
  4  8  1  0
  4  9  1  0
 10 11  1  0
 10 12  1  0
 10 13  1  0
 10 14  1  0
M  RAD  1   3   2
M  END
>  <reaction>  (6) 
rxn_835

>  <mol_properties>  (6) 
{"1": {"label": "*0", "atom_type": "Ct"}, "2": {"label": "*1", "atom_type": "Cs"}, "9": {"label": "*3", "atom_type": "Cs"}, "10": {"label": "*2", "atom_type": "H0"}, "11": {"label": "*4", "atom_type": "H0"}}

>  <type>  (6) 
unop_2

>  <geom_source>  (6) 
Heuristics

$$$$

     RDKit          3D

 14 12  0  0  0  0  0  0  0  0999 V2000
   -1.2205    0.6417    1.8465 C   0  0  0  0  0  0  0  0  0  0  0  0
   -0.6738    0.6083    0.7814 C   0  0  0  0  0  0  0  0  0  0  0  0
    0.0172    0.5653   -0.5034 C   0  0  0  0  0  3  0  0  0  0  0  0
    1.5339    0.4301   -0.3567 C   0  0  0  0  0  0  0  0  0  0  0  0
   -1.7059    0.6714    2.7921 H   0  0  0  0  0  0  0  0  0  0  0  0
   -0.2238    1.4730   -1.0623 H   0  0  0  0  0  0  0  0  0  0  0  0
    2.0074    0.4020   -1.3387 H   0  0  0  0  0  0  0  0  0  0  0  0
    1.9449    1.2721    0.2006 H   0  0  0  0  0  0  0  0  0  0  0  0
    1.7906   -0.4855    0.1765 H   0  0  0  0  0  0  0  0  0  0  0  0
    0.0172   -1.9032   -1.3761 C   0  0  0  0  0  0  0  0  0  0  0  0
    0.0172   -0.6712   -0.9405 H   0  0  0  0  0  0  0  0  0  0  0  0
    0.9063   -2.4165   -1.0131 H   0  0  0  0  0  0  0  0  0  0  0  0
   -0.8719   -2.4165   -1.0131 H   0  0  0  0  0  0  0  0  0  0  0  0
    0.0172   -1.9032   -2.4650 H   0  0  0  0  0  0  0  0  0  0  0  0
  1  2  3  0
  1  5  1  0
  2  3  1  0
  3  4  1  0
  3  6  1  0
  4  7  1  0
  4  8  1  0
  4  9  1  0
 10 11  1  0
 10 12  1  0
 10 13  1  0
 10 14  1  0
M  RAD  1   3   2
M  END
>  <reaction>  (7) 
rxn_835

>  <mol_properties>  (7) 
{"1": {"label": "*0", "atom_type": "Ct"}, "2": {"label": "*1", "atom_type": "Cs"}, "9": {"label": "*3", "atom_type": "Cs"}, "10": {"label": "*2", "atom_type": "H0"}, "11": {"label": "*4", "atom_type": "H0"}}

>  <type>  (7) 
unop_3

>  <geom_source>  (7) 
Heuristics

$$$$

     RDKit          3D

 14 12  0  0  0  0  0  0  0  0999 V2000
    1.7980    1.2425   -0.5166 C   0  0  0  0  0  0  0  0  0  0  0  0
    0.8268    0.6704   -0.1117 C   0  0  0  0  0  0  0  0  0  0  0  0
   -0.3701   -0.0019    0.3835 C   0  0  0  0  0  3  0  0  0  0  0  0
   -1.5188    0.9669    0.6703 C   0  0  0  0  0  0  0  0  0  0  0  0
    2.6602    1.7504   -0.8761 H   0  0  0  0  0  0  0  0  0  0  0  0
   -0.1127   -0.5538    1.2911 H   0  0  0  0  0  0  0  0  0  0  0  0
   -2.3896    0.4223    1.0371 H   0  0  0  0  0  0  0  0  0  0  0  0
   -1.2276    1.6995    1.4232 H   0  0  0  0  0  0  0  0  0  0  0  0
   -1.8043    1.5060   -0.2331 H   0  0  0  0  0  0  0  0  0  0  0  0
   -0.3701   -2.4704   -0.4892 C   0  0  0  0  0  0  0  0  0  0  0  0
   -0.3701   -1.2384   -0.0536 H   0  0  0  0  0  0  0  0  0  0  0  0
    0.5190   -2.9837   -0.1262 H   0  0  0  0  0  0  0  0  0  0  0  0
   -1.2592   -2.9837   -0.1262 H   0  0  0  0  0  0  0  0  0  0  0  0
   -0.3701   -2.4704   -1.5781 H   0  0  0  0  0  0  0  0  0  0  0  0
  1  2  3  0
  1  5  1  0
  2  3  1  0
  3  4  1  0
  3  6  1  0
  4  7  1  0
  4  8  1  0
  4  9  1  0
 10 11  1  0
 10 12  1  0
 10 13  1  0
 10 14  1  0
M  RAD  1   3   2
M  END
>  <reaction>  (8) 
rxn_835

>  <mol_properties>  (8) 
{"1": {"label": "*0", "atom_type": "Ct"}, "2": {"label": "*1", "atom_type": "Cs"}, "9": {"label": "*3", "atom_type": "Cs"}, "10": {"label": "*2", "atom_type": "H0"}, "11": {"label": "*4", "atom_type": "H0"}}

>  <type>  (8) 
unop_4

>  <geom_source>  (8) 
Heuristics

$$$$

     RDKit          3D

 14 12  0  0  0  0  0  0  0  0999 V2000
   -0.2433    0.3756    2.2273 C   0  0  0  0  0  0  0  0  0  0  0  0
   -0.2629    0.3785    1.0298 C   0  0  0  0  0  0  0  0  0  0  0  0
   -0.2629    0.3972   -0.4296 C   0  0  0  0  0  3  0  0  0  0  0  0
    0.9300    1.1568   -1.0129 C   0  0  0  0  0  0  0  0  0  0  0  0
   -0.2259    0.3729    3.2905 H   0  0  0  0  0  0  0  0  0  0  0  0
   -1.1967    0.8478   -0.7749 H   0  0  0  0  0  0  0  0  0  0  0  0
    0.8891    1.1449   -2.1027 H   0  0  0  0  0  0  0  0  0  0  0  0
    0.9283    2.1944   -0.6788 H   0  0  0  0  0  0  0  0  0  0  0  0
    1.8693    0.7019   -0.6979 H   0  0  0  0  0  0  0  0  0  0  0  0
   -0.2629   -2.0713   -1.3023 C   0  0  0  0  0  0  0  0  0  0  0  0
   -0.2629   -0.8393   -0.8667 H   0  0  0  0  0  0  0  0  0  0  0  0
    0.6262   -2.5846   -0.9393 H   0  0  0  0  0  0  0  0  0  0  0  0
   -1.1520   -2.5846   -0.9393 H   0  0  0  0  0  0  0  0  0  0  0  0
   -0.2629   -2.0713   -2.3912 H   0  0  0  0  0  0  0  0  0  0  0  0
  1  2  3  0
  1  5  1  0
  2  3  1  0
  3  4  1  0
  3  6  1  0
  4  7  1  0
  4  8  1  0
  4  9  1  0
 10 11  1  0
 10 12  1  0
 10 13  1  0
 10 14  1  0
M  RAD  1   3   2
M  END
>  <reaction>  (9) 
rxn_835

>  <mol_properties>  (9) 
{"1": {"label": "*0", "atom_type": "Ct"}, "2": {"label": "*1", "atom_type": "Cs"}, "9": {"label": "*3", "atom_type": "Cs"}, "10": {"label": "*2", "atom_type": "H0"}, "11": {"label": "*4", "atom_type": "H0"}}

>  <type>  (9) 
unop_5

>  <geom_source>  (9) 
Heuristics

$$$$

     RDKit          3D

 14 12  0  0  0  0  0  0  0  0999 V2000
    2.0118    0.9029    0.4081 C   0  0  0  0  0  0  0  0  0  0  0  0
    0.8848    0.5181    0.2801 C   0  0  0  0  0  0  0  0  0  0  0  0
   -0.4973    0.0761    0.1238 C   0  0  0  0  0  3  0  0  0  0  0  0
   -1.4873    1.2399    0.0500 C   0  0  0  0  0  0  0  0  0  0  0  0
    3.0123    1.2445    0.5218 H   0  0  0  0  0  0  0  0  0  0  0  0
   -0.7533   -0.5786    0.9606 H   0  0  0  0  0  0  0  0  0  0  0  0
   -2.5044    0.8639   -0.0663 H   0  0  0  0  0  0  0  0  0  0  0  0
   -1.4439    1.8424    0.9575 H   0  0  0  0  0  0  0  0  0  0  0  0
   -1.2600    1.8877   -0.7968 H   0  0  0  0  0  0  0  0  0  0  0  0
   -0.4973   -2.3924   -0.7489 C   0  0  0  0  0  0  0  0  0  0  0  0
   -0.4973   -1.1604   -0.3134 H   0  0  0  0  0  0  0  0  0  0  0  0
    0.3919   -2.9057   -0.3860 H   0  0  0  0  0  0  0  0  0  0  0  0
   -1.3864   -2.9057   -0.3860 H   0  0  0  0  0  0  0  0  0  0  0  0
   -0.4973   -2.3924   -1.8379 H   0  0  0  0  0  0  0  0  0  0  0  0
  1  2  3  0
  1  5  1  0
  2  3  1  0
  3  4  1  0
  3  6  1  0
  4  7  1  0
  4  8  1  0
  4  9  1  0
 10 11  1  0
 10 12  1  0
 10 13  1  0
 10 14  1  0
M  RAD  1   3   2
M  END
>  <reaction>  (10) 
rxn_835

>  <mol_properties>  (10) 
{"1": {"label": "*0", "atom_type": "Ct"}, "2": {"label": "*1", "atom_type": "Cs"}, "9": {"label": "*3", "atom_type": "Cs"}, "10": {"label": "*2", "atom_type": "H0"}, "11": {"label": "*4", "atom_type": "H0"}}

>  <type>  (10) 
unop_6

>  <geom_source>  (10) 
Heuristics

$$$$

     RDKit          3D

 14 12  0  0  0  0  0  0  0  0999 V2000
    1.6999    0.5713    1.3465 C   0  0  0  0  0  0  0  0  0  0  0  0
    0.7201    0.3747    0.6863 C   0  0  0  0  0  0  0  0  0  0  0  0
   -0.4768    0.1631   -0.1215 C   0  0  0  0  0  3  0  0  0  0  0  0
   -1.1034    1.4713   -0.6072 C   0  0  0  0  0  0  0  0  0  0  0  0
    2.5697    0.7459    1.9327 H   0  0  0  0  0  0  0  0  0  0  0  0
   -1.2031   -0.4017    0.4684 H   0  0  0  0  0  0  0  0  0  0  0  0
   -1.9921    1.2655   -1.2049 H   0  0  0  0  0  0  0  0  0  0  0  0
   -1.3925    2.0980    0.2366 H   0  0  0  0  0  0  0  0  0  0  0  0
   -0.3983    2.0336   -1.2197 H   0  0  0  0  0  0  0  0  0  0  0  0
   -0.4768   -2.3054   -0.9942 C   0  0  0  0  0  0  0  0  0  0  0  0
   -0.4768   -1.0734   -0.5586 H   0  0  0  0  0  0  0  0  0  0  0  0
    0.4123   -2.8187   -0.6312 H   0  0  0  0  0  0  0  0  0  0  0  0
   -1.3659   -2.8187   -0.6312 H   0  0  0  0  0  0  0  0  0  0  0  0
   -0.4768   -2.3054   -2.0831 H   0  0  0  0  0  0  0  0  0  0  0  0
  1  2  3  0
  1  5  1  0
  2  3  1  0
  3  4  1  0
  3  6  1  0
  4  7  1  0
  4  8  1  0
  4  9  1  0
 10 11  1  0
 10 12  1  0
 10 13  1  0
 10 14  1  0
M  RAD  1   3   2
M  END
>  <reaction>  (11) 
rxn_835

>  <mol_properties>  (11) 
{"1": {"label": "*0", "atom_type": "Ct"}, "2": {"label": "*1", "atom_type": "Cs"}, "9": {"label": "*3", "atom_type": "Cs"}, "10": {"label": "*2", "atom_type": "H0"}, "11": {"label": "*4", "atom_type": "H0"}}

>  <type>  (11) 
unop_7

>  <geom_source>  (11) 
Heuristics

$$$$

     RDKit          3D

 14 12  0  0  0  0  0  0  0  0999 V2000
   -1.9138    1.3017    0.1472 C   0  0  0  0  0  0  0  0  0  0  0  0
   -0.7789    0.9490   -0.0019 C   0  0  0  0  0  0  0  0  0  0  0  0
    0.6032    0.5070   -0.1582 C   0  0  0  0  0  3  0  0  0  0  0  0
    1.1126   -0.2845    1.0477 C   0  0  0  0  0  0  0  0  0  0  0  0
   -2.9213    1.6147    0.2795 H   0  0  0  0  0  0  0  0  0  0  0  0
    1.2355    1.3830   -0.3232 H   0  0  0  0  0  0  0  0  0  0  0  0
    2.1462   -0.5935    0.8875 H   0  0  0  0  0  0  0  0  0  0  0  0
    1.0698    0.3208    1.9533 H   0  0  0  0  0  0  0  0  0  0  0  0
    0.5068   -1.1764    1.2086 H   0  0  0  0  0  0  0  0  0  0  0  0
    0.6032   -1.9615   -1.0309 C   0  0  0  0  0  0  0  0  0  0  0  0
    0.6032   -0.7295   -0.5954 H   0  0  0  0  0  0  0  0  0  0  0  0
    1.4923   -2.4748   -0.6680 H   0  0  0  0  0  0  0  0  0  0  0  0
   -0.2859   -2.4748   -0.6680 H   0  0  0  0  0  0  0  0  0  0  0  0
    0.6032   -1.9615   -2.1199 H   0  0  0  0  0  0  0  0  0  0  0  0
  1  2  3  0
  1  5  1  0
  2  3  1  0
  3  4  1  0
  3  6  1  0
  4  7  1  0
  4  8  1  0
  4  9  1  0
 10 11  1  0
 10 12  1  0
 10 13  1  0
 10 14  1  0
M  RAD  1   3   2
M  END
>  <reaction>  (12) 
rxn_835

>  <mol_properties>  (12) 
{"1": {"label": "*0", "atom_type": "Ct"}, "2": {"label": "*1", "atom_type": "Cs"}, "9": {"label": "*3", "atom_type": "Cs"}, "10": {"label": "*2", "atom_type": "H0"}, "11": {"label": "*4", "atom_type": "H0"}}

>  <type>  (12) 
unop_8

>  <geom_source>  (12) 
Heuristics

$$$$

     RDKit          3D

 14 12  0  0  0  0  0  0  0  0999 V2000
    1.1528    1.5200   -1.2018 C   0  0  0  0  0  0  0  0  0  0  0  0
    0.6014    0.8132   -0.4075 C   0  0  0  0  0  0  0  0  0  0  0  0
   -0.0896   -0.0278    0.5647 C   0  0  0  0  0  3  0  0  0  0  0  0
   -1.3229    0.6500    1.1646 C   0  0  0  0  0  0  0  0  0  0  0  0
    1.6423    2.1475   -1.9070 H   0  0  0  0  0  0  0  0  0  0  0  0
    0.6119   -0.2955    1.3588 H   0  0  0  0  0  0  0  0  0  0  0  0
   -1.8061   -0.0128    1.8834 H   0  0  0  0  0  0  0  0  0  0  0  0
   -1.0465    1.5718    1.6768 H   0  0  0  0  0  0  0  0  0  0  0  0
   -2.0440    0.8993    0.3860 H   0  0  0  0  0  0  0  0  0  0  0  0
   -0.0896   -2.4962   -0.3080 C   0  0  0  0  0  0  0  0  0  0  0  0
   -0.0896   -1.2642    0.1275 H   0  0  0  0  0  0  0  0  0  0  0  0
    0.7995   -3.0096    0.0549 H   0  0  0  0  0  0  0  0  0  0  0  0
   -0.9787   -3.0096    0.0549 H   0  0  0  0  0  0  0  0  0  0  0  0
   -0.0896   -2.4962   -1.3970 H   0  0  0  0  0  0  0  0  0  0  0  0
  1  2  3  0
  1  5  1  0
  2  3  1  0
  3  4  1  0
  3  6  1  0
  4  7  1  0
  4  8  1  0
  4  9  1  0
 10 11  1  0
 10 12  1  0
 10 13  1  0
 10 14  1  0
M  RAD  1   3   2
M  END
>  <reaction>  (13) 
rxn_835

>  <mol_properties>  (13) 
{"1": {"label": "*0", "atom_type": "Ct"}, "2": {"label": "*1", "atom_type": "Cs"}, "9": {"label": "*3", "atom_type": "Cs"}, "10": {"label": "*2", "atom_type": "H0"}, "11": {"label": "*4", "atom_type": "H0"}}

>  <type>  (13) 
unop_9

>  <geom_source>  (13) 
Heuristics

$$$$

     RDKit          3D

 14 12  0  0  0  0  0  0  0  0999 V2000
   -1.5199    1.5766   -0.7352 C   0  0  0  0  0  0  0  0  0  0  0  0
   -0.5263    1.0314   -0.3479 C   0  0  0  0  0  0  0  0  0  0  0  0
    0.6706    0.3590    0.1473 C   0  0  0  0  0  3  0  0  0  0  0  0
    0.4556   -0.3102    1.5061 C   0  0  0  0  0  0  0  0  0  0  0  0
   -2.4020    2.0606   -1.0791 H   0  0  0  0  0  0  0  0  0  0  0  0
    1.4808    1.0894    0.2156 H   0  0  0  0  0  0  0  0  0  0  0  0
    1.3732   -0.7985    1.8361 H   0  0  0  0  0  0  0  0  0  0  0  0
    0.1664    0.4248    2.2574 H   0  0  0  0  0  0  0  0  0  0  0  0
   -0.3327   -1.0608    1.4468 H   0  0  0  0  0  0  0  0  0  0  0  0
    0.6706   -2.1095   -0.7254 C   0  0  0  0  0  0  0  0  0  0  0  0
    0.6706   -0.8775   -0.2898 H   0  0  0  0  0  0  0  0  0  0  0  0
    1.5597   -2.6228   -0.3624 H   0  0  0  0  0  0  0  0  0  0  0  0
   -0.2185   -2.6228   -0.3624 H   0  0  0  0  0  0  0  0  0  0  0  0
    0.6706   -2.1095   -1.8143 H   0  0  0  0  0  0  0  0  0  0  0  0
  1  2  3  0
  1  5  1  0
  2  3  1  0
  3  4  1  0
  3  6  1  0
  4  7  1  0
  4  8  1  0
  4  9  1  0
 10 11  1  0
 10 12  1  0
 10 13  1  0
 10 14  1  0
M  RAD  1   3   2
M  END
>  <reaction>  (14) 
rxn_835

>  <mol_properties>  (14) 
{"1": {"label": "*0", "atom_type": "Ct"}, "2": {"label": "*1", "atom_type": "Cs"}, "9": {"label": "*3", "atom_type": "Cs"}, "10": {"label": "*2", "atom_type": "H0"}, "11": {"label": "*4", "atom_type": "H0"}}

>  <type>  (14) 
unop_10

>  <geom_source>  (14) 
Heuristics

$$$$

     RDKit          3D

 14 12  0  0  0  0  0  0  0  0999 V2000
    0.8825    0.3489    2.0381 C   0  0  0  0  0  0  0  0  0  0  0  0
    0.3086    0.2919    0.9884 C   0  0  0  0  0  0  0  0  0  0  0  0
   -0.3825    0.2489   -0.2963 C   0  0  0  0  0  3  0  0  0  0  0  0
   -0.2416    1.5495   -1.0893 C   0  0  0  0  0  0  0  0  0  0  0  0
    1.3920    0.3995    2.9700 H   0  0  0  0  0  0  0  0  0  0  0  0
   -1.4391    0.0326   -0.1196 H   0  0  0  0  0  0  0  0  0  0  0  0
   -0.7720    1.4721   -2.0391 H   0  0  0  0  0  0  0  0  0  0  0  0
   -0.6550    2.3894   -0.5307 H   0  0  0  0  0  0  0  0  0  0  0  0
    0.8069    1.7645   -1.2960 H   0  0  0  0  0  0  0  0  0  0  0  0
   -0.3825   -2.2196   -1.1690 C   0  0  0  0  0  0  0  0  0  0  0  0
   -0.3825   -0.9876   -0.7335 H   0  0  0  0  0  0  0  0  0  0  0  0
    0.5066   -2.7329   -0.8061 H   0  0  0  0  0  0  0  0  0  0  0  0
   -1.2716   -2.7329   -0.8061 H   0  0  0  0  0  0  0  0  0  0  0  0
   -0.3825   -2.2196   -2.2580 H   0  0  0  0  0  0  0  0  0  0  0  0
  1  2  3  0
  1  5  1  0
  2  3  1  0
  3  4  1  0
  3  6  1  0
  4  7  1  0
  4  8  1  0
  4  9  1  0
 10 11  1  0
 10 12  1  0
 10 13  1  0
 10 14  1  0
M  RAD  1   3   2
M  END
>  <reaction>  (15) 
rxn_835

>  <mol_properties>  (15) 
{"1": {"label": "*0", "atom_type": "Ct"}, "2": {"label": "*1", "atom_type": "Cs"}, "9": {"label": "*3", "atom_type": "Cs"}, "10": {"label": "*2", "atom_type": "H0"}, "11": {"label": "*4", "atom_type": "H0"}}

>  <type>  (15) 
unop_11

>  <geom_source>  (15) 
Heuristics

$$$$

     RDKit          3D

 14 12  0  0  0  0  0  0  0  0999 V2000
    0.2433    1.6920   -1.4963 C   0  0  0  0  0  0  0  0  0  0  0  0
    0.2629    0.9416   -0.5630 C   0  0  0  0  0  0  0  0  0  0  0  0
    0.2629    0.0389    0.5837 C   0  0  0  0  0  3  0  0  0  0  0  0
   -0.9300    0.2631    1.5149 C   0  0  0  0  0  0  0  0  0  0  0  0
    0.2259    2.3582   -2.3248 H   0  0  0  0  0  0  0  0  0  0  0  0
    1.1967    0.1724    1.1356 H   0  0  0  0  0  0  0  0  0  0  0  0
   -0.8891   -0.4311    2.3550 H   0  0  0  0  0  0  0  0  0  0  0  0
   -0.9283    1.2801    1.9072 H   0  0  0  0  0  0  0  0  0  0  0  0
   -1.8693    0.1073    0.9840 H   0  0  0  0  0  0  0  0  0  0  0  0
    0.2629   -2.4296   -0.2890 C   0  0  0  0  0  0  0  0  0  0  0  0
    0.2629   -1.1976    0.1466 H   0  0  0  0  0  0  0  0  0  0  0  0
    1.1520   -2.9429    0.0740 H   0  0  0  0  0  0  0  0  0  0  0  0
   -0.6262   -2.9429    0.0740 H   0  0  0  0  0  0  0  0  0  0  0  0
    0.2629   -2.4296   -1.3779 H   0  0  0  0  0  0  0  0  0  0  0  0
  1  2  3  0
  1  5  1  0
  2  3  1  0
  3  4  1  0
  3  6  1  0
  4  7  1  0
  4  8  1  0
  4  9  1  0
 10 11  1  0
 10 12  1  0
 10 13  1  0
 10 14  1  0
M  RAD  1   3   2
M  END
>  <reaction>  (16) 
rxn_835

>  <mol_properties>  (16) 
{"1": {"label": "*0", "atom_type": "Ct"}, "2": {"label": "*1", "atom_type": "Cs"}, "9": {"label": "*3", "atom_type": "Cs"}, "10": {"label": "*2", "atom_type": "H0"}, "11": {"label": "*4", "atom_type": "H0"}}

>  <type>  (16) 
unop_12

>  <geom_source>  (16) 
Heuristics

$$$$

     RDKit          3D

 14 12  0  0  0  0  0  0  0  0999 V2000
   -0.4330   -0.0833    0.3930 C   0  0  0  0  0  3  0  0  0  0  0  0
   -1.2011   -1.1984   -0.3026 C   0  0  0  0  0  0  0  0  0  0  0  0
    2.1807   -0.1976    0.1281 C   0  0  0  0  0  0  0  0  0  0  0  0
   -1.0329    1.2214    0.0936 C   0  0  0  0  0  0  0  0  0  0  0  0
   -1.5250    2.2942   -0.1521 C   0  0  0  0  0  0  0  0  0  0  0  0
   -0.4476   -0.2477    1.4911 H   0  0  0  0  0  0  0  0  0  0  0  0
    0.9452   -0.0903   -0.0670 H   0  0  0  0  0  0  0  0  0  0  0  0
   -0.7279   -2.1740   -0.0651 H   0  0  0  0  0  0  0  0  0  0  0  0
   -2.2563   -1.2189    0.0454 H   0  0  0  0  0  0  0  0  0  0  0  0
   -1.1775   -1.0521   -1.4037 H   0  0  0  0  0  0  0  0  0  0  0  0
    2.7373   -0.7126    0.9378 H   0  0  0  0  0  0  0  0  0  0  0  0
    2.4419   -0.6543   -0.8486 H   0  0  0  0  0  0  0  0  0  0  0  0
    2.4532    0.8778    0.1181 H   0  0  0  0  0  0  0  0  0  0  0  0
   -1.9571    3.2358   -0.3680 H   0  0  0  0  0  0  0  0  0  0  0  0
  1  2  1  0
  1  4  1  0
  1  6  1  0
  2  8  1  0
  2  9  1  0
  2 10  1  0
  3  7  1  0
  3 11  1  0
  3 12  1  0
  3 13  1  0
  4  5  3  0
  5 14  1  0
M  RAD  1   1   2
M  END
>  <reaction>  (17) 
rxn_835

>  <mol_properties>  (17) 
{"1": {"label": "*0", "atom_type": "Ct"}, "2": {"label": "*1", "atom_type": "Cs"}, "9": {"label": "*3", "atom_type": "Cs"}, "10": {"label": "*2", "atom_type": "H0"}, "11": {"label": "*4", "atom_type": "H0"}}

>  <type>  (17) 
unop_13

>  <geom_source>  (17) 
AutoTST

$$$$
