
     RDKit          3D

  4  3  0  0  0  0  0  0  0  0999 V2000
    0.5949   -0.3853    0.2659 O   0  0  0  0  0  0  0  0  0  0  0  0
   -0.5918    0.4028    0.2462 O   0  0  0  0  0  0  0  0  0  0  0  0
    1.1865    0.1539   -0.2689 H   0  0  0  0  0  0  0  0  0  0  0  0
   -1.1896   -0.1714   -0.2432 H   0  0  0  0  0  0  0  0  0  0  0  0
  1  2  1  0
  1  3  1  0
  2  4  1  0
M  END
>  <reaction>  (1) 
rxn_779

>  <mol_properties>  (1) 
{"1": {"label": "donator", "atom_type": "O2s"}, "3": {"label": "d_hydrogen", "atom_type": "H0"}}

>  <type>  (1) 
r1h

$$$$

     RDKit          3D

 14 13  0  0  0  0  0  0  0  0999 V2000
   -0.0263    1.3824   -0.7006 C   0  0  0  0  0  0  0  0  0  0  0  0
   -0.2039   -0.0453   -0.3213 C   0  0  0  0  0  3  0  0  0  0  0  0
   -1.1121   -0.3782    0.8104 C   0  0  0  0  0  0  0  0  0  0  0  0
    0.8313   -1.0381   -0.7322 C   0  0  0  0  0  0  0  0  0  0  0  0
    0.3307   -2.3541   -0.9005 O   0  0  0  0  0  0  0  0  0  0  0  0
    0.6071    1.9181    0.0231 H   0  0  0  0  0  0  0  0  0  0  0  0
   -0.9831    1.9109   -0.7211 H   0  0  0  0  0  0  0  0  0  0  0  0
    0.4475    1.4899   -1.6787 H   0  0  0  0  0  0  0  0  0  0  0  0
   -2.0864    0.1051    0.6984 H   0  0  0  0  0  0  0  0  0  0  0  0
   -1.2623   -1.4541    0.9003 H   0  0  0  0  0  0  0  0  0  0  0  0
   -0.6968   -0.0235    1.7662 H   0  0  0  0  0  0  0  0  0  0  0  0
    1.6088   -1.1338    0.0391 H   0  0  0  0  0  0  0  0  0  0  0  0
    1.3350   -0.6925   -1.6447 H   0  0  0  0  0  0  0  0  0  0  0  0
   -0.3997   -2.3102   -1.5208 H   0  0  0  0  0  0  0  0  0  0  0  0
  1  2  1  0
  1  6  1  0
  1  7  1  0
  1  8  1  0
  2  3  1  0
  2  4  1  0
  3  9  1  0
  3 10  1  0
  3 11  1  0
  4  5  1  0
  4 12  1  0
  4 13  1  0
  5 14  1  0
M  RAD  1   2   2
M  END
>  <reaction>  (2) 
rxn_779

>  <mol_properties>  (2) 
{"1": {"label": "acceptor", "atom_type": "Cs"}}

>  <type>  (2) 
r2

$$$$

     RDKit          3D

 15 14  0  0  0  0  0  0  0  0999 V2000
   -0.6986    1.3249   -0.1641 C   0  0  0  0  0  0  0  0  0  0  0  0
   -0.2590   -0.0344    0.3671 C   0  0  0  0  0  0  0  0  0  0  0  0
   -0.4734   -0.1429    1.8733 C   0  0  0  0  0  0  0  0  0  0  0  0
   -0.9841   -1.1722   -0.3462 C   0  0  0  0  0  0  0  0  0  0  0  0
   -0.7805   -1.1911   -1.7444 O   0  0  0  0  0  0  0  0  0  0  0  0
   -0.1246    2.1306    0.2976 H   0  0  0  0  0  0  0  0  0  0  0  0
   -1.7557    1.4964    0.0581 H   0  0  0  0  0  0  0  0  0  0  0  0
   -0.5709    1.3852   -1.2449 H   0  0  0  0  0  0  0  0  0  0  0  0
    0.8141   -0.1541    0.1667 H   0  0  0  0  0  0  0  0  0  0  0  0
   -1.5346   -0.0466    2.1192 H   0  0  0  0  0  0  0  0  0  0  0  0
    0.0611    0.6480    2.4019 H   0  0  0  0  0  0  0  0  0  0  0  0
   -0.1249   -1.1023    2.2618 H   0  0  0  0  0  0  0  0  0  0  0  0
   -0.6918   -2.1316    0.1011 H   0  0  0  0  0  0  0  0  0  0  0  0
   -2.0629   -1.0627   -0.2056 H   0  0  0  0  0  0  0  0  0  0  0  0
    0.1528   -1.3298   -1.9125 H   0  0  0  0  0  0  0  0  0  0  0  0
  1  2  1  0
  1  6  1  0
  1  7  1  0
  1  8  1  0
  2  3  1  0
  2  4  1  0
  2  9  1  0
  3 10  1  0
  3 11  1  0
  3 12  1  0
  4  5  1  0
  4 13  1  0
  4 14  1  0
  5 15  1  0
M  END
>  <reaction>  (3) 
rxn_779

>  <mol_properties>  (3) 
{"0": {"label": "a_hydrogen", "atom_type": "H0"}, "2": {"label": "acceptor", "atom_type": "Cs"}}

>  <type>  (3) 
r2h

$$$$

     RDKit          3D

 18 16  0  0  0  0  0  0  0  0999 V2000
    1.0730   -1.6581   -1.2682 O   0  0  0  0  0  0  0  0  0  0  0  0
   -0.1890   -1.7591   -0.6965 O   0  0  0  0  0  0  0  0  0  0  0  0
    1.6437   -2.1096   -0.6353 H   0  0  0  0  0  0  0  0  0  0  0  0
   -0.3361   -0.7109   -0.0642 H   0  0  0  0  0  0  0  0  0  0  0  0
    0.5495    0.3669    1.6630 C   0  0  0  0  0  0  0  0  0  0  0  0
   -0.4507    0.4329    0.5383 C   0  0  0  0  0  3  0  0  0  0  0  0
   -1.8968    0.4698    0.9618 C   0  0  0  0  0  0  0  0  0  0  0  0
   -0.1145    1.4167   -0.5657 C   0  0  0  0  0  0  0  0  0  0  0  0
    1.2026    1.3103   -1.0452 O   0  0  0  0  0  0  0  0  0  0  0  0
    0.5037    1.2887    2.2551 H   0  0  0  0  0  0  0  0  0  0  0  0
    1.5668    0.2766    1.2830 H   0  0  0  0  0  0  0  0  0  0  0  0
    0.3381   -0.4687    2.3320 H   0  0  0  0  0  0  0  0  0  0  0  0
   -2.1140    1.4128    1.4771 H   0  0  0  0  0  0  0  0  0  0  0  0
   -2.5681    0.3960    0.1048 H   0  0  0  0  0  0  0  0  0  0  0  0
   -2.1285   -0.3423    1.6522 H   0  0  0  0  0  0  0  0  0  0  0  0
   -0.2203    2.4354   -0.1731 H   0  0  0  0  0  0  0  0  0  0  0  0
   -0.8444    1.3064   -1.3781 H   0  0  0  0  0  0  0  0  0  0  0  0
    1.3171    0.4219   -1.3999 H   0  0  0  0  0  0  0  0  0  0  0  0
  1  2  1  0
  1  3  1  0
  2  4  1  0
  5  6  1  0
  5 10  1  0
  5 11  1  0
  5 12  1  0
  6  7  1  0
  6  8  1  0
  7 13  1  0
  7 14  1  0
  7 15  1  0
  8  9  1  0
  8 16  1  0
  8 17  1  0
  9 18  1  0
M  RAD  1   6   2
M  END
>  <reaction>  (4) 
rxn_779

>  <mol_properties>  (4) 
{"0": {"label": "*0", "atom_type": "O2s"}, "1": {"label": "*1", "atom_type": "O2s"}, "3": {"label": "*2", "atom_type": "H0"}, "5": {"label": "*3", "atom_type": "Cs"}, "7": {"label": "*4", "atom_type": "Cs"}}

>  <type>  (4) 
ts

$$$$

     RDKit          3D

 18 16  0  0  0  0  0  0  0  0999 V2000
   -0.1642   -1.5273   -1.8949 O   0  0  0  0  0  0  0  0  0  0  0  0
   -0.1642   -1.5273   -0.4703 O   0  0  0  0  0  0  0  0  0  0  0  0
    0.6965   -1.9156   -2.0820 H   0  0  0  0  0  0  0  0  0  0  0  0
   -0.1642   -0.3942   -0.2458 H   0  0  0  0  0  0  0  0  0  0  0  0
   -1.4167    1.2296    0.8131 C   0  0  0  0  0  0  0  0  0  0  0  0
   -0.1642    0.8984    0.0103 C   0  0  0  0  0  3  0  0  0  0  0  0
    0.3788    2.1269   -0.7123 C   0  0  0  0  0  0  0  0  0  0  0  0
    0.9209    0.2923    0.8960 C   0  0  0  0  0  0  0  0  0  0  0  0
    0.5256   -0.8957    1.5510 O   0  0  0  0  0  0  0  0  0  0  0  0
   -1.2017    2.0094    1.5493 H   0  0  0  0  0  0  0  0  0  0  0  0
   -1.7824    0.3549    1.3509 H   0  0  0  0  0  0  0  0  0  0  0  0
   -2.2142    1.5943    0.1628 H   0  0  0  0  0  0  0  0  0  0  0  0
    0.6703    2.8986    0.0056 H   0  0  0  0  0  0  0  0  0  0  0  0
    1.2548    1.8840   -1.3176 H   0  0  0  0  0  0  0  0  0  0  0  0
   -0.3764    2.5578   -1.3716 H   0  0  0  0  0  0  0  0  0  0  0  0
    1.1791    0.9970    1.6911 H   0  0  0  0  0  0  0  0  0  0  0  0
    1.8285    0.1235    0.3013 H   0  0  0  0  0  0  0  0  0  0  0  0
    0.3310   -1.5577    0.8858 H   0  0  0  0  0  0  0  0  0  0  0  0
  1  2  1  0
  1  3  1  0
  2  4  1  0
  5  6  1  0
  5 10  1  0
  5 11  1  0
  5 12  1  0
  6  7  1  0
  6  8  1  0
  7 13  1  0
  7 14  1  0
  7 15  1  0
  8  9  1  0
  8 16  1  0
  8 17  1  0
  9 18  1  0
M  RAD  1   6   2
M  END
>  <reaction>  (5) 
rxn_779

>  <mol_properties>  (5) 
{"0": {"label": "*0", "atom_type": "O2s"}, "1": {"label": "*1", "atom_type": "O2s"}, "3": {"label": "*2", "atom_type": "H0"}, "5": {"label": "*3", "atom_type": "Cs"}, "7": {"label": "*4", "atom_type": "Cs"}}

>  <type>  (5) 
unop_1

>  <geom_source>  (5) 
Heuristics

$$$$

     RDKit          3D

 18 16  0  0  0  0  0  0  0  0999 V2000
    0.3568   -1.7019   -1.7353 O   0  0  0  0  0  0  0  0  0  0  0  0
    0.3568   -1.7019   -0.3106 O   0  0  0  0  0  0  0  0  0  0  0  0
    1.2175   -2.0902   -1.9223 H   0  0  0  0  0  0  0  0  0  0  0  0
    0.3568   -0.5688   -0.0862 H   0  0  0  0  0  0  0  0  0  0  0  0
   -0.3664    1.4390   -0.9653 C   0  0  0  0  0  0  0  0  0  0  0  0
    0.3568    0.7239    0.1699 C   0  0  0  0  0  3  0  0  0  0  0  0
    1.6241    1.4659    0.5818 C   0  0  0  0  0  0  0  0  0  0  0  0
   -0.5543    0.5364    1.3799 C   0  0  0  0  0  0  0  0  0  0  0  0
   -1.7241   -0.2068    1.1041 O   0  0  0  0  0  0  0  0  0  0  0  0
   -0.6315    2.4570   -0.6659 H   0  0  0  0  0  0  0  0  0  0  0  0
   -1.2864    0.9203   -1.2345 H   0  0  0  0  0  0  0  0  0  0  0  0
    0.2659    1.5052   -1.8528 H   0  0  0  0  0  0  0  0  0  0  0  0
    1.3816    2.4650    0.9545 H   0  0  0  0  0  0  0  0  0  0  0  0
    2.1633    0.9358    1.3698 H   0  0  0  0  0  0  0  0  0  0  0  0
    2.3000    1.5850   -0.2665 H   0  0  0  0  0  0  0  0  0  0  0  0
   -0.8997    1.5123    1.7318 H   0  0  0  0  0  0  0  0  0  0  0  0
    0.0134    0.0757    2.1993 H   0  0  0  0  0  0  0  0  0  0  0  0
   -1.4652   -1.0888    0.8324 H   0  0  0  0  0  0  0  0  0  0  0  0
  1  2  1  0
  1  3  1  0
  2  4  1  0
  5  6  1  0
  5 10  1  0
  5 11  1  0
  5 12  1  0
  6  7  1  0
  6  8  1  0
  7 13  1  0
  7 14  1  0
  7 15  1  0
  8  9  1  0
  8 16  1  0
  8 17  1  0
  9 18  1  0
M  RAD  1   6   2
M  END
>  <reaction>  (6) 
rxn_779

>  <mol_properties>  (6) 
{"0": {"label": "*0", "atom_type": "O2s"}, "1": {"label": "*1", "atom_type": "O2s"}, "3": {"label": "*2", "atom_type": "H0"}, "5": {"label": "*3", "atom_type": "Cs"}, "7": {"label": "*4", "atom_type": "Cs"}}

>  <type>  (6) 
unop_2

>  <geom_source>  (6) 
Heuristics

$$$$

     RDKit          3D

 18 16  0  0  0  0  0  0  0  0999 V2000
   -0.3561   -1.6331   -1.7639 O   0  0  0  0  0  0  0  0  0  0  0  0
   -0.3561   -1.6331   -0.3392 O   0  0  0  0  0  0  0  0  0  0  0  0
    0.5047   -2.0214   -1.9510 H   0  0  0  0  0  0  0  0  0  0  0  0
   -0.3561   -0.5000   -0.1148 H   0  0  0  0  0  0  0  0  0  0  0  0
   -1.0792    1.0209    1.4634 C   0  0  0  0  0  0  0  0  0  0  0  0
   -0.3561    0.7926    0.1413 C   0  0  0  0  0  3  0  0  0  0  0  0
   -0.5934    1.9423   -0.8325 C   0  0  0  0  0  0  0  0  0  0  0  0
    1.1417    0.5897    0.3535 C   0  0  0  0  0  0  0  0  0  0  0  0
    1.4566   -0.5052    1.1895 O   0  0  0  0  0  0  0  0  0  0  0  0
   -0.7425    1.9536    1.9251 H   0  0  0  0  0  0  0  0  0  0  0  0
   -0.8813    0.2109    2.1653 H   0  0  0  0  0  0  0  0  0  0  0  0
   -2.1581    1.0926    1.3128 H   0  0  0  0  0  0  0  0  0  0  0  0
   -0.2005    2.8786   -0.4263 H   0  0  0  0  0  0  0  0  0  0  0  0
   -0.1064    1.7633   -1.7936 H   0  0  0  0  0  0  0  0  0  0  0  0
   -1.6594    2.0840   -1.0171 H   0  0  0  0  0  0  0  0  0  0  0  0
    1.5632    1.4697    0.8468 H   0  0  0  0  0  0  0  0  0  0  0  0
    1.6404    0.4902   -0.6198 H   0  0  0  0  0  0  0  0  0  0  0  0
    1.1409   -1.3070    0.7699 H   0  0  0  0  0  0  0  0  0  0  0  0
  1  2  1  0
  1  3  1  0
  2  4  1  0
  5  6  1  0
  5 10  1  0
  5 11  1  0
  5 12  1  0
  6  7  1  0
  6  8  1  0
  7 13  1  0
  7 14  1  0
  7 15  1  0
  8  9  1  0
  8 16  1  0
  8 17  1  0
  9 18  1  0
M  RAD  1   6   2
M  END
>  <reaction>  (7) 
rxn_779

>  <mol_properties>  (7) 
{"0": {"label": "*0", "atom_type": "O2s"}, "1": {"label": "*1", "atom_type": "O2s"}, "3": {"label": "*2", "atom_type": "H0"}, "5": {"label": "*3", "atom_type": "Cs"}, "7": {"label": "*4", "atom_type": "Cs"}}

>  <type>  (7) 
unop_3

>  <geom_source>  (7) 
Heuristics

$$$$

     RDKit          3D

 18 16  0  0  0  0  0  0  0  0999 V2000
    0.1677   -2.0392   -1.4539 O   0  0  0  0  0  0  0  0  0  0  0  0
    0.1677   -2.0392   -0.0293 O   0  0  0  0  0  0  0  0  0  0  0  0
    1.0284   -2.4274   -1.6410 H   0  0  0  0  0  0  0  0  0  0  0  0
    0.1677   -0.9060    0.1952 H   0  0  0  0  0  0  0  0  0  0  0  0
    1.4202    0.9988   -0.1646 C   0  0  0  0  0  0  0  0  0  0  0  0
    0.1677    0.3866    0.4513 C   0  0  0  0  0  3  0  0  0  0  0  0
    0.4348   -0.1383    1.8582 C   0  0  0  0  0  0  0  0  0  0  0  0
   -0.9855    1.3860    0.4778 C   0  0  0  0  0  0  0  0  0  0  0  0
   -1.3494    1.8717   -0.7984 O   0  0  0  0  0  0  0  0  0  0  0  0
    1.7879    1.8198    0.4576 H   0  0  0  0  0  0  0  0  0  0  0  0
    1.2154    1.3989   -1.1576 H   0  0  0  0  0  0  0  0  0  0  0  0
    2.2183    0.2586   -0.2476 H   0  0  0  0  0  0  0  0  0  0  0  0
    0.7359    0.6764    2.5227 H   0  0  0  0  0  0  0  0  0  0  0  0
   -0.4516   -0.6105    2.2872 H   0  0  0  0  0  0  0  0  0  0  0  0
    1.2395   -0.8753    1.8539 H   0  0  0  0  0  0  0  0  0  0  0  0
   -0.6930    2.2659    1.0571 H   0  0  0  0  0  0  0  0  0  0  0  0
   -1.8506    0.9353    0.9821 H   0  0  0  0  0  0  0  0  0  0  0  0
   -1.6554    1.1332   -1.3273 H   0  0  0  0  0  0  0  0  0  0  0  0
  1  2  1  0
  1  3  1  0
  2  4  1  0
  5  6  1  0
  5 10  1  0
  5 11  1  0
  5 12  1  0
  6  7  1  0
  6  8  1  0
  7 13  1  0
  7 14  1  0
  7 15  1  0
  8  9  1  0
  8 16  1  0
  8 17  1  0
  9 18  1  0
M  RAD  1   6   2
M  END
>  <reaction>  (8) 
rxn_779

>  <mol_properties>  (8) 
{"0": {"label": "*0", "atom_type": "O2s"}, "1": {"label": "*1", "atom_type": "O2s"}, "3": {"label": "*2", "atom_type": "H0"}, "5": {"label": "*3", "atom_type": "Cs"}, "7": {"label": "*4", "atom_type": "Cs"}}

>  <type>  (8) 
unop_4

>  <geom_source>  (8) 
Heuristics

$$$$

     RDKit          3D

 18 16  0  0  0  0  0  0  0  0999 V2000
   -0.3796   -1.8625   -1.5380 O   0  0  0  0  0  0  0  0  0  0  0  0
   -0.3796   -1.8625   -0.1134 O   0  0  0  0  0  0  0  0  0  0  0  0
    0.4812   -2.2508   -1.7251 H   0  0  0  0  0  0  0  0  0  0  0  0
   -0.3796   -0.7294    0.1111 H   0  0  0  0  0  0  0  0  0  0  0  0
   -0.3796    0.7539    1.8793 C   0  0  0  0  0  0  0  0  0  0  0  0
   -0.3796    0.5633    0.3672 C   0  0  0  0  0  3  0  0  0  0  0  0
   -1.6225    1.1720   -0.2739 C   0  0  0  0  0  0  0  0  0  0  0  0
    0.8767    1.1524   -0.2685 C   0  0  0  0  0  0  0  0  0  0  0  0
    2.0792    0.5911    0.2173 O   0  0  0  0  0  0  0  0  0  0  0  0
   -0.4237    1.8180    2.1286 H   0  0  0  0  0  0  0  0  0  0  0  0
    0.5251    0.3435    2.3278 H   0  0  0  0  0  0  0  0  0  0  0  0
   -1.2436    0.2672    2.3358 H   0  0  0  0  0  0  0  0  0  0  0  0
   -1.6556    2.2514   -0.1014 H   0  0  0  0  0  0  0  0  0  0  0  0
   -1.6426    1.0042   -1.3529 H   0  0  0  0  0  0  0  0  0  0  0  0
   -2.5312    0.7418    0.1502 H   0  0  0  0  0  0  0  0  0  0  0  0
    0.9351    2.2201   -0.0405 H   0  0  0  0  0  0  0  0  0  0  0  0
    0.8165    1.0540   -1.3606 H   0  0  0  0  0  0  0  0  0  0  0  0
    2.0880   -0.3419   -0.0020 H   0  0  0  0  0  0  0  0  0  0  0  0
  1  2  1  0
  1  3  1  0
  2  4  1  0
  5  6  1  0
  5 10  1  0
  5 11  1  0
  5 12  1  0
  6  7  1  0
  6  8  1  0
  7 13  1  0
  7 14  1  0
  7 15  1  0
  8  9  1  0
  8 16  1  0
  8 17  1  0
  9 18  1  0
M  RAD  1   6   2
M  END
>  <reaction>  (9) 
rxn_779

>  <mol_properties>  (9) 
{"0": {"label": "*0", "atom_type": "O2s"}, "1": {"label": "*1", "atom_type": "O2s"}, "3": {"label": "*2", "atom_type": "H0"}, "5": {"label": "*3", "atom_type": "Cs"}, "7": {"label": "*4", "atom_type": "Cs"}}

>  <type>  (9) 
unop_5

>  <geom_source>  (9) 
Heuristics

$$$$

     RDKit          3D

 18 16  0  0  0  0  0  0  0  0999 V2000
    0.0792   -2.0653   -1.4363 O   0  0  0  0  0  0  0  0  0  0  0  0
    0.0792   -2.0653   -0.0116 O   0  0  0  0  0  0  0  0  0  0  0  0
    0.9400   -2.4536   -1.6234 H   0  0  0  0  0  0  0  0  0  0  0  0
    0.0792   -0.9322    0.2128 H   0  0  0  0  0  0  0  0  0  0  0  0
    1.5255    0.8321    0.5623 C   0  0  0  0  0  0  0  0  0  0  0  0
    0.0792    0.3604    0.4689 C   0  0  0  0  0  3  0  0  0  0  0  0
   -0.3757   -0.3097    1.7613 C   0  0  0  0  0  0  0  0  0  0  0  0
   -0.8604    1.5112    0.1194 C   0  0  0  0  0  0  0  0  0  0  0  0
   -0.5545    2.1462   -1.1054 O   0  0  0  0  0  0  0  0  0  0  0  0
    1.6428    1.5380    1.3896 H   0  0  0  0  0  0  0  0  0  0  0  0
    1.8350    1.3367   -0.3529 H   0  0  0  0  0  0  0  0  0  0  0  0
    2.2009   -0.0070    0.7402 H   0  0  0  0  0  0  0  0  0  0  0  0
   -0.3372    0.3962    2.5956 H   0  0  0  0  0  0  0  0  0  0  0  0
   -1.3997   -0.6814    1.6836 H   0  0  0  0  0  0  0  0  0  0  0  0
    0.2698   -1.1529    2.0122 H   0  0  0  0  0  0  0  0  0  0  0  0
   -0.7846    2.2896    0.8835 H   0  0  0  0  0  0  0  0  0  0  0  0
   -1.8980    1.1515    0.1210 H   0  0  0  0  0  0  0  0  0  0  0  0
   -0.6521    1.5052   -1.8113 H   0  0  0  0  0  0  0  0  0  0  0  0
  1  2  1  0
  1  3  1  0
  2  4  1  0
  5  6  1  0
  5 10  1  0
  5 11  1  0
  5 12  1  0
  6  7  1  0
  6  8  1  0
  7 13  1  0
  7 14  1  0
  7 15  1  0
  8  9  1  0
  8 16  1  0
  8 17  1  0
  9 18  1  0
M  RAD  1   6   2
M  END
>  <reaction>  (10) 
rxn_779

>  <mol_properties>  (10) 
{"0": {"label": "*0", "atom_type": "O2s"}, "1": {"label": "*1", "atom_type": "O2s"}, "3": {"label": "*2", "atom_type": "H0"}, "5": {"label": "*3", "atom_type": "Cs"}, "7": {"label": "*4", "atom_type": "Cs"}}

>  <type>  (10) 
unop_6

>  <geom_source>  (10) 
Heuristics

$$$$

     RDKit          3D

 18 16  0  0  0  0  0  0  0  0999 V2000
   -0.0170   -2.0690   -1.4139 O   0  0  0  0  0  0  0  0  0  0  0  0
   -0.0170   -2.0690    0.0107 O   0  0  0  0  0  0  0  0  0  0  0  0
    0.8437   -2.4573   -1.6010 H   0  0  0  0  0  0  0  0  0  0  0  0
   -0.0170   -0.9359    0.2352 H   0  0  0  0  0  0  0  0  0  0  0  0
    1.2355    0.6879    1.2940 C   0  0  0  0  0  0  0  0  0  0  0  0
   -0.0170    0.3567    0.4912 C   0  0  0  0  0  3  0  0  0  0  0  0
   -1.1122   -0.2271    1.3778 C   0  0  0  0  0  0  0  0  0  0  0  0
   -0.5440    1.5826   -0.2496 C   0  0  0  0  0  0  0  0  0  0  0  0
    0.3855    2.1480   -1.1514 O   0  0  0  0  0  0  0  0  0  0  0  0
    1.0008    1.4033    2.0874 H   0  0  0  0  0  0  0  0  0  0  0  0
    2.0031    1.1324    0.6605 H   0  0  0  0  0  0  0  0  0  0  0  0
    1.6491   -0.2073    1.7624 H   0  0  0  0  0  0  0  0  0  0  0  0
   -1.4185    0.4962    2.1386 H   0  0  0  0  0  0  0  0  0  0  0  0
   -1.9971   -0.4994    0.7986 H   0  0  0  0  0  0  0  0  0  0  0  0
   -0.7607   -1.1214    1.8950 H   0  0  0  0  0  0  0  0  0  0  0  0
   -0.7763    2.3723    0.4700 H   0  0  0  0  0  0  0  0  0  0  0  0
   -1.4784    1.3259   -0.7663 H   0  0  0  0  0  0  0  0  0  0  0  0
    0.5840    1.4988   -1.8280 H   0  0  0  0  0  0  0  0  0  0  0  0
  1  2  1  0
  1  3  1  0
  2  4  1  0
  5  6  1  0
  5 10  1  0
  5 11  1  0
  5 12  1  0
  6  7  1  0
  6  8  1  0
  7 13  1  0
  7 14  1  0
  7 15  1  0
  8  9  1  0
  8 16  1  0
  8 17  1  0
  9 18  1  0
M  RAD  1   6   2
M  END
>  <reaction>  (11) 
rxn_779

>  <mol_properties>  (11) 
{"0": {"label": "*0", "atom_type": "O2s"}, "1": {"label": "*1", "atom_type": "O2s"}, "3": {"label": "*2", "atom_type": "H0"}, "5": {"label": "*3", "atom_type": "Cs"}, "7": {"label": "*4", "atom_type": "Cs"}}

>  <type>  (11) 
unop_7

>  <geom_source>  (11) 
Heuristics

$$$$

     RDKit          3D

 18 16  0  0  0  0  0  0  0  0999 V2000
    0.0510   -1.5206   -1.9199 O   0  0  0  0  0  0  0  0  0  0  0  0
    0.0510   -1.5206   -0.4953 O   0  0  0  0  0  0  0  0  0  0  0  0
    0.9117   -1.9089   -2.1070 H   0  0  0  0  0  0  0  0  0  0  0  0
    0.0510   -0.3875   -0.2708 H   0  0  0  0  0  0  0  0  0  0  0  0
   -1.3953    1.3768    0.0787 C   0  0  0  0  0  0  0  0  0  0  0  0
    0.0510    0.9051   -0.0147 C   0  0  0  0  0  3  0  0  0  0  0  0
    0.9958    2.0573   -0.3404 C   0  0  0  0  0  0  0  0  0  0  0  0
    0.4955    0.2138    1.2713 C   0  0  0  0  0  0  0  0  0  0  0  0
   -0.2843   -0.9143    1.6119 O   0  0  0  0  0  0  0  0  0  0  0  0
   -1.4952    2.1474    0.8486 H   0  0  0  0  0  0  0  0  0  0  0  0
   -2.0613    0.5549    0.3412 H   0  0  0  0  0  0  0  0  0  0  0  0
   -1.7301    1.8046   -0.8682 H   0  0  0  0  0  0  0  0  0  0  0  0
    0.9703    2.8119    0.4508 H   0  0  0  0  0  0  0  0  0  0  0  0
    2.0277    1.7152   -0.4442 H   0  0  0  0  0  0  0  0  0  0  0  0
    0.7084    2.5465   -1.2725 H   0  0  0  0  0  0  0  0  0  0  0  0
    0.3967    0.9067    2.1114 H   0  0  0  0  0  0  0  0  0  0  0  0
    1.5568   -0.0575    1.1945 H   0  0  0  0  0  0  0  0  0  0  0  0
   -0.1902   -1.5682    0.9175 H   0  0  0  0  0  0  0  0  0  0  0  0
  1  2  1  0
  1  3  1  0
  2  4  1  0
  5  6  1  0
  5 10  1  0
  5 11  1  0
  5 12  1  0
  6  7  1  0
  6  8  1  0
  7 13  1  0
  7 14  1  0
  7 15  1  0
  8  9  1  0
  8 16  1  0
  8 17  1  0
  9 18  1  0
M  RAD  1   6   2
M  END
>  <reaction>  (12) 
rxn_779

>  <mol_properties>  (12) 
{"0": {"label": "*0", "atom_type": "O2s"}, "1": {"label": "*1", "atom_type": "O2s"}, "3": {"label": "*2", "atom_type": "H0"}, "5": {"label": "*3", "atom_type": "Cs"}, "7": {"label": "*4", "atom_type": "Cs"}}

>  <type>  (12) 
unop_8

>  <geom_source>  (12) 
Heuristics

$$$$

     RDKit          3D

 18 16  0  0  0  0  0  0  0  0999 V2000
    0.2749   -1.9738   -1.4939 O   0  0  0  0  0  0  0  0  0  0  0  0
    0.2749   -1.9738   -0.0692 O   0  0  0  0  0  0  0  0  0  0  0  0
    1.1357   -2.3621   -1.6809 H   0  0  0  0  0  0  0  0  0  0  0  0
    0.2749   -0.8407    0.1553 H   0  0  0  0  0  0  0  0  0  0  0  0
    0.9981    1.1671   -0.7238 C   0  0  0  0  0  0  0  0  0  0  0  0
    0.2749    0.4520    0.4113 C   0  0  0  0  0  3  0  0  0  0  0  0
    1.1753    0.2842    1.6310 C   0  0  0  0  0  0  0  0  0  0  0  0
   -1.0051    1.1841    0.8049 C   0  0  0  0  0  0  0  0  0  0  0  0
   -1.9325    1.3210   -0.2524 O   0  0  0  0  0  0  0  0  0  0  0  0
    1.3402    2.1528   -0.3958 H   0  0  0  0  0  0  0  0  0  0  0  0
    0.3403    1.3106   -1.5810 H   0  0  0  0  0  0  0  0  0  0  0  0
    1.8727    0.6008   -1.0498 H   0  0  0  0  0  0  0  0  0  0  0  0
    1.4756    1.2591    2.0252 H   0  0  0  0  0  0  0  0  0  0  0  0
    0.6712   -0.2606    2.4321 H   0  0  0  0  0  0  0  0  0  0  0  0
    2.0842   -0.2618    1.3733 H   0  0  0  0  0  0  0  0  0  0  0  0
   -0.7615    2.2027    1.1188 H   0  0  0  0  0  0  0  0  0  0  0  0
   -1.4678    0.6793    1.6634 H   0  0  0  0  0  0  0  0  0  0  0  0
   -2.2067    0.4454   -0.5298 H   0  0  0  0  0  0  0  0  0  0  0  0
  1  2  1  0
  1  3  1  0
  2  4  1  0
  5  6  1  0
  5 10  1  0
  5 11  1  0
  5 12  1  0
  6  7  1  0
  6  8  1  0
  7 13  1  0
  7 14  1  0
  7 15  1  0
  8  9  1  0
  8 16  1  0
  8 17  1  0
  9 18  1  0
M  RAD  1   6   2
M  END
>  <reaction>  (13) 
rxn_779

>  <mol_properties>  (13) 
{"0": {"label": "*0", "atom_type": "O2s"}, "1": {"label": "*1", "atom_type": "O2s"}, "3": {"label": "*2", "atom_type": "H0"}, "5": {"label": "*3", "atom_type": "Cs"}, "7": {"label": "*4", "atom_type": "Cs"}}

>  <type>  (13) 
unop_9

>  <geom_source>  (13) 
Heuristics

$$$$

     RDKit          3D

 18 16  0  0  0  0  0  0  0  0999 V2000
    0.2389   -1.5823   -1.8595 O   0  0  0  0  0  0  0  0  0  0  0  0
    0.2389   -1.5823   -0.4349 O   0  0  0  0  0  0  0  0  0  0  0  0
    1.0996   -1.9706   -2.0466 H   0  0  0  0  0  0  0  0  0  0  0  0
    0.2389   -0.4492   -0.2104 H   0  0  0  0  0  0  0  0  0  0  0  0
   -1.0136    1.4557   -0.5702 C   0  0  0  0  0  0  0  0  0  0  0  0
    0.2389    0.8435    0.0457 C   0  0  0  0  0  3  0  0  0  0  0  0
    1.3863    1.8471    0.0954 C   0  0  0  0  0  0  0  0  0  0  0  0
   -0.0377    0.2978    1.4439 C   0  0  0  0  0  0  0  0  0  0  0  0
   -1.0423   -0.6953    1.4808 O   0  0  0  0  0  0  0  0  0  0  0  0
   -1.3311    2.3309    0.0038 H   0  0  0  0  0  0  0  0  0  0  0  0
   -1.8384    0.7432   -0.5754 H   0  0  0  0  0  0  0  0  0  0  0  0
   -0.8284    1.7780   -1.5967 H   0  0  0  0  0  0  0  0  0  0  0  0
    1.1229    2.7026    0.7237 H   0  0  0  0  0  0  0  0  0  0  0  0
    2.2956    1.3996    0.5024 H   0  0  0  0  0  0  0  0  0  0  0  0
    1.6158    2.2276   -0.9011 H   0  0  0  0  0  0  0  0  0  0  0  0
   -0.3966    1.1060    2.0870 H   0  0  0  0  0  0  0  0  0  0  0  0
    0.8959   -0.0788    1.8825 H   0  0  0  0  0  0  0  0  0  0  0  0
   -0.7464   -1.4446    0.9614 H   0  0  0  0  0  0  0  0  0  0  0  0
  1  2  1  0
  1  3  1  0
  2  4  1  0
  5  6  1  0
  5 10  1  0
  5 11  1  0
  5 12  1  0
  6  7  1  0
  6  8  1  0
  7 13  1  0
  7 14  1  0
  7 15  1  0
  8  9  1  0
  8 16  1  0
  8 17  1  0
  9 18  1  0
M  RAD  1   6   2
M  END
>  <reaction>  (14) 
rxn_779

>  <mol_properties>  (14) 
{"0": {"label": "*0", "atom_type": "O2s"}, "1": {"label": "*1", "atom_type": "O2s"}, "3": {"label": "*2", "atom_type": "H0"}, "5": {"label": "*3", "atom_type": "Cs"}, "7": {"label": "*4", "atom_type": "Cs"}}

>  <type>  (14) 
unop_10

>  <geom_source>  (14) 
Heuristics

$$$$

     RDKit          3D

 18 16  0  0  0  0  0  0  0  0999 V2000
   -0.1796   -2.0304   -1.4112 O   0  0  0  0  0  0  0  0  0  0  0  0
   -0.1796   -2.0304    0.0135 O   0  0  0  0  0  0  0  0  0  0  0  0
    0.6812   -2.4187   -1.5983 H   0  0  0  0  0  0  0  0  0  0  0  0
   -0.1796   -0.8973    0.2379 H   0  0  0  0  0  0  0  0  0  0  0  0
    0.5436    0.6237    1.8161 C   0  0  0  0  0  0  0  0  0  0  0  0
   -0.1796    0.3954    0.4940 C   0  0  0  0  0  3  0  0  0  0  0  0
   -1.6801    0.2159    0.7003 C   0  0  0  0  0  0  0  0  0  0  0  0
    0.0793    1.5359   -0.4866 C   0  0  0  0  0  0  0  0  0  0  0  0
    1.4457    1.7268   -0.7923 O   0  0  0  0  0  0  0  0  0  0  0  0
    0.1452    1.5092    2.3197 H   0  0  0  0  0  0  0  0  0  0  0  0
    1.6106    0.7811    1.6591 H   0  0  0  0  0  0  0  0  0  0  0  0
    0.4144   -0.2286    2.4859 H   0  0  0  0  0  0  0  0  0  0  0  0
   -2.1193    1.1168    1.1379 H   0  0  0  0  0  0  0  0  0  0  0  0
   -2.1952    0.0155   -0.2417 H   0  0  0  0  0  0  0  0  0  0  0  0
   -1.8846   -0.6140    1.3785 H   0  0  0  0  0  0  0  0  0  0  0  0
   -0.2606    2.4783   -0.0487 H   0  0  0  0  0  0  0  0  0  0  0  0
   -0.5036    1.3720   -1.4027 H   0  0  0  0  0  0  0  0  0  0  0  0
    1.7737    0.9344   -1.2203 H   0  0  0  0  0  0  0  0  0  0  0  0
  1  2  1  0
  1  3  1  0
  2  4  1  0
  5  6  1  0
  5 10  1  0
  5 11  1  0
  5 12  1  0
  6  7  1  0
  6  8  1  0
  7 13  1  0
  7 14  1  0
  7 15  1  0
  8  9  1  0
  8 16  1  0
  8 17  1  0
  9 18  1  0
M  RAD  1   6   2
M  END
>  <reaction>  (15) 
rxn_779

>  <mol_properties>  (15) 
{"0": {"label": "*0", "atom_type": "O2s"}, "1": {"label": "*1", "atom_type": "O2s"}, "3": {"label": "*2", "atom_type": "H0"}, "5": {"label": "*3", "atom_type": "Cs"}, "7": {"label": "*4", "atom_type": "Cs"}}

>  <type>  (15) 
unop_11

>  <geom_source>  (15) 
Heuristics

$$$$

     RDKit          3D

 18 16  0  0  0  0  0  0  0  0999 V2000
    0.3634   -1.8517   -1.5925 O   0  0  0  0  0  0  0  0  0  0  0  0
    0.3634   -1.8517   -0.1679 O   0  0  0  0  0  0  0  0  0  0  0  0
    1.2241   -2.2400   -1.7796 H   0  0  0  0  0  0  0  0  0  0  0  0
    0.3634   -0.7186    0.0566 H   0  0  0  0  0  0  0  0  0  0  0  0
    0.3634    1.3268   -1.0126 C   0  0  0  0  0  0  0  0  0  0  0  0
    0.3634    0.5740    0.3127 C   0  0  0  0  0  3  0  0  0  0  0  0
    1.6063    0.8924    1.1374 C   0  0  0  0  0  0  0  0  0  0  0  0
   -0.8929    0.8763    1.1249 C   0  0  0  0  0  0  0  0  0  0  0  0
   -2.0954    0.5427    0.4619 O   0  0  0  0  0  0  0  0  0  0  0  0
    0.4075    2.4056   -0.8374 H   0  0  0  0  0  0  0  0  0  0  0  0
   -0.5413    1.1184   -1.5837 H   0  0  0  0  0  0  0  0  0  0  0  0
    1.2274    1.0509   -1.6202 H   0  0  0  0  0  0  0  0  0  0  0  0
    1.6394    1.9560    1.3894 H   0  0  0  0  0  0  0  0  0  0  0  0
    1.6264    0.3259    2.0710 H   0  0  0  0  0  0  0  0  0  0  0  0
    2.5150    0.6564    0.5813 H   0  0  0  0  0  0  0  0  0  0  0  0
   -0.9513    1.9503    1.3212 H   0  0  0  0  0  0  0  0  0  0  0  0
   -0.8327    0.3690    2.0970 H   0  0  0  0  0  0  0  0  0  0  0  0
   -2.1042   -0.4035    0.3089 H   0  0  0  0  0  0  0  0  0  0  0  0
  1  2  1  0
  1  3  1  0
  2  4  1  0
  5  6  1  0
  5 10  1  0
  5 11  1  0
  5 12  1  0
  6  7  1  0
  6  8  1  0
  7 13  1  0
  7 14  1  0
  7 15  1  0
  8  9  1  0
  8 16  1  0
  8 17  1  0
  9 18  1  0
M  RAD  1   6   2
M  END
>  <reaction>  (16) 
rxn_779

>  <mol_properties>  (16) 
{"0": {"label": "*0", "atom_type": "O2s"}, "1": {"label": "*1", "atom_type": "O2s"}, "3": {"label": "*2", "atom_type": "H0"}, "5": {"label": "*3", "atom_type": "Cs"}, "7": {"label": "*4", "atom_type": "Cs"}}

>  <type>  (16) 
unop_12

>  <geom_source>  (16) 
Heuristics

$$$$

     RDKit          3D

 18 16  0  0  0  0  0  0  0  0999 V2000
   -1.7042    1.0397   -1.4691 O   0  0  0  0  0  0  0  0  0  0  0  0
    3.2326    1.0804   -0.0260 O   0  0  0  0  0  0  0  0  0  0  0  0
    2.0019    0.9156   -0.4619 O   0  0  0  0  0  1  0  0  0  0  0  0
   -0.1668   -0.0435    0.0350 C   0  0  0  0  0  0  0  0  0  0  0  0
   -1.5051    0.6938   -0.1261 C   0  0  0  0  0  0  0  0  0  0  0  0
   -0.1695   -1.3703   -0.7353 C   0  0  0  0  0  0  0  0  0  0  0  0
    0.1347   -0.2901    1.5175 C   0  0  0  0  0  0  0  0  0  0  0  0
    0.7048    0.6494   -0.4104 H   0  0  0  0  0  0  0  0  0  0  0  0
   -2.3407    0.0470    0.2261 H   0  0  0  0  0  0  0  0  0  0  0  0
   -1.4919    1.6214    0.4895 H   0  0  0  0  0  0  0  0  0  0  0  0
    0.8100   -1.8812   -0.6191 H   0  0  0  0  0  0  0  0  0  0  0  0
   -0.9712   -2.0416   -0.3589 H   0  0  0  0  0  0  0  0  0  0  0  0
   -0.3324   -1.1874   -1.8184 H   0  0  0  0  0  0  0  0  0  0  0  0
    1.1177   -0.7951    1.6291 H   0  0  0  0  0  0  0  0  0  0  0  0
    0.1809    0.6757    2.0643 H   0  0  0  0  0  0  0  0  0  0  0  0
   -0.6515   -0.9269    1.9776 H   0  0  0  0  0  0  0  0  0  0  0  0
   -2.5840    1.4973   -1.5084 H   0  0  0  0  0  0  0  0  0  0  0  0
    3.7346    0.3158   -0.4054 H   0  0  0  0  0  0  0  0  0  0  0  0
  1  5  1  0
  1 17  1  0
  2  3  1  0
  2 18  1  0
  4  6  1  0
  4  7  1  0
  4  5  1  0
  4  8  1  0
  5  9  1  0
  5 10  1  0
  6 11  1  0
  6 12  1  0
  6 13  1  0
  7 14  1  0
  7 15  1  0
  7 16  1  0
M  RAD  1   3   2
M  END
>  <reaction>  (17) 
rxn_779

>  <mol_properties>  (17) 
{"0": {"label": "*0", "atom_type": "O2s"}, "1": {"label": "*1", "atom_type": "O2s"}, "3": {"label": "*2", "atom_type": "H0"}, "5": {"label": "*3", "atom_type": "Cs"}, "7": {"label": "*4", "atom_type": "Cs"}}

>  <type>  (17) 
unop_13

>  <geom_source>  (17) 
AutoTST

$$$$
