
     RDKit          3D

  5  4  0  0  0  0  0  0  0  0999 V2000
    0.0000    0.0000    0.0000 C   0  0  0  0  0  0  0  0  0  0  0  0
   -0.6486   -0.7720   -0.4113 H   0  0  0  0  0  0  0  0  0  0  0  0
   -0.3482    0.9787   -0.3267 H   0  0  0  0  0  0  0  0  0  0  0  0
   -0.0223   -0.0487    1.0876 H   0  0  0  0  0  0  0  0  0  0  0  0
    1.0191   -0.1580   -0.3496 H   0  0  0  0  0  0  0  0  0  0  0  0
  1  2  1  0
  1  3  1  0
  1  4  1  0
  1  5  1  0
M  END
>  <reaction>  (1) 
rxn_856

>  <mol_properties>  (1) 
{"0": {"label": "donator", "atom_type": "Cs"}, "1": {"label": "d_hydrogen", "atom_type": "H0"}}

>  <type>  (1) 
r1h

$$$$

     RDKit          3D

 12 11  0  0  0  0  0  0  0  0999 V2000
   -0.9951    0.1196   -0.8321 C   0  0  0  0  0  0  0  0  0  0  0  0
   -0.3760    0.2571    0.5231 C   0  0  0  0  0  3  0  0  0  0  0  0
    0.9330   -0.1537    0.7810 C   0  0  0  0  0  0  0  0  0  0  0  0
    1.5987   -0.1880    1.9734 C   0  0  0  0  0  0  0  0  0  0  0  0
   -1.4483    0.9449    1.7152 S   0  0  0  0  0  0  0  0  0  0  0  0
   -1.9164   -0.4696   -0.7936 H   0  0  0  0  0  0  0  0  0  0  0  0
   -1.2565    1.0958   -1.2506 H   0  0  0  0  0  0  0  0  0  0  0  0
   -0.3088   -0.3780   -1.5170 H   0  0  0  0  0  0  0  0  0  0  0  0
    1.4783   -0.4898   -0.0971 H   0  0  0  0  0  0  0  0  0  0  0  0
    2.6278   -0.5153    2.0142 H   0  0  0  0  0  0  0  0  0  0  0  0
    1.1316    0.0690    2.9151 H   0  0  0  0  0  0  0  0  0  0  0  0
   -0.5306    1.3052    2.6211 H   0  0  0  0  0  0  0  0  0  0  0  0
  1  2  1  0
  1  6  1  0
  1  7  1  0
  1  8  1  0
  2  3  1  0
  2  5  1  0
  3  4  2  3
  3  9  1  0
  4 10  1  0
  4 11  1  0
  5 12  1  0
M  RAD  1   2   2
M  END
>  <reaction>  (2) 
rxn_856

>  <mol_properties>  (2) 
{"1": {"label": "acceptor", "atom_type": "Cs"}}

>  <type>  (2) 
r2

$$$$

     RDKit          3D

 13 12  0  0  0  0  0  0  0  0999 V2000
   -1.1828    0.8269   -0.1645 C   0  0  0  0  0  0  0  0  0  0  0  0
   -0.4827   -0.4584   -0.5736 C   0  0  1  0  0  0  0  0  0  0  0  0
   -0.9759   -1.7030    0.1030 C   0  0  0  0  0  0  0  0  0  0  0  0
   -2.0084   -1.7831    0.9287 C   0  0  0  0  0  0  0  0  0  0  0  0
   -0.4908   -0.7025   -2.3913 S   0  0  0  0  0  0  0  0  0  0  0  0
   -1.0941    0.9860    0.9125 H   0  0  0  0  0  0  0  0  0  0  0  0
   -0.7405    1.6784   -0.6793 H   0  0  0  0  0  0  0  0  0  0  0  0
   -2.2437    0.7943   -0.4195 H   0  0  0  0  0  0  0  0  0  0  0  0
    0.5870   -0.3637   -0.3637 H   0  0  0  0  0  0  0  0  0  0  0  0
   -0.4209   -2.6026   -0.1443 H   0  0  0  0  0  0  0  0  0  0  0  0
   -2.2982   -2.7315    1.3623 H   0  0  0  0  0  0  0  0  0  0  0  0
   -2.5999   -0.9190    1.2055 H   0  0  0  0  0  0  0  0  0  0  0  0
   -1.8040   -0.9489   -2.4971 H   0  0  0  0  0  0  0  0  0  0  0  0
  1  2  1  0
  1  6  1  0
  1  7  1  0
  1  8  1  0
  2  3  1  0
  2  5  1  0
  2  9  1  1
  3  4  2  3
  3 10  1  0
  4 11  1  0
  4 12  1  0
  5 13  1  0
M  END
>  <reaction>  (3) 
rxn_856

>  <mol_properties>  (3) 
{"1": {"label": "acceptor", "atom_type": "Cs"}, "12": {"label": "a_hydrogen", "atom_type": "H0"}}

>  <type>  (3) 
r2h

$$$$

     RDKit          3D

 17 15  0  0  0  0  0  0  0  0999 V2000
   -0.0171   -0.1402    1.6856 C   0  0  0  0  0  0  0  0  0  0  0  0
   -0.0238   -0.0245    0.1792 C   0  0  1  0  0  0  0  0  0  0  0  0
   -1.1751    0.6612   -0.4428 C   0  0  0  0  0  0  0  0  0  0  0  0
   -2.2353    1.1410    0.1999 C   0  0  0  0  0  0  0  0  0  0  0  0
    1.5615    0.4780   -0.5382 S   0  0  0  0  0  0  0  0  0  0  0  0
    0.0468    0.8449    2.1559 H   0  0  0  0  0  0  0  0  0  0  0  0
   -0.9292   -0.6271    2.0384 H   0  0  0  0  0  0  0  0  0  0  0  0
    0.8379   -0.7281    2.0167 H   0  0  0  0  0  0  0  0  0  0  0  0
   -1.1241    0.7529   -1.5234 H   0  0  0  0  0  0  0  0  0  0  0  0
   -3.0433    1.6152   -0.3420 H   0  0  0  0  0  0  0  0  0  0  0  0
   -2.3339    1.0874    1.2771 H   0  0  0  0  0  0  0  0  0  0  0  0
    1.4957    1.7727   -0.1912 H   0  0  0  0  0  0  0  0  0  0  0  0
   -0.1232   -2.6120   -0.6232 C   0  0  0  0  0  3  0  0  0  0  0  0
   -0.0749   -1.2157   -0.2356 H   0  0  0  0  0  0  0  0  0  0  0  0
    0.7144   -3.0538   -0.0945 H   0  0  0  0  0  0  0  0  0  0  0  0
   -1.1038   -2.9168   -0.2738 H   0  0  0  0  0  0  0  0  0  0  0  0
   -0.0125   -2.5627   -1.7010 H   0  0  0  0  0  0  0  0  0  0  0  0
  1  2  1  0
  1  6  1  0
  1  7  1  0
  1  8  1  0
  2  3  1  0
  2  5  1  0
  2 14  1  6
  3  4  2  3
  3  9  1  0
  4 10  1  0
  4 11  1  0
  5 12  1  0
 13 15  1  0
 13 16  1  0
 13 17  1  0
M  RAD  1  13   2
M  END
>  <reaction>  (4) 
rxn_856

>  <mol_properties>  (4) 
{"1": {"label": "*1", "atom_type": "Cs"}, "4": {"label": "*0", "atom_type": "S2s"}, "12": {"label": "*3", "atom_type": "Cs"}, "13": {"label": "*2", "atom_type": "H0"}, "14": {"label": "*4", "atom_type": "H0"}}

>  <type>  (4) 
ts

$$$$

     RDKit          3D

 17 15  0  0  0  0  0  0  0  0999 V2000
   -1.5851    0.3929    0.6649 C   0  0  0  0  0  0  0  0  0  0  0  0
   -0.3408    0.1658   -0.1774 C   0  0  0  0  0  3  0  0  0  0  0  0
    0.3169    1.4079   -0.7014 C   0  0  0  0  0  0  0  0  0  0  0  0
   -0.0313    2.6533   -0.4147 C   0  0  0  0  0  0  0  0  0  0  0  0
    0.9016   -0.8690    0.6884 S   0  0  0  0  0  0  0  0  0  0  0  0
   -1.3508    0.9637    1.5653 H   0  0  0  0  0  0  0  0  0  0  0  0
   -2.3379    0.9436    0.0963 H   0  0  0  0  0  0  0  0  0  0  0  0
   -2.0114   -0.5603    0.9738 H   0  0  0  0  0  0  0  0  0  0  0  0
    1.1617    1.2294   -1.3593 H   0  0  0  0  0  0  0  0  0  0  0  0
    0.5118    3.4904   -0.8337 H   0  0  0  0  0  0  0  0  0  0  0  0
   -0.8620    2.8887    0.2393 H   0  0  0  0  0  0  0  0  0  0  0  0
    1.2396    0.0492    1.6045 H   0  0  0  0  0  0  0  0  0  0  0  0
   -0.3408   -2.3042   -1.0507 C   0  0  0  0  0  0  0  0  0  0  0  0
   -0.3408   -1.0722   -0.6151 H   0  0  0  0  0  0  0  0  0  0  0  0
    0.5483   -2.8175   -0.6877 H   0  0  0  0  0  0  0  0  0  0  0  0
   -1.2299   -2.8175   -0.6877 H   0  0  0  0  0  0  0  0  0  0  0  0
   -0.3408   -2.3042   -2.1396 H   0  0  0  0  0  0  0  0  0  0  0  0
  1  2  1  0
  1  6  1  0
  1  7  1  0
  1  8  1  0
  2  3  1  0
  2  5  1  0
  3  4  2  3
  3  9  1  0
  4 10  1  0
  4 11  1  0
  5 12  1  0
 13 14  1  0
 13 15  1  0
 13 16  1  0
 13 17  1  0
M  RAD  1   2   2
M  END
>  <reaction>  (5) 
rxn_856

>  <mol_properties>  (5) 
{"1": {"label": "*1", "atom_type": "Cs"}, "4": {"label": "*0", "atom_type": "S2s"}, "12": {"label": "*3", "atom_type": "Cs"}, "13": {"label": "*2", "atom_type": "H0"}, "14": {"label": "*4", "atom_type": "H0"}}

>  <type>  (5) 
unop_1

>  <geom_source>  (5) 
Heuristics

$$$$

     RDKit          3D

 17 15  0  0  0  0  0  0  0  0999 V2000
   -0.6401    0.9782   -1.2891 C   0  0  0  0  0  0  0  0  0  0  0  0
    0.0783    0.0969   -0.2809 C   0  0  0  0  0  3  0  0  0  0  0  0
    1.3101    0.6937    0.3328 C   0  0  0  0  0  0  0  0  0  0  0  0
    1.7523    1.9282    0.1471 C   0  0  0  0  0  0  0  0  0  0  0  0
   -1.0434   -0.4952    1.0439 S   0  0  0  0  0  0  0  0  0  0  0  0
   -1.0003    1.8964   -0.8215 H   0  0  0  0  0  0  0  0  0  0  0  0
    0.0307    1.2507   -2.1070 H   0  0  0  0  0  0  0  0  0  0  0  0
   -1.4995    0.4541   -1.7043 H   0  0  0  0  0  0  0  0  0  0  0  0
    1.8528    0.0279    0.9966 H   0  0  0  0  0  0  0  0  0  0  0  0
    2.6493    2.2755    0.6434 H   0  0  0  0  0  0  0  0  0  0  0  0
    1.2476    2.6355   -0.4996 H   0  0  0  0  0  0  0  0  0  0  0  0
   -1.2007    0.6944    1.6410 H   0  0  0  0  0  0  0  0  0  0  0  0
    0.0783   -2.3731   -1.1542 C   0  0  0  0  0  0  0  0  0  0  0  0
    0.0783   -1.1411   -0.7186 H   0  0  0  0  0  0  0  0  0  0  0  0
    0.9674   -2.8865   -0.7912 H   0  0  0  0  0  0  0  0  0  0  0  0
   -0.8108   -2.8865   -0.7912 H   0  0  0  0  0  0  0  0  0  0  0  0
    0.0783   -2.3731   -2.2431 H   0  0  0  0  0  0  0  0  0  0  0  0
  1  2  1  0
  1  6  1  0
  1  7  1  0
  1  8  1  0
  2  3  1  0
  2  5  1  0
  3  4  2  3
  3  9  1  0
  4 10  1  0
  4 11  1  0
  5 12  1  0
 13 14  1  0
 13 15  1  0
 13 16  1  0
 13 17  1  0
M  RAD  1   2   2
M  END
>  <reaction>  (6) 
rxn_856

>  <mol_properties>  (6) 
{"1": {"label": "*1", "atom_type": "Cs"}, "4": {"label": "*0", "atom_type": "S2s"}, "12": {"label": "*3", "atom_type": "Cs"}, "13": {"label": "*2", "atom_type": "H0"}, "14": {"label": "*4", "atom_type": "H0"}}

>  <type>  (6) 
unop_2

>  <geom_source>  (6) 
Heuristics

$$$$

     RDKit          3D

 17 15  0  0  0  0  0  0  0  0999 V2000
   -1.0700    0.0752    1.3819 C   0  0  0  0  0  0  0  0  0  0  0  0
   -0.3515    0.0235    0.0437 C   0  0  0  0  0  3  0  0  0  0  0  0
   -0.4621    1.2626   -0.7942 C   0  0  0  0  0  0  0  0  0  0  0  0
   -1.0341    2.4003   -0.4297 C   0  0  0  0  0  0  0  0  0  0  0  0
    1.4135   -0.4415    0.2234 S   0  0  0  0  0  0  0  0  0  0  0  0
   -0.6565    0.8589    2.0193 H   0  0  0  0  0  0  0  0  0  0  0  0
   -2.1340    0.2762    1.2384 H   0  0  0  0  0  0  0  0  0  0  0  0
   -0.9628   -0.8737    1.9052 H   0  0  0  0  0  0  0  0  0  0  0  0
   -0.0055    1.1870   -1.7761 H   0  0  0  0  0  0  0  0  0  0  0  0
   -1.0562    3.2489   -1.1012 H   0  0  0  0  0  0  0  0  0  0  0  0
   -1.4998    2.5325    0.5392 H   0  0  0  0  0  0  0  0  0  0  0  0
    1.8039    0.7002    0.8070 H   0  0  0  0  0  0  0  0  0  0  0  0
   -0.3515   -2.4465   -0.8295 C   0  0  0  0  0  0  0  0  0  0  0  0
   -0.3515   -1.2146   -0.3940 H   0  0  0  0  0  0  0  0  0  0  0  0
    0.5376   -2.9599   -0.4665 H   0  0  0  0  0  0  0  0  0  0  0  0
   -1.2406   -2.9599   -0.4665 H   0  0  0  0  0  0  0  0  0  0  0  0
   -0.3515   -2.4465   -1.9185 H   0  0  0  0  0  0  0  0  0  0  0  0
  1  2  1  0
  1  6  1  0
  1  7  1  0
  1  8  1  0
  2  3  1  0
  2  5  1  0
  3  4  2  3
  3  9  1  0
  4 10  1  0
  4 11  1  0
  5 12  1  0
 13 14  1  0
 13 15  1  0
 13 16  1  0
 13 17  1  0
M  RAD  1   2   2
M  END
>  <reaction>  (7) 
rxn_856

>  <mol_properties>  (7) 
{"1": {"label": "*1", "atom_type": "Cs"}, "4": {"label": "*0", "atom_type": "S2s"}, "12": {"label": "*3", "atom_type": "Cs"}, "13": {"label": "*2", "atom_type": "H0"}, "14": {"label": "*4", "atom_type": "H0"}}

>  <type>  (7) 
unop_3

>  <geom_source>  (7) 
Heuristics

$$$$

     RDKit          3D

 17 15  0  0  0  0  0  0  0  0999 V2000
    1.3296    0.7978   -0.7884 C   0  0  0  0  0  0  0  0  0  0  0  0
    0.0852    0.0918   -0.2760 C   0  0  0  0  0  3  0  0  0  0  0  0
    0.2370   -0.6013    1.0455 C   0  0  0  0  0  0  0  0  0  0  0  0
    1.3067   -0.5641    1.8257 C   0  0  0  0  0  0  0  0  0  0  0  0
   -1.3702    1.2067   -0.2218 S   0  0  0  0  0  0  0  0  0  0  0  0
    1.6361    1.5955   -0.1092 H   0  0  0  0  0  0  0  0  0  0  0  0
    2.1583    0.0928   -0.8849 H   0  0  0  0  0  0  0  0  0  0  0  0
    1.1369    1.2433   -1.7631 H   0  0  0  0  0  0  0  0  0  0  0  0
   -0.6364   -1.1608    1.3659 H   0  0  0  0  0  0  0  0  0  0  0  0
    1.3203   -1.0895    2.7719 H   0  0  0  0  0  0  0  0  0  0  0  0
    2.2027   -0.0176    1.5581 H   0  0  0  0  0  0  0  0  0  0  0  0
   -0.9325    1.9646    0.7934 H   0  0  0  0  0  0  0  0  0  0  0  0
    0.0852   -2.3782   -1.1493 C   0  0  0  0  0  0  0  0  0  0  0  0
    0.0852   -1.1462   -0.7137 H   0  0  0  0  0  0  0  0  0  0  0  0
    0.9743   -2.8915   -0.7863 H   0  0  0  0  0  0  0  0  0  0  0  0
   -0.8039   -2.8915   -0.7863 H   0  0  0  0  0  0  0  0  0  0  0  0
    0.0852   -2.3782   -2.2382 H   0  0  0  0  0  0  0  0  0  0  0  0
  1  2  1  0
  1  6  1  0
  1  7  1  0
  1  8  1  0
  2  3  1  0
  2  5  1  0
  3  4  2  3
  3  9  1  0
  4 10  1  0
  4 11  1  0
  5 12  1  0
 13 14  1  0
 13 15  1  0
 13 16  1  0
 13 17  1  0
M  RAD  1   2   2
M  END
>  <reaction>  (8) 
rxn_856

>  <mol_properties>  (8) 
{"1": {"label": "*1", "atom_type": "Cs"}, "4": {"label": "*0", "atom_type": "S2s"}, "12": {"label": "*3", "atom_type": "Cs"}, "13": {"label": "*2", "atom_type": "H0"}, "14": {"label": "*4", "atom_type": "H0"}}

>  <type>  (8) 
unop_4

>  <geom_source>  (8) 
Heuristics

$$$$

     RDKit          3D

 17 15  0  0  0  0  0  0  0  0999 V2000
   -0.0633   -0.1320    1.7242 C   0  0  0  0  0  0  0  0  0  0  0  0
   -0.0633   -0.1196    0.2045 C   0  0  0  0  0  3  0  0  0  0  0  0
   -1.2185    0.5937   -0.4330 C   0  0  0  0  0  0  0  0  0  0  0  0
   -2.1569    1.2790    0.2027 C   0  0  0  0  0  0  0  0  0  0  0  0
    1.5110    0.5237   -0.4823 S   0  0  0  0  0  0  0  0  0  0  0  0
    0.0025    0.8812    2.1250 H   0  0  0  0  0  0  0  0  0  0  0  0
   -0.9784   -0.5920    2.1040 H   0  0  0  0  0  0  0  0  0  0  0  0
    0.7901   -0.6960    2.0974 H   0  0  0  0  0  0  0  0  0  0  0  0
   -1.2447    0.5342   -1.5166 H   0  0  0  0  0  0  0  0  0  0  0  0
   -2.9495    1.7720   -0.3452 H   0  0  0  0  0  0  0  0  0  0  0  0
   -2.1763    1.3754    1.2814 H   0  0  0  0  0  0  0  0  0  0  0  0
    1.3235    1.7957   -0.1037 H   0  0  0  0  0  0  0  0  0  0  0  0
   -0.0633   -2.5896   -0.6687 C   0  0  0  0  0  0  0  0  0  0  0  0
   -0.0633   -1.3576   -0.2332 H   0  0  0  0  0  0  0  0  0  0  0  0
    0.8259   -3.1029   -0.3058 H   0  0  0  0  0  0  0  0  0  0  0  0
   -0.9524   -3.1029   -0.3058 H   0  0  0  0  0  0  0  0  0  0  0  0
   -0.0633   -2.5896   -1.7577 H   0  0  0  0  0  0  0  0  0  0  0  0
  1  2  1  0
  1  6  1  0
  1  7  1  0
  1  8  1  0
  2  3  1  0
  2  5  1  0
  3  4  2  3
  3  9  1  0
  4 10  1  0
  4 11  1  0
  5 12  1  0
 13 14  1  0
 13 15  1  0
 13 16  1  0
 13 17  1  0
M  RAD  1   2   2
M  END
>  <reaction>  (9) 
rxn_856

>  <mol_properties>  (9) 
{"1": {"label": "*1", "atom_type": "Cs"}, "4": {"label": "*0", "atom_type": "S2s"}, "12": {"label": "*3", "atom_type": "Cs"}, "13": {"label": "*2", "atom_type": "H0"}, "14": {"label": "*4", "atom_type": "H0"}}

>  <type>  (9) 
unop_5

>  <geom_source>  (9) 
Heuristics

$$$$

     RDKit          3D

 17 15  0  0  0  0  0  0  0  0999 V2000
    1.6464    0.5764   -0.0775 C   0  0  0  0  0  0  0  0  0  0  0  0
    0.2095    0.1098   -0.2424 C   0  0  0  0  0  3  0  0  0  0  0  0
   -0.3424   -0.6901    0.9002 C   0  0  0  0  0  0  0  0  0  0  0  0
    0.2700   -0.9300    2.0499 C   0  0  0  0  0  0  0  0  0  0  0  0
   -0.9281    1.4957   -0.6286 S   0  0  0  0  0  0  0  0  0  0  0  0
    1.7463    1.2438    0.7805 H   0  0  0  0  0  0  0  0  0  0  0  0
    2.3118   -0.2768    0.0729 H   0  0  0  0  0  0  0  0  0  0  0  0
    1.9715    1.1189   -0.9638 H   0  0  0  0  0  0  0  0  0  0  0  0
   -1.3437   -1.0772    0.7394 H   0  0  0  0  0  0  0  0  0  0  0  0
   -0.2138   -1.5114    2.8241 H   0  0  0  0  0  0  0  0  0  0  0  0
    1.2663   -0.5639    2.2653 H   0  0  0  0  0  0  0  0  0  0  0  0
   -0.8650    2.0738    0.5791 H   0  0  0  0  0  0  0  0  0  0  0  0
    0.2095   -2.3602   -1.1157 C   0  0  0  0  0  0  0  0  0  0  0  0
    0.2095   -1.1282   -0.6801 H   0  0  0  0  0  0  0  0  0  0  0  0
    1.0986   -2.8735   -0.7527 H   0  0  0  0  0  0  0  0  0  0  0  0
   -0.6796   -2.8735   -0.7527 H   0  0  0  0  0  0  0  0  0  0  0  0
    0.2095   -2.3602   -2.2046 H   0  0  0  0  0  0  0  0  0  0  0  0
  1  2  1  0
  1  6  1  0
  1  7  1  0
  1  8  1  0
  2  3  1  0
  2  5  1  0
  3  4  2  3
  3  9  1  0
  4 10  1  0
  4 11  1  0
  5 12  1  0
 13 14  1  0
 13 15  1  0
 13 16  1  0
 13 17  1  0
M  RAD  1   2   2
M  END
>  <reaction>  (10) 
rxn_856

>  <mol_properties>  (10) 
{"1": {"label": "*1", "atom_type": "Cs"}, "4": {"label": "*0", "atom_type": "S2s"}, "12": {"label": "*3", "atom_type": "Cs"}, "13": {"label": "*2", "atom_type": "H0"}, "14": {"label": "*4", "atom_type": "H0"}}

>  <type>  (10) 
unop_6

>  <geom_source>  (10) 
Heuristics

$$$$

     RDKit          3D

 17 15  0  0  0  0  0  0  0  0999 V2000
    1.5581    0.2895    0.7326 C   0  0  0  0  0  0  0  0  0  0  0  0
    0.3138    0.0625   -0.1097 C   0  0  0  0  0  3  0  0  0  0  0  0
   -0.8368   -0.5835    0.6036 C   0  0  0  0  0  0  0  0  0  0  0  0
   -0.8890   -0.8717    1.8953 C   0  0  0  0  0  0  0  0  0  0  0  0
   -0.2568    1.6005   -0.9299 S   0  0  0  0  0  0  0  0  0  0  0  0
    1.3519    0.9678    1.5627 H   0  0  0  0  0  0  0  0  0  0  0  0
    1.9204   -0.6553    1.1441 H   0  0  0  0  0  0  0  0  0  0  0  0
    2.3485    0.7310    0.1276 H   0  0  0  0  0  0  0  0  0  0  0  0
   -1.6928   -0.8048   -0.0263 H   0  0  0  0  0  0  0  0  0  0  0  0
   -1.7704   -1.3299    2.3251 H   0  0  0  0  0  0  0  0  0  0  0  0
   -0.0667   -0.6680    2.5701 H   0  0  0  0  0  0  0  0  0  0  0  0
   -0.6749    2.2121    0.1871 H   0  0  0  0  0  0  0  0  0  0  0  0
    0.3138   -2.4075   -0.9829 C   0  0  0  0  0  0  0  0  0  0  0  0
    0.3138   -1.1756   -0.5474 H   0  0  0  0  0  0  0  0  0  0  0  0
    1.2029   -2.9209   -0.6199 H   0  0  0  0  0  0  0  0  0  0  0  0
   -0.5753   -2.9209   -0.6199 H   0  0  0  0  0  0  0  0  0  0  0  0
    0.3138   -2.4075   -2.0719 H   0  0  0  0  0  0  0  0  0  0  0  0
  1  2  1  0
  1  6  1  0
  1  7  1  0
  1  8  1  0
  2  3  1  0
  2  5  1  0
  3  4  2  3
  3  9  1  0
  4 10  1  0
  4 11  1  0
  5 12  1  0
 13 14  1  0
 13 15  1  0
 13 16  1  0
 13 17  1  0
M  RAD  1   2   2
M  END
>  <reaction>  (11) 
rxn_856

>  <mol_properties>  (11) 
{"1": {"label": "*1", "atom_type": "Cs"}, "4": {"label": "*0", "atom_type": "S2s"}, "12": {"label": "*3", "atom_type": "Cs"}, "13": {"label": "*2", "atom_type": "H0"}, "14": {"label": "*4", "atom_type": "H0"}}

>  <type>  (11) 
unop_7

>  <geom_source>  (11) 
Heuristics

$$$$

     RDKit          3D

 17 15  0  0  0  0  0  0  0  0999 V2000
   -1.6205    0.6799   -0.1453 C   0  0  0  0  0  0  0  0  0  0  0  0
   -0.1837    0.2134   -0.3103 C   0  0  0  0  0  3  0  0  0  0  0  0
    0.8402    1.3053   -0.4074 C   0  0  0  0  0  0  0  0  0  0  0  0
    0.6111    2.6020   -0.2647 C   0  0  0  0  0  0  0  0  0  0  0  0
    0.3108   -0.9787    0.9929 S   0  0  0  0  0  0  0  0  0  0  0  0
   -1.7473    1.2397    0.7831 H   0  0  0  0  0  0  0  0  0  0  0  0
   -1.9121    1.3253   -0.9770 H   0  0  0  0  0  0  0  0  0  0  0  0
   -2.2943   -0.1749   -0.1159 H   0  0  0  0  0  0  0  0  0  0  0  0
    1.8522    0.9611   -0.5963 H   0  0  0  0  0  0  0  0  0  0  0  0
    1.4188    3.3186   -0.3411 H   0  0  0  0  0  0  0  0  0  0  0  0
   -0.3773    2.9998   -0.0701 H   0  0  0  0  0  0  0  0  0  0  0  0
    0.3244   -0.0935    1.9993 H   0  0  0  0  0  0  0  0  0  0  0  0
   -0.1837   -2.2566   -1.1836 C   0  0  0  0  0  0  0  0  0  0  0  0
   -0.1837   -1.0246   -0.7480 H   0  0  0  0  0  0  0  0  0  0  0  0
    0.7054   -2.7699   -0.8206 H   0  0  0  0  0  0  0  0  0  0  0  0
   -1.0728   -2.7699   -0.8206 H   0  0  0  0  0  0  0  0  0  0  0  0
   -0.1837   -2.2566   -2.2725 H   0  0  0  0  0  0  0  0  0  0  0  0
  1  2  1  0
  1  6  1  0
  1  7  1  0
  1  8  1  0
  2  3  1  0
  2  5  1  0
  3  4  2  3
  3  9  1  0
  4 10  1  0
  4 11  1  0
  5 12  1  0
 13 14  1  0
 13 15  1  0
 13 16  1  0
 13 17  1  0
M  RAD  1   2   2
M  END
>  <reaction>  (12) 
rxn_856

>  <mol_properties>  (12) 
{"1": {"label": "*1", "atom_type": "Cs"}, "4": {"label": "*0", "atom_type": "S2s"}, "12": {"label": "*3", "atom_type": "Cs"}, "13": {"label": "*2", "atom_type": "H0"}, "14": {"label": "*4", "atom_type": "H0"}}

>  <type>  (12) 
unop_8

>  <geom_source>  (12) 
Heuristics

$$$$

     RDKit          3D

 17 15  0  0  0  0  0  0  0  0999 V2000
    0.7506    0.9267   -1.2554 C   0  0  0  0  0  0  0  0  0  0  0  0
    0.0322    0.0454   -0.2471 C   0  0  0  0  0  3  0  0  0  0  0  0
    0.8190   -0.2982    0.9828 C   0  0  0  0  0  0  0  0  0  0  0  0
    2.0163    0.1725    1.2977 C   0  0  0  0  0  0  0  0  0  0  0  0
   -1.5967    0.7348    0.2379 S   0  0  0  0  0  0  0  0  0  0  0  0
    0.9960    1.8984   -0.8228 H   0  0  0  0  0  0  0  0  0  0  0  0
    1.6787    0.4543   -1.5851 H   0  0  0  0  0  0  0  0  0  0  0  0
    0.1190    1.0973   -2.1258 H   0  0  0  0  0  0  0  0  0  0  0  0
    0.3219   -0.9853    1.6606 H   0  0  0  0  0  0  0  0  0  0  0  0
    2.5041   -0.1254    2.2168 H   0  0  0  0  0  0  0  0  0  0  0  0
    2.5549    0.8639    0.6613 H   0  0  0  0  0  0  0  0  0  0  0  0
   -1.1118    1.7718    0.9350 H   0  0  0  0  0  0  0  0  0  0  0  0
    0.0322   -2.4246   -1.1204 C   0  0  0  0  0  0  0  0  0  0  0  0
    0.0322   -1.1926   -0.6849 H   0  0  0  0  0  0  0  0  0  0  0  0
    0.9213   -2.9379   -0.7574 H   0  0  0  0  0  0  0  0  0  0  0  0
   -0.8569   -2.9379   -0.7574 H   0  0  0  0  0  0  0  0  0  0  0  0
    0.0322   -2.4246   -2.2094 H   0  0  0  0  0  0  0  0  0  0  0  0
  1  2  1  0
  1  6  1  0
  1  7  1  0
  1  8  1  0
  2  3  1  0
  2  5  1  0
  3  4  2  3
  3  9  1  0
  4 10  1  0
  4 11  1  0
  5 12  1  0
 13 14  1  0
 13 15  1  0
 13 16  1  0
 13 17  1  0
M  RAD  1   2   2
M  END
>  <reaction>  (13) 
rxn_856

>  <mol_properties>  (13) 
{"1": {"label": "*1", "atom_type": "Cs"}, "4": {"label": "*0", "atom_type": "S2s"}, "12": {"label": "*3", "atom_type": "Cs"}, "13": {"label": "*2", "atom_type": "H0"}, "14": {"label": "*4", "atom_type": "H0"}}

>  <type>  (13) 
unop_9

>  <geom_source>  (13) 
Heuristics

$$$$

     RDKit          3D

 17 15  0  0  0  0  0  0  0  0999 V2000
   -1.2570    0.8845   -0.8452 C   0  0  0  0  0  0  0  0  0  0  0  0
   -0.0127    0.1785   -0.3328 C   0  0  0  0  0  3  0  0  0  0  0  0
    1.1609    1.0684   -0.0486 C   0  0  0  0  0  0  0  0  0  0  0  0
    1.1678    2.3914   -0.1111 C   0  0  0  0  0  0  0  0  0  0  0  0
   -0.3633   -0.8638    1.1350 S   0  0  0  0  0  0  0  0  0  0  0  0
   -1.6389    1.5921   -0.1070 H   0  0  0  0  0  0  0  0  0  0  0  0
   -1.0359    1.4334   -1.7634 H   0  0  0  0  0  0  0  0  0  0  0  0
   -2.0433    0.1606   -1.0536 H   0  0  0  0  0  0  0  0  0  0  0  0
    2.0643    0.5447    0.2482 H   0  0  0  0  0  0  0  0  0  0  0  0
    2.0633    2.9521    0.1234 H   0  0  0  0  0  0  0  0  0  0  0  0
    0.2940    2.9644   -0.3961 H   0  0  0  0  0  0  0  0  0  0  0  0
   -0.5858    0.1510    1.9818 H   0  0  0  0  0  0  0  0  0  0  0  0
   -0.0127   -2.2915   -1.2061 C   0  0  0  0  0  0  0  0  0  0  0  0
   -0.0127   -1.0595   -0.7705 H   0  0  0  0  0  0  0  0  0  0  0  0
    0.8764   -2.8048   -0.8431 H   0  0  0  0  0  0  0  0  0  0  0  0
   -0.9018   -2.8048   -0.8431 H   0  0  0  0  0  0  0  0  0  0  0  0
   -0.0127   -2.2915   -2.2950 H   0  0  0  0  0  0  0  0  0  0  0  0
  1  2  1  0
  1  6  1  0
  1  7  1  0
  1  8  1  0
  2  3  1  0
  2  5  1  0
  3  4  2  3
  3  9  1  0
  4 10  1  0
  4 11  1  0
  5 12  1  0
 13 14  1  0
 13 15  1  0
 13 16  1  0
 13 17  1  0
M  RAD  1   2   2
M  END
>  <reaction>  (14) 
rxn_856

>  <mol_properties>  (14) 
{"1": {"label": "*1", "atom_type": "Cs"}, "4": {"label": "*0", "atom_type": "S2s"}, "12": {"label": "*3", "atom_type": "Cs"}, "13": {"label": "*2", "atom_type": "H0"}, "14": {"label": "*4", "atom_type": "H0"}}

>  <type>  (14) 
unop_10

>  <geom_source>  (14) 
Heuristics

$$$$

     RDKit          3D

 17 15  0  0  0  0  0  0  0  0999 V2000
    0.9823   -0.0011    1.4319 C   0  0  0  0  0  0  0  0  0  0  0  0
    0.2639   -0.0529    0.0938 C   0  0  0  0  0  3  0  0  0  0  0  0
   -1.2262   -0.2073    0.1691 C   0  0  0  0  0  0  0  0  0  0  0  0
   -1.9544   -0.2017    1.2754 C   0  0  0  0  0  0  0  0  0  0  0  0
    0.6801    1.3813   -0.9711 S   0  0  0  0  0  0  0  0  0  0  0  0
    0.6599    0.8619    2.0174 H   0  0  0  0  0  0  0  0  0  0  0  0
    0.7785   -0.9041    2.0118 H   0  0  0  0  0  0  0  0  0  0  0  0
    2.0576    0.0795    1.2805 H   0  0  0  0  0  0  0  0  0  0  0  0
   -1.7191   -0.3145   -0.7921 H   0  0  0  0  0  0  0  0  0  0  0  0
   -3.0305   -0.3093    1.2305 H   0  0  0  0  0  0  0  0  0  0  0  0
   -1.5156   -0.0928    2.2597 H   0  0  0  0  0  0  0  0  0  0  0  0
    0.0298    2.2968   -0.2393 H   0  0  0  0  0  0  0  0  0  0  0  0
    0.2639   -2.5229   -0.7795 C   0  0  0  0  0  0  0  0  0  0  0  0
    0.2639   -1.2909   -0.3439 H   0  0  0  0  0  0  0  0  0  0  0  0
    1.1530   -3.0362   -0.4165 H   0  0  0  0  0  0  0  0  0  0  0  0
   -0.6252   -3.0362   -0.4165 H   0  0  0  0  0  0  0  0  0  0  0  0
    0.2639   -2.5229   -1.8684 H   0  0  0  0  0  0  0  0  0  0  0  0
  1  2  1  0
  1  6  1  0
  1  7  1  0
  1  8  1  0
  2  3  1  0
  2  5  1  0
  3  4  2  3
  3  9  1  0
  4 10  1  0
  4 11  1  0
  5 12  1  0
 13 14  1  0
 13 15  1  0
 13 16  1  0
 13 17  1  0
M  RAD  1   2   2
M  END
>  <reaction>  (15) 
rxn_856

>  <mol_properties>  (15) 
{"1": {"label": "*1", "atom_type": "Cs"}, "4": {"label": "*0", "atom_type": "S2s"}, "12": {"label": "*3", "atom_type": "Cs"}, "13": {"label": "*2", "atom_type": "H0"}, "14": {"label": "*4", "atom_type": "H0"}}

>  <type>  (15) 
unop_11

>  <geom_source>  (15) 
Heuristics

$$$$

     RDKit          3D

 17 15  0  0  0  0  0  0  0  0999 V2000
    0.0633    0.9810   -1.4240 C   0  0  0  0  0  0  0  0  0  0  0  0
    0.0633    0.0355   -0.2343 C   0  0  0  0  0  3  0  0  0  0  0  0
    1.2185    0.1896    0.7100 C   0  0  0  0  0  0  0  0  0  0  0  0
    2.1569    1.1222    0.6462 C   0  0  0  0  0  0  0  0  0  0  0  0
   -1.5110    0.1042    0.7043 S   0  0  0  0  0  0  0  0  0  0  0  0
   -0.0025    2.0210   -1.0989 H   0  0  0  0  0  0  0  0  0  0  0  0
    0.9784    0.8620   -2.0085 H   0  0  0  0  0  0  0  0  0  0  0  0
   -0.7901    0.7769   -2.0688 H   0  0  0  0  0  0  0  0  0  0  0  0
    1.2447   -0.5378    1.5153 H   0  0  0  0  0  0  0  0  0  0  0  0
    2.9495    1.1613    1.3823 H   0  0  0  0  0  0  0  0  0  0  0  0
    2.1763    1.8751   -0.1321 H   0  0  0  0  0  0  0  0  0  0  0  0
   -1.3235    1.3315    1.2094 H   0  0  0  0  0  0  0  0  0  0  0  0
    0.0633   -2.4345   -1.1075 C   0  0  0  0  0  0  0  0  0  0  0  0
    0.0633   -1.2025   -0.6720 H   0  0  0  0  0  0  0  0  0  0  0  0
    0.9524   -2.9478   -0.7446 H   0  0  0  0  0  0  0  0  0  0  0  0
   -0.8259   -2.9478   -0.7446 H   0  0  0  0  0  0  0  0  0  0  0  0
    0.0633   -2.4345   -2.1965 H   0  0  0  0  0  0  0  0  0  0  0  0
  1  2  1  0
  1  6  1  0
  1  7  1  0
  1  8  1  0
  2  3  1  0
  2  5  1  0
  3  4  2  3
  3  9  1  0
  4 10  1  0
  4 11  1  0
  5 12  1  0
 13 14  1  0
 13 15  1  0
 13 16  1  0
 13 17  1  0
M  RAD  1   2   2
M  END
>  <reaction>  (16) 
rxn_856

>  <mol_properties>  (16) 
{"1": {"label": "*1", "atom_type": "Cs"}, "4": {"label": "*0", "atom_type": "S2s"}, "12": {"label": "*3", "atom_type": "Cs"}, "13": {"label": "*2", "atom_type": "H0"}, "14": {"label": "*4", "atom_type": "H0"}}

>  <type>  (16) 
unop_12

>  <geom_source>  (16) 
Heuristics

$$$$

     RDKit          3D

 17 15  0  0  0  0  0  0  0  0999 V2000
   -0.7030   -0.1895    1.9501 S   0  0  0  0  0  0  0  0  0  0  0  0
   -0.4741   -0.2552    0.1421 C   0  0  0  0  0  3  0  0  0  0  0  0
   -0.9611   -1.6000   -0.3936 C   0  0  0  0  0  0  0  0  0  0  0  0
   -1.2162    0.8826   -0.5070 C   0  0  0  0  0  0  0  0  0  0  0  0
   -0.8023    2.1447   -0.3687 C   0  0  0  0  0  0  0  0  0  0  0  0
    2.1185    0.0288    0.1939 C   0  0  0  0  0  0  0  0  0  0  0  0
    0.9076   -0.1310   -0.1517 H   0  0  0  0  0  0  0  0  0  0  0  0
   -0.8153   -1.6453   -1.4938 H   0  0  0  0  0  0  0  0  0  0  0  0
   -0.3771   -2.4238    0.0677 H   0  0  0  0  0  0  0  0  0  0  0  0
   -2.0382   -1.7475   -0.1625 H   0  0  0  0  0  0  0  0  0  0  0  0
   -2.0877    0.6831   -1.1252 H   0  0  0  0  0  0  0  0  0  0  0  0
    0.0735    2.3833    0.2274 H   0  0  0  0  0  0  0  0  0  0  0  0
   -1.3423    2.9501   -0.8558 H   0  0  0  0  0  0  0  0  0  0  0  0
    2.3037    0.8216   -0.5597 H   0  0  0  0  0  0  0  0  0  0  0  0
    2.3754   -0.9599   -0.2387 H   0  0  0  0  0  0  0  0  0  0  0  0
    2.7470    0.2154    1.0890 H   0  0  0  0  0  0  0  0  0  0  0  0
    0.2915   -1.1575    2.1866 H   0  0  0  0  0  0  0  0  0  0  0  0
  1  2  1  0
  1 17  1  0
  2  3  1  0
  2  4  1  0
  3  8  1  0
  3  9  1  0
  3 10  1  0
  4  5  2  3
  4 11  1  0
  5 12  1  0
  5 13  1  0
  6  7  1  0
  6 14  1  0
  6 15  1  0
  6 16  1  0
M  RAD  1   2   2
M  END
>  <reaction>  (17) 
rxn_856

>  <mol_properties>  (17) 
{"1": {"label": "*1", "atom_type": "Cs"}, "4": {"label": "*0", "atom_type": "S2s"}, "12": {"label": "*3", "atom_type": "Cs"}, "13": {"label": "*2", "atom_type": "H0"}, "14": {"label": "*4", "atom_type": "H0"}}

>  <type>  (17) 
unop_13

>  <geom_source>  (17) 
AutoTST

$$$$
