
     RDKit          3D

 12 11  0  0  0  0  0  0  0  0999 V2000
    1.9877    0.1011    0.4814 C   0  0  0  0  0  0  0  0  0  0  0  0
    0.8179    0.5502    0.0525 C   0  0  0  0  0  0  0  0  0  0  0  0
   -0.2939   -0.2692   -0.5320 C   0  0  0  0  0  0  0  0  0  0  0  0
   -0.0292   -1.7631   -0.6328 C   0  0  0  0  0  0  0  0  0  0  0  0
    2.2522   -0.9490    0.4436 H   0  0  0  0  0  0  0  0  0  0  0  0
    2.7295    0.7757    0.8896 H   0  0  0  0  0  0  0  0  0  0  0  0
    0.6162    1.6164    0.1190 H   0  0  0  0  0  0  0  0  0  0  0  0
   -0.5268    0.1319   -1.5245 H   0  0  0  0  0  0  0  0  0  0  0  0
   -1.1959   -0.0938    0.0644 H   0  0  0  0  0  0  0  0  0  0  0  0
    0.1590   -2.1992    0.3502 H   0  0  0  0  0  0  0  0  0  0  0  0
    0.8382   -1.9701   -1.2626 H   0  0  0  0  0  0  0  0  0  0  0  0
   -0.8879   -2.2759   -1.0672 H   0  0  0  0  0  0  0  0  0  0  0  0
  1  2  2  3
  1  5  1  0
  1  6  1  0
  2  3  1  0
  2  7  1  0
  3  4  1  0
  3  8  1  0
  3  9  1  0
  4 10  1  0
  4 11  1  0
  4 12  1  0
M  END
>  <reaction>  (1) 
rxn_1059

>  <mol_properties>  (1) 
{"2": {"label": "donator", "atom_type": "Cs"}, "7": {"label": "d_hydrogen", "atom_type": "H0"}}

>  <type>  (1) 
r1h

$$$$

     RDKit          3D

  5  4  0  0  0  0  0  0  0  0999 V2000
   -0.5642    0.0794    0.0348 C   0  0  0  0  0  3  0  0  0  0  0  0
    1.0624    0.5420    0.2853 S   0  0  0  0  0  0  0  0  0  0  0  0
   -1.3257    0.7631    0.3741 H   0  0  0  0  0  0  0  0  0  0  0  0
   -0.8236   -0.8519   -0.4401 H   0  0  0  0  0  0  0  0  0  0  0  0
    1.6511   -0.5325   -0.2540 H   0  0  0  0  0  0  0  0  0  0  0  0
  1  2  1  0
  1  3  1  0
  1  4  1  0
  2  5  1  0
M  RAD  1   1   2
M  END
>  <reaction>  (2) 
rxn_1059

>  <mol_properties>  (2) 
{"0": {"label": "acceptor", "atom_type": "Cs"}}

>  <type>  (2) 
r2

$$$$

     RDKit          3D

  6  5  0  0  0  0  0  0  0  0999 V2000
   -0.5072   -0.0291   -0.0097 C   0  0  0  0  0  0  0  0  0  0  0  0
    1.1321   -0.1527   -0.7687 S   0  0  0  0  0  0  0  0  0  0  0  0
   -0.6174   -0.7330    0.8127 H   0  0  0  0  0  0  0  0  0  0  0  0
   -0.5863    0.9827    0.3845 H   0  0  0  0  0  0  0  0  0  0  0  0
   -1.2962   -0.1800   -0.7434 H   0  0  0  0  0  0  0  0  0  0  0  0
    1.0312   -1.4237   -1.1764 H   0  0  0  0  0  0  0  0  0  0  0  0
  1  2  1  0
  1  3  1  0
  1  4  1  0
  1  5  1  0
  2  6  1  0
M  END
>  <reaction>  (3) 
rxn_1059

>  <mol_properties>  (3) 
{"0": {"label": "acceptor", "atom_type": "Cs"}, "5": {"label": "a_hydrogen", "atom_type": "H0"}}

>  <type>  (3) 
r2h

$$$$

     RDKit          3D

 17 15  0  0  0  0  0  0  0  0999 V2000
    0.6706    0.4169    1.5288 C   0  0  0  0  0  3  0  0  0  0  0  0
    1.9863    0.0716    0.4121 S   0  0  0  0  0  0  0  0  0  0  0  0
    0.8418    1.3580    2.0436 H   0  0  0  0  0  0  0  0  0  0  0  0
    0.3977   -0.3963    2.1958 H   0  0  0  0  0  0  0  0  0  0  0  0
    1.4831   -1.0637   -0.0919 H   0  0  0  0  0  0  0  0  0  0  0  0
   -1.1215   -0.8518   -1.9219 C   0  0  0  0  0  0  0  0  0  0  0  0
   -1.6189   -0.5137   -0.7304 C   0  0  0  0  0  0  0  0  0  0  0  0
   -1.4800    0.7873   -0.0727 C   0  0  0  0  0  0  0  0  0  0  0  0
   -1.0273    1.9667   -0.8977 C   0  0  0  0  0  0  0  0  0  0  0  0
   -0.5916   -0.1416   -2.5453 H   0  0  0  0  0  0  0  0  0  0  0  0
   -1.2455   -1.8525   -2.3153 H   0  0  0  0  0  0  0  0  0  0  0  0
   -2.1432   -1.2756   -0.1591 H   0  0  0  0  0  0  0  0  0  0  0  0
   -0.5101    0.6125    0.7684 H   0  0  0  0  0  0  0  0  0  0  0  0
   -2.3144    1.0119    0.5919 H   0  0  0  0  0  0  0  0  0  0  0  0
   -1.7131    2.1596   -1.7275 H   0  0  0  0  0  0  0  0  0  0  0  0
   -0.0341    1.7937   -1.3183 H   0  0  0  0  0  0  0  0  0  0  0  0
   -0.9744    2.8678   -0.2857 H   0  0  0  0  0  0  0  0  0  0  0  0
  1  2  1  0
  1  3  1  0
  1  4  1  0
  2  5  1  0
  6  7  2  3
  6 10  1  0
  6 11  1  0
  7  8  1  0
  7 12  1  0
  8  9  1  0
  8 13  1  0
  8 14  1  0
  9 15  1  0
  9 16  1  0
  9 17  1  0
M  RAD  1   1   2
M  END
>  <reaction>  (4) 
rxn_1059

>  <mol_properties>  (4) 
{"0": {"label": "*3", "atom_type": "Cs"}, "1": {"label": "*4", "atom_type": "S2s"}, "6": {"label": "*0", "atom_type": "Cd"}, "7": {"label": "*1", "atom_type": "Cs"}, "12": {"label": "*2", "atom_type": "H0"}}

>  <type>  (4) 
ts

$$$$

     RDKit          3D

 17 15  0  0  0  0  0  0  0  0999 V2000
    0.7690   -0.4103    1.4435 C   0  0  0  0  0  0  0  0  0  0  0  0
    1.8775    1.0046    1.2253 S   0  0  0  0  0  0  0  0  0  0  0  0
   -0.0599   -0.0580    2.0552 H   0  0  0  0  0  0  0  0  0  0  0  0
    1.2652   -1.2259    1.9654 H   0  0  0  0  0  0  0  0  0  0  0  0
    2.7950    0.3830    0.4745 H   0  0  0  0  0  0  0  0  0  0  0  0
   -1.3104   -1.4522   -2.3603 C   0  0  0  0  0  0  0  0  0  0  0  0
   -1.3104   -1.4522   -1.0360 C   0  0  0  0  0  0  0  0  0  0  0  0
   -1.3104   -0.2477   -0.1426 C   0  0  0  0  0  3  0  0  0  0  0  0
   -1.3104    1.0981   -0.8503 C   0  0  0  0  0  0  0  0  0  0  0  0
   -1.3104   -0.5353   -2.9378 H   0  0  0  0  0  0  0  0  0  0  0  0
   -1.3104   -2.3795   -2.9190 H   0  0  0  0  0  0  0  0  0  0  0  0
   -1.3104   -2.4079   -0.5178 H   0  0  0  0  0  0  0  0  0  0  0  0
   -0.2671   -0.3293    0.6532 H   0  0  0  0  0  0  0  0  0  0  0  0
   -2.1798   -0.3157    0.5206 H   0  0  0  0  0  0  0  0  0  0  0  0
   -2.1928    1.2131   -1.4827 H   0  0  0  0  0  0  0  0  0  0  0  0
   -0.4279    1.2131   -1.4827 H   0  0  0  0  0  0  0  0  0  0  0  0
   -1.3104    1.9124   -0.1250 H   0  0  0  0  0  0  0  0  0  0  0  0
  1  2  1  0
  1  3  1  0
  1  4  1  0
  1 13  1  0
  2  5  1  0
  6  7  2  3
  6 10  1  0
  6 11  1  0
  7  8  1  0
  7 12  1  0
  8  9  1  0
  8 14  1  0
  9 15  1  0
  9 16  1  0
  9 17  1  0
M  RAD  1   8   2
M  END
>  <reaction>  (5) 
rxn_1059

>  <mol_properties>  (5) 
{"0": {"label": "*3", "atom_type": "Cs"}, "1": {"label": "*4", "atom_type": "S2s"}, "6": {"label": "*0", "atom_type": "Cd"}, "7": {"label": "*1", "atom_type": "Cs"}, "12": {"label": "*2", "atom_type": "H0"}}

>  <type>  (5) 
unop_1

>  <geom_source>  (5) 
Heuristics

$$$$

     RDKit          3D

 17 15  0  0  0  0  0  0  0  0999 V2000
    0.6951    0.3194    1.6194 C   0  0  0  0  0  0  0  0  0  0  0  0
    2.0616   -0.5658    0.8272 S   0  0  0  0  0  0  0  0  0  0  0  0
    0.9235    1.3800    1.5276 H   0  0  0  0  0  0  0  0  0  0  0  0
    0.6201    0.0692    2.6756 H   0  0  0  0  0  0  0  0  0  0  0  0
    1.6034   -1.8052    1.0412 H   0  0  0  0  0  0  0  0  0  0  0  0
   -1.3842   -0.7226   -2.1844 C   0  0  0  0  0  0  0  0  0  0  0  0
   -1.3842   -0.7226   -0.8601 C   0  0  0  0  0  0  0  0  0  0  0  0
   -1.3842    0.4819    0.0334 C   0  0  0  0  0  3  0  0  0  0  0  0
   -1.3842    1.8277   -0.6744 C   0  0  0  0  0  0  0  0  0  0  0  0
   -1.3842    0.1943   -2.7619 H   0  0  0  0  0  0  0  0  0  0  0  0
   -1.3842   -1.6499   -2.7431 H   0  0  0  0  0  0  0  0  0  0  0  0
   -1.3842   -1.6783   -0.3419 H   0  0  0  0  0  0  0  0  0  0  0  0
   -0.3410    0.4004    0.8291 H   0  0  0  0  0  0  0  0  0  0  0  0
   -2.2536    0.4140    0.6965 H   0  0  0  0  0  0  0  0  0  0  0  0
   -2.2667    1.9427   -1.3068 H   0  0  0  0  0  0  0  0  0  0  0  0
   -0.5018    1.9427   -1.3068 H   0  0  0  0  0  0  0  0  0  0  0  0
   -1.3842    2.6421    0.0510 H   0  0  0  0  0  0  0  0  0  0  0  0
  1  2  1  0
  1  3  1  0
  1  4  1  0
  1 13  1  0
  2  5  1  0
  6  7  2  3
  6 10  1  0
  6 11  1  0
  7  8  1  0
  7 12  1  0
  8  9  1  0
  8 14  1  0
  9 15  1  0
  9 16  1  0
  9 17  1  0
M  RAD  1   8   2
M  END
>  <reaction>  (6) 
rxn_1059

>  <mol_properties>  (6) 
{"0": {"label": "*3", "atom_type": "Cs"}, "1": {"label": "*4", "atom_type": "S2s"}, "6": {"label": "*0", "atom_type": "Cd"}, "7": {"label": "*1", "atom_type": "Cs"}, "12": {"label": "*2", "atom_type": "H0"}}

>  <type>  (6) 
unop_2

>  <geom_source>  (6) 
Heuristics

$$$$

     RDKit          3D

 17 15  0  0  0  0  0  0  0  0999 V2000
    0.9256   -0.4850    1.2324 C   0  0  0  0  0  0  0  0  0  0  0  0
    1.5343    1.1569    1.6927 S   0  0  0  0  0  0  0  0  0  0  0  0
    0.1784   -0.7542    1.9771 H   0  0  0  0  0  0  0  0  0  0  0  0
    1.7233   -1.2246    1.2560 H   0  0  0  0  0  0  0  0  0  0  0  0
    2.4094    1.2973    0.6895 H   0  0  0  0  0  0  0  0  0  0  0  0
   -1.1538   -1.5270   -2.5715 C   0  0  0  0  0  0  0  0  0  0  0  0
   -1.1538   -1.5270   -1.2471 C   0  0  0  0  0  0  0  0  0  0  0  0
   -1.1538   -0.3225   -0.3537 C   0  0  0  0  0  3  0  0  0  0  0  0
   -1.1538    1.0233   -1.0614 C   0  0  0  0  0  0  0  0  0  0  0  0
   -1.1538   -0.6100   -3.1489 H   0  0  0  0  0  0  0  0  0  0  0  0
   -1.1538   -2.4543   -3.1301 H   0  0  0  0  0  0  0  0  0  0  0  0
   -1.1538   -2.4827   -0.7289 H   0  0  0  0  0  0  0  0  0  0  0  0
   -0.1105   -0.4040    0.4421 H   0  0  0  0  0  0  0  0  0  0  0  0
   -2.0232   -0.3904    0.3095 H   0  0  0  0  0  0  0  0  0  0  0  0
   -2.0362    1.1383   -1.6938 H   0  0  0  0  0  0  0  0  0  0  0  0
   -0.2713    1.1383   -1.6938 H   0  0  0  0  0  0  0  0  0  0  0  0
   -1.1538    1.8377   -0.3361 H   0  0  0  0  0  0  0  0  0  0  0  0
  1  2  1  0
  1  3  1  0
  1  4  1  0
  1 13  1  0
  2  5  1  0
  6  7  2  3
  6 10  1  0
  6 11  1  0
  7  8  1  0
  7 12  1  0
  8  9  1  0
  8 14  1  0
  9 15  1  0
  9 16  1  0
  9 17  1  0
M  RAD  1   8   2
M  END
>  <reaction>  (7) 
rxn_1059

>  <mol_properties>  (7) 
{"0": {"label": "*3", "atom_type": "Cs"}, "1": {"label": "*4", "atom_type": "S2s"}, "6": {"label": "*0", "atom_type": "Cd"}, "7": {"label": "*1", "atom_type": "Cs"}, "12": {"label": "*2", "atom_type": "H0"}}

>  <type>  (7) 
unop_3

>  <geom_source>  (7) 
Heuristics

$$$$

     RDKit          3D

 17 15  0  0  0  0  0  0  0  0999 V2000
    1.1563    0.5015    1.0478 C   0  0  0  0  0  0  0  0  0  0  0  0
    1.0950   -0.9953    2.0648 S   0  0  0  0  0  0  0  0  0  0  0  0
    2.2110    0.7252    0.8960 H   0  0  0  0  0  0  0  0  0  0  0  0
    0.6907    1.3443    1.5543 H   0  0  0  0  0  0  0  0  0  0  0  0
   -0.2380   -1.0958    2.1328 H   0  0  0  0  0  0  0  0  0  0  0  0
   -0.9230   -0.5405   -2.7560 C   0  0  0  0  0  0  0  0  0  0  0  0
   -0.9230   -0.5405   -1.4317 C   0  0  0  0  0  0  0  0  0  0  0  0
   -0.9230    0.6640   -0.5382 C   0  0  0  0  0  3  0  0  0  0  0  0
   -0.9230    2.0098   -1.2459 C   0  0  0  0  0  0  0  0  0  0  0  0
   -0.9230    0.3764   -3.3335 H   0  0  0  0  0  0  0  0  0  0  0  0
   -0.9230   -1.4678   -3.3147 H   0  0  0  0  0  0  0  0  0  0  0  0
   -0.9230   -1.4962   -0.9135 H   0  0  0  0  0  0  0  0  0  0  0  0
    0.1203    0.5825    0.2575 H   0  0  0  0  0  0  0  0  0  0  0  0
   -1.7924    0.5961    0.1249 H   0  0  0  0  0  0  0  0  0  0  0  0
   -1.8055    2.1248   -1.8784 H   0  0  0  0  0  0  0  0  0  0  0  0
   -0.0406    2.1248   -1.8784 H   0  0  0  0  0  0  0  0  0  0  0  0
   -0.9230    2.8241   -0.5206 H   0  0  0  0  0  0  0  0  0  0  0  0
  1  2  1  0
  1  3  1  0
  1  4  1  0
  1 13  1  0
  2  5  1  0
  6  7  2  3
  6 10  1  0
  6 11  1  0
  7  8  1  0
  7 12  1  0
  8  9  1  0
  8 14  1  0
  9 15  1  0
  9 16  1  0
  9 17  1  0
M  RAD  1   8   2
M  END
>  <reaction>  (8) 
rxn_1059

>  <mol_properties>  (8) 
{"0": {"label": "*3", "atom_type": "Cs"}, "1": {"label": "*4", "atom_type": "S2s"}, "6": {"label": "*0", "atom_type": "Cd"}, "7": {"label": "*1", "atom_type": "Cs"}, "12": {"label": "*2", "atom_type": "H0"}}

>  <type>  (8) 
unop_4

>  <geom_source>  (8) 
Heuristics

$$$$

     RDKit          3D

 17 15  0  0  0  0  0  0  0  0999 V2000
    1.0928   -0.4215    1.0269 C   0  0  0  0  0  0  0  0  0  0  0  0
    1.1789    0.9965    2.1494 S   0  0  0  0  0  0  0  0  0  0  0  0
    0.9834   -1.3035    1.6559 H   0  0  0  0  0  0  0  0  0  0  0  0
    2.0054   -0.5210    0.4430 H   0  0  0  0  0  0  0  0  0  0  0  0
    1.3073    1.9433    1.2119 H   0  0  0  0  0  0  0  0  0  0  0  0
   -0.9866   -1.4635   -2.7769 C   0  0  0  0  0  0  0  0  0  0  0  0
   -0.9866   -1.4635   -1.4526 C   0  0  0  0  0  0  0  0  0  0  0  0
   -0.9866   -0.2590   -0.5591 C   0  0  0  0  0  3  0  0  0  0  0  0
   -0.9866    1.0868   -1.2668 C   0  0  0  0  0  0  0  0  0  0  0  0
   -0.9866   -0.5466   -3.3544 H   0  0  0  0  0  0  0  0  0  0  0  0
   -0.9866   -2.3908   -3.3356 H   0  0  0  0  0  0  0  0  0  0  0  0
   -0.9866   -2.4192   -0.9344 H   0  0  0  0  0  0  0  0  0  0  0  0
    0.0567   -0.3405    0.2366 H   0  0  0  0  0  0  0  0  0  0  0  0
   -1.8560   -0.3269    0.1040 H   0  0  0  0  0  0  0  0  0  0  0  0
   -1.8690    1.2018   -1.8993 H   0  0  0  0  0  0  0  0  0  0  0  0
   -0.1041    1.2018   -1.8993 H   0  0  0  0  0  0  0  0  0  0  0  0
   -0.9866    1.9011   -0.5415 H   0  0  0  0  0  0  0  0  0  0  0  0
  1  2  1  0
  1  3  1  0
  1  4  1  0
  1 13  1  0
  2  5  1  0
  6  7  2  3
  6 10  1  0
  6 11  1  0
  7  8  1  0
  7 12  1  0
  8  9  1  0
  8 14  1  0
  9 15  1  0
  9 16  1  0
  9 17  1  0
M  RAD  1   8   2
M  END
>  <reaction>  (9) 
rxn_1059

>  <mol_properties>  (9) 
{"0": {"label": "*3", "atom_type": "Cs"}, "1": {"label": "*4", "atom_type": "S2s"}, "6": {"label": "*0", "atom_type": "Cd"}, "7": {"label": "*1", "atom_type": "Cs"}, "12": {"label": "*2", "atom_type": "H0"}}

>  <type>  (9) 
unop_5

>  <geom_source>  (9) 
Heuristics

$$$$

     RDKit          3D

 17 15  0  0  0  0  0  0  0  0999 V2000
    1.2639    0.3019    0.8886 C   0  0  0  0  0  0  0  0  0  0  0  0
    0.8595   -0.5778    2.4187 S   0  0  0  0  0  0  0  0  0  0  0  0
    2.3434    0.2262    0.7684 H   0  0  0  0  0  0  0  0  0  0  0  0
    0.9933    1.3537    0.9527 H   0  0  0  0  0  0  0  0  0  0  0  0
   -0.4630   -0.3735    2.3836 H   0  0  0  0  0  0  0  0  0  0  0  0
   -0.8155   -0.7401   -2.9152 C   0  0  0  0  0  0  0  0  0  0  0  0
   -0.8155   -0.7401   -1.5908 C   0  0  0  0  0  0  0  0  0  0  0  0
   -0.8155    0.4644   -0.6974 C   0  0  0  0  0  3  0  0  0  0  0  0
   -0.8155    1.8102   -1.4051 C   0  0  0  0  0  0  0  0  0  0  0  0
   -0.8155    0.1769   -3.4926 H   0  0  0  0  0  0  0  0  0  0  0  0
   -0.8155   -1.6674   -3.4739 H   0  0  0  0  0  0  0  0  0  0  0  0
   -0.8155   -1.6958   -1.0727 H   0  0  0  0  0  0  0  0  0  0  0  0
    0.2278    0.3829    0.0984 H   0  0  0  0  0  0  0  0  0  0  0  0
   -1.6849    0.3965   -0.0343 H   0  0  0  0  0  0  0  0  0  0  0  0
   -1.6979    1.9252   -2.0375 H   0  0  0  0  0  0  0  0  0  0  0  0
    0.0670    1.9252   -2.0375 H   0  0  0  0  0  0  0  0  0  0  0  0
   -0.8155    2.6246   -0.6798 H   0  0  0  0  0  0  0  0  0  0  0  0
  1  2  1  0
  1  3  1  0
  1  4  1  0
  1 13  1  0
  2  5  1  0
  6  7  2  3
  6 10  1  0
  6 11  1  0
  7  8  1  0
  7 12  1  0
  8  9  1  0
  8 14  1  0
  9 15  1  0
  9 16  1  0
  9 17  1  0
M  RAD  1   8   2
M  END
>  <reaction>  (10) 
rxn_1059

>  <mol_properties>  (10) 
{"0": {"label": "*3", "atom_type": "Cs"}, "1": {"label": "*4", "atom_type": "S2s"}, "6": {"label": "*0", "atom_type": "Cd"}, "7": {"label": "*1", "atom_type": "Cs"}, "12": {"label": "*2", "atom_type": "H0"}}

>  <type>  (10) 
unop_6

>  <geom_source>  (10) 
Heuristics

$$$$

     RDKit          3D

 17 15  0  0  0  0  0  0  0  0999 V2000
    1.2906    0.0328    0.8262 C   0  0  0  0  0  0  0  0  0  0  0  0
    0.7918   -0.0050    2.5663 S   0  0  0  0  0  0  0  0  0  0  0  0
    2.2865   -0.4051    0.7838 H   0  0  0  0  0  0  0  0  0  0  0  0
    1.3422    1.0526    0.4505 H   0  0  0  0  0  0  0  0  0  0  0  0
   -0.4128    0.5564    2.4063 H   0  0  0  0  0  0  0  0  0  0  0  0
   -0.7887   -1.0091   -2.9777 C   0  0  0  0  0  0  0  0  0  0  0  0
   -0.7887   -1.0091   -1.6533 C   0  0  0  0  0  0  0  0  0  0  0  0
   -0.7887    0.1954   -0.7599 C   0  0  0  0  0  3  0  0  0  0  0  0
   -0.7887    1.5412   -1.4676 C   0  0  0  0  0  0  0  0  0  0  0  0
   -0.7887   -0.0922   -3.5551 H   0  0  0  0  0  0  0  0  0  0  0  0
   -0.7887   -1.9364   -3.5364 H   0  0  0  0  0  0  0  0  0  0  0  0
   -0.7887   -1.9648   -1.1351 H   0  0  0  0  0  0  0  0  0  0  0  0
    0.2545    0.1138    0.0359 H   0  0  0  0  0  0  0  0  0  0  0  0
   -1.6581    0.1274   -0.0967 H   0  0  0  0  0  0  0  0  0  0  0  0
   -1.6712    1.6562   -2.1000 H   0  0  0  0  0  0  0  0  0  0  0  0
    0.0937    1.6562   -2.1000 H   0  0  0  0  0  0  0  0  0  0  0  0
   -0.7887    2.3555   -0.7423 H   0  0  0  0  0  0  0  0  0  0  0  0
  1  2  1  0
  1  3  1  0
  1  4  1  0
  1 13  1  0
  2  5  1  0
  6  7  2  3
  6 10  1  0
  6 11  1  0
  7  8  1  0
  7 12  1  0
  8  9  1  0
  8 14  1  0
  9 15  1  0
  9 16  1  0
  9 17  1  0
M  RAD  1   8   2
M  END
>  <reaction>  (11) 
rxn_1059

>  <mol_properties>  (11) 
{"0": {"label": "*3", "atom_type": "Cs"}, "1": {"label": "*4", "atom_type": "S2s"}, "6": {"label": "*0", "atom_type": "Cd"}, "7": {"label": "*1", "atom_type": "Cs"}, "12": {"label": "*2", "atom_type": "H0"}}

>  <type>  (11) 
unop_7

>  <geom_source>  (11) 
Heuristics

$$$$

     RDKit          3D

 17 15  0  0  0  0  0  0  0  0999 V2000
    0.6623   -0.2138    1.6036 C   0  0  0  0  0  0  0  0  0  0  0  0
    2.1139    0.5839    0.8723 S   0  0  0  0  0  0  0  0  0  0  0  0
    0.0416    0.5868    2.0026 H   0  0  0  0  0  0  0  0  0  0  0  0
    0.9430   -0.8766    2.4195 H   0  0  0  0  0  0  0  0  0  0  0  0
    2.7244   -0.5318    0.4551 H   0  0  0  0  0  0  0  0  0  0  0  0
   -1.4171   -1.2557   -2.2002 C   0  0  0  0  0  0  0  0  0  0  0  0
   -1.4171   -1.2557   -0.8759 C   0  0  0  0  0  0  0  0  0  0  0  0
   -1.4171   -0.0512    0.0176 C   0  0  0  0  0  3  0  0  0  0  0  0
   -1.4171    1.2945   -0.6901 C   0  0  0  0  0  0  0  0  0  0  0  0
   -1.4171   -0.3388   -2.7777 H   0  0  0  0  0  0  0  0  0  0  0  0
   -1.4171   -2.1831   -2.7589 H   0  0  0  0  0  0  0  0  0  0  0  0
   -1.4171   -2.2115   -0.3577 H   0  0  0  0  0  0  0  0  0  0  0  0
   -0.3738   -0.1328    0.8133 H   0  0  0  0  0  0  0  0  0  0  0  0
   -2.2865   -0.1192    0.6807 H   0  0  0  0  0  0  0  0  0  0  0  0
   -2.2995    1.4095   -1.3225 H   0  0  0  0  0  0  0  0  0  0  0  0
   -0.5347    1.4095   -1.3225 H   0  0  0  0  0  0  0  0  0  0  0  0
   -1.4171    2.1089    0.0352 H   0  0  0  0  0  0  0  0  0  0  0  0
  1  2  1  0
  1  3  1  0
  1  4  1  0
  1 13  1  0
  2  5  1  0
  6  7  2  3
  6 10  1  0
  6 11  1  0
  7  8  1  0
  7 12  1  0
  8  9  1  0
  8 14  1  0
  9 15  1  0
  9 16  1  0
  9 17  1  0
M  RAD  1   8   2
M  END
>  <reaction>  (12) 
rxn_1059

>  <mol_properties>  (12) 
{"0": {"label": "*3", "atom_type": "Cs"}, "1": {"label": "*4", "atom_type": "S2s"}, "6": {"label": "*0", "atom_type": "Cd"}, "7": {"label": "*1", "atom_type": "Cs"}, "12": {"label": "*2", "atom_type": "H0"}}

>  <type>  (12) 
unop_8

>  <geom_source>  (12) 
Heuristics

$$$$

     RDKit          3D

 17 15  0  0  0  0  0  0  0  0999 V2000
    0.9969    0.5784    1.2606 C   0  0  0  0  0  0  0  0  0  0  0  0
    1.4354   -1.1455    1.5990 S   0  0  0  0  0  0  0  0  0  0  0  0
    1.9327    1.0994    1.0652 H   0  0  0  0  0  0  0  0  0  0  0  0
    0.5134    1.0403    2.1188 H   0  0  0  0  0  0  0  0  0  0  0  0
    0.1919   -1.5960    1.8058 H   0  0  0  0  0  0  0  0  0  0  0  0
   -1.0825   -0.4636   -2.5433 C   0  0  0  0  0  0  0  0  0  0  0  0
   -1.0825   -0.4636   -1.2189 C   0  0  0  0  0  0  0  0  0  0  0  0
   -1.0825    0.7409   -0.3255 C   0  0  0  0  0  3  0  0  0  0  0  0
   -1.0825    2.0867   -1.0332 C   0  0  0  0  0  0  0  0  0  0  0  0
   -1.0825    0.4533   -3.1207 H   0  0  0  0  0  0  0  0  0  0  0  0
   -1.0825   -1.3909   -3.1019 H   0  0  0  0  0  0  0  0  0  0  0  0
   -1.0825   -1.4193   -0.7007 H   0  0  0  0  0  0  0  0  0  0  0  0
   -0.0392    0.6594    0.4703 H   0  0  0  0  0  0  0  0  0  0  0  0
   -1.9519    0.6730    0.3377 H   0  0  0  0  0  0  0  0  0  0  0  0
   -1.9649    2.2017   -1.6656 H   0  0  0  0  0  0  0  0  0  0  0  0
   -0.2001    2.2017   -1.6656 H   0  0  0  0  0  0  0  0  0  0  0  0
   -1.0825    2.9010   -0.3079 H   0  0  0  0  0  0  0  0  0  0  0  0
  1  2  1  0
  1  3  1  0
  1  4  1  0
  1 13  1  0
  2  5  1  0
  6  7  2  3
  6 10  1  0
  6 11  1  0
  7  8  1  0
  7 12  1  0
  8  9  1  0
  8 14  1  0
  9 15  1  0
  9 16  1  0
  9 17  1  0
M  RAD  1   8   2
M  END
>  <reaction>  (13) 
rxn_1059

>  <mol_properties>  (13) 
{"0": {"label": "*3", "atom_type": "Cs"}, "1": {"label": "*4", "atom_type": "S2s"}, "6": {"label": "*0", "atom_type": "Cd"}, "7": {"label": "*1", "atom_type": "Cs"}, "12": {"label": "*2", "atom_type": "H0"}}

>  <type>  (13) 
unop_9

>  <geom_source>  (13) 
Heuristics

$$$$

     RDKit          3D

 17 15  0  0  0  0  0  0  0  0999 V2000
    0.6348    0.0533    1.6683 C   0  0  0  0  0  0  0  0  0  0  0  0
    2.1808    0.0092    0.7270 S   0  0  0  0  0  0  0  0  0  0  0  0
    0.3926    1.1054    1.8098 H   0  0  0  0  0  0  0  0  0  0  0  0
    0.7518   -0.4117    2.6450 H   0  0  0  0  0  0  0  0  0  0  0  0
    2.2986   -1.3227    0.6628 H   0  0  0  0  0  0  0  0  0  0  0  0
   -1.4446   -0.9886   -2.1355 C   0  0  0  0  0  0  0  0  0  0  0  0
   -1.4446   -0.9886   -0.8112 C   0  0  0  0  0  0  0  0  0  0  0  0
   -1.4446    0.2159    0.0823 C   0  0  0  0  0  3  0  0  0  0  0  0
   -1.4446    1.5616   -0.6254 C   0  0  0  0  0  0  0  0  0  0  0  0
   -1.4446   -0.0717   -2.7129 H   0  0  0  0  0  0  0  0  0  0  0  0
   -1.4446   -1.9159   -2.6942 H   0  0  0  0  0  0  0  0  0  0  0  0
   -1.4446   -1.9443   -0.2930 H   0  0  0  0  0  0  0  0  0  0  0  0
   -0.4013    0.1343    0.8781 H   0  0  0  0  0  0  0  0  0  0  0  0
   -2.3140    0.1479    0.7454 H   0  0  0  0  0  0  0  0  0  0  0  0
   -2.3270    1.6767   -1.2578 H   0  0  0  0  0  0  0  0  0  0  0  0
   -0.5622    1.6767   -1.2578 H   0  0  0  0  0  0  0  0  0  0  0  0
   -1.4446    2.3760    0.0999 H   0  0  0  0  0  0  0  0  0  0  0  0
  1  2  1  0
  1  3  1  0
  1  4  1  0
  1 13  1  0
  2  5  1  0
  6  7  2  3
  6 10  1  0
  6 11  1  0
  7  8  1  0
  7 12  1  0
  8  9  1  0
  8 14  1  0
  9 15  1  0
  9 16  1  0
  9 17  1  0
M  RAD  1   8   2
M  END
>  <reaction>  (14) 
rxn_1059

>  <mol_properties>  (14) 
{"0": {"label": "*3", "atom_type": "Cs"}, "1": {"label": "*4", "atom_type": "S2s"}, "6": {"label": "*0", "atom_type": "Cd"}, "7": {"label": "*1", "atom_type": "Cs"}, "12": {"label": "*2", "atom_type": "H0"}}

>  <type>  (14) 
unop_10

>  <geom_source>  (14) 
Heuristics

$$$$

     RDKit          3D

 17 15  0  0  0  0  0  0  0  0999 V2000
    1.2282   -0.2330    0.8775 C   0  0  0  0  0  0  0  0  0  0  0  0
    0.9089    0.5702    2.4685 S   0  0  0  0  0  0  0  0  0  0  0  0
    1.8959   -1.0677    1.0847 H   0  0  0  0  0  0  0  0  0  0  0  0
    1.7218    0.4441    0.1835 H   0  0  0  0  0  0  0  0  0  0  0  0
    0.0994    1.5325    2.0096 H   0  0  0  0  0  0  0  0  0  0  0  0
   -0.8512   -1.2749   -2.9263 C   0  0  0  0  0  0  0  0  0  0  0  0
   -0.8512   -1.2749   -1.6020 C   0  0  0  0  0  0  0  0  0  0  0  0
   -0.8512   -0.0704   -0.7085 C   0  0  0  0  0  3  0  0  0  0  0  0
   -0.8512    1.2753   -1.4162 C   0  0  0  0  0  0  0  0  0  0  0  0
   -0.8512   -0.3580   -3.5038 H   0  0  0  0  0  0  0  0  0  0  0  0
   -0.8512   -2.2023   -3.4850 H   0  0  0  0  0  0  0  0  0  0  0  0
   -0.8512   -2.2306   -1.0838 H   0  0  0  0  0  0  0  0  0  0  0  0
    0.1921   -0.1520    0.0872 H   0  0  0  0  0  0  0  0  0  0  0  0
   -1.7206   -0.1384   -0.0454 H   0  0  0  0  0  0  0  0  0  0  0  0
   -1.7336    1.3904   -2.0487 H   0  0  0  0  0  0  0  0  0  0  0  0
    0.0313    1.3903   -2.0487 H   0  0  0  0  0  0  0  0  0  0  0  0
   -0.8512    2.0897   -0.6909 H   0  0  0  0  0  0  0  0  0  0  0  0
  1  2  1  0
  1  3  1  0
  1  4  1  0
  1 13  1  0
  2  5  1  0
  6  7  2  3
  6 10  1  0
  6 11  1  0
  7  8  1  0
  7 12  1  0
  8  9  1  0
  8 14  1  0
  9 15  1  0
  9 16  1  0
  9 17  1  0
M  RAD  1   8   2
M  END
>  <reaction>  (15) 
rxn_1059

>  <mol_properties>  (15) 
{"0": {"label": "*3", "atom_type": "Cs"}, "1": {"label": "*4", "atom_type": "S2s"}, "6": {"label": "*0", "atom_type": "Cd"}, "7": {"label": "*1", "atom_type": "Cs"}, "12": {"label": "*2", "atom_type": "H0"}}

>  <type>  (15) 
unop_11

>  <geom_source>  (15) 
Heuristics

$$$$

     RDKit          3D

 17 15  0  0  0  0  0  0  0  0999 V2000
    0.8279    0.5118    1.4699 C   0  0  0  0  0  0  0  0  0  0  0  0
    1.7890   -0.9881    1.1461 S   0  0  0  0  0  0  0  0  0  0  0  0
    1.4906    1.3505    1.2630 H   0  0  0  0  0  0  0  0  0  0  0  0
    0.5136    0.5645    2.5102 H   0  0  0  0  0  0  0  0  0  0  0  0
    0.8284   -1.8699    1.4489 H   0  0  0  0  0  0  0  0  0  0  0  0
   -1.2515   -0.5301   -2.3339 C   0  0  0  0  0  0  0  0  0  0  0  0
   -1.2515   -0.5301   -1.0096 C   0  0  0  0  0  0  0  0  0  0  0  0
   -1.2515    0.6744   -0.1161 C   0  0  0  0  0  3  0  0  0  0  0  0
   -1.2515    2.0202   -0.8238 C   0  0  0  0  0  0  0  0  0  0  0  0
   -1.2515    0.3868   -2.9114 H   0  0  0  0  0  0  0  0  0  0  0  0
   -1.2515   -1.4574   -2.8926 H   0  0  0  0  0  0  0  0  0  0  0  0
   -1.2515   -1.4858   -0.4914 H   0  0  0  0  0  0  0  0  0  0  0  0
   -0.2082    0.5928    0.6796 H   0  0  0  0  0  0  0  0  0  0  0  0
   -2.1209    0.6064    0.5470 H   0  0  0  0  0  0  0  0  0  0  0  0
   -2.1339    2.1352   -1.4563 H   0  0  0  0  0  0  0  0  0  0  0  0
   -0.3691    2.1352   -1.4563 H   0  0  0  0  0  0  0  0  0  0  0  0
   -1.2515    2.8345   -0.0985 H   0  0  0  0  0  0  0  0  0  0  0  0
  1  2  1  0
  1  3  1  0
  1  4  1  0
  1 13  1  0
  2  5  1  0
  6  7  2  3
  6 10  1  0
  6 11  1  0
  7  8  1  0
  7 12  1  0
  8  9  1  0
  8 14  1  0
  9 15  1  0
  9 16  1  0
  9 17  1  0
M  RAD  1   8   2
M  END
>  <reaction>  (16) 
rxn_1059

>  <mol_properties>  (16) 
{"0": {"label": "*3", "atom_type": "Cs"}, "1": {"label": "*4", "atom_type": "S2s"}, "6": {"label": "*0", "atom_type": "Cd"}, "7": {"label": "*1", "atom_type": "Cs"}, "12": {"label": "*2", "atom_type": "H0"}}

>  <type>  (16) 
unop_12

>  <geom_source>  (16) 
Heuristics

$$$$

     RDKit          3D

 17 15  0  0  0  0  0  0  0  0999 V2000
    3.3196    0.0206   -0.1991 S   0  0  0  0  0  0  0  0  0  0  0  0
   -1.8469   -0.9829   -0.4112 C   0  0  0  0  0  0  0  0  0  0  0  0
    1.9826   -1.1128    0.2707 C   0  0  0  0  0  0  0  0  0  0  0  0
   -0.4924   -0.3406   -0.1379 C   0  0  0  0  0  3  0  0  0  0  0  0
   -0.6308    1.0078    0.5074 C   0  0  0  0  0  0  0  0  0  0  0  0
   -1.0840    2.0681   -0.1674 C   0  0  0  0  0  0  0  0  0  0  0  0
   -2.4221   -0.3818   -1.1470 H   0  0  0  0  0  0  0  0  0  0  0  0
   -1.6919   -2.0009   -0.8249 H   0  0  0  0  0  0  0  0  0  0  0  0
   -2.4265   -1.0674    0.5324 H   0  0  0  0  0  0  0  0  0  0  0  0
    1.9254   -1.9405   -0.4657 H   0  0  0  0  0  0  0  0  0  0  0  0
    2.1853   -1.5304    1.2785 H   0  0  0  0  0  0  0  0  0  0  0  0
    0.8713   -0.4810    0.2859 H   0  0  0  0  0  0  0  0  0  0  0  0
    0.1066   -0.2700   -1.0715 H   0  0  0  0  0  0  0  0  0  0  0  0
   -0.3239    1.1244    1.5417 H   0  0  0  0  0  0  0  0  0  0  0  0
   -1.1587    3.0328    0.3238 H   0  0  0  0  0  0  0  0  0  0  0  0
   -1.3787    1.9835   -1.2091 H   0  0  0  0  0  0  0  0  0  0  0  0
    3.0651    0.8712    0.8934 H   0  0  0  0  0  0  0  0  0  0  0  0
  1  3  1  0
  1 17  1  0
  2  4  1  0
  2  7  1  0
  2  8  1  0
  2  9  1  0
  3 10  1  0
  3 11  1  0
  3 12  1  0
  4  5  1  0
  4 13  1  0
  5  6  2  3
  5 14  1  0
  6 15  1  0
  6 16  1  0
M  RAD  1   4   2
M  END
>  <reaction>  (17) 
rxn_1059

>  <mol_properties>  (17) 
{"0": {"label": "*3", "atom_type": "Cs"}, "1": {"label": "*4", "atom_type": "S2s"}, "6": {"label": "*0", "atom_type": "Cd"}, "7": {"label": "*1", "atom_type": "Cs"}, "12": {"label": "*2", "atom_type": "H0"}}

>  <type>  (17) 
unop_13

>  <geom_source>  (17) 
AutoTST

$$$$
