
     RDKit          3D

  7  6  0  0  0  0  0  0  0  0999 V2000
   -0.6782    0.0507    0.0301 C   0  0  0  0  0  0  0  0  0  0  0  0
    0.8092    0.0996    0.0213 C   0  0  0  0  0  0  0  0  0  0  0  0
    1.7473    0.7521    1.1507 S   0  0  0  0  0  0  0  0  0  0  0  0
   -1.0667    0.5456   -0.8653 H   0  0  0  0  0  0  0  0  0  0  0  0
   -1.0112   -0.9904   -0.0239 H   0  0  0  0  0  0  0  0  0  0  0  0
   -1.0920    0.5225    0.9188 H   0  0  0  0  0  0  0  0  0  0  0  0
    1.2740   -0.3620   -0.8520 H   0  0  0  0  0  0  0  0  0  0  0  0
  1  2  1  0
  1  4  1  0
  1  5  1  0
  1  6  1  0
  2  3  2  0
  2  7  1  0
M  END
>  <reaction>  (1) 
rxn_1978

>  <mol_properties>  (1) 
{"0": {"label": "donator", "atom_type": "Cs"}, "3": {"label": "d_hydrogen", "atom_type": "H0"}}

>  <type>  (1) 
r1h

$$$$

     RDKit          3D

 12 11  0  0  0  0  0  0  0  0999 V2000
    2.7049    0.9350   -0.4404 S   0  0  0  0  0  1  0  0  0  0  0  0
    1.0313    1.0813   -0.4080 C   0  0  0  0  0  0  0  0  0  0  0  0
    0.1364    0.1019   -0.0473 C   0  0  0  0  0  0  0  0  0  0  0  0
    0.5360   -1.2679    0.3784 C   0  0  0  0  0  0  0  0  0  0  0  0
   -1.3304    0.3842   -0.0689 C   0  0  0  0  0  0  0  0  0  0  0  0
    0.6069    2.0398   -0.6990 H   0  0  0  0  0  0  0  0  0  0  0  0
    0.1578   -1.4699    1.3849 H   0  0  0  0  0  0  0  0  0  0  0  0
    0.0783   -2.0109   -0.2814 H   0  0  0  0  0  0  0  0  0  0  0  0
    1.6154   -1.3973    0.3689 H   0  0  0  0  0  0  0  0  0  0  0  0
   -1.8406   -0.3126   -0.7406 H   0  0  0  0  0  0  0  0  0  0  0  0
   -1.5514    1.4016   -0.3887 H   0  0  0  0  0  0  0  0  0  0  0  0
   -1.7610    0.2281    0.9247 H   0  0  0  0  0  0  0  0  0  0  0  0
  1  2  1  0
  2  3  2  3
  2  6  1  0
  3  4  1  0
  3  5  1  0
  4  7  1  0
  4  8  1  0
  4  9  1  0
  5 10  1  0
  5 11  1  0
  5 12  1  0
M  RAD  1   1   2
M  END
>  <reaction>  (2) 
rxn_1978

>  <mol_properties>  (2) 
{"2": {"label": "acceptor", "atom_type": "Cs"}}

>  <type>  (2) 
r2

$$$$

     RDKit          3D

 13 12  0  0  0  0  0  0  0  0999 V2000
    2.7452   -1.1134   -0.3601 S   0  0  0  0  0  0  0  0  0  0  0  0
    1.4120   -0.4899    0.2856 C   0  0  0  0  0  0  0  0  0  0  0  0
    0.1714   -0.0257   -0.4180 C   0  0  0  0  0  0  0  0  0  0  0  0
   -0.0717    1.4493   -0.0658 C   0  0  0  0  0  0  0  0  0  0  0  0
    0.1609   -0.2576   -1.9191 C   0  0  0  0  0  0  0  0  0  0  0  0
    1.3665   -0.3550    1.3690 H   0  0  0  0  0  0  0  0  0  0  0  0
   -0.6453   -0.6023    0.0382 H   0  0  0  0  0  0  0  0  0  0  0  0
    0.7161    2.0755   -0.4895 H   0  0  0  0  0  0  0  0  0  0  0  0
   -0.0915    1.6095    1.0136 H   0  0  0  0  0  0  0  0  0  0  0  0
   -1.0268    1.7797   -0.4755 H   0  0  0  0  0  0  0  0  0  0  0  0
    0.3131   -1.3093   -2.1616 H   0  0  0  0  0  0  0  0  0  0  0  0
    0.9567    0.3095   -2.4051 H   0  0  0  0  0  0  0  0  0  0  0  0
   -0.7945    0.0619   -2.3384 H   0  0  0  0  0  0  0  0  0  0  0  0
  1  2  2  0
  2  3  1  0
  2  6  1  0
  3  4  1  0
  3  5  1  0
  3  7  1  0
  4  8  1  0
  4  9  1  0
  4 10  1  0
  5 11  1  0
  5 12  1  0
  5 13  1  0
M  END
>  <reaction>  (3) 
rxn_1978

>  <mol_properties>  (3) 
{"2": {"label": "acceptor", "atom_type": "Cs"}, "12": {"label": "a_hydrogen", "atom_type": "H0"}}

>  <type>  (3) 
r2h

$$$$

     RDKit          3D

 19 17  0  0  0  0  0  0  0  0999 V2000
   -0.2616    2.2250    2.3850 S   0  0  0  0  0  0  0  0  0  0  0  0
   -0.3781    0.6378    2.0603 C   0  0  0  0  0  0  0  0  0  0  0  0
   -0.8436    0.0238    0.8271 C   0  0  0  0  0  0  0  0  0  0  0  0
   -1.3076   -1.4097    0.9360 C   0  0  0  0  0  0  0  0  0  0  0  0
   -1.5992    0.8641   -0.1686 C   0  0  0  0  0  0  0  0  0  0  0  0
   -0.0360   -0.0760    2.8119 H   0  0  0  0  0  0  0  0  0  0  0  0
   -2.3459   -1.4431    1.2763 H   0  0  0  0  0  0  0  0  0  0  0  0
   -1.2669   -1.9011   -0.0386 H   0  0  0  0  0  0  0  0  0  0  0  0
   -0.7000   -1.9808    1.6395 H   0  0  0  0  0  0  0  0  0  0  0  0
   -1.6112    0.3745   -1.1438 H   0  0  0  0  0  0  0  0  0  0  0  0
   -1.1592    1.8548   -0.2682 H   0  0  0  0  0  0  0  0  0  0  0  0
   -2.6330    0.9903    0.1639 H   0  0  0  0  0  0  0  0  0  0  0  0
    1.4022   -0.2477   -0.6127 C   0  0  0  0  0  0  0  0  0  0  0  0
    1.1803   -1.4160   -1.3878 C   0  0  0  0  0  0  0  0  0  0  0  0
    0.3962   -1.4547   -2.8302 S   0  0  0  0  0  1  0  0  0  0  0  0
    0.3115   -0.1418    0.2230 H   0  0  0  0  0  0  0  0  0  0  0  0
    2.1652   -0.2896    0.1606 H   0  0  0  0  0  0  0  0  0  0  0  0
    1.2874    0.7112   -1.1093 H   0  0  0  0  0  0  0  0  0  0  0  0
    1.5313   -2.3527   -0.9562 H   0  0  0  0  0  0  0  0  0  0  0  0
  1  2  2  0
  2  3  1  0
  2  6  1  0
  3  4  1  0
  3  5  1  0
  3 16  1  0
  4  7  1  0
  4  8  1  0
  4  9  1  0
  5 10  1  0
  5 11  1  0
  5 12  1  0
 13 14  2  3
 13 17  1  0
 13 18  1  0
 14 15  1  0
 14 19  1  0
M  RAD  1  15   2
M  END
>  <reaction>  (4) 
rxn_1978

>  <mol_properties>  (4) 
{"1": {"label": "*0", "atom_type": "CS"}, "2": {"label": "*1", "atom_type": "Cs"}, "12": {"label": "*3", "atom_type": "Cd"}, "13": {"label": "*4", "atom_type": "Cd"}, "15": {"label": "*2", "atom_type": "H0"}}

>  <type>  (4) 
ts

$$$$

     RDKit          3D

 19 17  0  0  0  0  0  0  0  0999 V2000
    0.0127    1.2466    3.0005 S   0  0  0  0  0  1  0  0  0  0  0  0
   -0.4070   -0.0058    2.0848 C   0  0  0  0  0  0  0  0  0  0  0  0
   -0.9656    0.0102    0.6930 C   0  0  0  0  0  0  0  0  0  0  0  0
   -2.3199   -0.7142    0.6976 C   0  0  0  0  0  0  0  0  0  0  0  0
   -1.0627    1.3862    0.0569 C   0  0  0  0  0  0  0  0  0  0  0  0
   -0.3032   -1.0138    2.4936 H   0  0  0  0  0  0  0  0  0  0  0  0
   -3.0515   -0.1473    1.2770 H   0  0  0  0  0  0  0  0  0  0  0  0
   -2.6953   -0.8132   -0.3215 H   0  0  0  0  0  0  0  0  0  0  0  0
   -2.2427   -1.7135    1.1297 H   0  0  0  0  0  0  0  0  0  0  0  0
   -1.4295    1.2978   -0.9670 H   0  0  0  0  0  0  0  0  0  0  0  0
   -0.0945    1.8863    0.0378 H   0  0  0  0  0  0  0  0  0  0  0  0
   -1.7505    2.0241    0.6147 H   0  0  0  0  0  0  0  0  0  0  0  0
    1.1415    0.0749   -0.8829 C   0  0  0  0  0  0  0  0  0  0  0  0
    1.1415   -1.1236   -1.7651 C   0  0  0  0  0  0  0  0  0  0  0  0
    1.1415   -1.1236   -3.3717 S   0  0  0  0  0  0  0  0  0  0  0  0
    0.0901    0.0426   -0.0966 H   0  0  0  0  0  0  0  0  0  0  0  0
    2.0176    0.0480   -0.2277 H   0  0  0  0  0  0  0  0  0  0  0  0
    1.1415    0.9987   -1.4576 H   0  0  0  0  0  0  0  0  0  0  0  0
    1.1415   -2.0780   -1.2351 H   0  0  0  0  0  0  0  0  0  0  0  0
  1  2  1  0
  2  3  2  3
  2  6  1  0
  3  4  1  0
  3  5  1  0
  4  7  1  0
  4  8  1  0
  4  9  1  0
  5 10  1  0
  5 11  1  0
  5 12  1  0
 13 14  1  0
 13 16  1  0
 13 17  1  0
 13 18  1  0
 14 15  2  0
 14 19  1  0
M  RAD  1   1   2
M  END
>  <reaction>  (5) 
rxn_1978

>  <mol_properties>  (5) 
{"1": {"label": "*0", "atom_type": "CS"}, "2": {"label": "*1", "atom_type": "Cs"}, "12": {"label": "*3", "atom_type": "Cd"}, "13": {"label": "*4", "atom_type": "Cd"}, "15": {"label": "*2", "atom_type": "H0"}}

>  <type>  (5) 
unop_1

>  <geom_source>  (5) 
Heuristics

$$$$

     RDKit          3D

 19 17  0  0  0  0  0  0  0  0999 V2000
   -0.7662   -1.5170    2.3363 S   0  0  0  0  0  1  0  0  0  0  0  0
   -1.0517   -0.6235    1.0312 C   0  0  0  0  0  0  0  0  0  0  0  0
   -0.7670    0.8347    0.8263 C   0  0  0  0  0  0  0  0  0  0  0  0
   -2.0808    1.5483    0.4749 C   0  0  0  0  0  0  0  0  0  0  0  0
   -0.0444    1.5146    1.9766 C   0  0  0  0  0  0  0  0  0  0  0  0
   -1.5259   -1.0935    0.1662 H   0  0  0  0  0  0  0  0  0  0  0  0
   -2.7604    1.5346    1.3294 H   0  0  0  0  0  0  0  0  0  0  0  0
   -1.8836    2.5885    0.2132 H   0  0  0  0  0  0  0  0  0  0  0  0
   -2.5848    1.0752   -0.3696 H   0  0  0  0  0  0  0  0  0  0  0  0
    0.1655    2.5546    1.7214 H   0  0  0  0  0  0  0  0  0  0  0  0
    0.8969    1.0160    2.2071 H   0  0  0  0  0  0  0  0  0  0  0  0
   -0.6542    1.4989    2.8815 H   0  0  0  0  0  0  0  0  0  0  0  0
    1.3401    0.8994   -0.7495 C   0  0  0  0  0  0  0  0  0  0  0  0
    1.3401   -0.2991   -1.6317 C   0  0  0  0  0  0  0  0  0  0  0  0
    1.3401   -0.2991   -3.2384 S   0  0  0  0  0  0  0  0  0  0  0  0
    0.2888    0.8671    0.0367 H   0  0  0  0  0  0  0  0  0  0  0  0
    2.2163    0.8725   -0.0943 H   0  0  0  0  0  0  0  0  0  0  0  0
    1.3401    1.8232   -1.3242 H   0  0  0  0  0  0  0  0  0  0  0  0
    1.3401   -1.2535   -1.1018 H   0  0  0  0  0  0  0  0  0  0  0  0
  1  2  1  0
  2  3  2  3
  2  6  1  0
  3  4  1  0
  3  5  1  0
  4  7  1  0
  4  8  1  0
  4  9  1  0
  5 10  1  0
  5 11  1  0
  5 12  1  0
 13 14  1  0
 13 16  1  0
 13 17  1  0
 13 18  1  0
 14 15  2  0
 14 19  1  0
M  RAD  1   1   2
M  END
>  <reaction>  (6) 
rxn_1978

>  <mol_properties>  (6) 
{"1": {"label": "*0", "atom_type": "CS"}, "2": {"label": "*1", "atom_type": "Cs"}, "12": {"label": "*3", "atom_type": "Cd"}, "13": {"label": "*4", "atom_type": "Cd"}, "15": {"label": "*2", "atom_type": "H0"}}

>  <type>  (6) 
unop_2

>  <geom_source>  (6) 
Heuristics

$$$$

     RDKit          3D

 19 17  0  0  0  0  0  0  0  0999 V2000
   -0.6090    2.0706    2.5097 S   0  0  0  0  0  1  0  0  0  0  0  0
   -0.3381    0.5424    2.0923 C   0  0  0  0  0  0  0  0  0  0  0  0
   -0.7681   -0.1669    0.8427 C   0  0  0  0  0  0  0  0  0  0  0  0
   -1.6144   -1.3869    1.2354 C   0  0  0  0  0  0  0  0  0  0  0  0
   -1.4756    0.7066   -0.1791 C   0  0  0  0  0  0  0  0  0  0  0  0
    0.2116   -0.1014    2.7832 H   0  0  0  0  0  0  0  0  0  0  0  0
   -2.5549   -1.0665    1.6882 H   0  0  0  0  0  0  0  0  0  0  0  0
   -1.8471   -1.9815    0.3514 H   0  0  0  0  0  0  0  0  0  0  0  0
   -1.0933   -2.0281    1.9485 H   0  0  0  0  0  0  0  0  0  0  0  0
   -1.7056    0.1230   -1.0720 H   0  0  0  0  0  0  0  0  0  0  0  0
   -0.8613    1.5589   -0.4691 H   0  0  0  0  0  0  0  0  0  0  0  0
   -2.4102    1.0984    0.2258 H   0  0  0  0  0  0  0  0  0  0  0  0
    1.3390   -0.1022   -0.7332 C   0  0  0  0  0  0  0  0  0  0  0  0
    1.3390   -1.3006   -1.6154 C   0  0  0  0  0  0  0  0  0  0  0  0
    1.3390   -1.3006   -3.2220 S   0  0  0  0  0  0  0  0  0  0  0  0
    0.2876   -0.1345    0.0531 H   0  0  0  0  0  0  0  0  0  0  0  0
    2.2151   -0.1291   -0.0779 H   0  0  0  0  0  0  0  0  0  0  0  0
    1.3390    0.8216   -1.3078 H   0  0  0  0  0  0  0  0  0  0  0  0
    1.3390   -2.2551   -1.0854 H   0  0  0  0  0  0  0  0  0  0  0  0
  1  2  1  0
  2  3  2  3
  2  6  1  0
  3  4  1  0
  3  5  1  0
  4  7  1  0
  4  8  1  0
  4  9  1  0
  5 10  1  0
  5 11  1  0
  5 12  1  0
 13 14  1  0
 13 16  1  0
 13 17  1  0
 13 18  1  0
 14 15  2  0
 14 19  1  0
M  RAD  1   1   2
M  END
>  <reaction>  (7) 
rxn_1978

>  <mol_properties>  (7) 
{"1": {"label": "*0", "atom_type": "CS"}, "2": {"label": "*1", "atom_type": "Cs"}, "12": {"label": "*3", "atom_type": "Cd"}, "13": {"label": "*4", "atom_type": "Cd"}, "15": {"label": "*2", "atom_type": "H0"}}

>  <type>  (7) 
unop_3

>  <geom_source>  (7) 
Heuristics

$$$$

     RDKit          3D

 19 17  0  0  0  0  0  0  0  0999 V2000
   -2.8632   -0.1831    0.6683 S   0  0  0  0  0  1  0  0  0  0  0  0
   -1.3818    0.3757    0.3917 C   0  0  0  0  0  0  0  0  0  0  0  0
   -0.2044    0.3787    1.3207 C   0  0  0  0  0  0  0  0  0  0  0  0
    0.2766    1.8260    1.5012 C   0  0  0  0  0  0  0  0  0  0  0  0
   -0.4382   -0.3099    2.6543 C   0  0  0  0  0  0  0  0  0  0  0  0
   -1.1652    0.8332   -0.5767 H   0  0  0  0  0  0  0  0  0  0  0  0
   -0.4751    2.4121    2.0339 H   0  0  0  0  0  0  0  0  0  0  0  0
    1.1984    1.8445    2.0837 H   0  0  0  0  0  0  0  0  0  0  0  0
    0.4707    2.3104    0.5427 H   0  0  0  0  0  0  0  0  0  0  0  0
    0.4811   -0.3046    3.2422 H   0  0  0  0  0  0  0  0  0  0  0  0
   -0.7591   -1.3427    2.5194 H   0  0  0  0  0  0  0  0  0  0  0  0
   -1.2143    0.2029    3.2251 H   0  0  0  0  0  0  0  0  0  0  0  0
    1.9027    0.4434   -0.2552 C   0  0  0  0  0  0  0  0  0  0  0  0
    1.9027   -0.7551   -1.1374 C   0  0  0  0  0  0  0  0  0  0  0  0
    1.9027   -0.7551   -2.7440 S   0  0  0  0  0  0  0  0  0  0  0  0
    0.8513    0.4111    0.5311 H   0  0  0  0  0  0  0  0  0  0  0  0
    2.7789    0.4165    0.4000 H   0  0  0  0  0  0  0  0  0  0  0  0
    1.9027    1.3672   -0.8299 H   0  0  0  0  0  0  0  0  0  0  0  0
    1.9027   -1.7095   -0.6074 H   0  0  0  0  0  0  0  0  0  0  0  0
  1  2  1  0
  2  3  2  3
  2  6  1  0
  3  4  1  0
  3  5  1  0
  4  7  1  0
  4  8  1  0
  4  9  1  0
  5 10  1  0
  5 11  1  0
  5 12  1  0
 13 14  1  0
 13 16  1  0
 13 17  1  0
 13 18  1  0
 14 15  2  0
 14 19  1  0
M  RAD  1   1   2
M  END
>  <reaction>  (8) 
rxn_1978

>  <mol_properties>  (8) 
{"1": {"label": "*0", "atom_type": "CS"}, "2": {"label": "*1", "atom_type": "Cs"}, "12": {"label": "*3", "atom_type": "Cd"}, "13": {"label": "*4", "atom_type": "Cd"}, "15": {"label": "*2", "atom_type": "H0"}}

>  <type>  (8) 
unop_4

>  <geom_source>  (8) 
Heuristics

$$$$

     RDKit          3D

 19 17  0  0  0  0  0  0  0  0999 V2000
   -1.5208    2.2675    1.9483 S   0  0  0  0  0  1  0  0  0  0  0  0
   -0.4416    1.0875    1.7866 C   0  0  0  0  0  0  0  0  0  0  0  0
   -0.5449   -0.1544    0.9520 C   0  0  0  0  0  0  0  0  0  0  0  0
   -0.3816   -1.3773    1.8667 C   0  0  0  0  0  0  0  0  0  0  0  0
   -1.7974   -0.2505    0.0979 C   0  0  0  0  0  0  0  0  0  0  0  0
    0.4929    1.1495    2.3493 H   0  0  0  0  0  0  0  0  0  0  0  0
   -1.2283   -1.4544    2.5519 H   0  0  0  0  0  0  0  0  0  0  0  0
   -0.3425   -2.2890    1.2697 H   0  0  0  0  0  0  0  0  0  0  0  0
    0.5330   -1.3199    2.4595 H   0  0  0  0  0  0  0  0  0  0  0  0
   -1.7644   -1.1558   -0.5105 H   0  0  0  0  0  0  0  0  0  0  0  0
   -1.8962    0.6100   -0.5637 H   0  0  0  0  0  0  0  0  0  0  0  0
   -2.6913   -0.2884    0.7227 H   0  0  0  0  0  0  0  0  0  0  0  0
    1.5622   -0.0897   -0.6238 C   0  0  0  0  0  0  0  0  0  0  0  0
    1.5622   -1.2881   -1.5060 C   0  0  0  0  0  0  0  0  0  0  0  0
    1.5622   -1.2881   -3.1127 S   0  0  0  0  0  0  0  0  0  0  0  0
    0.5108   -0.1219    0.1625 H   0  0  0  0  0  0  0  0  0  0  0  0
    2.4383   -0.1166    0.0314 H   0  0  0  0  0  0  0  0  0  0  0  0
    1.5622    0.8341   -1.1985 H   0  0  0  0  0  0  0  0  0  0  0  0
    1.5622   -2.2426   -0.9761 H   0  0  0  0  0  0  0  0  0  0  0  0
  1  2  1  0
  2  3  2  3
  2  6  1  0
  3  4  1  0
  3  5  1  0
  4  7  1  0
  4  8  1  0
  4  9  1  0
  5 10  1  0
  5 11  1  0
  5 12  1  0
 13 14  1  0
 13 16  1  0
 13 17  1  0
 13 18  1  0
 14 15  2  0
 14 19  1  0
M  RAD  1   1   2
M  END
>  <reaction>  (9) 
rxn_1978

>  <mol_properties>  (9) 
{"1": {"label": "*0", "atom_type": "CS"}, "2": {"label": "*1", "atom_type": "Cs"}, "12": {"label": "*3", "atom_type": "Cd"}, "13": {"label": "*4", "atom_type": "Cd"}, "15": {"label": "*2", "atom_type": "H0"}}

>  <type>  (9) 
unop_5

>  <geom_source>  (9) 
Heuristics

$$$$

     RDKit          3D

 19 17  0  0  0  0  0  0  0  0999 V2000
   -2.9009    0.7889    0.7402 S   0  0  0  0  0  1  0  0  0  0  0  0
   -1.3122    0.8384    0.5023 C   0  0  0  0  0  0  0  0  0  0  0  0
   -0.2387    0.1180    1.2626 C   0  0  0  0  0  0  0  0  0  0  0  0
    0.7405    1.1544    1.8334 C   0  0  0  0  0  0  0  0  0  0  0  0
   -0.7410   -0.8350    2.3336 C   0  0  0  0  0  0  0  0  0  0  0  0
   -0.9197    1.4765   -0.2931 H   0  0  0  0  0  0  0  0  0  0  0  0
    0.2480    1.7629    2.5946 H   0  0  0  0  0  0  0  0  0  0  0  0
    1.5901    0.6515    2.2967 H   0  0  0  0  0  0  0  0  0  0  0  0
    1.1219    1.8208    1.0578 H   0  0  0  0  0  0  0  0  0  0  0  0
    0.1013   -1.3503    2.7981 H   0  0  0  0  0  0  0  0  0  0  0  0
   -1.4189   -1.5806    1.9182 H   0  0  0  0  0  0  0  0  0  0  0  0
   -1.2843   -0.2943    3.1105 H   0  0  0  0  0  0  0  0  0  0  0  0
    1.8684    0.1827   -0.3132 C   0  0  0  0  0  0  0  0  0  0  0  0
    1.8684   -1.0158   -1.1954 C   0  0  0  0  0  0  0  0  0  0  0  0
    1.8684   -1.0158   -2.8021 S   0  0  0  0  0  0  0  0  0  0  0  0
    0.8170    0.1504    0.4731 H   0  0  0  0  0  0  0  0  0  0  0  0
    2.7445    0.1558    0.3420 H   0  0  0  0  0  0  0  0  0  0  0  0
    1.8684    1.1064   -0.8879 H   0  0  0  0  0  0  0  0  0  0  0  0
    1.8684   -1.9702   -0.6655 H   0  0  0  0  0  0  0  0  0  0  0  0
  1  2  1  0
  2  3  2  3
  2  6  1  0
  3  4  1  0
  3  5  1  0
  4  7  1  0
  4  8  1  0
  4  9  1  0
  5 10  1  0
  5 11  1  0
  5 12  1  0
 13 14  1  0
 13 16  1  0
 13 17  1  0
 13 18  1  0
 14 15  2  0
 14 19  1  0
M  RAD  1   1   2
M  END
>  <reaction>  (10) 
rxn_1978

>  <mol_properties>  (10) 
{"1": {"label": "*0", "atom_type": "CS"}, "2": {"label": "*1", "atom_type": "Cs"}, "12": {"label": "*3", "atom_type": "Cd"}, "13": {"label": "*4", "atom_type": "Cd"}, "15": {"label": "*2", "atom_type": "H0"}}

>  <type>  (10) 
unop_6

>  <geom_source>  (10) 
Heuristics

$$$$

     RDKit          3D

 19 17  0  0  0  0  0  0  0  0999 V2000
   -2.6433    1.5354    1.1032 S   0  0  0  0  0  1  0  0  0  0  0  0
   -1.0978    1.2115    0.8041 C   0  0  0  0  0  0  0  0  0  0  0  0
   -0.3330   -0.0369    1.1299 C   0  0  0  0  0  0  0  0  0  0  0  0
    0.8679    0.3373    2.0111 C   0  0  0  0  0  0  0  0  0  0  0  0
   -1.1596   -1.1530    1.7451 C   0  0  0  0  0  0  0  0  0  0  0  0
   -0.4857    1.9745    0.3172 H   0  0  0  0  0  0  0  0  0  0  0  0
    0.5273    0.6941    2.9853 H   0  0  0  0  0  0  0  0  0  0  0  0
    1.5018   -0.5357    2.1708 H   0  0  0  0  0  0  0  0  0  0  0  0
    1.4764    1.1199    1.5547 H   0  0  0  0  0  0  0  0  0  0  0  0
   -0.5364   -2.0351    1.9013 H   0  0  0  0  0  0  0  0  0  0  0  0
   -1.9979   -1.4280    1.1052 H   0  0  0  0  0  0  0  0  0  0  0  0
   -1.5695   -0.8465    2.7090 H   0  0  0  0  0  0  0  0  0  0  0  0
    1.7741    0.0278   -0.4459 C   0  0  0  0  0  0  0  0  0  0  0  0
    1.7741   -1.1707   -1.3281 C   0  0  0  0  0  0  0  0  0  0  0  0
    1.7741   -1.1707   -2.9348 S   0  0  0  0  0  0  0  0  0  0  0  0
    0.7227   -0.0045    0.3404 H   0  0  0  0  0  0  0  0  0  0  0  0
    2.6502    0.0009    0.2093 H   0  0  0  0  0  0  0  0  0  0  0  0
    1.7741    0.9516   -1.0206 H   0  0  0  0  0  0  0  0  0  0  0  0
    1.7741   -2.1251   -0.7982 H   0  0  0  0  0  0  0  0  0  0  0  0
  1  2  1  0
  2  3  2  3
  2  6  1  0
  3  4  1  0
  3  5  1  0
  4  7  1  0
  4  8  1  0
  4  9  1  0
  5 10  1  0
  5 11  1  0
  5 12  1  0
 13 14  1  0
 13 16  1  0
 13 17  1  0
 13 18  1  0
 14 15  2  0
 14 19  1  0
M  RAD  1   1   2
M  END
>  <reaction>  (11) 
rxn_1978

>  <mol_properties>  (11) 
{"1": {"label": "*0", "atom_type": "CS"}, "2": {"label": "*1", "atom_type": "Cs"}, "12": {"label": "*3", "atom_type": "Cd"}, "13": {"label": "*4", "atom_type": "Cd"}, "15": {"label": "*2", "atom_type": "H0"}}

>  <type>  (11) 
unop_7

>  <geom_source>  (11) 
Heuristics

$$$$

     RDKit          3D

 19 17  0  0  0  0  0  0  0  0999 V2000
    0.1677    0.1590    3.1363 S   0  0  0  0  0  1  0  0  0  0  0  0
   -0.5827   -0.4290    1.8424 C   0  0  0  0  0  0  0  0  0  0  0  0
   -1.0373    0.3105    0.6193 C   0  0  0  0  0  0  0  0  0  0  0  0
   -2.5502    0.1043    0.4532 C   0  0  0  0  0  0  0  0  0  0  0  0
   -0.6599    1.7814    0.5821 C   0  0  0  0  0  0  0  0  0  0  0  0
   -0.8255   -1.4940    1.8146 H   0  0  0  0  0  0  0  0  0  0  0  0
   -3.0912    0.5918    1.2668 H   0  0  0  0  0  0  0  0  0  0  0  0
   -2.8864    0.5397   -0.4884 H   0  0  0  0  0  0  0  0  0  0  0  0
   -2.8166   -0.9541    0.4523 H   0  0  0  0  0  0  0  0  0  0  0  0
   -0.9844    2.2252   -0.3605 H   0  0  0  0  0  0  0  0  0  0  0  0
    0.4169    1.9197    0.6794 H   0  0  0  0  0  0  0  0  0  0  0  0
   -1.1357    2.3251    1.4000 H   0  0  0  0  0  0  0  0  0  0  0  0
    1.0698    0.3752   -0.9566 C   0  0  0  0  0  0  0  0  0  0  0  0
    1.0698   -0.8233   -1.8388 C   0  0  0  0  0  0  0  0  0  0  0  0
    1.0698   -0.8233   -3.4454 S   0  0  0  0  0  0  0  0  0  0  0  0
    0.0184    0.3429   -0.1703 H   0  0  0  0  0  0  0  0  0  0  0  0
    1.9459    0.3483   -0.3014 H   0  0  0  0  0  0  0  0  0  0  0  0
    1.0697    1.2990   -1.5312 H   0  0  0  0  0  0  0  0  0  0  0  0
    1.0698   -1.7777   -1.3088 H   0  0  0  0  0  0  0  0  0  0  0  0
  1  2  1  0
  2  3  2  3
  2  6  1  0
  3  4  1  0
  3  5  1  0
  4  7  1  0
  4  8  1  0
  4  9  1  0
  5 10  1  0
  5 11  1  0
  5 12  1  0
 13 14  1  0
 13 16  1  0
 13 17  1  0
 13 18  1  0
 14 15  2  0
 14 19  1  0
M  RAD  1   1   2
M  END
>  <reaction>  (12) 
rxn_1978

>  <mol_properties>  (12) 
{"1": {"label": "*0", "atom_type": "CS"}, "2": {"label": "*1", "atom_type": "Cs"}, "12": {"label": "*3", "atom_type": "Cd"}, "13": {"label": "*4", "atom_type": "Cd"}, "15": {"label": "*2", "atom_type": "H0"}}

>  <type>  (12) 
unop_8

>  <geom_source>  (12) 
Heuristics

$$$$

     RDKit          3D

 19 17  0  0  0  0  0  0  0  0999 V2000
   -2.4266   -1.1116    0.9953 S   0  0  0  0  0  1  0  0  0  0  0  0
   -1.3364   -0.0590    0.4601 C   0  0  0  0  0  0  0  0  0  0  0  0
   -0.2875    0.6693    1.2469 C   0  0  0  0  0  0  0  0  0  0  0  0
   -0.4898    2.1799    1.0569 C   0  0  0  0  0  0  0  0  0  0  0  0
   -0.2090    0.2898    2.7156 C   0  0  0  0  0  0  0  0  0  0  0  0
   -1.3327    0.1996   -0.6016 H   0  0  0  0  0  0  0  0  0  0  0  0
   -1.4270    2.4982    1.5178 H   0  0  0  0  0  0  0  0  0  0  0  0
    0.3256    2.7292    1.5287 H   0  0  0  0  0  0  0  0  0  0  0  0
   -0.5181    2.4546    0.0010 H   0  0  0  0  0  0  0  0  0  0  0  0
    0.6099    0.8278    3.1958 H   0  0  0  0  0  0  0  0  0  0  0  0
   -0.0445   -0.7801    2.8431 H   0  0  0  0  0  0  0  0  0  0  0  0
   -1.1364    0.5429    3.2321 H   0  0  0  0  0  0  0  0  0  0  0  0
    1.8196    0.7340   -0.3290 C   0  0  0  0  0  0  0  0  0  0  0  0
    1.8196   -0.4645   -1.2112 C   0  0  0  0  0  0  0  0  0  0  0  0
    1.8196   -0.4645   -2.8179 S   0  0  0  0  0  0  0  0  0  0  0  0
    0.7682    0.7017    0.4573 H   0  0  0  0  0  0  0  0  0  0  0  0
    2.6957    0.7071    0.3262 H   0  0  0  0  0  0  0  0  0  0  0  0
    1.8196    1.6578   -0.9037 H   0  0  0  0  0  0  0  0  0  0  0  0
    1.8196   -1.4189   -0.6813 H   0  0  0  0  0  0  0  0  0  0  0  0
  1  2  1  0
  2  3  2  3
  2  6  1  0
  3  4  1  0
  3  5  1  0
  4  7  1  0
  4  8  1  0
  4  9  1  0
  5 10  1  0
  5 11  1  0
  5 12  1  0
 13 14  1  0
 13 16  1  0
 13 17  1  0
 13 18  1  0
 14 15  2  0
 14 19  1  0
M  RAD  1   1   2
M  END
>  <reaction>  (13) 
rxn_1978

>  <mol_properties>  (13) 
{"1": {"label": "*0", "atom_type": "CS"}, "2": {"label": "*1", "atom_type": "Cs"}, "12": {"label": "*3", "atom_type": "Cd"}, "13": {"label": "*4", "atom_type": "Cd"}, "15": {"label": "*2", "atom_type": "H0"}}

>  <type>  (13) 
unop_9

>  <geom_source>  (13) 
Heuristics

$$$$

     RDKit          3D

 19 17  0  0  0  0  0  0  0  0999 V2000
   -0.1154   -0.8500    2.8848 S   0  0  0  0  0  1  0  0  0  0  0  0
   -0.8204   -0.6461    1.4549 C   0  0  0  0  0  0  0  0  0  0  0  0
   -0.9663    0.6213    0.6663 C   0  0  0  0  0  0  0  0  0  0  0  0
   -2.4596    0.8721    0.4093 C   0  0  0  0  0  0  0  0  0  0  0  0
   -0.2853    1.8360    1.2731 C   0  0  0  0  0  0  0  0  0  0  0  0
   -1.2776   -1.5101    0.9666 H   0  0  0  0  0  0  0  0  0  0  0  0
   -2.9747    1.0897    1.3471 H   0  0  0  0  0  0  0  0  0  0  0  0
   -2.5868    1.7271   -0.2555 H   0  0  0  0  0  0  0  0  0  0  0  0
   -2.9414    0.0083   -0.0522 H   0  0  0  0  0  0  0  0  0  0  0  0
   -0.3992    2.6959    0.6111 H   0  0  0  0  0  0  0  0  0  0  0  0
    0.7781    1.6587    1.4334 H   0  0  0  0  0  0  0  0  0  0  0  0
   -0.7258    2.0854    2.2399 H   0  0  0  0  0  0  0  0  0  0  0  0
    1.1408    0.6860   -0.9095 C   0  0  0  0  0  0  0  0  0  0  0  0
    1.1408   -0.5125   -1.7917 C   0  0  0  0  0  0  0  0  0  0  0  0
    1.1408   -0.5125   -3.3984 S   0  0  0  0  0  0  0  0  0  0  0  0
    0.0894    0.6537   -0.1233 H   0  0  0  0  0  0  0  0  0  0  0  0
    2.0169    0.6591   -0.2543 H   0  0  0  0  0  0  0  0  0  0  0  0
    1.1408    1.6097   -1.4842 H   0  0  0  0  0  0  0  0  0  0  0  0
    1.1408   -1.4669   -1.2618 H   0  0  0  0  0  0  0  0  0  0  0  0
  1  2  1  0
  2  3  2  3
  2  6  1  0
  3  4  1  0
  3  5  1  0
  4  7  1  0
  4  8  1  0
  4  9  1  0
  5 10  1  0
  5 11  1  0
  5 12  1  0
 13 14  1  0
 13 16  1  0
 13 17  1  0
 13 18  1  0
 14 15  2  0
 14 19  1  0
M  RAD  1   1   2
M  END
>  <reaction>  (14) 
rxn_1978

>  <mol_properties>  (14) 
{"1": {"label": "*0", "atom_type": "CS"}, "2": {"label": "*1", "atom_type": "Cs"}, "12": {"label": "*3", "atom_type": "Cd"}, "13": {"label": "*4", "atom_type": "Cd"}, "15": {"label": "*2", "atom_type": "H0"}}

>  <type>  (14) 
unop_10

>  <geom_source>  (14) 
Heuristics

$$$$

     RDKit          3D

 19 17  0  0  0  0  0  0  0  0999 V2000
   -2.2062    1.9948    1.5407 S   0  0  0  0  0  1  0  0  0  0  0  0
   -0.7619    1.3442    1.2686 C   0  0  0  0  0  0  0  0  0  0  0  0
   -0.4279   -0.0950    1.0107 C   0  0  0  0  0  0  0  0  0  0  0  0
    0.5792   -0.5643    2.0710 C   0  0  0  0  0  0  0  0  0  0  0  0
   -1.6257   -1.0245    0.9181 C   0  0  0  0  0  0  0  0  0  0  0  0
    0.1170    1.9933    1.2789 H   0  0  0  0  0  0  0  0  0  0  0  0
    0.1120   -0.5797    3.0577 H   0  0  0  0  0  0  0  0  0  0  0  0
    0.9223   -1.5736    1.8409 H   0  0  0  0  0  0  0  0  0  0  0  0
    1.4523    0.0890    2.1169 H   0  0  0  0  0  0  0  0  0  0  0  0
   -1.2940   -2.0363    0.6795 H   0  0  0  0  0  0  0  0  0  0  0  0
   -2.3261   -0.6976    0.1497 H   0  0  0  0  0  0  0  0  0  0  0  0
   -2.1678   -1.0546    1.8648 H   0  0  0  0  0  0  0  0  0  0  0  0
    1.6792   -0.0303   -0.5652 C   0  0  0  0  0  0  0  0  0  0  0  0
    1.6792   -1.2287   -1.4474 C   0  0  0  0  0  0  0  0  0  0  0  0
    1.6792   -1.2287   -3.0540 S   0  0  0  0  0  0  0  0  0  0  0  0
    0.6278   -0.0626    0.2211 H   0  0  0  0  0  0  0  0  0  0  0  0
    2.5554   -0.0572    0.0900 H   0  0  0  0  0  0  0  0  0  0  0  0
    1.6792    0.8935   -1.1399 H   0  0  0  0  0  0  0  0  0  0  0  0
    1.6792   -2.1832   -0.9174 H   0  0  0  0  0  0  0  0  0  0  0  0
  1  2  1  0
  2  3  2  3
  2  6  1  0
  3  4  1  0
  3  5  1  0
  4  7  1  0
  4  8  1  0
  4  9  1  0
  5 10  1  0
  5 11  1  0
  5 12  1  0
 13 14  1  0
 13 16  1  0
 13 17  1  0
 13 18  1  0
 14 15  2  0
 14 19  1  0
M  RAD  1   1   2
M  END
>  <reaction>  (15) 
rxn_1978

>  <mol_properties>  (15) 
{"1": {"label": "*0", "atom_type": "CS"}, "2": {"label": "*1", "atom_type": "Cs"}, "12": {"label": "*3", "atom_type": "Cd"}, "13": {"label": "*4", "atom_type": "Cd"}, "15": {"label": "*2", "atom_type": "H0"}}

>  <type>  (15) 
unop_11

>  <geom_source>  (15) 
Heuristics

$$$$

     RDKit          3D

 19 17  0  0  0  0  0  0  0  0999 V2000
   -1.6363   -1.6300    1.6339 S   0  0  0  0  0  1  0  0  0  0  0  0
   -1.2235   -0.4042    0.6799 C   0  0  0  0  0  0  0  0  0  0  0  0
   -0.5014    0.8567    1.0517 C   0  0  0  0  0  0  0  0  0  0  0  0
   -1.3804    2.0576    0.6722 C   0  0  0  0  0  0  0  0  0  0  0  0
   -0.0393    0.9285    2.4969 C   0  0  0  0  0  0  0  0  0  0  0  0
   -1.4972   -0.4459   -0.3771 H   0  0  0  0  0  0  0  0  0  0  0  0
   -2.2789    2.0812    1.2923 H   0  0  0  0  0  0  0  0  0  0  0  0
   -0.8329    2.9874    0.8305 H   0  0  0  0  0  0  0  0  0  0  0  0
   -1.6887    2.0188   -0.3740 H   0  0  0  0  0  0  0  0  0  0  0  0
    0.5176    1.8519    2.6641 H   0  0  0  0  0  0  0  0  0  0  0  0
    0.6009    0.0847    2.7536 H   0  0  0  0  0  0  0  0  0  0  0  0
   -0.8918    0.9128    3.1782 H   0  0  0  0  0  0  0  0  0  0  0  0
    1.6057    0.9214   -0.5242 C   0  0  0  0  0  0  0  0  0  0  0  0
    1.6057   -0.2771   -1.4064 C   0  0  0  0  0  0  0  0  0  0  0  0
    1.6057   -0.2771   -3.0130 S   0  0  0  0  0  0  0  0  0  0  0  0
    0.5543    0.8891    0.2621 H   0  0  0  0  0  0  0  0  0  0  0  0
    2.4818    0.8945    0.1310 H   0  0  0  0  0  0  0  0  0  0  0  0
    1.6057    1.8451   -1.0989 H   0  0  0  0  0  0  0  0  0  0  0  0
    1.6057   -1.2315   -0.8764 H   0  0  0  0  0  0  0  0  0  0  0  0
  1  2  1  0
  2  3  2  3
  2  6  1  0
  3  4  1  0
  3  5  1  0
  4  7  1  0
  4  8  1  0
  4  9  1  0
  5 10  1  0
  5 11  1  0
  5 12  1  0
 13 14  1  0
 13 16  1  0
 13 17  1  0
 13 18  1  0
 14 15  2  0
 14 19  1  0
M  RAD  1   1   2
M  END
>  <reaction>  (16) 
rxn_1978

>  <mol_properties>  (16) 
{"1": {"label": "*0", "atom_type": "CS"}, "2": {"label": "*1", "atom_type": "Cs"}, "12": {"label": "*3", "atom_type": "Cd"}, "13": {"label": "*4", "atom_type": "Cd"}, "15": {"label": "*2", "atom_type": "H0"}}

>  <type>  (16) 
unop_12

>  <geom_source>  (16) 
Heuristics

$$$$

     RDKit          3D

 19 17  0  0  0  0  0  0  0  0999 V2000
   -0.7144    2.6980    0.7651 S   0  0  0  0  0  1  0  0  0  0  0  0
    2.7180    1.2231   -1.2784 S   0  0  0  0  0  0  0  0  0  0  0  0
   -0.7383    0.2162    0.1212 C   0  0  0  0  0  0  0  0  0  0  0  0
   -1.4913   -0.4086    1.3015 C   0  0  0  0  0  0  0  0  0  0  0  0
   -0.9601   -0.6106   -1.1487 C   0  0  0  0  0  0  0  0  0  0  0  0
   -1.1744    1.6454   -0.0985 C   0  0  0  0  0  0  0  0  0  0  0  0
    1.7752   -0.3880    0.4412 C   0  0  0  0  0  0  0  0  0  0  0  0
    2.6640   -0.0983   -0.7231 C   0  0  0  0  0  0  0  0  0  0  0  0
    0.5951    0.1929    0.3974 H   0  0  0  0  0  0  0  0  0  0  0  0
   -2.5874   -0.3987    1.1172 H   0  0  0  0  0  0  0  0  0  0  0  0
   -1.1599   -1.4579    1.4525 H   0  0  0  0  0  0  0  0  0  0  0  0
   -1.2774    0.1544    2.2345 H   0  0  0  0  0  0  0  0  0  0  0  0
   -2.0388   -0.6440   -1.4149 H   0  0  0  0  0  0  0  0  0  0  0  0
   -0.3928   -0.1661   -1.9940 H   0  0  0  0  0  0  0  0  0  0  0  0
   -0.5942   -1.6481   -0.9961 H   0  0  0  0  0  0  0  0  0  0  0  0
   -1.7521    1.9115   -0.9789 H   0  0  0  0  0  0  0  0  0  0  0  0
    3.2229   -0.9008   -1.1935 H   0  0  0  0  0  0  0  0  0  0  0  0
    1.7739   -1.4774    0.6540 H   0  0  0  0  0  0  0  0  0  0  0  0
    2.1319    0.1570    1.3412 H   0  0  0  0  0  0  0  0  0  0  0  0
  1  6  1  0
  2  8  2  0
  3  4  1  0
  3  5  1  0
  3  6  2  3
  4 10  1  0
  4 11  1  0
  4 12  1  0
  5 13  1  0
  5 14  1  0
  5 15  1  0
  6 16  1  0
  7  8  1  0
  7  9  1  0
  7 18  1  0
  7 19  1  0
  8 17  1  0
M  RAD  1   1   2
M  END
>  <reaction>  (17) 
rxn_1978

>  <mol_properties>  (17) 
{"1": {"label": "*0", "atom_type": "CS"}, "2": {"label": "*1", "atom_type": "Cs"}, "12": {"label": "*3", "atom_type": "Cd"}, "13": {"label": "*4", "atom_type": "Cd"}, "15": {"label": "*2", "atom_type": "H0"}}

>  <type>  (17) 
unop_13

>  <geom_source>  (17) 
AutoTST

$$$$
