
     RDKit          3D

  7  6  0  0  0  0  0  0  0  0999 V2000
   -0.6782    0.0507    0.0301 C   0  0  0  0  0  0  0  0  0  0  0  0
    0.8092    0.0996    0.0213 C   0  0  0  0  0  0  0  0  0  0  0  0
    1.7473    0.7521    1.1507 S   0  0  0  0  0  0  0  0  0  0  0  0
   -1.0667    0.5456   -0.8653 H   0  0  0  0  0  0  0  0  0  0  0  0
   -1.0112   -0.9904   -0.0239 H   0  0  0  0  0  0  0  0  0  0  0  0
   -1.0920    0.5225    0.9188 H   0  0  0  0  0  0  0  0  0  0  0  0
    1.2740   -0.3620   -0.8520 H   0  0  0  0  0  0  0  0  0  0  0  0
  1  2  1  0
  1  4  1  0
  1  5  1  0
  1  6  1  0
  2  3  2  0
  2  7  1  0
M  END
>  <reaction>  (1) 
rxn_1986

>  <mol_properties>  (1) 
{"0": {"label": "donator", "atom_type": "Cs"}, "3": {"label": "d_hydrogen", "atom_type": "H0"}}

>  <type>  (1) 
r1h

$$$$

     RDKit          3D

 10  9  0  0  0  0  0  0  0  0999 V2000
   -1.2648    0.1959    0.8197 C   0  0  0  0  0  0  0  0  0  0  0  0
   -0.2805    0.0995   -0.3030 C   0  0  0  0  0  3  0  0  0  0  0  0
   -0.0444    1.1347   -1.1797 C   0  0  0  0  0  0  0  0  0  0  0  0
    0.1640    2.0467   -1.9525 C   0  0  0  0  0  0  0  0  0  0  0  0
    0.5686   -1.4168   -0.4488 S   0  0  0  0  0  0  0  0  0  0  0  0
   -2.0466   -0.5638    0.7258 H   0  0  0  0  0  0  0  0  0  0  0  0
   -0.7765    0.0454    1.7871 H   0  0  0  0  0  0  0  0  0  0  0  0
   -1.7371    1.1762    0.8222 H   0  0  0  0  0  0  0  0  0  0  0  0
    0.3433    2.8484   -2.6273 H   0  0  0  0  0  0  0  0  0  0  0  0
    1.3075   -1.0953   -1.5176 H   0  0  0  0  0  0  0  0  0  0  0  0
  1  2  1  0
  1  6  1  0
  1  7  1  0
  1  8  1  0
  2  3  1  0
  2  5  1  0
  3  4  3  0
  4  9  1  0
  5 10  1  0
M  RAD  1   2   2
M  END
>  <reaction>  (2) 
rxn_1986

>  <mol_properties>  (2) 
{"1": {"label": "acceptor", "atom_type": "Cs"}}

>  <type>  (2) 
r2

$$$$

     RDKit          3D

 11 10  0  0  0  0  0  0  0  0999 V2000
   -1.2582   -0.5130    0.2160 C   0  0  0  0  0  0  0  0  0  0  0  0
   -0.1109    0.0509   -0.6210 C   0  0  0  0  0  0  0  0  0  0  0  0
    1.1862   -0.2025   -0.0072 C   0  0  0  0  0  0  0  0  0  0  0  0
    2.2351   -0.4206    0.5274 C   0  0  0  0  0  0  0  0  0  0  0  0
   -0.3298    1.8272   -1.0120 S   0  0  0  0  0  0  0  0  0  0  0  0
   -1.2875   -0.0327    1.1945 H   0  0  0  0  0  0  0  0  0  0  0  0
   -2.2088   -0.3391   -0.2866 H   0  0  0  0  0  0  0  0  0  0  0  0
   -1.1220   -1.5854    0.3655 H   0  0  0  0  0  0  0  0  0  0  0  0
   -0.1222   -0.4181   -1.6078 H   0  0  0  0  0  0  0  0  0  0  0  0
    3.1729   -0.6098    0.9920 H   0  0  0  0  0  0  0  0  0  0  0  0
   -0.1942    2.2663    0.2466 H   0  0  0  0  0  0  0  0  0  0  0  0
  1  2  1  0
  1  6  1  0
  1  7  1  0
  1  8  1  0
  2  3  1  0
  2  5  1  0
  2  9  1  0
  3  4  3  0
  4 10  1  0
  5 11  1  0
M  END
>  <reaction>  (3) 
rxn_1986

>  <mol_properties>  (3) 
{"1": {"label": "acceptor", "atom_type": "Cs"}, "10": {"label": "a_hydrogen", "atom_type": "H0"}}

>  <type>  (3) 
r2h

$$$$

     RDKit          3D

 17 15  0  0  0  0  0  0  0  0999 V2000
   -0.0657    1.1682    2.6084 C   0  0  0  0  0  0  0  0  0  0  0  0
   -0.5877    0.6667    1.2789 C   0  0  0  0  0  3  0  0  0  0  0  0
   -1.3055    1.5994    0.4768 C   0  0  0  0  0  0  0  0  0  0  0  0
   -1.8563    2.3851   -0.2454 C   0  0  0  0  0  0  0  0  0  0  0  0
   -1.2717   -0.9712    1.3865 S   0  0  0  0  0  0  0  0  0  0  0  0
   -0.8884    1.3803    3.2941 H   0  0  0  0  0  0  0  0  0  0  0  0
    0.5873    0.4243    3.0669 H   0  0  0  0  0  0  0  0  0  0  0  0
    0.5003    2.0873    2.4585 H   0  0  0  0  0  0  0  0  0  0  0  0
   -2.3561    3.0772   -0.8799 H   0  0  0  0  0  0  0  0  0  0  0  0
   -1.6988   -1.0471    0.1189 H   0  0  0  0  0  0  0  0  0  0  0  0
    1.6369    0.3049   -0.1924 C   0  0  0  0  0  0  0  0  0  0  0  0
    1.4333   -0.9673   -0.8013 C   0  0  0  0  0  0  0  0  0  0  0  0
    0.6233   -1.2175   -2.2063 S   0  0  0  0  0  0  0  0  0  0  0  0
    0.5519    0.4655    0.5531 H   0  0  0  0  0  0  0  0  0  0  0  0
    2.4227    0.3741    0.5567 H   0  0  0  0  0  0  0  0  0  0  0  0
    1.5273    1.1744   -0.8350 H   0  0  0  0  0  0  0  0  0  0  0  0
    1.8034   -1.8298   -0.2487 H   0  0  0  0  0  0  0  0  0  0  0  0
  1  2  1  0
  1  6  1  0
  1  7  1  0
  1  8  1  0
  2  3  1  0
  2  5  1  0
  3  4  3  0
  4  9  1  0
  5 10  1  0
 11 12  1  0
 11 14  1  0
 11 15  1  0
 11 16  1  0
 12 13  2  0
 12 17  1  0
M  RAD  1   2   2
M  END
>  <reaction>  (4) 
rxn_1986

>  <mol_properties>  (4) 
{"1": {"label": "*3", "atom_type": "Cs"}, "4": {"label": "*4", "atom_type": "S2s"}, "10": {"label": "*1", "atom_type": "Cs"}, "11": {"label": "*0", "atom_type": "CS"}, "13": {"label": "*2", "atom_type": "H0"}}

>  <type>  (4) 
ts

$$$$

     RDKit          3D

 17 15  0  0  0  0  0  0  0  0999 V2000
   -0.0840    0.1662    2.7513 C   0  0  0  0  0  0  0  0  0  0  0  0
   -0.5466    0.1850    1.2952 C   0  0  0  0  0  0  0  0  0  0  0  0
   -0.5346    1.5313    0.7377 C   0  0  0  0  0  0  0  0  0  0  0  0
   -0.5202    2.6507    0.3128 C   0  0  0  0  0  0  0  0  0  0  0  0
   -2.1753   -0.6205    1.0620 S   0  0  0  0  0  0  0  0  0  0  0  0
   -0.7580    0.7570    3.3725 H   0  0  0  0  0  0  0  0  0  0  0  0
   -0.0701   -0.8563    3.1265 H   0  0  0  0  0  0  0  0  0  0  0  0
    0.9174    0.5922    2.8326 H   0  0  0  0  0  0  0  0  0  0  0  0
   -0.5073    3.6449   -0.0645 H   0  0  0  0  0  0  0  0  0  0  0  0
   -2.8821    0.2904    1.7446 H   0  0  0  0  0  0  0  0  0  0  0  0
    1.5545    0.2495   -0.2762 C   0  0  0  0  0  0  0  0  0  0  0  0
    1.5545   -0.9489   -1.1584 C   0  0  0  0  0  0  0  0  0  0  0  0
    1.5545   -0.9489   -2.7651 S   0  0  0  0  0  1  0  0  0  0  0  0
    0.5032    0.2173    0.5101 H   0  0  0  0  0  0  0  0  0  0  0  0
    2.4307    0.2227    0.3790 H   0  0  0  0  0  0  0  0  0  0  0  0
    1.5545    1.1733   -0.8509 H   0  0  0  0  0  0  0  0  0  0  0  0
    1.5545   -1.9034   -0.6285 H   0  0  0  0  0  0  0  0  0  0  0  0
  1  2  1  0
  1  6  1  0
  1  7  1  0
  1  8  1  0
  2  3  1  0
  2  5  1  0
  2 14  1  0
  3  4  3  0
  4  9  1  0
  5 10  1  0
 11 12  2  3
 11 15  1  0
 11 16  1  0
 12 13  1  0
 12 17  1  0
M  RAD  1  13   2
M  END
>  <reaction>  (5) 
rxn_1986

>  <mol_properties>  (5) 
{"1": {"label": "*3", "atom_type": "Cs"}, "4": {"label": "*4", "atom_type": "S2s"}, "10": {"label": "*1", "atom_type": "Cs"}, "11": {"label": "*0", "atom_type": "CS"}, "13": {"label": "*2", "atom_type": "H0"}}

>  <type>  (5) 
unop_1

>  <geom_source>  (5) 
Heuristics

$$$$

     RDKit          3D

 17 15  0  0  0  0  0  0  0  0999 V2000
   -1.0521   -1.3301    1.3333 C   0  0  0  0  0  0  0  0  0  0  0  0
   -0.6747    0.1249    1.0591 C   0  0  0  0  0  0  0  0  0  0  0  0
    0.0419    0.7216    2.1789 C   0  0  0  0  0  0  0  0  0  0  0  0
    0.6215    1.1835    3.1193 C   0  0  0  0  0  0  0  0  0  0  0  0
   -2.1136    1.1459    0.5661 S   0  0  0  0  0  0  0  0  0  0  0  0
   -1.7229   -1.3944    2.1905 H   0  0  0  0  0  0  0  0  0  0  0  0
   -1.5532   -1.7567    0.4653 H   0  0  0  0  0  0  0  0  0  0  0  0
   -0.1575   -1.9146    1.5547 H   0  0  0  0  0  0  0  0  0  0  0  0
    1.1364    1.5937    3.9546 H   0  0  0  0  0  0  0  0  0  0  0  0
   -2.7415    1.0847    1.7481 H   0  0  0  0  0  0  0  0  0  0  0  0
    1.4264    0.1894   -0.5122 C   0  0  0  0  0  0  0  0  0  0  0  0
    1.4264   -1.0090   -1.3944 C   0  0  0  0  0  0  0  0  0  0  0  0
    1.4264   -1.0090   -3.0011 S   0  0  0  0  0  1  0  0  0  0  0  0
    0.3751    0.1572    0.2740 H   0  0  0  0  0  0  0  0  0  0  0  0
    2.3026    0.1626    0.1430 H   0  0  0  0  0  0  0  0  0  0  0  0
    1.4264    1.1132   -1.0869 H   0  0  0  0  0  0  0  0  0  0  0  0
    1.4264   -1.9635   -0.8645 H   0  0  0  0  0  0  0  0  0  0  0  0
  1  2  1  0
  1  6  1  0
  1  7  1  0
  1  8  1  0
  2  3  1  0
  2  5  1  0
  2 14  1  0
  3  4  3  0
  4  9  1  0
  5 10  1  0
 11 12  2  3
 11 15  1  0
 11 16  1  0
 12 13  1  0
 12 17  1  0
M  RAD  1  13   2
M  END
>  <reaction>  (6) 
rxn_1986

>  <mol_properties>  (6) 
{"1": {"label": "*3", "atom_type": "Cs"}, "4": {"label": "*4", "atom_type": "S2s"}, "10": {"label": "*1", "atom_type": "Cs"}, "11": {"label": "*0", "atom_type": "CS"}, "13": {"label": "*2", "atom_type": "H0"}}

>  <type>  (6) 
unop_2

>  <geom_source>  (6) 
Heuristics

$$$$

     RDKit          3D

 17 15  0  0  0  0  0  0  0  0999 V2000
   -0.1765    1.0752    2.6232 C   0  0  0  0  0  0  0  0  0  0  0  0
   -0.5109    0.3718    1.3086 C   0  0  0  0  0  0  0  0  0  0  0  0
   -1.1047    1.2835    0.3393 C   0  0  0  0  0  0  0  0  0  0  0  0
   -1.5967    2.0570   -0.4310 C   0  0  0  0  0  0  0  0  0  0  0  0
   -1.5506   -1.1171    1.5500 S   0  0  0  0  0  0  0  0  0  0  0  0
   -1.0829    1.4633    3.0887 H   0  0  0  0  0  0  0  0  0  0  0  0
    0.2975    0.3766    3.3115 H   0  0  0  0  0  0  0  0  0  0  0  0
    0.4990    1.9125    2.4396 H   0  0  0  0  0  0  0  0  0  0  0  0
   -2.0336    2.7440   -1.1151 H   0  0  0  0  0  0  0  0  0  0  0  0
   -2.6405   -0.4612    1.9708 H   0  0  0  0  0  0  0  0  0  0  0  0
    1.5902    0.4363   -0.2628 C   0  0  0  0  0  0  0  0  0  0  0  0
    1.5902   -0.7622   -1.1449 C   0  0  0  0  0  0  0  0  0  0  0  0
    1.5902   -0.7622   -2.7516 S   0  0  0  0  0  1  0  0  0  0  0  0
    0.5388    0.4040    0.5235 H   0  0  0  0  0  0  0  0  0  0  0  0
    2.4663    0.4094    0.3925 H   0  0  0  0  0  0  0  0  0  0  0  0
    1.5902    1.3601   -0.8374 H   0  0  0  0  0  0  0  0  0  0  0  0
    1.5902   -1.7166   -0.6150 H   0  0  0  0  0  0  0  0  0  0  0  0
  1  2  1  0
  1  6  1  0
  1  7  1  0
  1  8  1  0
  2  3  1  0
  2  5  1  0
  2 14  1  0
  3  4  3  0
  4  9  1  0
  5 10  1  0
 11 12  2  3
 11 15  1  0
 11 16  1  0
 12 13  1  0
 12 17  1  0
M  RAD  1  13   2
M  END
>  <reaction>  (7) 
rxn_1986

>  <mol_properties>  (7) 
{"1": {"label": "*3", "atom_type": "Cs"}, "4": {"label": "*4", "atom_type": "S2s"}, "10": {"label": "*1", "atom_type": "Cs"}, "11": {"label": "*0", "atom_type": "CS"}, "13": {"label": "*2", "atom_type": "H0"}}

>  <type>  (7) 
unop_3

>  <geom_source>  (7) 
Heuristics

$$$$

     RDKit          3D

 17 15  0  0  0  0  0  0  0  0999 V2000
   -2.0920    0.1227    0.1287 C   0  0  0  0  0  0  0  0  0  0  0  0
   -0.8257    0.1286    0.9838 C   0  0  0  0  0  0  0  0  0  0  0  0
   -1.0292   -0.5402    2.2623 C   0  0  0  0  0  0  0  0  0  0  0  0
   -1.2319   -1.0897    3.3067 C   0  0  0  0  0  0  0  0  0  0  0  0
   -0.1361    1.8104    1.2115 S   0  0  0  0  0  0  0  0  0  0  0  0
   -2.8928    0.6667    0.6306 H   0  0  0  0  0  0  0  0  0  0  0  0
   -1.8970    0.5971   -0.8322 H   0  0  0  0  0  0  0  0  0  0  0  0
   -2.4274   -0.9022   -0.0383 H   0  0  0  0  0  0  0  0  0  0  0  0
   -1.4120   -1.5777    4.2342 H   0  0  0  0  0  0  0  0  0  0  0  0
   -1.1505    2.2798    1.9503 H   0  0  0  0  0  0  0  0  0  0  0  0
    1.2754    0.1931   -0.5876 C   0  0  0  0  0  0  0  0  0  0  0  0
    1.2754   -1.0054   -1.4698 C   0  0  0  0  0  0  0  0  0  0  0  0
    1.2754   -1.0054   -3.0765 S   0  0  0  0  0  1  0  0  0  0  0  0
    0.2241    0.1608    0.1987 H   0  0  0  0  0  0  0  0  0  0  0  0
    2.1516    0.1662    0.0676 H   0  0  0  0  0  0  0  0  0  0  0  0
    1.2754    1.1169   -1.1623 H   0  0  0  0  0  0  0  0  0  0  0  0
    1.2754   -1.9598   -0.9399 H   0  0  0  0  0  0  0  0  0  0  0  0
  1  2  1  0
  1  6  1  0
  1  7  1  0
  1  8  1  0
  2  3  1  0
  2  5  1  0
  2 14  1  0
  3  4  3  0
  4  9  1  0
  5 10  1  0
 11 12  2  3
 11 15  1  0
 11 16  1  0
 12 13  1  0
 12 17  1  0
M  RAD  1  13   2
M  END
>  <reaction>  (8) 
rxn_1986

>  <mol_properties>  (8) 
{"1": {"label": "*3", "atom_type": "Cs"}, "4": {"label": "*4", "atom_type": "S2s"}, "10": {"label": "*1", "atom_type": "Cs"}, "11": {"label": "*0", "atom_type": "CS"}, "13": {"label": "*2", "atom_type": "H0"}}

>  <type>  (8) 
unop_4

>  <geom_source>  (8) 
Heuristics

$$$$

     RDKit          3D

 17 15  0  0  0  0  0  0  0  0999 V2000
   -0.6046    1.8110    2.0619 C   0  0  0  0  0  0  0  0  0  0  0  0
   -0.6137    0.5771    1.1606 C   0  0  0  0  0  0  0  0  0  0  0  0
   -1.8081    0.5203    0.3278 C   0  0  0  0  0  0  0  0  0  0  0  0
   -2.8040    0.4999   -0.3366 C   0  0  0  0  0  0  0  0  0  0  0  0
   -0.3756   -0.9805    2.0949 S   0  0  0  0  0  0  0  0  0  0  0  0
   -1.4514    1.7872    2.7485 H   0  0  0  0  0  0  0  0  0  0  0  0
    0.3156    1.8427    2.6438 H   0  0  0  0  0  0  0  0  0  0  0  0
   -0.6792    2.7172    1.4584 H   0  0  0  0  0  0  0  0  0  0  0  0
   -3.6885    0.4818   -0.9267 H   0  0  0  0  0  0  0  0  0  0  0  0
   -1.5399   -0.9279    2.7558 H   0  0  0  0  0  0  0  0  0  0  0  0
    1.4874    0.6416   -0.4108 C   0  0  0  0  0  0  0  0  0  0  0  0
    1.4874   -0.5568   -1.2930 C   0  0  0  0  0  0  0  0  0  0  0  0
    1.4874   -0.5568   -2.8996 S   0  0  0  0  0  1  0  0  0  0  0  0
    0.4360    0.6094    0.3755 H   0  0  0  0  0  0  0  0  0  0  0  0
    2.3636    0.6148    0.2445 H   0  0  0  0  0  0  0  0  0  0  0  0
    1.4874    1.5654   -0.9854 H   0  0  0  0  0  0  0  0  0  0  0  0
    1.4874   -1.5113   -0.7630 H   0  0  0  0  0  0  0  0  0  0  0  0
  1  2  1  0
  1  6  1  0
  1  7  1  0
  1  8  1  0
  2  3  1  0
  2  5  1  0
  2 14  1  0
  3  4  3  0
  4  9  1  0
  5 10  1  0
 11 12  2  3
 11 15  1  0
 11 16  1  0
 12 13  1  0
 12 17  1  0
M  RAD  1  13   2
M  END
>  <reaction>  (9) 
rxn_1986

>  <mol_properties>  (9) 
{"1": {"label": "*3", "atom_type": "Cs"}, "4": {"label": "*4", "atom_type": "S2s"}, "10": {"label": "*1", "atom_type": "Cs"}, "11": {"label": "*0", "atom_type": "CS"}, "13": {"label": "*2", "atom_type": "H0"}}

>  <type>  (9) 
unop_5

>  <geom_source>  (9) 
Heuristics

$$$$

     RDKit          3D

 17 15  0  0  0  0  0  0  0  0999 V2000
   -2.0674    0.9424    0.2427 C   0  0  0  0  0  0  0  0  0  0  0  0
   -0.9046    0.2278    0.9297 C   0  0  0  0  0  0  0  0  0  0  0  0
   -1.3642   -0.6852    1.9683 C   0  0  0  0  0  0  0  0  0  0  0  0
   -1.7746   -1.4206    2.8194 C   0  0  0  0  0  0  0  0  0  0  0  0
    0.3572    1.3902    1.5720 S   0  0  0  0  0  0  0  0  0  0  0  0
   -2.6168    1.5525    0.9603 H   0  0  0  0  0  0  0  0  0  0  0  0
   -1.6935    1.5886   -0.5505 H   0  0  0  0  0  0  0  0  0  0  0  0
   -2.7572    0.2123   -0.1841 H   0  0  0  0  0  0  0  0  0  0  0  0
   -2.1392   -2.0738    3.5753 H   0  0  0  0  0  0  0  0  0  0  0  0
   -0.4222    1.9376    2.5144 H   0  0  0  0  0  0  0  0  0  0  0  0
    1.1965    0.2923   -0.6417 C   0  0  0  0  0  0  0  0  0  0  0  0
    1.1965   -0.9062   -1.5239 C   0  0  0  0  0  0  0  0  0  0  0  0
    1.1965   -0.9062   -3.1306 S   0  0  0  0  0  1  0  0  0  0  0  0
    0.1451    0.2600    0.1446 H   0  0  0  0  0  0  0  0  0  0  0  0
    2.0726    0.2654    0.0135 H   0  0  0  0  0  0  0  0  0  0  0  0
    1.1965    1.2161   -1.2164 H   0  0  0  0  0  0  0  0  0  0  0  0
    1.1965   -1.8606   -0.9940 H   0  0  0  0  0  0  0  0  0  0  0  0
  1  2  1  0
  1  6  1  0
  1  7  1  0
  1  8  1  0
  2  3  1  0
  2  5  1  0
  2 14  1  0
  3  4  3  0
  4  9  1  0
  5 10  1  0
 11 12  2  3
 11 15  1  0
 11 16  1  0
 12 13  1  0
 12 17  1  0
M  RAD  1  13   2
M  END
>  <reaction>  (10) 
rxn_1986

>  <mol_properties>  (10) 
{"1": {"label": "*3", "atom_type": "Cs"}, "4": {"label": "*4", "atom_type": "S2s"}, "10": {"label": "*1", "atom_type": "Cs"}, "11": {"label": "*0", "atom_type": "CS"}, "13": {"label": "*2", "atom_type": "H0"}}

>  <type>  (10) 
unop_6

>  <geom_source>  (10) 
Heuristics

$$$$

     RDKit          3D

 17 15  0  0  0  0  0  0  0  0999 V2000
   -1.7761    1.6311    0.6603 C   0  0  0  0  0  0  0  0  0  0  0  0
   -0.9207    0.3907    0.9146 C   0  0  0  0  0  0  0  0  0  0  0  0
   -1.6880   -0.6817    1.5346 C   0  0  0  0  0  0  0  0  0  0  0  0
   -2.3452   -1.5396    2.0502 C   0  0  0  0  0  0  0  0  0  0  0  0
    0.5975    0.7645    1.8692 S   0  0  0  0  0  0  0  0  0  0  0  0
   -2.1526    2.0334    1.6012 H   0  0  0  0  0  0  0  0  0  0  0  0
   -1.1836    2.3991    0.1647 H   0  0  0  0  0  0  0  0  0  0  0  0
   -2.6305    1.3753    0.0315 H   0  0  0  0  0  0  0  0  0  0  0  0
   -2.9289   -2.3015    2.5082 H   0  0  0  0  0  0  0  0  0  0  0  0
   -0.0288    1.0903    3.0081 H   0  0  0  0  0  0  0  0  0  0  0  0
    1.1804    0.4552   -0.6568 C   0  0  0  0  0  0  0  0  0  0  0  0
    1.1804   -0.7432   -1.5390 C   0  0  0  0  0  0  0  0  0  0  0  0
    1.1804   -0.7432   -3.1456 S   0  0  0  0  0  1  0  0  0  0  0  0
    0.1291    0.4230    0.1295 H   0  0  0  0  0  0  0  0  0  0  0  0
    2.0566    0.4284   -0.0016 H   0  0  0  0  0  0  0  0  0  0  0  0
    1.1804    1.3790   -1.2315 H   0  0  0  0  0  0  0  0  0  0  0  0
    1.1804   -1.6976   -1.0090 H   0  0  0  0  0  0  0  0  0  0  0  0
  1  2  1  0
  1  6  1  0
  1  7  1  0
  1  8  1  0
  2  3  1  0
  2  5  1  0
  2 14  1  0
  3  4  3  0
  4  9  1  0
  5 10  1  0
 11 12  2  3
 11 15  1  0
 11 16  1  0
 12 13  1  0
 12 17  1  0
M  RAD  1  13   2
M  END
>  <reaction>  (11) 
rxn_1986

>  <mol_properties>  (11) 
{"1": {"label": "*3", "atom_type": "Cs"}, "4": {"label": "*4", "atom_type": "S2s"}, "10": {"label": "*1", "atom_type": "Cs"}, "11": {"label": "*0", "atom_type": "CS"}, "13": {"label": "*2", "atom_type": "H0"}}

>  <type>  (11) 
unop_7

>  <geom_source>  (11) 
Heuristics

$$$$

     RDKit          3D

 17 15  0  0  0  0  0  0  0  0999 V2000
   -0.2531   -0.6391    2.4924 C   0  0  0  0  0  0  0  0  0  0  0  0
   -0.6122    0.1002    1.2042 C   0  0  0  0  0  0  0  0  0  0  0  0
   -0.1643    1.4866    1.2296 C   0  0  0  0  0  0  0  0  0  0  0  0
    0.2103    2.6225    1.2856 C   0  0  0  0  0  0  0  0  0  0  0  0
   -2.3939   -0.0193    0.7955 S   0  0  0  0  0  0  0  0  0  0  0  0
   -0.7479   -0.1769    3.3471 H   0  0  0  0  0  0  0  0  0  0  0  0
   -0.5689   -1.6796    2.4272 H   0  0  0  0  0  0  0  0  0  0  0  0
    0.8246   -0.6007    2.6593 H   0  0  0  0  0  0  0  0  0  0  0  0
    0.5430    3.6313    1.3354 H   0  0  0  0  0  0  0  0  0  0  0  0
   -2.8262    0.7051    1.8364 H   0  0  0  0  0  0  0  0  0  0  0  0
    1.4890    0.1647   -0.3671 C   0  0  0  0  0  0  0  0  0  0  0  0
    1.4890   -1.0338   -1.2493 C   0  0  0  0  0  0  0  0  0  0  0  0
    1.4890   -1.0338   -2.8560 S   0  0  0  0  0  1  0  0  0  0  0  0
    0.4376    0.1324    0.4191 H   0  0  0  0  0  0  0  0  0  0  0  0
    2.3651    0.1378    0.2881 H   0  0  0  0  0  0  0  0  0  0  0  0
    1.4889    1.0885   -0.9418 H   0  0  0  0  0  0  0  0  0  0  0  0
    1.4890   -1.9882   -0.7194 H   0  0  0  0  0  0  0  0  0  0  0  0
  1  2  1  0
  1  6  1  0
  1  7  1  0
  1  8  1  0
  2  3  1  0
  2  5  1  0
  2 14  1  0
  3  4  3  0
  4  9  1  0
  5 10  1  0
 11 12  2  3
 11 15  1  0
 11 16  1  0
 12 13  1  0
 12 17  1  0
M  RAD  1  13   2
M  END
>  <reaction>  (12) 
rxn_1986

>  <mol_properties>  (12) 
{"1": {"label": "*3", "atom_type": "Cs"}, "4": {"label": "*4", "atom_type": "S2s"}, "10": {"label": "*1", "atom_type": "Cs"}, "11": {"label": "*0", "atom_type": "CS"}, "13": {"label": "*2", "atom_type": "H0"}}

>  <type>  (12) 
unop_8

>  <geom_source>  (12) 
Heuristics

$$$$

     RDKit          3D

 17 15  0  0  0  0  0  0  0  0999 V2000
   -1.8739   -0.6203    0.3188 C   0  0  0  0  0  0  0  0  0  0  0  0
   -0.7356    0.1078    1.0322 C   0  0  0  0  0  0  0  0  0  0  0  0
   -0.6393   -0.2751    2.4349 C   0  0  0  0  0  0  0  0  0  0  0  0
   -0.5922   -0.6060    3.5847 C   0  0  0  0  0  0  0  0  0  0  0  0
   -0.8327    1.9271    0.8412 S   0  0  0  0  0  0  0  0  0  0  0  0
   -2.8326   -0.3620    0.7695 H   0  0  0  0  0  0  0  0  0  0  0  0
   -1.8962   -0.3399   -0.7335 H   0  0  0  0  0  0  0  0  0  0  0  0
   -1.7379   -1.7001    0.3998 H   0  0  0  0  0  0  0  0  0  0  0  0
   -0.5504   -0.8998    4.6059 H   0  0  0  0  0  0  0  0  0  0  0  0
   -1.9537    2.0844    1.5579 H   0  0  0  0  0  0  0  0  0  0  0  0
    1.3655    0.1723   -0.5392 C   0  0  0  0  0  0  0  0  0  0  0  0
    1.3655   -1.0262   -1.4214 C   0  0  0  0  0  0  0  0  0  0  0  0
    1.3655   -1.0262   -3.0280 S   0  0  0  0  0  1  0  0  0  0  0  0
    0.3141    0.1400    0.2471 H   0  0  0  0  0  0  0  0  0  0  0  0
    2.2416    0.1454    0.1161 H   0  0  0  0  0  0  0  0  0  0  0  0
    1.3655    1.0961   -1.1138 H   0  0  0  0  0  0  0  0  0  0  0  0
    1.3655   -1.9806   -0.8914 H   0  0  0  0  0  0  0  0  0  0  0  0
  1  2  1  0
  1  6  1  0
  1  7  1  0
  1  8  1  0
  2  3  1  0
  2  5  1  0
  2 14  1  0
  3  4  3  0
  4  9  1  0
  5 10  1  0
 11 12  2  3
 11 15  1  0
 11 16  1  0
 12 13  1  0
 12 17  1  0
M  RAD  1  13   2
M  END
>  <reaction>  (13) 
rxn_1986

>  <mol_properties>  (13) 
{"1": {"label": "*3", "atom_type": "Cs"}, "4": {"label": "*4", "atom_type": "S2s"}, "10": {"label": "*1", "atom_type": "Cs"}, "11": {"label": "*0", "atom_type": "CS"}, "13": {"label": "*2", "atom_type": "H0"}}

>  <type>  (13) 
unop_9

>  <geom_source>  (13) 
Heuristics

$$$$

     RDKit          3D

 17 15  0  0  0  0  0  0  0  0999 V2000
   -0.6082   -1.1679    1.9667 C   0  0  0  0  0  0  0  0  0  0  0  0
   -0.6598    0.0971    1.1112 C   0  0  0  0  0  0  0  0  0  0  0  0
    0.0462    1.2071    1.7380 C   0  0  0  0  0  0  0  0  0  0  0  0
    0.6279    2.1002    2.2836 C   0  0  0  0  0  0  0  0  0  0  0  0
   -2.3691    0.5673    0.6497 S   0  0  0  0  0  0  0  0  0  0  0  0
   -1.0997   -0.9995    2.9254 H   0  0  0  0  0  0  0  0  0  0  0  0
   -1.1127   -1.9866    1.4551 H   0  0  0  0  0  0  0  0  0  0  0  0
    0.4286   -1.4491    2.1588 H   0  0  0  0  0  0  0  0  0  0  0  0
    1.1445    2.8934    2.7682 H   0  0  0  0  0  0  0  0  0  0  0  0
   -2.7702    0.8760    1.8903 H   0  0  0  0  0  0  0  0  0  0  0  0
    1.4413    0.1616   -0.4602 C   0  0  0  0  0  0  0  0  0  0  0  0
    1.4413   -1.0369   -1.3424 C   0  0  0  0  0  0  0  0  0  0  0  0
    1.4413   -1.0369   -2.9490 S   0  0  0  0  0  1  0  0  0  0  0  0
    0.3900    0.1293    0.3261 H   0  0  0  0  0  0  0  0  0  0  0  0
    2.3175    0.1347    0.1951 H   0  0  0  0  0  0  0  0  0  0  0  0
    1.4413    1.0854   -1.0348 H   0  0  0  0  0  0  0  0  0  0  0  0
    1.4413   -1.9913   -0.8124 H   0  0  0  0  0  0  0  0  0  0  0  0
  1  2  1  0
  1  6  1  0
  1  7  1  0
  1  8  1  0
  2  3  1  0
  2  5  1  0
  2 14  1  0
  3  4  3  0
  4  9  1  0
  5 10  1  0
 11 12  2  3
 11 15  1  0
 11 16  1  0
 12 13  1  0
 12 17  1  0
M  RAD  1  13   2
M  END
>  <reaction>  (14) 
rxn_1986

>  <mol_properties>  (14) 
{"1": {"label": "*3", "atom_type": "Cs"}, "4": {"label": "*4", "atom_type": "S2s"}, "10": {"label": "*1", "atom_type": "Cs"}, "11": {"label": "*0", "atom_type": "CS"}, "13": {"label": "*2", "atom_type": "H0"}}

>  <type>  (14) 
unop_10

>  <geom_source>  (14) 
Heuristics

$$$$

     RDKit          3D

 17 15  0  0  0  0  0  0  0  0999 V2000
   -1.2499    1.9885    1.3076 C   0  0  0  0  0  0  0  0  0  0  0  0
   -0.8234    0.5582    0.9807 C   0  0  0  0  0  0  0  0  0  0  0  0
   -1.9620   -0.3495    0.9234 C   0  0  0  0  0  0  0  0  0  0  0  0
   -2.9180   -1.0697    0.8913 C   0  0  0  0  0  0  0  0  0  0  0  0
    0.4739   -0.0674    2.1127 S   0  0  0  0  0  0  0  0  0  0  0  0
   -1.7199    2.0304    2.2907 H   0  0  0  0  0  0  0  0  0  0  0  0
   -0.3822    2.6471    1.3075 H   0  0  0  0  0  0  0  0  0  0  0  0
   -1.9703    2.3436    0.5689 H   0  0  0  0  0  0  0  0  0  0  0  0
   -3.7671   -1.7094    0.8627 H   0  0  0  0  0  0  0  0  0  0  0  0
   -0.2961   -0.0931    3.2090 H   0  0  0  0  0  0  0  0  0  0  0  0
    1.2777    0.6227   -0.5907 C   0  0  0  0  0  0  0  0  0  0  0  0
    1.2777   -0.5758   -1.4729 C   0  0  0  0  0  0  0  0  0  0  0  0
    1.2777   -0.5758   -3.0796 S   0  0  0  0  0  1  0  0  0  0  0  0
    0.2263    0.5904    0.1956 H   0  0  0  0  0  0  0  0  0  0  0  0
    2.1538    0.5958    0.0645 H   0  0  0  0  0  0  0  0  0  0  0  0
    1.2777    1.5465   -1.1654 H   0  0  0  0  0  0  0  0  0  0  0  0
    1.2777   -1.5302   -0.9430 H   0  0  0  0  0  0  0  0  0  0  0  0
  1  2  1  0
  1  6  1  0
  1  7  1  0
  1  8  1  0
  2  3  1  0
  2  5  1  0
  2 14  1  0
  3  4  3  0
  4  9  1  0
  5 10  1  0
 11 12  2  3
 11 15  1  0
 11 16  1  0
 12 13  1  0
 12 17  1  0
M  RAD  1  13   2
M  END
>  <reaction>  (15) 
rxn_1986

>  <mol_properties>  (15) 
{"1": {"label": "*3", "atom_type": "Cs"}, "4": {"label": "*4", "atom_type": "S2s"}, "10": {"label": "*1", "atom_type": "Cs"}, "11": {"label": "*0", "atom_type": "CS"}, "13": {"label": "*2", "atom_type": "H0"}}

>  <type>  (15) 
unop_11

>  <geom_source>  (15) 
Heuristics

$$$$

     RDKit          3D

 17 15  0  0  0  0  0  0  0  0999 V2000
   -1.4969   -1.1309    0.7480 C   0  0  0  0  0  0  0  0  0  0  0  0
   -0.6841    0.1277    1.0481 C   0  0  0  0  0  0  0  0  0  0  0  0
   -0.2245    0.1619    2.4305 C   0  0  0  0  0  0  0  0  0  0  0  0
    0.1309    0.1627    3.5739 C   0  0  0  0  0  0  0  0  0  0  0  0
   -1.5739    1.6653    0.6012 S   0  0  0  0  0  0  0  0  0  0  0  0
   -2.3948   -1.1606    1.3661 H   0  0  0  0  0  0  0  0  0  0  0  0
   -1.7942   -1.1434   -0.2998 H   0  0  0  0  0  0  0  0  0  0  0  0
   -0.9038   -2.0211    0.9636 H   0  0  0  0  0  0  0  0  0  0  0  0
    0.4466    0.1633    4.5894 H   0  0  0  0  0  0  0  0  0  0  0  0
   -2.5336    1.5475    1.5288 H   0  0  0  0  0  0  0  0  0  0  0  0
    1.4170    0.1922   -0.5233 C   0  0  0  0  0  0  0  0  0  0  0  0
    1.4170   -1.0063   -1.4055 C   0  0  0  0  0  0  0  0  0  0  0  0
    1.4170   -1.0063   -3.0121 S   0  0  0  0  0  1  0  0  0  0  0  0
    0.3657    0.1599    0.2630 H   0  0  0  0  0  0  0  0  0  0  0  0
    2.2932    0.1653    0.1319 H   0  0  0  0  0  0  0  0  0  0  0  0
    1.4170    1.1160   -1.0980 H   0  0  0  0  0  0  0  0  0  0  0  0
    1.4170   -1.9607   -0.8755 H   0  0  0  0  0  0  0  0  0  0  0  0
  1  2  1  0
  1  6  1  0
  1  7  1  0
  1  8  1  0
  2  3  1  0
  2  5  1  0
  2 14  1  0
  3  4  3  0
  4  9  1  0
  5 10  1  0
 11 12  2  3
 11 15  1  0
 11 16  1  0
 12 13  1  0
 12 17  1  0
M  RAD  1  13   2
M  END
>  <reaction>  (16) 
rxn_1986

>  <mol_properties>  (16) 
{"1": {"label": "*3", "atom_type": "Cs"}, "4": {"label": "*4", "atom_type": "S2s"}, "10": {"label": "*1", "atom_type": "Cs"}, "11": {"label": "*0", "atom_type": "CS"}, "13": {"label": "*2", "atom_type": "H0"}}

>  <type>  (16) 
unop_12

>  <geom_source>  (16) 
Heuristics

$$$$

     RDKit          3D

 17 15  0  0  0  0  0  0  0  0999 V2000
   -1.4941   -1.6713   -0.9152 S   0  0  0  0  0  0  0  0  0  0  0  0
    4.0195    0.3733   -0.4322 S   0  0  0  0  0  0  0  0  0  0  0  0
   -0.9130   -0.2229    0.0207 C   0  0  0  0  0  3  0  0  0  0  0  0
   -1.3048   -0.3481    1.4899 C   0  0  0  0  0  0  0  0  0  0  0  0
    1.5786   -0.2952   -0.7282 C   0  0  0  0  0  0  0  0  0  0  0  0
    2.6534    0.4418    0.0041 C   0  0  0  0  0  0  0  0  0  0  0  0
   -1.4974    0.9907   -0.5610 C   0  0  0  0  0  0  0  0  0  0  0  0
   -1.9762    1.9888   -1.0388 C   0  0  0  0  0  0  0  0  0  0  0  0
    0.4442   -0.1467   -0.0767 H   0  0  0  0  0  0  0  0  0  0  0  0
   -2.4086   -0.4232    1.5973 H   0  0  0  0  0  0  0  0  0  0  0  0
   -0.8380   -1.2551    1.9281 H   0  0  0  0  0  0  0  0  0  0  0  0
   -0.9437    0.5362    2.0573 H   0  0  0  0  0  0  0  0  0  0  0  0
    2.3966    1.0347    0.8749 H   0  0  0  0  0  0  0  0  0  0  0  0
    1.5012    0.0630   -1.7771 H   0  0  0  0  0  0  0  0  0  0  0  0
    1.7695   -1.3895   -0.7092 H   0  0  0  0  0  0  0  0  0  0  0  0
   -0.5906   -2.5413   -0.2757 H   0  0  0  0  0  0  0  0  0  0  0  0
   -2.3966    2.8647   -1.4582 H   0  0  0  0  0  0  0  0  0  0  0  0
  1  3  1  0
  1 16  1  0
  2  6  2  0
  3  4  1  0
  3  7  1  0
  4 10  1  0
  4 11  1  0
  4 12  1  0
  5  6  1  0
  5  9  1  0
  5 14  1  0
  5 15  1  0
  6 13  1  0
  7  8  3  0
  8 17  1  0
M  RAD  1   3   2
M  END
>  <reaction>  (17) 
rxn_1986

>  <mol_properties>  (17) 
{"1": {"label": "*3", "atom_type": "Cs"}, "4": {"label": "*4", "atom_type": "S2s"}, "10": {"label": "*1", "atom_type": "Cs"}, "11": {"label": "*0", "atom_type": "CS"}, "13": {"label": "*2", "atom_type": "H0"}}

>  <type>  (17) 
unop_13

>  <geom_source>  (17) 
AutoTST

$$$$
