
     RDKit          3D

 12 11  0  0  0  0  0  0  0  0999 V2000
    1.9877    0.1011    0.4814 C   0  0  0  0  0  0  0  0  0  0  0  0
    0.8179    0.5502    0.0525 C   0  0  0  0  0  0  0  0  0  0  0  0
   -0.2939   -0.2692   -0.5320 C   0  0  0  0  0  0  0  0  0  0  0  0
   -0.0292   -1.7631   -0.6328 C   0  0  0  0  0  0  0  0  0  0  0  0
    2.2522   -0.9490    0.4436 H   0  0  0  0  0  0  0  0  0  0  0  0
    2.7295    0.7757    0.8896 H   0  0  0  0  0  0  0  0  0  0  0  0
    0.6162    1.6164    0.1190 H   0  0  0  0  0  0  0  0  0  0  0  0
   -0.5268    0.1319   -1.5245 H   0  0  0  0  0  0  0  0  0  0  0  0
   -1.1959   -0.0938    0.0644 H   0  0  0  0  0  0  0  0  0  0  0  0
    0.1590   -2.1992    0.3502 H   0  0  0  0  0  0  0  0  0  0  0  0
    0.8382   -1.9701   -1.2626 H   0  0  0  0  0  0  0  0  0  0  0  0
   -0.8879   -2.2759   -1.0672 H   0  0  0  0  0  0  0  0  0  0  0  0
  1  2  2  3
  1  5  1  0
  1  6  1  0
  2  3  1  0
  2  7  1  0
  3  4  1  0
  3  8  1  0
  3  9  1  0
  4 10  1  0
  4 11  1  0
  4 12  1  0
M  END
>  <reaction>  (1) 
rxn_1069

>  <mol_properties>  (1) 
{"2": {"label": "donator", "atom_type": "Cs"}, "7": {"label": "d_hydrogen", "atom_type": "H0"}}

>  <type>  (1) 
r1h

$$$$

     RDKit          3D

 12 11  0  0  0  0  0  0  0  0999 V2000
   -0.9951    0.1196   -0.8321 C   0  0  0  0  0  0  0  0  0  0  0  0
   -0.3760    0.2571    0.5231 C   0  0  0  0  0  3  0  0  0  0  0  0
    0.9330   -0.1537    0.7810 C   0  0  0  0  0  0  0  0  0  0  0  0
    1.5987   -0.1880    1.9734 C   0  0  0  0  0  0  0  0  0  0  0  0
   -1.4483    0.9449    1.7152 S   0  0  0  0  0  0  0  0  0  0  0  0
   -1.9164   -0.4696   -0.7936 H   0  0  0  0  0  0  0  0  0  0  0  0
   -1.2565    1.0958   -1.2506 H   0  0  0  0  0  0  0  0  0  0  0  0
   -0.3088   -0.3780   -1.5170 H   0  0  0  0  0  0  0  0  0  0  0  0
    1.4783   -0.4898   -0.0971 H   0  0  0  0  0  0  0  0  0  0  0  0
    2.6278   -0.5153    2.0142 H   0  0  0  0  0  0  0  0  0  0  0  0
    1.1316    0.0690    2.9151 H   0  0  0  0  0  0  0  0  0  0  0  0
   -0.5306    1.3052    2.6211 H   0  0  0  0  0  0  0  0  0  0  0  0
  1  2  1  0
  1  6  1  0
  1  7  1  0
  1  8  1  0
  2  3  1  0
  2  5  1  0
  3  4  2  3
  3  9  1  0
  4 10  1  0
  4 11  1  0
  5 12  1  0
M  RAD  1   2   2
M  END
>  <reaction>  (2) 
rxn_1069

>  <mol_properties>  (2) 
{"1": {"label": "acceptor", "atom_type": "Cs"}}

>  <type>  (2) 
r2

$$$$

     RDKit          3D

 13 12  0  0  0  0  0  0  0  0999 V2000
   -1.1828    0.8269   -0.1645 C   0  0  0  0  0  0  0  0  0  0  0  0
   -0.4827   -0.4584   -0.5736 C   0  0  1  0  0  0  0  0  0  0  0  0
   -0.9759   -1.7030    0.1030 C   0  0  0  0  0  0  0  0  0  0  0  0
   -2.0084   -1.7831    0.9287 C   0  0  0  0  0  0  0  0  0  0  0  0
   -0.4908   -0.7025   -2.3913 S   0  0  0  0  0  0  0  0  0  0  0  0
   -1.0941    0.9860    0.9125 H   0  0  0  0  0  0  0  0  0  0  0  0
   -0.7405    1.6784   -0.6793 H   0  0  0  0  0  0  0  0  0  0  0  0
   -2.2437    0.7943   -0.4195 H   0  0  0  0  0  0  0  0  0  0  0  0
    0.5870   -0.3637   -0.3637 H   0  0  0  0  0  0  0  0  0  0  0  0
   -0.4209   -2.6026   -0.1443 H   0  0  0  0  0  0  0  0  0  0  0  0
   -2.2982   -2.7315    1.3623 H   0  0  0  0  0  0  0  0  0  0  0  0
   -2.5999   -0.9190    1.2055 H   0  0  0  0  0  0  0  0  0  0  0  0
   -1.8040   -0.9489   -2.4971 H   0  0  0  0  0  0  0  0  0  0  0  0
  1  2  1  0
  1  6  1  0
  1  7  1  0
  1  8  1  0
  2  3  1  0
  2  5  1  0
  2  9  1  1
  3  4  2  3
  3 10  1  0
  4 11  1  0
  4 12  1  0
  5 13  1  0
M  END
>  <reaction>  (3) 
rxn_1069

>  <mol_properties>  (3) 
{"1": {"label": "acceptor", "atom_type": "Cs"}, "12": {"label": "a_hydrogen", "atom_type": "H0"}}

>  <type>  (3) 
r2h

$$$$

     RDKit          3D

 24 22  0  0  0  0  0  0  0  0999 V2000
    0.0621    1.1077    2.0001 C   0  0  0  0  0  0  0  0  0  0  0  0
    0.4459    0.1433    0.9065 C   0  0  0  0  0  3  0  0  0  0  0  0
    1.3713    0.5934   -0.1301 C   0  0  0  0  0  0  0  0  0  0  0  0
    1.8382    1.8367   -0.2737 C   0  0  0  0  0  0  0  0  0  0  0  0
    0.6964   -1.5592    1.4347 S   0  0  0  0  0  0  0  0  0  0  0  0
    0.9172    1.3296    2.6457 H   0  0  0  0  0  0  0  0  0  0  0  0
   -0.2974    2.0492    1.5793 H   0  0  0  0  0  0  0  0  0  0  0  0
   -0.7266    0.6857    2.6220 H   0  0  0  0  0  0  0  0  0  0  0  0
    1.6621   -0.1650   -0.8498 H   0  0  0  0  0  0  0  0  0  0  0  0
    2.4985    2.0869   -1.0936 H   0  0  0  0  0  0  0  0  0  0  0  0
    1.5904    2.6331    0.4170 H   0  0  0  0  0  0  0  0  0  0  0  0
    1.9935   -1.4576    1.7633 H   0  0  0  0  0  0  0  0  0  0  0  0
   -1.0232   -0.5368   -2.8304 C   0  0  0  0  0  0  0  0  0  0  0  0
   -1.4441   -0.9557   -1.6329 C   0  0  0  0  0  0  0  0  0  0  0  0
   -1.8324   -0.0977   -0.5225 C   0  0  0  0  0  0  0  0  0  0  0  0
   -2.1173    1.3592   -0.7797 C   0  0  0  0  0  0  0  0  0  0  0  0
   -0.9853    0.5140   -3.0911 H   0  0  0  0  0  0  0  0  0  0  0  0
   -0.7133   -1.2417   -3.5906 H   0  0  0  0  0  0  0  0  0  0  0  0
   -1.4525   -2.0227   -1.4318 H   0  0  0  0  0  0  0  0  0  0  0  0
   -0.7128   -0.0463    0.2154 H   0  0  0  0  0  0  0  0  0  0  0  0
   -2.5126   -0.5740    0.1819 H   0  0  0  0  0  0  0  0  0  0  0  0
   -2.9233    1.4815   -1.5090 H   0  0  0  0  0  0  0  0  0  0  0  0
   -1.2347    1.8696   -1.1731 H   0  0  0  0  0  0  0  0  0  0  0  0
   -2.4139    1.8650    0.1392 H   0  0  0  0  0  0  0  0  0  0  0  0
  1  2  1  0
  1  6  1  0
  1  7  1  0
  1  8  1  0
  2  3  1  0
  2  5  1  0
  3  4  2  3
  3  9  1  0
  4 10  1  0
  4 11  1  0
  5 12  1  0
 13 14  2  3
 13 17  1  0
 13 18  1  0
 14 15  1  0
 14 19  1  0
 15 16  1  0
 15 20  1  0
 15 21  1  0
 16 22  1  0
 16 23  1  0
 16 24  1  0
M  RAD  1   2   2
M  END
>  <reaction>  (4) 
rxn_1069

>  <mol_properties>  (4) 
{"1": {"label": "*3", "atom_type": "Cs"}, "4": {"label": "*4", "atom_type": "S2s"}, "13": {"label": "*0", "atom_type": "Cd"}, "14": {"label": "*1", "atom_type": "Cs"}, "19": {"label": "*2", "atom_type": "H0"}}

>  <type>  (4) 
ts

$$$$

     RDKit          3D

 24 22  0  0  0  0  0  0  0  0999 V2000
    1.7075    1.2299    0.3994 C   0  0  0  0  0  0  0  0  0  0  0  0
    0.8163    0.0200    0.6261 C   0  0  0  0  0  0  0  0  0  0  0  0
    1.4807   -1.1547    1.2808 C   0  0  0  0  0  0  0  0  0  0  0  0
    2.7175   -1.1856    1.7537 C   0  0  0  0  0  0  0  0  0  0  0  0
   -0.7140    0.4494    1.5414 S   0  0  0  0  0  0  0  0  0  0  0  0
    2.0729    1.6313    1.3464 H   0  0  0  0  0  0  0  0  0  0  0  0
    2.5702    0.9612   -0.2145 H   0  0  0  0  0  0  0  0  0  0  0  0
    1.1526    2.0182   -0.1069 H   0  0  0  0  0  0  0  0  0  0  0  0
    0.8537   -2.0361    1.3722 H   0  0  0  0  0  0  0  0  0  0  0  0
    3.1090   -2.0794    2.2221 H   0  0  0  0  0  0  0  0  0  0  0  0
    3.3842   -0.3341    1.6939 H   0  0  0  0  0  0  0  0  0  0  0  0
   -0.1154    0.6912    2.7161 H   0  0  0  0  0  0  0  0  0  0  0  0
   -1.2690   -1.0215   -3.1822 C   0  0  0  0  0  0  0  0  0  0  0  0
   -1.2690   -1.0215   -1.8579 C   0  0  0  0  0  0  0  0  0  0  0  0
   -1.2690    0.1830   -0.9644 C   0  0  0  0  0  3  0  0  0  0  0  0
   -1.2690    1.5288   -1.6721 C   0  0  0  0  0  0  0  0  0  0  0  0
   -1.2690   -0.1046   -3.7597 H   0  0  0  0  0  0  0  0  0  0  0  0
   -1.2690   -1.9488   -3.7409 H   0  0  0  0  0  0  0  0  0  0  0  0
   -1.2690   -1.9772   -1.3397 H   0  0  0  0  0  0  0  0  0  0  0  0
   -0.2257    0.1015   -0.1687 H   0  0  0  0  0  0  0  0  0  0  0  0
   -2.1384    0.1151   -0.3013 H   0  0  0  0  0  0  0  0  0  0  0  0
   -2.1514    1.6438   -2.3046 H   0  0  0  0  0  0  0  0  0  0  0  0
   -0.3865    1.6438   -2.3046 H   0  0  0  0  0  0  0  0  0  0  0  0
   -1.2690    2.3431   -0.9468 H   0  0  0  0  0  0  0  0  0  0  0  0
  1  2  1  0
  1  6  1  0
  1  7  1  0
  1  8  1  0
  2  3  1  0
  2  5  1  0
  2 20  1  0
  3  4  2  3
  3  9  1  0
  4 10  1  0
  4 11  1  0
  5 12  1  0
 13 14  2  3
 13 17  1  0
 13 18  1  0
 14 15  1  0
 14 19  1  0
 15 16  1  0
 15 21  1  0
 16 22  1  0
 16 23  1  0
 16 24  1  0
M  RAD  1  15   2
M  END
>  <reaction>  (5) 
rxn_1069

>  <mol_properties>  (5) 
{"1": {"label": "*3", "atom_type": "Cs"}, "4": {"label": "*4", "atom_type": "S2s"}, "13": {"label": "*0", "atom_type": "Cd"}, "14": {"label": "*1", "atom_type": "Cs"}, "19": {"label": "*2", "atom_type": "H0"}}

>  <type>  (5) 
unop_1

>  <geom_source>  (5) 
Heuristics

$$$$

     RDKit          3D

 24 22  0  0  0  0  0  0  0  0999 V2000
    1.7182   -0.9223    0.0462 C   0  0  0  0  0  0  0  0  0  0  0  0
    0.6073   -0.1722    0.7621 C   0  0  0  0  0  0  0  0  0  0  0  0
    0.4397   -0.5039    2.2153 C   0  0  0  0  0  0  0  0  0  0  0  0
    1.2231   -1.2999    2.9274 C   0  0  0  0  0  0  0  0  0  0  0  0
    0.7568    1.6446    0.5597 S   0  0  0  0  0  0  0  0  0  0  0  0
    2.6922   -0.6898    0.4809 H   0  0  0  0  0  0  0  0  0  0  0  0
    1.5602   -2.0008    0.1169 H   0  0  0  0  0  0  0  0  0  0  0  0
    1.7455   -0.6431   -1.0059 H   0  0  0  0  0  0  0  0  0  0  0  0
   -0.4015   -0.0152    2.6969 H   0  0  0  0  0  0  0  0  0  0  0  0
    1.0291   -1.4719    3.9783 H   0  0  0  0  0  0  0  0  0  0  0  0
    2.0783   -1.8084    2.4995 H   0  0  0  0  0  0  0  0  0  0  0  0
    1.8482    1.7848    1.3250 H   0  0  0  0  0  0  0  0  0  0  0  0
   -1.4781   -1.2137   -3.0462 C   0  0  0  0  0  0  0  0  0  0  0  0
   -1.4781   -1.2137   -1.7219 C   0  0  0  0  0  0  0  0  0  0  0  0
   -1.4781   -0.0092   -0.8284 C   0  0  0  0  0  3  0  0  0  0  0  0
   -1.4781    1.3366   -1.5361 C   0  0  0  0  0  0  0  0  0  0  0  0
   -1.4781   -0.2968   -3.6237 H   0  0  0  0  0  0  0  0  0  0  0  0
   -1.4781   -2.1410   -3.6049 H   0  0  0  0  0  0  0  0  0  0  0  0
   -1.4781   -2.1694   -1.2037 H   0  0  0  0  0  0  0  0  0  0  0  0
   -0.4348   -0.0907   -0.0327 H   0  0  0  0  0  0  0  0  0  0  0  0
   -2.3475   -0.0771   -0.1653 H   0  0  0  0  0  0  0  0  0  0  0  0
   -2.3605    1.4516   -2.1686 H   0  0  0  0  0  0  0  0  0  0  0  0
   -0.5956    1.4516   -2.1686 H   0  0  0  0  0  0  0  0  0  0  0  0
   -1.4781    2.1510   -0.8108 H   0  0  0  0  0  0  0  0  0  0  0  0
  1  2  1  0
  1  6  1  0
  1  7  1  0
  1  8  1  0
  2  3  1  0
  2  5  1  0
  2 20  1  0
  3  4  2  3
  3  9  1  0
  4 10  1  0
  4 11  1  0
  5 12  1  0
 13 14  2  3
 13 17  1  0
 13 18  1  0
 14 15  1  0
 14 19  1  0
 15 16  1  0
 15 21  1  0
 16 22  1  0
 16 23  1  0
 16 24  1  0
M  RAD  1  15   2
M  END
>  <reaction>  (6) 
rxn_1069

>  <mol_properties>  (6) 
{"1": {"label": "*3", "atom_type": "Cs"}, "4": {"label": "*4", "atom_type": "S2s"}, "13": {"label": "*0", "atom_type": "Cd"}, "14": {"label": "*1", "atom_type": "Cs"}, "19": {"label": "*2", "atom_type": "H0"}}

>  <type>  (6) 
unop_2

>  <geom_source>  (6) 
Heuristics

$$$$

     RDKit          3D

 24 22  0  0  0  0  0  0  0  0999 V2000
    1.2034    1.5894    1.0251 C   0  0  0  0  0  0  0  0  0  0  0  0
    0.7382    0.1861    0.6736 C   0  0  0  0  0  0  0  0  0  0  0  0
    1.8167   -0.8551    0.6216 C   0  0  0  0  0  0  0  0  0  0  0  0
    3.0883   -0.6755    0.9456 C   0  0  0  0  0  0  0  0  0  0  0  0
   -0.6178   -0.3877    1.7673 S   0  0  0  0  0  0  0  0  0  0  0  0
    1.6426    1.6187    2.0239 H   0  0  0  0  0  0  0  0  0  0  0  0
    1.9539    1.9349    0.3105 H   0  0  0  0  0  0  0  0  0  0  0  0
    0.3628    2.2814    1.0082 H   0  0  0  0  0  0  0  0  0  0  0  0
    1.4827   -1.8368    0.3003 H   0  0  0  0  0  0  0  0  0  0  0  0
    3.7954   -1.4928    0.8867 H   0  0  0  0  0  0  0  0  0  0  0  0
    3.4742    0.2807    1.2772 H   0  0  0  0  0  0  0  0  0  0  0  0
    0.1319   -0.5140    2.8711 H   0  0  0  0  0  0  0  0  0  0  0  0
   -1.3472   -0.8554   -3.1347 C   0  0  0  0  0  0  0  0  0  0  0  0
   -1.3472   -0.8554   -1.8104 C   0  0  0  0  0  0  0  0  0  0  0  0
   -1.3472    0.3491   -0.9169 C   0  0  0  0  0  3  0  0  0  0  0  0
   -1.3472    1.6948   -1.6246 C   0  0  0  0  0  0  0  0  0  0  0  0
   -1.3472    0.0615   -3.7122 H   0  0  0  0  0  0  0  0  0  0  0  0
   -1.3472   -1.7827   -3.6934 H   0  0  0  0  0  0  0  0  0  0  0  0
   -1.3472   -1.8111   -1.2922 H   0  0  0  0  0  0  0  0  0  0  0  0
   -0.3039    0.2675   -0.1212 H   0  0  0  0  0  0  0  0  0  0  0  0
   -2.2165    0.2811   -0.2538 H   0  0  0  0  0  0  0  0  0  0  0  0
   -2.2296    1.8099   -2.2571 H   0  0  0  0  0  0  0  0  0  0  0  0
   -0.4647    1.8099   -2.2571 H   0  0  0  0  0  0  0  0  0  0  0  0
   -1.3472    2.5092   -0.8993 H   0  0  0  0  0  0  0  0  0  0  0  0
  1  2  1  0
  1  6  1  0
  1  7  1  0
  1  8  1  0
  2  3  1  0
  2  5  1  0
  2 20  1  0
  3  4  2  3
  3  9  1  0
  4 10  1  0
  4 11  1  0
  5 12  1  0
 13 14  2  3
 13 17  1  0
 13 18  1  0
 14 15  1  0
 14 19  1  0
 15 16  1  0
 15 21  1  0
 16 22  1  0
 16 23  1  0
 16 24  1  0
M  RAD  1  15   2
M  END
>  <reaction>  (7) 
rxn_1069

>  <mol_properties>  (7) 
{"1": {"label": "*3", "atom_type": "Cs"}, "4": {"label": "*4", "atom_type": "S2s"}, "13": {"label": "*0", "atom_type": "Cd"}, "14": {"label": "*1", "atom_type": "Cs"}, "19": {"label": "*2", "atom_type": "H0"}}

>  <type>  (7) 
unop_3

>  <geom_source>  (7) 
Heuristics

$$$$

     RDKit          3D

 24 22  0  0  0  0  0  0  0  0999 V2000
    0.4958   -1.4419    1.5919 C   0  0  0  0  0  0  0  0  0  0  0  0
    0.6016   -0.1706    0.7660 C   0  0  0  0  0  0  0  0  0  0  0  0
   -0.0342    1.0452    1.3723 C   0  0  0  0  0  0  0  0  0  0  0  0
   -0.5764    1.1205    2.5784 C   0  0  0  0  0  0  0  0  0  0  0  0
    2.3342    0.2096    0.2998 S   0  0  0  0  0  0  0  0  0  0  0  0
    1.0064   -1.3310    2.5503 H   0  0  0  0  0  0  0  0  0  0  0  0
   -0.5507   -1.6863    1.7875 H   0  0  0  0  0  0  0  0  0  0  0  0
    0.9543   -2.2756    1.0624 H   0  0  0  0  0  0  0  0  0  0  0  0
   -0.0142    1.9284    0.7415 H   0  0  0  0  0  0  0  0  0  0  0  0
   -1.0036    2.0483    2.9364 H   0  0  0  0  0  0  0  0  0  0  0  0
   -0.6187    0.2724    3.2508 H   0  0  0  0  0  0  0  0  0  0  0  0
    2.7461    0.5362    1.5327 H   0  0  0  0  0  0  0  0  0  0  0  0
   -1.4838   -1.2121   -3.0423 C   0  0  0  0  0  0  0  0  0  0  0  0
   -1.4838   -1.2121   -1.7180 C   0  0  0  0  0  0  0  0  0  0  0  0
   -1.4838   -0.0076   -0.8245 C   0  0  0  0  0  3  0  0  0  0  0  0
   -1.4838    1.3382   -1.5322 C   0  0  0  0  0  0  0  0  0  0  0  0
   -1.4838   -0.2952   -3.6198 H   0  0  0  0  0  0  0  0  0  0  0  0
   -1.4838   -2.1394   -3.6010 H   0  0  0  0  0  0  0  0  0  0  0  0
   -1.4838   -2.1678   -1.1998 H   0  0  0  0  0  0  0  0  0  0  0  0
   -0.4405   -0.0891   -0.0288 H   0  0  0  0  0  0  0  0  0  0  0  0
   -2.3532   -0.0755   -0.1614 H   0  0  0  0  0  0  0  0  0  0  0  0
   -2.3662    1.4532   -2.1647 H   0  0  0  0  0  0  0  0  0  0  0  0
   -0.6013    1.4532   -2.1647 H   0  0  0  0  0  0  0  0  0  0  0  0
   -1.4838    2.1525   -0.8069 H   0  0  0  0  0  0  0  0  0  0  0  0
  1  2  1  0
  1  6  1  0
  1  7  1  0
  1  8  1  0
  2  3  1  0
  2  5  1  0
  2 20  1  0
  3  4  2  3
  3  9  1  0
  4 10  1  0
  4 11  1  0
  5 12  1  0
 13 14  2  3
 13 17  1  0
 13 18  1  0
 14 15  1  0
 14 19  1  0
 15 16  1  0
 15 21  1  0
 16 22  1  0
 16 23  1  0
 16 24  1  0
M  RAD  1  15   2
M  END
>  <reaction>  (8) 
rxn_1069

>  <mol_properties>  (8) 
{"1": {"label": "*3", "atom_type": "Cs"}, "4": {"label": "*4", "atom_type": "S2s"}, "13": {"label": "*0", "atom_type": "Cd"}, "14": {"label": "*1", "atom_type": "Cs"}, "19": {"label": "*2", "atom_type": "H0"}}

>  <type>  (8) 
unop_4

>  <geom_source>  (8) 
Heuristics

$$$$

     RDKit          3D

 24 22  0  0  0  0  0  0  0  0999 V2000
    0.5601    1.4232    1.7548 C   0  0  0  0  0  0  0  0  0  0  0  0
    0.5402    0.2106    0.8390 C   0  0  0  0  0  0  0  0  0  0  0  0
    1.7587    0.0308   -0.0170 C   0  0  0  0  0  0  0  0  0  0  0  0
    2.8598    0.7653    0.0321 C   0  0  0  0  0  0  0  0  0  0  0  0
    0.1971   -1.3418    1.7535 S   0  0  0  0  0  0  0  0  0  0  0  0
    1.3776    1.3577    2.4751 H   0  0  0  0  0  0  0  0  0  0  0  0
    0.6873    2.3399    1.1746 H   0  0  0  0  0  0  0  0  0  0  0  0
   -0.3730    1.4911    2.3120 H   0  0  0  0  0  0  0  0  0  0  0  0
    1.7019   -0.7971   -0.7169 H   0  0  0  0  0  0  0  0  0  0  0  0
    3.6967    0.5529   -0.6206 H   0  0  0  0  0  0  0  0  0  0  0  0
    2.9724    1.5992    0.7142 H   0  0  0  0  0  0  0  0  0  0  0  0
    1.3695   -1.3888    2.4013 H   0  0  0  0  0  0  0  0  0  0  0  0
   -1.5451   -0.8309   -2.9694 C   0  0  0  0  0  0  0  0  0  0  0  0
   -1.5451   -0.8309   -1.6450 C   0  0  0  0  0  0  0  0  0  0  0  0
   -1.5451    0.3736   -0.7516 C   0  0  0  0  0  3  0  0  0  0  0  0
   -1.5451    1.7194   -1.4593 C   0  0  0  0  0  0  0  0  0  0  0  0
   -1.5451    0.0861   -3.5468 H   0  0  0  0  0  0  0  0  0  0  0  0
   -1.5451   -1.7582   -3.5281 H   0  0  0  0  0  0  0  0  0  0  0  0
   -1.5451   -1.7866   -1.1269 H   0  0  0  0  0  0  0  0  0  0  0  0
   -0.5018    0.2921    0.0442 H   0  0  0  0  0  0  0  0  0  0  0  0
   -2.4145    0.3057   -0.0885 H   0  0  0  0  0  0  0  0  0  0  0  0
   -2.4276    1.8344   -2.0917 H   0  0  0  0  0  0  0  0  0  0  0  0
   -0.6627    1.8344   -2.0917 H   0  0  0  0  0  0  0  0  0  0  0  0
   -1.5451    2.5338   -0.7340 H   0  0  0  0  0  0  0  0  0  0  0  0
  1  2  1  0
  1  6  1  0
  1  7  1  0
  1  8  1  0
  2  3  1  0
  2  5  1  0
  2 20  1  0
  3  4  2  3
  3  9  1  0
  4 10  1  0
  4 11  1  0
  5 12  1  0
 13 14  2  3
 13 17  1  0
 13 18  1  0
 14 15  1  0
 14 19  1  0
 15 16  1  0
 15 21  1  0
 16 22  1  0
 16 23  1  0
 16 24  1  0
M  RAD  1  15   2
M  END
>  <reaction>  (9) 
rxn_1069

>  <mol_properties>  (9) 
{"1": {"label": "*3", "atom_type": "Cs"}, "4": {"label": "*4", "atom_type": "S2s"}, "13": {"label": "*0", "atom_type": "Cd"}, "14": {"label": "*1", "atom_type": "Cs"}, "19": {"label": "*2", "atom_type": "H0"}}

>  <type>  (9) 
unop_5

>  <geom_source>  (9) 
Heuristics

$$$$

     RDKit          3D

 24 22  0  0  0  0  0  0  0  0999 V2000
    0.1655   -0.9458    2.1093 C   0  0  0  0  0  0  0  0  0  0  0  0
    0.5636   -0.2004    0.8463 C   0  0  0  0  0  0  0  0  0  0  0  0
    0.2224    1.2601    0.8266 C   0  0  0  0  0  0  0  0  0  0  0  0
   -0.2920    1.9529    1.8315 C   0  0  0  0  0  0  0  0  0  0  0  0
    2.3388   -0.4224    0.4422 S   0  0  0  0  0  0  0  0  0  0  0  0
    0.6846   -0.5449    2.9818 H   0  0  0  0  0  0  0  0  0  0  0  0
   -0.9099   -0.8613    2.2818 H   0  0  0  0  0  0  0  0  0  0  0  0
    0.4218   -2.0005    2.0222 H   0  0  0  0  0  0  0  0  0  0  0  0
    0.4472    1.7647   -0.1079 H   0  0  0  0  0  0  0  0  0  0  0  0
   -0.4956    3.0108    1.7276 H   0  0  0  0  0  0  0  0  0  0  0  0
   -0.5305    1.5016    2.7868 H   0  0  0  0  0  0  0  0  0  0  0  0
    2.8106    0.3059    1.4637 H   0  0  0  0  0  0  0  0  0  0  0  0
   -1.5217   -1.2419   -2.9621 C   0  0  0  0  0  0  0  0  0  0  0  0
   -1.5217   -1.2419   -1.6377 C   0  0  0  0  0  0  0  0  0  0  0  0
   -1.5217   -0.0374   -0.7443 C   0  0  0  0  0  3  0  0  0  0  0  0
   -1.5217    1.3084   -1.4520 C   0  0  0  0  0  0  0  0  0  0  0  0
   -1.5217   -0.3249   -3.5395 H   0  0  0  0  0  0  0  0  0  0  0  0
   -1.5217   -2.1692   -3.5208 H   0  0  0  0  0  0  0  0  0  0  0  0
   -1.5217   -2.1976   -1.1196 H   0  0  0  0  0  0  0  0  0  0  0  0
   -0.4785   -0.1189    0.0515 H   0  0  0  0  0  0  0  0  0  0  0  0
   -2.3911   -0.1053   -0.0812 H   0  0  0  0  0  0  0  0  0  0  0  0
   -2.4042    1.4234   -2.0844 H   0  0  0  0  0  0  0  0  0  0  0  0
   -0.6393    1.4234   -2.0844 H   0  0  0  0  0  0  0  0  0  0  0  0
   -1.5217    2.1228   -0.7267 H   0  0  0  0  0  0  0  0  0  0  0  0
  1  2  1  0
  1  6  1  0
  1  7  1  0
  1  8  1  0
  2  3  1  0
  2  5  1  0
  2 20  1  0
  3  4  2  3
  3  9  1  0
  4 10  1  0
  4 11  1  0
  5 12  1  0
 13 14  2  3
 13 17  1  0
 13 18  1  0
 14 15  1  0
 14 19  1  0
 15 16  1  0
 15 21  1  0
 16 22  1  0
 16 23  1  0
 16 24  1  0
M  RAD  1  15   2
M  END
>  <reaction>  (10) 
rxn_1069

>  <mol_properties>  (10) 
{"1": {"label": "*3", "atom_type": "Cs"}, "4": {"label": "*4", "atom_type": "S2s"}, "13": {"label": "*0", "atom_type": "Cd"}, "14": {"label": "*1", "atom_type": "Cs"}, "19": {"label": "*2", "atom_type": "H0"}}

>  <type>  (10) 
unop_6

>  <geom_source>  (10) 
Heuristics

$$$$

     RDKit          3D

 24 22  0  0  0  0  0  0  0  0999 V2000
    0.0171   -0.1779    2.3821 C   0  0  0  0  0  0  0  0  0  0  0  0
    0.4957   -0.1499    0.9400 C   0  0  0  0  0  0  0  0  0  0  0  0
    0.6040    1.2137    0.3245 C   0  0  0  0  0  0  0  0  0  0  0  0
    0.4178    2.3667    0.9491 C   0  0  0  0  0  0  0  0  0  0  0  0
    2.0772   -1.0519    0.7181 S   0  0  0  0  0  0  0  0  0  0  0  0
    0.7132    0.3494    3.0370 H   0  0  0  0  0  0  0  0  0  0  0  0
   -0.9627    0.2969    2.4703 H   0  0  0  0  0  0  0  0  0  0  0  0
   -0.0614   -1.2053    2.7342 H   0  0  0  0  0  0  0  0  0  0  0  0
    0.8779    1.2154   -0.7260 H   0  0  0  0  0  0  0  0  0  0  0  0
    0.5290    3.3058    0.4226 H   0  0  0  0  0  0  0  0  0  0  0  0
    0.1487    2.4235    1.9967 H   0  0  0  0  0  0  0  0  0  0  0  0
    2.8400   -0.1680    1.3763 H   0  0  0  0  0  0  0  0  0  0  0  0
   -1.5896   -1.1914   -2.8684 C   0  0  0  0  0  0  0  0  0  0  0  0
   -1.5896   -1.1914   -1.5440 C   0  0  0  0  0  0  0  0  0  0  0  0
   -1.5896    0.0131   -0.6506 C   0  0  0  0  0  3  0  0  0  0  0  0
   -1.5896    1.3589   -1.3583 C   0  0  0  0  0  0  0  0  0  0  0  0
   -1.5896   -0.2744   -3.4458 H   0  0  0  0  0  0  0  0  0  0  0  0
   -1.5896   -2.1187   -3.4270 H   0  0  0  0  0  0  0  0  0  0  0  0
   -1.5896   -2.1471   -1.0258 H   0  0  0  0  0  0  0  0  0  0  0  0
   -0.5464   -0.0684    0.1452 H   0  0  0  0  0  0  0  0  0  0  0  0
   -2.4590   -0.0548    0.0126 H   0  0  0  0  0  0  0  0  0  0  0  0
   -2.4721    1.4739   -1.9907 H   0  0  0  0  0  0  0  0  0  0  0  0
   -0.7072    1.4739   -1.9907 H   0  0  0  0  0  0  0  0  0  0  0  0
   -1.5896    2.1733   -0.6330 H   0  0  0  0  0  0  0  0  0  0  0  0
  1  2  1  0
  1  6  1  0
  1  7  1  0
  1  8  1  0
  2  3  1  0
  2  5  1  0
  2 20  1  0
  3  4  2  3
  3  9  1  0
  4 10  1  0
  4 11  1  0
  5 12  1  0
 13 14  2  3
 13 17  1  0
 13 18  1  0
 14 15  1  0
 14 19  1  0
 15 16  1  0
 15 21  1  0
 16 22  1  0
 16 23  1  0
 16 24  1  0
M  RAD  1  15   2
M  END
>  <reaction>  (11) 
rxn_1069

>  <mol_properties>  (11) 
{"1": {"label": "*3", "atom_type": "Cs"}, "4": {"label": "*4", "atom_type": "S2s"}, "13": {"label": "*0", "atom_type": "Cd"}, "14": {"label": "*1", "atom_type": "Cs"}, "19": {"label": "*2", "atom_type": "H0"}}

>  <type>  (11) 
unop_7

>  <geom_source>  (11) 
Heuristics

$$$$

     RDKit          3D

 24 22  0  0  0  0  0  0  0  0999 V2000
    1.9643    0.5597   -0.0053 C   0  0  0  0  0  0  0  0  0  0  0  0
    0.7808   -0.1243    0.6587 C   0  0  0  0  0  0  0  0  0  0  0  0
    1.1267   -1.0896    1.7534 C   0  0  0  0  0  0  0  0  0  0  0  0
    2.3380   -1.3121    2.2409 C   0  0  0  0  0  0  0  0  0  0  0  0
   -0.4605    1.0795    1.2703 S   0  0  0  0  0  0  0  0  0  0  0  0
    2.5198    1.1668    0.7119 H   0  0  0  0  0  0  0  0  0  0  0  0
    2.6469   -0.1804   -0.4289 H   0  0  0  0  0  0  0  0  0  0  0  0
    1.6221    1.2149   -0.8049 H   0  0  0  0  0  0  0  0  0  0  0  0
    0.2786   -1.6237    2.1703 H   0  0  0  0  0  0  0  0  0  0  0  0
    2.4900   -2.0231    3.0427 H   0  0  0  0  0  0  0  0  0  0  0  0
    3.2179   -0.8037    1.8662 H   0  0  0  0  0  0  0  0  0  0  0  0
    0.2909    1.5659    2.2680 H   0  0  0  0  0  0  0  0  0  0  0  0
   -1.3046   -1.1657   -3.1497 C   0  0  0  0  0  0  0  0  0  0  0  0
   -1.3046   -1.1657   -1.8254 C   0  0  0  0  0  0  0  0  0  0  0  0
   -1.3046    0.0388   -0.9319 C   0  0  0  0  0  3  0  0  0  0  0  0
   -1.3046    1.3845   -1.6396 C   0  0  0  0  0  0  0  0  0  0  0  0
   -1.3046   -0.2488   -3.7272 H   0  0  0  0  0  0  0  0  0  0  0  0
   -1.3046   -2.0931   -3.7084 H   0  0  0  0  0  0  0  0  0  0  0  0
   -1.3046   -2.1215   -1.3072 H   0  0  0  0  0  0  0  0  0  0  0  0
   -0.2613   -0.0428   -0.1362 H   0  0  0  0  0  0  0  0  0  0  0  0
   -2.1740   -0.0292   -0.2688 H   0  0  0  0  0  0  0  0  0  0  0  0
   -2.1870    1.4995   -2.2720 H   0  0  0  0  0  0  0  0  0  0  0  0
   -0.4221    1.4995   -2.2720 H   0  0  0  0  0  0  0  0  0  0  0  0
   -1.3046    2.1989   -0.9143 H   0  0  0  0  0  0  0  0  0  0  0  0
  1  2  1  0
  1  6  1  0
  1  7  1  0
  1  8  1  0
  2  3  1  0
  2  5  1  0
  2 20  1  0
  3  4  2  3
  3  9  1  0
  4 10  1  0
  4 11  1  0
  5 12  1  0
 13 14  2  3
 13 17  1  0
 13 18  1  0
 14 15  1  0
 14 19  1  0
 15 16  1  0
 15 21  1  0
 16 22  1  0
 16 23  1  0
 16 24  1  0
M  RAD  1  15   2
M  END
>  <reaction>  (12) 
rxn_1069

>  <mol_properties>  (12) 
{"1": {"label": "*3", "atom_type": "Cs"}, "4": {"label": "*4", "atom_type": "S2s"}, "13": {"label": "*0", "atom_type": "Cd"}, "14": {"label": "*1", "atom_type": "Cs"}, "19": {"label": "*2", "atom_type": "H0"}}

>  <type>  (12) 
unop_8

>  <geom_source>  (12) 
Heuristics

$$$$

     RDKit          3D

 24 22  0  0  0  0  0  0  0  0999 V2000
    0.9152   -1.5883    0.9863 C   0  0  0  0  0  0  0  0  0  0  0  0
    0.5951   -0.1235    0.7387 C   0  0  0  0  0  0  0  0  0  0  0  0
   -0.1003    0.5824    1.8649 C   0  0  0  0  0  0  0  0  0  0  0  0
   -0.3601    0.0739    3.0599 C   0  0  0  0  0  0  0  0  0  0  0  0
    2.0767    0.8332    0.2353 S   0  0  0  0  0  0  0  0  0  0  0  0
    1.5998   -1.7035    1.8287 H   0  0  0  0  0  0  0  0  0  0  0  0
    0.0036   -2.1482    1.2067 H   0  0  0  0  0  0  0  0  0  0  0  0
    1.3880   -2.0254    0.1082 H   0  0  0  0  0  0  0  0  0  0  0  0
   -0.3867    1.6068    1.6485 H   0  0  0  0  0  0  0  0  0  0  0  0
   -0.8590    0.6653    3.8167 H   0  0  0  0  0  0  0  0  0  0  0  0
   -0.0921   -0.9399    3.3311 H   0  0  0  0  0  0  0  0  0  0  0  0
    2.6892    0.7865    1.4265 H   0  0  0  0  0  0  0  0  0  0  0  0
   -1.4902   -1.1649   -3.0697 C   0  0  0  0  0  0  0  0  0  0  0  0
   -1.4902   -1.1649   -1.7453 C   0  0  0  0  0  0  0  0  0  0  0  0
   -1.4902    0.0396   -0.8519 C   0  0  0  0  0  3  0  0  0  0  0  0
   -1.4902    1.3853   -1.5596 C   0  0  0  0  0  0  0  0  0  0  0  0
   -1.4902   -0.2480   -3.6471 H   0  0  0  0  0  0  0  0  0  0  0  0
   -1.4902   -2.0923   -3.6283 H   0  0  0  0  0  0  0  0  0  0  0  0
   -1.4902   -2.1207   -1.2271 H   0  0  0  0  0  0  0  0  0  0  0  0
   -0.4470   -0.0420   -0.0561 H   0  0  0  0  0  0  0  0  0  0  0  0
   -2.3596   -0.0284   -0.1887 H   0  0  0  0  0  0  0  0  0  0  0  0
   -2.3727    1.5003   -2.1920 H   0  0  0  0  0  0  0  0  0  0  0  0
   -0.6078    1.5003   -2.1920 H   0  0  0  0  0  0  0  0  0  0  0  0
   -1.4902    2.1997   -0.8343 H   0  0  0  0  0  0  0  0  0  0  0  0
  1  2  1  0
  1  6  1  0
  1  7  1  0
  1  8  1  0
  2  3  1  0
  2  5  1  0
  2 20  1  0
  3  4  2  3
  3  9  1  0
  4 10  1  0
  4 11  1  0
  5 12  1  0
 13 14  2  3
 13 17  1  0
 13 18  1  0
 14 15  1  0
 14 19  1  0
 15 16  1  0
 15 21  1  0
 16 22  1  0
 16 23  1  0
 16 24  1  0
M  RAD  1  15   2
M  END
>  <reaction>  (13) 
rxn_1069

>  <mol_properties>  (13) 
{"1": {"label": "*3", "atom_type": "Cs"}, "4": {"label": "*4", "atom_type": "S2s"}, "13": {"label": "*0", "atom_type": "Cd"}, "14": {"label": "*1", "atom_type": "Cs"}, "19": {"label": "*2", "atom_type": "H0"}}

>  <type>  (13) 
unop_9

>  <geom_source>  (13) 
Heuristics

$$$$

     RDKit          3D

 24 22  0  0  0  0  0  0  0  0999 V2000
    1.9556   -0.2231   -0.1223 C   0  0  0  0  0  0  0  0  0  0  0  0
    0.6917   -0.1897    0.7207 C   0  0  0  0  0  0  0  0  0  0  0  0
    0.7941   -0.8563    2.0605 C   0  0  0  0  0  0  0  0  0  0  0  0
    1.8934   -1.3683    2.5931 C   0  0  0  0  0  0  0  0  0  0  0  0
    0.0438    1.5134    0.9294 S   0  0  0  0  0  0  0  0  0  0  0  0
    2.7711    0.3083    0.3717 H   0  0  0  0  0  0  0  0  0  0  0  0
    2.2738   -1.2536   -0.2959 H   0  0  0  0  0  0  0  0  0  0  0  0
    1.7800    0.2534   -1.0855 H   0  0  0  0  0  0  0  0  0  0  0  0
   -0.1342   -0.8880    2.6223 H   0  0  0  0  0  0  0  0  0  0  0  0
    1.8732   -1.8218    3.5756 H   0  0  0  0  0  0  0  0  0  0  0  0
    2.8470   -1.3591    2.0795 H   0  0  0  0  0  0  0  0  0  0  0  0
    1.0302    1.9452    1.7275 H   0  0  0  0  0  0  0  0  0  0  0  0
   -1.3937   -1.2312   -3.0877 C   0  0  0  0  0  0  0  0  0  0  0  0
   -1.3937   -1.2312   -1.7634 C   0  0  0  0  0  0  0  0  0  0  0  0
   -1.3937   -0.0267   -0.8699 C   0  0  0  0  0  3  0  0  0  0  0  0
   -1.3937    1.3191   -1.5776 C   0  0  0  0  0  0  0  0  0  0  0  0
   -1.3937   -0.3143   -3.6651 H   0  0  0  0  0  0  0  0  0  0  0  0
   -1.3937   -2.1585   -3.6464 H   0  0  0  0  0  0  0  0  0  0  0  0
   -1.3937   -2.1869   -1.2452 H   0  0  0  0  0  0  0  0  0  0  0  0
   -0.3504   -0.1083   -0.0742 H   0  0  0  0  0  0  0  0  0  0  0  0
   -2.2631   -0.0947   -0.2068 H   0  0  0  0  0  0  0  0  0  0  0  0
   -2.2761    1.4341   -2.2100 H   0  0  0  0  0  0  0  0  0  0  0  0
   -0.5112    1.4341   -2.2100 H   0  0  0  0  0  0  0  0  0  0  0  0
   -1.3937    2.1334   -0.8523 H   0  0  0  0  0  0  0  0  0  0  0  0
  1  2  1  0
  1  6  1  0
  1  7  1  0
  1  8  1  0
  2  3  1  0
  2  5  1  0
  2 20  1  0
  3  4  2  3
  3  9  1  0
  4 10  1  0
  4 11  1  0
  5 12  1  0
 13 14  2  3
 13 17  1  0
 13 18  1  0
 14 15  1  0
 14 19  1  0
 15 16  1  0
 15 21  1  0
 16 22  1  0
 16 23  1  0
 16 24  1  0
M  RAD  1  15   2
M  END
>  <reaction>  (14) 
rxn_1069

>  <mol_properties>  (14) 
{"1": {"label": "*3", "atom_type": "Cs"}, "4": {"label": "*4", "atom_type": "S2s"}, "13": {"label": "*0", "atom_type": "Cd"}, "14": {"label": "*1", "atom_type": "Cs"}, "19": {"label": "*2", "atom_type": "H0"}}

>  <type>  (14) 
unop_10

>  <geom_source>  (14) 
Heuristics

$$$$

     RDKit          3D

 24 22  0  0  0  0  0  0  0  0999 V2000
    0.1235    0.7020    2.2842 C   0  0  0  0  0  0  0  0  0  0  0  0
    0.4491    0.0133    0.9692 C   0  0  0  0  0  0  0  0  0  0  0  0
    1.1417    0.8680   -0.0505 C   0  0  0  0  0  0  0  0  0  0  0  0
    1.5692    2.1079    0.1342 C   0  0  0  0  0  0  0  0  0  0  0  0
    1.3959   -1.5380    1.2163 S   0  0  0  0  0  0  0  0  0  0  0  0
    1.0329    1.0285    2.7919 H   0  0  0  0  0  0  0  0  0  0  0  0
   -0.5065    1.5777    2.1128 H   0  0  0  0  0  0  0  0  0  0  0  0
   -0.4041    0.0188    2.9479 H   0  0  0  0  0  0  0  0  0  0  0  0
    1.3044    0.3860   -1.0094 H   0  0  0  0  0  0  0  0  0  0  0  0
    2.0708    2.6448   -0.6606 H   0  0  0  0  0  0  0  0  0  0  0  0
    1.4381    2.6345    1.0716 H   0  0  0  0  0  0  0  0  0  0  0  0
    2.5325   -0.9503    1.6153 H   0  0  0  0  0  0  0  0  0  0  0  0
   -1.6363   -1.0282   -2.8392 C   0  0  0  0  0  0  0  0  0  0  0  0
   -1.6363   -1.0282   -1.5148 C   0  0  0  0  0  0  0  0  0  0  0  0
   -1.6363    0.1763   -0.6214 C   0  0  0  0  0  3  0  0  0  0  0  0
   -1.6363    1.5221   -1.3291 C   0  0  0  0  0  0  0  0  0  0  0  0
   -1.6363   -0.1113   -3.4166 H   0  0  0  0  0  0  0  0  0  0  0  0
   -1.6363   -1.9555   -3.3979 H   0  0  0  0  0  0  0  0  0  0  0  0
   -1.6363   -1.9839   -0.9967 H   0  0  0  0  0  0  0  0  0  0  0  0
   -0.5930    0.0948    0.1744 H   0  0  0  0  0  0  0  0  0  0  0  0
   -2.5057    0.1084    0.0417 H   0  0  0  0  0  0  0  0  0  0  0  0
   -2.5187    1.6371   -1.9615 H   0  0  0  0  0  0  0  0  0  0  0  0
   -0.7538    1.6371   -1.9615 H   0  0  0  0  0  0  0  0  0  0  0  0
   -1.6363    2.3364   -0.6038 H   0  0  0  0  0  0  0  0  0  0  0  0
  1  2  1  0
  1  6  1  0
  1  7  1  0
  1  8  1  0
  2  3  1  0
  2  5  1  0
  2 20  1  0
  3  4  2  3
  3  9  1  0
  4 10  1  0
  4 11  1  0
  5 12  1  0
 13 14  2  3
 13 17  1  0
 13 18  1  0
 14 15  1  0
 14 19  1  0
 15 16  1  0
 15 21  1  0
 16 22  1  0
 16 23  1  0
 16 24  1  0
M  RAD  1  15   2
M  END
>  <reaction>  (15) 
rxn_1069

>  <mol_properties>  (15) 
{"1": {"label": "*3", "atom_type": "Cs"}, "4": {"label": "*4", "atom_type": "S2s"}, "13": {"label": "*0", "atom_type": "Cd"}, "14": {"label": "*1", "atom_type": "Cs"}, "19": {"label": "*2", "atom_type": "H0"}}

>  <type>  (15) 
unop_11

>  <geom_source>  (15) 
Heuristics

$$$$

     RDKit          3D

 24 22  0  0  0  0  0  0  0  0999 V2000
    1.3426   -1.3988    0.4396 C   0  0  0  0  0  0  0  0  0  0  0  0
    0.5770   -0.1248    0.7563 C   0  0  0  0  0  0  0  0  0  0  0  0
    0.0886   -0.0021    2.1692 C   0  0  0  0  0  0  0  0  0  0  0  0
    0.3492   -0.8431    3.1587 C   0  0  0  0  0  0  0  0  0  0  0  0
    1.5195    1.3807    0.2989 S   0  0  0  0  0  0  0  0  0  0  0  0
    2.2532   -1.4684    1.0374 H   0  0  0  0  0  0  0  0  0  0  0  0
    0.7279   -2.2774    0.6481 H   0  0  0  0  0  0  0  0  0  0  0  0
    1.6291   -1.4162   -0.6108 H   0  0  0  0  0  0  0  0  0  0  0  0
   -0.5170    0.8776    2.3638 H   0  0  0  0  0  0  0  0  0  0  0  0
   -0.0397   -0.6656    4.1531 H   0  0  0  0  0  0  0  0  0  0  0  0
    0.9516   -1.7328    3.0220 H   0  0  0  0  0  0  0  0  0  0  0  0
    2.4507    1.2633    1.2557 H   0  0  0  0  0  0  0  0  0  0  0  0
   -1.5083   -1.1662   -3.0521 C   0  0  0  0  0  0  0  0  0  0  0  0
   -1.5083   -1.1662   -1.7277 C   0  0  0  0  0  0  0  0  0  0  0  0
   -1.5083    0.0383   -0.8343 C   0  0  0  0  0  3  0  0  0  0  0  0
   -1.5083    1.3840   -1.5420 C   0  0  0  0  0  0  0  0  0  0  0  0
   -1.5083   -0.2493   -3.6295 H   0  0  0  0  0  0  0  0  0  0  0  0
   -1.5083   -2.0936   -3.6107 H   0  0  0  0  0  0  0  0  0  0  0  0
   -1.5083   -2.1220   -1.2095 H   0  0  0  0  0  0  0  0  0  0  0  0
   -0.4650   -0.0433   -0.0385 H   0  0  0  0  0  0  0  0  0  0  0  0
   -2.3777   -0.0297   -0.1711 H   0  0  0  0  0  0  0  0  0  0  0  0
   -2.3907    1.4990   -2.1744 H   0  0  0  0  0  0  0  0  0  0  0  0
   -0.6258    1.4990   -2.1744 H   0  0  0  0  0  0  0  0  0  0  0  0
   -1.5083    2.1984   -0.8167 H   0  0  0  0  0  0  0  0  0  0  0  0
  1  2  1  0
  1  6  1  0
  1  7  1  0
  1  8  1  0
  2  3  1  0
  2  5  1  0
  2 20  1  0
  3  4  2  3
  3  9  1  0
  4 10  1  0
  4 11  1  0
  5 12  1  0
 13 14  2  3
 13 17  1  0
 13 18  1  0
 14 15  1  0
 14 19  1  0
 15 16  1  0
 15 21  1  0
 16 22  1  0
 16 23  1  0
 16 24  1  0
M  RAD  1  15   2
M  END
>  <reaction>  (16) 
rxn_1069

>  <mol_properties>  (16) 
{"1": {"label": "*3", "atom_type": "Cs"}, "4": {"label": "*4", "atom_type": "S2s"}, "13": {"label": "*0", "atom_type": "Cd"}, "14": {"label": "*1", "atom_type": "Cs"}, "19": {"label": "*2", "atom_type": "H0"}}

>  <type>  (16) 
unop_12

>  <geom_source>  (16) 
Heuristics

$$$$

     RDKit          3D

 24 22  0  0  0  0  0  0  0  0999 V2000
   -1.3710   -0.5258    1.9820 S   0  0  0  0  0  0  0  0  0  0  0  0
   -1.3672   -0.0579    0.2191 C   0  0  0  0  0  0  0  0  0  0  0  0
   -1.6968   -1.2770   -0.6407 C   0  0  0  0  0  0  0  0  0  0  0  0
    1.1201   -1.4314   -0.2635 C   0  0  0  0  0  0  0  0  0  0  0  0
   -2.3609    1.0492   -0.0161 C   0  0  0  0  0  0  0  0  0  0  0  0
    1.1124    0.0563   -0.5931 C   0  0  0  0  0  3  0  0  0  0  0  0
    2.1016    0.8203    0.2385 C   0  0  0  0  0  0  0  0  0  0  0  0
   -2.1495    2.2807    0.4561 C   0  0  0  0  0  0  0  0  0  0  0  0
    3.4190    0.7060    0.0475 C   0  0  0  0  0  0  0  0  0  0  0  0
   -0.1787    0.3633   -0.1036 H   0  0  0  0  0  0  0  0  0  0  0  0
   -0.9347   -2.0688   -0.4825 H   0  0  0  0  0  0  0  0  0  0  0  0
   -2.6977   -1.6825   -0.3783 H   0  0  0  0  0  0  0  0  0  0  0  0
   -1.6885   -0.9972   -1.7157 H   0  0  0  0  0  0  0  0  0  0  0  0
    0.3297   -1.9405   -0.8531 H   0  0  0  0  0  0  0  0  0  0  0  0
    2.1026   -1.8823   -0.5186 H   0  0  0  0  0  0  0  0  0  0  0  0
    0.9115   -1.5841    0.8166 H   0  0  0  0  0  0  0  0  0  0  0  0
   -3.2563    0.8619   -0.6031 H   0  0  0  0  0  0  0  0  0  0  0  0
    1.2988    0.2216   -1.6763 H   0  0  0  0  0  0  0  0  0  0  0  0
    1.7289    1.5053    0.9930 H   0  0  0  0  0  0  0  0  0  0  0  0
   -2.8716    3.0676    0.2641 H   0  0  0  0  0  0  0  0  0  0  0  0
   -1.2596    2.5125    1.0337 H   0  0  0  0  0  0  0  0  0  0  0  0
    3.8179    0.0431   -0.7143 H   0  0  0  0  0  0  0  0  0  0  0  0
    4.1077    1.2831    0.6559 H   0  0  0  0  0  0  0  0  0  0  0  0
   -0.2179   -1.3234    1.8525 H   0  0  0  0  0  0  0  0  0  0  0  0
  1  2  1  0
  1 24  1  0
  2  3  1  0
  2  5  1  0
  2 10  1  0
  3 11  1  0
  3 12  1  0
  3 13  1  0
  4  6  1  0
  4 14  1  0
  4 15  1  0
  4 16  1  0
  5  8  2  3
  5 17  1  0
  6  7  1  0
  6 18  1  0
  7  9  2  3
  7 19  1  0
  8 20  1  0
  8 21  1  0
  9 22  1  0
  9 23  1  0
M  RAD  1   6   2
M  END
>  <reaction>  (17) 
rxn_1069

>  <mol_properties>  (17) 
{"1": {"label": "*3", "atom_type": "Cs"}, "4": {"label": "*4", "atom_type": "S2s"}, "13": {"label": "*0", "atom_type": "Cd"}, "14": {"label": "*1", "atom_type": "Cs"}, "19": {"label": "*2", "atom_type": "H0"}}

>  <type>  (17) 
unop_13

>  <geom_source>  (17) 
AutoTST

$$$$
