
     RDKit          3D

 12 11  0  0  0  0  0  0  0  0999 V2000
    2.1696    0.6854    1.1310 C   0  0  0  0  0  0  0  0  0  0  0  0
    1.2518    0.4145    0.4134 C   0  0  0  0  0  0  0  0  0  0  0  0
    0.1391    0.0443   -0.4683 C   0  0  0  0  0  0  0  0  0  0  0  0
   -0.2054   -1.4492   -0.3339 C   0  0  0  0  0  0  0  0  0  0  0  0
   -1.0375    0.8853   -0.2222 C   0  0  0  0  0  0  0  0  0  0  0  0
   -2.0160    1.5463   -0.0311 C   0  0  0  0  0  0  0  0  0  0  0  0
    2.9819    0.9356    1.7702 H   0  0  0  0  0  0  0  0  0  0  0  0
    0.4629    0.2285   -1.4981 H   0  0  0  0  0  0  0  0  0  0  0  0
   -0.5327   -1.6703    0.6812 H   0  0  0  0  0  0  0  0  0  0  0  0
    0.6727   -2.0535   -0.5593 H   0  0  0  0  0  0  0  0  0  0  0  0
   -1.0064   -1.7081   -1.0256 H   0  0  0  0  0  0  0  0  0  0  0  0
   -2.8802    2.1413    0.1426 H   0  0  0  0  0  0  0  0  0  0  0  0
  1  2  3  0
  1  7  1  0
  2  3  1  0
  3  4  1  0
  3  5  1  0
  3  8  1  0
  4  9  1  0
  4 10  1  0
  4 11  1  0
  5  6  3  0
  6 12  1  0
M  END
>  <reaction>  (1) 
rxn_1402

>  <mol_properties>  (1) 
{"2": {"label": "donator", "atom_type": "Cs"}, "7": {"label": "d_hydrogen", "atom_type": "H0"}}

>  <type>  (1) 
r1h

$$$$

     RDKit          3D

  8  7  0  0  0  0  0  0  0  0999 V2000
   -2.2129    0.4855    0.7390 C   0  0  0  0  0  0  0  0  0  0  0  0
   -1.2226    0.0526    0.1974 C   0  0  0  0  0  0  0  0  0  0  0  0
   -0.1006   -0.4575   -0.4419 C   0  0  0  0  0  3  0  0  0  0  0  0
    1.1960   -0.1737   -0.0342 C   0  0  0  0  0  0  0  0  0  0  0  0
    2.3329    0.0603    0.3036 C   0  0  0  0  0  0  0  0  0  0  0  0
   -3.0803    0.8696    1.2198 H   0  0  0  0  0  0  0  0  0  0  0  0
   -0.2433   -1.1067   -1.2980 H   0  0  0  0  0  0  0  0  0  0  0  0
    3.3308    0.2700    0.6058 H   0  0  0  0  0  0  0  0  0  0  0  0
  1  2  3  0
  1  6  1  0
  2  3  1  0
  3  4  1  0
  3  7  1  0
  4  5  3  0
  5  8  1  0
M  RAD  1   3   2
M  END
>  <reaction>  (2) 
rxn_1402

>  <mol_properties>  (2) 
{"2": {"label": "acceptor", "atom_type": "Cs"}}

>  <type>  (2) 
r2

$$$$

     RDKit          3D

  9  8  0  0  0  0  0  0  0  0999 V2000
   -2.1022   -0.6873    0.3932 C   0  0  0  0  0  0  0  0  0  0  0  0
   -1.2072   -0.1086   -0.1482 C   0  0  0  0  0  0  0  0  0  0  0  0
   -0.1242    0.6105   -0.8193 C   0  0  0  0  0  0  0  0  0  0  0  0
    1.2067    0.1106   -0.4741 C   0  0  0  0  0  0  0  0  0  0  0  0
    2.3005   -0.2875   -0.2012 C   0  0  0  0  0  0  0  0  0  0  0  0
   -2.8942   -1.2059    0.8778 H   0  0  0  0  0  0  0  0  0  0  0  0
   -0.1862    1.6723   -0.5649 H   0  0  0  0  0  0  0  0  0  0  0  0
   -0.2641    0.5418   -1.9017 H   0  0  0  0  0  0  0  0  0  0  0  0
    3.2709   -0.6459    0.0455 H   0  0  0  0  0  0  0  0  0  0  0  0
  1  2  3  0
  1  6  1  0
  2  3  1  0
  3  4  1  0
  3  7  1  0
  3  8  1  0
  4  5  3  0
  5  9  1  0
M  END
>  <reaction>  (3) 
rxn_1402

>  <mol_properties>  (3) 
{"2": {"label": "acceptor", "atom_type": "Cs"}, "8": {"label": "a_hydrogen", "atom_type": "H0"}}

>  <type>  (3) 
r2h

$$$$

     RDKit          3D

 20 18  0  0  0  0  0  0  0  0999 V2000
    1.7624   -2.3515    0.7847 C   0  0  0  0  0  0  0  0  0  0  0  0
    1.6800   -1.2045    0.4395 C   0  0  0  0  0  0  0  0  0  0  0  0
    1.5069    0.1441    0.0075 C   0  0  0  0  0  3  0  0  0  0  0  0
    1.7498    1.1908    0.9459 C   0  0  0  0  0  0  0  0  0  0  0  0
    1.8920    2.0938    1.7244 C   0  0  0  0  0  0  0  0  0  0  0  0
    1.8553   -3.3654    1.0919 H   0  0  0  0  0  0  0  0  0  0  0  0
    1.8709    0.3462   -0.9988 H   0  0  0  0  0  0  0  0  0  0  0  0
    2.0377    2.8899    2.4143 H   0  0  0  0  0  0  0  0  0  0  0  0
   -1.4789    2.7908   -1.1940 C   0  0  0  0  0  0  0  0  0  0  0  0
   -1.3642    1.6490   -0.8426 C   0  0  0  0  0  0  0  0  0  0  0  0
   -1.1624    0.3048   -0.3846 C   0  0  0  0  0  0  0  0  0  0  0  0
   -1.6036    0.0162    1.0415 C   0  0  0  0  0  0  0  0  0  0  0  0
   -1.4335   -0.7259   -1.3446 C   0  0  0  0  0  0  0  0  0  0  0  0
   -1.6075   -1.6197   -2.1263 C   0  0  0  0  0  0  0  0  0  0  0  0
   -1.5940    3.7990   -1.5120 H   0  0  0  0  0  0  0  0  0  0  0  0
    0.1646    0.2377   -0.2500 H   0  0  0  0  0  0  0  0  0  0  0  0
   -2.6923    0.0323    1.1154 H   0  0  0  0  0  0  0  0  0  0  0  0
   -1.1940    0.7701    1.7136 H   0  0  0  0  0  0  0  0  0  0  0  0
   -1.2446   -0.9666    1.3465 H   0  0  0  0  0  0  0  0  0  0  0  0
   -1.7748   -2.4051   -2.8234 H   0  0  0  0  0  0  0  0  0  0  0  0
  1  2  3  0
  1  6  1  0
  2  3  1  0
  3  4  1  0
  3  7  1  0
  4  5  3  0
  5  8  1  0
  9 10  3  0
  9 15  1  0
 10 11  1  0
 11 12  1  0
 11 13  1  0
 11 16  1  0
 12 17  1  0
 12 18  1  0
 12 19  1  0
 13 14  3  0
 14 20  1  0
M  RAD  1   3   2
M  END
>  <reaction>  (4) 
rxn_1402

>  <mol_properties>  (4) 
{"1": {"label": "*4", "atom_type": "Ct"}, "2": {"label": "*3", "atom_type": "Cs"}, "9": {"label": "*0", "atom_type": "Ct"}, "10": {"label": "*1", "atom_type": "Cs"}, "15": {"label": "*2", "atom_type": "H0"}}

>  <type>  (4) 
ts

$$$$

     RDKit          3D

 20 18  0  0  0  0  0  0  0  0999 V2000
    1.7644    2.1982    1.9304 C   0  0  0  0  0  0  0  0  0  0  0  0
    1.5286    1.2094    1.3011 C   0  0  0  0  0  0  0  0  0  0  0  0
    1.2401   -0.0006    0.5311 C   0  0  0  0  0  0  0  0  0  0  0  0
    2.4400   -0.6668    0.0243 C   0  0  0  0  0  0  0  0  0  0  0  0
    3.4204   -1.2112   -0.3899 C   0  0  0  0  0  0  0  0  0  0  0  0
    1.9741    3.0778    2.4902 H   0  0  0  0  0  0  0  0  0  0  0  0
    0.6786   -0.6995    1.1572 H   0  0  0  0  0  0  0  0  0  0  0  0
    4.2927   -1.6955   -0.7583 H   0  0  0  0  0  0  0  0  0  0  0  0
   -1.2654    0.0138   -2.9174 C   0  0  0  0  0  0  0  0  0  0  0  0
   -1.2654    0.0138   -1.7212 C   0  0  0  0  0  0  0  0  0  0  0  0
   -1.2654    0.0539   -0.2547 C   0  0  0  0  0  3  0  0  0  0  0  0
   -1.9034    1.3531    0.2673 C   0  0  0  0  0  0  0  0  0  0  0  0
   -1.9272   -1.1273    0.3101 C   0  0  0  0  0  0  0  0  0  0  0  0
   -2.4755   -2.0726    0.7966 C   0  0  0  0  0  0  0  0  0  0  0  0
   -1.2654    0.0138   -3.9809 H   0  0  0  0  0  0  0  0  0  0  0  0
   -0.0118    0.0266    0.1384 H   0  0  0  0  0  0  0  0  0  0  0  0
   -2.9467    1.4104   -0.0404 H   0  0  0  0  0  0  0  0  0  0  0  0
   -1.3708    2.2145   -0.1343 H   0  0  0  0  0  0  0  0  0  0  0  0
   -1.8562    1.3775    1.3555 H   0  0  0  0  0  0  0  0  0  0  0  0
   -2.9629   -2.9130    1.2291 H   0  0  0  0  0  0  0  0  0  0  0  0
  1  2  3  0
  1  6  1  0
  2  3  1  0
  3  4  1  0
  3  7  1  0
  3 16  1  0
  4  5  3  0
  5  8  1  0
  9 10  3  0
  9 15  1  0
 10 11  1  0
 11 12  1  0
 11 13  1  0
 12 17  1  0
 12 18  1  0
 12 19  1  0
 13 14  3  0
 14 20  1  0
M  RAD  1  11   2
M  END
>  <reaction>  (5) 
rxn_1402

>  <mol_properties>  (5) 
{"1": {"label": "*4", "atom_type": "Ct"}, "2": {"label": "*3", "atom_type": "Cs"}, "9": {"label": "*0", "atom_type": "Ct"}, "10": {"label": "*1", "atom_type": "Cs"}, "15": {"label": "*2", "atom_type": "H0"}}

>  <type>  (5) 
unop_1

>  <geom_source>  (5) 
Heuristics

$$$$

     RDKit          3D

 20 18  0  0  0  0  0  0  0  0999 V2000
    2.7684    1.4323   -1.1392 C   0  0  0  0  0  0  0  0  0  0  0  0
    2.0850    0.9107   -0.3086 C   0  0  0  0  0  0  0  0  0  0  0  0
    1.2486    0.2723    0.7079 C   0  0  0  0  0  0  0  0  0  0  0  0
    1.8581   -0.9201    1.2971 C   0  0  0  0  0  0  0  0  0  0  0  0
    2.3562   -1.8944    1.7785 C   0  0  0  0  0  0  0  0  0  0  0  0
    3.3764    1.8964   -1.8782 H   0  0  0  0  0  0  0  0  0  0  0  0
    1.0326    0.9942    1.5005 H   0  0  0  0  0  0  0  0  0  0  0  0
    2.7993   -2.7612    2.2067 H   0  0  0  0  0  0  0  0  0  0  0  0
   -1.2569    0.2867   -2.7405 C   0  0  0  0  0  0  0  0  0  0  0  0
   -1.2569    0.2867   -1.5444 C   0  0  0  0  0  0  0  0  0  0  0  0
   -1.2569    0.3268   -0.0778 C   0  0  0  0  0  3  0  0  0  0  0  0
   -1.8949    1.6260    0.4442 C   0  0  0  0  0  0  0  0  0  0  0  0
   -1.9187   -0.8545    0.4870 C   0  0  0  0  0  0  0  0  0  0  0  0
   -2.4670   -1.7998    0.9735 C   0  0  0  0  0  0  0  0  0  0  0  0
   -1.2569    0.2867   -3.8040 H   0  0  0  0  0  0  0  0  0  0  0  0
   -0.0033    0.2995    0.3153 H   0  0  0  0  0  0  0  0  0  0  0  0
   -2.9382    1.6832    0.1364 H   0  0  0  0  0  0  0  0  0  0  0  0
   -1.3623    2.4874    0.0425 H   0  0  0  0  0  0  0  0  0  0  0  0
   -1.8477    1.6504    1.5324 H   0  0  0  0  0  0  0  0  0  0  0  0
   -2.9544   -2.6402    1.4060 H   0  0  0  0  0  0  0  0  0  0  0  0
  1  2  3  0
  1  6  1  0
  2  3  1  0
  3  4  1  0
  3  7  1  0
  3 16  1  0
  4  5  3  0
  5  8  1  0
  9 10  3  0
  9 15  1  0
 10 11  1  0
 11 12  1  0
 11 13  1  0
 12 17  1  0
 12 18  1  0
 12 19  1  0
 13 14  3  0
 14 20  1  0
M  RAD  1  11   2
M  END
>  <reaction>  (6) 
rxn_1402

>  <mol_properties>  (6) 
{"1": {"label": "*4", "atom_type": "Ct"}, "2": {"label": "*3", "atom_type": "Cs"}, "9": {"label": "*0", "atom_type": "Ct"}, "10": {"label": "*1", "atom_type": "Cs"}, "15": {"label": "*2", "atom_type": "H0"}}

>  <type>  (6) 
unop_2

>  <geom_source>  (6) 
Heuristics

$$$$

     RDKit          3D

 20 18  0  0  0  0  0  0  0  0999 V2000
    1.5011    1.2519    2.7892 C   0  0  0  0  0  0  0  0  0  0  0  0
    1.4012    0.6616    1.7544 C   0  0  0  0  0  0  0  0  0  0  0  0
    1.2789   -0.0608    0.4881 C   0  0  0  0  0  0  0  0  0  0  0  0
    2.4855    0.0039   -0.3367 C   0  0  0  0  0  0  0  0  0  0  0  0
    3.4715    0.0568   -1.0107 C   0  0  0  0  0  0  0  0  0  0  0  0
    1.5900    1.7770    3.7097 H   0  0  0  0  0  0  0  0  0  0  0  0
    1.0400   -1.1080    0.6936 H   0  0  0  0  0  0  0  0  0  0  0  0
    4.3485    0.1038   -1.6103 H   0  0  0  0  0  0  0  0  0  0  0  0
   -1.2266   -0.0464   -2.9603 C   0  0  0  0  0  0  0  0  0  0  0  0
   -1.2266   -0.0464   -1.7642 C   0  0  0  0  0  0  0  0  0  0  0  0
   -1.2266   -0.0063   -0.2976 C   0  0  0  0  0  3  0  0  0  0  0  0
   -1.8646    1.2929    0.2244 C   0  0  0  0  0  0  0  0  0  0  0  0
   -1.8884   -1.1876    0.2672 C   0  0  0  0  0  0  0  0  0  0  0  0
   -2.4366   -2.1329    0.7536 C   0  0  0  0  0  0  0  0  0  0  0  0
   -1.2266   -0.0464   -4.0238 H   0  0  0  0  0  0  0  0  0  0  0  0
    0.0270   -0.0336    0.0955 H   0  0  0  0  0  0  0  0  0  0  0  0
   -2.9078    1.3501   -0.0834 H   0  0  0  0  0  0  0  0  0  0  0  0
   -1.3320    2.1543   -0.1773 H   0  0  0  0  0  0  0  0  0  0  0  0
   -1.8174    1.3173    1.3126 H   0  0  0  0  0  0  0  0  0  0  0  0
   -2.9241   -2.9733    1.1862 H   0  0  0  0  0  0  0  0  0  0  0  0
  1  2  3  0
  1  6  1  0
  2  3  1  0
  3  4  1  0
  3  7  1  0
  3 16  1  0
  4  5  3  0
  5  8  1  0
  9 10  3  0
  9 15  1  0
 10 11  1  0
 11 12  1  0
 11 13  1  0
 12 17  1  0
 12 18  1  0
 12 19  1  0
 13 14  3  0
 14 20  1  0
M  RAD  1  11   2
M  END
>  <reaction>  (7) 
rxn_1402

>  <mol_properties>  (7) 
{"1": {"label": "*4", "atom_type": "Ct"}, "2": {"label": "*3", "atom_type": "Cs"}, "9": {"label": "*0", "atom_type": "Ct"}, "10": {"label": "*1", "atom_type": "Cs"}, "15": {"label": "*2", "atom_type": "H0"}}

>  <type>  (7) 
unop_3

>  <geom_source>  (7) 
Heuristics

$$$$

     RDKit          3D

 20 18  0  0  0  0  0  0  0  0999 V2000
    2.7517   -1.7530   -0.4901 C   0  0  0  0  0  0  0  0  0  0  0  0
    2.2383   -0.7479   -0.0958 C   0  0  0  0  0  0  0  0  0  0  0  0
    1.6100    0.4820    0.3868 C   0  0  0  0  0  0  0  0  0  0  0  0
    0.9991    0.3425    1.7088 C   0  0  0  0  0  0  0  0  0  0  0  0
    0.4999    0.2285    2.7891 C   0  0  0  0  0  0  0  0  0  0  0  0
    3.2085   -2.6470   -0.8409 H   0  0  0  0  0  0  0  0  0  0  0  0
    2.3582    1.2788    0.4191 H   0  0  0  0  0  0  0  0  0  0  0  0
    0.0559    0.1272    3.7501 H   0  0  0  0  0  0  0  0  0  0  0  0
   -0.8955    0.4964   -3.0617 C   0  0  0  0  0  0  0  0  0  0  0  0
   -0.8955    0.4964   -1.8655 C   0  0  0  0  0  0  0  0  0  0  0  0
   -0.8955    0.5365   -0.3990 C   0  0  0  0  0  3  0  0  0  0  0  0
   -1.5335    1.8357    0.1230 C   0  0  0  0  0  0  0  0  0  0  0  0
   -1.5574   -0.6448    0.1658 C   0  0  0  0  0  0  0  0  0  0  0  0
   -2.1056   -1.5901    0.6523 C   0  0  0  0  0  0  0  0  0  0  0  0
   -0.8955    0.4964   -4.1252 H   0  0  0  0  0  0  0  0  0  0  0  0
    0.3581    0.5092   -0.0059 H   0  0  0  0  0  0  0  0  0  0  0  0
   -2.5768    1.8929   -0.1847 H   0  0  0  0  0  0  0  0  0  0  0  0
   -1.0009    2.6971   -0.2786 H   0  0  0  0  0  0  0  0  0  0  0  0
   -1.4864    1.8601    1.2112 H   0  0  0  0  0  0  0  0  0  0  0  0
   -2.5930   -2.4305    1.0848 H   0  0  0  0  0  0  0  0  0  0  0  0
  1  2  3  0
  1  6  1  0
  2  3  1  0
  3  4  1  0
  3  7  1  0
  3 16  1  0
  4  5  3  0
  5  8  1  0
  9 10  3  0
  9 15  1  0
 10 11  1  0
 11 12  1  0
 11 13  1  0
 12 17  1  0
 12 18  1  0
 12 19  1  0
 13 14  3  0
 14 20  1  0
M  RAD  1  11   2
M  END
>  <reaction>  (8) 
rxn_1402

>  <mol_properties>  (8) 
{"1": {"label": "*4", "atom_type": "Ct"}, "2": {"label": "*3", "atom_type": "Cs"}, "9": {"label": "*0", "atom_type": "Ct"}, "10": {"label": "*1", "atom_type": "Cs"}, "15": {"label": "*2", "atom_type": "H0"}}

>  <type>  (8) 
unop_4

>  <geom_source>  (8) 
Heuristics

$$$$

     RDKit          3D

 20 18  0  0  0  0  0  0  0  0999 V2000
    1.5015   -0.0822    3.0486 C   0  0  0  0  0  0  0  0  0  0  0  0
    1.4638   -0.1137    1.8541 C   0  0  0  0  0  0  0  0  0  0  0  0
    1.4177   -0.1523    0.3924 C   0  0  0  0  0  0  0  0  0  0  0  0
    2.1440    0.9484   -0.2412 C   0  0  0  0  0  0  0  0  0  0  0  0
    2.7376    1.8477   -0.7590 C   0  0  0  0  0  0  0  0  0  0  0  0
    1.5351   -0.0542    4.1112 H   0  0  0  0  0  0  0  0  0  0  0  0
    1.8317   -1.1029    0.0449 H   0  0  0  0  0  0  0  0  0  0  0  0
    3.2656    2.6478   -1.2195 H   0  0  0  0  0  0  0  0  0  0  0  0
   -1.0878   -0.1379   -3.0561 C   0  0  0  0  0  0  0  0  0  0  0  0
   -1.0878   -0.1379   -1.8599 C   0  0  0  0  0  0  0  0  0  0  0  0
   -1.0878   -0.0978   -0.3934 C   0  0  0  0  0  3  0  0  0  0  0  0
   -1.7258    1.2014    0.1286 C   0  0  0  0  0  0  0  0  0  0  0  0
   -1.7496   -1.2790    0.1714 C   0  0  0  0  0  0  0  0  0  0  0  0
   -2.2979   -2.2243    0.6579 C   0  0  0  0  0  0  0  0  0  0  0  0
   -1.0878   -0.1379   -4.1195 H   0  0  0  0  0  0  0  0  0  0  0  0
    0.1658   -0.1250   -0.0002 H   0  0  0  0  0  0  0  0  0  0  0  0
   -2.7691    1.2587   -0.1791 H   0  0  0  0  0  0  0  0  0  0  0  0
   -1.1932    2.0628   -0.2730 H   0  0  0  0  0  0  0  0  0  0  0  0
   -1.6786    1.2258    1.2169 H   0  0  0  0  0  0  0  0  0  0  0  0
   -2.7853   -3.0647    1.0904 H   0  0  0  0  0  0  0  0  0  0  0  0
  1  2  3  0
  1  6  1  0
  2  3  1  0
  3  4  1  0
  3  7  1  0
  3 16  1  0
  4  5  3  0
  5  8  1  0
  9 10  3  0
  9 15  1  0
 10 11  1  0
 11 12  1  0
 11 13  1  0
 12 17  1  0
 12 18  1  0
 12 19  1  0
 13 14  3  0
 14 20  1  0
M  RAD  1  11   2
M  END
>  <reaction>  (9) 
rxn_1402

>  <mol_properties>  (9) 
{"1": {"label": "*4", "atom_type": "Ct"}, "2": {"label": "*3", "atom_type": "Cs"}, "9": {"label": "*0", "atom_type": "Ct"}, "10": {"label": "*1", "atom_type": "Cs"}, "15": {"label": "*2", "atom_type": "H0"}}

>  <type>  (9) 
unop_5

>  <geom_source>  (9) 
Heuristics

$$$$

     RDKit          3D

 20 18  0  0  0  0  0  0  0  0999 V2000
    2.4463   -2.1798    0.5901 C   0  0  0  0  0  0  0  0  0  0  0  0
    2.1059   -1.0435    0.4418 C   0  0  0  0  0  0  0  0  0  0  0  0
    1.6893    0.3472    0.2604 C   0  0  0  0  0  0  0  0  0  0  0  0
    0.9787    0.8964    1.4152 C   0  0  0  0  0  0  0  0  0  0  0  0
    0.3980    1.3452    2.3589 C   0  0  0  0  0  0  0  0  0  0  0  0
    2.7491   -3.1907    0.7221 H   0  0  0  0  0  0  0  0  0  0  0  0
    2.5700    0.9620    0.0548 H   0  0  0  0  0  0  0  0  0  0  0  0
   -0.1186    1.7445    3.1984 H   0  0  0  0  0  0  0  0  0  0  0  0
   -0.8161    0.3616   -3.1881 C   0  0  0  0  0  0  0  0  0  0  0  0
   -0.8161    0.3616   -1.9919 C   0  0  0  0  0  0  0  0  0  0  0  0
   -0.8161    0.4016   -0.5254 C   0  0  0  0  0  3  0  0  0  0  0  0
   -1.4542    1.7009   -0.0034 C   0  0  0  0  0  0  0  0  0  0  0  0
   -1.4780   -0.7796    0.0394 C   0  0  0  0  0  0  0  0  0  0  0  0
   -2.0262   -1.7249    0.5259 C   0  0  0  0  0  0  0  0  0  0  0  0
   -0.8161    0.3616   -4.2516 H   0  0  0  0  0  0  0  0  0  0  0  0
    0.4375    0.3744   -0.1323 H   0  0  0  0  0  0  0  0  0  0  0  0
   -2.4974    1.7581   -0.3112 H   0  0  0  0  0  0  0  0  0  0  0  0
   -0.9216    2.5623   -0.4050 H   0  0  0  0  0  0  0  0  0  0  0  0
   -1.4070    1.7253    1.0848 H   0  0  0  0  0  0  0  0  0  0  0  0
   -2.5136   -2.5653    0.9584 H   0  0  0  0  0  0  0  0  0  0  0  0
  1  2  3  0
  1  6  1  0
  2  3  1  0
  3  4  1  0
  3  7  1  0
  3 16  1  0
  4  5  3  0
  5  8  1  0
  9 10  3  0
  9 15  1  0
 10 11  1  0
 11 12  1  0
 11 13  1  0
 12 17  1  0
 12 18  1  0
 12 19  1  0
 13 14  3  0
 14 20  1  0
M  RAD  1  11   2
M  END
>  <reaction>  (10) 
rxn_1402

>  <mol_properties>  (10) 
{"1": {"label": "*4", "atom_type": "Ct"}, "2": {"label": "*3", "atom_type": "Cs"}, "9": {"label": "*0", "atom_type": "Ct"}, "10": {"label": "*1", "atom_type": "Cs"}, "15": {"label": "*2", "atom_type": "H0"}}

>  <type>  (10) 
unop_6

>  <geom_source>  (10) 
Heuristics

$$$$

     RDKit          3D

 20 18  0  0  0  0  0  0  0  0999 V2000
    2.0954   -2.0021    1.7206 C   0  0  0  0  0  0  0  0  0  0  0  0
    1.9188   -1.0367    1.0380 C   0  0  0  0  0  0  0  0  0  0  0  0
    1.7028    0.1447    0.2025 C   0  0  0  0  0  0  0  0  0  0  0  0
    1.1386    1.2788    0.9345 C   0  0  0  0  0  0  0  0  0  0  0  0
    0.6775    2.2056    1.5326 C   0  0  0  0  0  0  0  0  0  0  0  0
    2.2524   -2.8609    2.3279 H   0  0  0  0  0  0  0  0  0  0  0  0
    2.6531    0.4448   -0.2478 H   0  0  0  0  0  0  0  0  0  0  0  0
    0.2673    3.0300    2.0647 H   0  0  0  0  0  0  0  0  0  0  0  0
   -0.8027    0.1591   -3.2459 C   0  0  0  0  0  0  0  0  0  0  0  0
   -0.8027    0.1591   -2.0498 C   0  0  0  0  0  0  0  0  0  0  0  0
   -0.8027    0.1991   -0.5832 C   0  0  0  0  0  3  0  0  0  0  0  0
   -1.4407    1.4984   -0.0612 C   0  0  0  0  0  0  0  0  0  0  0  0
   -1.4645   -0.9821   -0.0184 C   0  0  0  0  0  0  0  0  0  0  0  0
   -2.0128   -1.9274    0.4681 C   0  0  0  0  0  0  0  0  0  0  0  0
   -0.8027    0.1591   -4.3094 H   0  0  0  0  0  0  0  0  0  0  0  0
    0.4509    0.1719   -0.1901 H   0  0  0  0  0  0  0  0  0  0  0  0
   -2.4840    1.5556   -0.3690 H   0  0  0  0  0  0  0  0  0  0  0  0
   -0.9081    2.3598   -0.4629 H   0  0  0  0  0  0  0  0  0  0  0  0
   -1.3935    1.5228    1.0270 H   0  0  0  0  0  0  0  0  0  0  0  0
   -2.5002   -2.7678    0.9006 H   0  0  0  0  0  0  0  0  0  0  0  0
  1  2  3  0
  1  6  1  0
  2  3  1  0
  3  4  1  0
  3  7  1  0
  3 16  1  0
  4  5  3  0
  5  8  1  0
  9 10  3  0
  9 15  1  0
 10 11  1  0
 11 12  1  0
 11 13  1  0
 12 17  1  0
 12 18  1  0
 12 19  1  0
 13 14  3  0
 14 20  1  0
M  RAD  1  11   2
M  END
>  <reaction>  (11) 
rxn_1402

>  <mol_properties>  (11) 
{"1": {"label": "*4", "atom_type": "Ct"}, "2": {"label": "*3", "atom_type": "Cs"}, "9": {"label": "*0", "atom_type": "Ct"}, "10": {"label": "*1", "atom_type": "Cs"}, "15": {"label": "*2", "atom_type": "H0"}}

>  <type>  (11) 
unop_7

>  <geom_source>  (11) 
Heuristics

$$$$

     RDKit          3D

 20 18  0  0  0  0  0  0  0  0999 V2000
    2.1303    2.5317    0.7863 C   0  0  0  0  0  0  0  0  0  0  0  0
    1.7216    1.4116    0.6997 C   0  0  0  0  0  0  0  0  0  0  0  0
    1.2213    0.0409    0.5936 C   0  0  0  0  0  0  0  0  0  0  0  0
    2.2842   -0.9601    0.5015 C   0  0  0  0  0  0  0  0  0  0  0  0
    3.1527   -1.7782    0.4263 C   0  0  0  0  0  0  0  0  0  0  0  0
    2.4940    3.5281    0.8634 H   0  0  0  0  0  0  0  0  0  0  0  0
    0.5936   -0.1805    1.4613 H   0  0  0  0  0  0  0  0  0  0  0  0
    3.9254   -2.5059    0.3593 H   0  0  0  0  0  0  0  0  0  0  0  0
   -1.2842    0.0553   -2.8548 C   0  0  0  0  0  0  0  0  0  0  0  0
   -1.2842    0.0553   -1.6587 C   0  0  0  0  0  0  0  0  0  0  0  0
   -1.2842    0.0954   -0.1921 C   0  0  0  0  0  3  0  0  0  0  0  0
   -1.9222    1.3946    0.3299 C   0  0  0  0  0  0  0  0  0  0  0  0
   -1.9460   -1.0859    0.3727 C   0  0  0  0  0  0  0  0  0  0  0  0
   -2.4943   -2.0312    0.8591 C   0  0  0  0  0  0  0  0  0  0  0  0
   -1.2842    0.0553   -3.9183 H   0  0  0  0  0  0  0  0  0  0  0  0
   -0.0306    0.0681    0.2010 H   0  0  0  0  0  0  0  0  0  0  0  0
   -2.9655    1.4518    0.0221 H   0  0  0  0  0  0  0  0  0  0  0  0
   -1.3896    2.2560   -0.0718 H   0  0  0  0  0  0  0  0  0  0  0  0
   -1.8750    1.4190    1.4181 H   0  0  0  0  0  0  0  0  0  0  0  0
   -2.9817   -2.8716    1.2917 H   0  0  0  0  0  0  0  0  0  0  0  0
  1  2  3  0
  1  6  1  0
  2  3  1  0
  3  4  1  0
  3  7  1  0
  3 16  1  0
  4  5  3  0
  5  8  1  0
  9 10  3  0
  9 15  1  0
 10 11  1  0
 11 12  1  0
 11 13  1  0
 12 17  1  0
 12 18  1  0
 12 19  1  0
 13 14  3  0
 14 20  1  0
M  RAD  1  11   2
M  END
>  <reaction>  (12) 
rxn_1402

>  <mol_properties>  (12) 
{"1": {"label": "*4", "atom_type": "Ct"}, "2": {"label": "*3", "atom_type": "Cs"}, "9": {"label": "*0", "atom_type": "Ct"}, "10": {"label": "*1", "atom_type": "Cs"}, "15": {"label": "*2", "atom_type": "H0"}}

>  <type>  (12) 
unop_8

>  <geom_source>  (12) 
Heuristics

$$$$

     RDKit          3D

 20 18  0  0  0  0  0  0  0  0999 V2000
    2.9275   -0.8333   -1.2386 C   0  0  0  0  0  0  0  0  0  0  0  0
    2.2783   -0.2267   -0.4388 C   0  0  0  0  0  0  0  0  0  0  0  0
    1.4837    0.5156    0.5400 C   0  0  0  0  0  0  0  0  0  0  0  0
    1.2025   -0.2453    1.7574 C   0  0  0  0  0  0  0  0  0  0  0  0
    0.9726   -0.8672    2.7523 C   0  0  0  0  0  0  0  0  0  0  0  0
    3.5051   -1.3729   -1.9501 H   0  0  0  0  0  0  0  0  0  0  0  0
    2.0101    1.4367    0.8056 H   0  0  0  0  0  0  0  0  0  0  0  0
    0.7682   -1.4203    3.6373 H   0  0  0  0  0  0  0  0  0  0  0  0
   -1.0218    0.5300   -2.9085 C   0  0  0  0  0  0  0  0  0  0  0  0
   -1.0218    0.5300   -1.7123 C   0  0  0  0  0  0  0  0  0  0  0  0
   -1.0218    0.5701   -0.2458 C   0  0  0  0  0  3  0  0  0  0  0  0
   -1.6598    1.8693    0.2762 C   0  0  0  0  0  0  0  0  0  0  0  0
   -1.6836   -0.6112    0.3190 C   0  0  0  0  0  0  0  0  0  0  0  0
   -2.2318   -1.5565    0.8055 C   0  0  0  0  0  0  0  0  0  0  0  0
   -1.0218    0.5300   -3.9719 H   0  0  0  0  0  0  0  0  0  0  0  0
    0.2318    0.5428    0.1474 H   0  0  0  0  0  0  0  0  0  0  0  0
   -2.7030    1.9265   -0.0315 H   0  0  0  0  0  0  0  0  0  0  0  0
   -1.1272    2.7307   -0.1254 H   0  0  0  0  0  0  0  0  0  0  0  0
   -1.6126    1.8937    1.3645 H   0  0  0  0  0  0  0  0  0  0  0  0
   -2.7193   -2.3969    1.2380 H   0  0  0  0  0  0  0  0  0  0  0  0
  1  2  3  0
  1  6  1  0
  2  3  1  0
  3  4  1  0
  3  7  1  0
  3 16  1  0
  4  5  3  0
  5  8  1  0
  9 10  3  0
  9 15  1  0
 10 11  1  0
 11 12  1  0
 11 13  1  0
 12 17  1  0
 12 18  1  0
 12 19  1  0
 13 14  3  0
 14 20  1  0
M  RAD  1  11   2
M  END
>  <reaction>  (13) 
rxn_1402

>  <mol_properties>  (13) 
{"1": {"label": "*4", "atom_type": "Ct"}, "2": {"label": "*3", "atom_type": "Cs"}, "9": {"label": "*0", "atom_type": "Ct"}, "10": {"label": "*1", "atom_type": "Cs"}, "15": {"label": "*2", "atom_type": "H0"}}

>  <type>  (13) 
unop_9

>  <geom_source>  (13) 
Heuristics

$$$$

     RDKit          3D

 20 18  0  0  0  0  0  0  0  0999 V2000
    2.4890    2.2366   -0.3275 C   0  0  0  0  0  0  0  0  0  0  0  0
    1.9164    1.2874    0.1203 C   0  0  0  0  0  0  0  0  0  0  0  0
    1.2156    0.1260    0.6682 C   0  0  0  0  0  0  0  0  0  0  0  0
    2.0969   -1.0099    0.9393 C   0  0  0  0  0  0  0  0  0  0  0  0
    2.8170   -1.9381    1.1608 C   0  0  0  0  0  0  0  0  0  0  0  0
    2.9984    3.0809   -0.7258 H   0  0  0  0  0  0  0  0  0  0  0  0
    0.7083    0.4157    1.5926 H   0  0  0  0  0  0  0  0  0  0  0  0
    3.4576   -2.7637    1.3579 H   0  0  0  0  0  0  0  0  0  0  0  0
   -1.2899    0.1403   -2.7803 C   0  0  0  0  0  0  0  0  0  0  0  0
   -1.2899    0.1403   -1.5841 C   0  0  0  0  0  0  0  0  0  0  0  0
   -1.2899    0.1804   -0.1176 C   0  0  0  0  0  3  0  0  0  0  0  0
   -1.9280    1.4796    0.4044 C   0  0  0  0  0  0  0  0  0  0  0  0
   -1.9518   -1.0008    0.4472 C   0  0  0  0  0  0  0  0  0  0  0  0
   -2.5000   -1.9461    0.9337 C   0  0  0  0  0  0  0  0  0  0  0  0
   -1.2899    0.1403   -3.8437 H   0  0  0  0  0  0  0  0  0  0  0  0
   -0.0363    0.1532    0.2756 H   0  0  0  0  0  0  0  0  0  0  0  0
   -2.9712    1.5369    0.0967 H   0  0  0  0  0  0  0  0  0  0  0  0
   -1.3953    2.3411    0.0028 H   0  0  0  0  0  0  0  0  0  0  0  0
   -1.8808    1.5041    1.4926 H   0  0  0  0  0  0  0  0  0  0  0  0
   -2.9874   -2.7865    1.3662 H   0  0  0  0  0  0  0  0  0  0  0  0
  1  2  3  0
  1  6  1  0
  2  3  1  0
  3  4  1  0
  3  7  1  0
  3 16  1  0
  4  5  3  0
  5  8  1  0
  9 10  3  0
  9 15  1  0
 10 11  1  0
 11 12  1  0
 11 13  1  0
 12 17  1  0
 12 18  1  0
 12 19  1  0
 13 14  3  0
 14 20  1  0
M  RAD  1  11   2
M  END
>  <reaction>  (14) 
rxn_1402

>  <mol_properties>  (14) 
{"1": {"label": "*4", "atom_type": "Ct"}, "2": {"label": "*3", "atom_type": "Cs"}, "9": {"label": "*0", "atom_type": "Ct"}, "10": {"label": "*1", "atom_type": "Cs"}, "15": {"label": "*2", "atom_type": "H0"}}

>  <type>  (14) 
unop_10

>  <geom_source>  (14) 
Heuristics

$$$$

     RDKit          3D

 20 18  0  0  0  0  0  0  0  0999 V2000
    1.7637   -1.2656    2.6180 C   0  0  0  0  0  0  0  0  0  0  0  0
    1.6980   -0.7277    1.5524 C   0  0  0  0  0  0  0  0  0  0  0  0
    1.6175   -0.0694    0.2484 C   0  0  0  0  0  0  0  0  0  0  0  0
    1.5215    1.3877    0.3378 C   0  0  0  0  0  0  0  0  0  0  0  0
    1.4431    2.5784    0.4110 C   0  0  0  0  0  0  0  0  0  0  0  0
    1.8222   -1.7442    3.5660 H   0  0  0  0  0  0  0  0  0  0  0  0
    2.4978   -0.3357   -0.3433 H   0  0  0  0  0  0  0  0  0  0  0  0
    1.3733    3.6376    0.4760 H   0  0  0  0  0  0  0  0  0  0  0  0
   -0.8879   -0.0550   -3.2001 C   0  0  0  0  0  0  0  0  0  0  0  0
   -0.8879   -0.0550   -2.0039 C   0  0  0  0  0  0  0  0  0  0  0  0
   -0.8879   -0.0149   -0.5374 C   0  0  0  0  0  3  0  0  0  0  0  0
   -1.5260    1.2843   -0.0154 C   0  0  0  0  0  0  0  0  0  0  0  0
   -1.5498   -1.1962    0.0274 C   0  0  0  0  0  0  0  0  0  0  0  0
   -2.0980   -2.1415    0.5139 C   0  0  0  0  0  0  0  0  0  0  0  0
   -0.8879   -0.0550   -4.2635 H   0  0  0  0  0  0  0  0  0  0  0  0
    0.3657   -0.0422   -0.1442 H   0  0  0  0  0  0  0  0  0  0  0  0
   -2.5692    1.3415   -0.3231 H   0  0  0  0  0  0  0  0  0  0  0  0
   -0.9934    2.1457   -0.4170 H   0  0  0  0  0  0  0  0  0  0  0  0
   -1.4788    1.3087    1.0728 H   0  0  0  0  0  0  0  0  0  0  0  0
   -2.5854   -2.9819    0.9464 H   0  0  0  0  0  0  0  0  0  0  0  0
  1  2  3  0
  1  6  1  0
  2  3  1  0
  3  4  1  0
  3  7  1  0
  3 16  1  0
  4  5  3  0
  5  8  1  0
  9 10  3  0
  9 15  1  0
 10 11  1  0
 11 12  1  0
 11 13  1  0
 12 17  1  0
 12 18  1  0
 12 19  1  0
 13 14  3  0
 14 20  1  0
M  RAD  1  11   2
M  END
>  <reaction>  (15) 
rxn_1402

>  <mol_properties>  (15) 
{"1": {"label": "*4", "atom_type": "Ct"}, "2": {"label": "*3", "atom_type": "Cs"}, "9": {"label": "*0", "atom_type": "Ct"}, "10": {"label": "*1", "atom_type": "Cs"}, "15": {"label": "*2", "atom_type": "H0"}}

>  <type>  (15) 
unop_11

>  <geom_source>  (15) 
Heuristics

$$$$

     RDKit          3D

 20 18  0  0  0  0  0  0  0  0999 V2000
    2.9271    0.3257   -1.4689 C   0  0  0  0  0  0  0  0  0  0  0  0
    2.2157    0.3734   -0.5094 C   0  0  0  0  0  0  0  0  0  0  0  0
    1.3450    0.4319    0.6649 C   0  0  0  0  0  0  0  0  0  0  0  0
    1.5354   -0.6886    1.5860 C   0  0  0  0  0  0  0  0  0  0  0  0
    1.6911   -1.6043    2.3387 C   0  0  0  0  0  0  0  0  0  0  0  0
    3.5601    0.2832   -2.3225 H   0  0  0  0  0  0  0  0  0  0  0  0
    1.5237    1.3697    1.1982 H   0  0  0  0  0  0  0  0  0  0  0  0
    1.8296   -2.4188    3.0083 H   0  0  0  0  0  0  0  0  0  0  0  0
   -1.1605    0.4463   -2.7836 C   0  0  0  0  0  0  0  0  0  0  0  0
   -1.1605    0.4463   -1.5874 C   0  0  0  0  0  0  0  0  0  0  0  0
   -1.1605    0.4864   -0.1209 C   0  0  0  0  0  3  0  0  0  0  0  0
   -1.7986    1.7856    0.4011 C   0  0  0  0  0  0  0  0  0  0  0  0
   -1.8224   -0.6949    0.4439 C   0  0  0  0  0  0  0  0  0  0  0  0
   -2.3706   -1.6402    0.9304 C   0  0  0  0  0  0  0  0  0  0  0  0
   -1.1605    0.4463   -3.8471 H   0  0  0  0  0  0  0  0  0  0  0  0
    0.0931    0.4591    0.2722 H   0  0  0  0  0  0  0  0  0  0  0  0
   -2.8418    1.8428    0.0934 H   0  0  0  0  0  0  0  0  0  0  0  0
   -1.2659    2.6470   -0.0005 H   0  0  0  0  0  0  0  0  0  0  0  0
   -1.7514    1.8100    1.4893 H   0  0  0  0  0  0  0  0  0  0  0  0
   -2.8580   -2.4806    1.3629 H   0  0  0  0  0  0  0  0  0  0  0  0
  1  2  3  0
  1  6  1  0
  2  3  1  0
  3  4  1  0
  3  7  1  0
  3 16  1  0
  4  5  3  0
  5  8  1  0
  9 10  3  0
  9 15  1  0
 10 11  1  0
 11 12  1  0
 11 13  1  0
 12 17  1  0
 12 18  1  0
 12 19  1  0
 13 14  3  0
 14 20  1  0
M  RAD  1  11   2
M  END
>  <reaction>  (16) 
rxn_1402

>  <mol_properties>  (16) 
{"1": {"label": "*4", "atom_type": "Ct"}, "2": {"label": "*3", "atom_type": "Cs"}, "9": {"label": "*0", "atom_type": "Ct"}, "10": {"label": "*1", "atom_type": "Cs"}, "15": {"label": "*2", "atom_type": "H0"}}

>  <type>  (16) 
unop_12

>  <geom_source>  (16) 
Heuristics

$$$$

     RDKit          3D

 20 18  0  0  0  0  0  0  0  0999 V2000
    1.5041   -0.2269   -0.2683 C   0  0  0  0  0  3  0  0  0  0  0  0
   -1.5686   -1.3159   -1.0041 C   0  0  0  0  0  0  0  0  0  0  0  0
   -1.1072   -0.1886   -0.0850 C   0  0  0  0  0  0  0  0  0  0  0  0
    2.1305    0.9815   -0.8079 C   0  0  0  0  0  0  0  0  0  0  0  0
    2.2213   -0.6616    0.9319 C   0  0  0  0  0  0  0  0  0  0  0  0
   -1.6063   -0.3943    1.2801 C   0  0  0  0  0  0  0  0  0  0  0  0
   -1.5654    1.1121   -0.5879 C   0  0  0  0  0  0  0  0  0  0  0  0
    2.6447    1.9768   -1.2536 C   0  0  0  0  0  0  0  0  0  0  0  0
    2.8104   -1.0211    1.9206 C   0  0  0  0  0  0  0  0  0  0  0  0
   -2.0149   -0.5643    2.4019 C   0  0  0  0  0  0  0  0  0  0  0  0
   -1.9405    2.1808   -1.0021 C   0  0  0  0  0  0  0  0  0  0  0  0
    1.5376   -1.0324   -1.0306 H   0  0  0  0  0  0  0  0  0  0  0  0
    0.2045    0.0401    0.0518 H   0  0  0  0  0  0  0  0  0  0  0  0
   -2.6787   -1.3541   -1.0592 H   0  0  0  0  0  0  0  0  0  0  0  0
   -1.1606   -1.1612   -2.0257 H   0  0  0  0  0  0  0  0  0  0  0  0
   -1.1912   -2.2899   -0.6261 H   0  0  0  0  0  0  0  0  0  0  0  0
    3.0962    2.8504   -1.6448 H   0  0  0  0  0  0  0  0  0  0  0  0
    3.3276   -1.3364    2.7884 H   0  0  0  0  0  0  0  0  0  0  0  0
   -2.3737   -0.7135    3.3862 H   0  0  0  0  0  0  0  0  0  0  0  0
   -2.2697    3.1185   -1.3656 H   0  0  0  0  0  0  0  0  0  0  0  0
  1  4  1  0
  1  5  1  0
  1 12  1  0
  2  3  1  0
  2 14  1  0
  2 15  1  0
  2 16  1  0
  3  6  1  0
  3  7  1  0
  3 13  1  0
  4  8  3  0
  5  9  3  0
  6 10  3  0
  7 11  3  0
  8 17  1  0
  9 18  1  0
 10 19  1  0
 11 20  1  0
M  RAD  1   1   2
M  END
>  <reaction>  (17) 
rxn_1402

>  <mol_properties>  (17) 
{"1": {"label": "*4", "atom_type": "Ct"}, "2": {"label": "*3", "atom_type": "Cs"}, "9": {"label": "*0", "atom_type": "Ct"}, "10": {"label": "*1", "atom_type": "Cs"}, "15": {"label": "*2", "atom_type": "H0"}}

>  <type>  (17) 
unop_13

>  <geom_source>  (17) 
AutoTST

$$$$
