
     RDKit          3D

  8  7  0  0  0  0  0  0  0  0999 V2000
    0.7610    0.0250    0.0051 C   0  0  0  0  0  0  0  0  0  0  0  0
   -0.7610   -0.0250   -0.0051 C   0  0  0  0  0  0  0  0  0  0  0  0
    1.1904   -0.9237   -0.3217 H   0  0  0  0  0  0  0  0  0  0  0  0
    1.1359    0.8041   -0.6609 H   0  0  0  0  0  0  0  0  0  0  0  0
    1.1435    0.2336    1.0058 H   0  0  0  0  0  0  0  0  0  0  0  0
   -1.1435   -0.2336   -1.0058 H   0  0  0  0  0  0  0  0  0  0  0  0
   -1.1904    0.9237    0.3216 H   0  0  0  0  0  0  0  0  0  0  0  0
   -1.1359   -0.8041    0.6609 H   0  0  0  0  0  0  0  0  0  0  0  0
  1  2  1  0
  1  3  1  0
  1  4  1  0
  1  5  1  0
  2  6  1  0
  2  7  1  0
  2  8  1  0
M  END
>  <reaction>  (1) 
rxn_91

>  <mol_properties>  (1) 
{"1": {"label": "donator", "atom_type": "Cs"}, "5": {"label": "d_hydrogen", "atom_type": "H0"}}

>  <type>  (1) 
r1h

$$$$

     RDKit          3D

  3  2  0  0  0  0  0  0  0  0999 V2000
    0.0002    0.4233    0.0000 N   0  0  0  0  0  2  0  0  0  0  0  0
   -0.8051   -0.2112    0.0000 H   0  0  0  0  0  0  0  0  0  0  0  0
    0.8049   -0.2121    0.0000 H   0  0  0  0  0  0  0  0  0  0  0  0
  1  2  1  0
  1  3  1  0
M  RAD  1   1   2
M  END
>  <reaction>  (2) 
rxn_91

>  <mol_properties>  (2) 
{"0": {"label": "acceptor", "atom_type": "N3s"}}

>  <type>  (2) 
r2

$$$$

     RDKit          3D

  4  3  0  0  0  0  0  0  0  0999 V2000
    0.0006   -0.0009    0.2762 N   0  0  0  0  0  0  0  0  0  0  0  0
   -0.4188    0.8439   -0.0883 H   0  0  0  0  0  0  0  0  0  0  0  0
   -0.5215   -0.7840   -0.0936 H   0  0  0  0  0  0  0  0  0  0  0  0
    0.9397   -0.0590   -0.0943 H   0  0  0  0  0  0  0  0  0  0  0  0
  1  2  1  0
  1  3  1  0
  1  4  1  0
M  END
>  <reaction>  (3) 
rxn_91

>  <mol_properties>  (3) 
{"0": {"label": "acceptor", "atom_type": "N3s"}, "3": {"label": "a_hydrogen", "atom_type": "H0"}}

>  <type>  (3) 
r2h

$$$$

     RDKit          3D

 11  9  0  0  0  0  0  0  0  0999 V2000
   -0.2260    1.6757    0.7712 N   0  0  0  0  0  2  0  0  0  0  0  0
   -0.8425    1.4398    1.5511 H   0  0  0  0  0  0  0  0  0  0  0  0
    0.6659    1.8987    1.2172 H   0  0  0  0  0  0  0  0  0  0  0  0
   -0.3663   -0.9774   -1.3038 C   0  0  0  0  0  0  0  0  0  0  0  0
    0.3254   -0.7369    0.0132 C   0  0  0  0  0  0  0  0  0  0  0  0
   -1.4476   -0.8683   -1.2084 H   0  0  0  0  0  0  0  0  0  0  0  0
   -0.0249   -0.2715   -2.0620 H   0  0  0  0  0  0  0  0  0  0  0  0
   -0.1665   -1.9875   -1.6746 H   0  0  0  0  0  0  0  0  0  0  0  0
    0.0451    0.4692    0.3334 H   0  0  0  0  0  0  0  0  0  0  0  0
    1.4133   -0.7555   -0.0381 H   0  0  0  0  0  0  0  0  0  0  0  0
   -0.0368   -1.3531    0.8348 H   0  0  0  0  0  0  0  0  0  0  0  0
  1  2  1  0
  1  3  1  0
  4  5  1  0
  4  6  1  0
  4  7  1  0
  4  8  1  0
  5  9  1  0
  5 10  1  0
  5 11  1  0
M  RAD  1   1   2
M  END
>  <reaction>  (4) 
rxn_91

>  <mol_properties>  (4) 
{"0": {"label": "*3", "atom_type": "N3s"}, "1": {"label": "*4", "atom_type": "H0"}, "3": {"label": "*0", "atom_type": "Cs"}, "4": {"label": "*1", "atom_type": "Cs"}, "8": {"label": "*2", "atom_type": "H0"}}

>  <type>  (4) 
ts

$$$$

     RDKit          3D

 11  9  0  0  0  0  0  0  0  0999 V2000
    0.0054    1.5382    1.0656 N   0  0  0  0  0  0  0  0  0  0  0  0
   -0.8297    1.6470    1.6253 H   0  0  0  0  0  0  0  0  0  0  0  0
    0.5934    1.0201    1.7045 H   0  0  0  0  0  0  0  0  0  0  0  0
    0.0054   -0.8132   -1.3723 C   0  0  0  0  0  0  0  0  0  0  0  0
    0.0054   -0.8132    0.1504 C   0  0  0  0  0  3  0  0  0  0  0  0
   -0.8754   -0.3046   -1.7682 H   0  0  0  0  0  0  0  0  0  0  0  0
    0.8863   -0.3046   -1.7682 H   0  0  0  0  0  0  0  0  0  0  0  0
    0.0054   -1.8303   -1.7682 H   0  0  0  0  0  0  0  0  0  0  0  0
    0.0054    0.4074    0.6255 H   0  0  0  0  0  0  0  0  0  0  0  0
    0.8863   -1.3217    0.5463 H   0  0  0  0  0  0  0  0  0  0  0  0
   -0.8754   -1.3217    0.5463 H   0  0  0  0  0  0  0  0  0  0  0  0
  1  2  1  0
  1  3  1  0
  1  9  1  0
  4  5  1  0
  4  6  1  0
  4  7  1  0
  4  8  1  0
  5 10  1  0
  5 11  1  0
M  RAD  1   5   2
M  END
>  <reaction>  (5) 
rxn_91

>  <mol_properties>  (5) 
{"0": {"label": "*3", "atom_type": "N3s"}, "1": {"label": "*4", "atom_type": "H0"}, "3": {"label": "*0", "atom_type": "Cs"}, "4": {"label": "*1", "atom_type": "Cs"}, "8": {"label": "*2", "atom_type": "H0"}}

>  <type>  (5) 
unop_1

>  <geom_source>  (5) 
Heuristics

$$$$

     RDKit          3D

 11  9  0  0  0  0  0  0  0  0999 V2000
    0.0225    1.5283    1.0921 N   0  0  0  0  0  0  0  0  0  0  0  0
   -0.4596    2.1149    0.4243 H   0  0  0  0  0  0  0  0  0  0  0  0
   -0.5247    0.9843    1.7456 H   0  0  0  0  0  0  0  0  0  0  0  0
    0.0225   -0.8230   -1.3458 C   0  0  0  0  0  0  0  0  0  0  0  0
    0.0225   -0.8230    0.1770 C   0  0  0  0  0  3  0  0  0  0  0  0
   -0.8583   -0.3145   -1.7416 H   0  0  0  0  0  0  0  0  0  0  0  0
    0.9034   -0.3145   -1.7416 H   0  0  0  0  0  0  0  0  0  0  0  0
    0.0225   -1.8402   -1.7416 H   0  0  0  0  0  0  0  0  0  0  0  0
    0.0225    0.3975    0.6520 H   0  0  0  0  0  0  0  0  0  0  0  0
    0.9034   -1.3316    0.5728 H   0  0  0  0  0  0  0  0  0  0  0  0
   -0.8583   -1.3316    0.5728 H   0  0  0  0  0  0  0  0  0  0  0  0
  1  2  1  0
  1  3  1  0
  1  9  1  0
  4  5  1  0
  4  6  1  0
  4  7  1  0
  4  8  1  0
  5 10  1  0
  5 11  1  0
M  RAD  1   5   2
M  END
>  <reaction>  (6) 
rxn_91

>  <mol_properties>  (6) 
{"0": {"label": "*3", "atom_type": "N3s"}, "1": {"label": "*4", "atom_type": "H0"}, "3": {"label": "*0", "atom_type": "Cs"}, "4": {"label": "*1", "atom_type": "Cs"}, "8": {"label": "*2", "atom_type": "H0"}}

>  <type>  (6) 
unop_2

>  <geom_source>  (6) 
Heuristics

$$$$

     RDKit          3D

 11  9  0  0  0  0  0  0  0  0999 V2000
   -0.0091    1.5332    1.0628 N   0  0  0  0  0  0  0  0  0  0  0  0
   -0.4913    1.5139    1.9514 H   0  0  0  0  0  0  0  0  0  0  0  0
    0.8887    1.3747    1.5004 H   0  0  0  0  0  0  0  0  0  0  0  0
   -0.0091   -0.8182   -1.3751 C   0  0  0  0  0  0  0  0  0  0  0  0
   -0.0091   -0.8182    0.1477 C   0  0  0  0  0  3  0  0  0  0  0  0
   -0.8899   -0.3097   -1.7710 H   0  0  0  0  0  0  0  0  0  0  0  0
    0.8718   -0.3097   -1.7710 H   0  0  0  0  0  0  0  0  0  0  0  0
   -0.0091   -1.8353   -1.7710 H   0  0  0  0  0  0  0  0  0  0  0  0
   -0.0091    0.4023    0.6227 H   0  0  0  0  0  0  0  0  0  0  0  0
    0.8718   -1.3268    0.5435 H   0  0  0  0  0  0  0  0  0  0  0  0
   -0.8899   -1.3268    0.5435 H   0  0  0  0  0  0  0  0  0  0  0  0
  1  2  1  0
  1  3  1  0
  1  9  1  0
  4  5  1  0
  4  6  1  0
  4  7  1  0
  4  8  1  0
  5 10  1  0
  5 11  1  0
M  RAD  1   5   2
M  END
>  <reaction>  (7) 
rxn_91

>  <mol_properties>  (7) 
{"0": {"label": "*3", "atom_type": "N3s"}, "1": {"label": "*4", "atom_type": "H0"}, "3": {"label": "*0", "atom_type": "Cs"}, "4": {"label": "*1", "atom_type": "Cs"}, "8": {"label": "*2", "atom_type": "H0"}}

>  <type>  (7) 
unop_3

>  <geom_source>  (7) 
Heuristics

$$$$

     RDKit          3D

 11  9  0  0  0  0  0  0  0  0999 V2000
   -0.0001    1.5067    1.0986 N   0  0  0  0  0  0  0  0  0  0  0  0
    0.8351    1.9652    0.7597 H   0  0  0  0  0  0  0  0  0  0  0  0
   -0.8320    2.0809    1.1260 H   0  0  0  0  0  0  0  0  0  0  0  0
   -0.0001   -0.8447   -1.3393 C   0  0  0  0  0  0  0  0  0  0  0  0
   -0.0001   -0.8447    0.1835 C   0  0  0  0  0  3  0  0  0  0  0  0
   -0.8809   -0.3361   -1.7351 H   0  0  0  0  0  0  0  0  0  0  0  0
    0.8808   -0.3362   -1.7351 H   0  0  0  0  0  0  0  0  0  0  0  0
   -0.0001   -1.8618   -1.7351 H   0  0  0  0  0  0  0  0  0  0  0  0
   -0.0001    0.3758    0.6585 H   0  0  0  0  0  0  0  0  0  0  0  0
    0.8808   -1.3533    0.5793 H   0  0  0  0  0  0  0  0  0  0  0  0
   -0.8809   -1.3533    0.5793 H   0  0  0  0  0  0  0  0  0  0  0  0
  1  2  1  0
  1  3  1  0
  1  9  1  0
  4  5  1  0
  4  6  1  0
  4  7  1  0
  4  8  1  0
  5 10  1  0
  5 11  1  0
M  RAD  1   5   2
M  END
>  <reaction>  (8) 
rxn_91

>  <mol_properties>  (8) 
{"0": {"label": "*3", "atom_type": "N3s"}, "1": {"label": "*4", "atom_type": "H0"}, "3": {"label": "*0", "atom_type": "Cs"}, "4": {"label": "*1", "atom_type": "Cs"}, "8": {"label": "*2", "atom_type": "H0"}}

>  <type>  (8) 
unop_4

>  <geom_source>  (8) 
Heuristics

$$$$

     RDKit          3D

 11  9  0  0  0  0  0  0  0  0999 V2000
   -0.0190    1.5195    1.0684 N   0  0  0  0  0  0  0  0  0  0  0  0
   -0.0190    1.4535    2.0774 H   0  0  0  0  0  0  0  0  0  0  0  0
    0.8513    2.0306    1.1311 H   0  0  0  0  0  0  0  0  0  0  0  0
   -0.0190   -0.8318   -1.3696 C   0  0  0  0  0  0  0  0  0  0  0  0
   -0.0190   -0.8318    0.1532 C   0  0  0  0  0  3  0  0  0  0  0  0
   -0.8999   -0.3233   -1.7654 H   0  0  0  0  0  0  0  0  0  0  0  0
    0.8618   -0.3233   -1.7654 H   0  0  0  0  0  0  0  0  0  0  0  0
   -0.0190   -1.8490   -1.7654 H   0  0  0  0  0  0  0  0  0  0  0  0
   -0.0190    0.3887    0.6282 H   0  0  0  0  0  0  0  0  0  0  0  0
    0.8618   -1.3404    0.5491 H   0  0  0  0  0  0  0  0  0  0  0  0
   -0.8999   -1.3404    0.5491 H   0  0  0  0  0  0  0  0  0  0  0  0
  1  2  1  0
  1  3  1  0
  1  9  1  0
  4  5  1  0
  4  6  1  0
  4  7  1  0
  4  8  1  0
  5 10  1  0
  5 11  1  0
M  RAD  1   5   2
M  END
>  <reaction>  (9) 
rxn_91

>  <mol_properties>  (9) 
{"0": {"label": "*3", "atom_type": "N3s"}, "1": {"label": "*4", "atom_type": "H0"}, "3": {"label": "*0", "atom_type": "Cs"}, "4": {"label": "*1", "atom_type": "Cs"}, "8": {"label": "*2", "atom_type": "H0"}}

>  <type>  (9) 
unop_5

>  <geom_source>  (9) 
Heuristics

$$$$

     RDKit          3D

 11  9  0  0  0  0  0  0  0  0999 V2000
   -0.0084    1.5051    1.0918 N   0  0  0  0  0  0  0  0  0  0  0  0
    0.9559    1.7888    1.2022 H   0  0  0  0  0  0  0  0  0  0  0  0
   -0.5869    2.3270    0.9805 H   0  0  0  0  0  0  0  0  0  0  0  0
   -0.0084   -0.8463   -1.3461 C   0  0  0  0  0  0  0  0  0  0  0  0
   -0.0084   -0.8463    0.1767 C   0  0  0  0  0  3  0  0  0  0  0  0
   -0.8893   -0.3377   -1.7419 H   0  0  0  0  0  0  0  0  0  0  0  0
    0.8724   -0.3377   -1.7419 H   0  0  0  0  0  0  0  0  0  0  0  0
   -0.0084   -1.8634   -1.7419 H   0  0  0  0  0  0  0  0  0  0  0  0
   -0.0084    0.3742    0.6517 H   0  0  0  0  0  0  0  0  0  0  0  0
    0.8724   -1.3549    0.5725 H   0  0  0  0  0  0  0  0  0  0  0  0
   -0.8893   -1.3549    0.5725 H   0  0  0  0  0  0  0  0  0  0  0  0
  1  2  1  0
  1  3  1  0
  1  9  1  0
  4  5  1  0
  4  6  1  0
  4  7  1  0
  4  8  1  0
  5 10  1  0
  5 11  1  0
M  RAD  1   5   2
M  END
>  <reaction>  (10) 
rxn_91

>  <mol_properties>  (10) 
{"0": {"label": "*3", "atom_type": "N3s"}, "1": {"label": "*4", "atom_type": "H0"}, "3": {"label": "*0", "atom_type": "Cs"}, "4": {"label": "*1", "atom_type": "Cs"}, "8": {"label": "*2", "atom_type": "H0"}}

>  <type>  (10) 
unop_6

>  <geom_source>  (10) 
Heuristics

$$$$

     RDKit          3D

 11  9  0  0  0  0  0  0  0  0999 V2000
   -0.0134    1.5057    1.0838 N   0  0  0  0  0  0  0  0  0  0  0  0
    0.8218    1.6145    1.6435 H   0  0  0  0  0  0  0  0  0  0  0  0
   -0.2376    2.4728    0.8912 H   0  0  0  0  0  0  0  0  0  0  0  0
   -0.0134   -0.8456   -1.3541 C   0  0  0  0  0  0  0  0  0  0  0  0
   -0.0134   -0.8456    0.1686 C   0  0  0  0  0  3  0  0  0  0  0  0
   -0.8942   -0.3371   -1.7500 H   0  0  0  0  0  0  0  0  0  0  0  0
    0.8675   -0.3371   -1.7500 H   0  0  0  0  0  0  0  0  0  0  0  0
   -0.0134   -1.8628   -1.7500 H   0  0  0  0  0  0  0  0  0  0  0  0
   -0.0134    0.3749    0.6437 H   0  0  0  0  0  0  0  0  0  0  0  0
    0.8675   -1.3542    0.5645 H   0  0  0  0  0  0  0  0  0  0  0  0
   -0.8942   -1.3542    0.5645 H   0  0  0  0  0  0  0  0  0  0  0  0
  1  2  1  0
  1  3  1  0
  1  9  1  0
  4  5  1  0
  4  6  1  0
  4  7  1  0
  4  8  1  0
  5 10  1  0
  5 11  1  0
M  RAD  1   5   2
M  END
>  <reaction>  (11) 
rxn_91

>  <mol_properties>  (11) 
{"0": {"label": "*3", "atom_type": "N3s"}, "1": {"label": "*4", "atom_type": "H0"}, "3": {"label": "*0", "atom_type": "Cs"}, "4": {"label": "*1", "atom_type": "Cs"}, "8": {"label": "*2", "atom_type": "H0"}}

>  <type>  (11) 
unop_7

>  <geom_source>  (11) 
Heuristics

$$$$

     RDKit          3D

 11  9  0  0  0  0  0  0  0  0999 V2000
    0.0159    1.5377    1.0736 N   0  0  0  0  0  0  0  0  0  0  0  0
   -0.9484    1.8213    1.1840 H   0  0  0  0  0  0  0  0  0  0  0  0
    0.2518    0.8705    1.7960 H   0  0  0  0  0  0  0  0  0  0  0  0
    0.0159   -0.8137   -1.3643 C   0  0  0  0  0  0  0  0  0  0  0  0
    0.0159   -0.8137    0.1585 C   0  0  0  0  0  3  0  0  0  0  0  0
   -0.8649   -0.3052   -1.7602 H   0  0  0  0  0  0  0  0  0  0  0  0
    0.8968   -0.3052   -1.7602 H   0  0  0  0  0  0  0  0  0  0  0  0
    0.0159   -1.8308   -1.7602 H   0  0  0  0  0  0  0  0  0  0  0  0
    0.0159    0.4068    0.6335 H   0  0  0  0  0  0  0  0  0  0  0  0
    0.8968   -1.3223    0.5543 H   0  0  0  0  0  0  0  0  0  0  0  0
   -0.8649   -1.3223    0.5543 H   0  0  0  0  0  0  0  0  0  0  0  0
  1  2  1  0
  1  3  1  0
  1  9  1  0
  4  5  1  0
  4  6  1  0
  4  7  1  0
  4  8  1  0
  5 10  1  0
  5 11  1  0
M  RAD  1   5   2
M  END
>  <reaction>  (12) 
rxn_91

>  <mol_properties>  (12) 
{"0": {"label": "*3", "atom_type": "N3s"}, "1": {"label": "*4", "atom_type": "H0"}, "3": {"label": "*0", "atom_type": "Cs"}, "4": {"label": "*1", "atom_type": "Cs"}, "8": {"label": "*2", "atom_type": "H0"}}

>  <type>  (12) 
unop_8

>  <geom_source>  (12) 
Heuristics

$$$$

     RDKit          3D

 11  9  0  0  0  0  0  0  0  0999 V2000
    0.0105    1.5118    1.1014 N   0  0  0  0  0  0  0  0  0  0  0  0
    0.4926    2.0983    0.4335 H   0  0  0  0  0  0  0  0  0  0  0  0
   -0.9510    1.7251    1.3308 H   0  0  0  0  0  0  0  0  0  0  0  0
    0.0105   -0.8396   -1.3365 C   0  0  0  0  0  0  0  0  0  0  0  0
    0.0105   -0.8396    0.1863 C   0  0  0  0  0  3  0  0  0  0  0  0
   -0.8704   -0.3311   -1.7324 H   0  0  0  0  0  0  0  0  0  0  0  0
    0.8913   -0.3311   -1.7324 H   0  0  0  0  0  0  0  0  0  0  0  0
    0.0105   -1.8567   -1.7324 H   0  0  0  0  0  0  0  0  0  0  0  0
    0.0105    0.3809    0.6613 H   0  0  0  0  0  0  0  0  0  0  0  0
    0.8913   -1.3482    0.5821 H   0  0  0  0  0  0  0  0  0  0  0  0
   -0.8704   -1.3482    0.5821 H   0  0  0  0  0  0  0  0  0  0  0  0
  1  2  1  0
  1  3  1  0
  1  9  1  0
  4  5  1  0
  4  6  1  0
  4  7  1  0
  4  8  1  0
  5 10  1  0
  5 11  1  0
M  RAD  1   5   2
M  END
>  <reaction>  (13) 
rxn_91

>  <mol_properties>  (13) 
{"0": {"label": "*3", "atom_type": "N3s"}, "1": {"label": "*4", "atom_type": "H0"}, "3": {"label": "*0", "atom_type": "Cs"}, "4": {"label": "*1", "atom_type": "Cs"}, "8": {"label": "*2", "atom_type": "H0"}}

>  <type>  (13) 
unop_9

>  <geom_source>  (13) 
Heuristics

$$$$

     RDKit          3D

 11  9  0  0  0  0  0  0  0  0999 V2000
    0.0214    1.5342    1.0832 N   0  0  0  0  0  0  0  0  0  0  0  0
   -0.8137    1.9927    0.7443 H   0  0  0  0  0  0  0  0  0  0  0  0
   -0.1228    0.8509    1.8146 H   0  0  0  0  0  0  0  0  0  0  0  0
    0.0214   -0.8172   -1.3547 C   0  0  0  0  0  0  0  0  0  0  0  0
    0.0214   -0.8172    0.1681 C   0  0  0  0  0  3  0  0  0  0  0  0
   -0.8594   -0.3086   -1.7505 H   0  0  0  0  0  0  0  0  0  0  0  0
    0.9023   -0.3086   -1.7505 H   0  0  0  0  0  0  0  0  0  0  0  0
    0.0214   -1.8343   -1.7505 H   0  0  0  0  0  0  0  0  0  0  0  0
    0.0214    0.4033    0.6431 H   0  0  0  0  0  0  0  0  0  0  0  0
    0.9023   -1.3257    0.5639 H   0  0  0  0  0  0  0  0  0  0  0  0
   -0.8594   -1.3258    0.5639 H   0  0  0  0  0  0  0  0  0  0  0  0
  1  2  1  0
  1  3  1  0
  1  9  1  0
  4  5  1  0
  4  6  1  0
  4  7  1  0
  4  8  1  0
  5 10  1  0
  5 11  1  0
M  RAD  1   5   2
M  END
>  <reaction>  (14) 
rxn_91

>  <mol_properties>  (14) 
{"0": {"label": "*3", "atom_type": "N3s"}, "1": {"label": "*4", "atom_type": "H0"}, "3": {"label": "*0", "atom_type": "Cs"}, "4": {"label": "*1", "atom_type": "Cs"}, "8": {"label": "*2", "atom_type": "H0"}}

>  <type>  (14) 
unop_10

>  <geom_source>  (14) 
Heuristics

$$$$

     RDKit          3D

 11  9  0  0  0  0  0  0  0  0999 V2000
   -0.0169    1.5089    1.0764 N   0  0  0  0  0  0  0  0  0  0  0  0
    0.4652    1.4897    1.9650 H   0  0  0  0  0  0  0  0  0  0  0  0
    0.2742    2.4598    0.8929 H   0  0  0  0  0  0  0  0  0  0  0  0
   -0.0169   -0.8425   -1.3615 C   0  0  0  0  0  0  0  0  0  0  0  0
   -0.0169   -0.8425    0.1612 C   0  0  0  0  0  3  0  0  0  0  0  0
   -0.8978   -0.3339   -1.7574 H   0  0  0  0  0  0  0  0  0  0  0  0
    0.8639   -0.3339   -1.7574 H   0  0  0  0  0  0  0  0  0  0  0  0
   -0.0169   -1.8596   -1.7574 H   0  0  0  0  0  0  0  0  0  0  0  0
   -0.0169    0.3780    0.6363 H   0  0  0  0  0  0  0  0  0  0  0  0
    0.8639   -1.3510    0.5571 H   0  0  0  0  0  0  0  0  0  0  0  0
   -0.8978   -1.3510    0.5571 H   0  0  0  0  0  0  0  0  0  0  0  0
  1  2  1  0
  1  3  1  0
  1  9  1  0
  4  5  1  0
  4  6  1  0
  4  7  1  0
  4  8  1  0
  5 10  1  0
  5 11  1  0
M  RAD  1   5   2
M  END
>  <reaction>  (15) 
rxn_91

>  <mol_properties>  (15) 
{"0": {"label": "*3", "atom_type": "N3s"}, "1": {"label": "*4", "atom_type": "H0"}, "3": {"label": "*0", "atom_type": "Cs"}, "4": {"label": "*1", "atom_type": "Cs"}, "8": {"label": "*2", "atom_type": "H0"}}

>  <type>  (15) 
unop_11

>  <geom_source>  (15) 
Heuristics

$$$$

     RDKit          3D

 11  9  0  0  0  0  0  0  0  0999 V2000
    0.0190    1.5201    1.0988 N   0  0  0  0  0  0  0  0  0  0  0  0
    0.0190    2.1535    0.3105 H   0  0  0  0  0  0  0  0  0  0  0  0
   -0.8513    1.3064    1.5673 H   0  0  0  0  0  0  0  0  0  0  0  0
    0.0190   -0.8313   -1.3391 C   0  0  0  0  0  0  0  0  0  0  0  0
    0.0190   -0.8313    0.1837 C   0  0  0  0  0  3  0  0  0  0  0  0
   -0.8618   -0.3227   -1.7350 H   0  0  0  0  0  0  0  0  0  0  0  0
    0.8999   -0.3227   -1.7350 H   0  0  0  0  0  0  0  0  0  0  0  0
    0.0190   -1.8484   -1.7350 H   0  0  0  0  0  0  0  0  0  0  0  0
    0.0190    0.3892    0.6587 H   0  0  0  0  0  0  0  0  0  0  0  0
    0.8999   -1.3398    0.5795 H   0  0  0  0  0  0  0  0  0  0  0  0
   -0.8618   -1.3398    0.5795 H   0  0  0  0  0  0  0  0  0  0  0  0
  1  2  1  0
  1  3  1  0
  1  9  1  0
  4  5  1  0
  4  6  1  0
  4  7  1  0
  4  8  1  0
  5 10  1  0
  5 11  1  0
M  RAD  1   5   2
M  END
>  <reaction>  (16) 
rxn_91

>  <mol_properties>  (16) 
{"0": {"label": "*3", "atom_type": "N3s"}, "1": {"label": "*4", "atom_type": "H0"}, "3": {"label": "*0", "atom_type": "Cs"}, "4": {"label": "*1", "atom_type": "Cs"}, "8": {"label": "*2", "atom_type": "H0"}}

>  <type>  (16) 
unop_12

>  <geom_source>  (16) 
Heuristics

$$$$
