
     RDKit          3D

  5  4  0  0  0  0  0  0  0  0999 V2000
   -0.3689   -0.0540    0.1184 C   0  0  0  0  0  0  0  0  0  0  0  0
    0.7862    0.4359    0.2394 N   0  0  0  0  0  0  0  0  0  0  0  0
   -0.6872   -0.7035   -0.7033 H   0  0  0  0  0  0  0  0  0  0  0  0
   -1.1194    0.1733    0.8758 H   0  0  0  0  0  0  0  0  0  0  0  0
    1.3892    0.1482   -0.5303 H   0  0  0  0  0  0  0  0  0  0  0  0
  1  2  2  3
  1  3  1  0
  1  4  1  0
  2  5  1  0
M  END
>  <reaction>  (1) 
rxn_671

>  <mol_properties>  (1) 
{"1": {"label": "donator", "atom_type": "N3d"}, "4": {"label": "d_hydrogen", "atom_type": "H0"}}

>  <type>  (1) 
r1h

$$$$

     RDKit          3D

  3  2  0  0  0  0  0  0  0  0999 V2000
    0.0002    0.4233    0.0000 N   0  0  0  0  0  2  0  0  0  0  0  0
   -0.8051   -0.2112    0.0000 H   0  0  0  0  0  0  0  0  0  0  0  0
    0.8049   -0.2121    0.0000 H   0  0  0  0  0  0  0  0  0  0  0  0
  1  2  1  0
  1  3  1  0
M  RAD  1   1   2
M  END
>  <reaction>  (2) 
rxn_671

>  <mol_properties>  (2) 
{"0": {"label": "acceptor", "atom_type": "N3s"}}

>  <type>  (2) 
r2

$$$$

     RDKit          3D

  4  3  0  0  0  0  0  0  0  0999 V2000
    0.0006   -0.0009    0.2762 N   0  0  0  0  0  0  0  0  0  0  0  0
   -0.4188    0.8439   -0.0883 H   0  0  0  0  0  0  0  0  0  0  0  0
   -0.5215   -0.7840   -0.0936 H   0  0  0  0  0  0  0  0  0  0  0  0
    0.9397   -0.0590   -0.0943 H   0  0  0  0  0  0  0  0  0  0  0  0
  1  2  1  0
  1  3  1  0
  1  4  1  0
M  END
>  <reaction>  (3) 
rxn_671

>  <mol_properties>  (3) 
{"0": {"label": "acceptor", "atom_type": "N3s"}, "3": {"label": "a_hydrogen", "atom_type": "H0"}}

>  <type>  (3) 
r2h

$$$$

     RDKit          3D

  8  6  0  0  0  0  0  0  0  0999 V2000
   -0.5365    1.2896    0.8622 N   0  0  0  0  0  2  0  0  0  0  0  0
    0.0413    1.2806    1.7063 H   0  0  0  0  0  0  0  0  0  0  0  0
   -0.3777    2.2191    0.4656 H   0  0  0  0  0  0  0  0  0  0  0  0
   -0.0873   -1.0275   -1.0421 C   0  0  0  0  0  0  0  0  0  0  0  0
    0.7828   -0.1915   -0.7036 N   0  0  0  0  0  0  0  0  0  0  0  0
   -1.1177   -0.9980   -0.6719 H   0  0  0  0  0  0  0  0  0  0  0  0
    0.1812   -1.8261   -1.7368 H   0  0  0  0  0  0  0  0  0  0  0  0
    0.2688    0.5333    0.0182 H   0  0  0  0  0  0  0  0  0  0  0  0
  1  2  1  0
  1  3  1  0
  4  5  2  3
  4  6  1  0
  4  7  1  0
  5  8  1  0
M  RAD  1   1   2
M  END
>  <reaction>  (4) 
rxn_671

>  <mol_properties>  (4) 
{"0": {"label": "*3", "atom_type": "N3s"}, "1": {"label": "*4", "atom_type": "H0"}, "3": {"label": "*0", "atom_type": "Cd"}, "4": {"label": "*1", "atom_type": "N3d"}, "7": {"label": "*2", "atom_type": "H0"}}

>  <type>  (4) 
ts

$$$$

     RDKit          3D

  8  6  0  0  0  0  0  0  0  0999 V2000
    0.0055    1.4496    0.9463 N   0  0  0  0  0  0  0  0  0  0  0  0
   -0.8296    1.5601    1.5057 H   0  0  0  0  0  0  0  0  0  0  0  0
    0.5936    0.9334    1.5868 H   0  0  0  0  0  0  0  0  0  0  0  0
    0.0055   -0.8236   -1.1911 C   0  0  0  0  0  0  0  0  0  0  0  0
    0.0055   -0.8236    0.0694 N   0  0  0  0  0  2  0  0  0  0  0  0
    0.0055    0.0765   -1.8141 H   0  0  0  0  0  0  0  0  0  0  0  0
    0.0055   -1.7783   -1.7177 H   0  0  0  0  0  0  0  0  0  0  0  0
    0.0055    0.3175    0.5096 H   0  0  0  0  0  0  0  0  0  0  0  0
  1  2  1  0
  1  3  1  0
  1  8  1  0
  4  5  2  0
  4  6  1  0
  4  7  1  0
M  RAD  1   5   2
M  END
>  <reaction>  (5) 
rxn_671

>  <mol_properties>  (5) 
{"0": {"label": "*3", "atom_type": "N3s"}, "1": {"label": "*4", "atom_type": "H0"}, "3": {"label": "*0", "atom_type": "Cd"}, "4": {"label": "*1", "atom_type": "N3d"}, "7": {"label": "*2", "atom_type": "H0"}}

>  <type>  (5) 
unop_1

>  <geom_source>  (5) 
Heuristics

$$$$

     RDKit          3D

  8  6  0  0  0  0  0  0  0  0999 V2000
    0.0230    1.4396    0.9735 N   0  0  0  0  0  0  0  0  0  0  0  0
   -0.4591    2.0242    0.3039 H   0  0  0  0  0  0  0  0  0  0  0  0
   -0.5242    0.8974    1.6286 H   0  0  0  0  0  0  0  0  0  0  0  0
    0.0230   -0.8337   -1.1640 C   0  0  0  0  0  0  0  0  0  0  0  0
    0.0230   -0.8337    0.0965 N   0  0  0  0  0  2  0  0  0  0  0  0
    0.0230    0.0664   -1.7870 H   0  0  0  0  0  0  0  0  0  0  0  0
    0.0230   -1.7883   -1.6906 H   0  0  0  0  0  0  0  0  0  0  0  0
    0.0230    0.3075    0.5367 H   0  0  0  0  0  0  0  0  0  0  0  0
  1  2  1  0
  1  3  1  0
  1  8  1  0
  4  5  2  0
  4  6  1  0
  4  7  1  0
M  RAD  1   5   2
M  END
>  <reaction>  (6) 
rxn_671

>  <mol_properties>  (6) 
{"0": {"label": "*3", "atom_type": "N3s"}, "1": {"label": "*4", "atom_type": "H0"}, "3": {"label": "*0", "atom_type": "Cd"}, "4": {"label": "*1", "atom_type": "N3d"}, "7": {"label": "*2", "atom_type": "H0"}}

>  <type>  (6) 
unop_2

>  <geom_source>  (6) 
Heuristics

$$$$

     RDKit          3D

  8  6  0  0  0  0  0  0  0  0999 V2000
   -0.0093    1.4444    0.9435 N   0  0  0  0  0  0  0  0  0  0  0  0
   -0.4915    1.4279    1.8322 H   0  0  0  0  0  0  0  0  0  0  0  0
    0.8885    1.2873    1.3815 H   0  0  0  0  0  0  0  0  0  0  0  0
   -0.0093   -0.8288   -1.1940 C   0  0  0  0  0  0  0  0  0  0  0  0
   -0.0093   -0.8288    0.0665 N   0  0  0  0  0  2  0  0  0  0  0  0
   -0.0093    0.0713   -1.8170 H   0  0  0  0  0  0  0  0  0  0  0  0
   -0.0093   -1.7835   -1.7206 H   0  0  0  0  0  0  0  0  0  0  0  0
   -0.0093    0.3123    0.5067 H   0  0  0  0  0  0  0  0  0  0  0  0
  1  2  1  0
  1  3  1  0
  1  8  1  0
  4  5  2  0
  4  6  1  0
  4  7  1  0
M  RAD  1   5   2
M  END
>  <reaction>  (7) 
rxn_671

>  <mol_properties>  (7) 
{"0": {"label": "*3", "atom_type": "N3s"}, "1": {"label": "*4", "atom_type": "H0"}, "3": {"label": "*0", "atom_type": "Cd"}, "4": {"label": "*1", "atom_type": "N3d"}, "7": {"label": "*2", "atom_type": "H0"}}

>  <type>  (7) 
unop_3

>  <geom_source>  (7) 
Heuristics

$$$$

     RDKit          3D

  8  6  0  0  0  0  0  0  0  0999 V2000
   -0.0001    1.4175    0.9802 N   0  0  0  0  0  0  0  0  0  0  0  0
    0.8350    1.8750    0.6399 H   0  0  0  0  0  0  0  0  0  0  0  0
   -0.8320    1.9917    1.0059 H   0  0  0  0  0  0  0  0  0  0  0  0
   -0.0001   -0.8558   -1.1573 C   0  0  0  0  0  0  0  0  0  0  0  0
   -0.0001   -0.8558    0.1032 N   0  0  0  0  0  2  0  0  0  0  0  0
   -0.0001    0.0443   -1.7803 H   0  0  0  0  0  0  0  0  0  0  0  0
   -0.0001   -1.8104   -1.6839 H   0  0  0  0  0  0  0  0  0  0  0  0
   -0.0001    0.2853    0.5435 H   0  0  0  0  0  0  0  0  0  0  0  0
  1  2  1  0
  1  3  1  0
  1  8  1  0
  4  5  2  0
  4  6  1  0
  4  7  1  0
M  RAD  1   5   2
M  END
>  <reaction>  (8) 
rxn_671

>  <mol_properties>  (8) 
{"0": {"label": "*3", "atom_type": "N3s"}, "1": {"label": "*4", "atom_type": "H0"}, "3": {"label": "*0", "atom_type": "Cd"}, "4": {"label": "*1", "atom_type": "N3d"}, "7": {"label": "*2", "atom_type": "H0"}}

>  <type>  (8) 
unop_4

>  <geom_source>  (8) 
Heuristics

$$$$

     RDKit          3D

  8  6  0  0  0  0  0  0  0  0999 V2000
   -0.0195    1.4305    0.9492 N   0  0  0  0  0  0  0  0  0  0  0  0
   -0.0195    1.3674    1.9585 H   0  0  0  0  0  0  0  0  0  0  0  0
    0.8508    1.9418    1.0104 H   0  0  0  0  0  0  0  0  0  0  0  0
   -0.0195   -0.8427   -1.1882 C   0  0  0  0  0  0  0  0  0  0  0  0
   -0.0195   -0.8427    0.0723 N   0  0  0  0  0  2  0  0  0  0  0  0
   -0.0195    0.0573   -1.8112 H   0  0  0  0  0  0  0  0  0  0  0  0
   -0.0195   -1.7974   -1.7148 H   0  0  0  0  0  0  0  0  0  0  0  0
   -0.0195    0.2984    0.5125 H   0  0  0  0  0  0  0  0  0  0  0  0
  1  2  1  0
  1  3  1  0
  1  8  1  0
  4  5  2  0
  4  6  1  0
  4  7  1  0
M  RAD  1   5   2
M  END
>  <reaction>  (9) 
rxn_671

>  <mol_properties>  (9) 
{"0": {"label": "*3", "atom_type": "N3s"}, "1": {"label": "*4", "atom_type": "H0"}, "3": {"label": "*0", "atom_type": "Cd"}, "4": {"label": "*1", "atom_type": "N3d"}, "7": {"label": "*2", "atom_type": "H0"}}

>  <type>  (9) 
unop_5

>  <geom_source>  (9) 
Heuristics

$$$$

     RDKit          3D

  8  6  0  0  0  0  0  0  0  0999 V2000
   -0.0086    1.4158    0.9733 N   0  0  0  0  0  0  0  0  0  0  0  0
    0.9557    1.6998    1.0828 H   0  0  0  0  0  0  0  0  0  0  0  0
   -0.5871    2.2374    0.8595 H   0  0  0  0  0  0  0  0  0  0  0  0
   -0.0086   -0.8574   -1.1642 C   0  0  0  0  0  0  0  0  0  0  0  0
   -0.0086   -0.8574    0.0963 N   0  0  0  0  0  2  0  0  0  0  0  0
   -0.0086    0.0426   -1.7872 H   0  0  0  0  0  0  0  0  0  0  0  0
   -0.0086   -1.8121   -1.6908 H   0  0  0  0  0  0  0  0  0  0  0  0
   -0.0086    0.2837    0.5365 H   0  0  0  0  0  0  0  0  0  0  0  0
  1  2  1  0
  1  3  1  0
  1  8  1  0
  4  5  2  0
  4  6  1  0
  4  7  1  0
M  RAD  1   5   2
M  END
>  <reaction>  (10) 
rxn_671

>  <mol_properties>  (10) 
{"0": {"label": "*3", "atom_type": "N3s"}, "1": {"label": "*4", "atom_type": "H0"}, "3": {"label": "*0", "atom_type": "Cd"}, "4": {"label": "*1", "atom_type": "N3d"}, "7": {"label": "*2", "atom_type": "H0"}}

>  <type>  (10) 
unop_6

>  <geom_source>  (10) 
Heuristics

$$$$

     RDKit          3D

  8  6  0  0  0  0  0  0  0  0999 V2000
   -0.0137    1.4164    0.9650 N   0  0  0  0  0  0  0  0  0  0  0  0
    0.8215    1.5269    1.5244 H   0  0  0  0  0  0  0  0  0  0  0  0
   -0.2379    2.3829    0.7696 H   0  0  0  0  0  0  0  0  0  0  0  0
   -0.0137   -0.8568   -1.1724 C   0  0  0  0  0  0  0  0  0  0  0  0
   -0.0137   -0.8568    0.0881 N   0  0  0  0  0  2  0  0  0  0  0  0
   -0.0137    0.0433   -1.7954 H   0  0  0  0  0  0  0  0  0  0  0  0
   -0.0137   -1.8114   -1.6990 H   0  0  0  0  0  0  0  0  0  0  0  0
   -0.0137    0.2843    0.5283 H   0  0  0  0  0  0  0  0  0  0  0  0
  1  2  1  0
  1  3  1  0
  1  8  1  0
  4  5  2  0
  4  6  1  0
  4  7  1  0
M  RAD  1   5   2
M  END
>  <reaction>  (11) 
rxn_671

>  <mol_properties>  (11) 
{"0": {"label": "*3", "atom_type": "N3s"}, "1": {"label": "*4", "atom_type": "H0"}, "3": {"label": "*0", "atom_type": "Cd"}, "4": {"label": "*1", "atom_type": "N3d"}, "7": {"label": "*2", "atom_type": "H0"}}

>  <type>  (11) 
unop_7

>  <geom_source>  (11) 
Heuristics

$$$$

     RDKit          3D

  8  6  0  0  0  0  0  0  0  0999 V2000
    0.0163    1.4491    0.9545 N   0  0  0  0  0  0  0  0  0  0  0  0
   -0.9480    1.7331    1.0641 H   0  0  0  0  0  0  0  0  0  0  0  0
    0.2522    0.7841    1.6789 H   0  0  0  0  0  0  0  0  0  0  0  0
    0.0163   -0.8242   -1.1829 C   0  0  0  0  0  0  0  0  0  0  0  0
    0.0163   -0.8242    0.0775 N   0  0  0  0  0  2  0  0  0  0  0  0
    0.0163    0.0759   -1.8059 H   0  0  0  0  0  0  0  0  0  0  0  0
    0.0163   -1.7788   -1.7096 H   0  0  0  0  0  0  0  0  0  0  0  0
    0.0163    0.3169    0.5178 H   0  0  0  0  0  0  0  0  0  0  0  0
  1  2  1  0
  1  3  1  0
  1  8  1  0
  4  5  2  0
  4  6  1  0
  4  7  1  0
M  RAD  1   5   2
M  END
>  <reaction>  (12) 
rxn_671

>  <mol_properties>  (12) 
{"0": {"label": "*3", "atom_type": "N3s"}, "1": {"label": "*4", "atom_type": "H0"}, "3": {"label": "*0", "atom_type": "Cd"}, "4": {"label": "*1", "atom_type": "N3d"}, "7": {"label": "*2", "atom_type": "H0"}}

>  <type>  (12) 
unop_8

>  <geom_source>  (12) 
Heuristics

$$$$

     RDKit          3D

  8  6  0  0  0  0  0  0  0  0999 V2000
    0.0107    1.4227    0.9830 N   0  0  0  0  0  0  0  0  0  0  0  0
    0.4929    2.0073    0.3135 H   0  0  0  0  0  0  0  0  0  0  0  0
   -0.9507    1.6366    1.2119 H   0  0  0  0  0  0  0  0  0  0  0  0
    0.0107   -0.8506   -1.1544 C   0  0  0  0  0  0  0  0  0  0  0  0
    0.0107   -0.8506    0.1061 N   0  0  0  0  0  2  0  0  0  0  0  0
    0.0107    0.0495   -1.7774 H   0  0  0  0  0  0  0  0  0  0  0  0
    0.0107   -1.8052   -1.6810 H   0  0  0  0  0  0  0  0  0  0  0  0
    0.0107    0.2905    0.5463 H   0  0  0  0  0  0  0  0  0  0  0  0
  1  2  1  0
  1  3  1  0
  1  8  1  0
  4  5  2  0
  4  6  1  0
  4  7  1  0
M  RAD  1   5   2
M  END
>  <reaction>  (13) 
rxn_671

>  <mol_properties>  (13) 
{"0": {"label": "*3", "atom_type": "N3s"}, "1": {"label": "*4", "atom_type": "H0"}, "3": {"label": "*0", "atom_type": "Cd"}, "4": {"label": "*1", "atom_type": "N3d"}, "7": {"label": "*2", "atom_type": "H0"}}

>  <type>  (13) 
unop_9

>  <geom_source>  (13) 
Heuristics

$$$$

     RDKit          3D

  8  6  0  0  0  0  0  0  0  0999 V2000
    0.0219    1.4455    0.9644 N   0  0  0  0  0  0  0  0  0  0  0  0
   -0.8132    1.9031    0.6241 H   0  0  0  0  0  0  0  0  0  0  0  0
   -0.1223    0.7645    1.6978 H   0  0  0  0  0  0  0  0  0  0  0  0
    0.0219   -0.8277   -1.1731 C   0  0  0  0  0  0  0  0  0  0  0  0
    0.0219   -0.8277    0.0874 N   0  0  0  0  0  2  0  0  0  0  0  0
    0.0219    0.0724   -1.7961 H   0  0  0  0  0  0  0  0  0  0  0  0
    0.0219   -1.7823   -1.6997 H   0  0  0  0  0  0  0  0  0  0  0  0
    0.0219    0.3134    0.5276 H   0  0  0  0  0  0  0  0  0  0  0  0
  1  2  1  0
  1  3  1  0
  1  8  1  0
  4  5  2  0
  4  6  1  0
  4  7  1  0
M  RAD  1   5   2
M  END
>  <reaction>  (14) 
rxn_671

>  <mol_properties>  (14) 
{"0": {"label": "*3", "atom_type": "N3s"}, "1": {"label": "*4", "atom_type": "H0"}, "3": {"label": "*0", "atom_type": "Cd"}, "4": {"label": "*1", "atom_type": "N3d"}, "7": {"label": "*2", "atom_type": "H0"}}

>  <type>  (14) 
unop_10

>  <geom_source>  (14) 
Heuristics

$$$$

     RDKit          3D

  8  6  0  0  0  0  0  0  0  0999 V2000
   -0.0173    1.4197    0.9575 N   0  0  0  0  0  0  0  0  0  0  0  0
    0.4649    1.4031    1.8462 H   0  0  0  0  0  0  0  0  0  0  0  0
    0.2738    2.3700    0.7712 H   0  0  0  0  0  0  0  0  0  0  0  0
   -0.0173   -0.8536   -1.1800 C   0  0  0  0  0  0  0  0  0  0  0  0
   -0.0173   -0.8536    0.0805 N   0  0  0  0  0  2  0  0  0  0  0  0
   -0.0173    0.0465   -1.8030 H   0  0  0  0  0  0  0  0  0  0  0  0
   -0.0173   -1.8082   -1.7066 H   0  0  0  0  0  0  0  0  0  0  0  0
   -0.0173    0.2875    0.5207 H   0  0  0  0  0  0  0  0  0  0  0  0
  1  2  1  0
  1  3  1  0
  1  8  1  0
  4  5  2  0
  4  6  1  0
  4  7  1  0
M  RAD  1   5   2
M  END
>  <reaction>  (15) 
rxn_671

>  <mol_properties>  (15) 
{"0": {"label": "*3", "atom_type": "N3s"}, "1": {"label": "*4", "atom_type": "H0"}, "3": {"label": "*0", "atom_type": "Cd"}, "4": {"label": "*1", "atom_type": "N3d"}, "7": {"label": "*2", "atom_type": "H0"}}

>  <type>  (15) 
unop_11

>  <geom_source>  (15) 
Heuristics

$$$$

     RDKit          3D

  8  6  0  0  0  0  0  0  0  0999 V2000
    0.0195    1.4312    0.9804 N   0  0  0  0  0  0  0  0  0  0  0  0
    0.0195    2.0623    0.1902 H   0  0  0  0  0  0  0  0  0  0  0  0
   -0.8508    1.2189    1.4495 H   0  0  0  0  0  0  0  0  0  0  0  0
    0.0195   -0.8421   -1.1571 C   0  0  0  0  0  0  0  0  0  0  0  0
    0.0195   -0.8421    0.1034 N   0  0  0  0  0  2  0  0  0  0  0  0
    0.0195    0.0580   -1.7801 H   0  0  0  0  0  0  0  0  0  0  0  0
    0.0195   -1.7967   -1.6837 H   0  0  0  0  0  0  0  0  0  0  0  0
    0.0195    0.2990    0.5436 H   0  0  0  0  0  0  0  0  0  0  0  0
  1  2  1  0
  1  3  1  0
  1  8  1  0
  4  5  2  0
  4  6  1  0
  4  7  1  0
M  RAD  1   5   2
M  END
>  <reaction>  (16) 
rxn_671

>  <mol_properties>  (16) 
{"0": {"label": "*3", "atom_type": "N3s"}, "1": {"label": "*4", "atom_type": "H0"}, "3": {"label": "*0", "atom_type": "Cd"}, "4": {"label": "*1", "atom_type": "N3d"}, "7": {"label": "*2", "atom_type": "H0"}}

>  <type>  (16) 
unop_12

>  <geom_source>  (16) 
Heuristics

$$$$
