
     RDKit          3D

 17 16  0  0  0  0  0  0  0  0999 V2000
   -1.9072   -0.7836   -0.1429 C   0  0  0  0  0  0  0  0  0  0  0  0
   -0.9540    0.3961   -0.2879 C   0  0  0  0  0  0  0  0  0  0  0  0
   -0.7331    0.8677   -1.7276 C   0  0  0  0  0  0  0  0  0  0  0  0
   -0.1113   -0.2174   -2.6029 C   0  0  0  0  0  0  0  0  0  0  0  0
    0.1254    2.1291   -1.7491 C   0  0  0  0  0  0  0  0  0  0  0  0
   -1.5074   -1.6880   -0.6041 H   0  0  0  0  0  0  0  0  0  0  0  0
   -2.0936   -1.0079    0.9085 H   0  0  0  0  0  0  0  0  0  0  0  0
   -2.8700   -0.5677   -0.6130 H   0  0  0  0  0  0  0  0  0  0  0  0
   -1.3379    1.2381    0.2960 H   0  0  0  0  0  0  0  0  0  0  0  0
    0.0174    0.1396    0.1503 H   0  0  0  0  0  0  0  0  0  0  0  0
   -1.7146    1.1192   -2.1475 H   0  0  0  0  0  0  0  0  0  0  0  0
   -0.7504   -1.0979   -2.6798 H   0  0  0  0  0  0  0  0  0  0  0  0
    0.0647    0.1522   -3.6151 H   0  0  0  0  0  0  0  0  0  0  0  0
    0.8517   -0.5357   -2.1923 H   0  0  0  0  0  0  0  0  0  0  0  0
    1.1190    1.9249   -1.3397 H   0  0  0  0  0  0  0  0  0  0  0  0
   -0.3236    2.9256   -1.1519 H   0  0  0  0  0  0  0  0  0  0  0  0
    0.2558    2.5030   -2.7666 H   0  0  0  0  0  0  0  0  0  0  0  0
  1  2  1  0
  1  6  1  0
  1  7  1  0
  1  8  1  0
  2  3  1  0
  2  9  1  0
  2 10  1  0
  3  4  1  0
  3  5  1  0
  3 11  1  0
  4 12  1  0
  4 13  1  0
  4 14  1  0
  5 15  1  0
  5 16  1  0
  5 17  1  0
M  END
>  <reaction>  (1) 
rxn_98

>  <mol_properties>  (1) 
{"2": {"label": "donator", "atom_type": "Cs"}, "10": {"label": "d_hydrogen", "atom_type": "H0"}}

>  <type>  (1) 
r1h

$$$$

     RDKit          3D

  3  2  0  0  0  0  0  0  0  0999 V2000
    0.0002    0.4233    0.0000 N   0  0  0  0  0  2  0  0  0  0  0  0
   -0.8051   -0.2112    0.0000 H   0  0  0  0  0  0  0  0  0  0  0  0
    0.8049   -0.2121    0.0000 H   0  0  0  0  0  0  0  0  0  0  0  0
  1  2  1  0
  1  3  1  0
M  RAD  1   1   2
M  END
>  <reaction>  (2) 
rxn_98

>  <mol_properties>  (2) 
{"0": {"label": "acceptor", "atom_type": "N3s"}}

>  <type>  (2) 
r2

$$$$

     RDKit          3D

  4  3  0  0  0  0  0  0  0  0999 V2000
    0.0006   -0.0009    0.2762 N   0  0  0  0  0  0  0  0  0  0  0  0
   -0.4188    0.8439   -0.0883 H   0  0  0  0  0  0  0  0  0  0  0  0
   -0.5215   -0.7840   -0.0936 H   0  0  0  0  0  0  0  0  0  0  0  0
    0.9397   -0.0590   -0.0943 H   0  0  0  0  0  0  0  0  0  0  0  0
  1  2  1  0
  1  3  1  0
  1  4  1  0
M  END
>  <reaction>  (3) 
rxn_98

>  <mol_properties>  (3) 
{"0": {"label": "acceptor", "atom_type": "N3s"}, "3": {"label": "a_hydrogen", "atom_type": "H0"}}

>  <type>  (3) 
r2h

$$$$

     RDKit          3D

 20 18  0  0  0  0  0  0  0  0999 V2000
   -1.9122    1.3903   -0.1078 N   0  0  0  0  0  2  0  0  0  0  0  0
   -1.5389    1.8093   -0.9624 H   0  0  0  0  0  0  0  0  0  0  0  0
   -2.4748    0.6057   -0.4446 H   0  0  0  0  0  0  0  0  0  0  0  0
    0.2196   -1.0330   -1.7825 C   0  0  0  0  0  0  0  0  0  0  0  0
    0.1943   -1.2375   -0.2732 C   0  0  0  0  0  0  0  0  0  0  0  0
    0.2268    0.0344    0.5574 C   0  0  0  0  0  0  0  0  0  0  0  0
    1.3795    0.9673    0.2503 C   0  0  0  0  0  0  0  0  0  0  0  0
    0.0637   -0.2308    2.0390 C   0  0  0  0  0  0  0  0  0  0  0  0
    1.1589   -0.5902   -2.1165 H   0  0  0  0  0  0  0  0  0  0  0  0
    0.1014   -1.9835   -2.3046 H   0  0  0  0  0  0  0  0  0  0  0  0
   -0.5922   -0.3740   -2.0998 H   0  0  0  0  0  0  0  0  0  0  0  0
   -0.7004   -1.8050    0.0001 H   0  0  0  0  0  0  0  0  0  0  0  0
    1.0472   -1.8630    0.0220 H   0  0  0  0  0  0  0  0  0  0  0  0
   -0.7942    0.6845    0.2709 H   0  0  0  0  0  0  0  0  0  0  0  0
    1.3949    1.2710   -0.7972 H   0  0  0  0  0  0  0  0  0  0  0  0
    1.3188    1.8701    0.8600 H   0  0  0  0  0  0  0  0  0  0  0  0
    2.3362    0.4793    0.4692 H   0  0  0  0  0  0  0  0  0  0  0  0
    0.9376   -0.7622    2.4324 H   0  0  0  0  0  0  0  0  0  0  0  0
   -0.8171   -0.8442    2.2378 H   0  0  0  0  0  0  0  0  0  0  0  0
   -0.0412    0.7018    2.5954 H   0  0  0  0  0  0  0  0  0  0  0  0
  1  2  1  0
  1  3  1  0
  4  5  1  0
  4  9  1  0
  4 10  1  0
  4 11  1  0
  5  6  1  0
  5 12  1  0
  5 13  1  0
  6  7  1  0
  6  8  1  0
  6 14  1  0
  7 15  1  0
  7 16  1  0
  7 17  1  0
  8 18  1  0
  8 19  1  0
  8 20  1  0
M  RAD  1   1   2
M  END
>  <reaction>  (4) 
rxn_98

>  <mol_properties>  (4) 
{"0": {"label": "*3", "atom_type": "N3s"}, "1": {"label": "*4", "atom_type": "H0"}, "4": {"label": "*0", "atom_type": "Cs"}, "5": {"label": "*1", "atom_type": "Cs"}, "13": {"label": "*2", "atom_type": "H0"}}

>  <type>  (4) 
ts

$$$$

     RDKit          3D

 20 18  0  0  0  0  0  0  0  0999 V2000
   -1.8428    1.3448   -0.4505 N   0  0  0  0  0  0  0  0  0  0  0  0
   -2.4194    1.5859    0.3444 H   0  0  0  0  0  0  0  0  0  0  0  0
   -1.1236    2.0523   -0.3821 H   0  0  0  0  0  0  0  0  0  0  0  0
    0.1794   -1.2883   -1.7395 C   0  0  0  0  0  0  0  0  0  0  0  0
    0.1794   -1.2883   -0.2160 C   0  0  0  0  0  0  0  0  0  0  0  0
    0.1794    0.1023    0.4244 C   0  0  0  0  0  3  0  0  0  0  0  0
    1.4222    0.9087    0.0566 C   0  0  0  0  0  0  0  0  0  0  0  0
    0.0439   -0.0094    1.9402 C   0  0  0  0  0  0  0  0  0  0  0  0
    1.1002   -0.8668   -2.1458 H   0  0  0  0  0  0  0  0  0  0  0  0
    0.0842   -2.3027   -2.1300 H   0  0  0  0  0  0  0  0  0  0  0  0
   -0.6559   -0.7015   -2.1300 H   0  0  0  0  0  0  0  0  0  0  0  0
   -0.7006   -1.8324    0.1402 H   0  0  0  0  0  0  0  0  0  0  0  0
    1.0500   -1.8438    0.1514 H   0  0  0  0  0  0  0  0  0  0  0  0
   -0.8727    0.7488   -0.0308 H   0  0  0  0  0  0  0  0  0  0  0  0
    1.4944    1.0830   -1.0177 H   0  0  0  0  0  0  0  0  0  0  0  0
    1.4141    1.8831    0.5492 H   0  0  0  0  0  0  0  0  0  0  0  0
    2.3279    0.3827    0.3736 H   0  0  0  0  0  0  0  0  0  0  0  0
    0.9010   -0.5401    2.3648 H   0  0  0  0  0  0  0  0  0  0  0  0
   -0.8587   -0.5573    2.2192 H   0  0  0  0  0  0  0  0  0  0  0  0
   -0.0016    0.9761    2.4082 H   0  0  0  0  0  0  0  0  0  0  0  0
  1  2  1  0
  1  3  1  0
  1 14  1  0
  4  5  1  0
  4  9  1  0
  4 10  1  0
  4 11  1  0
  5  6  1  0
  5 12  1  0
  5 13  1  0
  6  7  1  0
  6  8  1  0
  7 15  1  0
  7 16  1  0
  7 17  1  0
  8 18  1  0
  8 19  1  0
  8 20  1  0
M  RAD  1   6   2
M  END
>  <reaction>  (5) 
rxn_98

>  <mol_properties>  (5) 
{"0": {"label": "*3", "atom_type": "N3s"}, "1": {"label": "*4", "atom_type": "H0"}, "4": {"label": "*0", "atom_type": "Cs"}, "5": {"label": "*1", "atom_type": "Cs"}, "13": {"label": "*2", "atom_type": "H0"}}

>  <type>  (5) 
unop_1

>  <geom_source>  (5) 
Heuristics

$$$$

     RDKit          3D

 20 18  0  0  0  0  0  0  0  0999 V2000
   -1.8344    1.3599   -0.4493 N   0  0  0  0  0  0  0  0  0  0  0  0
   -2.5516    0.6744   -0.6451 H   0  0  0  0  0  0  0  0  0  0  0  0
   -1.7130    1.6782    0.5028 H   0  0  0  0  0  0  0  0  0  0  0  0
    0.1879   -1.2732   -1.7383 C   0  0  0  0  0  0  0  0  0  0  0  0
    0.1879   -1.2732   -0.2148 C   0  0  0  0  0  0  0  0  0  0  0  0
    0.1879    0.1174    0.4257 C   0  0  0  0  0  3  0  0  0  0  0  0
    1.4307    0.9237    0.0578 C   0  0  0  0  0  0  0  0  0  0  0  0
    0.0523    0.0056    1.9414 C   0  0  0  0  0  0  0  0  0  0  0  0
    1.1087   -0.8518   -2.1446 H   0  0  0  0  0  0  0  0  0  0  0  0
    0.0926   -2.2877   -2.1288 H   0  0  0  0  0  0  0  0  0  0  0  0
   -0.6475   -0.6865   -2.1288 H   0  0  0  0  0  0  0  0  0  0  0  0
   -0.6922   -1.8173    0.1414 H   0  0  0  0  0  0  0  0  0  0  0  0
    1.0584   -1.8288    0.1526 H   0  0  0  0  0  0  0  0  0  0  0  0
   -0.8643    0.7638   -0.0296 H   0  0  0  0  0  0  0  0  0  0  0  0
    1.5029    1.0980   -1.0165 H   0  0  0  0  0  0  0  0  0  0  0  0
    1.4226    1.8981    0.5504 H   0  0  0  0  0  0  0  0  0  0  0  0
    2.3363    0.3978    0.3748 H   0  0  0  0  0  0  0  0  0  0  0  0
    0.9095   -0.5251    2.3660 H   0  0  0  0  0  0  0  0  0  0  0  0
   -0.8502   -0.5423    2.2204 H   0  0  0  0  0  0  0  0  0  0  0  0
    0.0068    0.9911    2.4094 H   0  0  0  0  0  0  0  0  0  0  0  0
  1  2  1  0
  1  3  1  0
  1 14  1  0
  4  5  1  0
  4  9  1  0
  4 10  1  0
  4 11  1  0
  5  6  1  0
  5 12  1  0
  5 13  1  0
  6  7  1  0
  6  8  1  0
  7 15  1  0
  7 16  1  0
  7 17  1  0
  8 18  1  0
  8 19  1  0
  8 20  1  0
M  RAD  1   6   2
M  END
>  <reaction>  (6) 
rxn_98

>  <mol_properties>  (6) 
{"0": {"label": "*3", "atom_type": "N3s"}, "1": {"label": "*4", "atom_type": "H0"}, "4": {"label": "*0", "atom_type": "Cs"}, "5": {"label": "*1", "atom_type": "Cs"}, "13": {"label": "*2", "atom_type": "H0"}}

>  <type>  (6) 
unop_2

>  <geom_source>  (6) 
Heuristics

$$$$

     RDKit          3D

 20 18  0  0  0  0  0  0  0  0999 V2000
   -1.8447    1.3404   -0.4439 N   0  0  0  0  0  0  0  0  0  0  0  0
   -2.1397    1.9867    0.2757 H   0  0  0  0  0  0  0  0  0  0  0  0
   -1.2466    2.0316   -0.8765 H   0  0  0  0  0  0  0  0  0  0  0  0
    0.1776   -1.2927   -1.7330 C   0  0  0  0  0  0  0  0  0  0  0  0
    0.1776   -1.2927   -0.2094 C   0  0  0  0  0  0  0  0  0  0  0  0
    0.1776    0.0979    0.4310 C   0  0  0  0  0  3  0  0  0  0  0  0
    1.4204    0.9042    0.0632 C   0  0  0  0  0  0  0  0  0  0  0  0
    0.0420   -0.0139    1.9468 C   0  0  0  0  0  0  0  0  0  0  0  0
    1.0984   -0.8713   -2.1392 H   0  0  0  0  0  0  0  0  0  0  0  0
    0.0823   -2.3072   -2.1234 H   0  0  0  0  0  0  0  0  0  0  0  0
   -0.6578   -0.7060   -2.1234 H   0  0  0  0  0  0  0  0  0  0  0  0
   -0.7025   -1.8368    0.1468 H   0  0  0  0  0  0  0  0  0  0  0  0
    1.0482   -1.8483    0.1579 H   0  0  0  0  0  0  0  0  0  0  0  0
   -0.8746    0.7444   -0.0242 H   0  0  0  0  0  0  0  0  0  0  0  0
    1.4926    1.0785   -1.0111 H   0  0  0  0  0  0  0  0  0  0  0  0
    1.4123    1.8786    0.5558 H   0  0  0  0  0  0  0  0  0  0  0  0
    2.3260    0.3783    0.3801 H   0  0  0  0  0  0  0  0  0  0  0  0
    0.8992   -0.5446    2.3714 H   0  0  0  0  0  0  0  0  0  0  0  0
   -0.8605   -0.5618    2.2258 H   0  0  0  0  0  0  0  0  0  0  0  0
   -0.0034    0.9716    2.4148 H   0  0  0  0  0  0  0  0  0  0  0  0
  1  2  1  0
  1  3  1  0
  1 14  1  0
  4  5  1  0
  4  9  1  0
  4 10  1  0
  4 11  1  0
  5  6  1  0
  5 12  1  0
  5 13  1  0
  6  7  1  0
  6  8  1  0
  7 15  1  0
  7 16  1  0
  7 17  1  0
  8 18  1  0
  8 19  1  0
  8 20  1  0
M  RAD  1   6   2
M  END
>  <reaction>  (7) 
rxn_98

>  <mol_properties>  (7) 
{"0": {"label": "*3", "atom_type": "N3s"}, "1": {"label": "*4", "atom_type": "H0"}, "4": {"label": "*0", "atom_type": "Cs"}, "5": {"label": "*1", "atom_type": "Cs"}, "13": {"label": "*2", "atom_type": "H0"}}

>  <type>  (7) 
unop_3

>  <geom_source>  (7) 
Heuristics

$$$$

     RDKit          3D

 20 18  0  0  0  0  0  0  0  0999 V2000
   -1.8315    1.3570   -0.4331 N   0  0  0  0  0  0  0  0  0  0  0  0
   -1.7416    1.4149   -1.4386 H   0  0  0  0  0  0  0  0  0  0  0  0
   -2.7668    1.1872   -0.0882 H   0  0  0  0  0  0  0  0  0  0  0  0
    0.1907   -1.2762   -1.7221 C   0  0  0  0  0  0  0  0  0  0  0  0
    0.1907   -1.2762   -0.1986 C   0  0  0  0  0  0  0  0  0  0  0  0
    0.1907    0.1145    0.4419 C   0  0  0  0  0  3  0  0  0  0  0  0
    1.4335    0.9208    0.0740 C   0  0  0  0  0  0  0  0  0  0  0  0
    0.0552    0.0027    1.9577 C   0  0  0  0  0  0  0  0  0  0  0  0
    1.1115   -0.8547   -2.1284 H   0  0  0  0  0  0  0  0  0  0  0  0
    0.0955   -2.2906   -2.1126 H   0  0  0  0  0  0  0  0  0  0  0  0
   -0.6446   -0.6894   -2.1126 H   0  0  0  0  0  0  0  0  0  0  0  0
   -0.6893   -1.8202    0.1576 H   0  0  0  0  0  0  0  0  0  0  0  0
    1.0613   -1.8317    0.1688 H   0  0  0  0  0  0  0  0  0  0  0  0
   -0.8614    0.7609   -0.0134 H   0  0  0  0  0  0  0  0  0  0  0  0
    1.5057    1.0951   -1.0003 H   0  0  0  0  0  0  0  0  0  0  0  0
    1.4254    1.8952    0.5667 H   0  0  0  0  0  0  0  0  0  0  0  0
    2.3392    0.3948    0.3910 H   0  0  0  0  0  0  0  0  0  0  0  0
    0.9123   -0.5280    2.3822 H   0  0  0  0  0  0  0  0  0  0  0  0
   -0.8474   -0.5452    2.2366 H   0  0  0  0  0  0  0  0  0  0  0  0
    0.0097    0.9882    2.4257 H   0  0  0  0  0  0  0  0  0  0  0  0
  1  2  1  0
  1  3  1  0
  1 14  1  0
  4  5  1  0
  4  9  1  0
  4 10  1  0
  4 11  1  0
  5  6  1  0
  5 12  1  0
  5 13  1  0
  6  7  1  0
  6  8  1  0
  7 15  1  0
  7 16  1  0
  7 17  1  0
  8 18  1  0
  8 19  1  0
  8 20  1  0
M  RAD  1   6   2
M  END
>  <reaction>  (8) 
rxn_98

>  <mol_properties>  (8) 
{"0": {"label": "*3", "atom_type": "N3s"}, "1": {"label": "*4", "atom_type": "H0"}, "4": {"label": "*0", "atom_type": "Cs"}, "5": {"label": "*1", "atom_type": "Cs"}, "13": {"label": "*2", "atom_type": "H0"}}

>  <type>  (8) 
unop_4

>  <geom_source>  (8) 
Heuristics

$$$$

     RDKit          3D

 20 18  0  0  0  0  0  0  0  0999 V2000
   -1.8417    1.3400   -0.4351 N   0  0  0  0  0  0  0  0  0  0  0  0
   -1.8413    2.2584   -0.0119 H   0  0  0  0  0  0  0  0  0  0  0  0
   -1.7984    1.7892   -1.3401 H   0  0  0  0  0  0  0  0  0  0  0  0
    0.1806   -1.2931   -1.7242 C   0  0  0  0  0  0  0  0  0  0  0  0
    0.1806   -1.2931   -0.2006 C   0  0  0  0  0  0  0  0  0  0  0  0
    0.1806    0.0975    0.4398 C   0  0  0  0  0  3  0  0  0  0  0  0
    1.4234    0.9039    0.0720 C   0  0  0  0  0  0  0  0  0  0  0  0
    0.0450   -0.0142    1.9556 C   0  0  0  0  0  0  0  0  0  0  0  0
    1.1014   -0.8716   -2.1304 H   0  0  0  0  0  0  0  0  0  0  0  0
    0.0853   -2.3075   -2.1146 H   0  0  0  0  0  0  0  0  0  0  0  0
   -0.6548   -0.7063   -2.1146 H   0  0  0  0  0  0  0  0  0  0  0  0
   -0.6995   -1.8371    0.1556 H   0  0  0  0  0  0  0  0  0  0  0  0
    1.0511   -1.8486    0.1667 H   0  0  0  0  0  0  0  0  0  0  0  0
   -0.8716    0.7440   -0.0154 H   0  0  0  0  0  0  0  0  0  0  0  0
    1.4956    1.0782   -1.0023 H   0  0  0  0  0  0  0  0  0  0  0  0
    1.4153    1.8783    0.5646 H   0  0  0  0  0  0  0  0  0  0  0  0
    2.3290    0.3779    0.3889 H   0  0  0  0  0  0  0  0  0  0  0  0
    0.9021   -0.5449    2.3802 H   0  0  0  0  0  0  0  0  0  0  0  0
   -0.8575   -0.5621    2.2346 H   0  0  0  0  0  0  0  0  0  0  0  0
   -0.0005    0.9713    2.4236 H   0  0  0  0  0  0  0  0  0  0  0  0
  1  2  1  0
  1  3  1  0
  1 14  1  0
  4  5  1  0
  4  9  1  0
  4 10  1  0
  4 11  1  0
  5  6  1  0
  5 12  1  0
  5 13  1  0
  6  7  1  0
  6  8  1  0
  7 15  1  0
  7 16  1  0
  7 17  1  0
  8 18  1  0
  8 19  1  0
  8 20  1  0
M  RAD  1   6   2
M  END
>  <reaction>  (9) 
rxn_98

>  <mol_properties>  (9) 
{"0": {"label": "*3", "atom_type": "N3s"}, "1": {"label": "*4", "atom_type": "H0"}, "4": {"label": "*0", "atom_type": "Cs"}, "5": {"label": "*1", "atom_type": "Cs"}, "13": {"label": "*2", "atom_type": "H0"}}

>  <type>  (9) 
unop_5

>  <geom_source>  (9) 
Heuristics

$$$$

     RDKit          3D

 20 18  0  0  0  0  0  0  0  0999 V2000
   -1.8330    1.3520   -0.4307 N   0  0  0  0  0  0  0  0  0  0  0  0
   -1.5508    1.8397   -1.2704 H   0  0  0  0  0  0  0  0  0  0  0  0
   -2.8299    1.1851   -0.4613 H   0  0  0  0  0  0  0  0  0  0  0  0
    0.1892   -1.2811   -1.7197 C   0  0  0  0  0  0  0  0  0  0  0  0
    0.1892   -1.2811   -0.1962 C   0  0  0  0  0  0  0  0  0  0  0  0
    0.1892    0.1095    0.4443 C   0  0  0  0  0  3  0  0  0  0  0  0
    1.4320    0.9158    0.0764 C   0  0  0  0  0  0  0  0  0  0  0  0
    0.0537   -0.0022    1.9600 C   0  0  0  0  0  0  0  0  0  0  0  0
    1.1100   -0.8597   -2.1260 H   0  0  0  0  0  0  0  0  0  0  0  0
    0.0940   -2.2955   -2.1102 H   0  0  0  0  0  0  0  0  0  0  0  0
   -0.6461   -0.6943   -2.1102 H   0  0  0  0  0  0  0  0  0  0  0  0
   -0.6908   -1.8252    0.1600 H   0  0  0  0  0  0  0  0  0  0  0  0
    1.0598   -1.8366    0.1712 H   0  0  0  0  0  0  0  0  0  0  0  0
   -0.8629    0.7560   -0.0110 H   0  0  0  0  0  0  0  0  0  0  0  0
    1.5043    1.0901   -0.9979 H   0  0  0  0  0  0  0  0  0  0  0  0
    1.4239    1.8902    0.5691 H   0  0  0  0  0  0  0  0  0  0  0  0
    2.3377    0.3899    0.3934 H   0  0  0  0  0  0  0  0  0  0  0  0
    0.9108   -0.5329    2.3846 H   0  0  0  0  0  0  0  0  0  0  0  0
   -0.8489   -0.5501    2.2390 H   0  0  0  0  0  0  0  0  0  0  0  0
    0.0082    0.9832    2.4281 H   0  0  0  0  0  0  0  0  0  0  0  0
  1  2  1  0
  1  3  1  0
  1 14  1  0
  4  5  1  0
  4  9  1  0
  4 10  1  0
  4 11  1  0
  5  6  1  0
  5 12  1  0
  5 13  1  0
  6  7  1  0
  6  8  1  0
  7 15  1  0
  7 16  1  0
  7 17  1  0
  8 18  1  0
  8 19  1  0
  8 20  1  0
M  RAD  1   6   2
M  END
>  <reaction>  (10) 
rxn_98

>  <mol_properties>  (10) 
{"0": {"label": "*3", "atom_type": "N3s"}, "1": {"label": "*4", "atom_type": "H0"}, "4": {"label": "*0", "atom_type": "Cs"}, "5": {"label": "*1", "atom_type": "Cs"}, "13": {"label": "*2", "atom_type": "H0"}}

>  <type>  (10) 
unop_6

>  <geom_source>  (10) 
Heuristics

$$$$

     RDKit          3D

 20 18  0  0  0  0  0  0  0  0999 V2000
   -1.8345    1.3473   -0.4305 N   0  0  0  0  0  0  0  0  0  0  0  0
   -1.5008    2.1741   -0.9076 H   0  0  0  0  0  0  0  0  0  0  0  0
   -2.7553    1.2543   -0.8379 H   0  0  0  0  0  0  0  0  0  0  0  0
    0.1878   -1.2858   -1.7196 C   0  0  0  0  0  0  0  0  0  0  0  0
    0.1878   -1.2858   -0.1960 C   0  0  0  0  0  0  0  0  0  0  0  0
    0.1878    0.1048    0.4444 C   0  0  0  0  0  3  0  0  0  0  0  0
    1.4306    0.9111    0.0766 C   0  0  0  0  0  0  0  0  0  0  0  0
    0.0522   -0.0070    1.9602 C   0  0  0  0  0  0  0  0  0  0  0  0
    1.1086   -0.8644   -2.1258 H   0  0  0  0  0  0  0  0  0  0  0  0
    0.0925   -2.3003   -2.1100 H   0  0  0  0  0  0  0  0  0  0  0  0
   -0.6476   -0.6991   -2.1100 H   0  0  0  0  0  0  0  0  0  0  0  0
   -0.6923   -1.8299    0.1602 H   0  0  0  0  0  0  0  0  0  0  0  0
    1.0583   -1.8414    0.1713 H   0  0  0  0  0  0  0  0  0  0  0  0
   -0.8644    0.7513   -0.0108 H   0  0  0  0  0  0  0  0  0  0  0  0
    1.5028    1.0854   -0.9977 H   0  0  0  0  0  0  0  0  0  0  0  0
    1.4225    1.8855    0.5692 H   0  0  0  0  0  0  0  0  0  0  0  0
    2.3362    0.3852    0.3935 H   0  0  0  0  0  0  0  0  0  0  0  0
    0.9094   -0.5377    2.3848 H   0  0  0  0  0  0  0  0  0  0  0  0
   -0.8503   -0.5548    2.2392 H   0  0  0  0  0  0  0  0  0  0  0  0
    0.0067    0.9785    2.4282 H   0  0  0  0  0  0  0  0  0  0  0  0
  1  2  1  0
  1  3  1  0
  1 14  1  0
  4  5  1  0
  4  9  1  0
  4 10  1  0
  4 11  1  0
  5  6  1  0
  5 12  1  0
  5 13  1  0
  6  7  1  0
  6  8  1  0
  7 15  1  0
  7 16  1  0
  7 17  1  0
  8 18  1  0
  8 19  1  0
  8 20  1  0
M  RAD  1   6   2
M  END
>  <reaction>  (11) 
rxn_98

>  <mol_properties>  (11) 
{"0": {"label": "*3", "atom_type": "N3s"}, "1": {"label": "*4", "atom_type": "H0"}, "4": {"label": "*0", "atom_type": "Cs"}, "5": {"label": "*1", "atom_type": "Cs"}, "13": {"label": "*2", "atom_type": "H0"}}

>  <type>  (11) 
unop_7

>  <geom_source>  (11) 
Heuristics

$$$$

     RDKit          3D

 20 18  0  0  0  0  0  0  0  0999 V2000
   -1.8398    1.3506   -0.4530 N   0  0  0  0  0  0  0  0  0  0  0  0
   -2.6087    1.1619    0.1761 H   0  0  0  0  0  0  0  0  0  0  0  0
   -1.1924    1.9863   -0.0066 H   0  0  0  0  0  0  0  0  0  0  0  0
    0.1824   -1.2825   -1.7420 C   0  0  0  0  0  0  0  0  0  0  0  0
    0.1824   -1.2825   -0.2184 C   0  0  0  0  0  0  0  0  0  0  0  0
    0.1824    0.1081    0.4220 C   0  0  0  0  0  3  0  0  0  0  0  0
    1.4253    0.9144    0.0542 C   0  0  0  0  0  0  0  0  0  0  0  0
    0.0469   -0.0037    1.9378 C   0  0  0  0  0  0  0  0  0  0  0  0
    1.1032   -0.8611   -2.1482 H   0  0  0  0  0  0  0  0  0  0  0  0
    0.0872   -2.2970   -2.1324 H   0  0  0  0  0  0  0  0  0  0  0  0
   -0.6529   -0.6958   -2.1324 H   0  0  0  0  0  0  0  0  0  0  0  0
   -0.6976   -1.8266    0.1378 H   0  0  0  0  0  0  0  0  0  0  0  0
    1.0530   -1.8381    0.1489 H   0  0  0  0  0  0  0  0  0  0  0  0
   -0.8697    0.7545   -0.0332 H   0  0  0  0  0  0  0  0  0  0  0  0
    1.4975    1.0887   -1.0201 H   0  0  0  0  0  0  0  0  0  0  0  0
    1.4171    1.8888    0.5468 H   0  0  0  0  0  0  0  0  0  0  0  0
    2.3309    0.3884    0.3711 H   0  0  0  0  0  0  0  0  0  0  0  0
    0.9040   -0.5344    2.3623 H   0  0  0  0  0  0  0  0  0  0  0  0
   -0.8557   -0.5516    2.2168 H   0  0  0  0  0  0  0  0  0  0  0  0
    0.0014    0.9818    2.4058 H   0  0  0  0  0  0  0  0  0  0  0  0
  1  2  1  0
  1  3  1  0
  1 14  1  0
  4  5  1  0
  4  9  1  0
  4 10  1  0
  4 11  1  0
  5  6  1  0
  5 12  1  0
  5 13  1  0
  6  7  1  0
  6  8  1  0
  7 15  1  0
  7 16  1  0
  7 17  1  0
  8 18  1  0
  8 19  1  0
  8 20  1  0
M  RAD  1   6   2
M  END
>  <reaction>  (12) 
rxn_98

>  <mol_properties>  (12) 
{"0": {"label": "*3", "atom_type": "N3s"}, "1": {"label": "*4", "atom_type": "H0"}, "4": {"label": "*0", "atom_type": "Cs"}, "5": {"label": "*1", "atom_type": "Cs"}, "13": {"label": "*2", "atom_type": "H0"}}

>  <type>  (12) 
unop_8

>  <geom_source>  (12) 
Heuristics

$$$$

     RDKit          3D

 20 18  0  0  0  0  0  0  0  0999 V2000
   -1.8308    1.3607   -0.4381 N   0  0  0  0  0  0  0  0  0  0  0  0
   -2.0225    1.0134   -1.3683 H   0  0  0  0  0  0  0  0  0  0  0  0
   -2.5458    1.2708    0.2713 H   0  0  0  0  0  0  0  0  0  0  0  0
    0.1914   -1.2724   -1.7271 C   0  0  0  0  0  0  0  0  0  0  0  0
    0.1914   -1.2724   -0.2036 C   0  0  0  0  0  0  0  0  0  0  0  0
    0.1914    0.1182    0.4368 C   0  0  0  0  0  3  0  0  0  0  0  0
    1.4342    0.9245    0.0690 C   0  0  0  0  0  0  0  0  0  0  0  0
    0.0559    0.0064    1.9526 C   0  0  0  0  0  0  0  0  0  0  0  0
    1.1122   -0.8510   -2.1334 H   0  0  0  0  0  0  0  0  0  0  0  0
    0.0962   -2.2869   -2.1176 H   0  0  0  0  0  0  0  0  0  0  0  0
   -0.6439   -0.6857   -2.1176 H   0  0  0  0  0  0  0  0  0  0  0  0
   -0.6886   -1.8165    0.1526 H   0  0  0  0  0  0  0  0  0  0  0  0
    1.0620   -1.8280    0.1638 H   0  0  0  0  0  0  0  0  0  0  0  0
   -0.8607    0.7646   -0.0184 H   0  0  0  0  0  0  0  0  0  0  0  0
    1.5064    1.0988   -1.0053 H   0  0  0  0  0  0  0  0  0  0  0  0
    1.4261    1.8989    0.5616 H   0  0  0  0  0  0  0  0  0  0  0  0
    2.3399    0.3986    0.3860 H   0  0  0  0  0  0  0  0  0  0  0  0
    0.9130   -0.5243    2.3772 H   0  0  0  0  0  0  0  0  0  0  0  0
   -0.8467   -0.5415    2.2316 H   0  0  0  0  0  0  0  0  0  0  0  0
    0.0104    0.9919    2.4206 H   0  0  0  0  0  0  0  0  0  0  0  0
  1  2  1  0
  1  3  1  0
  1 14  1  0
  4  5  1  0
  4  9  1  0
  4 10  1  0
  4 11  1  0
  5  6  1  0
  5 12  1  0
  5 13  1  0
  6  7  1  0
  6  8  1  0
  7 15  1  0
  7 16  1  0
  7 17  1  0
  8 18  1  0
  8 19  1  0
  8 20  1  0
M  RAD  1   6   2
M  END
>  <reaction>  (13) 
rxn_98

>  <mol_properties>  (13) 
{"0": {"label": "*3", "atom_type": "N3s"}, "1": {"label": "*4", "atom_type": "H0"}, "4": {"label": "*0", "atom_type": "Cs"}, "5": {"label": "*1", "atom_type": "Cs"}, "13": {"label": "*2", "atom_type": "H0"}}

>  <type>  (13) 
unop_9

>  <geom_source>  (13) 
Heuristics

$$$$

     RDKit          3D

 20 18  0  0  0  0  0  0  0  0999 V2000
   -1.8370    1.3559   -0.4523 N   0  0  0  0  0  0  0  0  0  0  0  0
   -2.6573    0.8281   -0.1858 H   0  0  0  0  0  0  0  0  0  0  0  0
   -1.3837    1.8639    0.2955 H   0  0  0  0  0  0  0  0  0  0  0  0
    0.1853   -1.2772   -1.7413 C   0  0  0  0  0  0  0  0  0  0  0  0
    0.1853   -1.2772   -0.2177 C   0  0  0  0  0  0  0  0  0  0  0  0
    0.1853    0.1134    0.4227 C   0  0  0  0  0  3  0  0  0  0  0  0
    1.4281    0.9197    0.0549 C   0  0  0  0  0  0  0  0  0  0  0  0
    0.0497    0.0017    1.9385 C   0  0  0  0  0  0  0  0  0  0  0  0
    1.1061   -0.8558   -2.1475 H   0  0  0  0  0  0  0  0  0  0  0  0
    0.0900   -2.2916   -2.1317 H   0  0  0  0  0  0  0  0  0  0  0  0
   -0.6501   -0.6904   -2.1317 H   0  0  0  0  0  0  0  0  0  0  0  0
   -0.6948   -1.8213    0.1385 H   0  0  0  0  0  0  0  0  0  0  0  0
    1.0558   -1.8327    0.1496 H   0  0  0  0  0  0  0  0  0  0  0  0
   -0.8669    0.7599   -0.0325 H   0  0  0  0  0  0  0  0  0  0  0  0
    1.5003    1.0940   -1.0194 H   0  0  0  0  0  0  0  0  0  0  0  0
    1.4200    1.8941    0.5475 H   0  0  0  0  0  0  0  0  0  0  0  0
    2.3337    0.3938    0.3718 H   0  0  0  0  0  0  0  0  0  0  0  0
    0.9068   -0.5290    2.3630 H   0  0  0  0  0  0  0  0  0  0  0  0
   -0.8528   -0.5462    2.2175 H   0  0  0  0  0  0  0  0  0  0  0  0
    0.0042    0.9871    2.4065 H   0  0  0  0  0  0  0  0  0  0  0  0
  1  2  1  0
  1  3  1  0
  1 14  1  0
  4  5  1  0
  4  9  1  0
  4 10  1  0
  4 11  1  0
  5  6  1  0
  5 12  1  0
  5 13  1  0
  6  7  1  0
  6  8  1  0
  7 15  1  0
  7 16  1  0
  7 17  1  0
  8 18  1  0
  8 19  1  0
  8 20  1  0
M  RAD  1   6   2
M  END
>  <reaction>  (14) 
rxn_98

>  <mol_properties>  (14) 
{"0": {"label": "*3", "atom_type": "N3s"}, "1": {"label": "*4", "atom_type": "H0"}, "4": {"label": "*0", "atom_type": "Cs"}, "5": {"label": "*1", "atom_type": "Cs"}, "13": {"label": "*2", "atom_type": "H0"}}

>  <type>  (14) 
unop_10

>  <geom_source>  (14) 
Heuristics

$$$$

     RDKit          3D

 20 18  0  0  0  0  0  0  0  0999 V2000
   -1.8367    1.3434   -0.4315 N   0  0  0  0  0  0  0  0  0  0  0  0
   -1.6062    2.3278   -0.4462 H   0  0  0  0  0  0  0  0  0  0  0  0
   -2.4636    1.4367   -1.2194 H   0  0  0  0  0  0  0  0  0  0  0  0
    0.1856   -1.2898   -1.7205 C   0  0  0  0  0  0  0  0  0  0  0  0
    0.1856   -1.2898   -0.1969 C   0  0  0  0  0  0  0  0  0  0  0  0
    0.1856    0.1009    0.4435 C   0  0  0  0  0  3  0  0  0  0  0  0
    1.4284    0.9072    0.0757 C   0  0  0  0  0  0  0  0  0  0  0  0
    0.0500   -0.0109    1.9593 C   0  0  0  0  0  0  0  0  0  0  0  0
    1.1064   -0.8683   -2.1267 H   0  0  0  0  0  0  0  0  0  0  0  0
    0.0903   -2.3042   -2.1109 H   0  0  0  0  0  0  0  0  0  0  0  0
   -0.6498   -0.7030   -2.1109 H   0  0  0  0  0  0  0  0  0  0  0  0
   -0.6945   -1.8338    0.1593 H   0  0  0  0  0  0  0  0  0  0  0  0
    1.0562   -1.8453    0.1704 H   0  0  0  0  0  0  0  0  0  0  0  0
   -0.8666    0.7473   -0.0117 H   0  0  0  0  0  0  0  0  0  0  0  0
    1.5006    1.0815   -0.9986 H   0  0  0  0  0  0  0  0  0  0  0  0
    1.4203    1.8816    0.5683 H   0  0  0  0  0  0  0  0  0  0  0  0
    2.3340    0.3812    0.3926 H   0  0  0  0  0  0  0  0  0  0  0  0
    0.9072   -0.5416    2.3838 H   0  0  0  0  0  0  0  0  0  0  0  0
   -0.8525   -0.5588    2.2383 H   0  0  0  0  0  0  0  0  0  0  0  0
    0.0046    0.9746    2.4273 H   0  0  0  0  0  0  0  0  0  0  0  0
  1  2  1  0
  1  3  1  0
  1 14  1  0
  4  5  1  0
  4  9  1  0
  4 10  1  0
  4 11  1  0
  5  6  1  0
  5 12  1  0
  5 13  1  0
  6  7  1  0
  6  8  1  0
  7 15  1  0
  7 16  1  0
  7 17  1  0
  8 18  1  0
  8 19  1  0
  8 20  1  0
M  RAD  1   6   2
M  END
>  <reaction>  (15) 
rxn_98

>  <mol_properties>  (15) 
{"0": {"label": "*3", "atom_type": "N3s"}, "1": {"label": "*4", "atom_type": "H0"}, "4": {"label": "*0", "atom_type": "Cs"}, "5": {"label": "*1", "atom_type": "Cs"}, "13": {"label": "*2", "atom_type": "H0"}}

>  <type>  (15) 
unop_11

>  <geom_source>  (15) 
Heuristics

$$$$

     RDKit          3D

 20 18  0  0  0  0  0  0  0  0999 V2000
   -1.8319    1.3617   -0.4443 N   0  0  0  0  0  0  0  0  0  0  0  0
   -2.3190    0.7424   -1.0781 H   0  0  0  0  0  0  0  0  0  0  0  0
   -2.1530    1.4521    0.5103 H   0  0  0  0  0  0  0  0  0  0  0  0
    0.1903   -1.2714   -1.7333 C   0  0  0  0  0  0  0  0  0  0  0  0
    0.1903   -1.2714   -0.2098 C   0  0  0  0  0  0  0  0  0  0  0  0
    0.1903    0.1192    0.4306 C   0  0  0  0  0  3  0  0  0  0  0  0
    1.4331    0.9256    0.0628 C   0  0  0  0  0  0  0  0  0  0  0  0
    0.0547    0.0075    1.9464 C   0  0  0  0  0  0  0  0  0  0  0  0
    1.1111   -0.8499   -2.1396 H   0  0  0  0  0  0  0  0  0  0  0  0
    0.0950   -2.2858   -2.1238 H   0  0  0  0  0  0  0  0  0  0  0  0
   -0.6451   -0.6846   -2.1238 H   0  0  0  0  0  0  0  0  0  0  0  0
   -0.6898   -1.8155    0.1464 H   0  0  0  0  0  0  0  0  0  0  0  0
    1.0609   -1.8269    0.1576 H   0  0  0  0  0  0  0  0  0  0  0  0
   -0.8619    0.7657   -0.0246 H   0  0  0  0  0  0  0  0  0  0  0  0
    1.5053    1.0999   -1.0115 H   0  0  0  0  0  0  0  0  0  0  0  0
    1.4250    1.9000    0.5554 H   0  0  0  0  0  0  0  0  0  0  0  0
    2.3387    0.3996    0.3798 H   0  0  0  0  0  0  0  0  0  0  0  0
    0.9119   -0.5232    2.3710 H   0  0  0  0  0  0  0  0  0  0  0  0
   -0.8478   -0.5404    2.2254 H   0  0  0  0  0  0  0  0  0  0  0  0
    0.0093    0.9930    2.4144 H   0  0  0  0  0  0  0  0  0  0  0  0
  1  2  1  0
  1  3  1  0
  1 14  1  0
  4  5  1  0
  4  9  1  0
  4 10  1  0
  4 11  1  0
  5  6  1  0
  5 12  1  0
  5 13  1  0
  6  7  1  0
  6  8  1  0
  7 15  1  0
  7 16  1  0
  7 17  1  0
  8 18  1  0
  8 19  1  0
  8 20  1  0
M  RAD  1   6   2
M  END
>  <reaction>  (16) 
rxn_98

>  <mol_properties>  (16) 
{"0": {"label": "*3", "atom_type": "N3s"}, "1": {"label": "*4", "atom_type": "H0"}, "4": {"label": "*0", "atom_type": "Cs"}, "5": {"label": "*1", "atom_type": "Cs"}, "13": {"label": "*2", "atom_type": "H0"}}

>  <type>  (16) 
unop_12

>  <geom_source>  (16) 
Heuristics

$$$$
