
     RDKit          3D

 10  9  0  0  0  0  0  0  0  0999 V2000
   -1.1508    0.0666    0.2839 C   0  0  0  0  0  0  0  0  0  0  0  0
    0.1022   -0.3749   -0.4771 C   0  0  0  0  0  0  0  0  0  0  0  0
    1.3428    0.1620    0.1542 C   0  0  0  0  0  0  0  0  0  0  0  0
    2.5613   -0.6971    0.7526 S   0  0  0  0  0  0  0  0  0  0  0  0
   -1.2137    1.1546    0.3481 H   0  0  0  0  0  0  0  0  0  0  0  0
   -2.0472   -0.2935   -0.2212 H   0  0  0  0  0  0  0  0  0  0  0  0
   -1.1467   -0.3334    1.2987 H   0  0  0  0  0  0  0  0  0  0  0  0
    0.1602   -1.4616   -0.5369 H   0  0  0  0  0  0  0  0  0  0  0  0
    0.0536    0.0174   -1.4997 H   0  0  0  0  0  0  0  0  0  0  0  0
    1.3824    1.2528    0.2110 H   0  0  0  0  0  0  0  0  0  0  0  0
  1  2  1  0
  1  5  1  0
  1  6  1  0
  1  7  1  0
  2  3  1  0
  2  8  1  0
  2  9  1  0
  3  4  2  0
  3 10  1  0
M  END
>  <reaction>  (1) 
rxn_2020

>  <mol_properties>  (1) 
{"1": {"label": "donator", "atom_type": "Cs"}, "7": {"label": "d_hydrogen", "atom_type": "H0"}}

>  <type>  (1) 
r1h

$$$$

     RDKit          3D

 11 10  0  0  0  0  0  0  0  0999 V2000
    1.0781   -1.0166   -0.1159 C   0  0  0  0  0  0  0  0  0  0  0  0
    0.2180    0.1942   -0.2297 C   0  0  0  0  0  3  0  0  0  0  0  0
    0.9343    1.7769   -0.3011 S   0  0  0  0  0  0  0  0  0  0  0  0
   -1.1949    0.1490    0.2439 C   0  0  0  0  0  0  0  0  0  0  0  0
    1.4718   -1.1461    0.9024 H   0  0  0  0  0  0  0  0  0  0  0  0
    1.9367   -0.9751   -0.7902 H   0  0  0  0  0  0  0  0  0  0  0  0
    0.5033   -1.9136   -0.3576 H   0  0  0  0  0  0  0  0  0  0  0  0
    2.1166    1.4195   -0.8209 H   0  0  0  0  0  0  0  0  0  0  0  0
   -1.2620    0.0939    1.3399 H   0  0  0  0  0  0  0  0  0  0  0  0
   -1.7600    1.0270   -0.0739 H   0  0  0  0  0  0  0  0  0  0  0  0
   -1.6972   -0.7380   -0.1506 H   0  0  0  0  0  0  0  0  0  0  0  0
  1  2  1  0
  1  5  1  0
  1  6  1  0
  1  7  1  0
  2  4  1  0
  2  3  1  0
  3  8  1  0
  4  9  1  0
  4 10  1  0
  4 11  1  0
M  RAD  1   2   2
M  END
>  <reaction>  (2) 
rxn_2020

>  <mol_properties>  (2) 
{"1": {"label": "acceptor", "atom_type": "Cs"}}

>  <type>  (2) 
r2

$$$$

     RDKit          3D

 12 11  0  0  0  0  0  0  0  0999 V2000
    1.2394   -0.3763   -0.3020 C   0  0  0  0  0  0  0  0  0  0  0  0
    0.1007    0.3023    0.4464 C   0  0  0  0  0  0  0  0  0  0  0  0
   -0.1187    2.0399   -0.0725 S   0  0  0  0  0  0  0  0  0  0  0  0
   -1.1974   -0.4877    0.3552 C   0  0  0  0  0  0  0  0  0  0  0  0
    2.1681    0.1849   -0.2048 H   0  0  0  0  0  0  0  0  0  0  0  0
    1.0031   -0.4606   -1.3656 H   0  0  0  0  0  0  0  0  0  0  0  0
    1.3994   -1.3856    0.0860 H   0  0  0  0  0  0  0  0  0  0  0  0
    0.3796    0.4050    1.4981 H   0  0  0  0  0  0  0  0  0  0  0  0
   -0.4500    1.7779   -1.3452 H   0  0  0  0  0  0  0  0  0  0  0  0
   -1.0545   -1.4978    0.7479 H   0  0  0  0  0  0  0  0  0  0  0  0
   -1.5206   -0.5759   -0.6849 H   0  0  0  0  0  0  0  0  0  0  0  0
   -1.9957   -0.0054    0.9183 H   0  0  0  0  0  0  0  0  0  0  0  0
  1  2  1  0
  1  5  1  0
  1  6  1  0
  1  7  1  0
  2  4  1  0
  2  3  1  0
  2  8  1  0
  3  9  1  0
  4 10  1  0
  4 11  1  0
  4 12  1  0
M  END
>  <reaction>  (3) 
rxn_2020

>  <mol_properties>  (3) 
{"1": {"label": "acceptor", "atom_type": "Cs"}, "11": {"label": "a_hydrogen", "atom_type": "H0"}}

>  <type>  (3) 
r2h

$$$$

     RDKit          3D

 21 19  0  0  0  0  0  0  0  0999 V2000
   -1.9882   -0.4883   -0.0816 C   0  0  0  0  0  0  0  0  0  0  0  0
   -0.7643   -1.2488    0.3466 C   0  0  0  0  0  3  0  0  0  0  0  0
   -0.2051   -0.9971    2.0023 S   0  0  0  0  0  0  0  0  0  0  0  0
   -0.6767   -2.6882   -0.0817 C   0  0  0  0  0  0  0  0  0  0  0  0
   -1.8604    0.5858    0.0645 H   0  0  0  0  0  0  0  0  0  0  0  0
   -2.8635   -0.8105    0.4915 H   0  0  0  0  0  0  0  0  0  0  0  0
   -2.1902   -0.6651   -1.1395 H   0  0  0  0  0  0  0  0  0  0  0  0
   -0.4641    0.3168    2.0663 H   0  0  0  0  0  0  0  0  0  0  0  0
   -0.7927   -2.7599   -1.1647 H   0  0  0  0  0  0  0  0  0  0  0  0
    0.2805   -3.1341    0.1920 H   0  0  0  0  0  0  0  0  0  0  0  0
   -1.4725   -3.2837    0.3779 H   0  0  0  0  0  0  0  0  0  0  0  0
    0.3400    0.3414   -2.4251 C   0  0  0  0  0  0  0  0  0  0  0  0
    1.0868    0.0583   -1.1439 C   0  0  0  0  0  0  0  0  0  0  0  0
    1.4470    1.1408   -0.2611 C   0  0  0  0  0  0  0  0  0  0  0  0
    0.7321    2.6104   -0.1723 S   0  0  0  0  0  0  0  0  0  0  0  0
    0.9951    0.8292   -3.1503 H   0  0  0  0  0  0  0  0  0  0  0  0
   -0.0268   -0.5849   -2.8704 H   0  0  0  0  0  0  0  0  0  0  0  0
   -0.5028    1.0080   -2.2473 H   0  0  0  0  0  0  0  0  0  0  0  0
    0.2706   -0.5932   -0.4191 H   0  0  0  0  0  0  0  0  0  0  0  0
    1.8825   -0.6811   -1.2464 H   0  0  0  0  0  0  0  0  0  0  0  0
    2.2343    0.9046    0.4539 H   0  0  0  0  0  0  0  0  0  0  0  0
  1  2  1  0
  1  5  1  0
  1  6  1  0
  1  7  1  0
  2  4  1  0
  2  3  1  0
  3  8  1  0
  4  9  1  0
  4 10  1  0
  4 11  1  0
 12 13  1  0
 12 16  1  0
 12 17  1  0
 12 18  1  0
 13 14  1  0
 13 19  1  0
 13 20  1  0
 14 15  2  0
 14 21  1  0
M  RAD  1   2   2
M  END
>  <reaction>  (4) 
rxn_2020

>  <mol_properties>  (4) 
{"1": {"label": "*3", "atom_type": "Cs"}, "2": {"label": "*4", "atom_type": "S2s"}, "12": {"label": "*1", "atom_type": "Cs"}, "13": {"label": "*0", "atom_type": "CS"}, "18": {"label": "*2", "atom_type": "H0"}}

>  <type>  (4) 
ts

$$$$

     RDKit          3D

 21 19  0  0  0  0  0  0  0  0999 V2000
    0.0275   -2.3060    1.0944 C   0  0  0  0  0  0  0  0  0  0  0  0
   -0.4757   -1.1469    0.2453 C   0  0  0  0  0  3  0  0  0  0  0  0
   -2.0962   -1.5097   -0.5154 S   0  0  0  0  0  0  0  0  0  0  0  0
   -0.4892    0.1658    1.0162 C   0  0  0  0  0  0  0  0  0  0  0  0
    0.0586   -3.2326    0.5222 H   0  0  0  0  0  0  0  0  0  0  0  0
   -0.6250   -2.4611    1.9571 H   0  0  0  0  0  0  0  0  0  0  0  0
    1.0321   -2.0932    1.4688 H   0  0  0  0  0  0  0  0  0  0  0  0
   -2.7822   -1.6168    0.6318 H   0  0  0  0  0  0  0  0  0  0  0  0
    0.5118    0.3959    1.3900 H   0  0  0  0  0  0  0  0  0  0  0  0
   -0.8243    0.9908    0.3886 H   0  0  0  0  0  0  0  0  0  0  0  0
   -1.1601    0.0987    1.8761 H   0  0  0  0  0  0  0  0  0  0  0  0
    1.5826    0.1737   -2.2244 C   0  0  0  0  0  0  0  0  0  0  0  0
    1.5826    0.1737   -0.6933 C   0  0  0  0  0  0  0  0  0  0  0  0
    1.5826    1.5619   -0.1466 C   0  0  0  0  0  0  0  0  0  0  0  0
    0.4631    2.2176    0.8009 S   0  0  0  0  0  0  0  0  0  0  0  0
    2.4378    0.7238   -2.6215 H   0  0  0  0  0  0  0  0  0  0  0  0
    1.6334   -0.8472   -2.6031 H   0  0  0  0  0  0  0  0  0  0  0  0
    0.6731    0.6361   -2.6101 H   0  0  0  0  0  0  0  0  0  0  0  0
    0.5549   -0.4857   -0.2247 H   0  0  0  0  0  0  0  0  0  0  0  0
    2.4929   -0.3230   -0.3379 H   0  0  0  0  0  0  0  0  0  0  0  0
    2.4380    2.1671   -0.4570 H   0  0  0  0  0  0  0  0  0  0  0  0
  1  2  1  0
  1  5  1  0
  1  6  1  0
  1  7  1  0
  2  4  1  0
  2  3  1  0
  3  8  1  0
  4  9  1  0
  4 10  1  0
  4 11  1  0
 12 13  1  0
 12 16  1  0
 12 17  1  0
 12 18  1  0
 13 14  1  0
 13 19  1  0
 13 20  1  0
 14 15  2  0
 14 21  1  0
M  RAD  1   2   2
M  END
>  <reaction>  (5) 
rxn_2020

>  <mol_properties>  (5) 
{"1": {"label": "*3", "atom_type": "Cs"}, "2": {"label": "*4", "atom_type": "S2s"}, "12": {"label": "*1", "atom_type": "Cs"}, "13": {"label": "*0", "atom_type": "CS"}, "18": {"label": "*2", "atom_type": "H0"}}

>  <type>  (5) 
unop_1

>  <geom_source>  (5) 
Heuristics

$$$$

     RDKit          3D

 21 19  0  0  0  0  0  0  0  0999 V2000
   -0.8780   -2.3455   -0.8698 C   0  0  0  0  0  0  0  0  0  0  0  0
   -0.5032   -1.2494    0.1179 C   0  0  0  0  0  3  0  0  0  0  0  0
   -1.9533   -0.2617    0.6259 S   0  0  0  0  0  0  0  0  0  0  0  0
    0.2635   -1.7934    1.3153 C   0  0  0  0  0  0  0  0  0  0  0  0
   -1.4009   -1.9384   -1.7345 H   0  0  0  0  0  0  0  0  0  0  0  0
   -1.5296   -3.0833   -0.3950 H   0  0  0  0  0  0  0  0  0  0  0  0
    0.0186   -2.8654   -1.2170 H   0  0  0  0  0  0  0  0  0  0  0  0
   -2.6161   -1.2618    1.2249 H   0  0  0  0  0  0  0  0  0  0  0  0
    1.1681   -2.3094    0.9833 H   0  0  0  0  0  0  0  0  0  0  0  0
    0.5496   -0.9949    1.9991 H   0  0  0  0  0  0  0  0  0  0  0  0
   -0.3474   -2.5114    1.8679 H   0  0  0  0  0  0  0  0  0  0  0  0
    1.5551    0.0712   -2.3518 C   0  0  0  0  0  0  0  0  0  0  0  0
    1.5551    0.0712   -0.8208 C   0  0  0  0  0  0  0  0  0  0  0  0
    1.5551    1.4594   -0.2741 C   0  0  0  0  0  0  0  0  0  0  0  0
    0.4356    2.1151    0.6735 S   0  0  0  0  0  0  0  0  0  0  0  0
    2.4103    0.6214   -2.7489 H   0  0  0  0  0  0  0  0  0  0  0  0
    1.6059   -0.9497   -2.7305 H   0  0  0  0  0  0  0  0  0  0  0  0
    0.6456    0.5336   -2.7375 H   0  0  0  0  0  0  0  0  0  0  0  0
    0.5274   -0.5882   -0.3521 H   0  0  0  0  0  0  0  0  0  0  0  0
    2.4655   -0.4255   -0.4653 H   0  0  0  0  0  0  0  0  0  0  0  0
    2.4106    2.0646   -0.5844 H   0  0  0  0  0  0  0  0  0  0  0  0
  1  2  1  0
  1  5  1  0
  1  6  1  0
  1  7  1  0
  2  4  1  0
  2  3  1  0
  3  8  1  0
  4  9  1  0
  4 10  1  0
  4 11  1  0
 12 13  1  0
 12 16  1  0
 12 17  1  0
 12 18  1  0
 13 14  1  0
 13 19  1  0
 13 20  1  0
 14 15  2  0
 14 21  1  0
M  RAD  1   2   2
M  END
>  <reaction>  (6) 
rxn_2020

>  <mol_properties>  (6) 
{"1": {"label": "*3", "atom_type": "Cs"}, "2": {"label": "*4", "atom_type": "S2s"}, "12": {"label": "*1", "atom_type": "Cs"}, "13": {"label": "*0", "atom_type": "CS"}, "18": {"label": "*2", "atom_type": "H0"}}

>  <type>  (6) 
unop_2

>  <geom_source>  (6) 
Heuristics

$$$$

     RDKit          3D

 21 19  0  0  0  0  0  0  0  0999 V2000
   -0.1485   -1.6530    1.6567 C   0  0  0  0  0  0  0  0  0  0  0  0
   -0.5259   -1.0396    0.3156 C   0  0  0  0  0  3  0  0  0  0  0  0
   -1.5388   -2.1753   -0.6948 S   0  0  0  0  0  0  0  0  0  0  0  0
   -1.1843    0.3240    0.4729 C   0  0  0  0  0  0  0  0  0  0  0  0
    0.3467   -2.6147    1.5277 H   0  0  0  0  0  0  0  0  0  0  0  0
   -1.0385   -1.8088    2.2714 H   0  0  0  0  0  0  0  0  0  0  0  0
    0.5227   -0.9854    2.2032 H   0  0  0  0  0  0  0  0  0  0  0  0
   -2.5879   -2.2258    0.1389 H   0  0  0  0  0  0  0  0  0  0  0  0
   -0.5204    1.0054    1.0111 H   0  0  0  0  0  0  0  0  0  0  0  0
   -1.4232    0.7632   -0.4950 H   0  0  0  0  0  0  0  0  0  0  0  0
   -2.1112    0.2386    1.0454 H   0  0  0  0  0  0  0  0  0  0  0  0
    1.5323    0.2810   -2.1542 C   0  0  0  0  0  0  0  0  0  0  0  0
    1.5323    0.2810   -0.6231 C   0  0  0  0  0  0  0  0  0  0  0  0
    1.5323    1.6692   -0.0764 C   0  0  0  0  0  0  0  0  0  0  0  0
    0.4128    2.3249    0.8711 S   0  0  0  0  0  0  0  0  0  0  0  0
    2.3875    0.8312   -2.5513 H   0  0  0  0  0  0  0  0  0  0  0  0
    1.5832   -0.7399   -2.5328 H   0  0  0  0  0  0  0  0  0  0  0  0
    0.6228    0.7434   -2.5398 H   0  0  0  0  0  0  0  0  0  0  0  0
    0.5047   -0.3783   -0.1544 H   0  0  0  0  0  0  0  0  0  0  0  0
    2.4427   -0.2157   -0.2677 H   0  0  0  0  0  0  0  0  0  0  0  0
    2.3878    2.2745   -0.3867 H   0  0  0  0  0  0  0  0  0  0  0  0
  1  2  1  0
  1  5  1  0
  1  6  1  0
  1  7  1  0
  2  4  1  0
  2  3  1  0
  3  8  1  0
  4  9  1  0
  4 10  1  0
  4 11  1  0
 12 13  1  0
 12 16  1  0
 12 17  1  0
 12 18  1  0
 13 14  1  0
 13 19  1  0
 13 20  1  0
 14 15  2  0
 14 21  1  0
M  RAD  1   2   2
M  END
>  <reaction>  (7) 
rxn_2020

>  <mol_properties>  (7) 
{"1": {"label": "*3", "atom_type": "Cs"}, "2": {"label": "*4", "atom_type": "S2s"}, "12": {"label": "*1", "atom_type": "Cs"}, "13": {"label": "*0", "atom_type": "CS"}, "18": {"label": "*2", "atom_type": "H0"}}

>  <type>  (7) 
unop_3

>  <geom_source>  (7) 
Heuristics

$$$$

     RDKit          3D

 21 19  0  0  0  0  0  0  0  0999 V2000
   -2.0588   -0.6536   -0.5396 C   0  0  0  0  0  0  0  0  0  0  0  0
   -0.7804   -1.3154   -0.0441 C   0  0  0  0  0  3  0  0  0  0  0  0
   -0.0745   -0.4444    1.3980 S   0  0  0  0  0  0  0  0  0  0  0  0
   -0.9705   -2.8017    0.2249 C   0  0  0  0  0  0  0  0  0  0  0  0
   -1.9009    0.4026   -0.7548 H   0  0  0  0  0  0  0  0  0  0  0  0
   -2.8481   -0.7331    0.2119 H   0  0  0  0  0  0  0  0  0  0  0  0
   -2.4122   -1.1461   -1.4492 H   0  0  0  0  0  0  0  0  0  0  0  0
   -1.1023   -0.6692    2.2295 H   0  0  0  0  0  0  0  0  0  0  0  0
   -1.3163   -3.3091   -0.6794 H   0  0  0  0  0  0  0  0  0  0  0  0
   -0.0415   -3.2676    0.5515 H   0  0  0  0  0  0  0  0  0  0  0  0
   -1.7210   -2.9576    1.0037 H   0  0  0  0  0  0  0  0  0  0  0  0
    1.2778    0.0052   -2.5138 C   0  0  0  0  0  0  0  0  0  0  0  0
    1.2778    0.0052   -0.9828 C   0  0  0  0  0  0  0  0  0  0  0  0
    1.2778    1.3934   -0.4361 C   0  0  0  0  0  0  0  0  0  0  0  0
    0.1583    2.0491    0.5115 S   0  0  0  0  0  0  0  0  0  0  0  0
    2.1330    0.5554   -2.9109 H   0  0  0  0  0  0  0  0  0  0  0  0
    1.3286   -1.0157   -2.8925 H   0  0  0  0  0  0  0  0  0  0  0  0
    0.3683    0.4676   -2.8995 H   0  0  0  0  0  0  0  0  0  0  0  0
    0.2501   -0.6541   -0.5141 H   0  0  0  0  0  0  0  0  0  0  0  0
    2.1882   -0.4915   -0.6273 H   0  0  0  0  0  0  0  0  0  0  0  0
    2.1333    1.9987   -0.7464 H   0  0  0  0  0  0  0  0  0  0  0  0
  1  2  1  0
  1  5  1  0
  1  6  1  0
  1  7  1  0
  2  4  1  0
  2  3  1  0
  3  8  1  0
  4  9  1  0
  4 10  1  0
  4 11  1  0
 12 13  1  0
 12 16  1  0
 12 17  1  0
 12 18  1  0
 13 14  1  0
 13 19  1  0
 13 20  1  0
 14 15  2  0
 14 21  1  0
M  RAD  1   2   2
M  END
>  <reaction>  (8) 
rxn_2020

>  <mol_properties>  (8) 
{"1": {"label": "*3", "atom_type": "Cs"}, "2": {"label": "*4", "atom_type": "S2s"}, "12": {"label": "*1", "atom_type": "Cs"}, "13": {"label": "*0", "atom_type": "CS"}, "18": {"label": "*2", "atom_type": "H0"}}

>  <type>  (8) 
unop_4

>  <geom_source>  (8) 
Heuristics

$$$$

     RDKit          3D

 21 19  0  0  0  0  0  0  0  0999 V2000
   -0.6639   -0.8752    1.8169 C   0  0  0  0  0  0  0  0  0  0  0  0
   -0.7107   -0.9052    0.2956 C   0  0  0  0  0  3  0  0  0  0  0  0
   -0.4322   -2.5857   -0.3639 S   0  0  0  0  0  0  0  0  0  0  0  0
   -1.9875   -0.2827   -0.2519 C   0  0  0  0  0  0  0  0  0  0  0  0
    0.2669   -1.2978    2.1935 H   0  0  0  0  0  0  0  0  0  0  0  0
   -1.4928   -1.4498    2.2376 H   0  0  0  0  0  0  0  0  0  0  0  0
   -0.7520    0.1526    2.1784 H   0  0  0  0  0  0  0  0  0  0  0  0
   -1.5255   -3.1440    0.1757 H   0  0  0  0  0  0  0  0  0  0  0  0
   -2.0849    0.7492    0.0952 H   0  0  0  0  0  0  0  0  0  0  0  0
   -1.9947   -0.2854   -1.3413 H   0  0  0  0  0  0  0  0  0  0  0  0
   -2.8635   -0.8362    0.0951 H   0  0  0  0  0  0  0  0  0  0  0  0
    1.3476    0.4154   -2.1742 C   0  0  0  0  0  0  0  0  0  0  0  0
    1.3476    0.4154   -0.6431 C   0  0  0  0  0  0  0  0  0  0  0  0
    1.3476    1.8036   -0.0964 C   0  0  0  0  0  0  0  0  0  0  0  0
    0.2280    2.4593    0.8511 S   0  0  0  0  0  0  0  0  0  0  0  0
    2.2028    0.9656   -2.5713 H   0  0  0  0  0  0  0  0  0  0  0  0
    1.3984   -0.6055   -2.5528 H   0  0  0  0  0  0  0  0  0  0  0  0
    0.4381    0.8778   -2.5598 H   0  0  0  0  0  0  0  0  0  0  0  0
    0.3199   -0.2440   -0.1744 H   0  0  0  0  0  0  0  0  0  0  0  0
    2.2579   -0.0813   -0.2877 H   0  0  0  0  0  0  0  0  0  0  0  0
    2.2030    2.4088   -0.4067 H   0  0  0  0  0  0  0  0  0  0  0  0
  1  2  1  0
  1  5  1  0
  1  6  1  0
  1  7  1  0
  2  4  1  0
  2  3  1  0
  3  8  1  0
  4  9  1  0
  4 10  1  0
  4 11  1  0
 12 13  1  0
 12 16  1  0
 12 17  1  0
 12 18  1  0
 13 14  1  0
 13 19  1  0
 13 20  1  0
 14 15  2  0
 14 21  1  0
M  RAD  1   2   2
M  END
>  <reaction>  (9) 
rxn_2020

>  <mol_properties>  (9) 
{"1": {"label": "*3", "atom_type": "Cs"}, "2": {"label": "*4", "atom_type": "S2s"}, "12": {"label": "*1", "atom_type": "Cs"}, "13": {"label": "*0", "atom_type": "CS"}, "18": {"label": "*2", "atom_type": "H0"}}

>  <type>  (9) 
unop_5

>  <geom_source>  (9) 
Heuristics

$$$$

     RDKit          3D

 21 19  0  0  0  0  0  0  0  0999 V2000
   -2.0589   -0.2474    0.1336 C   0  0  0  0  0  0  0  0  0  0  0  0
   -0.8936   -1.2109   -0.0432 C   0  0  0  0  0  3  0  0  0  0  0  0
    0.3910   -0.9714    1.2332 S   0  0  0  0  0  0  0  0  0  0  0  0
   -1.3538   -2.6597   -0.1236 C   0  0  0  0  0  0  0  0  0  0  0  0
   -1.7178    0.7869    0.1612 H   0  0  0  0  0  0  0  0  0  0  0  0
   -2.5903   -0.4549    1.0657 H   0  0  0  0  0  0  0  0  0  0  0  0
   -2.7703   -0.3584   -0.6888 H   0  0  0  0  0  0  0  0  0  0  0  0
   -0.3732   -1.3067    2.2829 H   0  0  0  0  0  0  0  0  0  0  0  0
   -2.0603   -2.7876   -0.9478 H   0  0  0  0  0  0  0  0  0  0  0  0
   -0.5130   -3.3350   -0.2783 H   0  0  0  0  0  0  0  0  0  0  0  0
   -1.8600   -2.9532    0.7993 H   0  0  0  0  0  0  0  0  0  0  0  0
    1.1647    0.1098   -2.5129 C   0  0  0  0  0  0  0  0  0  0  0  0
    1.1647    0.1098   -0.9818 C   0  0  0  0  0  0  0  0  0  0  0  0
    1.1647    1.4979   -0.4351 C   0  0  0  0  0  0  0  0  0  0  0  0
    0.0451    2.1536    0.5124 S   0  0  0  0  0  0  0  0  0  0  0  0
    2.0199    0.6599   -2.9100 H   0  0  0  0  0  0  0  0  0  0  0  0
    1.2155   -0.9112   -2.8915 H   0  0  0  0  0  0  0  0  0  0  0  0
    0.2552    0.5721   -2.8985 H   0  0  0  0  0  0  0  0  0  0  0  0
    0.1370   -0.5496   -0.5132 H   0  0  0  0  0  0  0  0  0  0  0  0
    2.0750   -0.3869   -0.6264 H   0  0  0  0  0  0  0  0  0  0  0  0
    2.0201    2.1032   -0.7455 H   0  0  0  0  0  0  0  0  0  0  0  0
  1  2  1  0
  1  5  1  0
  1  6  1  0
  1  7  1  0
  2  4  1  0
  2  3  1  0
  3  8  1  0
  4  9  1  0
  4 10  1  0
  4 11  1  0
 12 13  1  0
 12 16  1  0
 12 17  1  0
 12 18  1  0
 13 14  1  0
 13 19  1  0
 13 20  1  0
 14 15  2  0
 14 21  1  0
M  RAD  1   2   2
M  END
>  <reaction>  (10) 
rxn_2020

>  <mol_properties>  (10) 
{"1": {"label": "*3", "atom_type": "Cs"}, "2": {"label": "*4", "atom_type": "S2s"}, "12": {"label": "*1", "atom_type": "Cs"}, "13": {"label": "*0", "atom_type": "CS"}, "18": {"label": "*2", "atom_type": "H0"}}

>  <type>  (10) 
unop_6

>  <geom_source>  (10) 
Heuristics

$$$$

     RDKit          3D

 21 19  0  0  0  0  0  0  0  0999 V2000
   -1.7957   -0.1316    0.8720 C   0  0  0  0  0  0  0  0  0  0  0  0
   -0.9518   -1.0720    0.0230 C   0  0  0  0  0  3  0  0  0  0  0  0
    0.5946   -1.5534    0.8676 S   0  0  0  0  0  0  0  0  0  0  0  0
   -1.7429   -2.2832   -0.4511 C   0  0  0  0  0  0  0  0  0  0  0  0
   -1.2254    0.7439    1.1805 H   0  0  0  0  0  0  0  0  0  0  0  0
   -2.1499   -0.6407    1.7718 H   0  0  0  0  0  0  0  0  0  0  0  0
   -2.6717    0.2027    0.3102 H   0  0  0  0  0  0  0  0  0  0  0  0
    0.0148   -2.1971    1.8912 H   0  0  0  0  0  0  0  0  0  0  0  0
   -2.6185   -1.9639   -1.0222 H   0  0  0  0  0  0  0  0  0  0  0  0
   -1.1351   -2.9325   -1.0803 H   0  0  0  0  0  0  0  0  0  0  0  0
   -2.0951   -2.8690    0.4015 H   0  0  0  0  0  0  0  0  0  0  0  0
    1.1065    0.2486   -2.4467 C   0  0  0  0  0  0  0  0  0  0  0  0
    1.1065    0.2486   -0.9157 C   0  0  0  0  0  0  0  0  0  0  0  0
    1.1065    1.6368   -0.3690 C   0  0  0  0  0  0  0  0  0  0  0  0
   -0.0131    2.2925    0.5786 S   0  0  0  0  0  0  0  0  0  0  0  0
    1.9617    0.7988   -2.8438 H   0  0  0  0  0  0  0  0  0  0  0  0
    1.1573   -0.7723   -2.8254 H   0  0  0  0  0  0  0  0  0  0  0  0
    0.1970    0.7110   -2.8324 H   0  0  0  0  0  0  0  0  0  0  0  0
    0.0788   -0.4108   -0.4470 H   0  0  0  0  0  0  0  0  0  0  0  0
    2.0168   -0.2481   -0.5602 H   0  0  0  0  0  0  0  0  0  0  0  0
    1.9619    2.2420   -0.6793 H   0  0  0  0  0  0  0  0  0  0  0  0
  1  2  1  0
  1  5  1  0
  1  6  1  0
  1  7  1  0
  2  4  1  0
  2  3  1  0
  3  8  1  0
  4  9  1  0
  4 10  1  0
  4 11  1  0
 12 13  1  0
 12 16  1  0
 12 17  1  0
 12 18  1  0
 13 14  1  0
 13 19  1  0
 13 20  1  0
 14 15  2  0
 14 21  1  0
M  RAD  1   2   2
M  END
>  <reaction>  (11) 
rxn_2020

>  <mol_properties>  (11) 
{"1": {"label": "*3", "atom_type": "Cs"}, "2": {"label": "*4", "atom_type": "S2s"}, "12": {"label": "*1", "atom_type": "Cs"}, "13": {"label": "*0", "atom_type": "CS"}, "18": {"label": "*2", "atom_type": "H0"}}

>  <type>  (11) 
unop_7

>  <geom_source>  (11) 
Heuristics

$$$$

     RDKit          3D

 21 19  0  0  0  0  0  0  0  0999 V2000
   -0.0890   -2.6489    0.3565 C   0  0  0  0  0  0  0  0  0  0  0  0
   -0.4792   -1.1880    0.1797 C   0  0  0  0  0  3  0  0  0  0  0  0
   -2.2645   -0.9927   -0.1531 S   0  0  0  0  0  0  0  0  0  0  0  0
   -0.0196   -0.3258    1.3471 C   0  0  0  0  0  0  0  0  0  0  0  0
   -0.3990   -3.2485   -0.4987 H   0  0  0  0  0  0  0  0  0  0  0  0
   -0.5576   -3.0655    1.2514 H   0  0  0  0  0  0  0  0  0  0  0  0
    0.9940   -2.7403    0.4725 H   0  0  0  0  0  0  0  0  0  0  0  0
   -2.6923   -1.4805    1.0205 H   0  0  0  0  0  0  0  0  0  0  0  0
    1.0639   -0.4011    1.4701 H   0  0  0  0  0  0  0  0  0  0  0  0
   -0.2804    0.7208    1.1941 H   0  0  0  0  0  0  0  0  0  0  0  0
   -0.4857   -0.6597    2.2774 H   0  0  0  0  0  0  0  0  0  0  0  0
    1.5791    0.1326   -2.2900 C   0  0  0  0  0  0  0  0  0  0  0  0
    1.5791    0.1326   -0.7589 C   0  0  0  0  0  0  0  0  0  0  0  0
    1.5791    1.5207   -0.2123 C   0  0  0  0  0  0  0  0  0  0  0  0
    0.4596    2.1764    0.7353 S   0  0  0  0  0  0  0  0  0  0  0  0
    2.4343    0.6827   -2.6871 H   0  0  0  0  0  0  0  0  0  0  0  0
    1.6299   -0.8883   -2.6687 H   0  0  0  0  0  0  0  0  0  0  0  0
    0.6696    0.5949   -2.6757 H   0  0  0  0  0  0  0  0  0  0  0  0
    0.5514   -0.5268   -0.2903 H   0  0  0  0  0  0  0  0  0  0  0  0
    2.4895   -0.3641   -0.4035 H   0  0  0  0  0  0  0  0  0  0  0  0
    2.4346    2.1260   -0.5226 H   0  0  0  0  0  0  0  0  0  0  0  0
  1  2  1  0
  1  5  1  0
  1  6  1  0
  1  7  1  0
  2  4  1  0
  2  3  1  0
  3  8  1  0
  4  9  1  0
  4 10  1  0
  4 11  1  0
 12 13  1  0
 12 16  1  0
 12 17  1  0
 12 18  1  0
 13 14  1  0
 13 19  1  0
 13 20  1  0
 14 15  2  0
 14 21  1  0
M  RAD  1   2   2
M  END
>  <reaction>  (12) 
rxn_2020

>  <mol_properties>  (12) 
{"1": {"label": "*3", "atom_type": "Cs"}, "2": {"label": "*4", "atom_type": "S2s"}, "12": {"label": "*1", "atom_type": "Cs"}, "13": {"label": "*0", "atom_type": "CS"}, "18": {"label": "*2", "atom_type": "H0"}}

>  <type>  (12) 
unop_8

>  <geom_source>  (12) 
Heuristics

$$$$

     RDKit          3D

 21 20  0  0  0  0  0  0  0  0999 V2000
   -1.8025   -1.2375   -0.9807 C   0  0  0  0  0  0  0  0  0  0  0  0
   -0.6499   -1.3535    0.0070 C   0  0  0  0  0  0  0  0  0  0  0  0
   -0.7404   -0.0824    1.3157 S   0  0  0  0  0  4  0  0  0  0  0  0
   -0.5270   -2.7571    0.5836 C   0  0  0  0  0  0  0  0  0  0  0  0
   -1.8609   -0.2363   -1.4062 H   0  0  0  0  0  0  0  0  0  0  0  0
   -2.7535   -1.4531   -0.4875 H   0  0  0  0  0  0  0  0  0  0  0  0
   -1.6775   -1.9560   -1.7949 H   0  0  0  0  0  0  0  0  0  0  0  0
   -1.8961   -0.4993    1.8530 H   0  0  0  0  0  0  0  0  0  0  0  0
   -0.3931   -3.4862   -0.2197 H   0  0  0  0  0  0  0  0  0  0  0  0
    0.3184   -2.8328    1.2665 H   0  0  0  0  0  0  0  0  0  0  0  0
   -1.4326   -3.0269    1.1325 H   0  0  0  0  0  0  0  0  0  0  0  0
    1.4084   -0.0329   -2.4627 C   0  0  0  0  0  0  0  0  0  0  0  0
    1.4084   -0.0329   -0.9316 C   0  0  0  0  0  0  0  0  0  0  0  0
    1.4084    1.3553   -0.3850 C   0  0  0  0  0  3  0  0  0  0  0  0
    0.2889    2.0110    0.5626 S   0  0  0  0  0  0  0  0  0  0  0  0
    2.2636    0.5173   -2.8598 H   0  0  0  0  0  0  0  0  0  0  0  0
    1.4592   -1.0538   -2.8414 H   0  0  0  0  0  0  0  0  0  0  0  0
    0.4989    0.4295   -2.8484 H   0  0  0  0  0  0  0  0  0  0  0  0
    0.3807   -0.6923   -0.4630 H   0  0  0  0  0  0  0  0  0  0  0  0
    2.3188   -0.5296   -0.5762 H   0  0  0  0  0  0  0  0  0  0  0  0
    2.2639    1.9605   -0.6953 H   0  0  0  0  0  0  0  0  0  0  0  0
  1  2  1  0
  1  5  1  0
  1  6  1  0
  1  7  1  0
  2  4  1  0
  2  3  2  3
  3 15  1  0
  3  8  1  0
  4  9  1  0
  4 10  1  0
  4 11  1  0
 12 13  1  0
 12 16  1  0
 12 17  1  0
 12 18  1  0
 13 14  1  0
 13 19  1  0
 13 20  1  0
 14 15  1  0
 14 21  1  0
M  RAD  1  14   2
M  END
>  <reaction>  (13) 
rxn_2020

>  <mol_properties>  (13) 
{"1": {"label": "*3", "atom_type": "Cs"}, "2": {"label": "*4", "atom_type": "S2s"}, "12": {"label": "*1", "atom_type": "Cs"}, "13": {"label": "*0", "atom_type": "CS"}, "18": {"label": "*2", "atom_type": "H0"}}

>  <type>  (13) 
unop_9

>  <geom_source>  (13) 
Heuristics

$$$$

     RDKit          3D

 21 19  0  0  0  0  0  0  0  0999 V2000
   -0.4213   -2.6460   -0.3531 C   0  0  0  0  0  0  0  0  0  0  0  0
   -0.4900   -1.2082    0.1425 C   0  0  0  0  0  3  0  0  0  0  0  0
   -2.2096   -0.5993    0.2374 S   0  0  0  0  0  0  0  0  0  0  0  0
    0.2553   -1.0175    1.4561 C   0  0  0  0  0  0  0  0  0  0  0  0
   -0.9342   -2.7617   -1.3072 H   0  0  0  0  0  0  0  0  0  0  0  0
   -0.8871   -3.3227    0.3675 H   0  0  0  0  0  0  0  0  0  0  0  0
    0.6200   -2.9545   -0.4770 H   0  0  0  0  0  0  0  0  0  0  0  0
   -2.6261   -1.4654    1.1727 H   0  0  0  0  0  0  0  0  0  0  0  0
    1.3013   -1.3147    1.3448 H   0  0  0  0  0  0  0  0  0  0  0  0
    0.2217    0.0209    1.7841 H   0  0  0  0  0  0  0  0  0  0  0  0
   -0.1864   -1.6362    2.2411 H   0  0  0  0  0  0  0  0  0  0  0  0
    1.5682    0.1124   -2.3273 C   0  0  0  0  0  0  0  0  0  0  0  0
    1.5682    0.1124   -0.7962 C   0  0  0  0  0  0  0  0  0  0  0  0
    1.5682    1.5006   -0.2495 C   0  0  0  0  0  0  0  0  0  0  0  0
    0.4487    2.1563    0.6980 S   0  0  0  0  0  0  0  0  0  0  0  0
    2.4234    0.6626   -2.7244 H   0  0  0  0  0  0  0  0  0  0  0  0
    1.6191   -0.9085   -2.7059 H   0  0  0  0  0  0  0  0  0  0  0  0
    0.6587    0.5748   -2.7129 H   0  0  0  0  0  0  0  0  0  0  0  0
    0.5406   -0.5469   -0.3275 H   0  0  0  0  0  0  0  0  0  0  0  0
    2.4786   -0.3843   -0.4408 H   0  0  0  0  0  0  0  0  0  0  0  0
    2.4237    2.1059   -0.5598 H   0  0  0  0  0  0  0  0  0  0  0  0
  1  2  1  0
  1  5  1  0
  1  6  1  0
  1  7  1  0
  2  4  1  0
  2  3  1  0
  3  8  1  0
  4  9  1  0
  4 10  1  0
  4 11  1  0
 12 13  1  0
 12 16  1  0
 12 17  1  0
 12 18  1  0
 13 14  1  0
 13 19  1  0
 13 20  1  0
 14 15  2  0
 14 21  1  0
M  RAD  1   2   2
M  END
>  <reaction>  (14) 
rxn_2020

>  <mol_properties>  (14) 
{"1": {"label": "*3", "atom_type": "Cs"}, "2": {"label": "*4", "atom_type": "S2s"}, "12": {"label": "*1", "atom_type": "Cs"}, "13": {"label": "*0", "atom_type": "CS"}, "18": {"label": "*2", "atom_type": "H0"}}

>  <type>  (14) 
unop_10

>  <geom_source>  (14) 
Heuristics

$$$$

     RDKit          3D

 21 19  0  0  0  0  0  0  0  0999 V2000
   -1.3080   -0.3379    1.4927 C   0  0  0  0  0  0  0  0  0  0  0  0
   -0.9078   -0.9367    0.1515 C   0  0  0  0  0  3  0  0  0  0  0  0
    0.4248   -2.1738    0.3256 S   0  0  0  0  0  0  0  0  0  0  0  0
   -2.1040   -1.4910   -0.6096 C   0  0  0  0  0  0  0  0  0  0  0  0
   -0.4471    0.0799    2.0134 H   0  0  0  0  0  0  0  0  0  0  0  0
   -1.7564   -1.1002    2.1346 H   0  0  0  0  0  0  0  0  0  0  0  0
   -2.0469    0.4545    1.3484 H   0  0  0  0  0  0  0  0  0  0  0  0
   -0.2731   -3.0456    1.0680 H   0  0  0  0  0  0  0  0  0  0  0  0
   -2.8484   -0.7066   -0.7686 H   0  0  0  0  0  0  0  0  0  0  0  0
   -1.8070   -1.8904   -1.5787 H   0  0  0  0  0  0  0  0  0  0  0  0
   -2.5806   -2.2944   -0.0426 H   0  0  0  0  0  0  0  0  0  0  0  0
    1.1505    0.3839   -2.3182 C   0  0  0  0  0  0  0  0  0  0  0  0
    1.1505    0.3839   -0.7871 C   0  0  0  0  0  0  0  0  0  0  0  0
    1.1505    1.7721   -0.2404 C   0  0  0  0  0  0  0  0  0  0  0  0
    0.0310    2.4278    0.7071 S   0  0  0  0  0  0  0  0  0  0  0  0
    2.0057    0.9341   -2.7153 H   0  0  0  0  0  0  0  0  0  0  0  0
    1.2013   -0.6370   -2.6969 H   0  0  0  0  0  0  0  0  0  0  0  0
    0.2410    0.8463   -2.7038 H   0  0  0  0  0  0  0  0  0  0  0  0
    0.1228   -0.2754   -0.3185 H   0  0  0  0  0  0  0  0  0  0  0  0
    2.0609   -0.1128   -0.4317 H   0  0  0  0  0  0  0  0  0  0  0  0
    2.0060    2.3774   -0.5508 H   0  0  0  0  0  0  0  0  0  0  0  0
  1  2  1  0
  1  5  1  0
  1  6  1  0
  1  7  1  0
  2  4  1  0
  2  3  1  0
  3  8  1  0
  4  9  1  0
  4 10  1  0
  4 11  1  0
 12 13  1  0
 12 16  1  0
 12 17  1  0
 12 18  1  0
 13 14  1  0
 13 19  1  0
 13 20  1  0
 14 15  2  0
 14 21  1  0
M  RAD  1   2   2
M  END
>  <reaction>  (15) 
rxn_2020

>  <mol_properties>  (15) 
{"1": {"label": "*3", "atom_type": "Cs"}, "2": {"label": "*4", "atom_type": "S2s"}, "12": {"label": "*1", "atom_type": "Cs"}, "13": {"label": "*0", "atom_type": "CS"}, "18": {"label": "*2", "atom_type": "H0"}}

>  <type>  (15) 
unop_11

>  <geom_source>  (15) 
Heuristics

$$$$

     RDKit          3D

 21 19  0  0  0  0  0  0  0  0999 V2000
   -1.3702   -1.8433   -1.0938 C   0  0  0  0  0  0  0  0  0  0  0  0
   -0.5482   -1.3159    0.0740 C   0  0  0  0  0  3  0  0  0  0  0  0
   -1.4429   -0.0308    1.0145 S   0  0  0  0  0  0  0  0  0  0  0  0
   -0.0466   -2.4358    0.9750 C   0  0  0  0  0  0  0  0  0  0  0  0
   -1.6985   -1.0342   -1.7452 H   0  0  0  0  0  0  0  0  0  0  0  0
   -2.2570   -2.3695   -0.7321 H   0  0  0  0  0  0  0  0  0  0  0  0
   -0.7801   -2.5490   -1.6842 H   0  0  0  0  0  0  0  0  0  0  0  0
   -2.4458   -0.8175    1.4308 H   0  0  0  0  0  0  0  0  0  0  0  0
    0.5527   -3.1457    0.3990 H   0  0  0  0  0  0  0  0  0  0  0  0
    0.5631   -2.0465    1.7896 H   0  0  0  0  0  0  0  0  0  0  0  0
   -0.8862   -2.9831    1.4104 H   0  0  0  0  0  0  0  0  0  0  0  0
    1.5100    0.0047   -2.3957 C   0  0  0  0  0  0  0  0  0  0  0  0
    1.5100    0.0047   -0.8647 C   0  0  0  0  0  0  0  0  0  0  0  0
    1.5100    1.3929   -0.3180 C   0  0  0  0  0  0  0  0  0  0  0  0
    0.3905    2.0485    0.6296 S   0  0  0  0  0  0  0  0  0  0  0  0
    2.3652    0.5548   -2.7928 H   0  0  0  0  0  0  0  0  0  0  0  0
    1.5609   -1.0162   -2.7744 H   0  0  0  0  0  0  0  0  0  0  0  0
    0.6005    0.4671   -2.7814 H   0  0  0  0  0  0  0  0  0  0  0  0
    0.4824   -0.6547   -0.3960 H   0  0  0  0  0  0  0  0  0  0  0  0
    2.4204   -0.4920   -0.5092 H   0  0  0  0  0  0  0  0  0  0  0  0
    2.3655    1.9981   -0.6283 H   0  0  0  0  0  0  0  0  0  0  0  0
  1  2  1  0
  1  5  1  0
  1  6  1  0
  1  7  1  0
  2  4  1  0
  2  3  1  0
  3  8  1  0
  4  9  1  0
  4 10  1  0
  4 11  1  0
 12 13  1  0
 12 16  1  0
 12 17  1  0
 12 18  1  0
 13 14  1  0
 13 19  1  0
 13 20  1  0
 14 15  2  0
 14 21  1  0
M  RAD  1   2   2
M  END
>  <reaction>  (16) 
rxn_2020

>  <mol_properties>  (16) 
{"1": {"label": "*3", "atom_type": "Cs"}, "2": {"label": "*4", "atom_type": "S2s"}, "12": {"label": "*1", "atom_type": "Cs"}, "13": {"label": "*0", "atom_type": "CS"}, "18": {"label": "*2", "atom_type": "H0"}}

>  <type>  (16) 
unop_12

>  <geom_source>  (16) 
Heuristics

$$$$

     RDKit          3D

 21 19  0  0  0  0  0  0  0  0999 V2000
   -1.2432   -1.3602    1.4833 S   0  0  0  0  0  0  0  0  0  0  0  0
    2.3359   -2.3813   -0.3476 S   0  0  0  0  0  1  0  0  0  0  0  0
   -1.1184   -0.0498    0.2190 C   0  0  0  0  0  0  0  0  0  0  0  0
   -1.9145    1.1805    0.6512 C   0  0  0  0  0  0  0  0  0  0  0  0
   -1.5978   -0.5725   -1.1344 C   0  0  0  0  0  0  0  0  0  0  0  0
    2.3376    0.8736   -0.7283 C   0  0  0  0  0  0  0  0  0  0  0  0
    1.4993   -0.0318    0.1677 C   0  0  0  0  0  0  0  0  0  0  0  0
    2.2503   -1.2694    0.5564 C   0  0  0  0  0  0  0  0  0  0  0  0
    0.1483    0.2911    0.1089 H   0  0  0  0  0  0  0  0  0  0  0  0
   -2.9945    0.9378    0.7463 H   0  0  0  0  0  0  0  0  0  0  0  0
   -1.5392    1.5461    1.6302 H   0  0  0  0  0  0  0  0  0  0  0  0
   -1.7914    1.9939   -0.0949 H   0  0  0  0  0  0  0  0  0  0  0  0
   -1.4693    0.2108   -1.9111 H   0  0  0  0  0  0  0  0  0  0  0  0
   -0.9965   -1.4580   -1.4297 H   0  0  0  0  0  0  0  0  0  0  0  0
   -2.6692   -0.8628   -1.0877 H   0  0  0  0  0  0  0  0  0  0  0  0
    2.5964    0.3490   -1.6722 H   0  0  0  0  0  0  0  0  0  0  0  0
    3.2699    1.1777   -0.2060 H   0  0  0  0  0  0  0  0  0  0  0  0
    1.7536    1.7833   -0.9795 H   0  0  0  0  0  0  0  0  0  0  0  0
    1.2076    0.5277    1.0823 H   0  0  0  0  0  0  0  0  0  0  0  0
    2.5756   -1.3966    1.5838 H   0  0  0  0  0  0  0  0  0  0  0  0
   -2.6405   -1.4893    1.3622 H   0  0  0  0  0  0  0  0  0  0  0  0
  1  3  1  0
  1 21  1  0
  2  8  1  0
  3  4  1  0
  3  5  1  0
  3  9  1  0
  4 10  1  0
  4 11  1  0
  4 12  1  0
  5 13  1  0
  5 14  1  0
  5 15  1  0
  6  7  1  0
  6 16  1  0
  6 17  1  0
  6 18  1  0
  7  8  2  3
  7 19  1  0
  8 20  1  0
M  RAD  1   2   2
M  END
>  <reaction>  (17) 
rxn_2020

>  <mol_properties>  (17) 
{"1": {"label": "*3", "atom_type": "Cs"}, "2": {"label": "*4", "atom_type": "S2s"}, "12": {"label": "*1", "atom_type": "Cs"}, "13": {"label": "*0", "atom_type": "CS"}, "18": {"label": "*2", "atom_type": "H0"}}

>  <type>  (17) 
unop_13

>  <geom_source>  (17) 
AutoTST

$$$$
