
     RDKit          3D

 10  9  0  0  0  0  0  0  0  0999 V2000
   -1.1906   -0.0419   -0.0385 C   0  0  0  0  0  0  0  0  0  0  0  0
    0.2513    0.4500    0.0348 C   0  0  0  0  0  0  0  0  0  0  0  0
    1.2500   -0.5694    0.3278 N   0  0  0  0  0  0  0  0  0  0  0  0
   -1.4965   -0.4905    0.9100 H   0  0  0  0  0  0  0  0  0  0  0  0
   -1.3035   -0.7985   -0.8190 H   0  0  0  0  0  0  0  0  0  0  0  0
   -1.8789    0.7769   -0.2612 H   0  0  0  0  0  0  0  0  0  0  0  0
    0.3352    1.2278    0.7979 H   0  0  0  0  0  0  0  0  0  0  0  0
    0.5259    0.9233   -0.9113 H   0  0  0  0  0  0  0  0  0  0  0  0
    1.2298   -1.2971   -0.3752 H   0  0  0  0  0  0  0  0  0  0  0  0
    1.0523   -1.0138    1.2153 H   0  0  0  0  0  0  0  0  0  0  0  0
  1  2  1  0
  1  4  1  0
  1  5  1  0
  1  6  1  0
  2  3  1  0
  2  7  1  0
  2  8  1  0
  3  9  1  0
  3 10  1  0
M  END
>  <reaction>  (1) 
rxn_112

>  <mol_properties>  (1) 
{"1": {"label": "donator", "atom_type": "Cs"}, "6": {"label": "d_hydrogen", "atom_type": "H0"}}

>  <type>  (1) 
r1h

$$$$

     RDKit          3D

  1  0  0  0  0  0  0  0  0  0999 V2000
    0.0000    0.0000    0.0000 H   0  0  0  0  0 15  0  0  0  0  0  0
M  END
>  <reaction>  (2) 
rxn_112

>  <mol_properties>  (2) 
{"0": {"label": "acceptor", "atom_type": "H0"}}

>  <type>  (2) 
r2

$$$$

     RDKit          3D

  2  1  0  0  0  0  0  0  0  0999 V2000
    0.0000    0.0000    0.3721 H   0  0  0  0  0  0  0  0  0  0  0  0
    0.0000    0.0000   -0.3721 H   0  0  0  0  0  0  0  0  0  0  0  0
  1  2  1  0
M  END
>  <reaction>  (3) 
rxn_112

>  <mol_properties>  (3) 
{"0": {"label": "a_hydrogen", "atom_type": "H0"}, "1": {"label": "acceptor", "atom_type": "H0"}}

>  <type>  (3) 
r2h

$$$$

     RDKit          3D

 11  9  0  0  0  0  0  0  0  0999 V2000
    0.0961   -0.4536   -1.2664 C   0  0  0  0  0  0  0  0  0  0  0  0
   -0.0785   -0.3501    0.2283 C   0  0  0  0  0  0  0  0  0  0  0  0
    0.1057    0.9764    0.7213 N   0  0  0  0  0  0  0  0  0  0  0  0
    1.0588   -0.0347   -1.5660 H   0  0  0  0  0  0  0  0  0  0  0  0
   -0.6943    0.0894   -1.7928 H   0  0  0  0  0  0  0  0  0  0  0  0
    0.0633   -1.4948   -1.5873 H   0  0  0  0  0  0  0  0  0  0  0  0
    0.7850   -1.0580    0.7046 H   0  0  0  0  0  0  0  0  0  0  0  0
   -0.9987   -0.8366    0.5704 H   0  0  0  0  0  0  0  0  0  0  0  0
   -0.3807    1.1671    1.5818 H   0  0  0  0  0  0  0  0  0  0  0  0
   -0.0953    1.6919    0.0396 H   0  0  0  0  0  0  0  0  0  0  0  0
    1.6088   -1.7151    1.0641 H   0  0  0  0  0 15  0  0  0  0  0  0
  1  2  1  0
  1  4  1  0
  1  5  1  0
  1  6  1  0
  2  3  1  0
  2  7  1  0
  2  8  1  0
  3  9  1  0
  3 10  1  0
M  END
>  <reaction>  (4) 
rxn_112

>  <mol_properties>  (4) 
{"1": {"label": "*3", "atom_type": "Cs"}, "2": {"label": "*4", "atom_type": "N3s"}, "6": {"label": "*2", "atom_type": "H0"}, "10": {"label": "*1", "atom_type": "H0"}}

>  <type>  (4) 
ts

$$$$

     RDKit          3D

 11  9  0  0  0  0  0  0  0  0999 V2000
   -0.0424   -0.4300   -1.2423 C   0  0  0  0  0  0  0  0  0  0  0  0
   -0.0424   -0.4300    0.2830 C   0  0  0  0  0  0  0  0  0  0  0  0
   -0.0424    0.8839    0.9124 N   0  0  0  0  0  0  0  0  0  0  0  0
    0.8410    0.0832   -1.6305 H   0  0  0  0  0  0  0  0  0  0  0  0
   -0.9257    0.0832   -1.6305 H   0  0  0  0  0  0  0  0  0  0  0  0
   -0.0424   -1.4477   -1.6396 H   0  0  0  0  0  0  0  0  0  0  0  0
    1.0056   -1.0842    0.7231 H   0  0  0  0  0  0  0  0  0  0  0  0
   -0.9156   -0.9752    0.6497 H   0  0  0  0  0  0  0  0  0  0  0  0
   -0.8550    1.4142    0.6248 H   0  0  0  0  0  0  0  0  0  0  0  0
    0.7702    1.4142    0.6248 H   0  0  0  0  0  0  0  0  0  0  0  0
    1.7192   -1.5297    1.0228 H   0  0  0  0  0 15  0  0  0  0  0  0
  1  2  1  0
  1  4  1  0
  1  5  1  0
  1  6  1  0
  2  3  1  0
  2  7  1  0
  2  8  1  0
  3  9  1  0
  3 10  1  0
M  END
>  <reaction>  (5) 
rxn_112

>  <mol_properties>  (5) 
{"1": {"label": "*3", "atom_type": "Cs"}, "2": {"label": "*4", "atom_type": "N3s"}, "6": {"label": "*2", "atom_type": "H0"}, "10": {"label": "*1", "atom_type": "H0"}}

>  <type>  (5) 
unop_1

>  <geom_source>  (5) 
Heuristics

$$$$

     RDKit          3D

 11  9  0  0  0  0  0  0  0  0999 V2000
    0.3617    1.4443   -0.0427 N   0  0  0  0  0  0  0  0  0  0  0  0
   -1.1596   -0.4691    0.0528 C   0  0  0  0  0  0  0  0  0  0  0  0
    0.2893   -0.0046    0.0880 C   0  0  0  0  0  0  0  0  0  0  0  0
   -1.1956   -1.5733    0.1591 H   0  0  0  0  0  0  0  0  0  0  0  0
   -1.7309   -0.0060    0.8853 H   0  0  0  0  0  0  0  0  0  0  0  0
   -1.6251   -0.1887   -0.9154 H   0  0  0  0  0  0  0  0  0  0  0  0
    0.7540   -0.3196    1.0478 H   0  0  0  0  0  0  0  0  0  0  0  0
    0.1189    1.6810   -1.0315 H   0  0  0  0  0  0  0  0  0  0  0  0
    1.3630    1.7167    0.0821 H   0  0  0  0  0  0  0  0  0  0  0  0
    1.8122   -1.6147   -0.0679 H   0  0  0  0  0 15  0  0  0  0  0  0
    1.0121   -0.6660   -0.2577 H   0  0  0  0  0  0  0  0  0  0  0  0
  1  3  1  0
  1  8  1  0
  1  9  1  0
  2  3  1  0
  2  4  1  0
  2  5  1  0
  2  6  1  0
  3  7  1  0
  3 11  1  0
M  END
>  <reaction>  (6) 
rxn_112

>  <mol_properties>  (6) 
{"1": {"label": "*3", "atom_type": "Cs"}, "2": {"label": "*4", "atom_type": "N3s"}, "6": {"label": "*2", "atom_type": "H0"}, "10": {"label": "*1", "atom_type": "H0"}}

>  <type>  (6) 
unop_2

>  <geom_source>  (6) 
AutoTST

$$$$
