
     RDKit          3D

  7  7  0  0  0  0  0  0  0  0999 V2000
    2.2162   -0.4702   -0.0767 O   0  0  0  0  0  0  0  0  0  0  0  0
    1.0900   -0.1272   -0.0403 C   0  0  0  0  0  0  0  0  0  0  0  0
    0.6125    1.1345   -0.0526 O   0  0  0  0  0  0  0  0  0  0  0  0
   -0.7870    1.1033    0.0040 N   0  0  0  0  0  0  0  0  0  0  0  0
   -1.0656   -0.1341    0.0458 C   0  0  0  0  0  0  0  0  0  0  0  0
   -0.0073   -0.9572    0.0240 O   0  0  0  0  0  0  0  0  0  0  0  0
   -2.0587   -0.5492    0.0957 H   0  0  0  0  0  0  0  0  0  0  0  0
  1  2  2  0
  2  6  1  0
  2  3  1  0
  3  4  1  0
  4  5  2  0
  5  6  1  0
  5  7  1  0
M  END
>  <reaction>  (1) 
rxn_3193

>  <mol_properties>  (1) 
{"4": {"label": "donator", "atom_type": "Cd"}, "6": {"label": "d_hydrogen", "atom_type": "H0"}}

>  <type>  (1) 
r1h

$$$$

     RDKit          3D

  6  6  0  0  0  0  0  0  0  0999 V2000
    1.9594    0.0134   -0.3734 N   0  0  0  0  0  2  0  0  0  0  0  0
    0.7437    0.0051   -0.0788 C   0  0  0  0  0  0  0  0  0  0  0  0
   -0.0745    1.0868    0.0233 O   0  0  0  0  0  0  0  0  0  0  0  0
   -1.3223    0.5972    0.3682 N   0  0  0  0  0  0  0  0  0  0  0  0
   -1.2899   -0.6150    0.4676 N   0  0  0  0  0  0  0  0  0  0  0  0
   -0.0165   -1.0874    0.2015 O   0  0  0  0  0  0  0  0  0  0  0  0
  1  2  2  0
  2  3  1  0
  2  6  1  0
  3  4  1  0
  4  5  2  0
  5  6  1  0
M  RAD  1   1   2
M  END
>  <reaction>  (2) 
rxn_3193

>  <mol_properties>  (2) 
{"0": {"label": "acceptor", "atom_type": "N3d"}}

>  <type>  (2) 
r2

$$$$

     RDKit          3D

  7  7  0  0  0  0  0  0  0  0999 V2000
    1.6064   -0.4313    0.1905 N   0  0  0  0  0  0  0  0  0  0  0  0
    0.3982   -0.1725    0.0701 C   0  0  0  0  0  0  0  0  0  0  0  0
   -0.6051   -1.0481    0.3497 O   0  0  0  0  0  0  0  0  0  0  0  0
   -1.7906   -0.4044    0.0958 N   0  0  0  0  0  0  0  0  0  0  0  0
   -1.5819    0.7348   -0.2956 N   0  0  0  0  0  0  0  0  0  0  0  0
   -0.2229    0.9708   -0.3436 O   0  0  0  0  0  0  0  0  0  0  0  0
    2.1958    0.3506   -0.0669 H   0  0  0  0  0  0  0  0  0  0  0  0
  1  2  2  3
  1  7  1  0
  2  3  1  0
  2  6  1  0
  3  4  1  0
  4  5  2  0
  5  6  1  0
M  END
>  <reaction>  (3) 
rxn_3193

>  <mol_properties>  (3) 
{"0": {"label": "acceptor", "atom_type": "N3d"}, "6": {"label": "a_hydrogen", "atom_type": "H0"}}

>  <type>  (3) 
r2h

$$$$

     RDKit          3D

 13 13  0  0  0  0  0  0  0  0999 V2000
    0.7249    1.6921    0.7866 N   0  0  0  0  0  0  0  0  0  0  0  0
    0.1536    1.9817   -0.2905 C   0  0  0  0  0  0  0  0  0  0  0  0
    0.0161    3.2459   -0.7506 O   0  0  0  0  0  0  0  0  0  0  0  0
   -0.6610    3.1616   -1.9506 N   0  0  0  0  0  0  0  0  0  0  0  0
   -0.9161    1.9989   -2.2113 N   0  0  0  0  0  0  0  0  0  0  0  0
   -0.4333    1.1752   -1.2068 O   0  0  0  0  0  0  0  0  0  0  0  0
   -1.2678   -3.6052    1.2297 O   0  0  0  0  0  0  0  0  0  0  0  0
   -0.4575   -2.7789    1.0199 C   0  0  0  0  0  0  0  0  0  0  0  0
    0.7800   -2.9411    0.5283 O   0  0  0  0  0  0  0  0  0  0  0  0
    1.4143   -1.6659    0.4289 N   0  0  0  0  0  0  0  0  0  0  0  0
    0.5363   -0.8789    0.8708 C   0  0  0  0  0  3  0  0  0  0  0  0
   -0.6219   -1.4135    1.2481 O   0  0  0  0  0  0  0  0  0  0  0  0
    0.7323    0.5822    0.9765 H   0  0  0  0  0  0  0  0  0  0  0  0
  1  2  2  3
  1 13  1  0
  2  3  1  0
  2  6  1  0
  3  4  1  0
  4  5  2  0
  5  6  1  0
  7  8  2  0
  8 12  1  0
  8  9  1  0
  9 10  1  0
 10 11  2  0
 11 12  1  0
M  RAD  1  11   2
M  END
>  <reaction>  (4) 
rxn_3193

>  <mol_properties>  (4) 
{"0": {"label": "*1", "atom_type": "N3d"}, "1": {"label": "*0", "atom_type": "Cd"}, "10": {"label": "*3", "atom_type": "Cd"}, "11": {"label": "*4", "atom_type": "O2s"}, "12": {"label": "*2", "atom_type": "H0"}}

>  <type>  (4) 
ts

$$$$

     RDKit          3D

 13 13  0  0  0  0  0  0  0  0999 V2000
    0.7951    1.5882   -0.6037 N   0  0  0  0  0  0  0  0  0  0  0  0
   -0.1990    2.0409   -0.0137 C   0  0  0  0  0  0  0  0  0  0  0  0
   -0.1589    3.0644    0.8820 O   0  0  0  0  0  0  0  0  0  0  0  0
   -1.4437    3.2773    1.3158 N   0  0  0  0  0  0  0  0  0  0  0  0
   -2.2117    2.4962    0.7733 N   0  0  0  0  0  0  0  0  0  0  0  0
   -1.5120    1.6739   -0.0865 O   0  0  0  0  0  0  0  0  0  0  0  0
    0.7951   -3.8717    0.7846 O   0  0  0  0  0  0  0  0  0  0  0  0
    0.7951   -2.9389    0.0656 C   0  0  0  0  0  0  0  0  0  0  0  0
    0.7951   -2.9389   -1.2835 O   0  0  0  0  0  0  0  0  0  0  0  0
    0.7951   -1.6175   -1.7492 N   0  0  0  0  0  0  0  0  0  0  0  0
    0.7951   -0.9183   -0.6902 C   0  0  0  0  0  3  0  0  0  0  0  0
    0.7951   -1.6174    0.4540 O   0  0  0  0  0  0  0  0  0  0  0  0
    0.7951    0.3740   -0.6456 H   0  0  0  0  0  0  0  0  0  0  0  0
  1  2  2  3
  1 13  1  0
  2  3  1  0
  2  6  1  0
  3  4  1  0
  4  5  2  0
  5  6  1  0
  7  8  2  0
  8 12  1  0
  8  9  1  0
  9 10  1  0
 10 11  2  0
 11 12  1  0
M  RAD  1  11   2
M  END
>  <reaction>  (5) 
rxn_3193

>  <mol_properties>  (5) 
{"0": {"label": "*1", "atom_type": "N3d"}, "1": {"label": "*0", "atom_type": "Cd"}, "10": {"label": "*3", "atom_type": "Cd"}, "11": {"label": "*4", "atom_type": "O2s"}, "12": {"label": "*2", "atom_type": "H0"}}

>  <type>  (5) 
unop_1

>  <geom_source>  (5) 
Heuristics

$$$$

     RDKit          3D

 13 13  0  0  0  0  0  0  0  0999 V2000
    0.4703    1.5390    0.6726 N   0  0  0  0  0  0  0  0  0  0  0  0
   -0.1036    2.0459   -0.3047 C   0  0  0  0  0  0  0  0  0  0  0  0
   -0.5724    3.3228   -0.3411 O   0  0  0  0  0  0  0  0  0  0  0  0
   -1.1384    3.5142   -1.5770 N   0  0  0  0  0  0  0  0  0  0  0  0
   -1.0477    2.4974   -2.2495 N   0  0  0  0  0  0  0  0  0  0  0  0
   -0.4059    1.5135   -1.5249 O   0  0  0  0  0  0  0  0  0  0  0  0
    0.4703   -3.9209    2.0609 O   0  0  0  0  0  0  0  0  0  0  0  0
    0.4703   -2.9880    1.3418 C   0  0  0  0  0  0  0  0  0  0  0  0
    0.4703   -2.9880   -0.0073 O   0  0  0  0  0  0  0  0  0  0  0  0
    0.4703   -1.6667   -0.4729 N   0  0  0  0  0  0  0  0  0  0  0  0
    0.4703   -0.9674    0.5860 C   0  0  0  0  0  3  0  0  0  0  0  0
    0.4703   -1.6666    1.7302 O   0  0  0  0  0  0  0  0  0  0  0  0
    0.4703    0.3248    0.6306 H   0  0  0  0  0  0  0  0  0  0  0  0
  1  2  2  3
  1 13  1  0
  2  3  1  0
  2  6  1  0
  3  4  1  0
  4  5  2  0
  5  6  1  0
  7  8  2  0
  8 12  1  0
  8  9  1  0
  9 10  1  0
 10 11  2  0
 11 12  1  0
M  RAD  1  11   2
M  END
>  <reaction>  (6) 
rxn_3193

>  <mol_properties>  (6) 
{"0": {"label": "*1", "atom_type": "N3d"}, "1": {"label": "*0", "atom_type": "Cd"}, "10": {"label": "*3", "atom_type": "Cd"}, "11": {"label": "*4", "atom_type": "O2s"}, "12": {"label": "*2", "atom_type": "H0"}}

>  <type>  (6) 
unop_2

>  <geom_source>  (6) 
Heuristics

$$$$

     RDKit          3D

 13 13  0  0  0  0  0  0  0  0999 V2000
    0.4516    1.5969   -0.9340 N   0  0  0  0  0  0  0  0  0  0  0  0
   -0.1223    2.0352    0.0758 C   0  0  0  0  0  0  0  0  0  0  0  0
    0.2233    3.1852    0.7158 O   0  0  0  0  0  0  0  0  0  0  0  0
   -0.6337    3.3343    1.7776 N   0  0  0  0  0  0  0  0  0  0  0  0
   -1.4272    2.4052    1.8188 N   0  0  0  0  0  0  0  0  0  0  0  0
   -1.1790    1.5323    0.7789 O   0  0  0  0  0  0  0  0  0  0  0  0
    0.4516   -3.8630    0.4543 O   0  0  0  0  0  0  0  0  0  0  0  0
    0.4516   -2.9302   -0.2648 C   0  0  0  0  0  0  0  0  0  0  0  0
    0.4516   -2.9302   -1.6139 O   0  0  0  0  0  0  0  0  0  0  0  0
    0.4516   -1.6088   -2.0795 N   0  0  0  0  0  0  0  0  0  0  0  0
    0.4516   -0.9096   -1.0205 C   0  0  0  0  0  3  0  0  0  0  0  0
    0.4516   -1.6087    0.1236 O   0  0  0  0  0  0  0  0  0  0  0  0
    0.4516    0.3827   -0.9759 H   0  0  0  0  0  0  0  0  0  0  0  0
  1  2  2  3
  1 13  1  0
  2  3  1  0
  2  6  1  0
  3  4  1  0
  4  5  2  0
  5  6  1  0
  7  8  2  0
  8 12  1  0
  8  9  1  0
  9 10  1  0
 10 11  2  0
 11 12  1  0
M  RAD  1  11   2
M  END
>  <reaction>  (7) 
rxn_3193

>  <mol_properties>  (7) 
{"0": {"label": "*1", "atom_type": "N3d"}, "1": {"label": "*0", "atom_type": "Cd"}, "10": {"label": "*3", "atom_type": "Cd"}, "11": {"label": "*4", "atom_type": "O2s"}, "12": {"label": "*2", "atom_type": "H0"}}

>  <type>  (7) 
unop_3

>  <geom_source>  (7) 
Heuristics

$$$$

     RDKit          3D

 13 13  0  0  0  0  0  0  0  0999 V2000
   -0.8101    1.5536    0.3263 N   0  0  0  0  0  0  0  0  0  0  0  0
    0.1840    2.0460   -0.2310 C   0  0  0  0  0  0  0  0  0  0  0  0
    0.7977    3.1927    0.1689 O   0  0  0  0  0  0  0  0  0  0  0  0
    1.8489    3.4122   -0.6863 N   0  0  0  0  0  0  0  0  0  0  0  0
    1.9071    2.5261   -1.5265 N   0  0  0  0  0  0  0  0  0  0  0  0
    0.8912    1.6156   -1.3166 O   0  0  0  0  0  0  0  0  0  0  0  0
   -0.8101   -3.9063    1.7146 O   0  0  0  0  0  0  0  0  0  0  0  0
   -0.8101   -2.9734    0.9955 C   0  0  0  0  0  0  0  0  0  0  0  0
   -0.8101   -2.9734   -0.3536 O   0  0  0  0  0  0  0  0  0  0  0  0
   -0.8101   -1.6521   -0.8192 N   0  0  0  0  0  0  0  0  0  0  0  0
   -0.8101   -0.9528    0.2398 C   0  0  0  0  0  3  0  0  0  0  0  0
   -0.8101   -1.6520    1.3840 O   0  0  0  0  0  0  0  0  0  0  0  0
   -0.8101    0.3394    0.2844 H   0  0  0  0  0  0  0  0  0  0  0  0
  1  2  2  3
  1 13  1  0
  2  3  1  0
  2  6  1  0
  3  4  1  0
  4  5  2  0
  5  6  1  0
  7  8  2  0
  8 12  1  0
  8  9  1  0
  9 10  1  0
 10 11  2  0
 11 12  1  0
M  RAD  1  11   2
M  END
>  <reaction>  (8) 
rxn_3193

>  <mol_properties>  (8) 
{"0": {"label": "*1", "atom_type": "N3d"}, "1": {"label": "*0", "atom_type": "Cd"}, "10": {"label": "*3", "atom_type": "Cd"}, "11": {"label": "*4", "atom_type": "O2s"}, "12": {"label": "*2", "atom_type": "H0"}}

>  <type>  (8) 
unop_4

>  <geom_source>  (8) 
Heuristics

$$$$

     RDKit          3D

 13 13  0  0  0  0  0  0  0  0999 V2000
   -0.0000    1.5972   -1.0499 N   0  0  0  0  0  0  0  0  0  0  0  0
    0.0000    2.0302    0.1136 C   0  0  0  0  0  0  0  0  0  0  0  0
   -0.0000    3.3511    0.4402 O   0  0  0  0  0  0  0  0  0  0  0  0
    0.0000    3.4323    1.8105 N   0  0  0  0  0  0  0  0  0  0  0  0
    0.0000    2.3139    2.3039 N   0  0  0  0  0  0  0  0  0  0  0  0
    0.0000    1.3622    1.3043 O   0  0  0  0  0  0  0  0  0  0  0  0
   -0.0000   -3.8627    0.3384 O   0  0  0  0  0  0  0  0  0  0  0  0
   -0.0000   -2.9299   -0.3807 C   0  0  0  0  0  0  0  0  0  0  0  0
   -0.0000   -2.9299   -1.7298 O   0  0  0  0  0  0  0  0  0  0  0  0
   -0.0000   -1.6085   -2.1954 N   0  0  0  0  0  0  0  0  0  0  0  0
   -0.0000   -0.9092   -1.1364 C   0  0  0  0  0  3  0  0  0  0  0  0
   -0.0000   -1.6084    0.0078 O   0  0  0  0  0  0  0  0  0  0  0  0
   -0.0000    0.3830   -1.0918 H   0  0  0  0  0  0  0  0  0  0  0  0
  1  2  2  3
  1 13  1  0
  2  3  1  0
  2  6  1  0
  3  4  1  0
  4  5  2  0
  5  6  1  0
  7  8  2  0
  8 12  1  0
  8  9  1  0
  9 10  1  0
 10 11  2  0
 11 12  1  0
M  RAD  1  11   2
M  END
>  <reaction>  (9) 
rxn_3193

>  <mol_properties>  (9) 
{"0": {"label": "*1", "atom_type": "N3d"}, "1": {"label": "*0", "atom_type": "Cd"}, "10": {"label": "*3", "atom_type": "Cd"}, "11": {"label": "*4", "atom_type": "O2s"}, "12": {"label": "*2", "atom_type": "H0"}}

>  <type>  (9) 
unop_5

>  <geom_source>  (9) 
Heuristics

$$$$

     RDKit          3D

 13 13  0  0  0  0  0  0  0  0999 V2000
   -0.9281    1.5719   -0.1418 N   0  0  0  0  0  0  0  0  0  0  0  0
    0.2198    2.0445   -0.1255 C   0  0  0  0  0  0  0  0  0  0  0  0
    0.6090    3.0864    0.6583 O   0  0  0  0  0  0  0  0  0  0  0  0
    1.9369    3.3180    0.3990 N   0  0  0  0  0  0  0  0  0  0  0  0
    2.3510    2.5312   -0.4400 N   0  0  0  0  0  0  0  0  0  0  0  0
    1.3324    1.6857   -0.8307 O   0  0  0  0  0  0  0  0  0  0  0  0
   -0.9281   -3.8880    1.2465 O   0  0  0  0  0  0  0  0  0  0  0  0
   -0.9281   -2.9552    0.5274 C   0  0  0  0  0  0  0  0  0  0  0  0
   -0.9281   -2.9552   -0.8217 O   0  0  0  0  0  0  0  0  0  0  0  0
   -0.9281   -1.6338   -1.2873 N   0  0  0  0  0  0  0  0  0  0  0  0
   -0.9281   -0.9345   -0.2283 C   0  0  0  0  0  3  0  0  0  0  0  0
   -0.9281   -1.6337    0.9158 O   0  0  0  0  0  0  0  0  0  0  0  0
   -0.9281    0.3577   -0.1837 H   0  0  0  0  0  0  0  0  0  0  0  0
  1  2  2  3
  1 13  1  0
  2  3  1  0
  2  6  1  0
  3  4  1  0
  4  5  2  0
  5  6  1  0
  7  8  2  0
  8 12  1  0
  8  9  1  0
  9 10  1  0
 10 11  2  0
 11 12  1  0
M  RAD  1  11   2
M  END
>  <reaction>  (10) 
rxn_3193

>  <mol_properties>  (10) 
{"0": {"label": "*1", "atom_type": "N3d"}, "1": {"label": "*0", "atom_type": "Cd"}, "10": {"label": "*3", "atom_type": "Cd"}, "11": {"label": "*4", "atom_type": "O2s"}, "12": {"label": "*2", "atom_type": "H0"}}

>  <type>  (10) 
unop_6

>  <geom_source>  (10) 
Heuristics

$$$$

     RDKit          3D

 13 13  0  0  0  0  0  0  0  0999 V2000
   -0.7951    1.5882   -0.6037 N   0  0  0  0  0  0  0  0  0  0  0  0
    0.1990    2.0409   -0.0137 C   0  0  0  0  0  0  0  0  0  0  0  0
    0.1589    3.0644    0.8820 O   0  0  0  0  0  0  0  0  0  0  0  0
    1.4437    3.2773    1.3158 N   0  0  0  0  0  0  0  0  0  0  0  0
    2.2118    2.4962    0.7733 N   0  0  0  0  0  0  0  0  0  0  0  0
    1.5120    1.6739   -0.0865 O   0  0  0  0  0  0  0  0  0  0  0  0
   -0.7951   -3.8717    0.7846 O   0  0  0  0  0  0  0  0  0  0  0  0
   -0.7951   -2.9389    0.0656 C   0  0  0  0  0  0  0  0  0  0  0  0
   -0.7951   -2.9389   -1.2835 O   0  0  0  0  0  0  0  0  0  0  0  0
   -0.7951   -1.6175   -1.7492 N   0  0  0  0  0  0  0  0  0  0  0  0
   -0.7951   -0.9183   -0.6902 C   0  0  0  0  0  3  0  0  0  0  0  0
   -0.7951   -1.6175    0.4540 O   0  0  0  0  0  0  0  0  0  0  0  0
   -0.7951    0.3740   -0.6456 H   0  0  0  0  0  0  0  0  0  0  0  0
  1  2  2  3
  1 13  1  0
  2  3  1  0
  2  6  1  0
  3  4  1  0
  4  5  2  0
  5  6  1  0
  7  8  2  0
  8 12  1  0
  8  9  1  0
  9 10  1  0
 10 11  2  0
 11 12  1  0
M  RAD  1  11   2
M  END
>  <reaction>  (11) 
rxn_3193

>  <mol_properties>  (11) 
{"0": {"label": "*1", "atom_type": "N3d"}, "1": {"label": "*0", "atom_type": "Cd"}, "10": {"label": "*3", "atom_type": "Cd"}, "11": {"label": "*4", "atom_type": "O2s"}, "12": {"label": "*2", "atom_type": "H0"}}

>  <type>  (11) 
unop_7

>  <geom_source>  (11) 
Heuristics

$$$$

     RDKit          3D

 13 13  0  0  0  0  0  0  0  0999 V2000
    0.9281    1.5719   -0.1418 N   0  0  0  0  0  0  0  0  0  0  0  0
   -0.2198    2.0445   -0.1255 C   0  0  0  0  0  0  0  0  0  0  0  0
   -0.6090    3.0864    0.6583 O   0  0  0  0  0  0  0  0  0  0  0  0
   -1.9369    3.3180    0.3990 N   0  0  0  0  0  0  0  0  0  0  0  0
   -2.3510    2.5312   -0.4400 N   0  0  0  0  0  0  0  0  0  0  0  0
   -1.3324    1.6857   -0.8307 O   0  0  0  0  0  0  0  0  0  0  0  0
    0.9281   -3.8880    1.2465 O   0  0  0  0  0  0  0  0  0  0  0  0
    0.9281   -2.9552    0.5274 C   0  0  0  0  0  0  0  0  0  0  0  0
    0.9281   -2.9552   -0.8217 O   0  0  0  0  0  0  0  0  0  0  0  0
    0.9281   -1.6338   -1.2873 N   0  0  0  0  0  0  0  0  0  0  0  0
    0.9281   -0.9345   -0.2283 C   0  0  0  0  0  3  0  0  0  0  0  0
    0.9281   -1.6337    0.9158 O   0  0  0  0  0  0  0  0  0  0  0  0
    0.9281    0.3577   -0.1837 H   0  0  0  0  0  0  0  0  0  0  0  0
  1  2  2  3
  1 13  1  0
  2  3  1  0
  2  6  1  0
  3  4  1  0
  4  5  2  0
  5  6  1  0
  7  8  2  0
  8 12  1  0
  8  9  1  0
  9 10  1  0
 10 11  2  0
 11 12  1  0
M  RAD  1  11   2
M  END
>  <reaction>  (12) 
rxn_3193

>  <mol_properties>  (12) 
{"0": {"label": "*1", "atom_type": "N3d"}, "1": {"label": "*0", "atom_type": "Cd"}, "10": {"label": "*3", "atom_type": "Cd"}, "11": {"label": "*4", "atom_type": "O2s"}, "12": {"label": "*2", "atom_type": "H0"}}

>  <type>  (12) 
unop_8

>  <geom_source>  (12) 
Heuristics

$$$$

     RDKit          3D

 13 13  0  0  0  0  0  0  0  0999 V2000
   -0.4703    1.5390    0.6726 N   0  0  0  0  0  0  0  0  0  0  0  0
    0.1036    2.0459   -0.3047 C   0  0  0  0  0  0  0  0  0  0  0  0
    0.5724    3.3228   -0.3411 O   0  0  0  0  0  0  0  0  0  0  0  0
    1.1384    3.5142   -1.5770 N   0  0  0  0  0  0  0  0  0  0  0  0
    1.0477    2.4974   -2.2495 N   0  0  0  0  0  0  0  0  0  0  0  0
    0.4059    1.5135   -1.5249 O   0  0  0  0  0  0  0  0  0  0  0  0
   -0.4703   -3.9209    2.0609 O   0  0  0  0  0  0  0  0  0  0  0  0
   -0.4703   -2.9880    1.3418 C   0  0  0  0  0  0  0  0  0  0  0  0
   -0.4703   -2.9880   -0.0073 O   0  0  0  0  0  0  0  0  0  0  0  0
   -0.4703   -1.6667   -0.4729 N   0  0  0  0  0  0  0  0  0  0  0  0
   -0.4703   -0.9674    0.5860 C   0  0  0  0  0  3  0  0  0  0  0  0
   -0.4703   -1.6666    1.7302 O   0  0  0  0  0  0  0  0  0  0  0  0
   -0.4703    0.3248    0.6306 H   0  0  0  0  0  0  0  0  0  0  0  0
  1  2  2  3
  1 13  1  0
  2  3  1  0
  2  6  1  0
  3  4  1  0
  4  5  2  0
  5  6  1  0
  7  8  2  0
  8 12  1  0
  8  9  1  0
  9 10  1  0
 10 11  2  0
 11 12  1  0
M  RAD  1  11   2
M  END
>  <reaction>  (13) 
rxn_3193

>  <mol_properties>  (13) 
{"0": {"label": "*1", "atom_type": "N3d"}, "1": {"label": "*0", "atom_type": "Cd"}, "10": {"label": "*3", "atom_type": "Cd"}, "11": {"label": "*4", "atom_type": "O2s"}, "12": {"label": "*2", "atom_type": "H0"}}

>  <type>  (13) 
unop_9

>  <geom_source>  (13) 
Heuristics

$$$$

     RDKit          3D

 13 13  0  0  0  0  0  0  0  0999 V2000
    0.8101    1.5536    0.3263 N   0  0  0  0  0  0  0  0  0  0  0  0
   -0.1840    2.0460   -0.2310 C   0  0  0  0  0  0  0  0  0  0  0  0
   -0.7977    3.1927    0.1689 O   0  0  0  0  0  0  0  0  0  0  0  0
   -1.8489    3.4122   -0.6863 N   0  0  0  0  0  0  0  0  0  0  0  0
   -1.9071    2.5261   -1.5265 N   0  0  0  0  0  0  0  0  0  0  0  0
   -0.8912    1.6156   -1.3166 O   0  0  0  0  0  0  0  0  0  0  0  0
    0.8101   -3.9063    1.7146 O   0  0  0  0  0  0  0  0  0  0  0  0
    0.8101   -2.9734    0.9955 C   0  0  0  0  0  0  0  0  0  0  0  0
    0.8101   -2.9734   -0.3536 O   0  0  0  0  0  0  0  0  0  0  0  0
    0.8101   -1.6521   -0.8192 N   0  0  0  0  0  0  0  0  0  0  0  0
    0.8101   -0.9528    0.2398 C   0  0  0  0  0  3  0  0  0  0  0  0
    0.8101   -1.6520    1.3840 O   0  0  0  0  0  0  0  0  0  0  0  0
    0.8101    0.3394    0.2844 H   0  0  0  0  0  0  0  0  0  0  0  0
  1  2  2  3
  1 13  1  0
  2  3  1  0
  2  6  1  0
  3  4  1  0
  4  5  2  0
  5  6  1  0
  7  8  2  0
  8 12  1  0
  8  9  1  0
  9 10  1  0
 10 11  2  0
 11 12  1  0
M  RAD  1  11   2
M  END
>  <reaction>  (14) 
rxn_3193

>  <mol_properties>  (14) 
{"0": {"label": "*1", "atom_type": "N3d"}, "1": {"label": "*0", "atom_type": "Cd"}, "10": {"label": "*3", "atom_type": "Cd"}, "11": {"label": "*4", "atom_type": "O2s"}, "12": {"label": "*2", "atom_type": "H0"}}

>  <type>  (14) 
unop_10

>  <geom_source>  (14) 
Heuristics

$$$$

     RDKit          3D

 13 13  0  0  0  0  0  0  0  0999 V2000
   -0.4516    1.5969   -0.9340 N   0  0  0  0  0  0  0  0  0  0  0  0
    0.1223    2.0352    0.0758 C   0  0  0  0  0  0  0  0  0  0  0  0
   -0.2233    3.1852    0.7158 O   0  0  0  0  0  0  0  0  0  0  0  0
    0.6337    3.3343    1.7776 N   0  0  0  0  0  0  0  0  0  0  0  0
    1.4272    2.4052    1.8188 N   0  0  0  0  0  0  0  0  0  0  0  0
    1.1791    1.5323    0.7789 O   0  0  0  0  0  0  0  0  0  0  0  0
   -0.4516   -3.8630    0.4543 O   0  0  0  0  0  0  0  0  0  0  0  0
   -0.4516   -2.9302   -0.2648 C   0  0  0  0  0  0  0  0  0  0  0  0
   -0.4516   -2.9302   -1.6139 O   0  0  0  0  0  0  0  0  0  0  0  0
   -0.4516   -1.6088   -2.0795 N   0  0  0  0  0  0  0  0  0  0  0  0
   -0.4516   -0.9096   -1.0205 C   0  0  0  0  0  3  0  0  0  0  0  0
   -0.4516   -1.6087    0.1236 O   0  0  0  0  0  0  0  0  0  0  0  0
   -0.4516    0.3827   -0.9759 H   0  0  0  0  0  0  0  0  0  0  0  0
  1  2  2  3
  1 13  1  0
  2  3  1  0
  2  6  1  0
  3  4  1  0
  4  5  2  0
  5  6  1  0
  7  8  2  0
  8 12  1  0
  8  9  1  0
  9 10  1  0
 10 11  2  0
 11 12  1  0
M  RAD  1  11   2
M  END
>  <reaction>  (15) 
rxn_3193

>  <mol_properties>  (15) 
{"0": {"label": "*1", "atom_type": "N3d"}, "1": {"label": "*0", "atom_type": "Cd"}, "10": {"label": "*3", "atom_type": "Cd"}, "11": {"label": "*4", "atom_type": "O2s"}, "12": {"label": "*2", "atom_type": "H0"}}

>  <type>  (15) 
unop_11

>  <geom_source>  (15) 
Heuristics

$$$$

     RDKit          3D

 13 13  0  0  0  0  0  0  0  0999 V2000
    0.0000    1.5333    0.8002 N   0  0  0  0  0  0  0  0  0  0  0  0
   -0.0000    2.0455   -0.3307 C   0  0  0  0  0  0  0  0  0  0  0  0
   -0.0000    3.3858   -0.5654 O   0  0  0  0  0  0  0  0  0  0  0  0
   -0.0000    3.5614   -1.9269 N   0  0  0  0  0  0  0  0  0  0  0  0
   -0.0000    2.4796   -2.4962 N   0  0  0  0  0  0  0  0  0  0  0  0
   -0.0000    1.4612   -1.5646 O   0  0  0  0  0  0  0  0  0  0  0  0
    0.0000   -3.9266    2.1885 O   0  0  0  0  0  0  0  0  0  0  0  0
    0.0000   -2.9937    1.4694 C   0  0  0  0  0  0  0  0  0  0  0  0
    0.0000   -2.9937    0.1203 O   0  0  0  0  0  0  0  0  0  0  0  0
    0.0000   -1.6724   -0.3453 N   0  0  0  0  0  0  0  0  0  0  0  0
    0.0000   -0.9731    0.7137 C   0  0  0  0  0  3  0  0  0  0  0  0
    0.0000   -1.6723    1.8578 O   0  0  0  0  0  0  0  0  0  0  0  0
    0.0000    0.3191    0.7583 H   0  0  0  0  0  0  0  0  0  0  0  0
  1  2  2  3
  1 13  1  0
  2  3  1  0
  2  6  1  0
  3  4  1  0
  4  5  2  0
  5  6  1  0
  7  8  2  0
  8 12  1  0
  8  9  1  0
  9 10  1  0
 10 11  2  0
 11 12  1  0
M  RAD  1  11   2
M  END
>  <reaction>  (16) 
rxn_3193

>  <mol_properties>  (16) 
{"0": {"label": "*1", "atom_type": "N3d"}, "1": {"label": "*0", "atom_type": "Cd"}, "10": {"label": "*3", "atom_type": "Cd"}, "11": {"label": "*4", "atom_type": "O2s"}, "12": {"label": "*2", "atom_type": "H0"}}

>  <type>  (16) 
unop_12

>  <geom_source>  (16) 
Heuristics

$$$$

     RDKit          3D

 13 13  0  0  0  0  0  0  0  0999 V2000
    0.8101    1.5536    0.3263 N   0  0  0  0  0  0  0  0  0  0  0  0
   -0.1840    2.0460   -0.2310 C   0  0  0  0  0  0  0  0  0  0  0  0
   -0.7977    3.1927    0.1689 O   0  0  0  0  0  0  0  0  0  0  0  0
   -1.8489    3.4122   -0.6863 N   0  0  0  0  0  0  0  0  0  0  0  0
   -1.9071    2.5261   -1.5265 N   0  0  0  0  0  0  0  0  0  0  0  0
   -0.8912    1.6156   -1.3166 O   0  0  0  0  0  0  0  0  0  0  0  0
    0.8101   -3.9063    1.7146 O   0  0  0  0  0  0  0  0  0  0  0  0
    0.8101   -2.9734    0.9956 C   0  0  0  0  0  0  0  0  0  0  0  0
    0.8101   -2.9734   -0.3536 O   0  0  0  0  0  0  0  0  0  0  0  0
    0.8101   -1.6521   -0.8192 N   0  0  0  0  0  0  0  0  0  0  0  0
    0.8101   -0.9528    0.2398 C   0  0  0  0  0  3  0  0  0  0  0  0
    0.8101   -1.6520    1.3840 O   0  0  0  0  0  0  0  0  0  0  0  0
    0.8101    0.3394    0.2844 H   0  0  0  0  0  0  0  0  0  0  0  0
  1  2  2  3
  1 13  1  0
  2  3  1  0
  2  6  1  0
  3  4  1  0
  4  5  2  0
  5  6  1  0
  7  8  2  0
  8 12  1  0
  8  9  1  0
  9 10  1  0
 10 11  2  0
 11 12  1  0
M  RAD  1  11   2
M  END
>  <reaction>  (17) 
rxn_3193

>  <mol_properties>  (17) 
{"0": {"label": "*1", "atom_type": "N3d"}, "1": {"label": "*0", "atom_type": "Cd"}, "10": {"label": "*3", "atom_type": "Cd"}, "11": {"label": "*4", "atom_type": "O2s"}, "12": {"label": "*2", "atom_type": "H0"}}

>  <type>  (17) 
unop_13

>  <geom_source>  (17) 
gaussian_log

$$$$
