
     RDKit          3D

 16 15  0  0  0  0  0  0  0  0999 V2000
    1.7961   -0.3807    1.6176 C   0  0  0  0  0  0  0  0  0  0  0  0
    0.8562   -0.8708    0.8256 C   0  0  0  0  0  0  0  0  0  0  0  0
    0.0895   -0.0826   -0.2048 C   0  0  0  0  0  0  0  0  0  0  0  0
   -1.4061   -0.1111    0.0982 C   0  0  0  0  0  0  0  0  0  0  0  0
    0.4476   -0.5902   -1.5797 C   0  0  0  0  0  0  0  0  0  0  0  0
   -0.3793   -1.1113   -2.4728 C   0  0  0  0  0  0  0  0  0  0  0  0
    2.3110   -1.0032    2.3386 H   0  0  0  0  0  0  0  0  0  0  0  0
    2.0846    0.6643    1.5737 H   0  0  0  0  0  0  0  0  0  0  0  0
    0.5921   -1.9241    0.8925 H   0  0  0  0  0  0  0  0  0  0  0  0
    0.4358    0.9557   -0.1462 H   0  0  0  0  0  0  0  0  0  0  0  0
   -1.5968    0.3080    1.0865 H   0  0  0  0  0  0  0  0  0  0  0  0
   -1.9674    0.4693   -0.6359 H   0  0  0  0  0  0  0  0  0  0  0  0
   -1.7902   -1.1338    0.0883 H   0  0  0  0  0  0  0  0  0  0  0  0
    1.5049   -0.5197   -1.8214 H   0  0  0  0  0  0  0  0  0  0  0  0
   -1.4421   -1.2131   -2.2889 H   0  0  0  0  0  0  0  0  0  0  0  0
   -0.0162   -1.4558   -3.4328 H   0  0  0  0  0  0  0  0  0  0  0  0
  1  2  2  3
  1  7  1  0
  1  8  1  0
  2  3  1  0
  2  9  1  0
  3  4  1  0
  3  5  1  0
  3 10  1  0
  4 11  1  0
  4 12  1  0
  4 13  1  0
  5  6  2  3
  5 14  1  0
  6 15  1  0
  6 16  1  0
M  END
>  <reaction>  (1) 
rxn_1204

>  <mol_properties>  (1) 
{"2": {"label": "donator", "atom_type": "Cs"}, "9": {"label": "d_hydrogen", "atom_type": "H0"}}

>  <type>  (1) 
r1h

$$$$

     RDKit          3D

  7  6  0  0  0  0  0  0  0  0999 V2000
   -2.0652    0.3855   -0.2963 S   0  0  0  0  0  0  0  0  0  0  0  0
   -0.7169   -0.5853    0.1792 C   0  0  0  0  0  3  0  0  0  0  0  0
    0.5987   -0.2168    0.0254 C   0  0  0  0  0  0  0  0  0  0  0  0
    1.7547    0.1211   -0.1163 C   0  0  0  0  0  0  0  0  0  0  0  0
   -1.3643    1.4227   -0.7731 H   0  0  0  0  0  0  0  0  0  0  0  0
   -0.9781   -1.5363    0.6220 H   0  0  0  0  0  0  0  0  0  0  0  0
    2.7711    0.4089   -0.2366 H   0  0  0  0  0  0  0  0  0  0  0  0
  1  2  1  0
  1  5  1  0
  2  3  1  0
  2  6  1  0
  3  4  3  0
  4  7  1  0
M  RAD  1   2   2
M  END
>  <reaction>  (2) 
rxn_1204

>  <mol_properties>  (2) 
{"1": {"label": "acceptor", "atom_type": "Cs"}}

>  <type>  (2) 
r2

$$$$

     RDKit          3D

  8  7  0  0  0  0  0  0  0  0999 V2000
   -0.7014    1.0753    1.5530 S   0  0  0  0  0  0  0  0  0  0  0  0
   -0.3105   -0.4583    0.6462 C   0  0  0  0  0  0  0  0  0  0  0  0
    0.0935   -0.2424   -0.7319 C   0  0  0  0  0  0  0  0  0  0  0  0
    0.4431   -0.0604   -1.8621 C   0  0  0  0  0  0  0  0  0  0  0  0
    0.4994    1.6466    1.3970 H   0  0  0  0  0  0  0  0  0  0  0  0
   -1.2277   -1.0477    0.6819 H   0  0  0  0  0  0  0  0  0  0  0  0
    0.4563   -1.0151    1.1841 H   0  0  0  0  0  0  0  0  0  0  0  0
    0.7474    0.1020   -2.8681 H   0  0  0  0  0  0  0  0  0  0  0  0
  1  2  1  0
  1  5  1  0
  2  3  1  0
  2  6  1  0
  2  7  1  0
  3  4  3  0
  4  8  1  0
M  END
>  <reaction>  (3) 
rxn_1204

>  <mol_properties>  (3) 
{"1": {"label": "acceptor", "atom_type": "Cs"}, "7": {"label": "a_hydrogen", "atom_type": "H0"}}

>  <type>  (3) 
r2h

$$$$

     RDKit          3D

 23 21  0  0  0  0  0  0  0  0999 V2000
   -1.3014    1.6550   -1.2040 S   0  0  0  0  0  0  0  0  0  0  0  0
    0.1376    1.6748   -0.1665 C   0  0  0  0  0  3  0  0  0  0  0  0
    1.4144    1.7870   -0.7696 C   0  0  0  0  0  0  0  0  0  0  0  0
    2.5081    1.7890   -1.2713 C   0  0  0  0  0  0  0  0  0  0  0  0
   -0.8353    0.7558   -2.0820 H   0  0  0  0  0  0  0  0  0  0  0  0
   -0.0317    2.3071    0.7010 H   0  0  0  0  0  0  0  0  0  0  0  0
    3.4718    1.8256   -1.7193 H   0  0  0  0  0  0  0  0  0  0  0  0
   -0.4330   -2.3654   -0.9328 C   0  0  0  0  0  0  0  0  0  0  0  0
    0.4297   -1.5829   -0.2868 C   0  0  0  0  0  0  0  0  0  0  0  0
    0.1898   -0.8008    0.9412 C   0  0  0  0  0  0  0  0  0  0  0  0
    1.3848   -0.7112    1.8664 C   0  0  0  0  0  0  0  0  0  0  0  0
   -1.1403   -0.9064    1.5626 C   0  0  0  0  0  0  0  0  0  0  0  0
   -1.4003   -0.8754    2.8674 C   0  0  0  0  0  0  0  0  0  0  0  0
   -0.1452   -2.8639   -1.8495 H   0  0  0  0  0  0  0  0  0  0  0  0
   -1.4351   -2.5533   -0.5685 H   0  0  0  0  0  0  0  0  0  0  0  0
    1.4247   -1.4594   -0.7072 H   0  0  0  0  0  0  0  0  0  0  0  0
    0.1538    0.3967    0.4375 H   0  0  0  0  0  0  0  0  0  0  0  0
    2.2917   -0.5081    1.2953 H   0  0  0  0  0  0  0  0  0  0  0  0
    1.2620    0.0907    2.5961 H   0  0  0  0  0  0  0  0  0  0  0  0
    1.5294   -1.6472    2.4130 H   0  0  0  0  0  0  0  0  0  0  0  0
   -1.9762   -0.9631    0.8723 H   0  0  0  0  0  0  0  0  0  0  0  0
   -0.6174   -0.8182    3.6137 H   0  0  0  0  0  0  0  0  0  0  0  0
   -2.4187   -0.9196    3.2312 H   0  0  0  0  0  0  0  0  0  0  0  0
  1  2  1  0
  1  5  1  0
  2  3  1  0
  2  6  1  0
  3  4  3  0
  4  7  1  0
  8  9  2  3
  8 14  1  0
  8 15  1  0
  9 10  1  0
  9 16  1  0
 10 11  1  0
 10 12  1  0
 10 17  1  0
 11 18  1  0
 11 19  1  0
 11 20  1  0
 12 13  2  3
 12 21  1  0
 13 22  1  0
 13 23  1  0
M  RAD  1   2   2
M  END
>  <reaction>  (4) 
rxn_1204

>  <mol_properties>  (4) 
{"0": {"label": "*4", "atom_type": "S2s"}, "1": {"label": "*3", "atom_type": "Cs"}, "8": {"label": "*0", "atom_type": "Cd"}, "9": {"label": "*1", "atom_type": "Cs"}, "16": {"label": "*2", "atom_type": "H0"}}

>  <type>  (4) 
ts

$$$$

     RDKit          3D

 23 21  0  0  0  0  0  0  0  0999 V2000
   -1.1713    1.9752   -0.3152 S   0  0  0  0  0  0  0  0  0  0  0  0
    0.3488    1.0406   -0.6930 C   0  0  0  0  0  0  0  0  0  0  0  0
    0.9047    1.3230   -2.0046 C   0  0  0  0  0  0  0  0  0  0  0  0
    1.3629    1.5557   -3.0856 C   0  0  0  0  0  0  0  0  0  0  0  0
   -0.6336    3.1926   -0.4615 H   0  0  0  0  0  0  0  0  0  0  0  0
    1.0950    1.2298    0.0783 H   0  0  0  0  0  0  0  0  0  0  0  0
    1.7700    1.7625   -4.0461 H   0  0  0  0  0  0  0  0  0  0  0  0
    0.2758   -2.2739   -1.2918 C   0  0  0  0  0  0  0  0  0  0  0  0
    0.2758   -2.2739    0.0315 C   0  0  0  0  0  0  0  0  0  0  0  0
    0.2758   -1.0431    0.9009 C   0  0  0  0  0  3  0  0  0  0  0  0
    1.5142   -1.0133    1.7925 C   0  0  0  0  0  0  0  0  0  0  0  0
   -1.0277   -0.9745    1.6574 C   0  0  0  0  0  0  0  0  0  0  0  0
   -1.1823   -0.9743    2.9723 C   0  0  0  0  0  0  0  0  0  0  0  0
    0.2751   -3.1965   -1.8585 H   0  0  0  0  0  0  0  0  0  0  0  0
    0.2776   -1.3481   -1.8575 H   0  0  0  0  0  0  0  0  0  0  0  0
    0.2711   -3.2197    0.5691 H   0  0  0  0  0  0  0  0  0  0  0  0
    0.3124    0.0012    0.1021 H   0  0  0  0  0  0  0  0  0  0  0  0
    2.4170   -1.0217    1.1812 H   0  0  0  0  0  0  0  0  0  0  0  0
    1.5289   -0.1176    2.4156 H   0  0  0  0  0  0  0  0  0  0  0  0
    1.5468   -1.8851    2.4501 H   0  0  0  0  0  0  0  0  0  0  0  0
   -1.9109   -0.9388    1.0249 H   0  0  0  0  0  0  0  0  0  0  0  0
   -0.3420   -1.0136    3.6549 H   0  0  0  0  0  0  0  0  0  0  0  0
   -2.1687   -0.9312    3.4165 H   0  0  0  0  0  0  0  0  0  0  0  0
  1  2  1  0
  1  5  1  0
  2  3  1  0
  2  6  1  0
  2 17  1  0
  3  4  3  0
  4  7  1  0
  8  9  2  3
  8 14  1  0
  8 15  1  0
  9 10  1  0
  9 16  1  0
 10 11  1  0
 10 12  1  0
 11 18  1  0
 11 19  1  0
 11 20  1  0
 12 13  2  3
 12 21  1  0
 13 22  1  0
 13 23  1  0
M  RAD  1  10   2
M  END
>  <reaction>  (5) 
rxn_1204

>  <mol_properties>  (5) 
{"0": {"label": "*4", "atom_type": "S2s"}, "1": {"label": "*3", "atom_type": "Cs"}, "8": {"label": "*0", "atom_type": "Cd"}, "9": {"label": "*1", "atom_type": "Cs"}, "16": {"label": "*2", "atom_type": "H0"}}

>  <type>  (5) 
unop_1

>  <geom_source>  (5) 
Heuristics

$$$$

     RDKit          3D

 23 21  0  0  0  0  0  0  0  0999 V2000
   -0.7844    0.6923   -2.0544 S   0  0  0  0  0  0  0  0  0  0  0  0
    0.0701    1.2316   -0.5358 C   0  0  0  0  0  0  0  0  0  0  0  0
    1.2551    2.0351   -0.7790 C   0  0  0  0  0  0  0  0  0  0  0  0
    2.2318    2.6973   -0.9794 C   0  0  0  0  0  0  0  0  0  0  0  0
   -1.0118    1.9202   -2.5371 H   0  0  0  0  0  0  0  0  0  0  0  0
   -0.6265    1.7756    0.1015 H   0  0  0  0  0  0  0  0  0  0  0  0
    3.0997    3.2857   -1.1574 H   0  0  0  0  0  0  0  0  0  0  0  0
   -0.0030   -2.0829   -1.1346 C   0  0  0  0  0  0  0  0  0  0  0  0
   -0.0030   -2.0829    0.1886 C   0  0  0  0  0  0  0  0  0  0  0  0
   -0.0030   -0.8521    1.0580 C   0  0  0  0  0  3  0  0  0  0  0  0
    1.2354   -0.8223    1.9496 C   0  0  0  0  0  0  0  0  0  0  0  0
   -1.3065   -0.7835    1.8145 C   0  0  0  0  0  0  0  0  0  0  0  0
   -1.4611   -0.7833    3.1295 C   0  0  0  0  0  0  0  0  0  0  0  0
   -0.0037   -3.0055   -1.7013 H   0  0  0  0  0  0  0  0  0  0  0  0
   -0.0012   -1.1571   -1.7003 H   0  0  0  0  0  0  0  0  0  0  0  0
   -0.0077   -3.0287    0.7262 H   0  0  0  0  0  0  0  0  0  0  0  0
    0.0336    0.1922    0.2592 H   0  0  0  0  0  0  0  0  0  0  0  0
    2.1382   -0.8307    1.3384 H   0  0  0  0  0  0  0  0  0  0  0  0
    1.2501    0.0734    2.5727 H   0  0  0  0  0  0  0  0  0  0  0  0
    1.2680   -1.6941    2.6072 H   0  0  0  0  0  0  0  0  0  0  0  0
   -2.1896   -0.7478    1.1820 H   0  0  0  0  0  0  0  0  0  0  0  0
   -0.6207   -0.8226    3.8120 H   0  0  0  0  0  0  0  0  0  0  0  0
   -2.4475   -0.7402    3.5737 H   0  0  0  0  0  0  0  0  0  0  0  0
  1  2  1  0
  1  5  1  0
  2  3  1  0
  2  6  1  0
  2 17  1  0
  3  4  3  0
  4  7  1  0
  8  9  2  3
  8 14  1  0
  8 15  1  0
  9 10  1  0
  9 16  1  0
 10 11  1  0
 10 12  1  0
 11 18  1  0
 11 19  1  0
 11 20  1  0
 12 13  2  3
 12 21  1  0
 13 22  1  0
 13 23  1  0
M  RAD  1  10   2
M  END
>  <reaction>  (6) 
rxn_1204

>  <mol_properties>  (6) 
{"0": {"label": "*4", "atom_type": "S2s"}, "1": {"label": "*3", "atom_type": "Cs"}, "8": {"label": "*0", "atom_type": "Cd"}, "9": {"label": "*1", "atom_type": "Cs"}, "16": {"label": "*2", "atom_type": "H0"}}

>  <type>  (6) 
unop_2

>  <geom_source>  (6) 
Heuristics

$$$$

     RDKit          3D

 23 21  0  0  0  0  0  0  0  0999 V2000
   -0.4982    2.3305    0.1360 S   0  0  0  0  0  0  0  0  0  0  0  0
    0.3828    1.0148   -0.7694 C   0  0  0  0  0  0  0  0  0  0  0  0
    0.2076    1.0705   -2.2100 C   0  0  0  0  0  0  0  0  0  0  0  0
    0.0633    1.1165   -3.3973 C   0  0  0  0  0  0  0  0  0  0  0  0
    0.1043    3.3571   -0.4768 H   0  0  0  0  0  0  0  0  0  0  0  0
    1.4430    1.0467   -0.5199 H   0  0  0  0  0  0  0  0  0  0  0  0
   -0.0650    1.1573   -4.4523 H   0  0  0  0  0  0  0  0  0  0  0  0
    0.3098   -2.2997   -1.3682 C   0  0  0  0  0  0  0  0  0  0  0  0
    0.3098   -2.2997   -0.0450 C   0  0  0  0  0  0  0  0  0  0  0  0
    0.3098   -1.0690    0.8244 C   0  0  0  0  0  3  0  0  0  0  0  0
    1.5481   -1.0392    1.7160 C   0  0  0  0  0  0  0  0  0  0  0  0
   -0.9938   -1.0004    1.5809 C   0  0  0  0  0  0  0  0  0  0  0  0
   -1.1484   -1.0001    2.8959 C   0  0  0  0  0  0  0  0  0  0  0  0
    0.3090   -3.2224   -1.9349 H   0  0  0  0  0  0  0  0  0  0  0  0
    0.3115   -1.3739   -1.9339 H   0  0  0  0  0  0  0  0  0  0  0  0
    0.3050   -3.2456    0.4927 H   0  0  0  0  0  0  0  0  0  0  0  0
    0.3464   -0.0246    0.0256 H   0  0  0  0  0  0  0  0  0  0  0  0
    2.4509   -1.0475    1.1048 H   0  0  0  0  0  0  0  0  0  0  0  0
    1.5628   -0.1434    2.3391 H   0  0  0  0  0  0  0  0  0  0  0  0
    1.5807   -1.9109    2.3736 H   0  0  0  0  0  0  0  0  0  0  0  0
   -1.8769   -0.9647    0.9484 H   0  0  0  0  0  0  0  0  0  0  0  0
   -0.3080   -1.0395    3.5784 H   0  0  0  0  0  0  0  0  0  0  0  0
   -2.1348   -0.9570    3.3401 H   0  0  0  0  0  0  0  0  0  0  0  0
  1  2  1  0
  1  5  1  0
  2  3  1  0
  2  6  1  0
  2 17  1  0
  3  4  3  0
  4  7  1  0
  8  9  2  3
  8 14  1  0
  8 15  1  0
  9 10  1  0
  9 16  1  0
 10 11  1  0
 10 12  1  0
 11 18  1  0
 11 19  1  0
 11 20  1  0
 12 13  2  3
 12 21  1  0
 13 22  1  0
 13 23  1  0
M  RAD  1  10   2
M  END
>  <reaction>  (7) 
rxn_1204

>  <mol_properties>  (7) 
{"0": {"label": "*4", "atom_type": "S2s"}, "1": {"label": "*3", "atom_type": "Cs"}, "8": {"label": "*0", "atom_type": "Cd"}, "9": {"label": "*1", "atom_type": "Cs"}, "16": {"label": "*2", "atom_type": "H0"}}

>  <type>  (7) 
unop_3

>  <geom_source>  (7) 
Heuristics

$$$$

     RDKit          3D

 23 21  0  0  0  0  0  0  0  0999 V2000
    1.3410    0.9869   -1.9571 S   0  0  0  0  0  0  0  0  0  0  0  0
   -0.2054    1.1747   -1.0081 C   0  0  0  0  0  0  0  0  0  0  0  0
   -0.0472    1.8987    0.2408 C   0  0  0  0  0  0  0  0  0  0  0  0
    0.0831    2.4954    1.2702 C   0  0  0  0  0  0  0  0  0  0  0  0
    1.5960    2.2955   -2.0798 H   0  0  0  0  0  0  0  0  0  0  0  0
   -0.9582    1.6595   -1.6289 H   0  0  0  0  0  0  0  0  0  0  0  0
    0.1989    3.0256    2.1848 H   0  0  0  0  0  0  0  0  0  0  0  0
   -0.2784   -2.1398   -1.6069 C   0  0  0  0  0  0  0  0  0  0  0  0
   -0.2784   -2.1398   -0.2837 C   0  0  0  0  0  0  0  0  0  0  0  0
   -0.2784   -0.9091    0.5857 C   0  0  0  0  0  3  0  0  0  0  0  0
    0.9600   -0.8793    1.4773 C   0  0  0  0  0  0  0  0  0  0  0  0
   -1.5819   -0.8405    1.3423 C   0  0  0  0  0  0  0  0  0  0  0  0
   -1.7365   -0.8403    2.6572 C   0  0  0  0  0  0  0  0  0  0  0  0
   -0.2791   -3.0625   -2.1736 H   0  0  0  0  0  0  0  0  0  0  0  0
   -0.2766   -1.2141   -2.1726 H   0  0  0  0  0  0  0  0  0  0  0  0
   -0.2831   -3.0857    0.2540 H   0  0  0  0  0  0  0  0  0  0  0  0
   -0.2418    0.1353   -0.2131 H   0  0  0  0  0  0  0  0  0  0  0  0
    1.8628   -0.8876    0.8661 H   0  0  0  0  0  0  0  0  0  0  0  0
    0.9747    0.0165    2.1005 H   0  0  0  0  0  0  0  0  0  0  0  0
    0.9926   -1.7510    2.1350 H   0  0  0  0  0  0  0  0  0  0  0  0
   -2.4651   -0.8048    0.7097 H   0  0  0  0  0  0  0  0  0  0  0  0
   -0.8962   -0.8796    3.3397 H   0  0  0  0  0  0  0  0  0  0  0  0
   -2.7229   -0.7971    3.1014 H   0  0  0  0  0  0  0  0  0  0  0  0
  1  2  1  0
  1  5  1  0
  2  3  1  0
  2  6  1  0
  2 17  1  0
  3  4  3  0
  4  7  1  0
  8  9  2  3
  8 14  1  0
  8 15  1  0
  9 10  1  0
  9 16  1  0
 10 11  1  0
 10 12  1  0
 11 18  1  0
 11 19  1  0
 11 20  1  0
 12 13  2  3
 12 21  1  0
 13 22  1  0
 13 23  1  0
M  RAD  1  10   2
M  END
>  <reaction>  (8) 
rxn_1204

>  <mol_properties>  (8) 
{"0": {"label": "*4", "atom_type": "S2s"}, "1": {"label": "*3", "atom_type": "Cs"}, "8": {"label": "*0", "atom_type": "Cd"}, "9": {"label": "*1", "atom_type": "Cs"}, "16": {"label": "*2", "atom_type": "H0"}}

>  <type>  (8) 
unop_4

>  <geom_source>  (8) 
Heuristics

$$$$

     RDKit          3D

 23 21  0  0  0  0  0  0  0  0999 V2000
    0.4211    2.4542    0.1838 S   0  0  0  0  0  0  0  0  0  0  0  0
    0.4233    1.0098   -0.9300 C   0  0  0  0  0  0  0  0  0  0  0  0
   -0.6973    0.9745   -1.8530 C   0  0  0  0  0  0  0  0  0  0  0  0
   -1.6210    0.9454   -2.6138 C   0  0  0  0  0  0  0  0  0  0  0  0
    0.4420    3.3820   -0.7812 H   0  0  0  0  0  0  0  0  0  0  0  0
    1.3629    0.9749   -1.4808 H   0  0  0  0  0  0  0  0  0  0  0  0
   -2.4416    0.9195   -3.2897 H   0  0  0  0  0  0  0  0  0  0  0  0
    0.3503   -2.3047   -1.5288 C   0  0  0  0  0  0  0  0  0  0  0  0
    0.3503   -2.3047   -0.2056 C   0  0  0  0  0  0  0  0  0  0  0  0
    0.3503   -1.0739    0.6638 C   0  0  0  0  0  3  0  0  0  0  0  0
    1.5887   -1.0441    1.5554 C   0  0  0  0  0  0  0  0  0  0  0  0
   -0.9532   -1.0053    1.4203 C   0  0  0  0  0  0  0  0  0  0  0  0
   -1.1078   -1.0051    2.7352 C   0  0  0  0  0  0  0  0  0  0  0  0
    0.3496   -3.2273   -2.0955 H   0  0  0  0  0  0  0  0  0  0  0  0
    0.3521   -1.3789   -2.0945 H   0  0  0  0  0  0  0  0  0  0  0  0
    0.3456   -3.2505    0.3320 H   0  0  0  0  0  0  0  0  0  0  0  0
    0.3869   -0.0295   -0.1350 H   0  0  0  0  0  0  0  0  0  0  0  0
    2.4914   -1.0525    0.9442 H   0  0  0  0  0  0  0  0  0  0  0  0
    1.6034   -0.1483    2.1785 H   0  0  0  0  0  0  0  0  0  0  0  0
    1.6213   -1.9159    2.2130 H   0  0  0  0  0  0  0  0  0  0  0  0
   -1.8364   -0.9696    0.7878 H   0  0  0  0  0  0  0  0  0  0  0  0
   -0.2675   -1.0444    3.4178 H   0  0  0  0  0  0  0  0  0  0  0  0
   -2.0942   -0.9620    3.1795 H   0  0  0  0  0  0  0  0  0  0  0  0
  1  2  1  0
  1  5  1  0
  2  3  1  0
  2  6  1  0
  2 17  1  0
  3  4  3  0
  4  7  1  0
  8  9  2  3
  8 14  1  0
  8 15  1  0
  9 10  1  0
  9 16  1  0
 10 11  1  0
 10 12  1  0
 11 18  1  0
 11 19  1  0
 11 20  1  0
 12 13  2  3
 12 21  1  0
 13 22  1  0
 13 23  1  0
M  RAD  1  10   2
M  END
>  <reaction>  (9) 
rxn_1204

>  <mol_properties>  (9) 
{"0": {"label": "*4", "atom_type": "S2s"}, "1": {"label": "*3", "atom_type": "Cs"}, "8": {"label": "*0", "atom_type": "Cd"}, "9": {"label": "*1", "atom_type": "Cs"}, "16": {"label": "*2", "atom_type": "H0"}}

>  <type>  (9) 
unop_5

>  <geom_source>  (9) 
Heuristics

$$$$

     RDKit          3D

 23 21  0  0  0  0  0  0  0  0999 V2000
    1.6887    1.4457   -1.3983 S   0  0  0  0  0  0  0  0  0  0  0  0
   -0.0860    1.1020   -1.1546 C   0  0  0  0  0  0  0  0  0  0  0  0
   -0.6308    1.6530    0.0736 C   0  0  0  0  0  0  0  0  0  0  0  0
   -1.0798    2.1071    1.0860 C   0  0  0  0  0  0  0  0  0  0  0  0
    1.5844    2.7800   -1.3637 H   0  0  0  0  0  0  0  0  0  0  0  0
   -0.6500    1.4688   -2.0117 H   0  0  0  0  0  0  0  0  0  0  0  0
   -1.4787    2.5106    1.9854 H   0  0  0  0  0  0  0  0  0  0  0  0
   -0.1590   -2.2125   -1.7534 C   0  0  0  0  0  0  0  0  0  0  0  0
   -0.1590   -2.2125   -0.4302 C   0  0  0  0  0  0  0  0  0  0  0  0
   -0.1590   -0.9818    0.4392 C   0  0  0  0  0  3  0  0  0  0  0  0
    1.0794   -0.9520    1.3308 C   0  0  0  0  0  0  0  0  0  0  0  0
   -1.4625   -0.9132    1.1957 C   0  0  0  0  0  0  0  0  0  0  0  0
   -1.6171   -0.9129    2.5107 C   0  0  0  0  0  0  0  0  0  0  0  0
   -0.1597   -3.1352   -2.3201 H   0  0  0  0  0  0  0  0  0  0  0  0
   -0.1572   -1.2868   -2.3191 H   0  0  0  0  0  0  0  0  0  0  0  0
   -0.1637   -3.1584    0.1074 H   0  0  0  0  0  0  0  0  0  0  0  0
   -0.1224    0.0626   -0.3596 H   0  0  0  0  0  0  0  0  0  0  0  0
    1.9821   -0.9603    0.7196 H   0  0  0  0  0  0  0  0  0  0  0  0
    1.0941   -0.0562    1.9539 H   0  0  0  0  0  0  0  0  0  0  0  0
    1.1120   -1.8237    1.9884 H   0  0  0  0  0  0  0  0  0  0  0  0
   -2.3457   -0.8775    0.5632 H   0  0  0  0  0  0  0  0  0  0  0  0
   -0.7768   -0.9523    3.1932 H   0  0  0  0  0  0  0  0  0  0  0  0
   -2.6035   -0.8698    2.9549 H   0  0  0  0  0  0  0  0  0  0  0  0
  1  2  1  0
  1  5  1  0
  2  3  1  0
  2  6  1  0
  2 17  1  0
  3  4  3  0
  4  7  1  0
  8  9  2  3
  8 14  1  0
  8 15  1  0
  9 10  1  0
  9 16  1  0
 10 11  1  0
 10 12  1  0
 11 18  1  0
 11 19  1  0
 11 20  1  0
 12 13  2  3
 12 21  1  0
 13 22  1  0
 13 23  1  0
M  RAD  1  10   2
M  END
>  <reaction>  (10) 
rxn_1204

>  <mol_properties>  (10) 
{"0": {"label": "*4", "atom_type": "S2s"}, "1": {"label": "*3", "atom_type": "Cs"}, "8": {"label": "*0", "atom_type": "Cd"}, "9": {"label": "*1", "atom_type": "Cs"}, "16": {"label": "*2", "atom_type": "H0"}}

>  <type>  (10) 
unop_6

>  <geom_source>  (10) 
Heuristics

$$$$

     RDKit          3D

 23 21  0  0  0  0  0  0  0  0999 V2000
    1.6384    1.9276   -0.7617 S   0  0  0  0  0  0  0  0  0  0  0  0
    0.1074    1.0444   -1.2122 C   0  0  0  0  0  0  0  0  0  0  0  0
   -1.0265    1.3564   -0.3602 C   0  0  0  0  0  0  0  0  0  0  0  0
   -1.9611    1.6136    0.3420 C   0  0  0  0  0  0  0  0  0  0  0  0
    1.1394    3.1625   -0.8986 H   0  0  0  0  0  0  0  0  0  0  0  0
   -0.1395    1.2493   -2.2535 H   0  0  0  0  0  0  0  0  0  0  0  0
   -2.7915    1.8421    0.9659 H   0  0  0  0  0  0  0  0  0  0  0  0
    0.0344   -2.2701   -1.8110 C   0  0  0  0  0  0  0  0  0  0  0  0
    0.0344   -2.2701   -0.4878 C   0  0  0  0  0  0  0  0  0  0  0  0
    0.0344   -1.0393    0.3817 C   0  0  0  0  0  3  0  0  0  0  0  0
    1.2727   -1.0096    1.2733 C   0  0  0  0  0  0  0  0  0  0  0  0
   -1.2692   -0.9708    1.1382 C   0  0  0  0  0  0  0  0  0  0  0  0
   -1.4238   -0.9705    2.4531 C   0  0  0  0  0  0  0  0  0  0  0  0
    0.0336   -3.1927   -2.3777 H   0  0  0  0  0  0  0  0  0  0  0  0
    0.0361   -1.3443   -2.3767 H   0  0  0  0  0  0  0  0  0  0  0  0
    0.0296   -3.2159    0.0499 H   0  0  0  0  0  0  0  0  0  0  0  0
    0.0710    0.0050   -0.4172 H   0  0  0  0  0  0  0  0  0  0  0  0
    2.1755   -1.0179    0.6620 H   0  0  0  0  0  0  0  0  0  0  0  0
    1.2874   -0.1138    1.8964 H   0  0  0  0  0  0  0  0  0  0  0  0
    1.3053   -1.8813    1.9309 H   0  0  0  0  0  0  0  0  0  0  0  0
   -2.1523   -0.9350    0.5056 H   0  0  0  0  0  0  0  0  0  0  0  0
   -0.5834   -1.0098    3.1356 H   0  0  0  0  0  0  0  0  0  0  0  0
   -2.4102   -0.9274    2.8973 H   0  0  0  0  0  0  0  0  0  0  0  0
  1  2  1  0
  1  5  1  0
  2  3  1  0
  2  6  1  0
  2 17  1  0
  3  4  3  0
  4  7  1  0
  8  9  2  3
  8 14  1  0
  8 15  1  0
  9 10  1  0
  9 16  1  0
 10 11  1  0
 10 12  1  0
 11 18  1  0
 11 19  1  0
 11 20  1  0
 12 13  2  3
 12 21  1  0
 13 22  1  0
 13 23  1  0
M  RAD  1  10   2
M  END
>  <reaction>  (11) 
rxn_1204

>  <mol_properties>  (11) 
{"0": {"label": "*4", "atom_type": "S2s"}, "1": {"label": "*3", "atom_type": "Cs"}, "8": {"label": "*0", "atom_type": "Cd"}, "9": {"label": "*1", "atom_type": "Cs"}, "16": {"label": "*2", "atom_type": "H0"}}

>  <type>  (11) 
unop_7

>  <geom_source>  (11) 
Heuristics

$$$$

     RDKit          3D

 23 21  0  0  0  0  0  0  0  0999 V2000
   -1.4322    1.4985   -0.9474 S   0  0  0  0  0  0  0  0  0  0  0  0
    0.3163    1.0955   -0.6198 C   0  0  0  0  0  0  0  0  0  0  0  0
    1.2388    1.6205   -1.6110 C   0  0  0  0  0  0  0  0  0  0  0  0
    1.9991    2.0533   -2.4279 C   0  0  0  0  0  0  0  0  0  0  0  0
   -1.2783    2.8285   -0.9416 H   0  0  0  0  0  0  0  0  0  0  0  0
    0.5928    1.4492    0.3731 H   0  0  0  0  0  0  0  0  0  0  0  0
    2.6746    2.4378   -3.1537 H   0  0  0  0  0  0  0  0  0  0  0  0
    0.2433   -2.2190   -1.2186 C   0  0  0  0  0  0  0  0  0  0  0  0
    0.2433   -2.2190    0.1046 C   0  0  0  0  0  0  0  0  0  0  0  0
    0.2433   -0.9882    0.9740 C   0  0  0  0  0  3  0  0  0  0  0  0
    1.4817   -0.9584    1.8656 C   0  0  0  0  0  0  0  0  0  0  0  0
   -1.0602   -0.9197    1.7306 C   0  0  0  0  0  0  0  0  0  0  0  0
   -1.2148   -0.9194    3.0455 C   0  0  0  0  0  0  0  0  0  0  0  0
    0.2426   -3.1416   -1.7853 H   0  0  0  0  0  0  0  0  0  0  0  0
    0.2451   -1.2932   -1.7843 H   0  0  0  0  0  0  0  0  0  0  0  0
    0.2386   -3.1648    0.6423 H   0  0  0  0  0  0  0  0  0  0  0  0
    0.2799    0.0561    0.1752 H   0  0  0  0  0  0  0  0  0  0  0  0
    2.3844   -0.9668    1.2544 H   0  0  0  0  0  0  0  0  0  0  0  0
    1.4964   -0.0627    2.4887 H   0  0  0  0  0  0  0  0  0  0  0  0
    1.5143   -1.8302    2.5233 H   0  0  0  0  0  0  0  0  0  0  0  0
   -1.9434   -0.8839    1.0980 H   0  0  0  0  0  0  0  0  0  0  0  0
   -0.3745   -0.9587    3.7280 H   0  0  0  0  0  0  0  0  0  0  0  0
   -2.2012   -0.8763    3.4897 H   0  0  0  0  0  0  0  0  0  0  0  0
  1  2  1  0
  1  5  1  0
  2  3  1  0
  2  6  1  0
  2 17  1  0
  3  4  3  0
  4  7  1  0
  8  9  2  3
  8 14  1  0
  8 15  1  0
  9 10  1  0
  9 16  1  0
 10 11  1  0
 10 12  1  0
 11 18  1  0
 11 19  1  0
 11 20  1  0
 12 13  2  3
 12 21  1  0
 13 22  1  0
 13 23  1  0
M  RAD  1  10   2
M  END
>  <reaction>  (12) 
rxn_1204

>  <mol_properties>  (12) 
{"0": {"label": "*4", "atom_type": "S2s"}, "1": {"label": "*3", "atom_type": "Cs"}, "8": {"label": "*0", "atom_type": "Cd"}, "9": {"label": "*1", "atom_type": "Cs"}, "16": {"label": "*2", "atom_type": "H0"}}

>  <type>  (12) 
unop_8

>  <geom_source>  (12) 
Heuristics

$$$$

     RDKit          3D

 23 21  0  0  0  0  0  0  0  0999 V2000
    0.6882    0.6674   -2.2891 S   0  0  0  0  0  0  0  0  0  0  0  0
   -0.2189    1.2363   -0.8125 C   0  0  0  0  0  0  0  0  0  0  0  0
    0.5762    2.0470    0.0928 C   0  0  0  0  0  0  0  0  0  0  0  0
    1.2316    2.7152    0.8390 C   0  0  0  0  0  0  0  0  0  0  0  0
    1.0095    1.8861   -2.7408 H   0  0  0  0  0  0  0  0  0  0  0  0
   -1.1100    1.7831   -1.1195 H   0  0  0  0  0  0  0  0  0  0  0  0
    1.8139    3.3088    1.5019 H   0  0  0  0  0  0  0  0  0  0  0  0
   -0.2920   -2.0782   -1.4112 C   0  0  0  0  0  0  0  0  0  0  0  0
   -0.2920   -2.0782   -0.0880 C   0  0  0  0  0  0  0  0  0  0  0  0
   -0.2920   -0.8474    0.7814 C   0  0  0  0  0  3  0  0  0  0  0  0
    0.9464   -0.8176    1.6730 C   0  0  0  0  0  0  0  0  0  0  0  0
   -1.5955   -0.7788    1.5379 C   0  0  0  0  0  0  0  0  0  0  0  0
   -1.7501   -0.7786    2.8528 C   0  0  0  0  0  0  0  0  0  0  0  0
   -0.2927   -3.0008   -1.9780 H   0  0  0  0  0  0  0  0  0  0  0  0
   -0.2902   -1.1524   -1.9770 H   0  0  0  0  0  0  0  0  0  0  0  0
   -0.2967   -3.0240    0.4496 H   0  0  0  0  0  0  0  0  0  0  0  0
   -0.2554    0.1969   -0.0174 H   0  0  0  0  0  0  0  0  0  0  0  0
    1.8492   -0.8260    1.0617 H   0  0  0  0  0  0  0  0  0  0  0  0
    0.9611    0.0781    2.2961 H   0  0  0  0  0  0  0  0  0  0  0  0
    0.9790   -1.6894    2.3306 H   0  0  0  0  0  0  0  0  0  0  0  0
   -2.4786   -0.7431    0.9054 H   0  0  0  0  0  0  0  0  0  0  0  0
   -0.9097   -0.8179    3.5354 H   0  0  0  0  0  0  0  0  0  0  0  0
   -2.7365   -0.7355    3.2971 H   0  0  0  0  0  0  0  0  0  0  0  0
  1  2  1  0
  1  5  1  0
  2  3  1  0
  2  6  1  0
  2 17  1  0
  3  4  3  0
  4  7  1  0
  8  9  2  3
  8 14  1  0
  8 15  1  0
  9 10  1  0
  9 16  1  0
 10 11  1  0
 10 12  1  0
 11 18  1  0
 11 19  1  0
 11 20  1  0
 12 13  2  3
 12 21  1  0
 13 22  1  0
 13 23  1  0
M  RAD  1  10   2
M  END
>  <reaction>  (13) 
rxn_1204

>  <mol_properties>  (13) 
{"0": {"label": "*4", "atom_type": "S2s"}, "1": {"label": "*3", "atom_type": "Cs"}, "8": {"label": "*0", "atom_type": "Cd"}, "9": {"label": "*1", "atom_type": "Cs"}, "16": {"label": "*2", "atom_type": "H0"}}

>  <type>  (13) 
unop_9

>  <geom_source>  (13) 
Heuristics

$$$$

     RDKit          3D

 23 21  0  0  0  0  0  0  0  0999 V2000
   -1.2755    1.0311   -1.5725 S   0  0  0  0  0  0  0  0  0  0  0  0
    0.2294    1.1676   -0.5508 C   0  0  0  0  0  0  0  0  0  0  0  0
    1.3202    1.8748   -1.1981 C   0  0  0  0  0  0  0  0  0  0  0  0
    2.2192    2.4578   -1.7316 C   0  0  0  0  0  0  0  0  0  0  0  0
   -1.4603    2.3471   -1.7354 H   0  0  0  0  0  0  0  0  0  0  0  0
   -0.0153    1.6448    0.3978 H   0  0  0  0  0  0  0  0  0  0  0  0
    3.0180    2.9757   -2.2056 H   0  0  0  0  0  0  0  0  0  0  0  0
    0.1564   -2.1469   -1.1496 C   0  0  0  0  0  0  0  0  0  0  0  0
    0.1564   -2.1469    0.1737 C   0  0  0  0  0  0  0  0  0  0  0  0
    0.1564   -0.9161    1.0431 C   0  0  0  0  0  3  0  0  0  0  0  0
    1.3947   -0.8863    1.9347 C   0  0  0  0  0  0  0  0  0  0  0  0
   -1.1472   -0.8476    1.7996 C   0  0  0  0  0  0  0  0  0  0  0  0
   -1.3018   -0.8473    3.1145 C   0  0  0  0  0  0  0  0  0  0  0  0
    0.1556   -3.0695   -1.7163 H   0  0  0  0  0  0  0  0  0  0  0  0
    0.1581   -1.2211   -1.7153 H   0  0  0  0  0  0  0  0  0  0  0  0
    0.1516   -3.0927    0.7113 H   0  0  0  0  0  0  0  0  0  0  0  0
    0.1930    0.1282    0.2443 H   0  0  0  0  0  0  0  0  0  0  0  0
    2.2975   -0.8947    1.3234 H   0  0  0  0  0  0  0  0  0  0  0  0
    1.4094    0.0094    2.5578 H   0  0  0  0  0  0  0  0  0  0  0  0
    1.4273   -1.7581    2.5923 H   0  0  0  0  0  0  0  0  0  0  0  0
   -2.0303   -0.8118    1.1671 H   0  0  0  0  0  0  0  0  0  0  0  0
   -0.4614   -0.8866    3.7971 H   0  0  0  0  0  0  0  0  0  0  0  0
   -2.2882   -0.8042    3.5588 H   0  0  0  0  0  0  0  0  0  0  0  0
  1  2  1  0
  1  5  1  0
  2  3  1  0
  2  6  1  0
  2 17  1  0
  3  4  3  0
  4  7  1  0
  8  9  2  3
  8 14  1  0
  8 15  1  0
  9 10  1  0
  9 16  1  0
 10 11  1  0
 10 12  1  0
 11 18  1  0
 11 19  1  0
 11 20  1  0
 12 13  2  3
 12 21  1  0
 13 22  1  0
 13 23  1  0
M  RAD  1  10   2
M  END
>  <reaction>  (14) 
rxn_1204

>  <mol_properties>  (14) 
{"0": {"label": "*4", "atom_type": "S2s"}, "1": {"label": "*3", "atom_type": "Cs"}, "8": {"label": "*0", "atom_type": "Cd"}, "9": {"label": "*1", "atom_type": "Cs"}, "16": {"label": "*2", "atom_type": "H0"}}

>  <type>  (14) 
unop_10

>  <geom_source>  (14) 
Heuristics

$$$$

     RDKit          3D

 23 21  0  0  0  0  0  0  0  0999 V2000
    1.1994    2.3017   -0.1901 S   0  0  0  0  0  0  0  0  0  0  0  0
    0.3188    1.0156   -1.1374 C   0  0  0  0  0  0  0  0  0  0  0  0
   -1.1278    1.0937   -1.0352 C   0  0  0  0  0  0  0  0  0  0  0  0
   -2.3200    1.1580   -0.9510 C   0  0  0  0  0  0  0  0  0  0  0  0
    0.6354    3.3480   -0.8063 H   0  0  0  0  0  0  0  0  0  0  0  0
    0.6229    1.0596   -2.1829 H   0  0  0  0  0  0  0  0  0  0  0  0
   -3.3793    1.2151   -0.8761 H   0  0  0  0  0  0  0  0  0  0  0  0
    0.2458   -2.2989   -1.7362 C   0  0  0  0  0  0  0  0  0  0  0  0
    0.2458   -2.2989   -0.4130 C   0  0  0  0  0  0  0  0  0  0  0  0
    0.2458   -1.0681    0.4564 C   0  0  0  0  0  3  0  0  0  0  0  0
    1.4841   -1.0383    1.3480 C   0  0  0  0  0  0  0  0  0  0  0  0
   -1.0578   -0.9995    1.2129 C   0  0  0  0  0  0  0  0  0  0  0  0
   -1.2124   -0.9993    2.5278 C   0  0  0  0  0  0  0  0  0  0  0  0
    0.2450   -3.2215   -2.3029 H   0  0  0  0  0  0  0  0  0  0  0  0
    0.2475   -1.3731   -2.3019 H   0  0  0  0  0  0  0  0  0  0  0  0
    0.2410   -3.2447    0.1246 H   0  0  0  0  0  0  0  0  0  0  0  0
    0.2824   -0.0237   -0.3424 H   0  0  0  0  0  0  0  0  0  0  0  0
    2.3869   -1.0467    0.7367 H   0  0  0  0  0  0  0  0  0  0  0  0
    1.4988   -0.1425    1.9711 H   0  0  0  0  0  0  0  0  0  0  0  0
    1.5167   -1.9101    2.0056 H   0  0  0  0  0  0  0  0  0  0  0  0
   -1.9409   -0.9638    0.5804 H   0  0  0  0  0  0  0  0  0  0  0  0
   -0.3720   -1.0386    3.2104 H   0  0  0  0  0  0  0  0  0  0  0  0
   -2.1988   -0.9562    2.9721 H   0  0  0  0  0  0  0  0  0  0  0  0
  1  2  1  0
  1  5  1  0
  2  3  1  0
  2  6  1  0
  2 17  1  0
  3  4  3  0
  4  7  1  0
  8  9  2  3
  8 14  1  0
  8 15  1  0
  9 10  1  0
  9 16  1  0
 10 11  1  0
 10 12  1  0
 11 18  1  0
 11 19  1  0
 11 20  1  0
 12 13  2  3
 12 21  1  0
 13 22  1  0
 13 23  1  0
M  RAD  1  10   2
M  END
>  <reaction>  (15) 
rxn_1204

>  <mol_properties>  (15) 
{"0": {"label": "*4", "atom_type": "S2s"}, "1": {"label": "*3", "atom_type": "Cs"}, "8": {"label": "*0", "atom_type": "Cd"}, "9": {"label": "*1", "atom_type": "Cs"}, "16": {"label": "*2", "atom_type": "H0"}}

>  <type>  (15) 
unop_11

>  <geom_source>  (15) 
Heuristics

$$$$

     RDKit          3D

 23 21  0  0  0  0  0  0  0  0999 V2000
   -0.0834    0.5617   -2.3135 S   0  0  0  0  0  0  0  0  0  0  0  0
   -0.1118    1.2593   -0.6284 C   0  0  0  0  0  0  0  0  0  0  0  0
    1.0367    2.0907   -0.3143 C   0  0  0  0  0  0  0  0  0  0  0  0
    1.9834    2.7759   -0.0555 C   0  0  0  0  0  0  0  0  0  0  0  0
   -0.0307    1.7352   -2.9558 H   0  0  0  0  0  0  0  0  0  0  0  0
   -1.0329    1.8228   -0.4820 H   0  0  0  0  0  0  0  0  0  0  0  0
    2.8244    3.3848    0.1745 H   0  0  0  0  0  0  0  0  0  0  0  0
   -0.1848   -2.0552   -1.2272 C   0  0  0  0  0  0  0  0  0  0  0  0
   -0.1848   -2.0552    0.0960 C   0  0  0  0  0  0  0  0  0  0  0  0
   -0.1848   -0.8244    0.9654 C   0  0  0  0  0  3  0  0  0  0  0  0
    1.0535   -0.7946    1.8570 C   0  0  0  0  0  0  0  0  0  0  0  0
   -1.4884   -0.7559    1.7219 C   0  0  0  0  0  0  0  0  0  0  0  0
   -1.6430   -0.7556    3.0369 C   0  0  0  0  0  0  0  0  0  0  0  0
   -0.1856   -2.9778   -1.7939 H   0  0  0  0  0  0  0  0  0  0  0  0
   -0.1831   -1.1294   -1.7929 H   0  0  0  0  0  0  0  0  0  0  0  0
   -0.1896   -3.0010    0.6336 H   0  0  0  0  0  0  0  0  0  0  0  0
   -0.1482    0.2199    0.1666 H   0  0  0  0  0  0  0  0  0  0  0  0
    1.9563   -0.8030    1.2458 H   0  0  0  0  0  0  0  0  0  0  0  0
    1.0682    0.1011    2.4801 H   0  0  0  0  0  0  0  0  0  0  0  0
    1.0861   -1.6664    2.5146 H   0  0  0  0  0  0  0  0  0  0  0  0
   -2.3715   -0.7201    1.0894 H   0  0  0  0  0  0  0  0  0  0  0  0
   -0.8026   -0.7949    3.7194 H   0  0  0  0  0  0  0  0  0  0  0  0
   -2.6294   -0.7125    3.4811 H   0  0  0  0  0  0  0  0  0  0  0  0
  1  2  1  0
  1  5  1  0
  2  3  1  0
  2  6  1  0
  2 17  1  0
  3  4  3  0
  4  7  1  0
  8  9  2  3
  8 14  1  0
  8 15  1  0
  9 10  1  0
  9 16  1  0
 10 11  1  0
 10 12  1  0
 11 18  1  0
 11 19  1  0
 11 20  1  0
 12 13  2  3
 12 21  1  0
 13 22  1  0
 13 23  1  0
M  RAD  1  10   2
M  END
>  <reaction>  (16) 
rxn_1204

>  <mol_properties>  (16) 
{"0": {"label": "*4", "atom_type": "S2s"}, "1": {"label": "*3", "atom_type": "Cs"}, "8": {"label": "*0", "atom_type": "Cd"}, "9": {"label": "*1", "atom_type": "Cs"}, "16": {"label": "*2", "atom_type": "H0"}}

>  <type>  (16) 
unop_12

>  <geom_source>  (16) 
Heuristics

$$$$

     RDKit          3D

 23 21  0  0  0  0  0  0  0  0999 V2000
    1.8961    1.8205    0.2906 S   0  0  0  0  0  0  0  0  0  0  0  0
   -1.8589   -0.3388   -1.6568 C   0  0  0  0  0  0  0  0  0  0  0  0
    1.4066    0.0732    0.3777 C   0  0  0  0  0  3  0  0  0  0  0  0
   -1.0913    0.0256   -0.3890 C   0  0  0  0  0  0  0  0  0  0  0  0
   -1.5945    1.3113    0.1953 C   0  0  0  0  0  0  0  0  0  0  0  0
   -1.1747   -1.0740    0.6268 C   0  0  0  0  0  0  0  0  0  0  0  0
   -0.7759    2.3531    0.3448 C   0  0  0  0  0  0  0  0  0  0  0  0
   -0.0679   -1.6694    1.0723 C   0  0  0  0  0  0  0  0  0  0  0  0
    2.4471   -0.7643   -0.2221 C   0  0  0  0  0  0  0  0  0  0  0  0
    3.3031   -1.4548   -0.7158 C   0  0  0  0  0  0  0  0  0  0  0  0
    1.2576   -0.2206    1.4374 H   0  0  0  0  0  0  0  0  0  0  0  0
    0.2433   -0.1011   -0.3036 H   0  0  0  0  0  0  0  0  0  0  0  0
   -2.9380   -0.4887   -1.4354 H   0  0  0  0  0  0  0  0  0  0  0  0
   -1.7517    0.4722   -2.4079 H   0  0  0  0  0  0  0  0  0  0  0  0
   -1.4446   -1.2727   -2.0923 H   0  0  0  0  0  0  0  0  0  0  0  0
   -2.6327    1.3948    0.5050 H   0  0  0  0  0  0  0  0  0  0  0  0
   -2.1434   -1.3858    1.0079 H   0  0  0  0  0  0  0  0  0  0  0  0
   -1.1476    3.2792    0.7710 H   0  0  0  0  0  0  0  0  0  0  0  0
    0.2660    2.2908    0.0450 H   0  0  0  0  0  0  0  0  0  0  0  0
    0.9106   -1.3717    0.7073 H   0  0  0  0  0  0  0  0  0  0  0  0
   -0.1370   -2.4626    1.8095 H   0  0  0  0  0  0  0  0  0  0  0  0
    2.9730    1.6447    1.1814 H   0  0  0  0  0  0  0  0  0  0  0  0
    4.0547   -2.0609   -1.1491 H   0  0  0  0  0  0  0  0  0  0  0  0
  1  3  1  0
  1 22  1  0
  2  4  1  0
  2 13  1  0
  2 14  1  0
  2 15  1  0
  3  9  1  0
  3 11  1  0
  4  5  1  0
  4  6  1  0
  4 12  1  0
  5  7  2  3
  5 16  1  0
  6  8  2  3
  6 17  1  0
  7 18  1  0
  7 19  1  0
  8 20  1  0
  8 21  1  0
  9 10  3  0
 10 23  1  0
M  RAD  1   3   2
M  END
>  <reaction>  (17) 
rxn_1204

>  <mol_properties>  (17) 
{"0": {"label": "*4", "atom_type": "S2s"}, "1": {"label": "*3", "atom_type": "Cs"}, "8": {"label": "*0", "atom_type": "Cd"}, "9": {"label": "*1", "atom_type": "Cs"}, "16": {"label": "*2", "atom_type": "H0"}}

>  <type>  (17) 
unop_13

>  <geom_source>  (17) 
AutoTST

$$$$
