
     RDKit          3D

 18 18  0  0  0  0  0  0  0  0999 V2000
   -2.4852    0.3210   -0.3966 C   0  0  0  0  0  0  0  0  0  0  0  0
   -1.5917   -0.2708    0.6941 C   0  0  0  0  0  0  0  0  0  0  0  0
   -0.1292   -0.1692    0.3493 C   0  0  0  0  0  0  0  0  0  0  0  0
    0.6099    0.9558    0.7015 C   0  0  0  0  0  0  0  0  0  0  0  0
    1.9447    1.0728    0.3458 C   0  0  0  0  0  0  0  0  0  0  0  0
    2.5646    0.0613   -0.3720 C   0  0  0  0  0  0  0  0  0  0  0  0
    1.8399   -1.0657   -0.7287 C   0  0  0  0  0  0  0  0  0  0  0  0
    0.5055   -1.1769   -0.3700 C   0  0  0  0  0  0  0  0  0  0  0  0
   -2.3325   -0.1971   -1.3452 H   0  0  0  0  0  0  0  0  0  0  0  0
   -2.2554    1.3763   -0.5546 H   0  0  0  0  0  0  0  0  0  0  0  0
   -3.5397    0.2376   -0.1280 H   0  0  0  0  0  0  0  0  0  0  0  0
   -1.7801    0.2462    1.6380 H   0  0  0  0  0  0  0  0  0  0  0  0
   -1.8568   -1.3190    0.8516 H   0  0  0  0  0  0  0  0  0  0  0  0
    0.1327    1.7497    1.2656 H   0  0  0  0  0  0  0  0  0  0  0  0
    2.5033    1.9550    0.6330 H   0  0  0  0  0  0  0  0  0  0  0  0
    3.6077    0.1491   -0.6484 H   0  0  0  0  0  0  0  0  0  0  0  0
    2.3163   -1.8632   -1.2854 H   0  0  0  0  0  0  0  0  0  0  0  0
   -0.0540   -2.0629   -0.6500 H   0  0  0  0  0  0  0  0  0  0  0  0
  1  2  1  0
  1  9  1  0
  1 10  1  0
  1 11  1  0
  2  3  1  0
  2 12  1  0
  2 13  1  0
  3  4  2  0
  3  8  1  0
  4  5  1  0
  4 14  1  0
  5  6  2  0
  5 15  1  0
  6  7  1  0
  6 16  1  0
  7  8  2  0
  7 17  1  0
  8 18  1  0
M  END
>  <reaction>  (1) 
rxn_1496

>  <mol_properties>  (1) 
{"1": {"label": "donator", "atom_type": "Cs"}, "11": {"label": "d_hydrogen", "atom_type": "H0"}}

>  <type>  (1) 
r1h

$$$$

     RDKit          3D

  9  8  0  0  0  0  0  0  0  0999 V2000
    1.8963   -0.1405   -0.2150 C   0  0  0  0  0  0  0  0  0  0  0  0
    0.6340    0.1486   -0.2254 C   0  0  0  0  0  3  0  0  0  0  0  0
   -0.6770    0.4501   -0.2373 C   0  0  0  0  0  0  0  0  0  0  0  0
   -1.6600   -0.2303    0.4662 C   0  0  0  0  0  0  0  0  0  0  0  0
    2.3274   -0.8354   -0.9313 H   0  0  0  0  0  0  0  0  0  0  0  0
    2.5751    0.2988    0.5117 H   0  0  0  0  0  0  0  0  0  0  0  0
   -0.9723    1.2966   -0.8520 H   0  0  0  0  0  0  0  0  0  0  0  0
   -2.6934    0.0777    0.4015 H   0  0  0  0  0  0  0  0  0  0  0  0
   -1.4140   -1.0782    1.0904 H   0  0  0  0  0  0  0  0  0  0  0  0
  1  2  2  3
  1  5  1  0
  1  6  1  0
  2  3  1  0
  3  4  2  3
  3  7  1  0
  4  8  1  0
  4  9  1  0
M  RAD  1   2   2
M  END
>  <reaction>  (2) 
rxn_1496

>  <mol_properties>  (2) 
{"1": {"label": "acceptor", "atom_type": "Cd"}}

>  <type>  (2) 
r2

$$$$

     RDKit          3D

 10  9  0  0  0  0  0  0  0  0999 V2000
    1.8334    0.0847   -0.1062 C   0  0  0  0  0  0  0  0  0  0  0  0
    0.5993   -0.4071   -0.0750 C   0  0  0  0  0  0  0  0  0  0  0  0
   -0.5993    0.4071    0.0750 C   0  0  0  0  0  0  0  0  0  0  0  0
   -1.8334   -0.0847    0.1062 C   0  0  0  0  0  0  0  0  0  0  0  0
    2.0179    1.1498   -0.0189 H   0  0  0  0  0  0  0  0  0  0  0  0
    2.6972   -0.5572   -0.2194 H   0  0  0  0  0  0  0  0  0  0  0  0
    0.4465   -1.4793   -0.1649 H   0  0  0  0  0  0  0  0  0  0  0  0
   -0.4465    1.4793    0.1649 H   0  0  0  0  0  0  0  0  0  0  0  0
   -2.0179   -1.1498    0.0189 H   0  0  0  0  0  0  0  0  0  0  0  0
   -2.6972    0.5572    0.2194 H   0  0  0  0  0  0  0  0  0  0  0  0
  1  2  2  3
  1  5  1  0
  1  6  1  0
  2  3  1  0
  2  7  1  0
  3  4  2  3
  3  8  1  0
  4  9  1  0
  4 10  1  0
M  END
>  <reaction>  (3) 
rxn_1496

>  <mol_properties>  (3) 
{"1": {"label": "acceptor", "atom_type": "Cd"}, "9": {"label": "a_hydrogen", "atom_type": "H0"}}

>  <type>  (3) 
r2h

$$$$

     RDKit          3D

 27 26  0  0  0  0  0  0  0  0999 V2000
   -1.7293   -1.1368    1.2757 C   0  0  0  0  0  0  0  0  0  0  0  0
   -1.2868   -1.8581    0.2668 C   0  0  0  0  0  3  0  0  0  0  0  0
   -1.6640   -3.1649   -0.2160 C   0  0  0  0  0  0  0  0  0  0  0  0
   -1.0771   -3.7935   -1.2298 C   0  0  0  0  0  0  0  0  0  0  0  0
   -1.3212   -0.1550    1.4927 H   0  0  0  0  0  0  0  0  0  0  0  0
   -2.5182   -1.5009    1.9330 H   0  0  0  0  0  0  0  0  0  0  0  0
   -2.4910   -3.6479    0.3057 H   0  0  0  0  0  0  0  0  0  0  0  0
   -1.4014   -4.7754   -1.5477 H   0  0  0  0  0  0  0  0  0  0  0  0
   -0.2522   -3.3426   -1.7686 H   0  0  0  0  0  0  0  0  0  0  0  0
   -0.0558   -0.1999   -2.4716 C   0  0  0  0  0  0  0  0  0  0  0  0
    0.5733   -0.4487   -1.1193 C   0  0  0  0  0  0  0  0  0  0  0  0
    0.8088    0.7124   -0.2251 C   0  0  0  0  0  0  0  0  0  0  0  0
    0.1280    1.9207   -0.3720 C   0  0  0  0  0  0  0  0  0  0  0  0
    0.3235    2.9622    0.5226 C   0  0  0  0  0  0  0  0  0  0  0  0
    1.2010    2.8182    1.5854 C   0  0  0  0  0  0  0  0  0  0  0  0
    1.8871    1.6216    1.7443 C   0  0  0  0  0  0  0  0  0  0  0  0
    1.6920    0.5847    0.8499 C   0  0  0  0  0  0  0  0  0  0  0  0
    0.5340    0.5044   -3.0643 H   0  0  0  0  0  0  0  0  0  0  0  0
   -1.0653    0.2039   -2.3753 H   0  0  0  0  0  0  0  0  0  0  0  0
   -0.1335   -1.1312   -3.0335 H   0  0  0  0  0  0  0  0  0  0  0  0
   -0.2273   -1.1657   -0.5048 H   0  0  0  0  0  0  0  0  0  0  0  0
    1.4592   -1.0824   -1.1830 H   0  0  0  0  0  0  0  0  0  0  0  0
   -0.5630    2.0545   -1.1943 H   0  0  0  0  0  0  0  0  0  0  0  0
   -0.2144    3.8923    0.3865 H   0  0  0  0  0  0  0  0  0  0  0  0
    1.3528    3.6318    2.2831 H   0  0  0  0  0  0  0  0  0  0  0  0
    2.5777    1.4976    2.5692 H   0  0  0  0  0  0  0  0  0  0  0  0
    2.2267   -0.3489    0.9841 H   0  0  0  0  0  0  0  0  0  0  0  0
  1  2  2  3
  1  5  1  0
  1  6  1  0
  2  3  1  0
  3  4  2  3
  3  7  1  0
  4  8  1  0
  4  9  1  0
 10 11  1  0
 10 18  1  0
 10 19  1  0
 10 20  1  0
 11 12  1  0
 11 21  1  0
 11 22  1  0
 12 13  2  0
 12 17  1  0
 13 14  1  0
 13 23  1  0
 14 15  2  0
 14 24  1  0
 15 16  1  0
 15 25  1  0
 16 17  2  0
 16 26  1  0
 17 27  1  0
M  RAD  1   2   2
M  END
>  <reaction>  (4) 
rxn_1496

>  <mol_properties>  (4) 
{"1": {"label": "*3", "atom_type": "Cd"}, "2": {"label": "*4", "atom_type": "Cd"}, "10": {"label": "*1", "atom_type": "Cs"}, "11": {"label": "*0", "atom_type": "Cd"}, "20": {"label": "*2", "atom_type": "H0"}}

>  <type>  (4) 
ts

$$$$

     RDKit          3D

 27 26  0  0  0  0  0  0  0  0999 V2000
   -2.3827   -1.0861    0.3174 C   0  0  0  0  0  0  0  0  0  0  0  0
   -1.4377   -1.9850    0.0624 C   0  0  0  0  0  0  0  0  0  0  0  0
   -1.1784   -3.1534    0.8930 C   0  0  0  0  0  0  0  0  0  0  0  0
   -0.2334   -4.0522    0.6379 C   0  0  0  0  0  0  0  0  0  0  0  0
   -2.5415   -0.2316   -0.3271 H   0  0  0  0  0  0  0  0  0  0  0  0
   -3.0293   -1.1786    1.1831 H   0  0  0  0  0  0  0  0  0  0  0  0
   -1.8108   -3.2733    1.7685 H   0  0  0  0  0  0  0  0  0  0  0  0
   -0.0747   -4.9068    1.2825 H   0  0  0  0  0  0  0  0  0  0  0  0
    0.4132   -3.9598   -0.2278 H   0  0  0  0  0  0  0  0  0  0  0  0
    0.6605   -0.6885   -2.3359 C   0  0  0  0  0  0  0  0  0  0  0  0
    0.6605   -0.6885   -0.8068 C   0  0  0  0  0  0  0  0  0  0  0  0
    0.6605    0.7058   -0.2374 C   0  0  0  0  0  0  0  0  0  0  0  0
   -0.5340    1.3748    0.0104 C   0  0  0  0  0  3  0  0  0  0  0  0
   -0.5373    2.6750    0.4913 C   0  0  0  0  0  0  0  0  0  0  0  0
    0.6605    3.3303    0.7331 C   0  0  0  0  0  0  0  0  0  0  0  0
    1.8583    2.6750    0.4913 C   0  0  0  0  0  0  0  0  0  0  0  0
    1.8550    1.3748    0.0104 C   0  0  0  0  0  0  0  0  0  0  0  0
    1.5418   -0.1734   -2.7227 H   0  0  0  0  0  0  0  0  0  0  0  0
   -0.2208   -0.1734   -2.7227 H   0  0  0  0  0  0  0  0  0  0  0  0
    0.6605   -1.7069   -2.7282 H   0  0  0  0  0  0  0  0  0  0  0  0
   -0.3915   -1.3385   -0.3710 H   0  0  0  0  0  0  0  0  0  0  0  0
    1.5371   -1.2301   -0.4436 H   0  0  0  0  0  0  0  0  0  0  0  0
   -1.4749    0.8676   -0.1734 H   0  0  0  0  0  0  0  0  0  0  0  0
   -1.4781    3.1767    0.6812 H   0  0  0  0  0  0  0  0  0  0  0  0
    0.6605    4.3447    1.1115 H   0  0  0  0  0  0  0  0  0  0  0  0
    2.7991    3.1767    0.6812 H   0  0  0  0  0  0  0  0  0  0  0  0
    2.7959    0.8676   -0.1734 H   0  0  0  0  0  0  0  0  0  0  0  0
  1  2  2  3
  1  5  1  0
  1  6  1  0
  2  3  1  0
  2 21  1  0
  3  4  2  3
  3  7  1  0
  4  8  1  0
  4  9  1  0
 10 11  1  0
 10 18  1  0
 10 19  1  0
 10 20  1  0
 11 12  2  3
 11 22  1  0
 12 13  1  0
 12 17  1  0
 13 14  1  0
 13 23  1  0
 14 15  2  0
 14 24  1  0
 15 16  1  0
 15 25  1  0
 16 17  2  0
 16 26  1  0
 17 27  1  0
M  RAD  1  13   2
M  END
>  <reaction>  (5) 
rxn_1496

>  <mol_properties>  (5) 
{"1": {"label": "*3", "atom_type": "Cd"}, "2": {"label": "*4", "atom_type": "Cd"}, "10": {"label": "*1", "atom_type": "Cs"}, "11": {"label": "*0", "atom_type": "Cd"}, "20": {"label": "*2", "atom_type": "H0"}}

>  <type>  (5) 
unop_1

>  <geom_source>  (5) 
Heuristics

$$$$

     RDKit          3D

 27 26  0  0  0  0  0  0  0  0999 V2000
   -1.6167   -1.8655    1.6366 C   0  0  0  0  0  0  0  0  0  0  0  0
   -1.3093   -1.9973    0.3505 C   0  0  0  0  0  0  0  0  0  0  0  0
   -1.8052   -3.0708   -0.5004 C   0  0  0  0  0  0  0  0  0  0  0  0
   -1.4978   -3.2026   -1.7865 C   0  0  0  0  0  0  0  0  0  0  0  0
   -1.2255   -1.0515    2.2328 H   0  0  0  0  0  0  0  0  0  0  0  0
   -2.2724   -2.5714    2.1345 H   0  0  0  0  0  0  0  0  0  0  0  0
   -2.4650   -3.7944   -0.0295 H   0  0  0  0  0  0  0  0  0  0  0  0
   -1.8890   -4.0165   -2.3827 H   0  0  0  0  0  0  0  0  0  0  0  0
   -0.8421   -2.4966   -2.2843 H   0  0  0  0  0  0  0  0  0  0  0  0
    0.7889   -0.7008   -2.0477 C   0  0  0  0  0  0  0  0  0  0  0  0
    0.7889   -0.7008   -0.5186 C   0  0  0  0  0  0  0  0  0  0  0  0
    0.7889    0.6935    0.0508 C   0  0  0  0  0  0  0  0  0  0  0  0
   -0.4056    1.3625    0.2985 C   0  0  0  0  0  3  0  0  0  0  0  0
   -0.4089    2.6627    0.7795 C   0  0  0  0  0  0  0  0  0  0  0  0
    0.7889    3.3180    1.0213 C   0  0  0  0  0  0  0  0  0  0  0  0
    1.9867    2.6627    0.7795 C   0  0  0  0  0  0  0  0  0  0  0  0
    1.9834    1.3625    0.2985 C   0  0  0  0  0  0  0  0  0  0  0  0
    1.6702   -0.1857   -2.4346 H   0  0  0  0  0  0  0  0  0  0  0  0
   -0.0924   -0.1857   -2.4346 H   0  0  0  0  0  0  0  0  0  0  0  0
    0.7889   -1.7192   -2.4401 H   0  0  0  0  0  0  0  0  0  0  0  0
   -0.2631   -1.3508   -0.0829 H   0  0  0  0  0  0  0  0  0  0  0  0
    1.6655   -1.2424   -0.1555 H   0  0  0  0  0  0  0  0  0  0  0  0
   -1.3465    0.8553    0.1148 H   0  0  0  0  0  0  0  0  0  0  0  0
   -1.3497    3.1644    0.9694 H   0  0  0  0  0  0  0  0  0  0  0  0
    0.7889    4.3324    1.3996 H   0  0  0  0  0  0  0  0  0  0  0  0
    2.9275    3.1644    0.9694 H   0  0  0  0  0  0  0  0  0  0  0  0
    2.9243    0.8553    0.1148 H   0  0  0  0  0  0  0  0  0  0  0  0
  1  2  2  3
  1  5  1  0
  1  6  1  0
  2  3  1  0
  2 21  1  0
  3  4  2  3
  3  7  1  0
  4  8  1  0
  4  9  1  0
 10 11  1  0
 10 18  1  0
 10 19  1  0
 10 20  1  0
 11 12  2  3
 11 22  1  0
 12 13  1  0
 12 17  1  0
 13 14  1  0
 13 23  1  0
 14 15  2  0
 14 24  1  0
 15 16  1  0
 15 25  1  0
 16 17  2  0
 16 26  1  0
 17 27  1  0
M  RAD  1  13   2
M  END
>  <reaction>  (6) 
rxn_1496

>  <mol_properties>  (6) 
{"1": {"label": "*3", "atom_type": "Cd"}, "2": {"label": "*4", "atom_type": "Cd"}, "10": {"label": "*1", "atom_type": "Cs"}, "11": {"label": "*0", "atom_type": "Cd"}, "20": {"label": "*2", "atom_type": "H0"}}

>  <type>  (6) 
unop_2

>  <geom_source>  (6) 
Heuristics

$$$$

     RDKit          3D

 27 26  0  0  0  0  0  0  0  0999 V2000
   -2.5522   -1.5332   -0.4476 C   0  0  0  0  0  0  0  0  0  0  0  0
   -1.4164   -2.0685   -0.0125 C   0  0  0  0  0  0  0  0  0  0  0  0
   -1.2731   -2.7471    1.2687 C   0  0  0  0  0  0  0  0  0  0  0  0
   -0.1373   -3.2825    1.7037 C   0  0  0  0  0  0  0  0  0  0  0  0
   -2.6144   -1.0375   -1.4074 H   0  0  0  0  0  0  0  0  0  0  0  0
   -3.4586   -1.5749    0.1463 H   0  0  0  0  0  0  0  0  0  0  0  0
   -2.1650   -2.8050    1.8868 H   0  0  0  0  0  0  0  0  0  0  0  0
   -0.0750   -3.7782    2.6636 H   0  0  0  0  0  0  0  0  0  0  0  0
    0.7691   -3.2407    1.1098 H   0  0  0  0  0  0  0  0  0  0  0  0
    0.6818   -0.7720   -2.4108 C   0  0  0  0  0  0  0  0  0  0  0  0
    0.6818   -0.7720   -0.8817 C   0  0  0  0  0  0  0  0  0  0  0  0
    0.6818    0.6222   -0.3123 C   0  0  0  0  0  0  0  0  0  0  0  0
   -0.5127    1.2912   -0.0645 C   0  0  0  0  0  3  0  0  0  0  0  0
   -0.5160    2.5914    0.4164 C   0  0  0  0  0  0  0  0  0  0  0  0
    0.6818    3.2467    0.6582 C   0  0  0  0  0  0  0  0  0  0  0  0
    1.8796    2.5914    0.4164 C   0  0  0  0  0  0  0  0  0  0  0  0
    1.8764    1.2912   -0.0645 C   0  0  0  0  0  0  0  0  0  0  0  0
    1.5631   -0.2570   -2.7976 H   0  0  0  0  0  0  0  0  0  0  0  0
   -0.1995   -0.2570   -2.7976 H   0  0  0  0  0  0  0  0  0  0  0  0
    0.6818   -1.7905   -2.8031 H   0  0  0  0  0  0  0  0  0  0  0  0
   -0.3701   -1.4221   -0.4459 H   0  0  0  0  0  0  0  0  0  0  0  0
    1.5585   -1.3137   -0.5185 H   0  0  0  0  0  0  0  0  0  0  0  0
   -1.4536    0.7840   -0.2483 H   0  0  0  0  0  0  0  0  0  0  0  0
   -1.4568    3.0931    0.6063 H   0  0  0  0  0  0  0  0  0  0  0  0
    0.6818    4.2611    1.0366 H   0  0  0  0  0  0  0  0  0  0  0  0
    2.8204    3.0931    0.6063 H   0  0  0  0  0  0  0  0  0  0  0  0
    2.8172    0.7840   -0.2483 H   0  0  0  0  0  0  0  0  0  0  0  0
  1  2  2  3
  1  5  1  0
  1  6  1  0
  2  3  1  0
  2 21  1  0
  3  4  2  3
  3  7  1  0
  4  8  1  0
  4  9  1  0
 10 11  1  0
 10 18  1  0
 10 19  1  0
 10 20  1  0
 11 12  2  3
 11 22  1  0
 12 13  1  0
 12 17  1  0
 13 14  1  0
 13 23  1  0
 14 15  2  0
 14 24  1  0
 15 16  1  0
 15 25  1  0
 16 17  2  0
 16 26  1  0
 17 27  1  0
M  RAD  1  13   2
M  END
>  <reaction>  (7) 
rxn_1496

>  <mol_properties>  (7) 
{"1": {"label": "*3", "atom_type": "Cd"}, "2": {"label": "*4", "atom_type": "Cd"}, "10": {"label": "*1", "atom_type": "Cs"}, "11": {"label": "*0", "atom_type": "Cd"}, "20": {"label": "*2", "atom_type": "H0"}}

>  <type>  (7) 
unop_3

>  <geom_source>  (7) 
Heuristics

$$$$

     RDKit          3D

 27 26  0  0  0  0  0  0  0  0999 V2000
   -0.9441   -2.8907    1.4267 C   0  0  0  0  0  0  0  0  0  0  0  0
   -1.1721   -2.2727    0.2725 C   0  0  0  0  0  0  0  0  0  0  0  0
   -2.4701   -1.7461   -0.1278 C   0  0  0  0  0  0  0  0  0  0  0  0
   -2.6980   -1.1281   -1.2820 C   0  0  0  0  0  0  0  0  0  0  0  0
    0.0371   -3.2671    1.6844 H   0  0  0  0  0  0  0  0  0  0  0  0
   -1.7363   -3.0395    2.1522 H   0  0  0  0  0  0  0  0  0  0  0  0
   -3.2844   -1.8802    0.5791 H   0  0  0  0  0  0  0  0  0  0  0  0
   -3.6793   -0.7518   -1.5397 H   0  0  0  0  0  0  0  0  0  0  0  0
   -1.9059   -0.9793   -2.0075 H   0  0  0  0  0  0  0  0  0  0  0  0
    0.9261   -0.9762   -2.1258 C   0  0  0  0  0  0  0  0  0  0  0  0
    0.9261   -0.9762   -0.5966 C   0  0  0  0  0  0  0  0  0  0  0  0
    0.9261    0.4180   -0.0272 C   0  0  0  0  0  0  0  0  0  0  0  0
   -0.2684    1.0870    0.2205 C   0  0  0  0  0  3  0  0  0  0  0  0
   -0.2717    2.3872    0.7014 C   0  0  0  0  0  0  0  0  0  0  0  0
    0.9261    3.0425    0.9432 C   0  0  0  0  0  0  0  0  0  0  0  0
    2.1239    2.3872    0.7014 C   0  0  0  0  0  0  0  0  0  0  0  0
    2.1206    1.0870    0.2205 C   0  0  0  0  0  0  0  0  0  0  0  0
    1.8074   -0.4612   -2.5126 H   0  0  0  0  0  0  0  0  0  0  0  0
    0.0448   -0.4612   -2.5126 H   0  0  0  0  0  0  0  0  0  0  0  0
    0.9261   -1.9947   -2.5181 H   0  0  0  0  0  0  0  0  0  0  0  0
   -0.1258   -1.6263   -0.1609 H   0  0  0  0  0  0  0  0  0  0  0  0
    1.8027   -1.5179   -0.2335 H   0  0  0  0  0  0  0  0  0  0  0  0
   -1.2093    0.5798    0.0368 H   0  0  0  0  0  0  0  0  0  0  0  0
   -1.2125    2.8889    0.8913 H   0  0  0  0  0  0  0  0  0  0  0  0
    0.9261    4.0569    1.3216 H   0  0  0  0  0  0  0  0  0  0  0  0
    3.0647    2.8889    0.8913 H   0  0  0  0  0  0  0  0  0  0  0  0
    3.0615    0.5798    0.0368 H   0  0  0  0  0  0  0  0  0  0  0  0
  1  2  2  3
  1  5  1  0
  1  6  1  0
  2  3  1  0
  2 21  1  0
  3  4  2  3
  3  7  1  0
  4  8  1  0
  4  9  1  0
 10 11  1  0
 10 18  1  0
 10 19  1  0
 10 20  1  0
 11 12  2  3
 11 22  1  0
 12 13  1  0
 12 17  1  0
 13 14  1  0
 13 23  1  0
 14 15  2  0
 14 24  1  0
 15 16  1  0
 15 25  1  0
 16 17  2  0
 16 26  1  0
 17 27  1  0
M  RAD  1  13   2
M  END
>  <reaction>  (8) 
rxn_1496

>  <mol_properties>  (8) 
{"1": {"label": "*3", "atom_type": "Cd"}, "2": {"label": "*4", "atom_type": "Cd"}, "10": {"label": "*1", "atom_type": "Cs"}, "11": {"label": "*0", "atom_type": "Cd"}, "20": {"label": "*2", "atom_type": "H0"}}

>  <type>  (8) 
unop_4

>  <geom_source>  (8) 
Heuristics

$$$$

     RDKit          3D

 27 26  0  0  0  0  0  0  0  0999 V2000
   -2.2199   -2.6922   -0.9106 C   0  0  0  0  0  0  0  0  0  0  0  0
   -1.3666   -2.1650   -0.0389 C   0  0  0  0  0  0  0  0  0  0  0  0
   -1.5170   -2.2579    1.4072 C   0  0  0  0  0  0  0  0  0  0  0  0
   -0.6637   -1.7306    2.2790 C   0  0  0  0  0  0  0  0  0  0  0  0
   -2.0698   -2.5994   -1.9783 H   0  0  0  0  0  0  0  0  0  0  0  0
   -3.0988   -3.2353   -0.5809 H   0  0  0  0  0  0  0  0  0  0  0  0
   -2.3888   -2.7966    1.7684 H   0  0  0  0  0  0  0  0  0  0  0  0
   -0.8138   -1.8234    3.3466 H   0  0  0  0  0  0  0  0  0  0  0  0
    0.2152   -1.1876    1.9492 H   0  0  0  0  0  0  0  0  0  0  0  0
    0.7316   -0.8685   -2.4372 C   0  0  0  0  0  0  0  0  0  0  0  0
    0.7316   -0.8685   -0.9080 C   0  0  0  0  0  0  0  0  0  0  0  0
    0.7316    0.5258   -0.3386 C   0  0  0  0  0  0  0  0  0  0  0  0
   -0.4630    1.1947   -0.0909 C   0  0  0  0  0  3  0  0  0  0  0  0
   -0.4662    2.4950    0.3900 C   0  0  0  0  0  0  0  0  0  0  0  0
    0.7316    3.1503    0.6318 C   0  0  0  0  0  0  0  0  0  0  0  0
    1.9294    2.4950    0.3900 C   0  0  0  0  0  0  0  0  0  0  0  0
    1.9261    1.1947   -0.0909 C   0  0  0  0  0  0  0  0  0  0  0  0
    1.6128   -0.3534   -2.8240 H   0  0  0  0  0  0  0  0  0  0  0  0
   -0.1497   -0.3534   -2.8240 H   0  0  0  0  0  0  0  0  0  0  0  0
    0.7316   -1.8869   -2.8295 H   0  0  0  0  0  0  0  0  0  0  0  0
   -0.3204   -1.5185   -0.4723 H   0  0  0  0  0  0  0  0  0  0  0  0
    1.6082   -1.4102   -0.5449 H   0  0  0  0  0  0  0  0  0  0  0  0
   -1.4039    0.6876   -0.2746 H   0  0  0  0  0  0  0  0  0  0  0  0
   -1.4070    2.9967    0.5799 H   0  0  0  0  0  0  0  0  0  0  0  0
    0.7316    4.1647    1.0102 H   0  0  0  0  0  0  0  0  0  0  0  0
    2.8702    2.9967    0.5799 H   0  0  0  0  0  0  0  0  0  0  0  0
    2.8670    0.6876   -0.2746 H   0  0  0  0  0  0  0  0  0  0  0  0
  1  2  2  3
  1  5  1  0
  1  6  1  0
  2  3  1  0
  2 21  1  0
  3  4  2  3
  3  7  1  0
  4  8  1  0
  4  9  1  0
 10 11  1  0
 10 18  1  0
 10 19  1  0
 10 20  1  0
 11 12  2  3
 11 22  1  0
 12 13  1  0
 12 17  1  0
 13 14  1  0
 13 23  1  0
 14 15  2  0
 14 24  1  0
 15 16  1  0
 15 25  1  0
 16 17  2  0
 16 26  1  0
 17 27  1  0
M  RAD  1  13   2
M  END
>  <reaction>  (9) 
rxn_1496

>  <mol_properties>  (9) 
{"1": {"label": "*3", "atom_type": "Cd"}, "2": {"label": "*4", "atom_type": "Cd"}, "10": {"label": "*1", "atom_type": "Cs"}, "11": {"label": "*0", "atom_type": "Cd"}, "20": {"label": "*2", "atom_type": "H0"}}

>  <type>  (9) 
unop_5

>  <geom_source>  (9) 
Heuristics

$$$$

     RDKit          3D

 27 26  0  0  0  0  0  0  0  0999 V2000
   -0.7775   -3.2824    0.9816 C   0  0  0  0  0  0  0  0  0  0  0  0
   -1.1893   -2.3167    0.1668 C   0  0  0  0  0  0  0  0  0  0  0  0
   -2.3947   -1.5273    0.3820 C   0  0  0  0  0  0  0  0  0  0  0  0
   -2.8065   -0.5617   -0.4328 C   0  0  0  0  0  0  0  0  0  0  0  0
    0.1255   -3.8449    0.7836 H   0  0  0  0  0  0  0  0  0  0  0  0
   -1.3341   -3.5407    1.8758 H   0  0  0  0  0  0  0  0  0  0  0  0
   -2.9741   -1.7631    1.2705 H   0  0  0  0  0  0  0  0  0  0  0  0
   -3.7095    0.0008   -0.2348 H   0  0  0  0  0  0  0  0  0  0  0  0
   -2.2499   -0.3034   -1.3270 H   0  0  0  0  0  0  0  0  0  0  0  0
    0.9089   -1.0202   -2.2314 C   0  0  0  0  0  0  0  0  0  0  0  0
    0.9089   -1.0202   -0.7023 C   0  0  0  0  0  0  0  0  0  0  0  0
    0.9089    0.3740   -0.1329 C   0  0  0  0  0  0  0  0  0  0  0  0
   -0.2856    1.0430    0.1148 C   0  0  0  0  0  3  0  0  0  0  0  0
   -0.2889    2.3432    0.5958 C   0  0  0  0  0  0  0  0  0  0  0  0
    0.9089    2.9986    0.8376 C   0  0  0  0  0  0  0  0  0  0  0  0
    2.1067    2.3432    0.5958 C   0  0  0  0  0  0  0  0  0  0  0  0
    2.1034    1.0430    0.1148 C   0  0  0  0  0  0  0  0  0  0  0  0
    1.7902   -0.5052   -2.6183 H   0  0  0  0  0  0  0  0  0  0  0  0
    0.0276   -0.5052   -2.6183 H   0  0  0  0  0  0  0  0  0  0  0  0
    0.9089   -2.0387   -2.6237 H   0  0  0  0  0  0  0  0  0  0  0  0
   -0.1431   -1.6702   -0.2666 H   0  0  0  0  0  0  0  0  0  0  0  0
    1.7855   -1.5619   -0.3392 H   0  0  0  0  0  0  0  0  0  0  0  0
   -1.2265    0.5358   -0.0689 H   0  0  0  0  0  0  0  0  0  0  0  0
   -1.2297    2.8449    0.7857 H   0  0  0  0  0  0  0  0  0  0  0  0
    0.9089    4.0129    1.2159 H   0  0  0  0  0  0  0  0  0  0  0  0
    3.0475    2.8449    0.7857 H   0  0  0  0  0  0  0  0  0  0  0  0
    3.0443    0.5358   -0.0689 H   0  0  0  0  0  0  0  0  0  0  0  0
  1  2  2  3
  1  5  1  0
  1  6  1  0
  2  3  1  0
  2 21  1  0
  3  4  2  3
  3  7  1  0
  4  8  1  0
  4  9  1  0
 10 11  1  0
 10 18  1  0
 10 19  1  0
 10 20  1  0
 11 12  2  3
 11 22  1  0
 12 13  1  0
 12 17  1  0
 13 14  1  0
 13 23  1  0
 14 15  2  0
 14 24  1  0
 15 16  1  0
 15 25  1  0
 16 17  2  0
 16 26  1  0
 17 27  1  0
M  RAD  1  13   2
M  END
>  <reaction>  (10) 
rxn_1496

>  <mol_properties>  (10) 
{"1": {"label": "*3", "atom_type": "Cd"}, "2": {"label": "*4", "atom_type": "Cd"}, "10": {"label": "*1", "atom_type": "Cs"}, "11": {"label": "*0", "atom_type": "Cd"}, "20": {"label": "*2", "atom_type": "H0"}}

>  <type>  (10) 
unop_6

>  <geom_source>  (10) 
Heuristics

$$$$

     RDKit          3D

 27 26  0  0  0  0  0  0  0  0999 V2000
   -0.8564   -3.5563    0.3174 C   0  0  0  0  0  0  0  0  0  0  0  0
   -1.2375   -2.3091    0.0624 C   0  0  0  0  0  0  0  0  0  0  0  0
   -2.1664   -1.5544    0.8930 C   0  0  0  0  0  0  0  0  0  0  0  0
   -2.5475   -0.3072    0.6379 C   0  0  0  0  0  0  0  0  0  0  0  0
   -0.1631   -4.0806   -0.3271 H   0  0  0  0  0  0  0  0  0  0  0  0
   -1.2283   -4.0933    1.1831 H   0  0  0  0  0  0  0  0  0  0  0  0
   -2.5566   -2.0663    1.7685 H   0  0  0  0  0  0  0  0  0  0  0  0
   -3.2408    0.2171    1.2825 H   0  0  0  0  0  0  0  0  0  0  0  0
   -2.1756    0.2298   -0.2278 H   0  0  0  0  0  0  0  0  0  0  0  0
    0.8608   -1.0126   -2.3359 C   0  0  0  0  0  0  0  0  0  0  0  0
    0.8608   -1.0126   -0.8068 C   0  0  0  0  0  0  0  0  0  0  0  0
    0.8608    0.3817   -0.2374 C   0  0  0  0  0  0  0  0  0  0  0  0
   -0.3338    1.0506    0.0104 C   0  0  0  0  0  3  0  0  0  0  0  0
   -0.3370    2.3509    0.4913 C   0  0  0  0  0  0  0  0  0  0  0  0
    0.8608    3.0062    0.7331 C   0  0  0  0  0  0  0  0  0  0  0  0
    2.0586    2.3509    0.4913 C   0  0  0  0  0  0  0  0  0  0  0  0
    2.0553    1.0506    0.0104 C   0  0  0  0  0  0  0  0  0  0  0  0
    1.7420   -0.4975   -2.7227 H   0  0  0  0  0  0  0  0  0  0  0  0
   -0.0205   -0.4975   -2.7227 H   0  0  0  0  0  0  0  0  0  0  0  0
    0.8608   -2.0310   -2.7282 H   0  0  0  0  0  0  0  0  0  0  0  0
   -0.1912   -1.6626   -0.3710 H   0  0  0  0  0  0  0  0  0  0  0  0
    1.7374   -1.5543   -0.4436 H   0  0  0  0  0  0  0  0  0  0  0  0
   -1.2747    0.5435   -0.1734 H   0  0  0  0  0  0  0  0  0  0  0  0
   -1.2778    2.8526    0.6812 H   0  0  0  0  0  0  0  0  0  0  0  0
    0.8608    4.0206    1.1115 H   0  0  0  0  0  0  0  0  0  0  0  0
    2.9993    2.8526    0.6812 H   0  0  0  0  0  0  0  0  0  0  0  0
    2.9962    0.5435   -0.1734 H   0  0  0  0  0  0  0  0  0  0  0  0
  1  2  2  3
  1  5  1  0
  1  6  1  0
  2  3  1  0
  2 21  1  0
  3  4  2  3
  3  7  1  0
  4  8  1  0
  4  9  1  0
 10 11  1  0
 10 18  1  0
 10 19  1  0
 10 20  1  0
 11 12  2  3
 11 22  1  0
 12 13  1  0
 12 17  1  0
 13 14  1  0
 13 23  1  0
 14 15  2  0
 14 24  1  0
 15 16  1  0
 15 25  1  0
 16 17  2  0
 16 26  1  0
 17 27  1  0
M  RAD  1  13   2
M  END
>  <reaction>  (11) 
rxn_1496

>  <mol_properties>  (11) 
{"1": {"label": "*3", "atom_type": "Cd"}, "2": {"label": "*4", "atom_type": "Cd"}, "10": {"label": "*1", "atom_type": "Cs"}, "11": {"label": "*0", "atom_type": "Cd"}, "20": {"label": "*2", "atom_type": "H0"}}

>  <type>  (11) 
unop_7

>  <geom_source>  (11) 
Heuristics

$$$$

     RDKit          3D

 27 26  0  0  0  0  0  0  0  0999 V2000
   -2.1024   -1.1382    0.9816 C   0  0  0  0  0  0  0  0  0  0  0  0
   -1.4230   -1.9385    0.1668 C   0  0  0  0  0  0  0  0  0  0  0  0
   -1.2563   -3.3697    0.3820 C   0  0  0  0  0  0  0  0  0  0  0  0
   -0.5769   -4.1700   -0.4328 C   0  0  0  0  0  0  0  0  0  0  0  0
   -2.2015   -0.0790    0.7836 H   0  0  0  0  0  0  0  0  0  0  0  0
   -2.5824   -1.5204    1.8758 H   0  0  0  0  0  0  0  0  0  0  0  0
   -1.7264   -3.7823    1.2705 H   0  0  0  0  0  0  0  0  0  0  0  0
   -0.4778   -5.2292   -0.2348 H   0  0  0  0  0  0  0  0  0  0  0  0
   -0.0969   -3.7878   -1.3270 H   0  0  0  0  0  0  0  0  0  0  0  0
    0.6752   -0.6420   -2.2314 C   0  0  0  0  0  0  0  0  0  0  0  0
    0.6752   -0.6420   -0.7023 C   0  0  0  0  0  0  0  0  0  0  0  0
    0.6752    0.7523   -0.1329 C   0  0  0  0  0  0  0  0  0  0  0  0
   -0.5193    1.4212    0.1148 C   0  0  0  0  0  3  0  0  0  0  0  0
   -0.5226    2.7215    0.5958 C   0  0  0  0  0  0  0  0  0  0  0  0
    0.6752    3.3768    0.8376 C   0  0  0  0  0  0  0  0  0  0  0  0
    1.8730    2.7215    0.5958 C   0  0  0  0  0  0  0  0  0  0  0  0
    1.8697    1.4212    0.1148 C   0  0  0  0  0  0  0  0  0  0  0  0
    1.5565   -0.1269   -2.6183 H   0  0  0  0  0  0  0  0  0  0  0  0
   -0.2061   -0.1269   -2.6183 H   0  0  0  0  0  0  0  0  0  0  0  0
    0.6752   -1.6604   -2.6237 H   0  0  0  0  0  0  0  0  0  0  0  0
   -0.3768   -1.2920   -0.2666 H   0  0  0  0  0  0  0  0  0  0  0  0
    1.5518   -1.1837   -0.3392 H   0  0  0  0  0  0  0  0  0  0  0  0
   -1.4602    0.9141   -0.0689 H   0  0  0  0  0  0  0  0  0  0  0  0
   -1.4634    3.2232    0.7857 H   0  0  0  0  0  0  0  0  0  0  0  0
    0.6752    4.3912    1.2159 H   0  0  0  0  0  0  0  0  0  0  0  0
    2.8138    3.2232    0.7857 H   0  0  0  0  0  0  0  0  0  0  0  0
    2.8106    0.9141   -0.0689 H   0  0  0  0  0  0  0  0  0  0  0  0
  1  2  2  3
  1  5  1  0
  1  6  1  0
  2  3  1  0
  2 21  1  0
  3  4  2  3
  3  7  1  0
  4  8  1  0
  4  9  1  0
 10 11  1  0
 10 18  1  0
 10 19  1  0
 10 20  1  0
 11 12  2  3
 11 22  1  0
 12 13  1  0
 12 17  1  0
 13 14  1  0
 13 23  1  0
 14 15  2  0
 14 24  1  0
 15 16  1  0
 15 25  1  0
 16 17  2  0
 16 26  1  0
 17 27  1  0
M  RAD  1  13   2
M  END
>  <reaction>  (12) 
rxn_1496

>  <mol_properties>  (12) 
{"1": {"label": "*3", "atom_type": "Cd"}, "2": {"label": "*4", "atom_type": "Cd"}, "10": {"label": "*1", "atom_type": "Cs"}, "11": {"label": "*0", "atom_type": "Cd"}, "20": {"label": "*2", "atom_type": "H0"}}

>  <type>  (12) 
unop_8

>  <geom_source>  (12) 
Heuristics

$$$$

     RDKit          3D

 27 26  0  0  0  0  0  0  0  0999 V2000
   -1.2107   -2.5226    1.6366 C   0  0  0  0  0  0  0  0  0  0  0  0
   -1.1910   -2.1887    0.3505 C   0  0  0  0  0  0  0  0  0  0  0  0
   -2.3729   -2.1519   -0.5004 C   0  0  0  0  0  0  0  0  0  0  0  0
   -2.3533   -1.8180   -1.7865 C   0  0  0  0  0  0  0  0  0  0  0  0
   -0.3077   -2.5368    2.2328 H   0  0  0  0  0  0  0  0  0  0  0  0
   -2.1353   -2.7932    2.1345 H   0  0  0  0  0  0  0  0  0  0  0  0
   -3.3153   -2.4183   -0.0295 H   0  0  0  0  0  0  0  0  0  0  0  0
   -3.2562   -1.8038   -2.3827 H   0  0  0  0  0  0  0  0  0  0  0  0
   -1.4286   -1.5475   -2.2843 H   0  0  0  0  0  0  0  0  0  0  0  0
    0.9072   -0.8922   -2.0477 C   0  0  0  0  0  0  0  0  0  0  0  0
    0.9072   -0.8922   -0.5186 C   0  0  0  0  0  0  0  0  0  0  0  0
    0.9072    0.5021    0.0508 C   0  0  0  0  0  0  0  0  0  0  0  0
   -0.2873    1.1710    0.2985 C   0  0  0  0  0  3  0  0  0  0  0  0
   -0.2906    2.4712    0.7795 C   0  0  0  0  0  0  0  0  0  0  0  0
    0.9072    3.1266    1.0213 C   0  0  0  0  0  0  0  0  0  0  0  0
    2.1050    2.4712    0.7795 C   0  0  0  0  0  0  0  0  0  0  0  0
    2.1017    1.1710    0.2985 C   0  0  0  0  0  0  0  0  0  0  0  0
    1.7885   -0.3772   -2.4346 H   0  0  0  0  0  0  0  0  0  0  0  0
    0.0259   -0.3772   -2.4346 H   0  0  0  0  0  0  0  0  0  0  0  0
    0.9072   -1.9106   -2.4401 H   0  0  0  0  0  0  0  0  0  0  0  0
   -0.1447   -1.5422   -0.0829 H   0  0  0  0  0  0  0  0  0  0  0  0
    1.7839   -1.4339   -0.1555 H   0  0  0  0  0  0  0  0  0  0  0  0
   -1.2282    0.6638    0.1148 H   0  0  0  0  0  0  0  0  0  0  0  0
   -1.2314    2.9729    0.9694 H   0  0  0  0  0  0  0  0  0  0  0  0
    0.9072    4.1409    1.3996 H   0  0  0  0  0  0  0  0  0  0  0  0
    3.0458    2.9729    0.9694 H   0  0  0  0  0  0  0  0  0  0  0  0
    3.0426    0.6638    0.1148 H   0  0  0  0  0  0  0  0  0  0  0  0
  1  2  2  3
  1  5  1  0
  1  6  1  0
  2  3  1  0
  2 21  1  0
  3  4  2  3
  3  7  1  0
  4  8  1  0
  4  9  1  0
 10 11  1  0
 10 18  1  0
 10 19  1  0
 10 20  1  0
 11 12  2  3
 11 22  1  0
 12 13  1  0
 12 17  1  0
 13 14  1  0
 13 23  1  0
 14 15  2  0
 14 24  1  0
 15 16  1  0
 15 25  1  0
 16 17  2  0
 16 26  1  0
 17 27  1  0
M  RAD  1  13   2
M  END
>  <reaction>  (13) 
rxn_1496

>  <mol_properties>  (13) 
{"1": {"label": "*3", "atom_type": "Cd"}, "2": {"label": "*4", "atom_type": "Cd"}, "10": {"label": "*1", "atom_type": "Cs"}, "11": {"label": "*0", "atom_type": "Cd"}, "20": {"label": "*2", "atom_type": "H0"}}

>  <type>  (13) 
unop_9

>  <geom_source>  (13) 
Heuristics

$$$$

     RDKit          3D

 27 26  0  0  0  0  0  0  0  0999 V2000
   -1.8267   -1.4624    1.4267 C   0  0  0  0  0  0  0  0  0  0  0  0
   -1.3760   -1.9428    0.2725 C   0  0  0  0  0  0  0  0  0  0  0  0
   -1.4857   -3.3392   -0.1278 C   0  0  0  0  0  0  0  0  0  0  0  0
   -1.0350   -3.8196   -1.2820 C   0  0  0  0  0  0  0  0  0  0  0  0
   -1.7243   -0.4165    1.6844 H   0  0  0  0  0  0  0  0  0  0  0  0
   -2.3142   -2.1043    2.1522 H   0  0  0  0  0  0  0  0  0  0  0  0
   -1.9699   -4.0075    0.5791 H   0  0  0  0  0  0  0  0  0  0  0  0
   -1.1374   -4.8655   -1.5397 H   0  0  0  0  0  0  0  0  0  0  0  0
   -0.5475   -3.1777   -2.0075 H   0  0  0  0  0  0  0  0  0  0  0  0
    0.7222   -0.6463   -2.1258 C   0  0  0  0  0  0  0  0  0  0  0  0
    0.7222   -0.6463   -0.5966 C   0  0  0  0  0  0  0  0  0  0  0  0
    0.7222    0.7480   -0.0272 C   0  0  0  0  0  0  0  0  0  0  0  0
   -0.4723    1.4170    0.2205 C   0  0  0  0  0  3  0  0  0  0  0  0
   -0.4756    2.7172    0.7014 C   0  0  0  0  0  0  0  0  0  0  0  0
    0.7222    3.3725    0.9432 C   0  0  0  0  0  0  0  0  0  0  0  0
    1.9200    2.7172    0.7014 C   0  0  0  0  0  0  0  0  0  0  0  0
    1.9167    1.4170    0.2205 C   0  0  0  0  0  0  0  0  0  0  0  0
    1.6035   -0.1312   -2.5126 H   0  0  0  0  0  0  0  0  0  0  0  0
   -0.1591   -0.1312   -2.5126 H   0  0  0  0  0  0  0  0  0  0  0  0
    0.7222   -1.6647   -2.5181 H   0  0  0  0  0  0  0  0  0  0  0  0
   -0.3298   -1.2963   -0.1609 H   0  0  0  0  0  0  0  0  0  0  0  0
    1.5988   -1.1879   -0.2335 H   0  0  0  0  0  0  0  0  0  0  0  0
   -1.4132    0.9098    0.0368 H   0  0  0  0  0  0  0  0  0  0  0  0
   -1.4164    3.2189    0.8913 H   0  0  0  0  0  0  0  0  0  0  0  0
    0.7222    4.3869    1.3216 H   0  0  0  0  0  0  0  0  0  0  0  0
    2.8608    3.2189    0.8913 H   0  0  0  0  0  0  0  0  0  0  0  0
    2.8576    0.9098    0.0368 H   0  0  0  0  0  0  0  0  0  0  0  0
  1  2  2  3
  1  5  1  0
  1  6  1  0
  2  3  1  0
  2 21  1  0
  3  4  2  3
  3  7  1  0
  4  8  1  0
  4  9  1  0
 10 11  1  0
 10 18  1  0
 10 19  1  0
 10 20  1  0
 11 12  2  3
 11 22  1  0
 12 13  1  0
 12 17  1  0
 13 14  1  0
 13 23  1  0
 14 15  2  0
 14 24  1  0
 15 16  1  0
 15 25  1  0
 16 17  2  0
 16 26  1  0
 17 27  1  0
M  RAD  1  13   2
M  END
>  <reaction>  (14) 
rxn_1496

>  <mol_properties>  (14) 
{"1": {"label": "*3", "atom_type": "Cd"}, "2": {"label": "*4", "atom_type": "Cd"}, "10": {"label": "*1", "atom_type": "Cs"}, "11": {"label": "*0", "atom_type": "Cd"}, "20": {"label": "*2", "atom_type": "H0"}}

>  <type>  (14) 
unop_10

>  <geom_source>  (14) 
Heuristics

$$$$

     RDKit          3D

 27 26  0  0  0  0  0  0  0  0999 V2000
   -1.3320   -3.5079   -0.4476 C   0  0  0  0  0  0  0  0  0  0  0  0
   -1.3027   -2.2526   -0.0125 C   0  0  0  0  0  0  0  0  0  0  0  0
   -1.8454   -1.8209    1.2687 C   0  0  0  0  0  0  0  0  0  0  0  0
   -1.8161   -0.5656    1.7037 C   0  0  0  0  0  0  0  0  0  0  0  0
   -0.9165   -3.7854   -1.4074 H   0  0  0  0  0  0  0  0  0  0  0  0
   -1.7748   -4.2999    0.1463 H   0  0  0  0  0  0  0  0  0  0  0  0
   -2.2962   -2.5926    1.8868 H   0  0  0  0  0  0  0  0  0  0  0  0
   -2.2316   -0.2881    2.6636 H   0  0  0  0  0  0  0  0  0  0  0  0
   -1.3733    0.2264    1.1098 H   0  0  0  0  0  0  0  0  0  0  0  0
    0.7956   -0.9561   -2.4108 C   0  0  0  0  0  0  0  0  0  0  0  0
    0.7956   -0.9561   -0.8817 C   0  0  0  0  0  0  0  0  0  0  0  0
    0.7956    0.4382   -0.3123 C   0  0  0  0  0  0  0  0  0  0  0  0
   -0.3990    1.1071   -0.0645 C   0  0  0  0  0  3  0  0  0  0  0  0
   -0.4023    2.4073    0.4164 C   0  0  0  0  0  0  0  0  0  0  0  0
    0.7956    3.0627    0.6582 C   0  0  0  0  0  0  0  0  0  0  0  0
    1.9934    2.4073    0.4164 C   0  0  0  0  0  0  0  0  0  0  0  0
    1.9901    1.1071   -0.0645 C   0  0  0  0  0  0  0  0  0  0  0  0
    1.6768   -0.4410   -2.7976 H   0  0  0  0  0  0  0  0  0  0  0  0
   -0.0857   -0.4410   -2.7976 H   0  0  0  0  0  0  0  0  0  0  0  0
    0.7956   -1.9745   -2.8031 H   0  0  0  0  0  0  0  0  0  0  0  0
   -0.2564   -1.6061   -0.4459 H   0  0  0  0  0  0  0  0  0  0  0  0
    1.6722   -1.4978   -0.5185 H   0  0  0  0  0  0  0  0  0  0  0  0
   -1.3399    0.6000   -0.2483 H   0  0  0  0  0  0  0  0  0  0  0  0
   -1.3430    2.9090    0.6063 H   0  0  0  0  0  0  0  0  0  0  0  0
    0.7956    4.0770    1.0366 H   0  0  0  0  0  0  0  0  0  0  0  0
    2.9341    2.9090    0.6063 H   0  0  0  0  0  0  0  0  0  0  0  0
    2.9310    0.6000   -0.2483 H   0  0  0  0  0  0  0  0  0  0  0  0
  1  2  2  3
  1  5  1  0
  1  6  1  0
  2  3  1  0
  2 21  1  0
  3  4  2  3
  3  7  1  0
  4  8  1  0
  4  9  1  0
 10 11  1  0
 10 18  1  0
 10 19  1  0
 10 20  1  0
 11 12  2  3
 11 22  1  0
 12 13  1  0
 12 17  1  0
 13 14  1  0
 13 23  1  0
 14 15  2  0
 14 24  1  0
 15 16  1  0
 15 25  1  0
 16 17  2  0
 16 26  1  0
 17 27  1  0
M  RAD  1  13   2
M  END
>  <reaction>  (15) 
rxn_1496

>  <mol_properties>  (15) 
{"1": {"label": "*3", "atom_type": "Cd"}, "2": {"label": "*4", "atom_type": "Cd"}, "10": {"label": "*1", "atom_type": "Cs"}, "11": {"label": "*0", "atom_type": "Cd"}, "20": {"label": "*2", "atom_type": "H0"}}

>  <type>  (15) 
unop_11

>  <geom_source>  (15) 
Heuristics

$$$$

     RDKit          3D

 27 26  0  0  0  0  0  0  0  0999 V2000
   -1.4411   -2.2110    1.6872 C   0  0  0  0  0  0  0  0  0  0  0  0
   -1.2413   -2.0875    0.3792 C   0  0  0  0  0  0  0  0  0  0  0  0
   -2.1296   -2.6364   -0.6366 C   0  0  0  0  0  0  0  0  0  0  0  0
   -1.9298   -2.5130   -1.9446 C   0  0  0  0  0  0  0  0  0  0  0  0
   -0.7548   -1.7869    2.4083 H   0  0  0  0  0  0  0  0  0  0  0  0
   -2.3017   -2.7427    2.0780 H   0  0  0  0  0  0  0  0  0  0  0  0
   -3.0015   -3.1752   -0.2754 H   0  0  0  0  0  0  0  0  0  0  0  0
   -2.6162   -2.9371   -2.6657 H   0  0  0  0  0  0  0  0  0  0  0  0
   -1.0693   -1.9812   -2.3354 H   0  0  0  0  0  0  0  0  0  0  0  0
    0.8569   -0.7910   -2.0190 C   0  0  0  0  0  0  0  0  0  0  0  0
    0.8569   -0.7910   -0.4899 C   0  0  0  0  0  0  0  0  0  0  0  0
    0.8569    0.6033    0.0795 C   0  0  0  0  0  0  0  0  0  0  0  0
   -0.3376    1.2722    0.3272 C   0  0  0  0  0  3  0  0  0  0  0  0
   -0.3409    2.5724    0.8082 C   0  0  0  0  0  0  0  0  0  0  0  0
    0.8569    3.2278    1.0500 C   0  0  0  0  0  0  0  0  0  0  0  0
    2.0547    2.5724    0.8082 C   0  0  0  0  0  0  0  0  0  0  0  0
    2.0514    1.2722    0.3272 C   0  0  0  0  0  0  0  0  0  0  0  0
    1.7382   -0.2760   -2.4059 H   0  0  0  0  0  0  0  0  0  0  0  0
   -0.0244   -0.2760   -2.4059 H   0  0  0  0  0  0  0  0  0  0  0  0
    0.8569   -1.8094   -2.4114 H   0  0  0  0  0  0  0  0  0  0  0  0
   -0.1951   -1.4410   -0.0542 H   0  0  0  0  0  0  0  0  0  0  0  0
    1.7335   -1.3327   -0.1268 H   0  0  0  0  0  0  0  0  0  0  0  0
   -1.2785    0.7650    0.1435 H   0  0  0  0  0  0  0  0  0  0  0  0
   -1.2817    3.0741    0.9981 H   0  0  0  0  0  0  0  0  0  0  0  0
    0.8569    4.2421    1.4283 H   0  0  0  0  0  0  0  0  0  0  0  0
    2.9955    3.0741    0.9981 H   0  0  0  0  0  0  0  0  0  0  0  0
    2.9923    0.7650    0.1435 H   0  0  0  0  0  0  0  0  0  0  0  0
  1  2  2  3
  1  5  1  0
  1  6  1  0
  2  3  1  0
  2 21  1  0
  3  4  2  3
  3  7  1  0
  4  8  1  0
  4  9  1  0
 10 11  1  0
 10 18  1  0
 10 19  1  0
 10 20  1  0
 11 12  2  3
 11 22  1  0
 12 13  1  0
 12 17  1  0
 13 14  1  0
 13 23  1  0
 14 15  2  0
 14 24  1  0
 15 16  1  0
 15 25  1  0
 16 17  2  0
 16 26  1  0
 17 27  1  0
M  RAD  1  13   2
M  END
>  <reaction>  (16) 
rxn_1496

>  <mol_properties>  (16) 
{"1": {"label": "*3", "atom_type": "Cd"}, "2": {"label": "*4", "atom_type": "Cd"}, "10": {"label": "*1", "atom_type": "Cs"}, "11": {"label": "*0", "atom_type": "Cd"}, "20": {"label": "*2", "atom_type": "H0"}}

>  <type>  (16) 
unop_12

>  <geom_source>  (16) 
Heuristics

$$$$

     RDKit          3D

 27 26  0  0  0  0  0  0  0  0999 V2000
   -0.1089    2.1717    0.4380 C   0  0  0  0  0  0  0  0  0  0  0  0
   -1.3283   -0.0050    0.3699 C   0  0  0  0  0  0  0  0  0  0  0  0
   -0.0238    0.6690    0.6710 C   0  0  0  0  0  0  0  0  0  0  0  0
   -1.5218   -0.6165   -0.8767 C   0  0  0  0  0  3  0  0  0  0  0  0
   -2.3703   -0.0033    1.3113 C   0  0  0  0  0  0  0  0  0  0  0  0
   -2.7421   -1.2313   -1.1754 C   0  0  0  0  0  0  0  0  0  0  0  0
   -3.7747   -1.2334   -0.2327 C   0  0  0  0  0  0  0  0  0  0  0  0
   -3.5892   -0.6190    1.0094 C   0  0  0  0  0  0  0  0  0  0  0  0
    3.0192   -0.5180    0.5365 C   0  0  0  0  0  0  0  0  0  0  0  0
    2.1153   -0.0962   -0.5564 C   0  0  0  0  0  0  0  0  0  0  0  0
    4.3290   -0.7354    0.4050 C   0  0  0  0  0  0  0  0  0  0  0  0
    2.4897    0.1226   -1.8177 C   0  0  0  0  0  0  0  0  0  0  0  0
    0.8830    2.6296    0.6327 H   0  0  0  0  0  0  0  0  0  0  0  0
   -0.3956    2.3792   -0.6148 H   0  0  0  0  0  0  0  0  0  0  0  0
   -0.8559    2.6279    1.1221 H   0  0  0  0  0  0  0  0  0  0  0  0
    0.2992    0.4549    1.7128 H   0  0  0  0  0  0  0  0  0  0  0  0
    2.5766   -0.6589    1.5145 H   0  0  0  0  0  0  0  0  0  0  0  0
    0.9465    0.0606   -0.2774 H   0  0  0  0  0  0  0  0  0  0  0  0
   -0.7292   -0.6162   -1.6150 H   0  0  0  0  0  0  0  0  0  0  0  0
   -2.8879   -1.7045   -2.1378 H   0  0  0  0  0  0  0  0  0  0  0  0
   -2.2378    0.4740    2.2744 H   0  0  0  0  0  0  0  0  0  0  0  0
   -4.7188   -1.7090   -0.4655 H   0  0  0  0  0  0  0  0  0  0  0  0
   -4.3903   -0.6183    1.7372 H   0  0  0  0  0  0  0  0  0  0  0  0
    4.9075   -1.0426    1.2667 H   0  0  0  0  0  0  0  0  0  0  0  0
    4.8498   -0.6184   -0.5334 H   0  0  0  0  0  0  0  0  0  0  0  0
    3.5090    0.0072   -2.1542 H   0  0  0  0  0  0  0  0  0  0  0  0
    1.7496    0.4294   -2.5448 H   0  0  0  0  0  0  0  0  0  0  0  0
  1  3  1  0
  1 13  1  0
  1 14  1  0
  1 15  1  0
  2  3  2  3
  2  4  1  0
  2  5  1  0
  3 16  1  0
  4  6  1  0
  4 19  1  0
  5  8  2  0
  5 21  1  0
  6  7  2  0
  6 20  1  0
  7  8  1  0
  7 22  1  0
  8 23  1  0
  9 11  2  3
  9 10  1  0
  9 17  1  0
 10 12  2  3
 10 18  1  0
 11 24  1  0
 11 25  1  0
 12 26  1  0
 12 27  1  0
M  RAD  1   4   2
M  END
>  <reaction>  (17) 
rxn_1496

>  <mol_properties>  (17) 
{"1": {"label": "*3", "atom_type": "Cd"}, "2": {"label": "*4", "atom_type": "Cd"}, "10": {"label": "*1", "atom_type": "Cs"}, "11": {"label": "*0", "atom_type": "Cd"}, "20": {"label": "*2", "atom_type": "H0"}}

>  <type>  (17) 
unop_13

>  <geom_source>  (17) 
AutoTST

$$$$
