
     RDKit          3D

 18 18  0  0  0  0  0  0  0  0999 V2000
   -2.4852    0.3210   -0.3966 C   0  0  0  0  0  0  0  0  0  0  0  0
   -1.5917   -0.2708    0.6941 C   0  0  0  0  0  0  0  0  0  0  0  0
   -0.1292   -0.1692    0.3493 C   0  0  0  0  0  0  0  0  0  0  0  0
    0.6099    0.9558    0.7015 C   0  0  0  0  0  0  0  0  0  0  0  0
    1.9447    1.0728    0.3458 C   0  0  0  0  0  0  0  0  0  0  0  0
    2.5646    0.0613   -0.3720 C   0  0  0  0  0  0  0  0  0  0  0  0
    1.8399   -1.0657   -0.7287 C   0  0  0  0  0  0  0  0  0  0  0  0
    0.5055   -1.1769   -0.3700 C   0  0  0  0  0  0  0  0  0  0  0  0
   -2.3325   -0.1971   -1.3452 H   0  0  0  0  0  0  0  0  0  0  0  0
   -2.2554    1.3763   -0.5546 H   0  0  0  0  0  0  0  0  0  0  0  0
   -3.5397    0.2376   -0.1280 H   0  0  0  0  0  0  0  0  0  0  0  0
   -1.7801    0.2462    1.6380 H   0  0  0  0  0  0  0  0  0  0  0  0
   -1.8568   -1.3190    0.8516 H   0  0  0  0  0  0  0  0  0  0  0  0
    0.1327    1.7497    1.2656 H   0  0  0  0  0  0  0  0  0  0  0  0
    2.5033    1.9550    0.6330 H   0  0  0  0  0  0  0  0  0  0  0  0
    3.6077    0.1491   -0.6484 H   0  0  0  0  0  0  0  0  0  0  0  0
    2.3163   -1.8632   -1.2854 H   0  0  0  0  0  0  0  0  0  0  0  0
   -0.0540   -2.0629   -0.6500 H   0  0  0  0  0  0  0  0  0  0  0  0
  1  2  1  0
  1  9  1  0
  1 10  1  0
  1 11  1  0
  2  3  1  0
  2 12  1  0
  2 13  1  0
  3  4  2  0
  3  8  1  0
  4  5  1  0
  4 14  1  0
  5  6  2  0
  5 15  1  0
  6  7  1  0
  6 16  1  0
  7  8  2  0
  7 17  1  0
  8 18  1  0
M  END
>  <reaction>  (1) 
rxn_1494

>  <mol_properties>  (1) 
{"2": {"label": "donator", "atom_type": "Cs"}, "17": {"label": "d_hydrogen", "atom_type": "H0"}}

>  <type>  (1) 
r1h

$$$$

     RDKit          3D

  5  4  0  0  0  0  0  0  0  0999 V2000
    0.0397    0.7134    0.0000 C   0  0  0  0  0  3  0  0  0  0  0  0
    0.0458   -0.5870    0.0000 C   0  0  0  0  0  0  0  0  0  0  0  0
   -0.6871    1.5118    0.0000 H   0  0  0  0  0  0  0  0  0  0  0  0
   -0.8806   -1.1637    0.0000 H   0  0  0  0  0  0  0  0  0  0  0  0
    0.9690   -1.1600    0.0000 H   0  0  0  0  0  0  0  0  0  0  0  0
  1  2  2  3
  1  3  1  0
  2  4  1  0
  2  5  1  0
M  RAD  1   1   2
M  END
>  <reaction>  (2) 
rxn_1494

>  <mol_properties>  (2) 
{"0": {"label": "acceptor", "atom_type": "Cd"}}

>  <type>  (2) 
r2

$$$$

     RDKit          3D

  6  5  0  0  0  0  0  0  0  0999 V2000
    0.6594    0.0438   -0.0050 C   0  0  0  0  0  0  0  0  0  0  0  0
   -0.6594   -0.0438    0.0050 C   0  0  0  0  0  0  0  0  0  0  0  0
    1.1706    0.8681   -0.4881 H   0  0  0  0  0  0  0  0  0  0  0  0
    1.2824   -0.7051    0.4696 H   0  0  0  0  0  0  0  0  0  0  0  0
   -1.2824    0.7051   -0.4696 H   0  0  0  0  0  0  0  0  0  0  0  0
   -1.1706   -0.8681    0.4881 H   0  0  0  0  0  0  0  0  0  0  0  0
  1  2  2  3
  1  3  1  0
  1  4  1  0
  2  5  1  0
  2  6  1  0
M  END
>  <reaction>  (3) 
rxn_1494

>  <mol_properties>  (3) 
{"0": {"label": "acceptor", "atom_type": "Cd"}, "2": {"label": "a_hydrogen", "atom_type": "H0"}}

>  <type>  (3) 
r2h

$$$$

     RDKit          3D

 23 22  0  0  0  0  0  0  0  0999 V2000
   -0.4208    2.1572   -1.3841 C   0  0  0  0  0  0  0  0  0  0  0  0
    0.6070    0.3453    0.1286 C   0  0  0  0  0  0  0  0  0  0  0  0
   -0.3540    1.4655   -0.0403 C   0  0  0  0  0  0  0  0  0  0  0  0
    0.9868   -0.0478    1.4143 C   0  0  0  0  0  0  0  0  0  0  0  0
    1.1027   -0.3850   -0.9512 C   0  0  0  0  0  0  0  0  0  0  0  0
    1.8267   -1.1285    1.6151 C   0  0  0  0  0  0  0  0  0  0  0  0
    2.3105   -1.8465    0.5298 C   0  0  0  0  0  0  0  0  0  0  0  0
    1.9460   -1.4677   -0.7525 C   0  0  0  0  0  0  0  0  0  0  0  0
   -2.7298    0.1796    0.2643 C   0  0  0  0  0  3  0  0  0  0  0  0
   -2.5232   -1.1096    0.3669 C   0  0  0  0  0  0  0  0  0  0  0  0
   -0.7464    1.4751   -2.1714 H   0  0  0  0  0  0  0  0  0  0  0  0
   -1.1346    2.9809   -1.3514 H   0  0  0  0  0  0  0  0  0  0  0  0
    0.5520    2.5640   -1.6727 H   0  0  0  0  0  0  0  0  0  0  0  0
   -0.2753    2.1756    0.7842 H   0  0  0  0  0  0  0  0  0  0  0  0
    0.6084    0.5046    2.2670 H   0  0  0  0  0  0  0  0  0  0  0  0
    2.1069   -1.4123    2.6220 H   0  0  0  0  0  0  0  0  0  0  0  0
    2.9690   -2.6919    0.6837 H   0  0  0  0  0  0  0  0  0  0  0  0
    2.3201   -2.0183   -1.6067 H   0  0  0  0  0  0  0  0  0  0  0  0
    0.8294   -0.1078   -1.9611 H   0  0  0  0  0  0  0  0  0  0  0  0
   -1.4642    0.9694    0.1365 H   0  0  0  0  0  0  0  0  0  0  0  0
   -3.6561    0.7411    0.2544 H   0  0  0  0  0  0  0  0  0  0  0  0
   -1.5180   -1.5234    0.3614 H   0  0  0  0  0  0  0  0  0  0  0  0
   -3.3430   -1.8194    0.4631 H   0  0  0  0  0  0  0  0  0  0  0  0
  1  3  1  0
  1 11  1  0
  1 12  1  0
  1 13  1  0
  2  3  1  0
  2  4  2  0
  2  5  1  0
  3 14  1  0
  3 20  1  0
  4  6  1  0
  4 15  1  0
  5  8  2  0
  5 19  1  0
  6  7  2  0
  6 16  1  0
  7  8  1  0
  7 17  1  0
  8 18  1  0
  9 10  2  3
  9 21  1  0
 10 22  1  0
 10 23  1  0
M  RAD  1   9   2
M  END
>  <reaction>  (4) 
rxn_1494

>  <mol_properties>  (4) 
{"1": {"label": "*0", "atom_type": "Cd"}, "2": {"label": "*1", "atom_type": "Cs"}, "8": {"label": "*3", "atom_type": "Cd"}, "9": {"label": "*4", "atom_type": "Cd"}, "19": {"label": "*2", "atom_type": "H0"}}

>  <type>  (4) 
ts

$$$$

     RDKit          3D

 23 22  0  0  0  0  0  0  0  0999 V2000
   -1.6761   -2.4955    0.1620 C   0  0  0  0  0  0  0  0  0  0  0  0
   -1.5610   -3.5699    0.9231 C   0  0  0  0  0  0  0  0  0  0  0  0
   -2.3791   -1.7051    0.3970 H   0  0  0  0  0  0  0  0  0  0  0  0
   -2.1650   -3.7037    1.8127 H   0  0  0  0  0  0  0  0  0  0  0  0
   -0.8579   -4.3603    0.6880 H   0  0  0  0  0  0  0  0  0  0  0  0
    0.4192   -1.2008   -2.2351 C   0  0  0  0  0  0  0  0  0  0  0  0
    0.4192   -1.2008   -0.7059 C   0  0  0  0  0  0  0  0  0  0  0  0
    0.4192    0.1935   -0.1365 C   0  0  0  0  0  0  0  0  0  0  0  0
   -0.7753    0.8624    0.1112 C   0  0  0  0  0  3  0  0  0  0  0  0
   -0.7786    2.1627    0.5921 C   0  0  0  0  0  0  0  0  0  0  0  0
    0.4192    2.8180    0.8339 C   0  0  0  0  0  0  0  0  0  0  0  0
    1.6170    2.1627    0.5921 C   0  0  0  0  0  0  0  0  0  0  0  0
    1.6137    0.8624    0.1112 C   0  0  0  0  0  0  0  0  0  0  0  0
    1.3005   -0.6857   -2.6219 H   0  0  0  0  0  0  0  0  0  0  0  0
   -0.4621   -0.6857   -2.6219 H   0  0  0  0  0  0  0  0  0  0  0  0
    0.4192   -2.2192   -2.6274 H   0  0  0  0  0  0  0  0  0  0  0  0
   -0.6328   -1.8508   -0.2702 H   0  0  0  0  0  0  0  0  0  0  0  0
    1.2958   -1.7425   -0.3428 H   0  0  0  0  0  0  0  0  0  0  0  0
   -1.7162    0.3553   -0.0725 H   0  0  0  0  0  0  0  0  0  0  0  0
   -1.7194    2.6644    0.7820 H   0  0  0  0  0  0  0  0  0  0  0  0
    0.4192    3.8323    1.2123 H   0  0  0  0  0  0  0  0  0  0  0  0
    2.5578    2.6644    0.7820 H   0  0  0  0  0  0  0  0  0  0  0  0
    2.5546    0.3553   -0.0725 H   0  0  0  0  0  0  0  0  0  0  0  0
  1  2  2  3
  1  3  1  0
  1 17  1  0
  2  4  1  0
  2  5  1  0
  6  7  1  0
  6 14  1  0
  6 15  1  0
  6 16  1  0
  7  8  2  3
  7 18  1  0
  8  9  1  0
  8 13  1  0
  9 10  1  0
  9 19  1  0
 10 11  2  0
 10 20  1  0
 11 12  1  0
 11 21  1  0
 12 13  2  0
 12 22  1  0
 13 23  1  0
M  RAD  1   9   2
M  END
>  <reaction>  (5) 
rxn_1494

>  <mol_properties>  (5) 
{"1": {"label": "*0", "atom_type": "Cd"}, "2": {"label": "*1", "atom_type": "Cs"}, "8": {"label": "*3", "atom_type": "Cd"}, "9": {"label": "*4", "atom_type": "Cd"}, "19": {"label": "*2", "atom_type": "H0"}}

>  <type>  (5) 
unop_1

>  <geom_source>  (5) 
Heuristics

$$$$

     RDKit          3D

 23 22  0  0  0  0  0  0  0  0999 V2000
   -1.6070   -2.4997    0.3179 C   0  0  0  0  0  0  0  0  0  0  0  0
   -2.1431   -3.4923   -0.3708 C   0  0  0  0  0  0  0  0  0  0  0  0
   -1.8171   -2.3606    1.3718 H   0  0  0  0  0  0  0  0  0  0  0  0
   -2.8142   -4.2070    0.0907 H   0  0  0  0  0  0  0  0  0  0  0  0
   -1.9329   -3.6313   -1.4247 H   0  0  0  0  0  0  0  0  0  0  0  0
    0.4883   -1.2050   -2.0791 C   0  0  0  0  0  0  0  0  0  0  0  0
    0.4883   -1.2050   -0.5500 C   0  0  0  0  0  0  0  0  0  0  0  0
    0.4883    0.1893    0.0194 C   0  0  0  0  0  0  0  0  0  0  0  0
   -0.7063    0.8582    0.2671 C   0  0  0  0  0  3  0  0  0  0  0  0
   -0.7095    2.1584    0.7480 C   0  0  0  0  0  0  0  0  0  0  0  0
    0.4883    2.8138    0.9898 C   0  0  0  0  0  0  0  0  0  0  0  0
    1.6861    2.1584    0.7480 C   0  0  0  0  0  0  0  0  0  0  0  0
    1.6828    0.8582    0.2671 C   0  0  0  0  0  0  0  0  0  0  0  0
    1.3695   -0.6899   -2.4660 H   0  0  0  0  0  0  0  0  0  0  0  0
   -0.3930   -0.6899   -2.4660 H   0  0  0  0  0  0  0  0  0  0  0  0
    0.4883   -2.2234   -2.4715 H   0  0  0  0  0  0  0  0  0  0  0  0
   -0.5637   -1.8550   -0.1143 H   0  0  0  0  0  0  0  0  0  0  0  0
    1.3649   -1.7467   -0.1869 H   0  0  0  0  0  0  0  0  0  0  0  0
   -1.6472    0.3511    0.0834 H   0  0  0  0  0  0  0  0  0  0  0  0
   -1.6503    2.6601    0.9380 H   0  0  0  0  0  0  0  0  0  0  0  0
    0.4883    3.8281    1.3682 H   0  0  0  0  0  0  0  0  0  0  0  0
    2.6268    2.6601    0.9380 H   0  0  0  0  0  0  0  0  0  0  0  0
    2.6237    0.3511    0.0834 H   0  0  0  0  0  0  0  0  0  0  0  0
  1  2  2  3
  1  3  1  0
  1 17  1  0
  2  4  1  0
  2  5  1  0
  6  7  1  0
  6 14  1  0
  6 15  1  0
  6 16  1  0
  7  8  2  3
  7 18  1  0
  8  9  1  0
  8 13  1  0
  9 10  1  0
  9 19  1  0
 10 11  2  0
 10 20  1  0
 11 12  1  0
 11 21  1  0
 12 13  2  0
 12 22  1  0
 13 23  1  0
M  RAD  1   9   2
M  END
>  <reaction>  (6) 
rxn_1494

>  <mol_properties>  (6) 
{"1": {"label": "*0", "atom_type": "Cd"}, "2": {"label": "*1", "atom_type": "Cs"}, "8": {"label": "*3", "atom_type": "Cd"}, "9": {"label": "*4", "atom_type": "Cd"}, "19": {"label": "*2", "atom_type": "H0"}}

>  <type>  (6) 
unop_2

>  <geom_source>  (6) 
Heuristics

$$$$

     RDKit          3D

 23 22  0  0  0  0  0  0  0  0999 V2000
   -1.6636   -2.5408    0.1229 C   0  0  0  0  0  0  0  0  0  0  0  0
   -1.6485   -3.1929    1.2724 C   0  0  0  0  0  0  0  0  0  0  0  0
   -2.5415   -2.0020   -0.2135 H   0  0  0  0  0  0  0  0  0  0  0  0
   -2.5135   -3.2149    1.9248 H   0  0  0  0  0  0  0  0  0  0  0  0
   -0.7706   -3.7317    1.6088 H   0  0  0  0  0  0  0  0  0  0  0  0
    0.4317   -1.2461   -2.2742 C   0  0  0  0  0  0  0  0  0  0  0  0
    0.4317   -1.2461   -0.7451 C   0  0  0  0  0  0  0  0  0  0  0  0
    0.4317    0.1482   -0.1756 C   0  0  0  0  0  0  0  0  0  0  0  0
   -0.7628    0.8171    0.0721 C   0  0  0  0  0  3  0  0  0  0  0  0
   -0.7661    2.1173    0.5530 C   0  0  0  0  0  0  0  0  0  0  0  0
    0.4317    2.7727    0.7948 C   0  0  0  0  0  0  0  0  0  0  0  0
    1.6295    2.1173    0.5530 C   0  0  0  0  0  0  0  0  0  0  0  0
    1.6262    0.8171    0.0721 C   0  0  0  0  0  0  0  0  0  0  0  0
    1.3130   -0.7310   -2.6610 H   0  0  0  0  0  0  0  0  0  0  0  0
   -0.4496   -0.7310   -2.6610 H   0  0  0  0  0  0  0  0  0  0  0  0
    0.4317   -2.2645   -2.6665 H   0  0  0  0  0  0  0  0  0  0  0  0
   -0.6203   -1.8961   -0.3093 H   0  0  0  0  0  0  0  0  0  0  0  0
    1.3083   -1.7878   -0.3819 H   0  0  0  0  0  0  0  0  0  0  0  0
   -1.7037    0.3099   -0.1116 H   0  0  0  0  0  0  0  0  0  0  0  0
   -1.7069    2.6190    0.7429 H   0  0  0  0  0  0  0  0  0  0  0  0
    0.4317    3.7870    1.1732 H   0  0  0  0  0  0  0  0  0  0  0  0
    2.5703    2.6190    0.7429 H   0  0  0  0  0  0  0  0  0  0  0  0
    2.5671    0.3100   -0.1116 H   0  0  0  0  0  0  0  0  0  0  0  0
  1  2  2  3
  1  3  1  0
  1 17  1  0
  2  4  1  0
  2  5  1  0
  6  7  1  0
  6 14  1  0
  6 15  1  0
  6 16  1  0
  7  8  2  3
  7 18  1  0
  8  9  1  0
  8 13  1  0
  9 10  1  0
  9 19  1  0
 10 11  2  0
 10 20  1  0
 11 12  1  0
 11 21  1  0
 12 13  2  0
 12 22  1  0
 13 23  1  0
M  RAD  1   9   2
M  END
>  <reaction>  (7) 
rxn_1494

>  <mol_properties>  (7) 
{"1": {"label": "*0", "atom_type": "Cd"}, "2": {"label": "*1", "atom_type": "Cs"}, "8": {"label": "*3", "atom_type": "Cd"}, "9": {"label": "*4", "atom_type": "Cd"}, "19": {"label": "*2", "atom_type": "H0"}}

>  <type>  (7) 
unop_3

>  <geom_source>  (7) 
Heuristics

$$$$

     RDKit          3D

 23 22  0  0  0  0  0  0  0  0999 V2000
   -1.5330   -2.6493    0.2753 C   0  0  0  0  0  0  0  0  0  0  0  0
   -2.7606   -2.2623   -0.0250 C   0  0  0  0  0  0  0  0  0  0  0  0
   -1.3026   -3.1261    1.2207 H   0  0  0  0  0  0  0  0  0  0  0  0
   -3.5861   -2.4062    0.6622 H   0  0  0  0  0  0  0  0  0  0  0  0
   -2.9911   -1.7855   -0.9704 H   0  0  0  0  0  0  0  0  0  0  0  0
    0.5622   -1.3546   -2.1218 C   0  0  0  0  0  0  0  0  0  0  0  0
    0.5622   -1.3546   -0.5927 C   0  0  0  0  0  0  0  0  0  0  0  0
    0.5622    0.0397   -0.0232 C   0  0  0  0  0  0  0  0  0  0  0  0
   -0.6323    0.7086    0.2245 C   0  0  0  0  0  3  0  0  0  0  0  0
   -0.6356    2.0088    0.7054 C   0  0  0  0  0  0  0  0  0  0  0  0
    0.5622    2.6642    0.9472 C   0  0  0  0  0  0  0  0  0  0  0  0
    1.7600    2.0088    0.7054 C   0  0  0  0  0  0  0  0  0  0  0  0
    1.7568    0.7086    0.2245 C   0  0  0  0  0  0  0  0  0  0  0  0
    1.4435   -0.8395   -2.5086 H   0  0  0  0  0  0  0  0  0  0  0  0
   -0.3190   -0.8395   -2.5086 H   0  0  0  0  0  0  0  0  0  0  0  0
    0.5622   -2.3730   -2.5141 H   0  0  0  0  0  0  0  0  0  0  0  0
   -0.4897   -2.0046   -0.1569 H   0  0  0  0  0  0  0  0  0  0  0  0
    1.4389   -1.8963   -0.2295 H   0  0  0  0  0  0  0  0  0  0  0  0
   -1.5732    0.2015    0.0408 H   0  0  0  0  0  0  0  0  0  0  0  0
   -1.5763    2.5105    0.8953 H   0  0  0  0  0  0  0  0  0  0  0  0
    0.5622    3.6785    1.3256 H   0  0  0  0  0  0  0  0  0  0  0  0
    2.7008    2.5105    0.8953 H   0  0  0  0  0  0  0  0  0  0  0  0
    2.6977    0.2015    0.0408 H   0  0  0  0  0  0  0  0  0  0  0  0
  1  2  2  3
  1  3  1  0
  1 17  1  0
  2  4  1  0
  2  5  1  0
  6  7  1  0
  6 14  1  0
  6 15  1  0
  6 16  1  0
  7  8  2  3
  7 18  1  0
  8  9  1  0
  8 13  1  0
  9 10  1  0
  9 19  1  0
 10 11  2  0
 10 20  1  0
 11 12  1  0
 11 21  1  0
 12 13  2  0
 12 22  1  0
 13 23  1  0
M  RAD  1   9   2
M  END
>  <reaction>  (8) 
rxn_1494

>  <mol_properties>  (8) 
{"1": {"label": "*0", "atom_type": "Cd"}, "2": {"label": "*1", "atom_type": "Cs"}, "8": {"label": "*3", "atom_type": "Cd"}, "9": {"label": "*4", "atom_type": "Cd"}, "19": {"label": "*2", "atom_type": "H0"}}

>  <type>  (8) 
unop_4

>  <geom_source>  (8) 
Heuristics

$$$$

     RDKit          3D

 23 22  0  0  0  0  0  0  0  0999 V2000
   -1.6369   -2.5901    0.1101 C   0  0  0  0  0  0  0  0  0  0  0  0
   -1.8750   -2.7372    1.4019 C   0  0  0  0  0  0  0  0  0  0  0  0
   -2.3016   -3.0008   -0.6407 H   0  0  0  0  0  0  0  0  0  0  0  0
   -2.7444   -3.2744    1.7620 H   0  0  0  0  0  0  0  0  0  0  0  0
   -1.2103   -2.3265    2.1527 H   0  0  0  0  0  0  0  0  0  0  0  0
    0.4584   -1.2954   -2.2869 C   0  0  0  0  0  0  0  0  0  0  0  0
    0.4584   -1.2954   -0.7578 C   0  0  0  0  0  0  0  0  0  0  0  0
    0.4584    0.0989   -0.1884 C   0  0  0  0  0  0  0  0  0  0  0  0
   -0.7361    0.7678    0.0593 C   0  0  0  0  0  3  0  0  0  0  0  0
   -0.7394    2.0681    0.5403 C   0  0  0  0  0  0  0  0  0  0  0  0
    0.4584    2.7234    0.7821 C   0  0  0  0  0  0  0  0  0  0  0  0
    1.6562    2.0681    0.5403 C   0  0  0  0  0  0  0  0  0  0  0  0
    1.6529    0.7678    0.0593 C   0  0  0  0  0  0  0  0  0  0  0  0
    1.3397   -0.7803   -2.6738 H   0  0  0  0  0  0  0  0  0  0  0  0
   -0.4229   -0.7803   -2.6738 H   0  0  0  0  0  0  0  0  0  0  0  0
    0.4584   -2.3138   -2.6792 H   0  0  0  0  0  0  0  0  0  0  0  0
   -0.5936   -1.9454   -0.3221 H   0  0  0  0  0  0  0  0  0  0  0  0
    1.3350   -1.8371   -0.3947 H   0  0  0  0  0  0  0  0  0  0  0  0
   -1.6770    0.2607   -0.1244 H   0  0  0  0  0  0  0  0  0  0  0  0
   -1.6802    2.5698    0.7302 H   0  0  0  0  0  0  0  0  0  0  0  0
    0.4584    3.7378    1.1604 H   0  0  0  0  0  0  0  0  0  0  0  0
    2.5970    2.5698    0.7302 H   0  0  0  0  0  0  0  0  0  0  0  0
    2.5938    0.2607   -0.1244 H   0  0  0  0  0  0  0  0  0  0  0  0
  1  2  2  3
  1  3  1  0
  1 17  1  0
  2  4  1  0
  2  5  1  0
  6  7  1  0
  6 14  1  0
  6 15  1  0
  6 16  1  0
  7  8  2  3
  7 18  1  0
  8  9  1  0
  8 13  1  0
  9 10  1  0
  9 19  1  0
 10 11  2  0
 10 20  1  0
 11 12  1  0
 11 21  1  0
 12 13  2  0
 12 22  1  0
 13 23  1  0
M  RAD  1   9   2
M  END
>  <reaction>  (9) 
rxn_1494

>  <mol_properties>  (9) 
{"1": {"label": "*0", "atom_type": "Cd"}, "2": {"label": "*1", "atom_type": "Cs"}, "8": {"label": "*3", "atom_type": "Cd"}, "9": {"label": "*4", "atom_type": "Cd"}, "19": {"label": "*2", "atom_type": "H0"}}

>  <type>  (9) 
unop_5

>  <geom_source>  (9) 
Heuristics

$$$$

     RDKit          3D

 23 22  0  0  0  0  0  0  0  0999 V2000
   -1.5432   -2.6725    0.2180 C   0  0  0  0  0  0  0  0  0  0  0  0
   -2.6909   -2.0590    0.4484 C   0  0  0  0  0  0  0  0  0  0  0  0
   -1.1536   -3.4229    0.8959 H   0  0  0  0  0  0  0  0  0  0  0  0
   -3.2886   -2.2815    1.3245 H   0  0  0  0  0  0  0  0  0  0  0  0
   -3.0805   -1.3087   -0.2295 H   0  0  0  0  0  0  0  0  0  0  0  0
    0.5521   -1.3779   -2.1791 C   0  0  0  0  0  0  0  0  0  0  0  0
    0.5521   -1.3779   -0.6500 C   0  0  0  0  0  0  0  0  0  0  0  0
    0.5521    0.0164   -0.0806 C   0  0  0  0  0  0  0  0  0  0  0  0
   -0.6424    0.6854    0.1672 C   0  0  0  0  0  3  0  0  0  0  0  0
   -0.6457    1.9856    0.6481 C   0  0  0  0  0  0  0  0  0  0  0  0
    0.5521    2.6409    0.8899 C   0  0  0  0  0  0  0  0  0  0  0  0
    1.7499    1.9856    0.6481 C   0  0  0  0  0  0  0  0  0  0  0  0
    1.7466    0.6854    0.1672 C   0  0  0  0  0  0  0  0  0  0  0  0
    1.4334   -0.8628   -2.5659 H   0  0  0  0  0  0  0  0  0  0  0  0
   -0.3292   -0.8628   -2.5659 H   0  0  0  0  0  0  0  0  0  0  0  0
    0.5521   -2.3963   -2.5714 H   0  0  0  0  0  0  0  0  0  0  0  0
   -0.4998   -2.0279   -0.2142 H   0  0  0  0  0  0  0  0  0  0  0  0
    1.4288   -1.9195   -0.2868 H   0  0  0  0  0  0  0  0  0  0  0  0
   -1.5833    0.1782   -0.0166 H   0  0  0  0  0  0  0  0  0  0  0  0
   -1.5865    2.4873    0.8380 H   0  0  0  0  0  0  0  0  0  0  0  0
    0.5521    3.6553    1.2683 H   0  0  0  0  0  0  0  0  0  0  0  0
    2.6907    2.4873    0.8380 H   0  0  0  0  0  0  0  0  0  0  0  0
    2.6875    0.1782   -0.0166 H   0  0  0  0  0  0  0  0  0  0  0  0
  1  2  2  3
  1  3  1  0
  1 17  1  0
  2  4  1  0
  2  5  1  0
  6  7  1  0
  6 14  1  0
  6 15  1  0
  6 16  1  0
  7  8  2  3
  7 18  1  0
  8  9  1  0
  8 13  1  0
  9 10  1  0
  9 19  1  0
 10 11  2  0
 10 20  1  0
 11 12  1  0
 11 21  1  0
 12 13  2  0
 12 22  1  0
 13 23  1  0
M  RAD  1   9   2
M  END
>  <reaction>  (10) 
rxn_1494

>  <mol_properties>  (10) 
{"1": {"label": "*0", "atom_type": "Cd"}, "2": {"label": "*1", "atom_type": "Cs"}, "8": {"label": "*3", "atom_type": "Cd"}, "9": {"label": "*4", "atom_type": "Cd"}, "19": {"label": "*2", "atom_type": "H0"}}

>  <type>  (10) 
unop_6

>  <geom_source>  (10) 
Heuristics

$$$$

     RDKit          3D

 23 22  0  0  0  0  0  0  0  0999 V2000
   -1.5698   -2.6674    0.1620 C   0  0  0  0  0  0  0  0  0  0  0  0
   -2.4793   -2.0838    0.9231 C   0  0  0  0  0  0  0  0  0  0  0  0
   -1.1775   -3.6498    0.3970 H   0  0  0  0  0  0  0  0  0  0  0  0
   -2.8691   -2.5642    1.8127 H   0  0  0  0  0  0  0  0  0  0  0  0
   -2.8716   -1.1014    0.6880 H   0  0  0  0  0  0  0  0  0  0  0  0
    0.5254   -1.3728   -2.2351 C   0  0  0  0  0  0  0  0  0  0  0  0
    0.5254   -1.3728   -0.7059 C   0  0  0  0  0  0  0  0  0  0  0  0
    0.5254    0.0215   -0.1365 C   0  0  0  0  0  0  0  0  0  0  0  0
   -0.6691    0.6905    0.1112 C   0  0  0  0  0  3  0  0  0  0  0  0
   -0.6724    1.9907    0.5921 C   0  0  0  0  0  0  0  0  0  0  0  0
    0.5254    2.6460    0.8339 C   0  0  0  0  0  0  0  0  0  0  0  0
    1.7232    1.9907    0.5921 C   0  0  0  0  0  0  0  0  0  0  0  0
    1.7200    0.6905    0.1112 C   0  0  0  0  0  0  0  0  0  0  0  0
    1.4067   -0.8577   -2.6219 H   0  0  0  0  0  0  0  0  0  0  0  0
   -0.3558   -0.8577   -2.6219 H   0  0  0  0  0  0  0  0  0  0  0  0
    0.5254   -2.3912   -2.6274 H   0  0  0  0  0  0  0  0  0  0  0  0
   -0.5265   -2.0228   -0.2702 H   0  0  0  0  0  0  0  0  0  0  0  0
    1.4021   -1.9144   -0.3428 H   0  0  0  0  0  0  0  0  0  0  0  0
   -1.6100    0.1833   -0.0725 H   0  0  0  0  0  0  0  0  0  0  0  0
   -1.6131    2.4924    0.7820 H   0  0  0  0  0  0  0  0  0  0  0  0
    0.5254    3.6604    1.2123 H   0  0  0  0  0  0  0  0  0  0  0  0
    2.6640    2.4924    0.7820 H   0  0  0  0  0  0  0  0  0  0  0  0
    2.6609    0.1833   -0.0725 H   0  0  0  0  0  0  0  0  0  0  0  0
  1  2  2  3
  1  3  1  0
  1 17  1  0
  2  4  1  0
  2  5  1  0
  6  7  1  0
  6 14  1  0
  6 15  1  0
  6 16  1  0
  7  8  2  3
  7 18  1  0
  8  9  1  0
  8 13  1  0
  9 10  1  0
  9 19  1  0
 10 11  2  0
 10 20  1  0
 11 12  1  0
 11 21  1  0
 12 13  2  0
 12 22  1  0
 13 23  1  0
M  RAD  1   9   2
M  END
>  <reaction>  (11) 
rxn_1494

>  <mol_properties>  (11) 
{"1": {"label": "*0", "atom_type": "Cd"}, "2": {"label": "*1", "atom_type": "Cs"}, "8": {"label": "*3", "atom_type": "Cd"}, "9": {"label": "*4", "atom_type": "Cd"}, "19": {"label": "*2", "atom_type": "H0"}}

>  <type>  (11) 
unop_7

>  <geom_source>  (11) 
Heuristics

$$$$

     RDKit          3D

 23 22  0  0  0  0  0  0  0  0999 V2000
   -1.6687   -2.4693    0.2180 C   0  0  0  0  0  0  0  0  0  0  0  0
   -1.6335   -3.7703    0.4484 C   0  0  0  0  0  0  0  0  0  0  0  0
   -2.1655   -1.7853    0.8959 H   0  0  0  0  0  0  0  0  0  0  0  0
   -2.0999   -4.2053    1.3245 H   0  0  0  0  0  0  0  0  0  0  0  0
   -1.1367   -4.4544   -0.2295 H   0  0  0  0  0  0  0  0  0  0  0  0
    0.4265   -1.1746   -2.1791 C   0  0  0  0  0  0  0  0  0  0  0  0
    0.4265   -1.1746   -0.6500 C   0  0  0  0  0  0  0  0  0  0  0  0
    0.4265    0.2196   -0.0806 C   0  0  0  0  0  0  0  0  0  0  0  0
   -0.7680    0.8886    0.1672 C   0  0  0  0  0  3  0  0  0  0  0  0
   -0.7713    2.1888    0.6481 C   0  0  0  0  0  0  0  0  0  0  0  0
    0.4265    2.8442    0.8899 C   0  0  0  0  0  0  0  0  0  0  0  0
    1.6244    2.1888    0.6481 C   0  0  0  0  0  0  0  0  0  0  0  0
    1.6211    0.8886    0.1672 C   0  0  0  0  0  0  0  0  0  0  0  0
    1.3078   -0.6596   -2.5659 H   0  0  0  0  0  0  0  0  0  0  0  0
   -0.4547   -0.6596   -2.5659 H   0  0  0  0  0  0  0  0  0  0  0  0
    0.4265   -2.1931   -2.5714 H   0  0  0  0  0  0  0  0  0  0  0  0
   -0.6254   -1.8247   -0.2142 H   0  0  0  0  0  0  0  0  0  0  0  0
    1.3032   -1.7163   -0.2868 H   0  0  0  0  0  0  0  0  0  0  0  0
   -1.7089    0.3814   -0.0166 H   0  0  0  0  0  0  0  0  0  0  0  0
   -1.7120    2.6905    0.8380 H   0  0  0  0  0  0  0  0  0  0  0  0
    0.4265    3.8585    1.2683 H   0  0  0  0  0  0  0  0  0  0  0  0
    2.5651    2.6905    0.8380 H   0  0  0  0  0  0  0  0  0  0  0  0
    2.5620    0.3814   -0.0166 H   0  0  0  0  0  0  0  0  0  0  0  0
  1  2  2  3
  1  3  1  0
  1 17  1  0
  2  4  1  0
  2  5  1  0
  6  7  1  0
  6 14  1  0
  6 15  1  0
  6 16  1  0
  7  8  2  3
  7 18  1  0
  8  9  1  0
  8 13  1  0
  9 10  1  0
  9 19  1  0
 10 11  2  0
 10 20  1  0
 11 12  1  0
 11 21  1  0
 12 13  2  0
 12 22  1  0
 13 23  1  0
M  RAD  1   9   2
M  END
>  <reaction>  (12) 
rxn_1494

>  <mol_properties>  (12) 
{"1": {"label": "*0", "atom_type": "Cd"}, "2": {"label": "*1", "atom_type": "Cs"}, "8": {"label": "*3", "atom_type": "Cd"}, "9": {"label": "*4", "atom_type": "Cd"}, "19": {"label": "*2", "atom_type": "H0"}}

>  <type>  (12) 
unop_8

>  <geom_source>  (12) 
Heuristics

$$$$

     RDKit          3D

 23 22  0  0  0  0  0  0  0  0999 V2000
   -1.5427   -2.6038    0.3179 C   0  0  0  0  0  0  0  0  0  0  0  0
   -2.6703   -2.6391   -0.3708 C   0  0  0  0  0  0  0  0  0  0  0  0
   -1.5124   -2.8539    1.3718 H   0  0  0  0  0  0  0  0  0  0  0  0
   -3.6097   -2.9196    0.0907 H   0  0  0  0  0  0  0  0  0  0  0  0
   -2.7006   -2.3890   -1.4247 H   0  0  0  0  0  0  0  0  0  0  0  0
    0.5526   -1.3091   -2.0791 C   0  0  0  0  0  0  0  0  0  0  0  0
    0.5526   -1.3091   -0.5500 C   0  0  0  0  0  0  0  0  0  0  0  0
    0.5526    0.0852    0.0194 C   0  0  0  0  0  0  0  0  0  0  0  0
   -0.6419    0.7541    0.2671 C   0  0  0  0  0  3  0  0  0  0  0  0
   -0.6452    2.0543    0.7480 C   0  0  0  0  0  0  0  0  0  0  0  0
    0.5526    2.7097    0.9898 C   0  0  0  0  0  0  0  0  0  0  0  0
    1.7504    2.0543    0.7480 C   0  0  0  0  0  0  0  0  0  0  0  0
    1.7471    0.7541    0.2671 C   0  0  0  0  0  0  0  0  0  0  0  0
    1.4339   -0.7940   -2.4660 H   0  0  0  0  0  0  0  0  0  0  0  0
   -0.3287   -0.7940   -2.4660 H   0  0  0  0  0  0  0  0  0  0  0  0
    0.5526   -2.3275   -2.4715 H   0  0  0  0  0  0  0  0  0  0  0  0
   -0.4994   -1.9591   -0.1143 H   0  0  0  0  0  0  0  0  0  0  0  0
    1.4292   -1.8508   -0.1869 H   0  0  0  0  0  0  0  0  0  0  0  0
   -1.5828    0.2470    0.0834 H   0  0  0  0  0  0  0  0  0  0  0  0
   -1.5860    2.5560    0.9380 H   0  0  0  0  0  0  0  0  0  0  0  0
    0.5526    3.7240    1.3682 H   0  0  0  0  0  0  0  0  0  0  0  0
    2.6912    2.5560    0.9380 H   0  0  0  0  0  0  0  0  0  0  0  0
    2.6880    0.2470    0.0834 H   0  0  0  0  0  0  0  0  0  0  0  0
  1  2  2  3
  1  3  1  0
  1 17  1  0
  2  4  1  0
  2  5  1  0
  6  7  1  0
  6 14  1  0
  6 15  1  0
  6 16  1  0
  7  8  2  3
  7 18  1  0
  8  9  1  0
  8 13  1  0
  9 10  1  0
  9 19  1  0
 10 11  2  0
 10 20  1  0
 11 12  1  0
 11 21  1  0
 12 13  2  0
 12 22  1  0
 13 23  1  0
M  RAD  1   9   2
M  END
>  <reaction>  (13) 
rxn_1494

>  <mol_properties>  (13) 
{"1": {"label": "*0", "atom_type": "Cd"}, "2": {"label": "*1", "atom_type": "Cs"}, "8": {"label": "*3", "atom_type": "Cd"}, "9": {"label": "*4", "atom_type": "Cd"}, "19": {"label": "*2", "atom_type": "H0"}}

>  <type>  (13) 
unop_9

>  <geom_source>  (13) 
Heuristics

$$$$

     RDKit          3D

 23 22  0  0  0  0  0  0  0  0999 V2000
   -1.6434   -2.4707    0.2753 C   0  0  0  0  0  0  0  0  0  0  0  0
   -1.8465   -3.7417   -0.0250 C   0  0  0  0  0  0  0  0  0  0  0  0
   -1.9667   -2.0513    1.2207 H   0  0  0  0  0  0  0  0  0  0  0  0
   -2.3444   -4.4156    0.6622 H   0  0  0  0  0  0  0  0  0  0  0  0
   -1.5231   -4.1611   -0.9704 H   0  0  0  0  0  0  0  0  0  0  0  0
    0.4519   -1.1760   -2.1218 C   0  0  0  0  0  0  0  0  0  0  0  0
    0.4519   -1.1760   -0.5927 C   0  0  0  0  0  0  0  0  0  0  0  0
    0.4519    0.2183   -0.0232 C   0  0  0  0  0  0  0  0  0  0  0  0
   -0.7426    0.8872    0.2245 C   0  0  0  0  0  3  0  0  0  0  0  0
   -0.7459    2.1874    0.7054 C   0  0  0  0  0  0  0  0  0  0  0  0
    0.4519    2.8428    0.9472 C   0  0  0  0  0  0  0  0  0  0  0  0
    1.6497    2.1874    0.7054 C   0  0  0  0  0  0  0  0  0  0  0  0
    1.6464    0.8872    0.2245 C   0  0  0  0  0  0  0  0  0  0  0  0
    1.3332   -0.6609   -2.5086 H   0  0  0  0  0  0  0  0  0  0  0  0
   -0.4294   -0.6609   -2.5086 H   0  0  0  0  0  0  0  0  0  0  0  0
    0.4519   -2.1944   -2.5141 H   0  0  0  0  0  0  0  0  0  0  0  0
   -0.6001   -1.8260   -0.1569 H   0  0  0  0  0  0  0  0  0  0  0  0
    1.3285   -1.7177   -0.2295 H   0  0  0  0  0  0  0  0  0  0  0  0
   -1.6835    0.3801    0.0408 H   0  0  0  0  0  0  0  0  0  0  0  0
   -1.6867    2.6891    0.8953 H   0  0  0  0  0  0  0  0  0  0  0  0
    0.4519    3.8571    1.3256 H   0  0  0  0  0  0  0  0  0  0  0  0
    2.5905    2.6891    0.8953 H   0  0  0  0  0  0  0  0  0  0  0  0
    2.5873    0.3801    0.0408 H   0  0  0  0  0  0  0  0  0  0  0  0
  1  2  2  3
  1  3  1  0
  1 17  1  0
  2  4  1  0
  2  5  1  0
  6  7  1  0
  6 14  1  0
  6 15  1  0
  6 16  1  0
  7  8  2  3
  7 18  1  0
  8  9  1  0
  8 13  1  0
  9 10  1  0
  9 19  1  0
 10 11  2  0
 10 20  1  0
 11 12  1  0
 11 21  1  0
 12 13  2  0
 12 22  1  0
 13 23  1  0
M  RAD  1   9   2
M  END
>  <reaction>  (14) 
rxn_1494

>  <mol_properties>  (14) 
{"1": {"label": "*0", "atom_type": "Cd"}, "2": {"label": "*1", "atom_type": "Cs"}, "8": {"label": "*3", "atom_type": "Cd"}, "9": {"label": "*4", "atom_type": "Cd"}, "19": {"label": "*2", "atom_type": "H0"}}

>  <type>  (14) 
unop_10

>  <geom_source>  (14) 
Heuristics

$$$$

     RDKit          3D

 23 22  0  0  0  0  0  0  0  0999 V2000
   -1.6048   -2.6360    0.1229 C   0  0  0  0  0  0  0  0  0  0  0  0
   -2.1812   -2.3308    1.2724 C   0  0  0  0  0  0  0  0  0  0  0  0
   -1.5156   -3.6622   -0.2135 H   0  0  0  0  0  0  0  0  0  0  0  0
   -2.5879   -3.0945    1.9248 H   0  0  0  0  0  0  0  0  0  0  0  0
   -2.2704   -1.3046    1.6088 H   0  0  0  0  0  0  0  0  0  0  0  0
    0.4905   -1.3413   -2.2742 C   0  0  0  0  0  0  0  0  0  0  0  0
    0.4905   -1.3413   -0.7451 C   0  0  0  0  0  0  0  0  0  0  0  0
    0.4905    0.0530   -0.1756 C   0  0  0  0  0  0  0  0  0  0  0  0
   -0.7040    0.7219    0.0721 C   0  0  0  0  0  3  0  0  0  0  0  0
   -0.7073    2.0221    0.5530 C   0  0  0  0  0  0  0  0  0  0  0  0
    0.4905    2.6775    0.7948 C   0  0  0  0  0  0  0  0  0  0  0  0
    1.6883    2.0221    0.5530 C   0  0  0  0  0  0  0  0  0  0  0  0
    1.6850    0.7219    0.0721 C   0  0  0  0  0  0  0  0  0  0  0  0
    1.3718   -0.8262   -2.6610 H   0  0  0  0  0  0  0  0  0  0  0  0
   -0.3908   -0.8262   -2.6610 H   0  0  0  0  0  0  0  0  0  0  0  0
    0.4905   -2.3597   -2.6665 H   0  0  0  0  0  0  0  0  0  0  0  0
   -0.5615   -1.9913   -0.3093 H   0  0  0  0  0  0  0  0  0  0  0  0
    1.3671   -1.8830   -0.3819 H   0  0  0  0  0  0  0  0  0  0  0  0
   -1.6449    0.2148   -0.1116 H   0  0  0  0  0  0  0  0  0  0  0  0
   -1.6481    2.5238    0.7429 H   0  0  0  0  0  0  0  0  0  0  0  0
    0.4905    3.6918    1.1732 H   0  0  0  0  0  0  0  0  0  0  0  0
    2.6291    2.5238    0.7429 H   0  0  0  0  0  0  0  0  0  0  0  0
    2.6259    0.2148   -0.1116 H   0  0  0  0  0  0  0  0  0  0  0  0
  1  2  2  3
  1  3  1  0
  1 17  1  0
  2  4  1  0
  2  5  1  0
  6  7  1  0
  6 14  1  0
  6 15  1  0
  6 16  1  0
  7  8  2  3
  7 18  1  0
  8  9  1  0
  8 13  1  0
  9 10  1  0
  9 19  1  0
 10 11  2  0
 10 20  1  0
 11 12  1  0
 11 21  1  0
 12 13  2  0
 12 22  1  0
 13 23  1  0
M  RAD  1   9   2
M  END
>  <reaction>  (15) 
rxn_1494

>  <mol_properties>  (15) 
{"1": {"label": "*0", "atom_type": "Cd"}, "2": {"label": "*1", "atom_type": "Cs"}, "8": {"label": "*3", "atom_type": "Cd"}, "9": {"label": "*4", "atom_type": "Cd"}, "19": {"label": "*2", "atom_type": "H0"}}

>  <type>  (15) 
unop_11

>  <geom_source>  (15) 
Heuristics

$$$$

     RDKit          3D

 23 22  0  0  0  0  0  0  0  0999 V2000
   -1.5699   -2.5487    0.3336 C   0  0  0  0  0  0  0  0  0  0  0  0
   -2.4443   -3.0890   -0.4973 C   0  0  0  0  0  0  0  0  0  0  0  0
   -1.6873   -2.6212    1.4084 H   0  0  0  0  0  0  0  0  0  0  0  0
   -3.3137   -3.6262   -0.1371 H   0  0  0  0  0  0  0  0  0  0  0  0
   -2.3269   -3.0164   -1.5721 H   0  0  0  0  0  0  0  0  0  0  0  0
    0.5254   -1.2540   -2.0634 C   0  0  0  0  0  0  0  0  0  0  0  0
    0.5254   -1.2540   -0.5343 C   0  0  0  0  0  0  0  0  0  0  0  0
    0.5254    0.1403    0.0351 C   0  0  0  0  0  0  0  0  0  0  0  0
   -0.6691    0.8092    0.2829 C   0  0  0  0  0  3  0  0  0  0  0  0
   -0.6724    2.1095    0.7638 C   0  0  0  0  0  0  0  0  0  0  0  0
    0.5254    2.7648    1.0056 C   0  0  0  0  0  0  0  0  0  0  0  0
    1.7232    2.1095    0.7638 C   0  0  0  0  0  0  0  0  0  0  0  0
    1.7199    0.8092    0.2829 C   0  0  0  0  0  0  0  0  0  0  0  0
    1.4067   -0.7389   -2.4502 H   0  0  0  0  0  0  0  0  0  0  0  0
   -0.3559   -0.7389   -2.4502 H   0  0  0  0  0  0  0  0  0  0  0  0
    0.5254   -2.2724   -2.4557 H   0  0  0  0  0  0  0  0  0  0  0  0
   -0.5266   -1.9040   -0.0985 H   0  0  0  0  0  0  0  0  0  0  0  0
    1.4020   -1.7957   -0.1712 H   0  0  0  0  0  0  0  0  0  0  0  0
   -1.6100    0.3021    0.0991 H   0  0  0  0  0  0  0  0  0  0  0  0
   -1.6132    2.6112    0.9537 H   0  0  0  0  0  0  0  0  0  0  0  0
    0.5254    3.7792    1.3839 H   0  0  0  0  0  0  0  0  0  0  0  0
    2.6640    2.6112    0.9537 H   0  0  0  0  0  0  0  0  0  0  0  0
    2.6608    0.3021    0.0991 H   0  0  0  0  0  0  0  0  0  0  0  0
  1  2  2  3
  1  3  1  0
  1 17  1  0
  2  4  1  0
  2  5  1  0
  6  7  1  0
  6 14  1  0
  6 15  1  0
  6 16  1  0
  7  8  2  3
  7 18  1  0
  8  9  1  0
  8 13  1  0
  9 10  1  0
  9 19  1  0
 10 11  2  0
 10 20  1  0
 11 12  1  0
 11 21  1  0
 12 13  2  0
 12 22  1  0
 13 23  1  0
M  RAD  1   9   2
M  END
>  <reaction>  (16) 
rxn_1494

>  <mol_properties>  (16) 
{"1": {"label": "*0", "atom_type": "Cd"}, "2": {"label": "*1", "atom_type": "Cs"}, "8": {"label": "*3", "atom_type": "Cd"}, "9": {"label": "*4", "atom_type": "Cd"}, "19": {"label": "*2", "atom_type": "H0"}}

>  <type>  (16) 
unop_12

>  <geom_source>  (16) 
Heuristics

$$$$

     RDKit          3D

 23 22  0  0  0  0  0  0  0  0999 V2000
    0.0304   -1.4416    2.1288 C   0  0  0  0  0  0  0  0  0  0  0  0
   -0.5768   -0.0909    0.1196 C   0  0  0  0  0  0  0  0  0  0  0  0
    0.5433   -0.7299    0.8838 C   0  0  0  0  0  0  0  0  0  0  0  0
   -0.8475    1.2733    0.2964 C   0  0  0  0  0  3  0  0  0  0  0  0
   -1.3781   -0.8508   -0.7477 C   0  0  0  0  0  0  0  0  0  0  0  0
   -1.9027    1.8752   -0.3969 C   0  0  0  0  0  0  0  0  0  0  0  0
   -2.6940    1.1166   -1.2648 C   0  0  0  0  0  0  0  0  0  0  0  0
   -2.4324   -0.2457   -1.4394 C   0  0  0  0  0  0  0  0  0  0  0  0
    3.4483    0.8402   -0.6606 C   0  0  0  0  0  0  0  0  0  0  0  0
    2.7512   -0.2594   -0.3860 C   0  0  0  0  0  0  0  0  0  0  0  0
    0.8894   -1.8674    2.6877 H   0  0  0  0  0  0  0  0  0  0  0  0
   -0.6594   -2.2657    1.8473 H   0  0  0  0  0  0  0  0  0  0  0  0
   -0.5011   -0.7227    2.7878 H   0  0  0  0  0  0  0  0  0  0  0  0
    1.1086   -1.4359    0.2377 H   0  0  0  0  0  0  0  0  0  0  0  0
   -0.2428    1.8682    0.9698 H   0  0  0  0  0  0  0  0  0  0  0  0
   -2.1080    2.9291   -0.2601 H   0  0  0  0  0  0  0  0  0  0  0  0
   -1.1863   -1.9077   -0.8860 H   0  0  0  0  0  0  0  0  0  0  0  0
   -3.5105    1.5836   -1.8001 H   0  0  0  0  0  0  0  0  0  0  0  0
   -3.0475   -0.8329   -2.1089 H   0  0  0  0  0  0  0  0  0  0  0  0
    3.2603    1.7560   -0.1101 H   0  0  0  0  0  0  0  0  0  0  0  0
    4.2077    0.8273   -1.4357 H   0  0  0  0  0  0  0  0  0  0  0  0
    2.9373   -1.1766   -0.9352 H   0  0  0  0  0  0  0  0  0  0  0  0
    1.9108   -0.2423    0.4728 H   0  0  0  0  0  0  0  0  0  0  0  0
  1  3  1  0
  1 11  1  0
  1 12  1  0
  1 13  1  0
  2  3  2  3
  2  4  1  0
  2  5  1  0
  3 14  1  0
  4  6  1  0
  4 15  1  0
  5  8  2  0
  5 17  1  0
  6  7  2  0
  6 16  1  0
  7  8  1  0
  7 18  1  0
  8 19  1  0
  9 10  2  3
  9 20  1  0
  9 21  1  0
 10 22  1  0
 10 23  1  0
M  RAD  1   4   2
M  END
>  <reaction>  (17) 
rxn_1494

>  <mol_properties>  (17) 
{"1": {"label": "*0", "atom_type": "Cd"}, "2": {"label": "*1", "atom_type": "Cs"}, "8": {"label": "*3", "atom_type": "Cd"}, "9": {"label": "*4", "atom_type": "Cd"}, "19": {"label": "*2", "atom_type": "H0"}}

>  <type>  (17) 
unop_13

>  <geom_source>  (17) 
AutoTST

$$$$
