
     RDKit          3D

 13 12  0  0  0  0  0  0  0  0999 V2000
    2.2975   -0.6134    0.7685 C   0  0  0  0  0  0  0  0  0  0  0  0
    1.1676   -0.5248    0.3802 C   0  0  0  0  0  0  0  0  0  0  0  0
   -0.2109   -0.3926   -0.0948 C   0  0  0  0  0  0  0  0  0  0  0  0
   -0.2501    0.2584   -1.4808 C   0  0  0  0  0  0  0  0  0  0  0  0
   -1.0633    0.3831    0.9141 C   0  0  0  0  0  0  0  0  0  0  0  0
    3.2999   -0.6974    1.1133 H   0  0  0  0  0  0  0  0  0  0  0  0
   -0.6209   -1.4038   -0.1814 H   0  0  0  0  0  0  0  0  0  0  0  0
    0.3402   -0.3102   -2.1992 H   0  0  0  0  0  0  0  0  0  0  0  0
    0.1511    1.2724   -1.4369 H   0  0  0  0  0  0  0  0  0  0  0  0
   -1.2791    0.3109   -1.8407 H   0  0  0  0  0  0  0  0  0  0  0  0
   -0.6861    1.4008    1.0287 H   0  0  0  0  0  0  0  0  0  0  0  0
   -1.0492   -0.0971    1.8924 H   0  0  0  0  0  0  0  0  0  0  0  0
   -2.0971    0.4363    0.5680 H   0  0  0  0  0  0  0  0  0  0  0  0
  1  2  3  0
  1  6  1  0
  2  3  1  0
  3  4  1  0
  3  5  1  0
  3  7  1  0
  4  8  1  0
  4  9  1  0
  4 10  1  0
  5 11  1  0
  5 12  1  0
  5 13  1  0
M  END
>  <reaction>  (1) 
rxn_1325

>  <mol_properties>  (1) 
{"2": {"label": "donator", "atom_type": "Cs"}, "6": {"label": "d_hydrogen", "atom_type": "H0"}}

>  <type>  (1) 
r1h

$$$$

     RDKit          3D

 11 10  0  0  0  0  0  0  0  0999 V2000
    1.0781   -1.0166   -0.1159 C   0  0  0  0  0  0  0  0  0  0  0  0
    0.2180    0.1942   -0.2297 C   0  0  0  0  0  3  0  0  0  0  0  0
    0.9343    1.7769   -0.3011 S   0  0  0  0  0  0  0  0  0  0  0  0
   -1.1949    0.1490    0.2439 C   0  0  0  0  0  0  0  0  0  0  0  0
    1.4718   -1.1461    0.9024 H   0  0  0  0  0  0  0  0  0  0  0  0
    1.9367   -0.9751   -0.7902 H   0  0  0  0  0  0  0  0  0  0  0  0
    0.5033   -1.9136   -0.3576 H   0  0  0  0  0  0  0  0  0  0  0  0
    2.1166    1.4195   -0.8209 H   0  0  0  0  0  0  0  0  0  0  0  0
   -1.2620    0.0939    1.3399 H   0  0  0  0  0  0  0  0  0  0  0  0
   -1.7600    1.0270   -0.0739 H   0  0  0  0  0  0  0  0  0  0  0  0
   -1.6972   -0.7380   -0.1506 H   0  0  0  0  0  0  0  0  0  0  0  0
  1  2  1  0
  1  5  1  0
  1  6  1  0
  1  7  1  0
  2  4  1  0
  2  3  1  0
  3  8  1  0
  4  9  1  0
  4 10  1  0
  4 11  1  0
M  RAD  1   2   2
M  END
>  <reaction>  (2) 
rxn_1325

>  <mol_properties>  (2) 
{"1": {"label": "acceptor", "atom_type": "Cs"}}

>  <type>  (2) 
r2

$$$$

     RDKit          3D

 12 11  0  0  0  0  0  0  0  0999 V2000
    1.2394   -0.3763   -0.3020 C   0  0  0  0  0  0  0  0  0  0  0  0
    0.1007    0.3023    0.4464 C   0  0  0  0  0  0  0  0  0  0  0  0
   -0.1187    2.0399   -0.0725 S   0  0  0  0  0  0  0  0  0  0  0  0
   -1.1974   -0.4877    0.3552 C   0  0  0  0  0  0  0  0  0  0  0  0
    2.1681    0.1849   -0.2048 H   0  0  0  0  0  0  0  0  0  0  0  0
    1.0031   -0.4606   -1.3656 H   0  0  0  0  0  0  0  0  0  0  0  0
    1.3994   -1.3856    0.0860 H   0  0  0  0  0  0  0  0  0  0  0  0
    0.3796    0.4050    1.4981 H   0  0  0  0  0  0  0  0  0  0  0  0
   -0.4500    1.7779   -1.3452 H   0  0  0  0  0  0  0  0  0  0  0  0
   -1.0545   -1.4978    0.7479 H   0  0  0  0  0  0  0  0  0  0  0  0
   -1.5206   -0.5759   -0.6849 H   0  0  0  0  0  0  0  0  0  0  0  0
   -1.9957   -0.0054    0.9183 H   0  0  0  0  0  0  0  0  0  0  0  0
  1  2  1  0
  1  5  1  0
  1  6  1  0
  1  7  1  0
  2  4  1  0
  2  3  1  0
  2  8  1  0
  3  9  1  0
  4 10  1  0
  4 11  1  0
  4 12  1  0
M  END
>  <reaction>  (3) 
rxn_1325

>  <mol_properties>  (3) 
{"0": {"label": "a_hydrogen", "atom_type": "H0"}, "2": {"label": "acceptor", "atom_type": "Cs"}}

>  <type>  (3) 
r2h

$$$$

     RDKit          3D

 24 22  0  0  0  0  0  0  0  0999 V2000
   -0.6146    0.8770   -2.8079 C   0  0  0  0  0  0  0  0  0  0  0  0
   -0.2624    1.1512   -1.6902 C   0  0  0  0  0  0  0  0  0  0  0  0
    0.1620    1.4072   -0.3466 C   0  0  0  0  0  0  0  0  0  0  0  0
   -0.8877    2.0489    0.5390 C   0  0  0  0  0  0  0  0  0  0  0  0
    1.5518    2.0011   -0.2238 C   0  0  0  0  0  0  0  0  0  0  0  0
   -0.9282    0.6622   -3.8009 H   0  0  0  0  0  0  0  0  0  0  0  0
    0.2726    0.1917    0.1592 H   0  0  0  0  0  0  0  0  0  0  0  0
   -1.8214    1.4870    0.5054 H   0  0  0  0  0  0  0  0  0  0  0  0
   -1.0931    3.0762    0.2240 H   0  0  0  0  0  0  0  0  0  0  0  0
   -0.5387    2.0767    1.5733 H   0  0  0  0  0  0  0  0  0  0  0  0
    1.5634    3.0435   -0.5558 H   0  0  0  0  0  0  0  0  0  0  0  0
    2.2723    1.4490   -0.8277 H   0  0  0  0  0  0  0  0  0  0  0  0
    1.8801    1.9785    0.8176 H   0  0  0  0  0  0  0  0  0  0  0  0
    1.4713   -1.6636   -0.2490 C   0  0  0  0  0  0  0  0  0  0  0  0
    0.3974   -1.0859    0.6364 C   0  0  0  0  0  3  0  0  0  0  0  0
   -1.2323   -1.7838    0.4319 S   0  0  0  0  0  0  0  0  0  0  0  0
    0.7588   -0.9466    2.0935 C   0  0  0  0  0  0  0  0  0  0  0  0
    1.1999   -1.5799   -1.3029 H   0  0  0  0  0  0  0  0  0  0  0  0
    1.6433   -2.7207   -0.0238 H   0  0  0  0  0  0  0  0  0  0  0  0
    2.4106   -1.1258   -0.0977 H   0  0  0  0  0  0  0  0  0  0  0  0
   -1.2939   -1.6398   -0.8998 H   0  0  0  0  0  0  0  0  0  0  0  0
    1.6821   -0.3718    2.1924 H   0  0  0  0  0  0  0  0  0  0  0  0
   -0.0255   -0.4363    2.6544 H   0  0  0  0  0  0  0  0  0  0  0  0
    0.9273   -1.9237    2.5595 H   0  0  0  0  0  0  0  0  0  0  0  0
  1  2  3  0
  1  6  1  0
  2  3  1  0
  3  4  1  0
  3  5  1  0
  3  7  1  0
  4  8  1  0
  4  9  1  0
  4 10  1  0
  5 11  1  0
  5 12  1  0
  5 13  1  0
 14 15  1  0
 14 18  1  0
 14 19  1  0
 14 20  1  0
 15 17  1  0
 15 16  1  0
 16 21  1  0
 17 22  1  0
 17 23  1  0
 17 24  1  0
M  RAD  1  15   2
M  END
>  <reaction>  (4) 
rxn_1325

>  <mol_properties>  (4) 
{"1": {"label": "*0", "atom_type": "Ct"}, "2": {"label": "*1", "atom_type": "Cs"}, "6": {"label": "*2", "atom_type": "H0"}, "14": {"label": "*3", "atom_type": "Cs"}, "15": {"label": "*4", "atom_type": "S2s"}}

>  <type>  (4) 
ts

$$$$

     RDKit          3D

 24 22  0  0  0  0  0  0  0  0999 V2000
    0.1184    1.4577   -2.8340 C   0  0  0  0  0  0  0  0  0  0  0  0
    0.1184    1.4577   -1.6359 C   0  0  0  0  0  0  0  0  0  0  0  0
    0.1184    1.4816   -0.1721 C   0  0  0  0  0  3  0  0  0  0  0  0
   -1.1477    2.1581    0.3623 C   0  0  0  0  0  0  0  0  0  0  0  0
    1.3845    2.1581    0.3623 C   0  0  0  0  0  0  0  0  0  0  0  0
    0.1184    1.4577   -3.8973 H   0  0  0  0  0  0  0  0  0  0  0  0
    0.1184    0.2330    0.2358 H   0  0  0  0  0  0  0  0  0  0  0  0
   -2.0448    1.6588   -0.0036 H   0  0  0  0  0  0  0  0  0  0  0  0
   -1.1850    3.2016    0.0448 H   0  0  0  0  0  0  0  0  0  0  0  0
   -1.1550    2.1301    1.4533 H   0  0  0  0  0  0  0  0  0  0  0  0
    1.4219    3.2016    0.0448 H   0  0  0  0  0  0  0  0  0  0  0  0
    2.2816    1.6587   -0.0036 H   0  0  0  0  0  0  0  0  0  0  0  0
    1.3919    2.1301    1.4533 H   0  0  0  0  0  0  0  0  0  0  0  0
    1.3656   -1.2591    1.4808 C   0  0  0  0  0  0  0  0  0  0  0  0
    0.1184   -1.0138    0.6431 C   0  0  0  0  0  0  0  0  0  0  0  0
   -0.4514   -2.5330   -0.1958 S   0  0  0  0  0  0  0  0  0  0  0  0
   -0.9938   -0.3563    1.4483 C   0  0  0  0  0  0  0  0  0  0  0  0
    2.1623   -1.7036    0.8853 H   0  0  0  0  0  0  0  0  0  0  0  0
    1.1438   -1.9350    2.3103 H   0  0  0  0  0  0  0  0  0  0  0  0
    1.7290   -0.3188    1.9034 H   0  0  0  0  0  0  0  0  0  0  0  0
   -0.7317   -3.2256    0.9177 H   0  0  0  0  0  0  0  0  0  0  0  0
   -0.6468    0.5902    1.8708 H   0  0  0  0  0  0  0  0  0  0  0  0
   -1.8691   -0.1611    0.8298 H   0  0  0  0  0  0  0  0  0  0  0  0
   -1.2997   -1.0000    2.2767 H   0  0  0  0  0  0  0  0  0  0  0  0
  1  2  3  0
  1  6  1  0
  2  3  1  0
  3  4  1  0
  3  5  1  0
  4  8  1  0
  4  9  1  0
  4 10  1  0
  5 11  1  0
  5 12  1  0
  5 13  1  0
  7 15  1  0
 14 15  1  0
 14 18  1  0
 14 19  1  0
 14 20  1  0
 15 17  1  0
 15 16  1  0
 16 21  1  0
 17 22  1  0
 17 23  1  0
 17 24  1  0
M  RAD  1   3   2
M  END
>  <reaction>  (5) 
rxn_1325

>  <mol_properties>  (5) 
{"1": {"label": "*0", "atom_type": "Ct"}, "2": {"label": "*1", "atom_type": "Cs"}, "6": {"label": "*2", "atom_type": "H0"}, "14": {"label": "*3", "atom_type": "Cs"}, "15": {"label": "*4", "atom_type": "S2s"}}

>  <type>  (5) 
unop_1

>  <geom_source>  (5) 
Heuristics

$$$$

     RDKit          3D

 24 22  0  0  0  0  0  0  0  0999 V2000
    0.1928    1.3828   -2.9707 C   0  0  0  0  0  0  0  0  0  0  0  0
    0.1928    1.3828   -1.7726 C   0  0  0  0  0  0  0  0  0  0  0  0
    0.1928    1.4067   -0.3088 C   0  0  0  0  0  3  0  0  0  0  0  0
   -1.0733    2.0832    0.2256 C   0  0  0  0  0  0  0  0  0  0  0  0
    1.4589    2.0831    0.2256 C   0  0  0  0  0  0  0  0  0  0  0  0
    0.1928    1.3828   -4.0340 H   0  0  0  0  0  0  0  0  0  0  0  0
    0.1928    0.1581    0.0991 H   0  0  0  0  0  0  0  0  0  0  0  0
   -1.9704    1.5839   -0.1404 H   0  0  0  0  0  0  0  0  0  0  0  0
   -1.1107    3.1267   -0.0920 H   0  0  0  0  0  0  0  0  0  0  0  0
   -1.0806    2.0552    1.3166 H   0  0  0  0  0  0  0  0  0  0  0  0
    1.4963    3.1267   -0.0920 H   0  0  0  0  0  0  0  0  0  0  0  0
    2.3560    1.5838   -0.1404 H   0  0  0  0  0  0  0  0  0  0  0  0
    1.4663    2.0551    1.3166 H   0  0  0  0  0  0  0  0  0  0  0  0
    0.9128   -1.9449   -0.5261 C   0  0  0  0  0  0  0  0  0  0  0  0
    0.1928   -1.0887    0.5064 C   0  0  0  0  0  0  0  0  0  0  0  0
   -1.4217   -1.8007    0.9789 S   0  0  0  0  0  0  0  0  0  0  0  0
    1.0646   -0.7984    1.7201 C   0  0  0  0  0  0  0  0  0  0  0  0
    0.2879   -2.1209   -1.4009 H   0  0  0  0  0  0  0  0  0  0  0  0
    1.1819   -2.9145   -0.0999 H   0  0  0  0  0  0  0  0  0  0  0  0
    1.8346   -1.4540   -0.8488 H   0  0  0  0  0  0  0  0  0  0  0  0
   -0.9379   -2.9276    1.5214 H   0  0  0  0  0  0  0  0  0  0  0  0
    1.9874   -0.2995    1.4130 H   0  0  0  0  0  0  0  0  0  0  0  0
    0.5471   -0.1620    2.4371 H   0  0  0  0  0  0  0  0  0  0  0  0
    1.3390   -1.7272    2.2263 H   0  0  0  0  0  0  0  0  0  0  0  0
  1  2  3  0
  1  6  1  0
  2  3  1  0
  3  4  1  0
  3  5  1  0
  4  8  1  0
  4  9  1  0
  4 10  1  0
  5 11  1  0
  5 12  1  0
  5 13  1  0
  7 15  1  0
 14 15  1  0
 14 18  1  0
 14 19  1  0
 14 20  1  0
 15 17  1  0
 15 16  1  0
 16 21  1  0
 17 22  1  0
 17 23  1  0
 17 24  1  0
M  RAD  1   3   2
M  END
>  <reaction>  (6) 
rxn_1325

>  <mol_properties>  (6) 
{"1": {"label": "*0", "atom_type": "Ct"}, "2": {"label": "*1", "atom_type": "Cs"}, "6": {"label": "*2", "atom_type": "H0"}, "14": {"label": "*3", "atom_type": "Cs"}, "15": {"label": "*4", "atom_type": "S2s"}}

>  <type>  (6) 
unop_2

>  <geom_source>  (6) 
Heuristics

$$$$

     RDKit          3D

 24 22  0  0  0  0  0  0  0  0999 V2000
   -0.0040    1.4703   -2.7601 C   0  0  0  0  0  0  0  0  0  0  0  0
   -0.0040    1.4703   -1.5620 C   0  0  0  0  0  0  0  0  0  0  0  0
   -0.0040    1.4942   -0.0982 C   0  0  0  0  0  3  0  0  0  0  0  0
   -1.2701    2.1707    0.4362 C   0  0  0  0  0  0  0  0  0  0  0  0
    1.2621    2.1707    0.4362 C   0  0  0  0  0  0  0  0  0  0  0  0
   -0.0040    1.4703   -3.8234 H   0  0  0  0  0  0  0  0  0  0  0  0
   -0.0040    0.2456    0.3097 H   0  0  0  0  0  0  0  0  0  0  0  0
   -2.1672    1.6714    0.0702 H   0  0  0  0  0  0  0  0  0  0  0  0
   -1.3074    3.2142    0.1187 H   0  0  0  0  0  0  0  0  0  0  0  0
   -1.2774    2.1427    1.5272 H   0  0  0  0  0  0  0  0  0  0  0  0
    1.2995    3.2142    0.1187 H   0  0  0  0  0  0  0  0  0  0  0  0
    2.1592    1.6713    0.0702 H   0  0  0  0  0  0  0  0  0  0  0  0
    1.2695    2.1426    1.5272 H   0  0  0  0  0  0  0  0  0  0  0  0
    0.7161   -1.0828    2.0558 C   0  0  0  0  0  0  0  0  0  0  0  0
   -0.0040   -1.0012    0.7170 C   0  0  0  0  0  0  0  0  0  0  0  0
    0.4049   -2.4138   -0.3664 S   0  0  0  0  0  0  0  0  0  0  0  0
   -1.5072   -0.8272    0.8834 C   0  0  0  0  0  0  0  0  0  0  0  0
    1.7930   -1.1787    1.9217 H   0  0  0  0  0  0  0  0  0  0  0  0
    0.3666   -1.9461    2.6273 H   0  0  0  0  0  0  0  0  0  0  0  0
    0.5166   -0.1863    2.6484 H   0  0  0  0  0  0  0  0  0  0  0  0
   -0.1192   -3.3653    0.4200 H   0  0  0  0  0  0  0  0  0  0  0  0
   -1.7222    0.0711    1.4678 H   0  0  0  0  0  0  0  0  0  0  0  0
   -2.0058   -0.7419   -0.0815 H   0  0  0  0  0  0  0  0  0  0  0  0
   -1.9359   -1.6814    1.4132 H   0  0  0  0  0  0  0  0  0  0  0  0
  1  2  3  0
  1  6  1  0
  2  3  1  0
  3  4  1  0
  3  5  1  0
  4  8  1  0
  4  9  1  0
  4 10  1  0
  5 11  1  0
  5 12  1  0
  5 13  1  0
  7 15  1  0
 14 15  1  0
 14 18  1  0
 14 19  1  0
 14 20  1  0
 15 17  1  0
 15 16  1  0
 16 21  1  0
 17 22  1  0
 17 23  1  0
 17 24  1  0
M  RAD  1   3   2
M  END
>  <reaction>  (7) 
rxn_1325

>  <mol_properties>  (7) 
{"1": {"label": "*0", "atom_type": "Ct"}, "2": {"label": "*1", "atom_type": "Cs"}, "6": {"label": "*2", "atom_type": "H0"}, "14": {"label": "*3", "atom_type": "Cs"}, "15": {"label": "*4", "atom_type": "S2s"}}

>  <type>  (7) 
unop_3

>  <geom_source>  (7) 
Heuristics

$$$$

     RDKit          3D

 24 22  0  0  0  0  0  0  0  0999 V2000
    0.0946    1.1115   -3.1534 C   0  0  0  0  0  0  0  0  0  0  0  0
    0.0946    1.1115   -1.9553 C   0  0  0  0  0  0  0  0  0  0  0  0
    0.0946    1.1354   -0.4915 C   0  0  0  0  0  3  0  0  0  0  0  0
   -1.1715    1.8119    0.0428 C   0  0  0  0  0  0  0  0  0  0  0  0
    1.3608    1.8119    0.0428 C   0  0  0  0  0  0  0  0  0  0  0  0
    0.0946    1.1115   -4.2167 H   0  0  0  0  0  0  0  0  0  0  0  0
    0.0946   -0.1132   -0.0836 H   0  0  0  0  0  0  0  0  0  0  0  0
   -2.0685    1.3126   -0.3231 H   0  0  0  0  0  0  0  0  0  0  0  0
   -1.2088    2.8554   -0.2747 H   0  0  0  0  0  0  0  0  0  0  0  0
   -1.1788    1.7839    1.1339 H   0  0  0  0  0  0  0  0  0  0  0  0
    1.3981    2.8554   -0.2747 H   0  0  0  0  0  0  0  0  0  0  0  0
    2.2578    1.3125   -0.3231 H   0  0  0  0  0  0  0  0  0  0  0  0
    1.3681    1.7839    1.1339 H   0  0  0  0  0  0  0  0  0  0  0  0
   -1.1527   -2.0524   -0.2077 C   0  0  0  0  0  0  0  0  0  0  0  0
    0.0946   -1.3600    0.3236 C   0  0  0  0  0  0  0  0  0  0  0  0
   -0.2572   -0.3700    1.8179 S   0  0  0  0  0  0  0  0  0  0  0  0
    1.2429   -2.3350    0.5435 C   0  0  0  0  0  0  0  0  0  0  0  0
   -1.9564   -1.3392   -0.3869 H   0  0  0  0  0  0  0  0  0  0  0  0
   -1.5120   -2.7969    0.5070 H   0  0  0  0  0  0  0  0  0  0  0  0
   -0.9291   -2.5690   -1.1447 H   0  0  0  0  0  0  0  0  0  0  0  0
   -0.6231   -1.3973    2.5983 H   0  0  0  0  0  0  0  0  0  0  0  0
    1.4832   -2.8535   -0.3883 H   0  0  0  0  0  0  0  0  0  0  0  0
    2.1368   -1.8219    0.8966 H   0  0  0  0  0  0  0  0  0  0  0  0
    0.9689   -3.0895    1.2849 H   0  0  0  0  0  0  0  0  0  0  0  0
  1  2  3  0
  1  6  1  0
  2  3  1  0
  3  4  1  0
  3  5  1  0
  4  8  1  0
  4  9  1  0
  4 10  1  0
  5 11  1  0
  5 12  1  0
  5 13  1  0
  7 15  1  0
 14 15  1  0
 14 18  1  0
 14 19  1  0
 14 20  1  0
 15 17  1  0
 15 16  1  0
 16 21  1  0
 17 22  1  0
 17 23  1  0
 17 24  1  0
M  RAD  1   3   2
M  END
>  <reaction>  (8) 
rxn_1325

>  <mol_properties>  (8) 
{"1": {"label": "*0", "atom_type": "Ct"}, "2": {"label": "*1", "atom_type": "Cs"}, "6": {"label": "*2", "atom_type": "H0"}, "14": {"label": "*3", "atom_type": "Cs"}, "15": {"label": "*4", "atom_type": "S2s"}}

>  <type>  (8) 
unop_4

>  <geom_source>  (8) 
Heuristics

$$$$

     RDKit          3D

 24 22  0  0  0  0  0  0  0  0999 V2000
   -0.2257    1.3850   -2.7852 C   0  0  0  0  0  0  0  0  0  0  0  0
   -0.2257    1.3850   -1.5871 C   0  0  0  0  0  0  0  0  0  0  0  0
   -0.2257    1.4090   -0.1233 C   0  0  0  0  0  3  0  0  0  0  0  0
   -1.4918    2.0854    0.4110 C   0  0  0  0  0  0  0  0  0  0  0  0
    1.0404    2.0854    0.4110 C   0  0  0  0  0  0  0  0  0  0  0  0
   -0.2257    1.3850   -3.8485 H   0  0  0  0  0  0  0  0  0  0  0  0
   -0.2257    0.1603    0.2845 H   0  0  0  0  0  0  0  0  0  0  0  0
   -2.3889    1.5861    0.0451 H   0  0  0  0  0  0  0  0  0  0  0  0
   -1.5292    3.1290    0.0935 H   0  0  0  0  0  0  0  0  0  0  0  0
   -1.4992    2.0574    1.5021 H   0  0  0  0  0  0  0  0  0  0  0  0
    1.0778    3.1289    0.0935 H   0  0  0  0  0  0  0  0  0  0  0  0
    1.9375    1.5861    0.0451 H   0  0  0  0  0  0  0  0  0  0  0  0
    1.0478    2.0574    1.5021 H   0  0  0  0  0  0  0  0  0  0  0  0
   -0.2257   -1.1081    2.2140 C   0  0  0  0  0  0  0  0  0  0  0  0
   -0.2257   -1.0864    0.6918 C   0  0  0  0  0  0  0  0  0  0  0  0
    1.3390   -1.7252   -0.0010 S   0  0  0  0  0  0  0  0  0  0  0  0
   -1.4392   -1.7962    0.1076 C   0  0  0  0  0  0  0  0  0  0  0  0
    0.6326   -0.5727    2.6183 H   0  0  0  0  0  0  0  0  0  0  0  0
   -0.1897   -2.1361    2.5830 H   0  0  0  0  0  0  0  0  0  0  0  0
   -1.1384   -0.6462    2.5994 H   0  0  0  0  0  0  0  0  0  0  0  0
    1.2185   -2.9727    0.4760 H   0  0  0  0  0  0  0  0  0  0  0  0
   -2.3603   -1.3390    0.4783 H   0  0  0  0  0  0  0  0  0  0  0  0
   -1.4408   -1.7484   -0.9808 H   0  0  0  0  0  0  0  0  0  0  0  0
   -1.4464   -2.8486    0.4016 H   0  0  0  0  0  0  0  0  0  0  0  0
  1  2  3  0
  1  6  1  0
  2  3  1  0
  3  4  1  0
  3  5  1  0
  4  8  1  0
  4  9  1  0
  4 10  1  0
  5 11  1  0
  5 12  1  0
  5 13  1  0
  7 15  1  0
 14 15  1  0
 14 18  1  0
 14 19  1  0
 14 20  1  0
 15 17  1  0
 15 16  1  0
 16 21  1  0
 17 22  1  0
 17 23  1  0
 17 24  1  0
M  RAD  1   3   2
M  END
>  <reaction>  (9) 
rxn_1325

>  <mol_properties>  (9) 
{"1": {"label": "*0", "atom_type": "Ct"}, "2": {"label": "*1", "atom_type": "Cs"}, "6": {"label": "*2", "atom_type": "H0"}, "14": {"label": "*3", "atom_type": "Cs"}, "15": {"label": "*4", "atom_type": "S2s"}}

>  <type>  (9) 
unop_5

>  <geom_source>  (9) 
Heuristics

$$$$

     RDKit          3D

 24 22  0  0  0  0  0  0  0  0999 V2000
   -0.0607    1.0711   -3.1545 C   0  0  0  0  0  0  0  0  0  0  0  0
   -0.0607    1.0711   -1.9564 C   0  0  0  0  0  0  0  0  0  0  0  0
   -0.0607    1.0950   -0.4926 C   0  0  0  0  0  3  0  0  0  0  0  0
   -1.3268    1.7715    0.0418 C   0  0  0  0  0  0  0  0  0  0  0  0
    1.2055    1.7715    0.0418 C   0  0  0  0  0  0  0  0  0  0  0  0
   -0.0607    1.0711   -4.2178 H   0  0  0  0  0  0  0  0  0  0  0  0
   -0.0607   -0.1536   -0.0847 H   0  0  0  0  0  0  0  0  0  0  0  0
   -2.2238    1.2722   -0.3242 H   0  0  0  0  0  0  0  0  0  0  0  0
   -1.3641    2.8150   -0.2758 H   0  0  0  0  0  0  0  0  0  0  0  0
   -1.3341    1.7435    1.1328 H   0  0  0  0  0  0  0  0  0  0  0  0
    1.2428    2.8150   -0.2758 H   0  0  0  0  0  0  0  0  0  0  0  0
    2.1025    1.2721   -0.3242 H   0  0  0  0  0  0  0  0  0  0  0  0
    1.2128    1.7435    1.1328 H   0  0  0  0  0  0  0  0  0  0  0  0
   -1.5009   -1.8692    0.4757 C   0  0  0  0  0  0  0  0  0  0  0  0
   -0.0607   -1.4004    0.3226 C   0  0  0  0  0  0  0  0  0  0  0  0
    0.4315   -0.2562    1.6587 S   0  0  0  0  0  0  0  0  0  0  0  0
    0.9102   -2.5646    0.1829 C   0  0  0  0  0  0  0  0  0  0  0  0
   -2.1872   -1.0261    0.5462 H   0  0  0  0  0  0  0  0  0  0  0  0
   -1.6132   -2.4751    1.3782 H   0  0  0  0  0  0  0  0  0  0  0  0
   -1.7916   -2.4854   -0.3791 H   0  0  0  0  0  0  0  0  0  0  0  0
    0.3010   -1.1327    2.6652 H   0  0  0  0  0  0  0  0  0  0  0  0
    0.6363   -3.1855   -0.6739 H   0  0  0  0  0  0  0  0  0  0  0  0
    1.9326   -2.2141    0.0458 H   0  0  0  0  0  0  0  0  0  0  0  0
    0.8839   -3.1952    1.0749 H   0  0  0  0  0  0  0  0  0  0  0  0
  1  2  3  0
  1  6  1  0
  2  3  1  0
  3  4  1  0
  3  5  1  0
  4  8  1  0
  4  9  1  0
  4 10  1  0
  5 11  1  0
  5 12  1  0
  5 13  1  0
  7 15  1  0
 14 15  1  0
 14 18  1  0
 14 19  1  0
 14 20  1  0
 15 17  1  0
 15 16  1  0
 16 21  1  0
 17 22  1  0
 17 23  1  0
 17 24  1  0
M  RAD  1   3   2
M  END
>  <reaction>  (10) 
rxn_1325

>  <mol_properties>  (10) 
{"1": {"label": "*0", "atom_type": "Ct"}, "2": {"label": "*1", "atom_type": "Cs"}, "6": {"label": "*2", "atom_type": "H0"}, "14": {"label": "*3", "atom_type": "Cs"}, "15": {"label": "*4", "atom_type": "S2s"}}

>  <type>  (10) 
unop_6

>  <geom_source>  (10) 
Heuristics

$$$$

     RDKit          3D

 24 22  0  0  0  0  0  0  0  0999 V2000
   -0.2151    1.0946   -3.0843 C   0  0  0  0  0  0  0  0  0  0  0  0
   -0.2151    1.0946   -1.8862 C   0  0  0  0  0  0  0  0  0  0  0  0
   -0.2151    1.1186   -0.4224 C   0  0  0  0  0  3  0  0  0  0  0  0
   -1.4812    1.7951    0.1120 C   0  0  0  0  0  0  0  0  0  0  0  0
    1.0510    1.7950    0.1120 C   0  0  0  0  0  0  0  0  0  0  0  0
   -0.2151    1.0946   -4.1476 H   0  0  0  0  0  0  0  0  0  0  0  0
   -0.2151   -0.1301   -0.0145 H   0  0  0  0  0  0  0  0  0  0  0  0
   -2.3783    1.2958   -0.2540 H   0  0  0  0  0  0  0  0  0  0  0  0
   -1.5185    2.8386   -0.2056 H   0  0  0  0  0  0  0  0  0  0  0  0
   -1.4885    1.7671    1.2030 H   0  0  0  0  0  0  0  0  0  0  0  0
    1.0884    2.8385   -0.2056 H   0  0  0  0  0  0  0  0  0  0  0  0
    1.9481    1.2957   -0.2540 H   0  0  0  0  0  0  0  0  0  0  0  0
    1.0584    1.7670    1.2030 H   0  0  0  0  0  0  0  0  0  0  0  0
   -1.4624   -1.6221    1.2304 C   0  0  0  0  0  0  0  0  0  0  0  0
   -0.2151   -1.3768    0.3928 C   0  0  0  0  0  0  0  0  0  0  0  0
    1.0252   -0.3794    1.2891 S   0  0  0  0  0  0  0  0  0  0  0  0
    0.3771   -2.6710   -0.1477 C   0  0  0  0  0  0  0  0  0  0  0  0
   -1.8912   -0.6862    1.5868 H   0  0  0  0  0  0  0  0  0  0  0  0
   -1.2251   -2.2400    2.0999 H   0  0  0  0  0  0  0  0  0  0  0  0
   -2.2168   -2.1496    0.6411 H   0  0  0  0  0  0  0  0  0  0  0  0
    1.2538   -1.2659    2.2690 H   0  0  0  0  0  0  0  0  0  0  0  0
   -0.3646   -3.2058   -0.7467 H   0  0  0  0  0  0  0  0  0  0  0  0
    1.2517   -2.4783   -0.7679 H   0  0  0  0  0  0  0  0  0  0  0  0
    0.6798   -3.3262    0.6727 H   0  0  0  0  0  0  0  0  0  0  0  0
  1  2  3  0
  1  6  1  0
  2  3  1  0
  3  4  1  0
  3  5  1  0
  4  8  1  0
  4  9  1  0
  4 10  1  0
  5 11  1  0
  5 12  1  0
  5 13  1  0
  7 15  1  0
 14 15  1  0
 14 18  1  0
 14 19  1  0
 14 20  1  0
 15 17  1  0
 15 16  1  0
 16 21  1  0
 17 22  1  0
 17 23  1  0
 17 24  1  0
M  RAD  1   3   2
M  END
>  <reaction>  (11) 
rxn_1325

>  <mol_properties>  (11) 
{"1": {"label": "*0", "atom_type": "Ct"}, "2": {"label": "*1", "atom_type": "Cs"}, "6": {"label": "*2", "atom_type": "H0"}, "14": {"label": "*3", "atom_type": "Cs"}, "15": {"label": "*4", "atom_type": "S2s"}}

>  <type>  (11) 
unop_7

>  <geom_source>  (11) 
Heuristics

$$$$

     RDKit          3D

 24 22  0  0  0  0  0  0  0  0999 V2000
    0.1525    1.4350   -2.9035 C   0  0  0  0  0  0  0  0  0  0  0  0
    0.1525    1.4350   -1.7055 C   0  0  0  0  0  0  0  0  0  0  0  0
    0.1525    1.4589   -0.2417 C   0  0  0  0  0  3  0  0  0  0  0  0
   -1.1136    2.1354    0.2927 C   0  0  0  0  0  0  0  0  0  0  0  0
    1.4186    2.1354    0.2927 C   0  0  0  0  0  0  0  0  0  0  0  0
    0.1525    1.4350   -3.9669 H   0  0  0  0  0  0  0  0  0  0  0  0
    0.1525    0.2103    0.1662 H   0  0  0  0  0  0  0  0  0  0  0  0
   -2.0107    1.6361   -0.0732 H   0  0  0  0  0  0  0  0  0  0  0  0
   -1.1510    3.1789   -0.0248 H   0  0  0  0  0  0  0  0  0  0  0  0
   -1.1210    2.1074    1.3838 H   0  0  0  0  0  0  0  0  0  0  0  0
    1.4560    3.1789   -0.0248 H   0  0  0  0  0  0  0  0  0  0  0  0
    2.3157    1.6360   -0.0732 H   0  0  0  0  0  0  0  0  0  0  0  0
    1.4259    2.1074    1.3838 H   0  0  0  0  0  0  0  0  0  0  0  0
    1.5926   -1.5054    0.7267 C   0  0  0  0  0  0  0  0  0  0  0  0
    0.1524   -1.0365    0.5735 C   0  0  0  0  0  0  0  0  0  0  0  0
   -0.9761   -2.4150    0.1702 S   0  0  0  0  0  0  0  0  0  0  0  0
   -0.3250   -0.2444    1.7827 C   0  0  0  0  0  0  0  0  0  0  0  0
    1.9299   -2.0460   -0.1570 H   0  0  0  0  0  0  0  0  0  0  0  0
    1.6902   -2.1694    1.5891 H   0  0  0  0  0  0  0  0  0  0  0  0
    2.2545   -0.6502    0.8863 H   0  0  0  0  0  0  0  0  0  0  0  0
   -0.7966   -3.0971    1.3107 H   0  0  0  0  0  0  0  0  0  0  0  0
    0.3234    0.6196    1.9497 H   0  0  0  0  0  0  0  0  0  0  0  0
   -1.3468    0.1086    1.6474 H   0  0  0  0  0  0  0  0  0  0  0  0
   -0.2958   -0.8634    2.6827 H   0  0  0  0  0  0  0  0  0  0  0  0
  1  2  3  0
  1  6  1  0
  2  3  1  0
  3  4  1  0
  3  5  1  0
  4  8  1  0
  4  9  1  0
  4 10  1  0
  5 11  1  0
  5 12  1  0
  5 13  1  0
  7 15  1  0
 14 15  1  0
 14 18  1  0
 14 19  1  0
 14 20  1  0
 15 17  1  0
 15 16  1  0
 16 21  1  0
 17 22  1  0
 17 23  1  0
 17 24  1  0
M  RAD  1   3   2
M  END
>  <reaction>  (12) 
rxn_1325

>  <mol_properties>  (12) 
{"1": {"label": "*0", "atom_type": "Ct"}, "2": {"label": "*1", "atom_type": "Cs"}, "6": {"label": "*2", "atom_type": "H0"}, "14": {"label": "*3", "atom_type": "Cs"}, "15": {"label": "*4", "atom_type": "S2s"}}

>  <type>  (12) 
unop_8

>  <geom_source>  (12) 
Heuristics

$$$$

     RDKit          3D

 24 22  0  0  0  0  0  0  0  0999 V2000
    0.2015    1.2017   -3.0955 C   0  0  0  0  0  0  0  0  0  0  0  0
    0.2015    1.2017   -1.8974 C   0  0  0  0  0  0  0  0  0  0  0  0
    0.2015    1.2257   -0.4336 C   0  0  0  0  0  3  0  0  0  0  0  0
   -1.0646    1.9021    0.1007 C   0  0  0  0  0  0  0  0  0  0  0  0
    1.4676    1.9021    0.1007 C   0  0  0  0  0  0  0  0  0  0  0  0
    0.2015    1.2017   -4.1588 H   0  0  0  0  0  0  0  0  0  0  0  0
    0.2015   -0.0230   -0.0257 H   0  0  0  0  0  0  0  0  0  0  0  0
   -1.9616    1.4028   -0.2652 H   0  0  0  0  0  0  0  0  0  0  0  0
   -1.1019    2.9456   -0.2168 H   0  0  0  0  0  0  0  0  0  0  0  0
   -1.0719    1.8741    1.1918 H   0  0  0  0  0  0  0  0  0  0  0  0
    1.5050    2.9456   -0.2168 H   0  0  0  0  0  0  0  0  0  0  0  0
    2.3647    1.4028   -0.2652 H   0  0  0  0  0  0  0  0  0  0  0  0
    1.4750    1.8741    1.1918 H   0  0  0  0  0  0  0  0  0  0  0  0
   -0.5186   -2.1259   -0.6509 C   0  0  0  0  0  0  0  0  0  0  0  0
    0.2015   -1.2698    0.3815 C   0  0  0  0  0  0  0  0  0  0  0  0
   -0.9172   -0.7267    1.7195 S   0  0  0  0  0  0  0  0  0  0  0  0
    1.4491   -1.9528    0.9242 C   0  0  0  0  0  0  0  0  0  0  0  0
   -1.3928   -1.6135   -1.0510 H   0  0  0  0  0  0  0  0  0  0  0  0
   -0.8507   -3.0666   -0.2048 H   0  0  0  0  0  0  0  0  0  0  0  0
    0.1536   -2.3670   -1.4784 H   0  0  0  0  0  0  0  0  0  0  0  0
   -1.1905   -1.9502    2.1953 H   0  0  0  0  0  0  0  0  0  0  0  0
    2.1351   -2.1927    0.1077 H   0  0  0  0  0  0  0  0  0  0  0  0
    1.9694   -1.3176    1.6403 H   0  0  0  0  0  0  0  0  0  0  0  0
    1.1872   -2.8873    1.4263 H   0  0  0  0  0  0  0  0  0  0  0  0
  1  2  3  0
  1  6  1  0
  2  3  1  0
  3  4  1  0
  3  5  1  0
  4  8  1  0
  4  9  1  0
  4 10  1  0
  5 11  1  0
  5 12  1  0
  5 13  1  0
  7 15  1  0
 14 15  1  0
 14 18  1  0
 14 19  1  0
 14 20  1  0
 15 17  1  0
 15 16  1  0
 16 21  1  0
 17 22  1  0
 17 23  1  0
 17 24  1  0
M  RAD  1   3   2
M  END
>  <reaction>  (13) 
rxn_1325

>  <mol_properties>  (13) 
{"1": {"label": "*0", "atom_type": "Ct"}, "2": {"label": "*1", "atom_type": "Cs"}, "6": {"label": "*2", "atom_type": "H0"}, "14": {"label": "*3", "atom_type": "Cs"}, "15": {"label": "*4", "atom_type": "S2s"}}

>  <type>  (13) 
unop_9

>  <geom_source>  (13) 
Heuristics

$$$$

     RDKit          3D

 24 22  0  0  0  0  0  0  0  0999 V2000
    0.1640    1.4161   -2.9433 C   0  0  0  0  0  0  0  0  0  0  0  0
    0.1640    1.4161   -1.7453 C   0  0  0  0  0  0  0  0  0  0  0  0
    0.1640    1.4401   -0.2815 C   0  0  0  0  0  3  0  0  0  0  0  0
   -1.1021    2.1165    0.2529 C   0  0  0  0  0  0  0  0  0  0  0  0
    1.4302    2.1165    0.2529 C   0  0  0  0  0  0  0  0  0  0  0  0
    0.1640    1.4161   -4.0067 H   0  0  0  0  0  0  0  0  0  0  0  0
    0.1640    0.1914    0.1264 H   0  0  0  0  0  0  0  0  0  0  0  0
   -1.9991    1.6172   -0.1130 H   0  0  0  0  0  0  0  0  0  0  0  0
   -1.1394    3.1601   -0.0646 H   0  0  0  0  0  0  0  0  0  0  0  0
   -1.1094    2.0885    1.3440 H   0  0  0  0  0  0  0  0  0  0  0  0
    1.4675    3.1600   -0.0646 H   0  0  0  0  0  0  0  0  0  0  0  0
    2.3272    1.6172   -0.1130 H   0  0  0  0  0  0  0  0  0  0  0  0
    1.4375    2.0885    1.3440 H   0  0  0  0  0  0  0  0  0  0  0  0
    1.4112   -1.7478    0.0024 C   0  0  0  0  0  0  0  0  0  0  0  0
    0.1640   -1.0553    0.5337 C   0  0  0  0  0  0  0  0  0  0  0  0
   -1.2770   -2.1772    0.5718 S   0  0  0  0  0  0  0  0  0  0  0  0
    0.4060   -0.3927    1.8827 C   0  0  0  0  0  0  0  0  0  0  0  0
    1.2316   -2.1930   -0.9756 H   0  0  0  0  0  0  0  0  0  0  0  0
    1.7293   -2.5409    0.6835 H   0  0  0  0  0  0  0  0  0  0  0  0
    2.2333   -1.0327   -0.0854 H   0  0  0  0  0  0  0  0  0  0  0  0
   -0.7731   -3.0418    1.4644 H   0  0  0  0  0  0  0  0  0  0  0  0
    1.2210    0.3319    1.8081 H   0  0  0  0  0  0  0  0  0  0  0  0
   -0.4861    0.1225    2.2373 H   0  0  0  0  0  0  0  0  0  0  0  0
    0.6882   -1.1375    2.6309 H   0  0  0  0  0  0  0  0  0  0  0  0
  1  2  3  0
  1  6  1  0
  2  3  1  0
  3  4  1  0
  3  5  1  0
  4  8  1  0
  4  9  1  0
  4 10  1  0
  5 11  1  0
  5 12  1  0
  5 13  1  0
  7 15  1  0
 14 15  1  0
 14 18  1  0
 14 19  1  0
 14 20  1  0
 15 17  1  0
 15 16  1  0
 16 21  1  0
 17 22  1  0
 17 23  1  0
 17 24  1  0
M  RAD  1   3   2
M  END
>  <reaction>  (14) 
rxn_1325

>  <mol_properties>  (14) 
{"1": {"label": "*0", "atom_type": "Ct"}, "2": {"label": "*1", "atom_type": "Cs"}, "6": {"label": "*2", "atom_type": "H0"}, "14": {"label": "*3", "atom_type": "Cs"}, "15": {"label": "*4", "atom_type": "S2s"}}

>  <type>  (14) 
unop_10

>  <geom_source>  (14) 
Heuristics

$$$$

     RDKit          3D

 24 22  0  0  0  0  0  0  0  0999 V2000
   -0.3090    1.2024   -2.9447 C   0  0  0  0  0  0  0  0  0  0  0  0
   -0.3090    1.2024   -1.7467 C   0  0  0  0  0  0  0  0  0  0  0  0
   -0.3090    1.2264   -0.2829 C   0  0  0  0  0  3  0  0  0  0  0  0
   -1.5751    1.9028    0.2515 C   0  0  0  0  0  0  0  0  0  0  0  0
    0.9572    1.9028    0.2515 C   0  0  0  0  0  0  0  0  0  0  0  0
   -0.3090    1.2024   -4.0081 H   0  0  0  0  0  0  0  0  0  0  0  0
   -0.3090   -0.0223    0.1250 H   0  0  0  0  0  0  0  0  0  0  0  0
   -2.4721    1.4035   -0.1144 H   0  0  0  0  0  0  0  0  0  0  0  0
   -1.6124    2.9464   -0.0660 H   0  0  0  0  0  0  0  0  0  0  0  0
   -1.5824    1.8748    1.3426 H   0  0  0  0  0  0  0  0  0  0  0  0
    0.9945    2.9463   -0.0660 H   0  0  0  0  0  0  0  0  0  0  0  0
    1.8542    1.4035   -0.1144 H   0  0  0  0  0  0  0  0  0  0  0  0
    0.9645    1.8748    1.3426 H   0  0  0  0  0  0  0  0  0  0  0  0
   -1.0291   -1.3506    1.8711 C   0  0  0  0  0  0  0  0  0  0  0  0
   -0.3090   -1.2690    0.5323 C   0  0  0  0  0  0  0  0  0  0  0  0
    1.4518   -0.8250    0.7291 S   0  0  0  0  0  0  0  0  0  0  0  0
   -0.4884   -2.5349   -0.2941 C   0  0  0  0  0  0  0  0  0  0  0  0
   -0.9158   -0.4280    2.4393 H   0  0  0  0  0  0  0  0  0  0  0  0
   -0.6296   -2.1712    2.4721 H   0  0  0  0  0  0  0  0  0  0  0  0
   -2.0951   -1.5370    1.7171 H   0  0  0  0  0  0  0  0  0  0  0  0
    1.8087   -1.9194    1.4169 H   0  0  0  0  0  0  0  0  0  0  0  0
   -1.5506   -2.7295   -0.4632 H   0  0  0  0  0  0  0  0  0  0  0  0
    0.0080   -2.4515   -1.2603 H   0  0  0  0  0  0  0  0  0  0  0  0
   -0.0697   -3.3976    0.2298 H   0  0  0  0  0  0  0  0  0  0  0  0
  1  2  3  0
  1  6  1  0
  2  3  1  0
  3  4  1  0
  3  5  1  0
  4  8  1  0
  4  9  1  0
  4 10  1  0
  5 11  1  0
  5 12  1  0
  5 13  1  0
  7 15  1  0
 14 15  1  0
 14 18  1  0
 14 19  1  0
 14 20  1  0
 15 17  1  0
 15 16  1  0
 16 21  1  0
 17 22  1  0
 17 23  1  0
 17 24  1  0
M  RAD  1   3   2
M  END
>  <reaction>  (15) 
rxn_1325

>  <mol_properties>  (15) 
{"1": {"label": "*0", "atom_type": "Ct"}, "2": {"label": "*1", "atom_type": "Cs"}, "6": {"label": "*2", "atom_type": "H0"}, "14": {"label": "*3", "atom_type": "Cs"}, "15": {"label": "*4", "atom_type": "S2s"}}

>  <type>  (15) 
unop_11

>  <geom_source>  (15) 
Heuristics

$$$$

     RDKit          3D

 24 22  0  0  0  0  0  0  0  0999 V2000
    0.2258    1.3083   -3.0202 C   0  0  0  0  0  0  0  0  0  0  0  0
    0.2258    1.3083   -1.8221 C   0  0  0  0  0  0  0  0  0  0  0  0
    0.2258    1.3322   -0.3583 C   0  0  0  0  0  3  0  0  0  0  0  0
   -1.0404    2.0087    0.1760 C   0  0  0  0  0  0  0  0  0  0  0  0
    1.4919    2.0086    0.1760 C   0  0  0  0  0  0  0  0  0  0  0  0
    0.2258    1.3083   -4.0835 H   0  0  0  0  0  0  0  0  0  0  0  0
    0.2257    0.0835    0.0495 H   0  0  0  0  0  0  0  0  0  0  0  0
   -1.9374    1.5094   -0.1899 H   0  0  0  0  0  0  0  0  0  0  0  0
   -1.0777    3.0522   -0.1415 H   0  0  0  0  0  0  0  0  0  0  0  0
   -1.0477    1.9807    1.2671 H   0  0  0  0  0  0  0  0  0  0  0  0
    1.5293    3.0521   -0.1415 H   0  0  0  0  0  0  0  0  0  0  0  0
    2.3889    1.5093   -0.1899 H   0  0  0  0  0  0  0  0  0  0  0  0
    1.4992    1.9806    1.2671 H   0  0  0  0  0  0  0  0  0  0  0  0
    0.2257   -2.0793   -0.7590 C   0  0  0  0  0  0  0  0  0  0  0  0
    0.2257   -1.1632    0.4568 C   0  0  0  0  0  0  0  0  0  0  0  0
   -1.3391   -1.2698    1.3931 S   0  0  0  0  0  0  0  0  0  0  0  0
    1.4392   -1.3912    1.3474 C   0  0  0  0  0  0  0  0  0  0  0  0
   -0.6326   -1.8858   -1.4015 H   0  0  0  0  0  0  0  0  0  0  0  0
    0.1896   -3.1269   -0.4501 H   0  0  0  0  0  0  0  0  0  0  0  0
    1.1383   -1.9340   -1.3428 H   0  0  0  0  0  0  0  0  0  0  0  0
   -1.2185   -2.5583    1.7445 H   0  0  0  0  0  0  0  0  0  0  0  0
    2.3602   -1.2411    0.7783 H   0  0  0  0  0  0  0  0  0  0  0  0
    1.4407   -0.7102    2.1976 H   0  0  0  0  0  0  0  0  0  0  0  0
    1.4463   -2.4143    1.7314 H   0  0  0  0  0  0  0  0  0  0  0  0
  1  2  3  0
  1  6  1  0
  2  3  1  0
  3  4  1  0
  3  5  1  0
  4  8  1  0
  4  9  1  0
  4 10  1  0
  5 11  1  0
  5 12  1  0
  5 13  1  0
  7 15  1  0
 14 15  1  0
 14 18  1  0
 14 19  1  0
 14 20  1  0
 15 17  1  0
 15 16  1  0
 16 21  1  0
 17 22  1  0
 17 23  1  0
 17 24  1  0
M  RAD  1   3   2
M  END
>  <reaction>  (16) 
rxn_1325

>  <mol_properties>  (16) 
{"1": {"label": "*0", "atom_type": "Ct"}, "2": {"label": "*1", "atom_type": "Cs"}, "6": {"label": "*2", "atom_type": "H0"}, "14": {"label": "*3", "atom_type": "Cs"}, "15": {"label": "*4", "atom_type": "S2s"}}

>  <type>  (16) 
unop_12

>  <geom_source>  (16) 
Heuristics

$$$$

     RDKit          3D

 24 22  0  0  0  0  0  0  0  0999 V2000
   -1.2832   -0.1935   -2.0461 S   0  0  0  0  0  0  0  0  0  0  0  0
   -1.3000    0.0605   -0.2387 C   0  0  0  0  0  0  0  0  0  0  0  0
   -1.9852    1.3825    0.1039 C   0  0  0  0  0  0  0  0  0  0  0  0
   -1.9862   -1.1152    0.4550 C   0  0  0  0  0  0  0  0  0  0  0  0
    1.7884   -0.4976   -1.3202 C   0  0  0  0  0  0  0  0  0  0  0  0
    1.5959   -1.1338    1.1174 C   0  0  0  0  0  0  0  0  0  0  0  0
    1.2751   -0.0813    0.0574 C   0  0  0  0  0  3  0  0  0  0  0  0
    1.8295    1.2254    0.4422 C   0  0  0  0  0  0  0  0  0  0  0  0
    2.2832    2.2970    0.7577 C   0  0  0  0  0  0  0  0  0  0  0  0
   -0.0393    0.1190    0.1809 H   0  0  0  0  0  0  0  0  0  0  0  0
   -3.0474    1.3718   -0.2215 H   0  0  0  0  0  0  0  0  0  0  0  0
   -1.9447    1.5582    1.1997 H   0  0  0  0  0  0  0  0  0  0  0  0
   -1.4608    2.2198   -0.4029 H   0  0  0  0  0  0  0  0  0  0  0  0
   -1.4625   -2.0601    0.1988 H   0  0  0  0  0  0  0  0  0  0  0  0
   -1.9457   -0.9821    1.5568 H   0  0  0  0  0  0  0  0  0  0  0  0
   -3.0484   -1.1938    0.1391 H   0  0  0  0  0  0  0  0  0  0  0  0
    1.3281   -1.4631   -1.6185 H   0  0  0  0  0  0  0  0  0  0  0  0
    1.5076    0.2666   -2.0759 H   0  0  0  0  0  0  0  0  0  0  0  0
    2.8943   -0.6108   -1.3114 H   0  0  0  0  0  0  0  0  0  0  0  0
    2.6945   -1.2708    1.2175 H   0  0  0  0  0  0  0  0  0  0  0  0
    1.1779   -0.8229    2.0986 H   0  0  0  0  0  0  0  0  0  0  0  0
    1.1341   -2.1041    0.8377 H   0  0  0  0  0  0  0  0  0  0  0  0
   -2.6869   -0.2093   -2.1621 H   0  0  0  0  0  0  0  0  0  0  0  0
    2.6816    3.2375    1.0347 H   0  0  0  0  0  0  0  0  0  0  0  0
  1  2  1  0
  1 23  1  0
  2  3  1  0
  2  4  1  0
  2 10  1  0
  3 11  1  0
  3 12  1  0
  3 13  1  0
  4 14  1  0
  4 15  1  0
  4 16  1  0
  5  7  1  0
  5 17  1  0
  5 18  1  0
  5 19  1  0
  6  7  1  0
  6 20  1  0
  6 21  1  0
  6 22  1  0
  7  8  1  0
  8  9  3  0
  9 24  1  0
M  RAD  1   7   2
M  END
>  <reaction>  (17) 
rxn_1325

>  <mol_properties>  (17) 
{"1": {"label": "*0", "atom_type": "Ct"}, "2": {"label": "*1", "atom_type": "Cs"}, "6": {"label": "*2", "atom_type": "H0"}, "14": {"label": "*3", "atom_type": "Cs"}, "15": {"label": "*4", "atom_type": "S2s"}}

>  <type>  (17) 
unop_13

>  <geom_source>  (17) 
AutoTST

$$$$
