
     RDKit          3D

 16 15  0  0  0  0  0  0  0  0999 V2000
    1.7961   -0.3807    1.6176 C   0  0  0  0  0  0  0  0  0  0  0  0
    0.8562   -0.8708    0.8256 C   0  0  0  0  0  0  0  0  0  0  0  0
    0.0895   -0.0826   -0.2048 C   0  0  0  0  0  0  0  0  0  0  0  0
   -1.4061   -0.1111    0.0982 C   0  0  0  0  0  0  0  0  0  0  0  0
    0.4476   -0.5902   -1.5797 C   0  0  0  0  0  0  0  0  0  0  0  0
   -0.3793   -1.1113   -2.4728 C   0  0  0  0  0  0  0  0  0  0  0  0
    2.3110   -1.0032    2.3386 H   0  0  0  0  0  0  0  0  0  0  0  0
    2.0846    0.6643    1.5737 H   0  0  0  0  0  0  0  0  0  0  0  0
    0.5921   -1.9241    0.8925 H   0  0  0  0  0  0  0  0  0  0  0  0
    0.4358    0.9557   -0.1462 H   0  0  0  0  0  0  0  0  0  0  0  0
   -1.5968    0.3080    1.0865 H   0  0  0  0  0  0  0  0  0  0  0  0
   -1.9674    0.4693   -0.6359 H   0  0  0  0  0  0  0  0  0  0  0  0
   -1.7902   -1.1338    0.0883 H   0  0  0  0  0  0  0  0  0  0  0  0
    1.5049   -0.5197   -1.8214 H   0  0  0  0  0  0  0  0  0  0  0  0
   -1.4421   -1.2131   -2.2889 H   0  0  0  0  0  0  0  0  0  0  0  0
   -0.0162   -1.4558   -3.4328 H   0  0  0  0  0  0  0  0  0  0  0  0
  1  2  2  3
  1  7  1  0
  1  8  1  0
  2  3  1  0
  2  9  1  0
  3  4  1  0
  3  5  1  0
  3 10  1  0
  4 11  1  0
  4 12  1  0
  4 13  1  0
  5  6  2  3
  5 14  1  0
  6 15  1  0
  6 16  1  0
M  END
>  <reaction>  (1) 
rxn_1200

>  <mol_properties>  (1) 
{"2": {"label": "donator", "atom_type": "Cs"}, "9": {"label": "d_hydrogen", "atom_type": "H0"}}

>  <type>  (1) 
r1h

$$$$

     RDKit          3D

  9  8  0  0  0  0  0  0  0  0999 V2000
    2.3991   -0.1292   -0.2384 S   0  0  0  0  0  0  0  0  0  0  0  0
    0.7460    0.2807    0.0931 C   0  0  0  0  0  3  0  0  0  0  0  0
   -0.3131   -0.5719   -0.2043 C   0  0  0  0  0  0  0  0  0  0  0  0
   -0.2286   -1.8095   -0.7775 C   0  0  0  0  0  0  0  0  0  0  0  0
    2.9373    1.0009    0.2312 H   0  0  0  0  0  0  0  0  0  0  0  0
    0.5618    1.2421    0.5487 H   0  0  0  0  0  0  0  0  0  0  0  0
   -1.2978   -0.1954    0.0537 H   0  0  0  0  0  0  0  0  0  0  0  0
    0.7207   -2.2479   -1.0607 H   0  0  0  0  0  0  0  0  0  0  0  0
   -1.1177   -2.3938   -0.9670 H   0  0  0  0  0  0  0  0  0  0  0  0
  1  2  1  0
  1  5  1  0
  2  3  1  0
  2  6  1  0
  3  4  2  3
  3  7  1  0
  4  8  1  0
  4  9  1  0
M  RAD  1   2   2
M  END
>  <reaction>  (2) 
rxn_1200

>  <mol_properties>  (2) 
{"1": {"label": "acceptor", "atom_type": "Cs"}}

>  <type>  (2) 
r2

$$$$

     RDKit          3D

 10  9  0  0  0  0  0  0  0  0999 V2000
    2.2097   -0.5315    0.2575 S   0  0  0  0  0  0  0  0  0  0  0  0
    0.5401   -0.7188   -0.4494 C   0  0  0  0  0  0  0  0  0  0  0  0
   -0.5263   -0.1678    0.4365 C   0  0  0  0  0  0  0  0  0  0  0  0
   -1.3394    0.8185    0.0912 C   0  0  0  0  0  0  0  0  0  0  0  0
    2.1701    0.8016    0.3806 H   0  0  0  0  0  0  0  0  0  0  0  0
    0.4238   -1.7978   -0.5701 H   0  0  0  0  0  0  0  0  0  0  0  0
    0.5053   -0.2663   -1.4400 H   0  0  0  0  0  0  0  0  0  0  0  0
   -0.6005   -0.6141    1.4236 H   0  0  0  0  0  0  0  0  0  0  0  0
   -2.0960    1.1907    0.7700 H   0  0  0  0  0  0  0  0  0  0  0  0
   -1.2784    1.2877   -0.8850 H   0  0  0  0  0  0  0  0  0  0  0  0
  1  2  1  0
  1  5  1  0
  2  3  1  0
  2  6  1  0
  2  7  1  0
  3  4  2  3
  3  8  1  0
  4  9  1  0
  4 10  1  0
M  END
>  <reaction>  (3) 
rxn_1200

>  <mol_properties>  (3) 
{"1": {"label": "acceptor", "atom_type": "Cs"}, "9": {"label": "a_hydrogen", "atom_type": "H0"}}

>  <type>  (3) 
r2h

$$$$

     RDKit          3D

 25 23  0  0  0  0  0  0  0  0999 V2000
    0.9441    1.4205   -1.9035 S   0  0  0  0  0  0  0  0  0  0  0  0
   -0.4123    1.3536   -0.7602 C   0  0  0  0  0  3  0  0  0  0  0  0
   -0.3166    2.2402    0.3801 C   0  0  0  0  0  0  0  0  0  0  0  0
   -1.3685    2.6917    1.0731 C   0  0  0  0  0  0  0  0  0  0  0  0
    0.7681    0.2001   -2.4315 H   0  0  0  0  0  0  0  0  0  0  0  0
   -1.3958    1.2917   -1.2225 H   0  0  0  0  0  0  0  0  0  0  0  0
    0.6862    2.4965    0.7106 H   0  0  0  0  0  0  0  0  0  0  0  0
   -2.3840    2.4539    0.7791 H   0  0  0  0  0  0  0  0  0  0  0  0
   -1.2375    3.3056    1.9540 H   0  0  0  0  0  0  0  0  0  0  0  0
    1.0573   -2.5156   -1.2763 C   0  0  0  0  0  0  0  0  0  0  0  0
   -0.0849   -2.0197   -0.8006 C   0  0  0  0  0  0  0  0  0  0  0  0
   -0.2458   -1.1148    0.3497 C   0  0  0  0  0  0  0  0  0  0  0  0
    0.9706   -0.8604    1.2055 C   0  0  0  0  0  0  0  0  0  0  0  0
   -1.5441   -1.2377    1.0340 C   0  0  0  0  0  0  0  0  0  0  0  0
   -1.8043   -0.9622    2.3105 C   0  0  0  0  0  0  0  0  0  0  0  0
    1.0608   -3.1606   -2.1453 H   0  0  0  0  0  0  0  0  0  0  0  0
    2.0150   -2.3105   -0.8148 H   0  0  0  0  0  0  0  0  0  0  0  0
   -1.0081   -2.2817   -1.3127 H   0  0  0  0  0  0  0  0  0  0  0  0
   -0.3656    0.0587   -0.2273 H   0  0  0  0  0  0  0  0  0  0  0  0
    1.8218   -0.5676    0.5895 H   0  0  0  0  0  0  0  0  0  0  0  0
    0.7840   -0.0481    1.9085 H   0  0  0  0  0  0  0  0  0  0  0  0
    1.2456   -1.7513    1.7761 H   0  0  0  0  0  0  0  0  0  0  0  0
   -2.3680   -1.5624    0.4028 H   0  0  0  0  0  0  0  0  0  0  0  0
   -1.0374   -0.6403    3.0033 H   0  0  0  0  0  0  0  0  0  0  0  0
   -2.8074   -1.0613    2.7041 H   0  0  0  0  0  0  0  0  0  0  0  0
  1  2  1  0
  1  5  1  0
  2  3  1  0
  2  6  1  0
  3  4  2  3
  3  7  1  0
  4  8  1  0
  4  9  1  0
 10 11  2  3
 10 16  1  0
 10 17  1  0
 11 12  1  0
 11 18  1  0
 12 13  1  0
 12 14  1  0
 12 19  1  0
 13 20  1  0
 13 21  1  0
 13 22  1  0
 14 15  2  3
 14 23  1  0
 15 24  1  0
 15 25  1  0
M  RAD  1   2   2
M  END
>  <reaction>  (4) 
rxn_1200

>  <mol_properties>  (4) 
{"0": {"label": "*4", "atom_type": "S2s"}, "1": {"label": "*3", "atom_type": "Cs"}, "10": {"label": "*0", "atom_type": "Cd"}, "11": {"label": "*1", "atom_type": "Cs"}, "18": {"label": "*2", "atom_type": "H0"}}

>  <type>  (4) 
ts

$$$$

     RDKit          3D

 25 23  0  0  0  0  0  0  0  0999 V2000
   -1.2500    1.9076   -0.3333 S   0  0  0  0  0  0  0  0  0  0  0  0
    0.2765    0.9943   -0.7312 C   0  0  0  0  0  0  0  0  0  0  0  0
    0.7956    1.3053   -2.0948 C   0  0  0  0  0  0  0  0  0  0  0  0
    1.9832    1.8414   -2.3305 C   0  0  0  0  0  0  0  0  0  0  0  0
   -0.7396    3.1334   -0.5089 H   0  0  0  0  0  0  0  0  0  0  0  0
    1.0302    1.1837    0.0324 H   0  0  0  0  0  0  0  0  0  0  0  0
    0.1258    1.0822   -2.9197 H   0  0  0  0  0  0  0  0  0  0  0  0
    2.6661    2.0831   -1.5231 H   0  0  0  0  0  0  0  0  0  0  0  0
    2.3162    2.0556   -3.3379 H   0  0  0  0  0  0  0  0  0  0  0  0
    0.2034   -2.3212   -1.3293 C   0  0  0  0  0  0  0  0  0  0  0  0
    0.2034   -2.3212   -0.0061 C   0  0  0  0  0  0  0  0  0  0  0  0
    0.2034   -1.0904    0.8633 C   0  0  0  0  0  3  0  0  0  0  0  0
    1.4418   -1.0606    1.7549 C   0  0  0  0  0  0  0  0  0  0  0  0
   -1.1001   -1.0218    1.6198 C   0  0  0  0  0  0  0  0  0  0  0  0
   -1.2547   -1.0216    2.9348 C   0  0  0  0  0  0  0  0  0  0  0  0
    0.2027   -3.2438   -1.8960 H   0  0  0  0  0  0  0  0  0  0  0  0
    0.2052   -1.3954   -1.8950 H   0  0  0  0  0  0  0  0  0  0  0  0
    0.1987   -3.2670    0.5316 H   0  0  0  0  0  0  0  0  0  0  0  0
    0.2400   -0.0460    0.0645 H   0  0  0  0  0  0  0  0  0  0  0  0
    2.3445   -1.0690    1.1437 H   0  0  0  0  0  0  0  0  0  0  0  0
    1.4565   -0.1648    2.3780 H   0  0  0  0  0  0  0  0  0  0  0  0
    1.4744   -1.9324    2.4126 H   0  0  0  0  0  0  0  0  0  0  0  0
   -1.9833   -0.9861    0.9873 H   0  0  0  0  0  0  0  0  0  0  0  0
   -0.4144   -1.0609    3.6173 H   0  0  0  0  0  0  0  0  0  0  0  0
   -2.2411   -0.9785    3.3790 H   0  0  0  0  0  0  0  0  0  0  0  0
  1  2  1  0
  1  5  1  0
  2  3  1  0
  2  6  1  0
  2 19  1  0
  3  4  2  3
  3  7  1  0
  4  8  1  0
  4  9  1  0
 10 11  2  3
 10 16  1  0
 10 17  1  0
 11 12  1  0
 11 18  1  0
 12 13  1  0
 12 14  1  0
 13 20  1  0
 13 21  1  0
 13 22  1  0
 14 15  2  3
 14 23  1  0
 15 24  1  0
 15 25  1  0
M  RAD  1  12   2
M  END
>  <reaction>  (5) 
rxn_1200

>  <mol_properties>  (5) 
{"0": {"label": "*4", "atom_type": "S2s"}, "1": {"label": "*3", "atom_type": "Cs"}, "10": {"label": "*0", "atom_type": "Cd"}, "11": {"label": "*1", "atom_type": "Cs"}, "18": {"label": "*2", "atom_type": "H0"}}

>  <type>  (5) 
unop_1

>  <geom_source>  (5) 
Heuristics

$$$$

     RDKit          3D

 25 23  0  0  0  0  0  0  0  0999 V2000
   -0.7412    0.5852   -2.0745 S   0  0  0  0  0  0  0  0  0  0  0  0
    0.1171    1.1511   -0.5694 C   0  0  0  0  0  0  0  0  0  0  0  0
    1.3298    1.9666   -0.8693 C   0  0  0  0  0  0  0  0  0  0  0  0
    1.4874    3.2258   -0.4910 C   0  0  0  0  0  0  0  0  0  0  0  0
   -0.9570    1.8029   -2.5890 H   0  0  0  0  0  0  0  0  0  0  0  0
   -0.5777    1.6946    0.0701 H   0  0  0  0  0  0  0  0  0  0  0  0
    2.1026    1.4719   -1.4498 H   0  0  0  0  0  0  0  0  0  0  0  0
    0.7257    3.7453    0.0805 H   0  0  0  0  0  0  0  0  0  0  0  0
    2.3833    3.7813   -0.7367 H   0  0  0  0  0  0  0  0  0  0  0  0
    0.0441   -2.1644   -1.1674 C   0  0  0  0  0  0  0  0  0  0  0  0
    0.0441   -2.1644    0.1558 C   0  0  0  0  0  0  0  0  0  0  0  0
    0.0441   -0.9336    1.0252 C   0  0  0  0  0  3  0  0  0  0  0  0
    1.2824   -0.9038    1.9168 C   0  0  0  0  0  0  0  0  0  0  0  0
   -1.2595   -0.8650    1.7817 C   0  0  0  0  0  0  0  0  0  0  0  0
   -1.4141   -0.8648    3.0967 C   0  0  0  0  0  0  0  0  0  0  0  0
    0.0433   -3.0870   -1.7341 H   0  0  0  0  0  0  0  0  0  0  0  0
    0.0458   -1.2386   -1.7331 H   0  0  0  0  0  0  0  0  0  0  0  0
    0.0393   -3.1102    0.6934 H   0  0  0  0  0  0  0  0  0  0  0  0
    0.0807    0.1107    0.2264 H   0  0  0  0  0  0  0  0  0  0  0  0
    2.1852   -0.9122    1.3056 H   0  0  0  0  0  0  0  0  0  0  0  0
    1.2971   -0.0081    2.5399 H   0  0  0  0  0  0  0  0  0  0  0  0
    1.3150   -1.7756    2.5744 H   0  0  0  0  0  0  0  0  0  0  0  0
   -2.1426   -0.8293    1.1492 H   0  0  0  0  0  0  0  0  0  0  0  0
   -0.5737   -0.9041    3.7792 H   0  0  0  0  0  0  0  0  0  0  0  0
   -2.4005   -0.8217    3.5409 H   0  0  0  0  0  0  0  0  0  0  0  0
  1  2  1  0
  1  5  1  0
  2  3  1  0
  2  6  1  0
  2 19  1  0
  3  4  2  3
  3  7  1  0
  4  8  1  0
  4  9  1  0
 10 11  2  3
 10 16  1  0
 10 17  1  0
 11 12  1  0
 11 18  1  0
 12 13  1  0
 12 14  1  0
 13 20  1  0
 13 21  1  0
 13 22  1  0
 14 15  2  3
 14 23  1  0
 15 24  1  0
 15 25  1  0
M  RAD  1  12   2
M  END
>  <reaction>  (6) 
rxn_1200

>  <mol_properties>  (6) 
{"0": {"label": "*4", "atom_type": "S2s"}, "1": {"label": "*3", "atom_type": "Cs"}, "10": {"label": "*0", "atom_type": "Cd"}, "11": {"label": "*1", "atom_type": "Cs"}, "18": {"label": "*2", "atom_type": "H0"}}

>  <type>  (6) 
unop_2

>  <geom_source>  (6) 
Heuristics

$$$$

     RDKit          3D

 25 23  0  0  0  0  0  0  0  0999 V2000
   -0.5935    2.2813    0.1680 S   0  0  0  0  0  0  0  0  0  0  0  0
    0.2915    0.9855   -0.7594 C   0  0  0  0  0  0  0  0  0  0  0  0
    0.0652    1.0735   -2.2314 C   0  0  0  0  0  0  0  0  0  0  0  0
    1.0284    1.2723   -3.1180 C   0  0  0  0  0  0  0  0  0  0  0  0
   -0.0303    3.3229   -0.4580 H   0  0  0  0  0  0  0  0  0  0  0  0
    1.3537    1.0191   -0.5191 H   0  0  0  0  0  0  0  0  0  0  0  0
   -0.9659    0.9823   -2.5592 H   0  0  0  0  0  0  0  0  0  0  0  0
    2.0647    1.3770   -2.8149 H   0  0  0  0  0  0  0  0  0  0  0  0
    0.8165    1.3353   -4.1776 H   0  0  0  0  0  0  0  0  0  0  0  0
    0.2184   -2.3299   -1.3575 C   0  0  0  0  0  0  0  0  0  0  0  0
    0.2184   -2.3299   -0.0342 C   0  0  0  0  0  0  0  0  0  0  0  0
    0.2184   -1.0991    0.8352 C   0  0  0  0  0  3  0  0  0  0  0  0
    1.4568   -1.0694    1.7268 C   0  0  0  0  0  0  0  0  0  0  0  0
   -1.0851   -1.0306    1.5917 C   0  0  0  0  0  0  0  0  0  0  0  0
   -1.2397   -1.0303    2.9066 C   0  0  0  0  0  0  0  0  0  0  0  0
    0.2177   -3.2525   -1.9242 H   0  0  0  0  0  0  0  0  0  0  0  0
    0.2202   -1.4041   -1.9232 H   0  0  0  0  0  0  0  0  0  0  0  0
    0.2137   -3.2757    0.5034 H   0  0  0  0  0  0  0  0  0  0  0  0
    0.2550   -0.0548    0.0363 H   0  0  0  0  0  0  0  0  0  0  0  0
    2.3595   -1.0777    1.1155 H   0  0  0  0  0  0  0  0  0  0  0  0
    1.4715   -0.1736    2.3499 H   0  0  0  0  0  0  0  0  0  0  0  0
    1.4894   -1.9411    2.3844 H   0  0  0  0  0  0  0  0  0  0  0  0
   -1.9683   -0.9948    0.9591 H   0  0  0  0  0  0  0  0  0  0  0  0
   -0.3994   -1.0697    3.5892 H   0  0  0  0  0  0  0  0  0  0  0  0
   -2.2261   -0.9872    3.3508 H   0  0  0  0  0  0  0  0  0  0  0  0
  1  2  1  0
  1  5  1  0
  2  3  1  0
  2  6  1  0
  2 19  1  0
  3  4  2  3
  3  7  1  0
  4  8  1  0
  4  9  1  0
 10 11  2  3
 10 16  1  0
 10 17  1  0
 11 12  1  0
 11 18  1  0
 12 13  1  0
 12 14  1  0
 13 20  1  0
 13 21  1  0
 13 22  1  0
 14 15  2  3
 14 23  1  0
 15 24  1  0
 15 25  1  0
M  RAD  1  12   2
M  END
>  <reaction>  (7) 
rxn_1200

>  <mol_properties>  (7) 
{"0": {"label": "*4", "atom_type": "S2s"}, "1": {"label": "*3", "atom_type": "Cs"}, "10": {"label": "*0", "atom_type": "Cd"}, "11": {"label": "*1", "atom_type": "Cs"}, "18": {"label": "*2", "atom_type": "H0"}}

>  <type>  (7) 
unop_3

>  <geom_source>  (7) 
Heuristics

$$$$

     RDKit          3D

 25 23  0  0  0  0  0  0  0  0999 V2000
    1.4020    0.8855   -1.8933 S   0  0  0  0  0  0  0  0  0  0  0  0
   -0.1489    1.0985   -0.9598 C   0  0  0  0  0  0  0  0  0  0  0  0
    0.0456    1.8406    0.3197 C   0  0  0  0  0  0  0  0  0  0  0  0
   -0.5393    2.9944    0.6028 C   0  0  0  0  0  0  0  0  0  0  0  0
    1.6907    2.1889   -2.0010 H   0  0  0  0  0  0  0  0  0  0  0  0
   -0.8955    1.5823   -1.5889 H   0  0  0  0  0  0  0  0  0  0  0  0
    0.7282    1.3873    1.0320 H   0  0  0  0  0  0  0  0  0  0  0  0
   -1.2170    3.4727   -0.0963 H   0  0  0  0  0  0  0  0  0  0  0  0
   -0.3637    3.5008    1.5432 H   0  0  0  0  0  0  0  0  0  0  0  0
   -0.2220   -2.2169   -1.5578 C   0  0  0  0  0  0  0  0  0  0  0  0
   -0.2220   -2.2169   -0.2346 C   0  0  0  0  0  0  0  0  0  0  0  0
   -0.2220   -0.9862    0.6348 C   0  0  0  0  0  3  0  0  0  0  0  0
    1.0164   -0.9564    1.5264 C   0  0  0  0  0  0  0  0  0  0  0  0
   -1.5255   -0.9176    1.3913 C   0  0  0  0  0  0  0  0  0  0  0  0
   -1.6801   -0.9173    2.7063 C   0  0  0  0  0  0  0  0  0  0  0  0
   -0.2227   -3.1396   -2.1245 H   0  0  0  0  0  0  0  0  0  0  0  0
   -0.2202   -1.2911   -2.1235 H   0  0  0  0  0  0  0  0  0  0  0  0
   -0.2267   -3.1628    0.3030 H   0  0  0  0  0  0  0  0  0  0  0  0
   -0.1854    0.0582   -0.1640 H   0  0  0  0  0  0  0  0  0  0  0  0
    1.9191   -0.9647    0.9152 H   0  0  0  0  0  0  0  0  0  0  0  0
    1.0311   -0.0606    2.1495 H   0  0  0  0  0  0  0  0  0  0  0  0
    1.0490   -1.8281    2.1840 H   0  0  0  0  0  0  0  0  0  0  0  0
   -2.4087   -0.8819    0.7588 H   0  0  0  0  0  0  0  0  0  0  0  0
   -0.8398   -0.9567    3.3888 H   0  0  0  0  0  0  0  0  0  0  0  0
   -2.6665   -0.8742    3.1505 H   0  0  0  0  0  0  0  0  0  0  0  0
  1  2  1  0
  1  5  1  0
  2  3  1  0
  2  6  1  0
  2 19  1  0
  3  4  2  3
  3  7  1  0
  4  8  1  0
  4  9  1  0
 10 11  2  3
 10 16  1  0
 10 17  1  0
 11 12  1  0
 11 18  1  0
 12 13  1  0
 12 14  1  0
 13 20  1  0
 13 21  1  0
 13 22  1  0
 14 15  2  3
 14 23  1  0
 15 24  1  0
 15 25  1  0
M  RAD  1  12   2
M  END
>  <reaction>  (8) 
rxn_1200

>  <mol_properties>  (8) 
{"0": {"label": "*4", "atom_type": "S2s"}, "1": {"label": "*3", "atom_type": "Cs"}, "10": {"label": "*0", "atom_type": "Cd"}, "11": {"label": "*1", "atom_type": "Cs"}, "18": {"label": "*2", "atom_type": "H0"}}

>  <type>  (8) 
unop_4

>  <geom_source>  (8) 
Heuristics

$$$$

     RDKit          3D

 25 23  0  0  0  0  0  0  0  0999 V2000
    0.3522    2.4128    0.2811 S   0  0  0  0  0  0  0  0  0  0  0  0
    0.3553    0.9878   -0.8555 C   0  0  0  0  0  0  0  0  0  0  0  0
   -0.8144    0.9865   -1.7816 C   0  0  0  0  0  0  0  0  0  0  0  0
   -0.7144    1.0444   -3.1007 C   0  0  0  0  0  0  0  0  0  0  0  0
    0.3444    3.3588   -0.6669 H   0  0  0  0  0  0  0  0  0  0  0  0
    1.2957    0.9553   -1.4048 H   0  0  0  0  0  0  0  0  0  0  0  0
   -1.7922    0.9529   -1.3108 H   0  0  0  0  0  0  0  0  0  0  0  0
    0.2505    1.0892   -3.5944 H   0  0  0  0  0  0  0  0  0  0  0  0
   -1.5922    1.0469   -3.7340 H   0  0  0  0  0  0  0  0  0  0  0  0
    0.2822   -2.3276   -1.4535 C   0  0  0  0  0  0  0  0  0  0  0  0
    0.2822   -2.3276   -0.1303 C   0  0  0  0  0  0  0  0  0  0  0  0
    0.2822   -1.0969    0.7391 C   0  0  0  0  0  3  0  0  0  0  0  0
    1.5206   -1.0671    1.6307 C   0  0  0  0  0  0  0  0  0  0  0  0
   -1.0213   -1.0283    1.4956 C   0  0  0  0  0  0  0  0  0  0  0  0
   -1.1759   -1.0280    2.8105 C   0  0  0  0  0  0  0  0  0  0  0  0
    0.2815   -3.2503   -2.0203 H   0  0  0  0  0  0  0  0  0  0  0  0
    0.2840   -1.4018   -2.0193 H   0  0  0  0  0  0  0  0  0  0  0  0
    0.2775   -3.2735    0.4073 H   0  0  0  0  0  0  0  0  0  0  0  0
    0.3188   -0.0525   -0.0597 H   0  0  0  0  0  0  0  0  0  0  0  0
    2.4233   -1.0754    1.0194 H   0  0  0  0  0  0  0  0  0  0  0  0
    1.5353   -0.1713    2.2538 H   0  0  0  0  0  0  0  0  0  0  0  0
    1.5532   -1.9388    2.2883 H   0  0  0  0  0  0  0  0  0  0  0  0
   -1.9045   -0.9926    0.8631 H   0  0  0  0  0  0  0  0  0  0  0  0
   -0.3356   -1.0674    3.4931 H   0  0  0  0  0  0  0  0  0  0  0  0
   -2.1623   -0.9849    3.2548 H   0  0  0  0  0  0  0  0  0  0  0  0
  1  2  1  0
  1  5  1  0
  2  3  1  0
  2  6  1  0
  2 19  1  0
  3  4  2  3
  3  7  1  0
  4  8  1  0
  4  9  1  0
 10 11  2  3
 10 16  1  0
 10 17  1  0
 11 12  1  0
 11 18  1  0
 12 13  1  0
 12 14  1  0
 13 20  1  0
 13 21  1  0
 13 22  1  0
 14 15  2  3
 14 23  1  0
 15 24  1  0
 15 25  1  0
M  RAD  1  12   2
M  END
>  <reaction>  (9) 
rxn_1200

>  <mol_properties>  (9) 
{"0": {"label": "*4", "atom_type": "S2s"}, "1": {"label": "*3", "atom_type": "Cs"}, "10": {"label": "*0", "atom_type": "Cd"}, "11": {"label": "*1", "atom_type": "Cs"}, "18": {"label": "*2", "atom_type": "H0"}}

>  <type>  (9) 
unop_5

>  <geom_source>  (9) 
Heuristics

$$$$

     RDKit          3D

 25 23  0  0  0  0  0  0  0  0999 V2000
    1.7472    1.3573   -1.3131 S   0  0  0  0  0  0  0  0  0  0  0  0
   -0.0329    1.0369   -1.0874 C   0  0  0  0  0  0  0  0  0  0  0  0
   -0.5659    1.6122    0.1817 C   0  0  0  0  0  0  0  0  0  0  0  0
   -1.5200    2.5288    0.2358 C   0  0  0  0  0  0  0  0  0  0  0  0
    1.6663    2.6929   -1.2547 H   0  0  0  0  0  0  0  0  0  0  0  0
   -0.5867    1.4025   -1.9515 H   0  0  0  0  0  0  0  0  0  0  0  0
   -0.1088    1.2477    1.0966 H   0  0  0  0  0  0  0  0  0  0  0  0
   -1.9850    2.9165   -0.6643 H   0  0  0  0  0  0  0  0  0  0  0  0
   -1.8719    2.9225    1.1807 H   0  0  0  0  0  0  0  0  0  0  0  0
   -0.1059   -2.2786   -1.6854 C   0  0  0  0  0  0  0  0  0  0  0  0
   -0.1059   -2.2786   -0.3622 C   0  0  0  0  0  0  0  0  0  0  0  0
   -0.1059   -1.0478    0.5072 C   0  0  0  0  0  3  0  0  0  0  0  0
    1.1324   -1.0180    1.3988 C   0  0  0  0  0  0  0  0  0  0  0  0
   -1.4094   -0.9792    1.2637 C   0  0  0  0  0  0  0  0  0  0  0  0
   -1.5641   -0.9790    2.5786 C   0  0  0  0  0  0  0  0  0  0  0  0
   -0.1067   -3.2012   -2.2521 H   0  0  0  0  0  0  0  0  0  0  0  0
   -0.1042   -1.3528   -2.2511 H   0  0  0  0  0  0  0  0  0  0  0  0
   -0.1107   -3.2244    0.1754 H   0  0  0  0  0  0  0  0  0  0  0  0
   -0.0693   -0.0035   -0.2916 H   0  0  0  0  0  0  0  0  0  0  0  0
    2.0352   -1.0264    0.7876 H   0  0  0  0  0  0  0  0  0  0  0  0
    1.1471   -0.1223    2.0219 H   0  0  0  0  0  0  0  0  0  0  0  0
    1.1650   -1.8898    2.0564 H   0  0  0  0  0  0  0  0  0  0  0  0
   -2.2926   -0.9435    0.6312 H   0  0  0  0  0  0  0  0  0  0  0  0
   -0.7237   -1.0183    3.2612 H   0  0  0  0  0  0  0  0  0  0  0  0
   -2.5505   -0.9359    3.0229 H   0  0  0  0  0  0  0  0  0  0  0  0
  1  2  1  0
  1  5  1  0
  2  3  1  0
  2  6  1  0
  2 19  1  0
  3  4  2  3
  3  7  1  0
  4  8  1  0
  4  9  1  0
 10 11  2  3
 10 16  1  0
 10 17  1  0
 11 12  1  0
 11 18  1  0
 12 13  1  0
 12 14  1  0
 13 20  1  0
 13 21  1  0
 13 22  1  0
 14 15  2  3
 14 23  1  0
 15 24  1  0
 15 25  1  0
M  RAD  1  12   2
M  END
>  <reaction>  (10) 
rxn_1200

>  <mol_properties>  (10) 
{"0": {"label": "*4", "atom_type": "S2s"}, "1": {"label": "*3", "atom_type": "Cs"}, "10": {"label": "*0", "atom_type": "Cd"}, "11": {"label": "*1", "atom_type": "Cs"}, "18": {"label": "*2", "atom_type": "H0"}}

>  <type>  (10) 
unop_6

>  <geom_source>  (10) 
Heuristics

$$$$

     RDKit          3D

 25 23  0  0  0  0  0  0  0  0999 V2000
    1.6802    1.8579   -0.6515 S   0  0  0  0  0  0  0  0  0  0  0  0
    0.1446    0.9961   -1.1223 C   0  0  0  0  0  0  0  0  0  0  0  0
   -1.0039    1.3375   -0.2335 C   0  0  0  0  0  0  0  0  0  0  0  0
   -2.1203    1.9122   -0.6540 C   0  0  0  0  0  0  0  0  0  0  0  0
    1.1929    3.1006   -0.7620 H   0  0  0  0  0  0  0  0  0  0  0  0
   -0.0884    1.2003   -2.1669 H   0  0  0  0  0  0  0  0  0  0  0  0
   -0.8756    1.1028    0.8188 H   0  0  0  0  0  0  0  0  0  0  0  0
   -2.2684    2.1660   -1.6983 H   0  0  0  0  0  0  0  0  0  0  0  0
   -2.9264    2.1474    0.0290 H   0  0  0  0  0  0  0  0  0  0  0  0
    0.0716   -2.3193   -1.7204 C   0  0  0  0  0  0  0  0  0  0  0  0
    0.0716   -2.3193   -0.3972 C   0  0  0  0  0  0  0  0  0  0  0  0
    0.0716   -1.0885    0.4722 C   0  0  0  0  0  3  0  0  0  0  0  0
    1.3099   -1.0588    1.3638 C   0  0  0  0  0  0  0  0  0  0  0  0
   -1.2320   -1.0200    1.2287 C   0  0  0  0  0  0  0  0  0  0  0  0
   -1.3866   -1.0197    2.5437 C   0  0  0  0  0  0  0  0  0  0  0  0
    0.0708   -3.2419   -2.2871 H   0  0  0  0  0  0  0  0  0  0  0  0
    0.0733   -1.3935   -2.2861 H   0  0  0  0  0  0  0  0  0  0  0  0
    0.0668   -3.2651    0.1405 H   0  0  0  0  0  0  0  0  0  0  0  0
    0.1082   -0.0442   -0.3266 H   0  0  0  0  0  0  0  0  0  0  0  0
    2.2127   -1.0671    0.7526 H   0  0  0  0  0  0  0  0  0  0  0  0
    1.3246   -0.1630    1.9869 H   0  0  0  0  0  0  0  0  0  0  0  0
    1.3425   -1.9305    2.0215 H   0  0  0  0  0  0  0  0  0  0  0  0
   -2.1151   -0.9842    0.5962 H   0  0  0  0  0  0  0  0  0  0  0  0
   -0.5462   -1.0591    3.2262 H   0  0  0  0  0  0  0  0  0  0  0  0
   -2.3730   -0.9766    2.9879 H   0  0  0  0  0  0  0  0  0  0  0  0
  1  2  1  0
  1  5  1  0
  2  3  1  0
  2  6  1  0
  2 19  1  0
  3  4  2  3
  3  7  1  0
  4  8  1  0
  4  9  1  0
 10 11  2  3
 10 16  1  0
 10 17  1  0
 11 12  1  0
 11 18  1  0
 12 13  1  0
 12 14  1  0
 13 20  1  0
 13 21  1  0
 13 22  1  0
 14 15  2  3
 14 23  1  0
 15 24  1  0
 15 25  1  0
M  RAD  1  12   2
M  END
>  <reaction>  (11) 
rxn_1200

>  <mol_properties>  (11) 
{"0": {"label": "*4", "atom_type": "S2s"}, "1": {"label": "*3", "atom_type": "Cs"}, "10": {"label": "*0", "atom_type": "Cd"}, "11": {"label": "*1", "atom_type": "Cs"}, "18": {"label": "*2", "atom_type": "H0"}}

>  <type>  (11) 
unop_7

>  <geom_source>  (11) 
Heuristics

$$$$

     RDKit          3D

 25 23  0  0  0  0  0  0  0  0999 V2000
   -1.4730    1.4118   -0.9910 S   0  0  0  0  0  0  0  0  0  0  0  0
    0.2826    1.0320   -0.6811 C   0  0  0  0  0  0  0  0  0  0  0  0
    1.1859    1.5808   -1.7339 C   0  0  0  0  0  0  0  0  0  0  0  0
    2.1432    2.4653   -1.5007 C   0  0  0  0  0  0  0  0  0  0  0  0
   -1.3340    2.7437   -1.0188 H   0  0  0  0  0  0  0  0  0  0  0  0
    0.5679    1.3853    0.3093 H   0  0  0  0  0  0  0  0  0  0  0  0
    1.0079    1.2250   -2.7442 H   0  0  0  0  0  0  0  0  0  0  0  0
    2.3339    2.8439   -0.5021 H   0  0  0  0  0  0  0  0  0  0  0  0
    2.7717    2.8408   -2.2980 H   0  0  0  0  0  0  0  0  0  0  0  0
    0.2095   -2.2835   -1.2791 C   0  0  0  0  0  0  0  0  0  0  0  0
    0.2095   -2.2835    0.0441 C   0  0  0  0  0  0  0  0  0  0  0  0
    0.2095   -1.0527    0.9135 C   0  0  0  0  0  3  0  0  0  0  0  0
    1.4479   -1.0229    1.8051 C   0  0  0  0  0  0  0  0  0  0  0  0
   -1.0940   -0.9841    1.6700 C   0  0  0  0  0  0  0  0  0  0  0  0
   -1.2486   -0.9839    2.9850 C   0  0  0  0  0  0  0  0  0  0  0  0
    0.2088   -3.2061   -1.8458 H   0  0  0  0  0  0  0  0  0  0  0  0
    0.2113   -1.3577   -1.8448 H   0  0  0  0  0  0  0  0  0  0  0  0
    0.2048   -3.2293    0.5817 H   0  0  0  0  0  0  0  0  0  0  0  0
    0.2461   -0.0084    0.1147 H   0  0  0  0  0  0  0  0  0  0  0  0
    2.3507   -1.0313    1.1939 H   0  0  0  0  0  0  0  0  0  0  0  0
    1.4626   -0.1272    2.4282 H   0  0  0  0  0  0  0  0  0  0  0  0
    1.4805   -1.8947    2.4627 H   0  0  0  0  0  0  0  0  0  0  0  0
   -1.9771   -0.9484    1.0375 H   0  0  0  0  0  0  0  0  0  0  0  0
   -0.4082   -1.0232    3.6675 H   0  0  0  0  0  0  0  0  0  0  0  0
   -2.2350   -0.9408    3.4292 H   0  0  0  0  0  0  0  0  0  0  0  0
  1  2  1  0
  1  5  1  0
  2  3  1  0
  2  6  1  0
  2 19  1  0
  3  4  2  3
  3  7  1  0
  4  8  1  0
  4  9  1  0
 10 11  2  3
 10 16  1  0
 10 17  1  0
 11 12  1  0
 11 18  1  0
 12 13  1  0
 12 14  1  0
 13 20  1  0
 13 21  1  0
 13 22  1  0
 14 15  2  3
 14 23  1  0
 15 24  1  0
 15 25  1  0
M  RAD  1  12   2
M  END
>  <reaction>  (12) 
rxn_1200

>  <mol_properties>  (12) 
{"0": {"label": "*4", "atom_type": "S2s"}, "1": {"label": "*3", "atom_type": "Cs"}, "10": {"label": "*0", "atom_type": "Cd"}, "11": {"label": "*1", "atom_type": "Cs"}, "18": {"label": "*2", "atom_type": "H0"}}

>  <type>  (12) 
unop_8

>  <geom_source>  (12) 
Heuristics

$$$$

     RDKit          3D

 25 23  0  0  0  0  0  0  0  0999 V2000
    0.7499    0.5600   -2.2454 S   0  0  0  0  0  0  0  0  0  0  0  0
   -0.1596    1.1555   -0.7823 C   0  0  0  0  0  0  0  0  0  0  0  0
    0.6885    1.9784    0.1283 C   0  0  0  0  0  0  0  0  0  0  0  0
    0.4412    3.2443    0.4277 C   0  0  0  0  0  0  0  0  0  0  0  0
    1.1090    1.7680   -2.6988 H   0  0  0  0  0  0  0  0  0  0  0  0
   -1.0486    1.7014   -1.0967 H   0  0  0  0  0  0  0  0  0  0  0  0
    1.5632    1.4830    0.5385 H   0  0  0  0  0  0  0  0  0  0  0  0
   -0.4202    3.7646    0.0225 H   0  0  0  0  0  0  0  0  0  0  0  0
    1.0886    3.8050    1.0897 H   0  0  0  0  0  0  0  0  0  0  0  0
   -0.2326   -2.1599   -1.3804 C   0  0  0  0  0  0  0  0  0  0  0  0
   -0.2326   -2.1599   -0.0571 C   0  0  0  0  0  0  0  0  0  0  0  0
   -0.2326   -0.9292    0.8123 C   0  0  0  0  0  3  0  0  0  0  0  0
    1.0057   -0.8994    1.7039 C   0  0  0  0  0  0  0  0  0  0  0  0
   -1.5362   -0.8606    1.5688 C   0  0  0  0  0  0  0  0  0  0  0  0
   -1.6908   -0.8603    2.8837 C   0  0  0  0  0  0  0  0  0  0  0  0
   -0.2334   -3.0826   -1.9471 H   0  0  0  0  0  0  0  0  0  0  0  0
   -0.2309   -1.2342   -1.9461 H   0  0  0  0  0  0  0  0  0  0  0  0
   -0.2374   -3.1058    0.4805 H   0  0  0  0  0  0  0  0  0  0  0  0
   -0.1960    0.1152    0.0135 H   0  0  0  0  0  0  0  0  0  0  0  0
    1.9085   -0.9077    1.0926 H   0  0  0  0  0  0  0  0  0  0  0  0
    1.0204   -0.0036    2.3270 H   0  0  0  0  0  0  0  0  0  0  0  0
    1.0383   -1.7711    2.3615 H   0  0  0  0  0  0  0  0  0  0  0  0
   -2.4193   -0.8249    0.9362 H   0  0  0  0  0  0  0  0  0  0  0  0
   -0.8504   -0.8997    3.5663 H   0  0  0  0  0  0  0  0  0  0  0  0
   -2.6772   -0.8172    3.3279 H   0  0  0  0  0  0  0  0  0  0  0  0
  1  2  1  0
  1  5  1  0
  2  3  1  0
  2  6  1  0
  2 19  1  0
  3  4  2  3
  3  7  1  0
  4  8  1  0
  4  9  1  0
 10 11  2  3
 10 16  1  0
 10 17  1  0
 11 12  1  0
 11 18  1  0
 12 13  1  0
 12 14  1  0
 13 20  1  0
 13 21  1  0
 13 22  1  0
 14 15  2  3
 14 23  1  0
 15 24  1  0
 15 25  1  0
M  RAD  1  12   2
M  END
>  <reaction>  (13) 
rxn_1200

>  <mol_properties>  (13) 
{"0": {"label": "*4", "atom_type": "S2s"}, "1": {"label": "*3", "atom_type": "Cs"}, "10": {"label": "*0", "atom_type": "Cd"}, "11": {"label": "*1", "atom_type": "Cs"}, "18": {"label": "*2", "atom_type": "H0"}}

>  <type>  (13) 
unop_9

>  <geom_source>  (13) 
Heuristics

$$$$

     RDKit          3D

 25 23  0  0  0  0  0  0  0  0999 V2000
   -1.2706    0.9308   -1.6163 S   0  0  0  0  0  0  0  0  0  0  0  0
    0.2404    1.0923   -0.6098 C   0  0  0  0  0  0  0  0  0  0  0  0
    1.3327    1.8173   -1.3218 C   0  0  0  0  0  0  0  0  0  0  0  0
    1.8669    2.9524   -0.8980 C   0  0  0  0  0  0  0  0  0  0  0  0
   -1.4586    2.2422   -1.8134 H   0  0  0  0  0  0  0  0  0  0  0  0
    0.0023    1.5691    0.3405 H   0  0  0  0  0  0  0  0  0  0  0  0
    1.6741    1.3681   -2.2494 H   0  0  0  0  0  0  0  0  0  0  0  0
    1.5359    3.4264    0.0199 H   0  0  0  0  0  0  0  0  0  0  0  0
    2.6548    3.4470   -1.4513 H   0  0  0  0  0  0  0  0  0  0  0  0
    0.1674   -2.2231   -1.2079 C   0  0  0  0  0  0  0  0  0  0  0  0
    0.1674   -2.2231    0.1154 C   0  0  0  0  0  0  0  0  0  0  0  0
    0.1674   -0.9924    0.9848 C   0  0  0  0  0  3  0  0  0  0  0  0
    1.4057   -0.9626    1.8764 C   0  0  0  0  0  0  0  0  0  0  0  0
   -1.1362   -0.9238    1.7413 C   0  0  0  0  0  0  0  0  0  0  0  0
   -1.2908   -0.9236    3.0562 C   0  0  0  0  0  0  0  0  0  0  0  0
    0.1666   -3.1458   -1.7746 H   0  0  0  0  0  0  0  0  0  0  0  0
    0.1691   -1.2974   -1.7736 H   0  0  0  0  0  0  0  0  0  0  0  0
    0.1626   -3.1690    0.6530 H   0  0  0  0  0  0  0  0  0  0  0  0
    0.2040    0.0520    0.1860 H   0  0  0  0  0  0  0  0  0  0  0  0
    2.3085   -0.9710    1.2651 H   0  0  0  0  0  0  0  0  0  0  0  0
    1.4204   -0.0668    2.4995 H   0  0  0  0  0  0  0  0  0  0  0  0
    1.4383   -1.8343    2.5340 H   0  0  0  0  0  0  0  0  0  0  0  0
   -2.0193   -0.8881    1.1088 H   0  0  0  0  0  0  0  0  0  0  0  0
   -0.4504   -0.9629    3.7388 H   0  0  0  0  0  0  0  0  0  0  0  0
   -2.2772   -0.8804    3.5005 H   0  0  0  0  0  0  0  0  0  0  0  0
  1  2  1  0
  1  5  1  0
  2  3  1  0
  2  6  1  0
  2 19  1  0
  3  4  2  3
  3  7  1  0
  4  8  1  0
  4  9  1  0
 10 11  2  3
 10 16  1  0
 10 17  1  0
 11 12  1  0
 11 18  1  0
 12 13  1  0
 12 14  1  0
 13 20  1  0
 13 21  1  0
 13 22  1  0
 14 15  2  3
 14 23  1  0
 15 24  1  0
 15 25  1  0
M  RAD  1  12   2
M  END
>  <reaction>  (14) 
rxn_1200

>  <mol_properties>  (14) 
{"0": {"label": "*4", "atom_type": "S2s"}, "1": {"label": "*3", "atom_type": "Cs"}, "10": {"label": "*0", "atom_type": "Cd"}, "11": {"label": "*1", "atom_type": "Cs"}, "18": {"label": "*2", "atom_type": "H0"}}

>  <type>  (14) 
unop_10

>  <geom_source>  (14) 
Heuristics

$$$$

     RDKit          3D

 25 23  0  0  0  0  0  0  0  0999 V2000
    1.1957    2.2510   -0.0642 S   0  0  0  0  0  0  0  0  0  0  0  0
    0.3128    0.9849   -1.0337 C   0  0  0  0  0  0  0  0  0  0  0  0
   -1.1700    1.0956   -0.9120 C   0  0  0  0  0  0  0  0  0  0  0  0
   -1.9816    1.3242   -1.9329 C   0  0  0  0  0  0  0  0  0  0  0  0
    0.6292    3.3115   -0.6541 H   0  0  0  0  0  0  0  0  0  0  0  0
    0.6293    1.0297   -2.0753 H   0  0  0  0  0  0  0  0  0  0  0  0
   -1.5724    0.9952    0.0914 H   0  0  0  0  0  0  0  0  0  0  0  0
   -1.6032    1.4386   -2.9431 H   0  0  0  0  0  0  0  0  0  0  0  0
   -3.0525    1.4028   -1.7964 H   0  0  0  0  0  0  0  0  0  0  0  0
    0.2398   -2.3306   -1.6318 C   0  0  0  0  0  0  0  0  0  0  0  0
    0.2398   -2.3306   -0.3085 C   0  0  0  0  0  0  0  0  0  0  0  0
    0.2398   -1.0998    0.5609 C   0  0  0  0  0  3  0  0  0  0  0  0
    1.4781   -1.0700    1.4525 C   0  0  0  0  0  0  0  0  0  0  0  0
   -1.0638   -1.0312    1.3174 C   0  0  0  0  0  0  0  0  0  0  0  0
   -1.2184   -1.0310    2.6323 C   0  0  0  0  0  0  0  0  0  0  0  0
    0.2390   -3.2532   -2.1985 H   0  0  0  0  0  0  0  0  0  0  0  0
    0.2415   -1.4048   -2.1975 H   0  0  0  0  0  0  0  0  0  0  0  0
    0.2350   -3.2764    0.2291 H   0  0  0  0  0  0  0  0  0  0  0  0
    0.2764   -0.0554   -0.2379 H   0  0  0  0  0  0  0  0  0  0  0  0
    2.3809   -1.0784    0.8412 H   0  0  0  0  0  0  0  0  0  0  0  0
    1.4928   -0.1742    2.0756 H   0  0  0  0  0  0  0  0  0  0  0  0
    1.5107   -1.9418    2.1101 H   0  0  0  0  0  0  0  0  0  0  0  0
   -1.9469   -0.9955    0.6848 H   0  0  0  0  0  0  0  0  0  0  0  0
   -0.3780   -1.0703    3.3149 H   0  0  0  0  0  0  0  0  0  0  0  0
   -2.2048   -0.9879    3.0765 H   0  0  0  0  0  0  0  0  0  0  0  0
  1  2  1  0
  1  5  1  0
  2  3  1  0
  2  6  1  0
  2 19  1  0
  3  4  2  3
  3  7  1  0
  4  8  1  0
  4  9  1  0
 10 11  2  3
 10 16  1  0
 10 17  1  0
 11 12  1  0
 11 18  1  0
 12 13  1  0
 12 14  1  0
 13 20  1  0
 13 21  1  0
 13 22  1  0
 14 15  2  3
 14 23  1  0
 15 24  1  0
 15 25  1  0
M  RAD  1  12   2
M  END
>  <reaction>  (15) 
rxn_1200

>  <mol_properties>  (15) 
{"0": {"label": "*4", "atom_type": "S2s"}, "1": {"label": "*3", "atom_type": "Cs"}, "10": {"label": "*0", "atom_type": "Cd"}, "11": {"label": "*1", "atom_type": "Cs"}, "18": {"label": "*2", "atom_type": "H0"}}

>  <type>  (15) 
unop_11

>  <geom_source>  (15) 
Heuristics

$$$$

     RDKit          3D

 25 23  0  0  0  0  0  0  0  0999 V2000
   -0.0228    0.4529   -2.2982 S   0  0  0  0  0  0  0  0  0  0  0  0
   -0.0504    1.1776   -0.6260 C   0  0  0  0  0  0  0  0  0  0  0  0
    1.1486    2.0187   -0.3422 C   0  0  0  0  0  0  0  0  0  0  0  0
    1.0960    3.3103   -0.0554 C   0  0  0  0  0  0  0  0  0  0  0  0
    0.0588    1.6136   -2.9617 H   0  0  0  0  0  0  0  0  0  0  0  0
   -0.9722    1.7404   -0.4823 H   0  0  0  0  0  0  0  0  0  0  0  0
    2.1076    1.5127   -0.4003 H   0  0  0  0  0  0  0  0  0  0  0  0
    0.1513    3.8408   -0.0017 H   0  0  0  0  0  0  0  0  0  0  0  0
    1.9939    3.8829    0.1380 H   0  0  0  0  0  0  0  0  0  0  0  0
   -0.1235   -2.1379   -1.2240 C   0  0  0  0  0  0  0  0  0  0  0  0
   -0.1235   -2.1379    0.0992 C   0  0  0  0  0  0  0  0  0  0  0  0
   -0.1235   -0.9071    0.9686 C   0  0  0  0  0  3  0  0  0  0  0  0
    1.1149   -0.8773    1.8602 C   0  0  0  0  0  0  0  0  0  0  0  0
   -1.4270   -0.8385    1.7251 C   0  0  0  0  0  0  0  0  0  0  0  0
   -1.5816   -0.8383    3.0401 C   0  0  0  0  0  0  0  0  0  0  0  0
   -0.1242   -3.0605   -1.7907 H   0  0  0  0  0  0  0  0  0  0  0  0
   -0.1217   -1.2121   -1.7897 H   0  0  0  0  0  0  0  0  0  0  0  0
   -0.1282   -3.0837    0.6368 H   0  0  0  0  0  0  0  0  0  0  0  0
   -0.0869    0.1373    0.1698 H   0  0  0  0  0  0  0  0  0  0  0  0
    2.0177   -0.8857    1.2490 H   0  0  0  0  0  0  0  0  0  0  0  0
    1.1296    0.0185    2.4833 H   0  0  0  0  0  0  0  0  0  0  0  0
    1.1475   -1.7491    2.5178 H   0  0  0  0  0  0  0  0  0  0  0  0
   -2.3101   -0.8028    1.0926 H   0  0  0  0  0  0  0  0  0  0  0  0
   -0.7412   -0.8776    3.7226 H   0  0  0  0  0  0  0  0  0  0  0  0
   -2.5680   -0.7952    3.4843 H   0  0  0  0  0  0  0  0  0  0  0  0
  1  2  1  0
  1  5  1  0
  2  3  1  0
  2  6  1  0
  2 19  1  0
  3  4  2  3
  3  7  1  0
  4  8  1  0
  4  9  1  0
 10 11  2  3
 10 16  1  0
 10 17  1  0
 11 12  1  0
 11 18  1  0
 12 13  1  0
 12 14  1  0
 13 20  1  0
 13 21  1  0
 13 22  1  0
 14 15  2  3
 14 23  1  0
 15 24  1  0
 15 25  1  0
M  RAD  1  12   2
M  END
>  <reaction>  (16) 
rxn_1200

>  <mol_properties>  (16) 
{"0": {"label": "*4", "atom_type": "S2s"}, "1": {"label": "*3", "atom_type": "Cs"}, "10": {"label": "*0", "atom_type": "Cd"}, "11": {"label": "*1", "atom_type": "Cs"}, "18": {"label": "*2", "atom_type": "H0"}}

>  <type>  (16) 
unop_12

>  <geom_source>  (16) 
Heuristics

$$$$

     RDKit          3D

 25 23  0  0  0  0  0  0  0  0999 V2000
    1.6349   -1.8020   -1.4478 S   0  0  0  0  0  0  0  0  0  0  0  0
    0.9716   -0.1499   -1.0686 C   0  0  0  0  0  3  0  0  0  0  0  0
   -0.3774    0.0632    2.0840 C   0  0  0  0  0  0  0  0  0  0  0  0
   -0.9537   -0.0658    0.6766 C   0  0  0  0  0  0  0  0  0  0  0  0
    2.0851    0.8374   -0.8852 C   0  0  0  0  0  0  0  0  0  0  0  0
   -1.8445    1.0951    0.3502 C   0  0  0  0  0  0  0  0  0  0  0  0
   -1.7017   -1.3552    0.5162 C   0  0  0  0  0  0  0  0  0  0  0  0
    2.9013    0.7783    0.1700 C   0  0  0  0  0  0  0  0  0  0  0  0
   -1.5702    1.8885   -0.6857 C   0  0  0  0  0  0  0  0  0  0  0  0
   -1.3293   -2.2436   -0.4057 C   0  0  0  0  0  0  0  0  0  0  0  0
    0.3202    0.1762   -1.9065 H   0  0  0  0  0  0  0  0  0  0  0  0
    0.2220   -0.2116    0.0636 H   0  0  0  0  0  0  0  0  0  0  0  0
   -1.1889    0.0674    2.8438 H   0  0  0  0  0  0  0  0  0  0  0  0
    0.2033    1.0061    2.1679 H   0  0  0  0  0  0  0  0  0  0  0  0
    0.3078   -0.7864    2.2893 H   0  0  0  0  0  0  0  0  0  0  0  0
    2.2104    1.6356   -1.6108 H   0  0  0  0  0  0  0  0  0  0  0  0
   -2.7239    1.2897    0.9581 H   0  0  0  0  0  0  0  0  0  0  0  0
   -2.5574   -1.5667    1.1517 H   0  0  0  0  0  0  0  0  0  0  0  0
    2.7887    0.0014    0.9203 H   0  0  0  0  0  0  0  0  0  0  0  0
    3.6907    1.5135    0.2878 H   0  0  0  0  0  0  0  0  0  0  0  0
   -0.6984    1.7108   -1.3085 H   0  0  0  0  0  0  0  0  0  0  0  0
   -2.2216    2.7251   -0.9167 H   0  0  0  0  0  0  0  0  0  0  0  0
   -0.4791   -2.0515   -1.0536 H   0  0  0  0  0  0  0  0  0  0  0  0
   -1.8778   -3.1732   -0.5170 H   0  0  0  0  0  0  0  0  0  0  0  0
    2.1880   -1.3824   -2.6732 H   0  0  0  0  0  0  0  0  0  0  0  0
  1  2  1  0
  1 25  1  0
  2  5  1  0
  2 11  1  0
  3  4  1  0
  3 13  1  0
  3 14  1  0
  3 15  1  0
  4  6  1  0
  4  7  1  0
  4 12  1  0
  5  8  2  3
  5 16  1  0
  6  9  2  3
  6 17  1  0
  7 10  2  3
  7 18  1  0
  8 19  1  0
  8 20  1  0
  9 21  1  0
  9 22  1  0
 10 23  1  0
 10 24  1  0
M  RAD  1   2   2
M  END
>  <reaction>  (17) 
rxn_1200

>  <mol_properties>  (17) 
{"0": {"label": "*4", "atom_type": "S2s"}, "1": {"label": "*3", "atom_type": "Cs"}, "10": {"label": "*0", "atom_type": "Cd"}, "11": {"label": "*1", "atom_type": "Cs"}, "18": {"label": "*2", "atom_type": "H0"}}

>  <type>  (17) 
unop_13

>  <geom_source>  (17) 
AutoTST

$$$$
