
     RDKit          3D

  4  3  0  0  0  0  0  0  0  0999 V2000
    0.5949   -0.3853    0.2659 O   0  0  0  0  0  0  0  0  0  0  0  0
   -0.5918    0.4028    0.2462 O   0  0  0  0  0  0  0  0  0  0  0  0
    1.1865    0.1539   -0.2689 H   0  0  0  0  0  0  0  0  0  0  0  0
   -1.1896   -0.1714   -0.2432 H   0  0  0  0  0  0  0  0  0  0  0  0
  1  2  1  0
  1  3  1  0
  2  4  1  0
M  END
>  <reaction>  (1) 
rxn_399

>  <mol_properties>  (1) 
{"1": {"label": "donator", "atom_type": "O2s"}, "3": {"label": "d_hydrogen", "atom_type": "H0"}}

>  <type>  (1) 
r1h

$$$$

     RDKit          3D

 14 13  0  0  0  0  0  0  0  0999 V2000
    2.0213   -0.4754    0.1269 C   0  0  0  0  0  3  0  0  0  0  0  0
    0.7442   -0.1818   -0.5688 C   0  0  0  0  0  0  0  0  0  0  0  0
    0.8895   -0.1481   -2.0943 C   0  0  0  0  0  0  0  0  0  0  0  0
   -0.4084    0.2063   -2.7881 C   0  0  0  0  0  0  0  0  0  0  0  0
    1.2989   -1.4091   -2.5921 O   0  0  0  0  0  0  0  0  0  0  0  0
    2.9199    0.0702   -0.1377 H   0  0  0  0  0  0  0  0  0  0  0  0
    2.0644   -1.1304    0.9857 H   0  0  0  0  0  0  0  0  0  0  0  0
   -0.0190   -0.9186   -0.3045 H   0  0  0  0  0  0  0  0  0  0  0  0
    0.3596    0.7988   -0.2492 H   0  0  0  0  0  0  0  0  0  0  0  0
    1.6473    0.6092   -2.3461 H   0  0  0  0  0  0  0  0  0  0  0  0
   -0.7474    1.1989   -2.4875 H   0  0  0  0  0  0  0  0  0  0  0  0
   -1.1822   -0.5209   -2.5347 H   0  0  0  0  0  0  0  0  0  0  0  0
   -0.2721    0.1980   -3.8695 H   0  0  0  0  0  0  0  0  0  0  0  0
    2.0431   -1.7082   -2.0635 H   0  0  0  0  0  0  0  0  0  0  0  0
  1  2  1  0
  1  6  1  0
  1  7  1  0
  2  3  1  0
  2  8  1  0
  2  9  1  0
  3  4  1  0
  3  5  1  0
  3 10  1  0
  4 11  1  0
  4 12  1  0
  4 13  1  0
  5 14  1  0
M  RAD  1   1   2
M  END
>  <reaction>  (2) 
rxn_399

>  <mol_properties>  (2) 
{"0": {"label": "acceptor", "atom_type": "Cs"}}

>  <type>  (2) 
r2

$$$$

     RDKit          3D

 15 14  0  0  0  0  0  0  0  0999 V2000
    1.8142    0.7938   -0.4532 C   0  0  0  0  0  0  0  0  0  0  0  0
    0.8343   -0.0482    0.3508 C   0  0  0  0  0  0  0  0  0  0  0  0
    1.2689   -1.5028    0.5052 C   0  0  0  0  0  0  0  0  0  0  0  0
    0.3206   -2.2929    1.3933 C   0  0  0  0  0  0  0  0  0  0  0  0
    1.4305   -2.1354   -0.7561 O   0  0  0  0  0  0  0  0  0  0  0  0
    1.9652    0.3705   -1.4464 H   0  0  0  0  0  0  0  0  0  0  0  0
    1.4536    1.8171   -0.5671 H   0  0  0  0  0  0  0  0  0  0  0  0
    2.7876    0.8346    0.0411 H   0  0  0  0  0  0  0  0  0  0  0  0
    0.7005    0.3820    1.3477 H   0  0  0  0  0  0  0  0  0  0  0  0
   -0.1543   -0.0316   -0.1246 H   0  0  0  0  0  0  0  0  0  0  0  0
    2.2701   -1.5232    0.9456 H   0  0  0  0  0  0  0  0  0  0  0  0
   -0.6918   -2.2835    0.9773 H   0  0  0  0  0  0  0  0  0  0  0  0
    0.2728   -1.8641    2.3960 H   0  0  0  0  0  0  0  0  0  0  0  0
    0.6493   -3.3293    1.4729 H   0  0  0  0  0  0  0  0  0  0  0  0
    0.5703   -2.1794   -1.1802 H   0  0  0  0  0  0  0  0  0  0  0  0
  1  2  1  0
  1  6  1  0
  1  7  1  0
  1  8  1  0
  2  3  1  0
  2  9  1  0
  2 10  1  0
  3  4  1  0
  3  5  1  0
  3 11  1  0
  4 12  1  0
  4 13  1  0
  4 14  1  0
  5 15  1  0
M  END
>  <reaction>  (3) 
rxn_399

>  <mol_properties>  (3) 
{"0": {"label": "a_hydrogen", "atom_type": "H0"}, "1": {"label": "acceptor", "atom_type": "Cs"}}

>  <type>  (3) 
r2h

$$$$

     RDKit          3D

 18 16  0  0  0  0  0  0  0  0999 V2000
    1.0573   -2.4225   -1.2645 O   0  0  0  0  0  0  0  0  0  0  0  0
   -0.0197   -1.9921   -2.0308 O   0  0  0  0  0  0  0  0  0  0  0  0
    0.6399   -2.9888   -0.6052 H   0  0  0  0  0  0  0  0  0  0  0  0
   -0.2808   -0.9405   -1.6123 H   0  0  0  0  0  0  0  0  0  0  0  0
   -0.5349    0.2620   -1.0262 C   0  0  0  0  0  3  0  0  0  0  0  0
   -0.0895    0.1174    0.3956 C   0  0  0  0  0  0  0  0  0  0  0  0
   -0.0497    1.4554    1.1532 C   0  0  0  0  0  0  0  0  0  0  0  0
    0.3134    1.2549    2.6159 C   0  0  0  0  0  0  0  0  0  0  0  0
    0.8229    2.3767    0.5262 O   0  0  0  0  0  0  0  0  0  0  0  0
    0.0628    0.9339   -1.6363 H   0  0  0  0  0  0  0  0  0  0  0  0
   -1.6056    0.3744   -1.1852 H   0  0  0  0  0  0  0  0  0  0  0  0
   -0.7510   -0.5669    0.9337 H   0  0  0  0  0  0  0  0  0  0  0  0
    0.9164   -0.3184    0.4276 H   0  0  0  0  0  0  0  0  0  0  0  0
   -1.0349    1.9242    1.0886 H   0  0  0  0  0  0  0  0  0  0  0  0
    1.2928    0.7754    2.7060 H   0  0  0  0  0  0  0  0  0  0  0  0
   -0.4180    0.6205    3.1195 H   0  0  0  0  0  0  0  0  0  0  0  0
    0.3521    2.2161    3.1287 H   0  0  0  0  0  0  0  0  0  0  0  0
    1.7205    2.0443    0.6021 H   0  0  0  0  0  0  0  0  0  0  0  0
  1  2  1  0
  1  3  1  0
  2  4  1  0
  5  6  1  0
  5 10  1  0
  5 11  1  0
  6  7  1  0
  6 12  1  0
  6 13  1  0
  7  8  1  0
  7  9  1  0
  7 14  1  0
  8 15  1  0
  8 16  1  0
  8 17  1  0
  9 18  1  0
M  RAD  1   5   2
M  END
>  <reaction>  (4) 
rxn_399

>  <mol_properties>  (4) 
{"0": {"label": "*0", "atom_type": "O2s"}, "1": {"label": "*1", "atom_type": "O2s"}, "3": {"label": "*2", "atom_type": "H0"}, "4": {"label": "*3", "atom_type": "Cs"}, "5": {"label": "*4", "atom_type": "Cs"}}

>  <type>  (4) 
ts

$$$$

     RDKit          3D

 18 16  0  0  0  0  0  0  0  0999 V2000
    0.5762   -2.2844   -2.6879 O   0  0  0  0  0  0  0  0  0  0  0  0
    0.5762   -2.2844   -1.2633 O   0  0  0  0  0  0  0  0  0  0  0  0
    1.4369   -2.6727   -2.8750 H   0  0  0  0  0  0  0  0  0  0  0  0
    0.5762   -1.1513   -1.0388 H   0  0  0  0  0  0  0  0  0  0  0  0
    0.5762    0.1330   -0.7844 C   0  0  0  0  0  3  0  0  0  0  0  0
   -0.6526    0.5344    0.0184 C   0  0  0  0  0  0  0  0  0  0  0  0
   -0.3502    1.5336    1.1314 C   0  0  0  0  0  0  0  0  0  0  0  0
   -1.6102    1.9885    1.8509 C   0  0  0  0  0  0  0  0  0  0  0  0
    0.6022    1.0182    2.0502 O   0  0  0  0  0  0  0  0  0  0  0  0
    1.3412   -0.2933   -0.1352 H   0  0  0  0  0  0  0  0  0  0  0  0
    1.0126    0.9998   -1.2859 H   0  0  0  0  0  0  0  0  0  0  0  0
   -1.4070    0.9697   -0.6436 H   0  0  0  0  0  0  0  0  0  0  0  0
   -1.1152   -0.3532    0.4674 H   0  0  0  0  0  0  0  0  0  0  0  0
    0.1446    2.4053    0.6931 H   0  0  0  0  0  0  0  0  0  0  0  0
   -2.1286    1.1327    2.2946 H   0  0  0  0  0  0  0  0  0  0  0  0
   -2.3019    2.4760    1.1612 H   0  0  0  0  0  0  0  0  0  0  0  0
   -1.3608    2.6895    2.6476 H   0  0  0  0  0  0  0  0  0  0  0  0
    0.2090    0.2646    2.4964 H   0  0  0  0  0  0  0  0  0  0  0  0
  1  2  1  0
  1  3  1  0
  2  4  1  0
  5  6  1  0
  5 10  1  0
  5 11  1  0
  6  7  1  0
  6 12  1  0
  6 13  1  0
  7  8  1  0
  7  9  1  0
  7 14  1  0
  8 15  1  0
  8 16  1  0
  8 17  1  0
  9 18  1  0
M  RAD  1   5   2
M  END
>  <reaction>  (5) 
rxn_399

>  <mol_properties>  (5) 
{"0": {"label": "*0", "atom_type": "O2s"}, "1": {"label": "*1", "atom_type": "O2s"}, "3": {"label": "*2", "atom_type": "H0"}, "4": {"label": "*3", "atom_type": "Cs"}, "5": {"label": "*4", "atom_type": "Cs"}}

>  <type>  (5) 
unop_1

>  <geom_source>  (5) 
Heuristics

$$$$

     RDKit          3D

 18 16  0  0  0  0  0  0  0  0999 V2000
    0.8058   -2.7759   -1.1116 O   0  0  0  0  0  0  0  0  0  0  0  0
    0.8058   -2.7759    0.3130 O   0  0  0  0  0  0  0  0  0  0  0  0
    1.6665   -3.1642   -1.2987 H   0  0  0  0  0  0  0  0  0  0  0  0
    0.8058   -1.6428    0.5375 H   0  0  0  0  0  0  0  0  0  0  0  0
    0.8058   -0.3586    0.7919 C   0  0  0  0  0  3  0  0  0  0  0  0
    0.0963    0.4195   -0.3066 C   0  0  0  0  0  0  0  0  0  0  0  0
   -0.3596    1.8084    0.1314 C   0  0  0  0  0  0  0  0  0  0  0  0
   -0.9767    2.5963   -1.0135 C   0  0  0  0  0  0  0  0  0  0  0  0
   -1.2464    1.7411    1.2387 O   0  0  0  0  0  0  0  0  0  0  0  0
    0.1651   -0.4648    1.6676 H   0  0  0  0  0  0  0  0  0  0  0  0
    1.7155    0.1573    1.1076 H   0  0  0  0  0  0  0  0  0  0  0  0
    0.7540    0.5273   -1.1741 H   0  0  0  0  0  0  0  0  0  0  0  0
   -0.7816   -0.1380   -0.6557 H   0  0  0  0  0  0  0  0  0  0  0  0
    0.5067    2.3556    0.5146 H   0  0  0  0  0  0  0  0  0  0  0  0
   -1.8442    2.0668   -1.4197 H   0  0  0  0  0  0  0  0  0  0  0  0
   -0.2606    2.7349   -1.8256 H   0  0  0  0  0  0  0  0  0  0  0  0
   -1.3043    3.5766   -0.6669 H   0  0  0  0  0  0  0  0  0  0  0  0
   -2.0483    1.2979    0.9522 H   0  0  0  0  0  0  0  0  0  0  0  0
  1  2  1  0
  1  3  1  0
  2  4  1  0
  5  6  1  0
  5 10  1  0
  5 11  1  0
  6  7  1  0
  6 12  1  0
  6 13  1  0
  7  8  1  0
  7  9  1  0
  7 14  1  0
  8 15  1  0
  8 16  1  0
  8 17  1  0
  9 18  1  0
M  RAD  1   5   2
M  END
>  <reaction>  (6) 
rxn_399

>  <mol_properties>  (6) 
{"0": {"label": "*0", "atom_type": "O2s"}, "1": {"label": "*1", "atom_type": "O2s"}, "3": {"label": "*2", "atom_type": "H0"}, "4": {"label": "*3", "atom_type": "Cs"}, "5": {"label": "*4", "atom_type": "Cs"}}

>  <type>  (6) 
unop_2

>  <geom_source>  (6) 
Heuristics

$$$$

     RDKit          3D

 18 16  0  0  0  0  0  0  0  0999 V2000
    0.0479   -2.3646   -2.7834 O   0  0  0  0  0  0  0  0  0  0  0  0
    0.0479   -2.3646   -1.3587 O   0  0  0  0  0  0  0  0  0  0  0  0
    0.9086   -2.7529   -2.9705 H   0  0  0  0  0  0  0  0  0  0  0  0
    0.0479   -1.2315   -1.1343 H   0  0  0  0  0  0  0  0  0  0  0  0
    0.0479    0.0527   -0.8799 C   0  0  0  0  0  3  0  0  0  0  0  0
   -0.6615    0.3533    0.4323 C   0  0  0  0  0  0  0  0  0  0  0  0
   -0.1092    1.5795    1.1535 C   0  0  0  0  0  0  0  0  0  0  0  0
   -0.9004    1.9102    2.4093 C   0  0  0  0  0  0  0  0  0  0  0  0
    1.2727    1.4335    1.4466 O   0  0  0  0  0  0  0  0  0  0  0  0
    1.1163   -0.0926   -0.7187 H   0  0  0  0  0  0  0  0  0  0  0  0
   -0.0714    0.8794   -1.5840 H   0  0  0  0  0  0  0  0  0  0  0  0
   -1.7299    0.5070    0.2542 H   0  0  0  0  0  0  0  0  0  0  0  0
   -0.5849   -0.5081    1.1074 H   0  0  0  0  0  0  0  0  0  0  0  0
   -0.1498    2.4336    0.4711 H   0  0  0  0  0  0  0  0  0  0  0  0
   -0.8805    1.0680    3.1080 H   0  0  0  0  0  0  0  0  0  0  0  0
   -1.9446    2.1212    2.1713 H   0  0  0  0  0  0  0  0  0  0  0  0
   -0.4742    2.7806    2.9086 H   0  0  0  0  0  0  0  0  0  0  0  0
    1.3702    0.7142    2.0747 H   0  0  0  0  0  0  0  0  0  0  0  0
  1  2  1  0
  1  3  1  0
  2  4  1  0
  5  6  1  0
  5 10  1  0
  5 11  1  0
  6  7  1  0
  6 12  1  0
  6 13  1  0
  7  8  1  0
  7  9  1  0
  7 14  1  0
  8 15  1  0
  8 16  1  0
  8 17  1  0
  9 18  1  0
M  RAD  1   5   2
M  END
>  <reaction>  (7) 
rxn_399

>  <mol_properties>  (7) 
{"0": {"label": "*0", "atom_type": "O2s"}, "1": {"label": "*1", "atom_type": "O2s"}, "3": {"label": "*2", "atom_type": "H0"}, "4": {"label": "*3", "atom_type": "Cs"}, "5": {"label": "*4", "atom_type": "Cs"}}

>  <type>  (7) 
unop_3

>  <geom_source>  (7) 
Heuristics

$$$$

     RDKit          3D

 18 16  0  0  0  0  0  0  0  0999 V2000
   -0.9062   -2.7865   -1.4672 O   0  0  0  0  0  0  0  0  0  0  0  0
   -0.9062   -2.7865   -0.0425 O   0  0  0  0  0  0  0  0  0  0  0  0
   -0.0454   -3.1748   -1.6543 H   0  0  0  0  0  0  0  0  0  0  0  0
   -0.9062   -1.6534    0.1819 H   0  0  0  0  0  0  0  0  0  0  0  0
   -0.9062   -0.3692    0.4363 C   0  0  0  0  0  3  0  0  0  0  0  0
    0.3226    0.3081   -0.1527 C   0  0  0  0  0  0  0  0  0  0  0  0
    0.7824    1.5274    0.6413 C   0  0  0  0  0  0  0  0  0  0  0  0
    2.0661    2.1228    0.0846 C   0  0  0  0  0  0  0  0  0  0  0  0
   -0.2393    2.5102    0.7257 O   0  0  0  0  0  0  0  0  0  0  0  0
   -1.7384    0.3314    0.5075 H   0  0  0  0  0  0  0  0  0  0  0  0
   -0.6996   -0.7413    1.4424 H   0  0  0  0  0  0  0  0  0  0  0  0
    1.1520   -0.4031   -0.2084 H   0  0  0  0  0  0  0  0  0  0  0  0
    0.1204    0.6235   -1.1839 H   0  0  0  0  0  0  0  0  0  0  0  0
    0.9502    1.2252    1.6792 H   0  0  0  0  0  0  0  0  0  0  0  0
    1.9268    2.4288   -0.9570 H   0  0  0  0  0  0  0  0  0  0  0  0
    2.8803    1.3961    0.1123 H   0  0  0  0  0  0  0  0  0  0  0  0
    2.3610    2.9985    0.6631 H   0  0  0  0  0  0  0  0  0  0  0  0
   -0.4079    2.8422   -0.1591 H   0  0  0  0  0  0  0  0  0  0  0  0
  1  2  1  0
  1  3  1  0
  2  4  1  0
  5  6  1  0
  5 10  1  0
  5 11  1  0
  6  7  1  0
  6 12  1  0
  6 13  1  0
  7  8  1  0
  7  9  1  0
  7 14  1  0
  8 15  1  0
  8 16  1  0
  8 17  1  0
  9 18  1  0
M  RAD  1   5   2
M  END
>  <reaction>  (8) 
rxn_399

>  <mol_properties>  (8) 
{"0": {"label": "*0", "atom_type": "O2s"}, "1": {"label": "*1", "atom_type": "O2s"}, "3": {"label": "*2", "atom_type": "H0"}, "4": {"label": "*3", "atom_type": "Cs"}, "5": {"label": "*4", "atom_type": "Cs"}}

>  <type>  (8) 
unop_4

>  <geom_source>  (8) 
Heuristics

$$$$

     RDKit          3D

 18 16  0  0  0  0  0  0  0  0999 V2000
   -0.1938   -2.5613   -2.6363 O   0  0  0  0  0  0  0  0  0  0  0  0
   -0.1938   -2.5613   -1.2116 O   0  0  0  0  0  0  0  0  0  0  0  0
    0.6670   -2.9496   -2.8233 H   0  0  0  0  0  0  0  0  0  0  0  0
   -0.1938   -1.4282   -0.9871 H   0  0  0  0  0  0  0  0  0  0  0  0
   -0.1938   -0.1440   -0.7327 C   0  0  0  0  0  3  0  0  0  0  0  0
   -0.1938    0.1197    0.7659 C   0  0  0  0  0  0  0  0  0  0  0  0
   -0.1508    1.6032    1.1209 C   0  0  0  0  0  0  0  0  0  0  0  0
   -0.2501    1.8367    2.6202 C   0  0  0  0  0  0  0  0  0  0  0  0
    1.0019    2.2349    0.5829 O   0  0  0  0  0  0  0  0  0  0  0  0
    0.6834    0.2995   -1.2045 H   0  0  0  0  0  0  0  0  0  0  0  0
   -1.0785    0.2909   -1.2034 H   0  0  0  0  0  0  0  0  0  0  0  0
   -1.0838   -0.3215    1.2241 H   0  0  0  0  0  0  0  0  0  0  0  0
    0.6674   -0.3727    1.2346 H   0  0  0  0  0  0  0  0  0  0  0  0
   -0.9872    2.1051    0.6257 H   0  0  0  0  0  0  0  0  0  0  0  0
    0.5739    1.3390    3.1412 H   0  0  0  0  0  0  0  0  0  0  0  0
   -1.1851    1.4384    3.0185 H   0  0  0  0  0  0  0  0  0  0  0  0
   -0.2028    2.9028    2.8427 H   0  0  0  0  0  0  0  0  0  0  0  0
    1.7751    1.8576    1.0089 H   0  0  0  0  0  0  0  0  0  0  0  0
  1  2  1  0
  1  3  1  0
  2  4  1  0
  5  6  1  0
  5 10  1  0
  5 11  1  0
  6  7  1  0
  6 12  1  0
  6 13  1  0
  7  8  1  0
  7  9  1  0
  7 14  1  0
  8 15  1  0
  8 16  1  0
  8 17  1  0
  9 18  1  0
M  RAD  1   5   2
M  END
>  <reaction>  (9) 
rxn_399

>  <mol_properties>  (9) 
{"0": {"label": "*0", "atom_type": "O2s"}, "1": {"label": "*1", "atom_type": "O2s"}, "3": {"label": "*2", "atom_type": "H0"}, "4": {"label": "*3", "atom_type": "Cs"}, "5": {"label": "*4", "atom_type": "Cs"}}

>  <type>  (9) 
unop_5

>  <geom_source>  (9) 
Heuristics

$$$$

     RDKit          3D

 18 16  0  0  0  0  0  0  0  0999 V2000
   -0.9365   -2.6437   -2.0260 O   0  0  0  0  0  0  0  0  0  0  0  0
   -0.9365   -2.6437   -0.6013 O   0  0  0  0  0  0  0  0  0  0  0  0
   -0.0757   -3.0319   -2.2130 H   0  0  0  0  0  0  0  0  0  0  0  0
   -0.9365   -1.5105   -0.3769 H   0  0  0  0  0  0  0  0  0  0  0  0
   -0.9365   -0.2263   -0.1225 C   0  0  0  0  0  3  0  0  0  0  0  0
    0.4824    0.3130   -0.0156 C   0  0  0  0  0  0  0  0  0  0  0  0
    0.6469    1.3774    1.0655 C   0  0  0  0  0  0  0  0  0  0  0  0
    2.0926    1.8252    1.2132 C   0  0  0  0  0  0  0  0  0  0  0  0
   -0.2089    2.4878    0.8386 O   0  0  0  0  0  0  0  0  0  0  0  0
   -1.6438    0.5795   -0.3196 H   0  0  0  0  0  0  0  0  0  0  0  0
   -1.2384   -0.7118    0.8084 H   0  0  0  0  0  0  0  0  0  0  0  0
    1.1793   -0.5041    0.1925 H   0  0  0  0  0  0  0  0  0  0  0  0
    0.7943    0.7441   -0.9750 H   0  0  0  0  0  0  0  0  0  0  0  0
    0.3026    0.9637    2.0179 H   0  0  0  0  0  0  0  0  0  0  0  0
    2.4642    2.2388    0.2705 H   0  0  0  0  0  0  0  0  0  0  0  0
    2.7371    0.9877    1.4867 H   0  0  0  0  0  0  0  0  0  0  0  0
    2.1756    2.5939    1.9817 H   0  0  0  0  0  0  0  0  0  0  0  0
    0.0688    2.9174    0.0262 H   0  0  0  0  0  0  0  0  0  0  0  0
  1  2  1  0
  1  3  1  0
  2  4  1  0
  5  6  1  0
  5 10  1  0
  5 11  1  0
  6  7  1  0
  6 12  1  0
  6 13  1  0
  7  8  1  0
  7  9  1  0
  7 14  1  0
  8 15  1  0
  8 16  1  0
  8 17  1  0
  9 18  1  0
M  RAD  1   5   2
M  END
>  <reaction>  (10) 
rxn_399

>  <mol_properties>  (10) 
{"0": {"label": "*0", "atom_type": "O2s"}, "1": {"label": "*1", "atom_type": "O2s"}, "3": {"label": "*2", "atom_type": "H0"}, "4": {"label": "*3", "atom_type": "Cs"}, "5": {"label": "*4", "atom_type": "Cs"}}

>  <type>  (10) 
unop_6

>  <geom_source>  (10) 
Heuristics

$$$$

     RDKit          3D

 18 16  0  0  0  0  0  0  0  0999 V2000
   -0.6607   -2.5581   -2.4465 O   0  0  0  0  0  0  0  0  0  0  0  0
   -0.6607   -2.5581   -1.0218 O   0  0  0  0  0  0  0  0  0  0  0  0
    0.2001   -2.9464   -2.6335 H   0  0  0  0  0  0  0  0  0  0  0  0
   -0.6607   -1.4249   -0.7973 H   0  0  0  0  0  0  0  0  0  0  0  0
   -0.6607   -0.1407   -0.5429 C   0  0  0  0  0  3  0  0  0  0  0  0
    0.5681    0.2608    0.2598 C   0  0  0  0  0  0  0  0  0  0  0  0
    0.2815    1.3233    1.3169 C   0  0  0  0  0  0  0  0  0  0  0  0
    1.5050    1.6318    2.1655 C   0  0  0  0  0  0  0  0  0  0  0  0
   -0.2468    2.5070    0.7366 O   0  0  0  0  0  0  0  0  0  0  0  0
   -1.1030    0.7260   -1.0345 H   0  0  0  0  0  0  0  0  0  0  0  0
   -1.4227   -0.5781    0.1062 H   0  0  0  0  0  0  0  0  0  0  0  0
    0.9949   -0.6161    0.7555 H   0  0  0  0  0  0  0  0  0  0  0  0
    1.3476    0.6425   -0.4112 H   0  0  0  0  0  0  0  0  0  0  0  0
   -0.5211    0.9619    1.9665 H   0  0  0  0  0  0  0  0  0  0  0  0
    2.3266    1.9907    1.5377 H   0  0  0  0  0  0  0  0  0  0  0  0
    1.8525    0.7410    2.6920 H   0  0  0  0  0  0  0  0  0  0  0  0
    1.2729    2.4026    2.9008 H   0  0  0  0  0  0  0  0  0  0  0  0
    0.4311    2.8933    0.1772 H   0  0  0  0  0  0  0  0  0  0  0  0
  1  2  1  0
  1  3  1  0
  2  4  1  0
  5  6  1  0
  5 10  1  0
  5 11  1  0
  6  7  1  0
  6 12  1  0
  6 13  1  0
  7  8  1  0
  7  9  1  0
  7 14  1  0
  8 15  1  0
  8 16  1  0
  8 17  1  0
  9 18  1  0
M  RAD  1   5   2
M  END
>  <reaction>  (11) 
rxn_399

>  <mol_properties>  (11) 
{"0": {"label": "*0", "atom_type": "O2s"}, "1": {"label": "*1", "atom_type": "O2s"}, "3": {"label": "*2", "atom_type": "H0"}, "4": {"label": "*3", "atom_type": "Cs"}, "5": {"label": "*4", "atom_type": "Cs"}}

>  <type>  (11) 
unop_7

>  <geom_source>  (11) 
Heuristics

$$$$

     RDKit          3D

 18 16  0  0  0  0  0  0  0  0999 V2000
    1.0053   -2.3726   -2.2651 O   0  0  0  0  0  0  0  0  0  0  0  0
    1.0053   -2.3726   -0.8404 O   0  0  0  0  0  0  0  0  0  0  0  0
    1.8660   -2.7609   -2.4522 H   0  0  0  0  0  0  0  0  0  0  0  0
    1.0053   -1.2395   -0.6160 H   0  0  0  0  0  0  0  0  0  0  0  0
    1.0053    0.0447   -0.3616 C   0  0  0  0  0  3  0  0  0  0  0  0
   -0.4136    0.5841   -0.2547 C   0  0  0  0  0  0  0  0  0  0  0  0
   -0.5978    1.5856    0.8818 C   0  0  0  0  0  0  0  0  0  0  0  0
   -1.9980    2.1784    0.9016 C   0  0  0  0  0  0  0  0  0  0  0  0
   -0.2698    1.0133    2.1395 O   0  0  0  0  0  0  0  0  0  0  0  0
    1.3110   -0.4300    0.5710 H   0  0  0  0  0  0  0  0  0  0  0  0
    1.7124    0.8508   -0.5702 H   0  0  0  0  0  0  0  0  0  0  0  0
   -0.7029    1.0663   -1.1931 H   0  0  0  0  0  0  0  0  0  0  0  0
   -1.1198   -0.2420   -0.1050 H   0  0  0  0  0  0  0  0  0  0  0  0
    0.1295    2.3931    0.7568 H   0  0  0  0  0  0  0  0  0  0  0  0
   -2.7470    1.3891    1.0201 H   0  0  0  0  0  0  0  0  0  0  0  0
   -2.2143    2.7059   -0.0292 H   0  0  0  0  0  0  0  0  0  0  0  0
   -2.1026    2.8781    1.7310 H   0  0  0  0  0  0  0  0  0  0  0  0
   -0.9016    0.3141    2.3230 H   0  0  0  0  0  0  0  0  0  0  0  0
  1  2  1  0
  1  3  1  0
  2  4  1  0
  5  6  1  0
  5 10  1  0
  5 11  1  0
  6  7  1  0
  6 12  1  0
  6 13  1  0
  7  8  1  0
  7  9  1  0
  7 14  1  0
  8 15  1  0
  8 16  1  0
  8 17  1  0
  9 18  1  0
M  RAD  1   5   2
M  END
>  <reaction>  (12) 
rxn_399

>  <mol_properties>  (12) 
{"0": {"label": "*0", "atom_type": "O2s"}, "1": {"label": "*1", "atom_type": "O2s"}, "3": {"label": "*2", "atom_type": "H0"}, "4": {"label": "*3", "atom_type": "Cs"}, "5": {"label": "*4", "atom_type": "Cs"}}

>  <type>  (12) 
unop_8

>  <geom_source>  (12) 
Heuristics

$$$$

     RDKit          3D

 18 16  0  0  0  0  0  0  0  0999 V2000
   -0.4954   -2.9085   -0.9947 O   0  0  0  0  0  0  0  0  0  0  0  0
   -0.4954   -2.9085    0.4300 O   0  0  0  0  0  0  0  0  0  0  0  0
    0.3653   -3.2968   -1.1817 H   0  0  0  0  0  0  0  0  0  0  0  0
   -0.4954   -1.7754    0.6545 H   0  0  0  0  0  0  0  0  0  0  0  0
   -0.4954   -0.4911    0.9089 C   0  0  0  0  0  3  0  0  0  0  0  0
    0.2140    0.2870   -0.1896 C   0  0  0  0  0  0  0  0  0  0  0  0
    0.5943    1.7066    0.2213 C   0  0  0  0  0  0  0  0  0  0  0  0
    1.3860    2.4236   -0.8610 C   0  0  0  0  0  0  0  0  0  0  0  0
   -0.5462    2.4623    0.6024 O   0  0  0  0  0  0  0  0  0  0  0  0
   -1.3974    0.0290    1.2320 H   0  0  0  0  0  0  0  0  0  0  0  0
    0.1508   -0.6071    1.7820 H   0  0  0  0  0  0  0  0  0  0  0  0
    1.1218   -0.2408   -0.4964 H   0  0  0  0  0  0  0  0  0  0  0  0
   -0.4226    0.3443   -1.0813 H   0  0  0  0  0  0  0  0  0  0  0  0
    1.1991    1.6564    1.1315 H   0  0  0  0  0  0  0  0  0  0  0  0
    0.8044    2.4824   -1.7863 H   0  0  0  0  0  0  0  0  0  0  0  0
    2.3144    1.8945   -1.0841 H   0  0  0  0  0  0  0  0  0  0  0  0
    1.6305    3.4376   -0.5442 H   0  0  0  0  0  0  0  0  0  0  0  0
   -1.1041    2.5713   -0.1712 H   0  0  0  0  0  0  0  0  0  0  0  0
  1  2  1  0
  1  3  1  0
  2  4  1  0
  5  6  1  0
  5 10  1  0
  5 11  1  0
  6  7  1  0
  6 12  1  0
  6 13  1  0
  7  8  1  0
  7  9  1  0
  7 14  1  0
  8 15  1  0
  8 16  1  0
  8 17  1  0
  9 18  1  0
M  RAD  1   5   2
M  END
>  <reaction>  (13) 
rxn_399

>  <mol_properties>  (13) 
{"0": {"label": "*0", "atom_type": "O2s"}, "1": {"label": "*1", "atom_type": "O2s"}, "3": {"label": "*2", "atom_type": "H0"}, "4": {"label": "*3", "atom_type": "Cs"}, "5": {"label": "*4", "atom_type": "Cs"}}

>  <type>  (13) 
unop_9

>  <geom_source>  (13) 
Heuristics

$$$$

     RDKit          3D

 18 16  0  0  0  0  0  0  0  0999 V2000
    1.1090   -2.5616   -1.6656 O   0  0  0  0  0  0  0  0  0  0  0  0
    1.1090   -2.5616   -0.2409 O   0  0  0  0  0  0  0  0  0  0  0  0
    1.9697   -2.9499   -1.8526 H   0  0  0  0  0  0  0  0  0  0  0  0
    1.1090   -1.4285   -0.0164 H   0  0  0  0  0  0  0  0  0  0  0  0
    1.1090   -0.1443    0.2380 C   0  0  0  0  0  3  0  0  0  0  0  0
   -0.1198    0.5329   -0.3511 C   0  0  0  0  0  0  0  0  0  0  0  0
   -0.6303    1.7002    0.4888 C   0  0  0  0  0  0  0  0  0  0  0  0
   -1.7969    2.4158   -0.1739 C   0  0  0  0  0  0  0  0  0  0  0  0
   -0.9683    1.2870    1.8049 O   0  0  0  0  0  0  0  0  0  0  0  0
    0.9065   -0.5060    1.2463 H   0  0  0  0  0  0  0  0  0  0  0  0
    1.9460    0.5550    0.2987 H   0  0  0  0  0  0  0  0  0  0  0  0
    0.1008    0.8997   -1.3578 H   0  0  0  0  0  0  0  0  0  0  0  0
   -0.9334   -0.1946   -0.4621 H   0  0  0  0  0  0  0  0  0  0  0  0
    0.1886    2.4110    0.6330 H   0  0  0  0  0  0  0  0  0  0  0  0
   -2.6296    1.7240   -0.3351 H   0  0  0  0  0  0  0  0  0  0  0  0
   -1.5080    2.8215   -1.1452 H   0  0  0  0  0  0  0  0  0  0  0  0
   -2.1475    3.2342    0.4551 H   0  0  0  0  0  0  0  0  0  0  0  0
   -1.7119    0.6826    1.7462 H   0  0  0  0  0  0  0  0  0  0  0  0
  1  2  1  0
  1  3  1  0
  2  4  1  0
  5  6  1  0
  5 10  1  0
  5 11  1  0
  6  7  1  0
  6 12  1  0
  6 13  1  0
  7  8  1  0
  7  9  1  0
  7 14  1  0
  8 15  1  0
  8 16  1  0
  8 17  1  0
  9 18  1  0
M  RAD  1   5   2
M  END
>  <reaction>  (14) 
rxn_399

>  <mol_properties>  (14) 
{"0": {"label": "*0", "atom_type": "O2s"}, "1": {"label": "*1", "atom_type": "O2s"}, "3": {"label": "*2", "atom_type": "H0"}, "4": {"label": "*3", "atom_type": "Cs"}, "5": {"label": "*4", "atom_type": "Cs"}}

>  <type>  (14) 
unop_10

>  <geom_source>  (14) 
Heuristics

$$$$

     RDKit          3D

 18 16  0  0  0  0  0  0  0  0999 V2000
   -0.3134   -2.5709   -2.6014 O   0  0  0  0  0  0  0  0  0  0  0  0
   -0.3134   -2.5709   -1.1767 O   0  0  0  0  0  0  0  0  0  0  0  0
    0.5473   -2.9592   -2.7884 H   0  0  0  0  0  0  0  0  0  0  0  0
   -0.3134   -1.4378   -0.9522 H   0  0  0  0  0  0  0  0  0  0  0  0
   -0.3134   -0.1536   -0.6978 C   0  0  0  0  0  3  0  0  0  0  0  0
    0.3960    0.1469    0.6144 C   0  0  0  0  0  0  0  0  0  0  0  0
   -0.0986    1.4209    1.2934 C   0  0  0  0  0  0  0  0  0  0  0  0
    0.5593    1.6413    2.6465 C   0  0  0  0  0  0  0  0  0  0  0  0
    0.0673    2.5561    0.4562 O   0  0  0  0  0  0  0  0  0  0  0  0
   -0.2039    0.6759   -1.3967 H   0  0  0  0  0  0  0  0  0  0  0  0
   -1.3821   -0.3103   -0.5344 H   0  0  0  0  0  0  0  0  0  0  0  0
    0.2692   -0.6886    1.3090 H   0  0  0  0  0  0  0  0  0  0  0  0
    1.4757    0.2426    0.4450 H   0  0  0  0  0  0  0  0  0  0  0  0
   -1.1812    1.3454    1.4312 H   0  0  0  0  0  0  0  0  0  0  0  0
    1.6458    1.7149    2.5373 H   0  0  0  0  0  0  0  0  0  0  0  0
    0.3479    0.8131    3.3254 H   0  0  0  0  0  0  0  0  0  0  0  0
    0.1966    2.5642    3.0995 H   0  0  0  0  0  0  0  0  0  0  0  0
    1.0081    2.6961    0.3262 H   0  0  0  0  0  0  0  0  0  0  0  0
  1  2  1  0
  1  3  1  0
  2  4  1  0
  5  6  1  0
  5 10  1  0
  5 11  1  0
  6  7  1  0
  6 12  1  0
  6 13  1  0
  7  8  1  0
  7  9  1  0
  7 14  1  0
  8 15  1  0
  8 16  1  0
  8 17  1  0
  9 18  1  0
M  RAD  1   5   2
M  END
>  <reaction>  (15) 
rxn_399

>  <mol_properties>  (15) 
{"0": {"label": "*0", "atom_type": "O2s"}, "1": {"label": "*1", "atom_type": "O2s"}, "3": {"label": "*2", "atom_type": "H0"}, "4": {"label": "*3", "atom_type": "Cs"}, "5": {"label": "*4", "atom_type": "Cs"}}

>  <type>  (15) 
unop_11

>  <geom_source>  (15) 
Heuristics

$$$$

     RDKit          3D

 18 16  0  0  0  0  0  0  0  0999 V2000
    0.1776   -2.9164   -0.8436 O   0  0  0  0  0  0  0  0  0  0  0  0
    0.1776   -2.9164    0.5810 O   0  0  0  0  0  0  0  0  0  0  0  0
    1.0383   -3.3047   -1.0307 H   0  0  0  0  0  0  0  0  0  0  0  0
    0.1776   -1.7833    0.8055 H   0  0  0  0  0  0  0  0  0  0  0  0
    0.1776   -0.4991    1.0599 C   0  0  0  0  0  3  0  0  0  0  0  0
    0.1776    0.3160   -0.2251 C   0  0  0  0  0  0  0  0  0  0  0  0
    0.1346    1.8228    0.0124 C   0  0  0  0  0  0  0  0  0  0  0  0
    0.2338    2.6102   -1.2847 C   0  0  0  0  0  0  0  0  0  0  0  0
   -1.0181    2.2017    0.7505 O   0  0  0  0  0  0  0  0  0  0  0  0
   -0.6996   -0.2690    1.6651 H   0  0  0  0  0  0  0  0  0  0  0  0
    1.0623   -0.2765    1.6608 H   0  0  0  0  0  0  0  0  0  0  0  0
    1.0676    0.0828   -0.8168 H   0  0  0  0  0  0  0  0  0  0  0  0
   -0.6836    0.0395   -0.8460 H   0  0  0  0  0  0  0  0  0  0  0  0
    0.9710    2.0980    0.6615 H   0  0  0  0  0  0  0  0  0  0  0  0
   -0.5901    2.3488   -1.9561 H   0  0  0  0  0  0  0  0  0  0  0  0
    1.1689    2.3939   -1.8048 H   0  0  0  0  0  0  0  0  0  0  0  0
    0.1866    3.6807   -1.0839 H   0  0  0  0  0  0  0  0  0  0  0  0
   -1.7913    2.0153    0.2129 H   0  0  0  0  0  0  0  0  0  0  0  0
  1  2  1  0
  1  3  1  0
  2  4  1  0
  5  6  1  0
  5 10  1  0
  5 11  1  0
  6  7  1  0
  6 12  1  0
  6 13  1  0
  7  8  1  0
  7  9  1  0
  7 14  1  0
  8 15  1  0
  8 16  1  0
  8 17  1  0
  9 18  1  0
M  RAD  1   5   2
M  END
>  <reaction>  (16) 
rxn_399

>  <mol_properties>  (16) 
{"0": {"label": "*0", "atom_type": "O2s"}, "1": {"label": "*1", "atom_type": "O2s"}, "3": {"label": "*2", "atom_type": "H0"}, "4": {"label": "*3", "atom_type": "Cs"}, "5": {"label": "*4", "atom_type": "Cs"}}

>  <type>  (16) 
unop_12

>  <geom_source>  (16) 
Heuristics

$$$$

     RDKit          3D

 18 16  0  0  0  0  0  0  0  0999 V2000
   -1.7669    0.2504    1.1589 O   0  0  0  0  0  0  0  0  0  0  0  0
    4.0473   -0.6666    0.4849 O   0  0  0  0  0  0  0  0  0  0  0  0
    2.9042   -1.2582    0.7591 O   0  0  0  0  0  1  0  0  0  0  0  0
   -1.3433    0.2488   -0.1800 C   0  0  0  0  0  0  0  0  0  0  0  0
    0.1708   -0.0071   -0.2409 C   0  0  0  0  0  0  0  0  0  0  0  0
   -1.6845    1.5936   -0.8272 C   0  0  0  0  0  0  0  0  0  0  0  0
    0.5336   -1.3904    0.2955 C   0  0  0  0  0  0  0  0  0  0  0  0
   -1.8649   -0.5585   -0.7463 H   0  0  0  0  0  0  0  0  0  0  0  0
    0.7086    0.7643    0.3528 H   0  0  0  0  0  0  0  0  0  0  0  0
    0.5190    0.0617   -1.2948 H   0  0  0  0  0  0  0  0  0  0  0  0
   -1.1791    2.4234   -0.2879 H   0  0  0  0  0  0  0  0  0  0  0  0
   -1.3638    1.6023   -1.8908 H   0  0  0  0  0  0  0  0  0  0  0  0
   -2.7818    1.7619   -0.7924 H   0  0  0  0  0  0  0  0  0  0  0  0
    0.0182   -2.1800   -0.2918 H   0  0  0  0  0  0  0  0  0  0  0  0
    0.2469   -1.4814    1.3646 H   0  0  0  0  0  0  0  0  0  0  0  0
    1.6673   -1.5495    0.2074 H   0  0  0  0  0  0  0  0  0  0  0  0
   -2.7506    0.1153    1.1488 H   0  0  0  0  0  0  0  0  0  0  0  0
    3.9190    0.2699    0.7801 H   0  0  0  0  0  0  0  0  0  0  0  0
  1  4  1  0
  1 17  1  0
  2  3  1  0
  2 18  1  0
  4  6  1  0
  4  5  1  0
  4  8  1  0
  5  7  1  0
  5  9  1  0
  5 10  1  0
  6 11  1  0
  6 12  1  0
  6 13  1  0
  7 14  1  0
  7 15  1  0
  7 16  1  0
M  RAD  1   3   2
M  END
>  <reaction>  (17) 
rxn_399

>  <mol_properties>  (17) 
{"0": {"label": "*0", "atom_type": "O2s"}, "1": {"label": "*1", "atom_type": "O2s"}, "3": {"label": "*2", "atom_type": "H0"}, "4": {"label": "*3", "atom_type": "Cs"}, "5": {"label": "*4", "atom_type": "Cs"}}

>  <type>  (17) 
unop_13

>  <geom_source>  (17) 
AutoTST

$$$$
