
     RDKit          3D

 12 11  0  0  0  0  0  0  0  0999 V2000
    1.2394   -0.3763   -0.3020 C   0  0  0  0  0  0  0  0  0  0  0  0
    0.1007    0.3024    0.4464 C   0  0  0  0  0  0  0  0  0  0  0  0
   -0.1187    2.0399   -0.0725 S   0  0  0  0  0  0  0  0  0  0  0  0
   -1.1974   -0.4877    0.3552 C   0  0  0  0  0  0  0  0  0  0  0  0
    2.1681    0.1850   -0.2048 H   0  0  0  0  0  0  0  0  0  0  0  0
    1.0030   -0.4604   -1.3656 H   0  0  0  0  0  0  0  0  0  0  0  0
    1.3993   -1.3856    0.0859 H   0  0  0  0  0  0  0  0  0  0  0  0
    0.3797    0.4050    1.4982 H   0  0  0  0  0  0  0  0  0  0  0  0
   -0.4500    1.7774   -1.3452 H   0  0  0  0  0  0  0  0  0  0  0  0
   -1.0545   -1.4977    0.7478 H   0  0  0  0  0  0  0  0  0  0  0  0
   -1.5206   -0.5758   -0.6849 H   0  0  0  0  0  0  0  0  0  0  0  0
   -1.9957   -0.0054    0.9183 H   0  0  0  0  0  0  0  0  0  0  0  0
  1  2  1  0
  1  5  1  0
  1  6  1  0
  1  7  1  0
  2  4  1  0
  2  3  1  0
  2  8  1  0
  3  9  1  0
  4 10  1  0
  4 11  1  0
  4 12  1  0
M  END
>  <reaction>  (1) 
rxn_1916

>  <mol_properties>  (1) 
{"1": {"label": "donator", "atom_type": "Cs"}, "7": {"label": "d_hydrogen", "atom_type": "H0"}}

>  <type>  (1) 
r1h

$$$$

     RDKit          3D

 15 14  0  0  0  0  0  0  0  0999 V2000
    2.4381    0.5770   -0.2356 C   0  0  0  0  0  0  0  0  0  0  0  0
    1.4430   -0.3367   -0.1409 C   0  0  0  0  0  0  0  0  0  0  0  0
    0.0521   -0.0957   -0.0045 C   0  0  0  0  0  3  0  0  0  0  0  0
   -0.5167    1.2867    0.0548 C   0  0  0  0  0  0  0  0  0  0  0  0
   -0.8226   -1.2147    0.0778 C   0  0  0  0  0  0  0  0  0  0  0  0
   -2.1666   -1.1669    0.2092 C   0  0  0  0  0  0  0  0  0  0  0  0
    3.4666    0.2585   -0.3369 H   0  0  0  0  0  0  0  0  0  0  0  0
    2.2594    1.6438   -0.2152 H   0  0  0  0  0  0  0  0  0  0  0  0
    1.7306   -1.3845   -0.1719 H   0  0  0  0  0  0  0  0  0  0  0  0
   -1.2300    1.4469   -0.7583 H   0  0  0  0  0  0  0  0  0  0  0  0
    0.2481    2.0557   -0.0178 H   0  0  0  0  0  0  0  0  0  0  0  0
   -1.0592    1.4421    0.9914 H   0  0  0  0  0  0  0  0  0  0  0  0
   -0.3519   -2.1929    0.0292 H   0  0  0  0  0  0  0  0  0  0  0  0
   -2.7080   -0.2310    0.2646 H   0  0  0  0  0  0  0  0  0  0  0  0
   -2.7513   -2.0751    0.2638 H   0  0  0  0  0  0  0  0  0  0  0  0
  1  2  2  3
  1  7  1  0
  1  8  1  0
  2  3  1  0
  2  9  1  0
  3  4  1  0
  3  5  1  0
  4 10  1  0
  4 11  1  0
  4 12  1  0
  5  6  2  3
  5 13  1  0
  6 14  1  0
  6 15  1  0
M  RAD  1   3   2
M  END
>  <reaction>  (2) 
rxn_1916

>  <mol_properties>  (2) 
{"2": {"label": "acceptor", "atom_type": "Cs"}}

>  <type>  (2) 
r2

$$$$

     RDKit          3D

 16 15  0  0  0  0  0  0  0  0999 V2000
    1.7961   -0.3807    1.6176 C   0  0  0  0  0  0  0  0  0  0  0  0
    0.8562   -0.8708    0.8256 C   0  0  0  0  0  0  0  0  0  0  0  0
    0.0895   -0.0826   -0.2048 C   0  0  0  0  0  0  0  0  0  0  0  0
   -1.4061   -0.1111    0.0982 C   0  0  0  0  0  0  0  0  0  0  0  0
    0.4476   -0.5902   -1.5797 C   0  0  0  0  0  0  0  0  0  0  0  0
   -0.3793   -1.1113   -2.4728 C   0  0  0  0  0  0  0  0  0  0  0  0
    2.3110   -1.0032    2.3386 H   0  0  0  0  0  0  0  0  0  0  0  0
    2.0846    0.6643    1.5737 H   0  0  0  0  0  0  0  0  0  0  0  0
    0.5921   -1.9241    0.8925 H   0  0  0  0  0  0  0  0  0  0  0  0
    0.4358    0.9557   -0.1462 H   0  0  0  0  0  0  0  0  0  0  0  0
   -1.5968    0.3080    1.0865 H   0  0  0  0  0  0  0  0  0  0  0  0
   -1.9674    0.4693   -0.6359 H   0  0  0  0  0  0  0  0  0  0  0  0
   -1.7902   -1.1338    0.0883 H   0  0  0  0  0  0  0  0  0  0  0  0
    1.5049   -0.5197   -1.8214 H   0  0  0  0  0  0  0  0  0  0  0  0
   -1.4421   -1.2131   -2.2889 H   0  0  0  0  0  0  0  0  0  0  0  0
   -0.0162   -1.4558   -3.4328 H   0  0  0  0  0  0  0  0  0  0  0  0
  1  2  2  3
  1  7  1  0
  1  8  1  0
  2  3  1  0
  2  9  1  0
  3  4  1  0
  3  5  1  0
  3 10  1  0
  4 11  1  0
  4 12  1  0
  4 13  1  0
  5  6  2  3
  5 14  1  0
  6 15  1  0
  6 16  1  0
M  END
>  <reaction>  (3) 
rxn_1916

>  <mol_properties>  (3) 
{"0": {"label": "a_hydrogen", "atom_type": "H0"}, "3": {"label": "acceptor", "atom_type": "Cs"}}

>  <type>  (3) 
r2h

$$$$

     RDKit          3D

 27 25  0  0  0  0  0  0  0  0999 V2000
    0.3853    1.3880   -2.0770 C   0  0  0  0  0  0  0  0  0  0  0  0
    0.9326    1.2071   -0.6886 C   0  0  0  0  0  3  0  0  0  0  0  0
    2.4980    0.3856   -0.5487 S   0  0  0  0  0  0  0  0  0  0  0  0
    0.8213    2.3948    0.2275 C   0  0  0  0  0  0  0  0  0  0  0  0
    0.3574    0.4416   -2.6210 H   0  0  0  0  0  0  0  0  0  0  0  0
    0.9928    2.0912   -2.6562 H   0  0  0  0  0  0  0  0  0  0  0  0
   -0.6330    1.7821   -2.0256 H   0  0  0  0  0  0  0  0  0  0  0  0
   -0.0416    0.2735   -0.1487 H   0  0  0  0  0  0  0  0  0  0  0  0
    2.2193   -0.6336   -1.3735 H   0  0  0  0  0  0  0  0  0  0  0  0
   -0.2250    2.6984    0.3055 H   0  0  0  0  0  0  0  0  0  0  0  0
    1.3915    3.2506   -0.1520 H   0  0  0  0  0  0  0  0  0  0  0  0
    1.1846    2.1645    1.2300 H   0  0  0  0  0  0  0  0  0  0  0  0
   -0.0270   -2.7875   -0.4009 C   0  0  0  0  0  0  0  0  0  0  0  0
   -0.7627   -1.6915   -0.5745 C   0  0  0  0  0  0  0  0  0  0  0  0
   -0.8778   -0.5418    0.3476 C   0  0  0  0  0  0  0  0  0  0  0  0
   -0.3305   -0.7367    1.7435 C   0  0  0  0  0  0  0  0  0  0  0  0
   -2.1652    0.1761    0.2293 C   0  0  0  0  0  0  0  0  0  0  0  0
   -2.8112    0.8332    1.1894 C   0  0  0  0  0  0  0  0  0  0  0  0
    0.0054   -3.5584   -1.1599 H   0  0  0  0  0  0  0  0  0  0  0  0
    0.5506   -2.9617    0.4982 H   0  0  0  0  0  0  0  0  0  0  0  0
   -1.3230   -1.5941   -1.5019 H   0  0  0  0  0  0  0  0  0  0  0  0
   -0.3404    0.2016    2.2990 H   0  0  0  0  0  0  0  0  0  0  0  0
    0.7041   -1.0790    1.7077 H   0  0  0  0  0  0  0  0  0  0  0  0
   -0.9196   -1.4699    2.3008 H   0  0  0  0  0  0  0  0  0  0  0  0
   -2.5994    0.1744   -0.7683 H   0  0  0  0  0  0  0  0  0  0  0  0
   -2.4526    0.8701    2.2105 H   0  0  0  0  0  0  0  0  0  0  0  0
   -3.7395    1.3483    0.9796 H   0  0  0  0  0  0  0  0  0  0  0  0
  1  2  1  0
  1  5  1  0
  1  6  1  0
  1  7  1  0
  2  4  1  0
  2  3  1  0
  3  9  1  0
  4 10  1  0
  4 11  1  0
  4 12  1  0
  8 15  1  0
 13 14  2  3
 13 19  1  0
 13 20  1  0
 14 15  1  0
 14 21  1  0
 15 16  1  0
 15 17  1  0
 16 22  1  0
 16 23  1  0
 16 24  1  0
 17 18  2  3
 17 25  1  0
 18 26  1  0
 18 27  1  0
M  RAD  1   2   2
M  END
>  <reaction>  (4) 
rxn_1916

>  <mol_properties>  (4) 
{"1": {"label": "*3", "atom_type": "Cs"}, "2": {"label": "*4", "atom_type": "S2s"}, "7": {"label": "*2", "atom_type": "H0"}, "13": {"label": "*0", "atom_type": "Cd"}, "14": {"label": "*1", "atom_type": "Cs"}}

>  <type>  (4) 
ts

$$$$

     RDKit          3D

 27 25  0  0  0  0  0  0  0  0999 V2000
    0.9801    0.8662   -2.1285 C   0  0  0  0  0  0  0  0  0  0  0  0
    0.9801    0.8662   -0.6061 C   0  0  0  0  0  0  0  0  0  0  0  0
    2.3352   -0.1501    0.0774 S   0  0  0  0  0  0  0  0  0  0  0  0
    0.9801    2.2762   -0.0321 C   0  0  0  0  0  0  0  0  0  0  0  0
    0.9515   -0.1481   -2.5251 H   0  0  0  0  0  0  0  0  0  0  0  0
    1.8785    1.3559   -2.5120 H   0  0  0  0  0  0  0  0  0  0  0  0
    0.1131    1.4136   -2.5073 H   0  0  0  0  0  0  0  0  0  0  0  0
   -0.0878    0.2343   -0.1811 H   0  0  0  0  0  0  0  0  0  0  0  0
    3.3411    0.5857   -0.4175 H   0  0  0  0  0  0  0  0  0  0  0  0
    0.1131    2.8335   -0.3963 H   0  0  0  0  0  0  0  0  0  0  0  0
    1.8785    2.8161   -0.3411 H   0  0  0  0  0  0  0  0  0  0  0  0
    0.9515    2.2611    1.0568 H   0  0  0  0  0  0  0  0  0  0  0  0
    0.3471   -2.3397    0.7837 C   0  0  0  0  0  0  0  0  0  0  0  0
   -0.6896   -1.5692    1.0710 C   0  0  0  0  0  0  0  0  0  0  0  0
   -1.1587   -0.3994    0.2451 C   0  0  0  0  0  3  0  0  0  0  0  0
   -1.1126    0.8894    1.0613 C   0  0  0  0  0  0  0  0  0  0  0  0
   -2.5180   -0.7151   -0.3285 C   0  0  0  0  0  0  0  0  0  0  0  0
   -3.6404   -0.0434   -0.1240 C   0  0  0  0  0  0  0  0  0  0  0  0
    0.6317   -3.1675    1.4209 H   0  0  0  0  0  0  0  0  0  0  0  0
    0.9508   -2.1690   -0.1014 H   0  0  0  0  0  0  0  0  0  0  0  0
   -1.2765   -1.7689    1.9651 H   0  0  0  0  0  0  0  0  0  0  0  0
   -1.4378    1.7441    0.4658 H   0  0  0  0  0  0  0  0  0  0  0  0
   -0.0961    1.0783    1.4073 H   0  0  0  0  0  0  0  0  0  0  0  0
   -1.7585    0.8222    1.9399 H   0  0  0  0  0  0  0  0  0  0  0  0
   -2.5437   -1.6016   -0.9568 H   0  0  0  0  0  0  0  0  0  0  0  0
   -3.6801    0.8443    0.4959 H   0  0  0  0  0  0  0  0  0  0  0  0
   -4.5701   -0.3617   -0.5786 H   0  0  0  0  0  0  0  0  0  0  0  0
  1  2  1  0
  1  5  1  0
  1  6  1  0
  1  7  1  0
  2  4  1  0
  2  3  1  0
  2  8  1  0
  3  9  1  0
  4 10  1  0
  4 11  1  0
  4 12  1  0
 13 14  2  3
 13 19  1  0
 13 20  1  0
 14 15  1  0
 14 21  1  0
 15 16  1  0
 15 17  1  0
 16 22  1  0
 16 23  1  0
 16 24  1  0
 17 18  2  3
 17 25  1  0
 18 26  1  0
 18 27  1  0
M  RAD  1  15   2
M  END
>  <reaction>  (5) 
rxn_1916

>  <mol_properties>  (5) 
{"1": {"label": "*3", "atom_type": "Cs"}, "2": {"label": "*4", "atom_type": "S2s"}, "7": {"label": "*2", "atom_type": "H0"}, "13": {"label": "*0", "atom_type": "Cd"}, "14": {"label": "*1", "atom_type": "Cs"}}

>  <type>  (5) 
unop_1

>  <geom_source>  (5) 
Heuristics

$$$$

     RDKit          3D

 27 25  0  0  0  0  0  0  0  0999 V2000
    1.0389    0.8340   -2.0102 C   0  0  0  0  0  0  0  0  0  0  0  0
    1.0389    0.8340   -0.4878 C   0  0  0  0  0  0  0  0  0  0  0  0
    2.3941   -0.1823    0.1957 S   0  0  0  0  0  0  0  0  0  0  0  0
    1.0389    2.2440    0.0862 C   0  0  0  0  0  0  0  0  0  0  0  0
    1.0104   -0.1803   -2.4068 H   0  0  0  0  0  0  0  0  0  0  0  0
    1.9374    1.3237   -2.3937 H   0  0  0  0  0  0  0  0  0  0  0  0
    0.1720    1.3814   -2.3890 H   0  0  0  0  0  0  0  0  0  0  0  0
   -0.0290    0.2021   -0.0628 H   0  0  0  0  0  0  0  0  0  0  0  0
    3.4000    0.5535   -0.2992 H   0  0  0  0  0  0  0  0  0  0  0  0
    0.1720    2.8013   -0.2780 H   0  0  0  0  0  0  0  0  0  0  0  0
    1.9374    2.7839   -0.2228 H   0  0  0  0  0  0  0  0  0  0  0  0
    1.0104    2.2290    1.1751 H   0  0  0  0  0  0  0  0  0  0  0  0
   -1.0430   -1.4618   -1.9296 C   0  0  0  0  0  0  0  0  0  0  0  0
   -1.4468   -1.4725   -0.6695 C   0  0  0  0  0  0  0  0  0  0  0  0
   -1.0999   -0.4316    0.3634 C   0  0  0  0  0  3  0  0  0  0  0  0
   -0.3514   -1.0628    1.5341 C   0  0  0  0  0  0  0  0  0  0  0  0
   -2.3552    0.3043    0.7618 C   0  0  0  0  0  0  0  0  0  0  0  0
   -2.8819    0.3751    1.9745 C   0  0  0  0  0  0  0  0  0  0  0  0
   -1.3296   -2.2424   -2.6231 H   0  0  0  0  0  0  0  0  0  0  0  0
   -0.4085   -0.6700   -2.3137 H   0  0  0  0  0  0  0  0  0  0  0  0
   -2.0851   -2.2796   -0.3163 H   0  0  0  0  0  0  0  0  0  0  0  0
   -0.0841   -0.3129    2.2805 H   0  0  0  0  0  0  0  0  0  0  0  0
    0.5641   -1.5385    1.1816 H   0  0  0  0  0  0  0  0  0  0  0  0
   -0.9592   -1.8275    2.0235 H   0  0  0  0  0  0  0  0  0  0  0  0
   -2.8617    0.8030   -0.0605 H   0  0  0  0  0  0  0  0  0  0  0  0
   -2.4272   -0.1046    2.8329 H   0  0  0  0  0  0  0  0  0  0  0  0
   -3.7970    0.9255    2.1524 H   0  0  0  0  0  0  0  0  0  0  0  0
  1  2  1  0
  1  5  1  0
  1  6  1  0
  1  7  1  0
  2  4  1  0
  2  3  1  0
  2  8  1  0
  3  9  1  0
  4 10  1  0
  4 11  1  0
  4 12  1  0
 13 14  2  3
 13 19  1  0
 13 20  1  0
 14 15  1  0
 14 21  1  0
 15 16  1  0
 15 17  1  0
 16 22  1  0
 16 23  1  0
 16 24  1  0
 17 18  2  3
 17 25  1  0
 18 26  1  0
 18 27  1  0
M  RAD  1  15   2
M  END
>  <reaction>  (6) 
rxn_1916

>  <mol_properties>  (6) 
{"1": {"label": "*3", "atom_type": "Cs"}, "2": {"label": "*4", "atom_type": "S2s"}, "7": {"label": "*2", "atom_type": "H0"}, "13": {"label": "*0", "atom_type": "Cd"}, "14": {"label": "*1", "atom_type": "Cs"}}

>  <type>  (6) 
unop_2

>  <geom_source>  (6) 
Heuristics

$$$$

     RDKit          3D

 27 25  0  0  0  0  0  0  0  0999 V2000
    0.9770    0.8744   -2.1222 C   0  0  0  0  0  0  0  0  0  0  0  0
    0.9770    0.8744   -0.5999 C   0  0  0  0  0  0  0  0  0  0  0  0
    2.3322   -0.1419    0.0837 S   0  0  0  0  0  0  0  0  0  0  0  0
    0.9770    2.2844   -0.0259 C   0  0  0  0  0  0  0  0  0  0  0  0
    0.9485   -0.1398   -2.5189 H   0  0  0  0  0  0  0  0  0  0  0  0
    1.8755    1.3641   -2.5058 H   0  0  0  0  0  0  0  0  0  0  0  0
    0.1101    1.4218   -2.5011 H   0  0  0  0  0  0  0  0  0  0  0  0
   -0.0908    0.2425   -0.1749 H   0  0  0  0  0  0  0  0  0  0  0  0
    3.3381    0.5939   -0.4112 H   0  0  0  0  0  0  0  0  0  0  0  0
    0.1101    2.8417   -0.3901 H   0  0  0  0  0  0  0  0  0  0  0  0
    1.8755    2.8243   -0.3349 H   0  0  0  0  0  0  0  0  0  0  0  0
    0.9485    2.2694    1.0631 H   0  0  0  0  0  0  0  0  0  0  0  0
    0.3972   -1.4081    1.9419 C   0  0  0  0  0  0  0  0  0  0  0  0
   -0.8139   -1.0210    1.5753 C   0  0  0  0  0  0  0  0  0  0  0  0
   -1.1618   -0.3911    0.2513 C   0  0  0  0  0  3  0  0  0  0  0  0
   -1.7528    1.0011    0.4557 C   0  0  0  0  0  0  0  0  0  0  0  0
   -2.0547   -1.3303   -0.5213 C   0  0  0  0  0  0  0  0  0  0  0  0
   -3.2848   -1.0856   -0.9454 C   0  0  0  0  0  0  0  0  0  0  0  0
    0.5800   -1.8560    2.9105 H   0  0  0  0  0  0  0  0  0  0  0  0
    1.2521   -1.2895    1.2845 H   0  0  0  0  0  0  0  0  0  0  0  0
   -1.6509   -1.1565    2.2570 H   0  0  0  0  0  0  0  0  0  0  0  0
   -1.9946    1.4700   -0.4995 H   0  0  0  0  0  0  0  0  0  0  0  0
   -1.0402    1.6379    0.9806 H   0  0  0  0  0  0  0  0  0  0  0  0
   -2.6662    0.9571    1.0534 H   0  0  0  0  0  0  0  0  0  0  0  0
   -1.6155   -2.3048   -0.7181 H   0  0  0  0  0  0  0  0  0  0  0  0
   -3.7785   -0.1363   -0.7757 H   0  0  0  0  0  0  0  0  0  0  0  0
   -3.8463   -1.8365   -1.4868 H   0  0  0  0  0  0  0  0  0  0  0  0
  1  2  1  0
  1  5  1  0
  1  6  1  0
  1  7  1  0
  2  4  1  0
  2  3  1  0
  2  8  1  0
  3  9  1  0
  4 10  1  0
  4 11  1  0
  4 12  1  0
 13 14  2  3
 13 19  1  0
 13 20  1  0
 14 15  1  0
 14 21  1  0
 15 16  1  0
 15 17  1  0
 16 22  1  0
 16 23  1  0
 16 24  1  0
 17 18  2  3
 17 25  1  0
 18 26  1  0
 18 27  1  0
M  RAD  1  15   2
M  END
>  <reaction>  (7) 
rxn_1916

>  <mol_properties>  (7) 
{"1": {"label": "*3", "atom_type": "Cs"}, "2": {"label": "*4", "atom_type": "S2s"}, "7": {"label": "*2", "atom_type": "H0"}, "13": {"label": "*0", "atom_type": "Cd"}, "14": {"label": "*1", "atom_type": "Cs"}}

>  <type>  (7) 
unop_3

>  <geom_source>  (7) 
Heuristics

$$$$

     RDKit          3D

 27 25  0  0  0  0  0  0  0  0999 V2000
    0.9767    0.6121   -2.1611 C   0  0  0  0  0  0  0  0  0  0  0  0
    0.9767    0.6121   -0.6388 C   0  0  0  0  0  0  0  0  0  0  0  0
    2.3319   -0.4042    0.0448 S   0  0  0  0  0  0  0  0  0  0  0  0
    0.9767    2.0221   -0.0648 C   0  0  0  0  0  0  0  0  0  0  0  0
    0.9482   -0.4021   -2.5578 H   0  0  0  0  0  0  0  0  0  0  0  0
    1.8751    1.1018   -2.5447 H   0  0  0  0  0  0  0  0  0  0  0  0
    0.1098    1.1595   -2.5400 H   0  0  0  0  0  0  0  0  0  0  0  0
   -0.0912   -0.0198   -0.2138 H   0  0  0  0  0  0  0  0  0  0  0  0
    3.3378    0.3316   -0.4501 H   0  0  0  0  0  0  0  0  0  0  0  0
    0.1098    2.5794   -0.4290 H   0  0  0  0  0  0  0  0  0  0  0  0
    1.8751    2.5620   -0.3738 H   0  0  0  0  0  0  0  0  0  0  0  0
    0.9482    2.0071    1.0242 H   0  0  0  0  0  0  0  0  0  0  0  0
   -2.3984    0.7627   -1.4574 C   0  0  0  0  0  0  0  0  0  0  0  0
   -2.3627    0.0835   -0.3224 C   0  0  0  0  0  0  0  0  0  0  0  0
   -1.1621   -0.6535    0.2124 C   0  0  0  0  0  3  0  0  0  0  0  0
   -1.4694   -2.1399    0.3721 C   0  0  0  0  0  0  0  0  0  0  0  0
   -0.6973    0.0176    1.4813 C   0  0  0  0  0  0  0  0  0  0  0  0
   -0.6167   -0.5299    2.6841 C   0  0  0  0  0  0  0  0  0  0  0  0
   -3.2959    1.2721   -1.7851 H   0  0  0  0  0  0  0  0  0  0  0  0
   -1.5287    0.8329   -2.1022 H   0  0  0  0  0  0  0  0  0  0  0  0
   -3.2515    0.0349    0.3032 H   0  0  0  0  0  0  0  0  0  0  0  0
   -0.6001   -2.6834    0.7459 H   0  0  0  0  0  0  0  0  0  0  0  0
   -1.7563   -2.5690   -0.5883 H   0  0  0  0  0  0  0  0  0  0  0  0
   -2.2950   -2.2984    1.0698 H   0  0  0  0  0  0  0  0  0  0  0  0
   -0.4236    1.0625    1.3605 H   0  0  0  0  0  0  0  0  0  0  0  0
   -0.8801   -1.5643    2.8691 H   0  0  0  0  0  0  0  0  0  0  0  0
   -0.2769    0.0458    3.5357 H   0  0  0  0  0  0  0  0  0  0  0  0
  1  2  1  0
  1  5  1  0
  1  6  1  0
  1  7  1  0
  2  4  1  0
  2  3  1  0
  2  8  1  0
  3  9  1  0
  4 10  1  0
  4 11  1  0
  4 12  1  0
 13 14  2  3
 13 19  1  0
 13 20  1  0
 14 15  1  0
 14 21  1  0
 15 16  1  0
 15 17  1  0
 16 22  1  0
 16 23  1  0
 16 24  1  0
 17 18  2  3
 17 25  1  0
 18 26  1  0
 18 27  1  0
M  RAD  1  15   2
M  END
>  <reaction>  (8) 
rxn_1916

>  <mol_properties>  (8) 
{"1": {"label": "*3", "atom_type": "Cs"}, "2": {"label": "*4", "atom_type": "S2s"}, "7": {"label": "*2", "atom_type": "H0"}, "13": {"label": "*0", "atom_type": "Cd"}, "14": {"label": "*1", "atom_type": "Cs"}}

>  <type>  (8) 
unop_4

>  <geom_source>  (8) 
Heuristics

$$$$

     RDKit          3D

 27 25  0  0  0  0  0  0  0  0999 V2000
    0.9099    0.9109   -2.1399 C   0  0  0  0  0  0  0  0  0  0  0  0
    0.9099    0.9109   -0.6175 C   0  0  0  0  0  0  0  0  0  0  0  0
    2.2651   -0.1054    0.0660 S   0  0  0  0  0  0  0  0  0  0  0  0
    0.9099    2.3209   -0.0435 C   0  0  0  0  0  0  0  0  0  0  0  0
    0.8814   -0.1033   -2.5365 H   0  0  0  0  0  0  0  0  0  0  0  0
    1.8084    1.4007   -2.5234 H   0  0  0  0  0  0  0  0  0  0  0  0
    0.0430    1.4584   -2.5187 H   0  0  0  0  0  0  0  0  0  0  0  0
   -0.1580    0.2791   -0.1925 H   0  0  0  0  0  0  0  0  0  0  0  0
    3.2710    0.6305   -0.4289 H   0  0  0  0  0  0  0  0  0  0  0  0
    0.0430    2.8782   -0.4077 H   0  0  0  0  0  0  0  0  0  0  0  0
    1.8084    2.8608   -0.3525 H   0  0  0  0  0  0  0  0  0  0  0  0
    0.8814    2.3059    1.0454 H   0  0  0  0  0  0  0  0  0  0  0  0
   -0.2301    0.1997    2.4737 C   0  0  0  0  0  0  0  0  0  0  0  0
   -1.1935   -0.3337    1.7400 C   0  0  0  0  0  0  0  0  0  0  0  0
   -1.2289   -0.3546    0.2337 C   0  0  0  0  0  3  0  0  0  0  0  0
   -2.4629    0.3776   -0.2864 C   0  0  0  0  0  0  0  0  0  0  0  0
   -1.1155   -1.7819   -0.2418 C   0  0  0  0  0  0  0  0  0  0  0  0
   -1.9979   -2.4473   -0.9710 C   0  0  0  0  0  0  0  0  0  0  0  0
   -0.2651    0.1805    3.5557 H   0  0  0  0  0  0  0  0  0  0  0  0
    0.6304    0.6772    2.0169 H   0  0  0  0  0  0  0  0  0  0  0  0
   -2.0419   -0.8078    2.2290 H   0  0  0  0  0  0  0  0  0  0  0  0
   -2.4887    0.3791   -1.3774 H   0  0  0  0  0  0  0  0  0  0  0  0
   -2.4588    1.4118    0.0587 H   0  0  0  0  0  0  0  0  0  0  0  0
   -3.3807   -0.0924    0.0744 H   0  0  0  0  0  0  0  0  0  0  0  0
   -0.2103   -2.2902    0.0799 H   0  0  0  0  0  0  0  0  0  0  0  0
   -2.9206   -1.9976   -1.3174 H   0  0  0  0  0  0  0  0  0  0  0  0
   -1.8231   -3.4780   -1.2524 H   0  0  0  0  0  0  0  0  0  0  0  0
  1  2  1  0
  1  5  1  0
  1  6  1  0
  1  7  1  0
  2  4  1  0
  2  3  1  0
  2  8  1  0
  3  9  1  0
  4 10  1  0
  4 11  1  0
  4 12  1  0
 13 14  2  3
 13 19  1  0
 13 20  1  0
 14 15  1  0
 14 21  1  0
 15 16  1  0
 15 17  1  0
 16 22  1  0
 16 23  1  0
 16 24  1  0
 17 18  2  3
 17 25  1  0
 18 26  1  0
 18 27  1  0
M  RAD  1  15   2
M  END
>  <reaction>  (9) 
rxn_1916

>  <mol_properties>  (9) 
{"1": {"label": "*3", "atom_type": "Cs"}, "2": {"label": "*4", "atom_type": "S2s"}, "7": {"label": "*2", "atom_type": "H0"}, "13": {"label": "*0", "atom_type": "Cd"}, "14": {"label": "*1", "atom_type": "Cs"}}

>  <type>  (9) 
unop_5

>  <geom_source>  (9) 
Heuristics

$$$$

     RDKit          3D

 27 25  0  0  0  0  0  0  0  0999 V2000
    0.8971    0.6531   -2.2311 C   0  0  0  0  0  0  0  0  0  0  0  0
    0.8971    0.6531   -0.7087 C   0  0  0  0  0  0  0  0  0  0  0  0
    2.2523   -0.3632   -0.0252 S   0  0  0  0  0  0  0  0  0  0  0  0
    0.8971    2.0630   -0.1347 C   0  0  0  0  0  0  0  0  0  0  0  0
    0.8686   -0.3612   -2.6277 H   0  0  0  0  0  0  0  0  0  0  0  0
    1.7956    1.1428   -2.6146 H   0  0  0  0  0  0  0  0  0  0  0  0
    0.0302    1.2005   -2.6099 H   0  0  0  0  0  0  0  0  0  0  0  0
   -0.1708    0.0212   -0.2837 H   0  0  0  0  0  0  0  0  0  0  0  0
    3.2582    0.3726   -0.5201 H   0  0  0  0  0  0  0  0  0  0  0  0
    0.0302    2.6203   -0.4989 H   0  0  0  0  0  0  0  0  0  0  0  0
    1.7955    2.6030   -0.4437 H   0  0  0  0  0  0  0  0  0  0  0  0
    0.8686    2.0480    0.9542 H   0  0  0  0  0  0  0  0  0  0  0  0
   -2.5364    1.4390   -0.5191 C   0  0  0  0  0  0  0  0  0  0  0  0
   -2.3399    0.4090    0.2880 C   0  0  0  0  0  0  0  0  0  0  0  0
   -1.2417   -0.6125    0.1425 C   0  0  0  0  0  3  0  0  0  0  0  0
   -1.8268   -2.0106   -0.0375 C   0  0  0  0  0  0  0  0  0  0  0  0
   -0.2955   -0.4882    1.3110 C   0  0  0  0  0  0  0  0  0  0  0  0
   -0.0075   -1.4249    2.2013 C   0  0  0  0  0  0  0  0  0  0  0  0
   -3.3466    2.1389   -0.3577 H   0  0  0  0  0  0  0  0  0  0  0  0
   -1.8925    1.6190   -1.3735 H   0  0  0  0  0  0  0  0  0  0  0  0
   -3.0020    0.2581    1.1381 H   0  0  0  0  0  0  0  0  0  0  0  0
   -1.0377   -2.7548   -0.1577 H   0  0  0  0  0  0  0  0  0  0  0  0
   -2.4642   -2.0397   -0.9215 H   0  0  0  0  0  0  0  0  0  0  0  0
   -2.4350   -2.2966    0.8237 H   0  0  0  0  0  0  0  0  0  0  0  0
    0.1671    0.4903    1.4101 H   0  0  0  0  0  0  0  0  0  0  0  0
   -0.4399   -2.4174    2.1591 H   0  0  0  0  0  0  0  0  0  0  0  0
    0.6826   -1.2286    3.0121 H   0  0  0  0  0  0  0  0  0  0  0  0
  1  2  1  0
  1  5  1  0
  1  6  1  0
  1  7  1  0
  2  4  1  0
  2  3  1  0
  2  8  1  0
  3  9  1  0
  4 10  1  0
  4 11  1  0
  4 12  1  0
 13 14  2  3
 13 19  1  0
 13 20  1  0
 14 15  1  0
 14 21  1  0
 15 16  1  0
 15 17  1  0
 16 22  1  0
 16 23  1  0
 16 24  1  0
 17 18  2  3
 17 25  1  0
 18 26  1  0
 18 27  1  0
M  RAD  1  15   2
M  END
>  <reaction>  (10) 
rxn_1916

>  <mol_properties>  (10) 
{"1": {"label": "*3", "atom_type": "Cs"}, "2": {"label": "*4", "atom_type": "S2s"}, "7": {"label": "*2", "atom_type": "H0"}, "13": {"label": "*0", "atom_type": "Cd"}, "14": {"label": "*1", "atom_type": "Cs"}}

>  <type>  (10) 
unop_6

>  <geom_source>  (10) 
Heuristics

$$$$

     RDKit          3D

 27 25  0  0  0  0  0  0  0  0999 V2000
    0.8343    0.7478   -2.2530 C   0  0  0  0  0  0  0  0  0  0  0  0
    0.8343    0.7478   -0.7307 C   0  0  0  0  0  0  0  0  0  0  0  0
    2.1894   -0.2684   -0.0471 S   0  0  0  0  0  0  0  0  0  0  0  0
    0.8343    2.1578   -0.1567 C   0  0  0  0  0  0  0  0  0  0  0  0
    0.8057   -0.2664   -2.6497 H   0  0  0  0  0  0  0  0  0  0  0  0
    1.7327    1.2376   -2.6366 H   0  0  0  0  0  0  0  0  0  0  0  0
   -0.0326    1.2953   -2.6319 H   0  0  0  0  0  0  0  0  0  0  0  0
   -0.2336    0.1160   -0.3057 H   0  0  0  0  0  0  0  0  0  0  0  0
    3.1953    0.4674   -0.5420 H   0  0  0  0  0  0  0  0  0  0  0  0
   -0.0326    2.7151   -0.5209 H   0  0  0  0  0  0  0  0  0  0  0  0
    1.7327    2.6978   -0.4657 H   0  0  0  0  0  0  0  0  0  0  0  0
    0.8057    2.1428    0.9323 H   0  0  0  0  0  0  0  0  0  0  0  0
   -2.2291    1.7493    0.6933 C   0  0  0  0  0  0  0  0  0  0  0  0
   -2.1040    0.4566    0.9465 C   0  0  0  0  0  0  0  0  0  0  0  0
   -1.3045   -0.5177    0.1205 C   0  0  0  0  0  3  0  0  0  0  0  0
   -2.2023   -1.6243   -0.4261 C   0  0  0  0  0  0  0  0  0  0  0  0
   -0.1410   -1.0190    0.9397 C   0  0  0  0  0  0  0  0  0  0  0  0
    0.1082   -2.2747    1.2777 C   0  0  0  0  0  0  0  0  0  0  0  0
   -2.8198    2.3968    1.3291 H   0  0  0  0  0  0  0  0  0  0  0  0
   -1.7445    2.2077   -0.1624 H   0  0  0  0  0  0  0  0  0  0  0  0
   -2.6006    0.0283    1.8145 H   0  0  0  0  0  0  0  0  0  0  0  0
   -1.6332   -2.3267   -1.0373 H   0  0  0  0  0  0  0  0  0  0  0  0
   -2.9936   -1.1957   -1.0417 H   0  0  0  0  0  0  0  0  0  0  0  0
   -2.6746   -2.1844    0.3843 H   0  0  0  0  0  0  0  0  0  0  0  0
    0.5328   -0.2389    1.2843 H   0  0  0  0  0  0  0  0  0  0  0  0
   -0.5284   -3.0953    0.9695 H   0  0  0  0  0  0  0  0  0  0  0  0
    0.9714   -2.5279    1.8801 H   0  0  0  0  0  0  0  0  0  0  0  0
  1  2  1  0
  1  5  1  0
  1  6  1  0
  1  7  1  0
  2  4  1  0
  2  3  1  0
  2  8  1  0
  3  9  1  0
  4 10  1  0
  4 11  1  0
  4 12  1  0
 13 14  2  3
 13 19  1  0
 13 20  1  0
 14 15  1  0
 14 21  1  0
 15 16  1  0
 15 17  1  0
 16 22  1  0
 16 23  1  0
 16 24  1  0
 17 18  2  3
 17 25  1  0
 18 26  1  0
 18 27  1  0
M  RAD  1  15   2
M  END
>  <reaction>  (11) 
rxn_1916

>  <mol_properties>  (11) 
{"1": {"label": "*3", "atom_type": "Cs"}, "2": {"label": "*4", "atom_type": "S2s"}, "7": {"label": "*2", "atom_type": "H0"}, "13": {"label": "*0", "atom_type": "Cd"}, "14": {"label": "*1", "atom_type": "Cs"}}

>  <type>  (11) 
unop_7

>  <geom_source>  (11) 
Heuristics

$$$$

     RDKit          3D

 27 25  0  0  0  0  0  0  0  0999 V2000
    0.9782    0.8847   -2.1052 C   0  0  0  0  0  0  0  0  0  0  0  0
    0.9782    0.8847   -0.5828 C   0  0  0  0  0  0  0  0  0  0  0  0
    2.3333   -0.1316    0.1007 S   0  0  0  0  0  0  0  0  0  0  0  0
    0.9782    2.2947   -0.0088 C   0  0  0  0  0  0  0  0  0  0  0  0
    0.9497   -0.1296   -2.5018 H   0  0  0  0  0  0  0  0  0  0  0  0
    1.8766    1.3744   -2.4887 H   0  0  0  0  0  0  0  0  0  0  0  0
    0.1113    1.4321   -2.4840 H   0  0  0  0  0  0  0  0  0  0  0  0
   -0.0897    0.2528   -0.1578 H   0  0  0  0  0  0  0  0  0  0  0  0
    3.3392    0.6042   -0.3942 H   0  0  0  0  0  0  0  0  0  0  0  0
    0.1113    2.8520   -0.3730 H   0  0  0  0  0  0  0  0  0  0  0  0
    1.8766    2.8346   -0.3178 H   0  0  0  0  0  0  0  0  0  0  0  0
    0.9497    2.2797    1.0801 H   0  0  0  0  0  0  0  0  0  0  0  0
   -0.0358   -2.5193   -0.4277 C   0  0  0  0  0  0  0  0  0  0  0  0
   -0.7939   -1.8352    0.4139 C   0  0  0  0  0  0  0  0  0  0  0  0
   -1.1606   -0.3809    0.2684 C   0  0  0  0  0  3  0  0  0  0  0  0
   -0.6618    0.4230    1.4660 C   0  0  0  0  0  0  0  0  0  0  0  0
   -2.6460   -0.2691    0.0291 C   0  0  0  0  0  0  0  0  0  0  0  0
   -3.5249    0.3711    0.7845 C   0  0  0  0  0  0  0  0  0  0  0  0
    0.1898   -3.5657   -0.2649 H   0  0  0  0  0  0  0  0  0  0  0  0
    0.3884   -2.0555   -1.3120 H   0  0  0  0  0  0  0  0  0  0  0  0
   -1.2066   -2.3306    1.2902 H   0  0  0  0  0  0  0  0  0  0  0  0
   -0.9112    1.4802    1.3617 H   0  0  0  0  0  0  0  0  0  0  0  0
    0.4211    0.3324    1.5540 H   0  0  0  0  0  0  0  0  0  0  0  0
   -1.1050    0.0597    2.3961 H   0  0  0  0  0  0  0  0  0  0  0  0
   -2.9976   -0.7942   -0.8552 H   0  0  0  0  0  0  0  0  0  0  0  0
   -3.2372    0.9081    1.6803 H   0  0  0  0  0  0  0  0  0  0  0  0
   -4.5764    0.3822    0.5268 H   0  0  0  0  0  0  0  0  0  0  0  0
  1  2  1  0
  1  5  1  0
  1  6  1  0
  1  7  1  0
  2  4  1  0
  2  3  1  0
  2  8  1  0
  3  9  1  0
  4 10  1  0
  4 11  1  0
  4 12  1  0
 13 14  2  3
 13 19  1  0
 13 20  1  0
 14 15  1  0
 14 21  1  0
 15 16  1  0
 15 17  1  0
 16 22  1  0
 16 23  1  0
 16 24  1  0
 17 18  2  3
 17 25  1  0
 18 26  1  0
 18 27  1  0
M  RAD  1  15   2
M  END
>  <reaction>  (12) 
rxn_1916

>  <mol_properties>  (12) 
{"1": {"label": "*3", "atom_type": "Cs"}, "2": {"label": "*4", "atom_type": "S2s"}, "7": {"label": "*2", "atom_type": "H0"}, "13": {"label": "*0", "atom_type": "Cd"}, "14": {"label": "*1", "atom_type": "Cs"}}

>  <type>  (12) 
unop_8

>  <geom_source>  (12) 
Heuristics

$$$$

     RDKit          3D

 27 25  0  0  0  0  0  0  0  0999 V2000
    1.0422    0.6429   -2.0736 C   0  0  0  0  0  0  0  0  0  0  0  0
    1.0422    0.6429   -0.5512 C   0  0  0  0  0  0  0  0  0  0  0  0
    2.3973   -0.3734    0.1324 S   0  0  0  0  0  0  0  0  0  0  0  0
    1.0422    2.0529    0.0228 C   0  0  0  0  0  0  0  0  0  0  0  0
    1.0137   -0.3714   -2.4702 H   0  0  0  0  0  0  0  0  0  0  0  0
    1.9406    1.1326   -2.4571 H   0  0  0  0  0  0  0  0  0  0  0  0
    0.1753    1.1903   -2.4524 H   0  0  0  0  0  0  0  0  0  0  0  0
   -0.0257    0.0110   -0.1262 H   0  0  0  0  0  0  0  0  0  0  0  0
    3.4032    0.3624   -0.3626 H   0  0  0  0  0  0  0  0  0  0  0  0
    0.1753    2.6102   -0.3414 H   0  0  0  0  0  0  0  0  0  0  0  0
    1.9406    2.5928   -0.2862 H   0  0  0  0  0  0  0  0  0  0  0  0
    1.0137    2.0378    1.1117 H   0  0  0  0  0  0  0  0  0  0  0  0
   -1.9779   -0.0166   -1.9756 C   0  0  0  0  0  0  0  0  0  0  0  0
   -2.1760   -0.4257   -0.7329 C   0  0  0  0  0  0  0  0  0  0  0  0
   -1.0966   -0.6227    0.3000 C   0  0  0  0  0  3  0  0  0  0  0  0
   -1.0657   -2.0721    0.7772 C   0  0  0  0  0  0  0  0  0  0  0  0
   -1.2847    0.3848    1.4072 C   0  0  0  0  0  0  0  0  0  0  0  0
   -1.4982    0.1251    2.6878 C   0  0  0  0  0  0  0  0  0  0  0  0
   -2.7998    0.1055   -2.6698 H   0  0  0  0  0  0  0  0  0  0  0  0
   -0.9833    0.2106   -2.3447 H   0  0  0  0  0  0  0  0  0  0  0  0
   -3.1864   -0.6426   -0.3929 H   0  0  0  0  0  0  0  0  0  0  0  0
   -0.2771   -2.2264    1.5155 H   0  0  0  0  0  0  0  0  0  0  0  0
   -0.8839   -2.7405   -0.0647 H   0  0  0  0  0  0  0  0  0  0  0  0
   -2.0172   -2.3571    1.2319 H   0  0  0  0  0  0  0  0  0  0  0  0
   -1.2513    1.4207    1.0800 H   0  0  0  0  0  0  0  0  0  0  0  0
   -1.5473   -0.8859    3.0739 H   0  0  0  0  0  0  0  0  0  0  0  0
   -1.6299    0.9266    3.4036 H   0  0  0  0  0  0  0  0  0  0  0  0
  1  2  1  0
  1  5  1  0
  1  6  1  0
  1  7  1  0
  2  4  1  0
  2  3  1  0
  2  8  1  0
  3  9  1  0
  4 10  1  0
  4 11  1  0
  4 12  1  0
 13 14  2  3
 13 19  1  0
 13 20  1  0
 14 15  1  0
 14 21  1  0
 15 16  1  0
 15 17  1  0
 16 22  1  0
 16 23  1  0
 16 24  1  0
 17 18  2  3
 17 25  1  0
 18 26  1  0
 18 27  1  0
M  RAD  1  15   2
M  END
>  <reaction>  (13) 
rxn_1916

>  <mol_properties>  (13) 
{"1": {"label": "*3", "atom_type": "Cs"}, "2": {"label": "*4", "atom_type": "S2s"}, "7": {"label": "*2", "atom_type": "H0"}, "13": {"label": "*0", "atom_type": "Cd"}, "14": {"label": "*1", "atom_type": "Cs"}}

>  <type>  (13) 
unop_9

>  <geom_source>  (13) 
Heuristics

$$$$

     RDKit          3D

 27 25  0  0  0  0  0  0  0  0999 V2000
    0.9991    0.8848   -2.0550 C   0  0  0  0  0  0  0  0  0  0  0  0
    0.9991    0.8848   -0.5327 C   0  0  0  0  0  0  0  0  0  0  0  0
    2.3543   -0.1315    0.1509 S   0  0  0  0  0  0  0  0  0  0  0  0
    0.9991    2.2948    0.0413 C   0  0  0  0  0  0  0  0  0  0  0  0
    0.9706   -0.1295   -2.4517 H   0  0  0  0  0  0  0  0  0  0  0  0
    1.8976    1.3745   -2.4386 H   0  0  0  0  0  0  0  0  0  0  0  0
    0.1322    1.4322   -2.4339 H   0  0  0  0  0  0  0  0  0  0  0  0
   -0.0687    0.2529   -0.1077 H   0  0  0  0  0  0  0  0  0  0  0  0
    3.3602    0.6043   -0.3441 H   0  0  0  0  0  0  0  0  0  0  0  0
    0.1322    2.8521   -0.3229 H   0  0  0  0  0  0  0  0  0  0  0  0
    1.8976    2.8347   -0.2677 H   0  0  0  0  0  0  0  0  0  0  0  0
    0.9706    2.2798    1.1302 H   0  0  0  0  0  0  0  0  0  0  0  0
   -0.5488   -2.1377   -1.3804 C   0  0  0  0  0  0  0  0  0  0  0  0
   -1.0716   -1.7879   -0.2163 C   0  0  0  0  0  0  0  0  0  0  0  0
   -1.1397   -0.3808    0.3185 C   0  0  0  0  0  3  0  0  0  0  0  0
   -0.3820   -0.2690    1.6387 C   0  0  0  0  0  0  0  0  0  0  0  0
   -2.5846    0.0452    0.4014 C   0  0  0  0  0  0  0  0  0  0  0  0
   -3.2419    0.4121    1.4906 C   0  0  0  0  0  0  0  0  0  0  0  0
   -0.5320   -3.1700   -1.7069 H   0  0  0  0  0  0  0  0  0  0  0  0
   -0.1164   -1.4020   -2.0504 H   0  0  0  0  0  0  0  0  0  0  0  0
   -1.5000   -2.5499    0.4314 H   0  0  0  0  0  0  0  0  0  0  0  0
   -0.4147    0.7508    2.0259 H   0  0  0  0  0  0  0  0  0  0  0  0
    0.6619   -0.5497    1.4972 H   0  0  0  0  0  0  0  0  0  0  0  0
   -0.8080   -0.9330    2.3944 H   0  0  0  0  0  0  0  0  0  0  0  0
   -3.1135    0.0209   -0.5478 H   0  0  0  0  0  0  0  0  0  0  0  0
   -2.7717    0.4515    2.4658 H   0  0  0  0  0  0  0  0  0  0  0  0
   -4.2866    0.6922    1.4421 H   0  0  0  0  0  0  0  0  0  0  0  0
  1  2  1  0
  1  5  1  0
  1  6  1  0
  1  7  1  0
  2  4  1  0
  2  3  1  0
  2  8  1  0
  3  9  1  0
  4 10  1  0
  4 11  1  0
  4 12  1  0
 13 14  2  3
 13 19  1  0
 13 20  1  0
 14 15  1  0
 14 21  1  0
 15 16  1  0
 15 17  1  0
 16 22  1  0
 16 23  1  0
 16 24  1  0
 17 18  2  3
 17 25  1  0
 18 26  1  0
 18 27  1  0
M  RAD  1  15   2
M  END
>  <reaction>  (14) 
rxn_1916

>  <mol_properties>  (14) 
{"1": {"label": "*3", "atom_type": "Cs"}, "2": {"label": "*4", "atom_type": "S2s"}, "7": {"label": "*2", "atom_type": "H0"}, "13": {"label": "*0", "atom_type": "Cd"}, "14": {"label": "*1", "atom_type": "Cs"}}

>  <type>  (14) 
unop_10

>  <geom_source>  (14) 
Heuristics

$$$$

     RDKit          3D

 27 25  0  0  0  0  0  0  0  0999 V2000
    0.8283    0.8606   -2.2128 C   0  0  0  0  0  0  0  0  0  0  0  0
    0.8283    0.8606   -0.6905 C   0  0  0  0  0  0  0  0  0  0  0  0
    2.1834   -0.1557   -0.0069 S   0  0  0  0  0  0  0  0  0  0  0  0
    0.8283    2.2706   -0.1165 C   0  0  0  0  0  0  0  0  0  0  0  0
    0.7997   -0.1536   -2.6095 H   0  0  0  0  0  0  0  0  0  0  0  0
    1.7267    1.3504   -2.5964 H   0  0  0  0  0  0  0  0  0  0  0  0
   -0.0387    1.4081   -2.5917 H   0  0  0  0  0  0  0  0  0  0  0  0
   -0.2396    0.2288   -0.2655 H   0  0  0  0  0  0  0  0  0  0  0  0
    3.1893    0.5802   -0.5018 H   0  0  0  0  0  0  0  0  0  0  0  0
   -0.0387    2.8279   -0.4807 H   0  0  0  0  0  0  0  0  0  0  0  0
    1.7267    2.8105   -0.4255 H   0  0  0  0  0  0  0  0  0  0  0  0
    0.7997    2.2556    0.9725 H   0  0  0  0  0  0  0  0  0  0  0  0
   -1.3970    1.4315    1.8761 C   0  0  0  0  0  0  0  0  0  0  0  0
   -1.6951    0.2032    1.4848 C   0  0  0  0  0  0  0  0  0  0  0  0
   -1.3105   -0.4049    0.1608 C   0  0  0  0  0  3  0  0  0  0  0  0
   -2.5531   -0.8132   -0.6258 C   0  0  0  0  0  0  0  0  0  0  0  0
   -0.3374   -1.5326    0.4008 C   0  0  0  0  0  0  0  0  0  0  0  0
   -0.5018   -2.8050    0.0738 C   0  0  0  0  0  0  0  0  0  0  0  0
   -1.7038    1.8082    2.8438 H   0  0  0  0  0  0  0  0  0  0  0  0
   -0.8343    2.1069    1.2402 H   0  0  0  0  0  0  0  0  0  0  0  0
   -2.2583   -0.4504    2.1475 H   0  0  0  0  0  0  0  0  0  0  0  0
   -2.2836   -1.2418   -1.5925 H   0  0  0  0  0  0  0  0  0  0  0  0
   -3.1889    0.0552   -0.8002 H   0  0  0  0  0  0  0  0  0  0  0  0
   -3.1403   -1.5537   -0.0777 H   0  0  0  0  0  0  0  0  0  0  0  0
    0.5749   -1.2353    0.9114 H   0  0  0  0  0  0  0  0  0  0  0  0
   -1.3905   -3.1635   -0.4313 H   0  0  0  0  0  0  0  0  0  0  0  0
    0.2594   -3.5406    0.3010 H   0  0  0  0  0  0  0  0  0  0  0  0
  1  2  1  0
  1  5  1  0
  1  6  1  0
  1  7  1  0
  2  4  1  0
  2  3  1  0
  2  8  1  0
  3  9  1  0
  4 10  1  0
  4 11  1  0
  4 12  1  0
 13 14  2  3
 13 19  1  0
 13 20  1  0
 14 15  1  0
 14 21  1  0
 15 16  1  0
 15 17  1  0
 16 22  1  0
 16 23  1  0
 16 24  1  0
 17 18  2  3
 17 25  1  0
 18 26  1  0
 18 27  1  0
M  RAD  1  15   2
M  END
>  <reaction>  (15) 
rxn_1916

>  <mol_properties>  (15) 
{"1": {"label": "*3", "atom_type": "Cs"}, "2": {"label": "*4", "atom_type": "S2s"}, "7": {"label": "*2", "atom_type": "H0"}, "13": {"label": "*0", "atom_type": "Cd"}, "14": {"label": "*1", "atom_type": "Cs"}}

>  <type>  (15) 
unop_11

>  <geom_source>  (15) 
Heuristics

$$$$

     RDKit          3D

 27 25  0  0  0  0  0  0  0  0999 V2000
    1.0648    0.7352   -2.0120 C   0  0  0  0  0  0  0  0  0  0  0  0
    1.0648    0.7352   -0.4897 C   0  0  0  0  0  0  0  0  0  0  0  0
    2.4199   -0.2810    0.1939 S   0  0  0  0  0  0  0  0  0  0  0  0
    1.0648    2.1452    0.0843 C   0  0  0  0  0  0  0  0  0  0  0  0
    1.0362   -0.2790   -2.4087 H   0  0  0  0  0  0  0  0  0  0  0  0
    1.9632    1.2250   -2.3956 H   0  0  0  0  0  0  0  0  0  0  0  0
    0.1978    1.2827   -2.3909 H   0  0  0  0  0  0  0  0  0  0  0  0
   -0.0031    0.1034   -0.0647 H   0  0  0  0  0  0  0  0  0  0  0  0
    3.4258    0.4548   -0.3010 H   0  0  0  0  0  0  0  0  0  0  0  0
    0.1978    2.7025   -0.2799 H   0  0  0  0  0  0  0  0  0  0  0  0
    1.9632    2.6851   -0.2247 H   0  0  0  0  0  0  0  0  0  0  0  0
    1.0362    2.1302    1.1733 H   0  0  0  0  0  0  0  0  0  0  0  0
   -1.4957   -0.7432   -2.1082 C   0  0  0  0  0  0  0  0  0  0  0  0
   -1.8409   -0.9841   -0.8537 C   0  0  0  0  0  0  0  0  0  0  0  0
   -1.0741   -0.5303    0.3615 C   0  0  0  0  0  3  0  0  0  0  0  0
   -0.6272   -1.7283    1.1949 C   0  0  0  0  0  0  0  0  0  0  0  0
   -1.9060    0.4718    1.1230 C   0  0  0  0  0  0  0  0  0  0  0  0
   -2.3306    0.3637    2.3723 C   0  0  0  0  0  0  0  0  0  0  0  0
   -2.0931   -1.0982   -2.9385 H   0  0  0  0  0  0  0  0  0  0  0  0
   -0.5997   -0.1814   -2.3504 H   0  0  0  0  0  0  0  0  0  0  0  0
   -2.7473   -1.5482   -0.6443 H   0  0  0  0  0  0  0  0  0  0  0  0
   -0.0588   -1.4088    2.0699 H   0  0  0  0  0  0  0  0  0  0  0  0
    0.0033   -2.3870    0.5972 H   0  0  0  0  0  0  0  0  0  0  0  0
   -1.4854   -2.3092    1.5409 H   0  0  0  0  0  0  0  0  0  0  0  0
   -2.1795    1.3539    0.5499 H   0  0  0  0  0  0  0  0  0  0  0  0
   -2.0957   -0.4929    2.9925 H   0  0  0  0  0  0  0  0  0  0  0  0
   -2.9338    1.1411    2.8242 H   0  0  0  0  0  0  0  0  0  0  0  0
  1  2  1  0
  1  5  1  0
  1  6  1  0
  1  7  1  0
  2  4  1  0
  2  3  1  0
  2  8  1  0
  3  9  1  0
  4 10  1  0
  4 11  1  0
  4 12  1  0
 13 14  2  3
 13 19  1  0
 13 20  1  0
 14 15  1  0
 14 21  1  0
 15 16  1  0
 15 17  1  0
 16 22  1  0
 16 23  1  0
 16 24  1  0
 17 18  2  3
 17 25  1  0
 18 26  1  0
 18 27  1  0
M  RAD  1  15   2
M  END
>  <reaction>  (16) 
rxn_1916

>  <mol_properties>  (16) 
{"1": {"label": "*3", "atom_type": "Cs"}, "2": {"label": "*4", "atom_type": "S2s"}, "7": {"label": "*2", "atom_type": "H0"}, "13": {"label": "*0", "atom_type": "Cd"}, "14": {"label": "*1", "atom_type": "Cs"}}

>  <type>  (16) 
unop_12

>  <geom_source>  (16) 
Heuristics

$$$$

     RDKit          3D

 27 25  0  0  0  0  0  0  0  0999 V2000
   -2.3214    1.8334   -0.2637 S   0  0  0  0  0  0  0  0  0  0  0  0
    0.7597   -0.0120   -0.0223 C   0  0  0  0  0  0  0  0  0  0  0  0
    0.9418    0.2656    1.4752 C   0  0  0  0  0  0  0  0  0  0  0  0
   -2.6248   -0.4942    1.1810 C   0  0  0  0  0  0  0  0  0  0  0  0
   -2.0168   -0.7128   -1.2573 C   0  0  0  0  0  0  0  0  0  0  0  0
   -1.8322    0.1012    0.0199 C   0  0  0  0  0  3  0  0  0  0  0  0
    1.4648   -1.2697   -0.4774 C   0  0  0  0  0  0  0  0  0  0  0  0
    1.1133    1.1760   -0.8881 C   0  0  0  0  0  0  0  0  0  0  0  0
    2.7692   -1.4993   -0.2851 C   0  0  0  0  0  0  0  0  0  0  0  0
    2.2945    1.8032   -0.8397 C   0  0  0  0  0  0  0  0  0  0  0  0
   -0.5415   -0.2297   -0.2047 H   0  0  0  0  0  0  0  0  0  0  0  0
    0.5896   -0.6076    2.0642 H   0  0  0  0  0  0  0  0  0  0  0  0
    0.3370    1.1495    1.7691 H   0  0  0  0  0  0  0  0  0  0  0  0
    2.0039    0.4611    1.7302 H   0  0  0  0  0  0  0  0  0  0  0  0
   -3.7132   -0.4835    0.9575 H   0  0  0  0  0  0  0  0  0  0  0  0
   -2.3005   -1.5402    1.3648 H   0  0  0  0  0  0  0  0  0  0  0  0
   -2.4384    0.0937    2.1040 H   0  0  0  0  0  0  0  0  0  0  0  0
   -1.4042   -0.2733   -2.0721 H   0  0  0  0  0  0  0  0  0  0  0  0
   -3.0838   -0.7177   -1.5674 H   0  0  0  0  0  0  0  0  0  0  0  0
   -1.6794   -1.7579   -1.0932 H   0  0  0  0  0  0  0  0  0  0  0  0
    0.8771   -2.0260   -0.9887 H   0  0  0  0  0  0  0  0  0  0  0  0
    0.3649    1.5370   -1.5871 H   0  0  0  0  0  0  0  0  0  0  0  0
    3.2119   -2.4242   -0.6400 H   0  0  0  0  0  0  0  0  0  0  0  0
    3.4039   -0.7871    0.2285 H   0  0  0  0  0  0  0  0  0  0  0  0
    3.0758    1.4959   -0.1549 H   0  0  0  0  0  0  0  0  0  0  0  0
    2.4826    2.6497   -1.4921 H   0  0  0  0  0  0  0  0  0  0  0  0
   -1.7337    2.2687    0.9392 H   0  0  0  0  0  0  0  0  0  0  0  0
  1  6  1  0
  1 27  1  0
  2  3  1  0
  2  7  1  0
  2  8  1  0
  2 11  1  0
  3 12  1  0
  3 13  1  0
  3 14  1  0
  4  6  1  0
  4 15  1  0
  4 16  1  0
  4 17  1  0
  5  6  1  0
  5 18  1  0
  5 19  1  0
  5 20  1  0
  7  9  2  3
  7 21  1  0
  8 10  2  3
  8 22  1  0
  9 23  1  0
  9 24  1  0
 10 25  1  0
 10 26  1  0
M  RAD  1   6   2
M  END
>  <reaction>  (17) 
rxn_1916

>  <mol_properties>  (17) 
{"1": {"label": "*3", "atom_type": "Cs"}, "2": {"label": "*4", "atom_type": "S2s"}, "7": {"label": "*2", "atom_type": "H0"}, "13": {"label": "*0", "atom_type": "Cd"}, "14": {"label": "*1", "atom_type": "Cs"}}

>  <type>  (17) 
unop_13

>  <geom_source>  (17) 
AutoTST

$$$$
