
     RDKit          3D

  6  5  0  0  0  0  0  0  0  0999 V2000
   -0.5072   -0.0291   -0.0097 C   0  0  0  0  0  0  0  0  0  0  0  0
    1.1321   -0.1527   -0.7687 S   0  0  0  0  0  0  0  0  0  0  0  0
   -0.6174   -0.7330    0.8127 H   0  0  0  0  0  0  0  0  0  0  0  0
   -0.5863    0.9827    0.3845 H   0  0  0  0  0  0  0  0  0  0  0  0
   -1.2962   -0.1800   -0.7434 H   0  0  0  0  0  0  0  0  0  0  0  0
    1.0312   -1.4237   -1.1764 H   0  0  0  0  0  0  0  0  0  0  0  0
  1  2  1  0
  1  3  1  0
  1  4  1  0
  1  5  1  0
  2  6  1  0
M  END
>  <reaction>  (1) 
rxn_1823

>  <mol_properties>  (1) 
{"0": {"label": "donator", "atom_type": "Cs"}, "2": {"label": "d_hydrogen", "atom_type": "H0"}}

>  <type>  (1) 
r1h

$$$$

     RDKit          3D

  8  7  0  0  0  0  0  0  0  0999 V2000
   -2.2129    0.4855    0.7390 C   0  0  0  0  0  0  0  0  0  0  0  0
   -1.2226    0.0526    0.1974 C   0  0  0  0  0  0  0  0  0  0  0  0
   -0.1006   -0.4575   -0.4419 C   0  0  0  0  0  3  0  0  0  0  0  0
    1.1960   -0.1737   -0.0342 C   0  0  0  0  0  0  0  0  0  0  0  0
    2.3329    0.0603    0.3036 C   0  0  0  0  0  0  0  0  0  0  0  0
   -3.0803    0.8696    1.2198 H   0  0  0  0  0  0  0  0  0  0  0  0
   -0.2433   -1.1067   -1.2980 H   0  0  0  0  0  0  0  0  0  0  0  0
    3.3308    0.2700    0.6058 H   0  0  0  0  0  0  0  0  0  0  0  0
  1  2  3  0
  1  6  1  0
  2  3  1  0
  3  4  1  0
  3  7  1  0
  4  5  3  0
  5  8  1  0
M  RAD  1   3   2
M  END
>  <reaction>  (2) 
rxn_1823

>  <mol_properties>  (2) 
{"2": {"label": "acceptor", "atom_type": "Cs"}}

>  <type>  (2) 
r2

$$$$

     RDKit          3D

  9  8  0  0  0  0  0  0  0  0999 V2000
   -2.1022   -0.6873    0.3932 C   0  0  0  0  0  0  0  0  0  0  0  0
   -1.2072   -0.1086   -0.1482 C   0  0  0  0  0  0  0  0  0  0  0  0
   -0.1242    0.6105   -0.8193 C   0  0  0  0  0  0  0  0  0  0  0  0
    1.2067    0.1106   -0.4741 C   0  0  0  0  0  0  0  0  0  0  0  0
    2.3005   -0.2875   -0.2012 C   0  0  0  0  0  0  0  0  0  0  0  0
   -2.8942   -1.2059    0.8778 H   0  0  0  0  0  0  0  0  0  0  0  0
   -0.1862    1.6723   -0.5649 H   0  0  0  0  0  0  0  0  0  0  0  0
   -0.2641    0.5418   -1.9017 H   0  0  0  0  0  0  0  0  0  0  0  0
    3.2709   -0.6459    0.0455 H   0  0  0  0  0  0  0  0  0  0  0  0
  1  2  3  0
  1  6  1  0
  2  3  1  0
  3  4  1  0
  3  7  1  0
  3  8  1  0
  4  5  3  0
  5  9  1  0
M  END
>  <reaction>  (3) 
rxn_1823

>  <mol_properties>  (3) 
{"2": {"label": "acceptor", "atom_type": "Cs"}, "8": {"label": "a_hydrogen", "atom_type": "H0"}}

>  <type>  (3) 
r2h

$$$$

     RDKit          3D

 14 12  0  0  0  0  0  0  0  0999 V2000
   -0.0216    2.2136   -1.1410 C   0  0  0  0  0  0  0  0  0  0  0  0
   -0.1783    1.5795   -0.1341 C   0  0  0  0  0  0  0  0  0  0  0  0
   -0.3671    0.7478    1.0213 C   0  0  0  0  0  0  0  0  0  0  0  0
    0.6040    0.8644    2.0736 C   0  0  0  0  0  0  0  0  0  0  0  0
    1.4229    0.8987    2.9491 C   0  0  0  0  0  0  0  0  0  0  0  0
    0.1142    2.8063   -2.0133 H   0  0  0  0  0  0  0  0  0  0  0  0
   -1.3953    0.7542    1.3836 H   0  0  0  0  0  0  0  0  0  0  0  0
    2.1454    0.9513    3.7276 H   0  0  0  0  0  0  0  0  0  0  0  0
   -0.0844   -1.7214   -0.0507 C   0  0  0  0  0  3  0  0  0  0  0  0
   -1.1070   -1.7961   -1.4678 S   0  0  0  0  0  0  0  0  0  0  0  0
   -0.2591   -0.4641    0.5608 H   0  0  0  0  0  0  0  0  0  0  0  0
   -0.4007   -2.4327    0.7063 H   0  0  0  0  0  0  0  0  0  0  0  0
    0.9866   -1.7154   -0.2300 H   0  0  0  0  0  0  0  0  0  0  0  0
   -0.4317   -0.9072   -2.2086 H   0  0  0  0  0  0  0  0  0  0  0  0
  1  2  3  0
  1  6  1  0
  2  3  1  0
  3  4  1  0
  3  7  1  0
  3 11  1  0
  4  5  3  0
  5  8  1  0
  9 10  1  0
  9 12  1  0
  9 13  1  0
 10 14  1  0
M  RAD  1   9   2
M  END
>  <reaction>  (4) 
rxn_1823

>  <mol_properties>  (4) 
{"1": {"label": "*0", "atom_type": "Ct"}, "2": {"label": "*1", "atom_type": "Cs"}, "8": {"label": "*3", "atom_type": "Cs"}, "9": {"label": "*4", "atom_type": "S2s"}, "10": {"label": "*2", "atom_type": "H0"}}

>  <type>  (4) 
ts

$$$$

     RDKit          3D

 14 12  0  0  0  0  0  0  0  0999 V2000
   -2.0008    0.9333    2.2988 C   0  0  0  0  0  0  0  0  0  0  0  0
   -1.0229    0.7734    1.6300 C   0  0  0  0  0  0  0  0  0  0  0  0
    0.1738    0.5777    0.8115 C   0  0  0  0  0  3  0  0  0  0  0  0
    0.7893    1.8304    0.3731 C   0  0  0  0  0  0  0  0  0  0  0  0
    1.2923    2.8541    0.0148 C   0  0  0  0  0  0  0  0  0  0  0  0
   -2.8707    1.0756    2.8938 H   0  0  0  0  0  0  0  0  0  0  0  0
    0.9062   -0.0030    1.3791 H   0  0  0  0  0  0  0  0  0  0  0  0
    1.7397    3.7647   -0.3039 H   0  0  0  0  0  0  0  0  0  0  0  0
    0.1738   -1.8602   -0.1425 C   0  0  0  0  0  0  0  0  0  0  0  0
    0.1738   -1.8602   -1.9532 S   0  0  0  0  0  0  0  0  0  0  0  0
    0.1738   -0.6444    0.3332 H   0  0  0  0  0  0  0  0  0  0  0  0
   -0.7469   -2.3544    0.1634 H   0  0  0  0  0  0  0  0  0  0  0  0
    1.0182   -2.4202    0.2539 H   0  0  0  0  0  0  0  0  0  0  0  0
    1.3441   -1.2321   -2.1196 H   0  0  0  0  0  0  0  0  0  0  0  0
  1  2  3  0
  1  6  1  0
  2  3  1  0
  3  4  1  0
  3  7  1  0
  4  5  3  0
  5  8  1  0
  9 10  1  0
  9 11  1  0
  9 12  1  0
  9 13  1  0
 10 14  1  0
M  RAD  1   3   2
M  END
>  <reaction>  (5) 
rxn_1823

>  <mol_properties>  (5) 
{"1": {"label": "*0", "atom_type": "Ct"}, "2": {"label": "*1", "atom_type": "Cs"}, "8": {"label": "*3", "atom_type": "Cs"}, "9": {"label": "*4", "atom_type": "S2s"}, "10": {"label": "*2", "atom_type": "H0"}}

>  <type>  (5) 
unop_1

>  <geom_source>  (5) 
Heuristics

$$$$

     RDKit          3D

 14 12  0  0  0  0  0  0  0  0999 V2000
   -1.4223    2.1674   -0.6618 C   0  0  0  0  0  0  0  0  0  0  0  0
   -0.8577    1.4454    0.1057 C   0  0  0  0  0  0  0  0  0  0  0  0
   -0.1668    0.5618    1.0450 C   0  0  0  0  0  3  0  0  0  0  0  0
    1.0222    1.1672    1.6451 C   0  0  0  0  0  0  0  0  0  0  0  0
    1.9938    1.6619    2.1355 C   0  0  0  0  0  0  0  0  0  0  0  0
   -1.9245    2.8097   -1.3446 H   0  0  0  0  0  0  0  0  0  0  0  0
   -0.8599    0.2685    1.8385 H   0  0  0  0  0  0  0  0  0  0  0  0
    2.8581    2.1020    2.5717 H   0  0  0  0  0  0  0  0  0  0  0  0
   -0.1668   -1.8761    0.0910 C   0  0  0  0  0  0  0  0  0  0  0  0
   -0.1668   -1.8761   -1.7196 S   0  0  0  0  0  0  0  0  0  0  0  0
   -0.1668   -0.6603    0.5668 H   0  0  0  0  0  0  0  0  0  0  0  0
   -1.0875   -2.3703    0.3970 H   0  0  0  0  0  0  0  0  0  0  0  0
    0.6776   -2.4361    0.4875 H   0  0  0  0  0  0  0  0  0  0  0  0
    1.0035   -1.2480   -1.8860 H   0  0  0  0  0  0  0  0  0  0  0  0
  1  2  3  0
  1  6  1  0
  2  3  1  0
  3  4  1  0
  3  7  1  0
  4  5  3  0
  5  8  1  0
  9 10  1  0
  9 11  1  0
  9 12  1  0
  9 13  1  0
 10 14  1  0
M  RAD  1   3   2
M  END
>  <reaction>  (6) 
rxn_1823

>  <mol_properties>  (6) 
{"1": {"label": "*0", "atom_type": "Ct"}, "2": {"label": "*1", "atom_type": "Cs"}, "8": {"label": "*3", "atom_type": "Cs"}, "9": {"label": "*4", "atom_type": "S2s"}, "10": {"label": "*2", "atom_type": "H0"}}

>  <type>  (6) 
unop_2

>  <geom_source>  (6) 
Heuristics

$$$$

     RDKit          3D

 14 12  0  0  0  0  0  0  0  0999 V2000
   -1.0082    0.6538    3.1018 C   0  0  0  0  0  0  0  0  0  0  0  0
   -0.4436    0.6445    2.0481 C   0  0  0  0  0  0  0  0  0  0  0  0
    0.2473    0.6331    0.7586 C   0  0  0  0  0  3  0  0  0  0  0  0
    0.1236    1.8910    0.0218 C   0  0  0  0  0  0  0  0  0  0  0  0
    0.0225    2.9188   -0.5802 C   0  0  0  0  0  0  0  0  0  0  0  0
   -1.5104    0.6621    4.0392 H   0  0  0  0  0  0  0  0  0  0  0  0
    1.3065    0.4143    0.9205 H   0  0  0  0  0  0  0  0  0  0  0  0
   -0.0674    3.8332   -1.1157 H   0  0  0  0  0  0  0  0  0  0  0  0
    0.2473   -1.8048   -0.1954 C   0  0  0  0  0  0  0  0  0  0  0  0
    0.2473   -1.8048   -2.0061 S   0  0  0  0  0  0  0  0  0  0  0  0
    0.2473   -0.5890    0.2804 H   0  0  0  0  0  0  0  0  0  0  0  0
   -0.6734   -2.2990    0.1105 H   0  0  0  0  0  0  0  0  0  0  0  0
    1.0917   -2.3648    0.2011 H   0  0  0  0  0  0  0  0  0  0  0  0
    1.4176   -1.1767   -2.1725 H   0  0  0  0  0  0  0  0  0  0  0  0
  1  2  3  0
  1  6  1  0
  2  3  1  0
  3  4  1  0
  3  7  1  0
  4  5  3  0
  5  8  1  0
  9 10  1  0
  9 11  1  0
  9 12  1  0
  9 13  1  0
 10 14  1  0
M  RAD  1   3   2
M  END
>  <reaction>  (7) 
rxn_1823

>  <mol_properties>  (7) 
{"1": {"label": "*0", "atom_type": "Ct"}, "2": {"label": "*1", "atom_type": "Cs"}, "8": {"label": "*3", "atom_type": "Cs"}, "9": {"label": "*4", "atom_type": "S2s"}, "10": {"label": "*2", "atom_type": "H0"}}

>  <type>  (7) 
unop_3

>  <geom_source>  (7) 
Heuristics

$$$$

     RDKit          3D

 14 12  0  0  0  0  0  0  0  0999 V2000
    1.7165    2.3099   -0.1741 C   0  0  0  0  0  0  0  0  0  0  0  0
    0.7386    1.7385    0.2085 C   0  0  0  0  0  0  0  0  0  0  0  0
   -0.4580    1.0392    0.6768 C   0  0  0  0  0  3  0  0  0  0  0  0
   -0.2641    0.3434    1.9491 C   0  0  0  0  0  0  0  0  0  0  0  0
   -0.1056   -0.2252    2.9887 C   0  0  0  0  0  0  0  0  0  0  0  0
    2.5864    2.8182   -0.5146 H   0  0  0  0  0  0  0  0  0  0  0  0
   -1.2760    1.7575    0.7813 H   0  0  0  0  0  0  0  0  0  0  0  0
    0.0354   -0.7310    3.9135 H   0  0  0  0  0  0  0  0  0  0  0  0
   -0.4580   -1.3987   -0.2772 C   0  0  0  0  0  0  0  0  0  0  0  0
   -0.4580   -1.3987   -2.0878 S   0  0  0  0  0  0  0  0  0  0  0  0
   -0.4580   -0.1828    0.1986 H   0  0  0  0  0  0  0  0  0  0  0  0
   -1.3787   -1.8928    0.0288 H   0  0  0  0  0  0  0  0  0  0  0  0
    0.3863   -1.9587    0.1193 H   0  0  0  0  0  0  0  0  0  0  0  0
    0.7123   -0.7705   -2.2542 H   0  0  0  0  0  0  0  0  0  0  0  0
  1  2  3  0
  1  6  1  0
  2  3  1  0
  3  4  1  0
  3  7  1  0
  4  5  3  0
  5  8  1  0
  9 10  1  0
  9 11  1  0
  9 12  1  0
  9 13  1  0
 10 14  1  0
M  RAD  1   3   2
M  END
>  <reaction>  (8) 
rxn_1823

>  <mol_properties>  (8) 
{"1": {"label": "*0", "atom_type": "Ct"}, "2": {"label": "*1", "atom_type": "Cs"}, "8": {"label": "*3", "atom_type": "Cs"}, "9": {"label": "*4", "atom_type": "S2s"}, "10": {"label": "*2", "atom_type": "H0"}}

>  <type>  (8) 
unop_4

>  <geom_source>  (8) 
Heuristics

$$$$

     RDKit          3D

 14 12  0  0  0  0  0  0  0  0999 V2000
    0.3548    0.7191    3.3032 C   0  0  0  0  0  0  0  0  0  0  0  0
    0.3548    0.7649    2.1086 C   0  0  0  0  0  0  0  0  0  0  0  0
    0.3548    0.8210    0.6466 C   0  0  0  0  0  3  0  0  0  0  0  0
   -0.7842    1.5536    0.0932 C   0  0  0  0  0  0  0  0  0  0  0  0
   -1.7150    2.1523   -0.3591 C   0  0  0  0  0  0  0  0  0  0  0  0
    0.3548    0.6784    4.3659 H   0  0  0  0  0  0  0  0  0  0  0  0
    1.2826    1.2882    0.3051 H   0  0  0  0  0  0  0  0  0  0  0  0
   -2.5429    2.6848   -0.7615 H   0  0  0  0  0  0  0  0  0  0  0  0
    0.3548   -1.6169   -0.3074 C   0  0  0  0  0  0  0  0  0  0  0  0
    0.3548   -1.6169   -2.1180 S   0  0  0  0  0  0  0  0  0  0  0  0
    0.3548   -0.4010    0.1684 H   0  0  0  0  0  0  0  0  0  0  0  0
   -0.5659   -2.1110   -0.0014 H   0  0  0  0  0  0  0  0  0  0  0  0
    1.1991   -2.1769    0.0891 H   0  0  0  0  0  0  0  0  0  0  0  0
    1.5251   -0.9887   -2.2844 H   0  0  0  0  0  0  0  0  0  0  0  0
  1  2  3  0
  1  6  1  0
  2  3  1  0
  3  4  1  0
  3  7  1  0
  4  5  3  0
  5  8  1  0
  9 10  1  0
  9 11  1  0
  9 12  1  0
  9 13  1  0
 10 14  1  0
M  RAD  1   3   2
M  END
>  <reaction>  (9) 
rxn_1823

>  <mol_properties>  (9) 
{"1": {"label": "*0", "atom_type": "Ct"}, "2": {"label": "*1", "atom_type": "Cs"}, "8": {"label": "*3", "atom_type": "Cs"}, "9": {"label": "*4", "atom_type": "S2s"}, "10": {"label": "*2", "atom_type": "H0"}}

>  <type>  (9) 
unop_5

>  <geom_source>  (9) 
Heuristics

$$$$

     RDKit          3D

 14 12  0  0  0  0  0  0  0  0999 V2000
    2.2167    1.9695    0.8376 C   0  0  0  0  0  0  0  0  0  0  0  0
    1.0875    1.6038    0.6945 C   0  0  0  0  0  0  0  0  0  0  0  0
   -0.2943    1.1564    0.5194 C   0  0  0  0  0  3  0  0  0  0  0  0
   -0.7901    0.3505    1.6353 C   0  0  0  0  0  0  0  0  0  0  0  0
   -1.1951   -0.3081    2.5471 C   0  0  0  0  0  0  0  0  0  0  0  0
    3.2212    2.2948    0.9649 H   0  0  0  0  0  0  0  0  0  0  0  0
   -0.9410    2.0289    0.3914 H   0  0  0  0  0  0  0  0  0  0  0  0
   -1.5555   -0.8939    3.3582 H   0  0  0  0  0  0  0  0  0  0  0  0
   -0.2943   -1.2815   -0.4346 C   0  0  0  0  0  0  0  0  0  0  0  0
   -0.2943   -1.2815   -2.2452 S   0  0  0  0  0  0  0  0  0  0  0  0
   -0.2943   -0.0657    0.0412 H   0  0  0  0  0  0  0  0  0  0  0  0
   -1.2150   -1.7757   -0.1287 H   0  0  0  0  0  0  0  0  0  0  0  0
    0.5500   -1.8415   -0.0381 H   0  0  0  0  0  0  0  0  0  0  0  0
    0.8760   -0.6534   -2.4116 H   0  0  0  0  0  0  0  0  0  0  0  0
  1  2  3  0
  1  6  1  0
  2  3  1  0
  3  4  1  0
  3  7  1  0
  4  5  3  0
  5  8  1  0
  9 10  1  0
  9 11  1  0
  9 12  1  0
  9 13  1  0
 10 14  1  0
M  RAD  1   3   2
M  END
>  <reaction>  (10) 
rxn_1823

>  <mol_properties>  (10) 
{"1": {"label": "*0", "atom_type": "Ct"}, "2": {"label": "*1", "atom_type": "Cs"}, "8": {"label": "*3", "atom_type": "Cs"}, "9": {"label": "*4", "atom_type": "S2s"}, "10": {"label": "*2", "atom_type": "H0"}}

>  <type>  (10) 
unop_6

>  <geom_source>  (10) 
Heuristics

$$$$

     RDKit          3D

 14 12  0  0  0  0  0  0  0  0999 V2000
    2.1348    1.5424    1.9282 C   0  0  0  0  0  0  0  0  0  0  0  0
    1.1569    1.3824    1.2594 C   0  0  0  0  0  0  0  0  0  0  0  0
   -0.0398    1.1867    0.4408 C   0  0  0  0  0  3  0  0  0  0  0  0
   -1.1359    0.5372    1.1599 C   0  0  0  0  0  0  0  0  0  0  0  0
   -2.0316    0.0065    1.7475 C   0  0  0  0  0  0  0  0  0  0  0  0
    3.0047    1.6846    2.5232 H   0  0  0  0  0  0  0  0  0  0  0  0
   -0.3807    2.1557    0.0656 H   0  0  0  0  0  0  0  0  0  0  0  0
   -2.8284   -0.4656    2.2703 H   0  0  0  0  0  0  0  0  0  0  0  0
   -0.0398   -1.2512   -0.5131 C   0  0  0  0  0  0  0  0  0  0  0  0
   -0.0398   -1.2512   -2.3238 S   0  0  0  0  0  0  0  0  0  0  0  0
   -0.0398   -0.0353   -0.0374 H   0  0  0  0  0  0  0  0  0  0  0  0
   -0.9605   -1.7453   -0.2072 H   0  0  0  0  0  0  0  0  0  0  0  0
    0.8046   -1.8112   -0.1167 H   0  0  0  0  0  0  0  0  0  0  0  0
    1.1305   -0.6230   -2.4902 H   0  0  0  0  0  0  0  0  0  0  0  0
  1  2  3  0
  1  6  1  0
  2  3  1  0
  3  4  1  0
  3  7  1  0
  4  5  3  0
  5  8  1  0
  9 10  1  0
  9 11  1  0
  9 12  1  0
  9 13  1  0
 10 14  1  0
M  RAD  1   3   2
M  END
>  <reaction>  (11) 
rxn_1823

>  <mol_properties>  (11) 
{"1": {"label": "*0", "atom_type": "Ct"}, "2": {"label": "*1", "atom_type": "Cs"}, "8": {"label": "*3", "atom_type": "Cs"}, "9": {"label": "*4", "atom_type": "S2s"}, "10": {"label": "*2", "atom_type": "H0"}}

>  <type>  (11) 
unop_7

>  <geom_source>  (11) 
Heuristics

$$$$

     RDKit          3D

 14 12  0  0  0  0  0  0  0  0999 V2000
   -2.3870    1.3598    1.2086 C   0  0  0  0  0  0  0  0  0  0  0  0
   -1.2578    0.9942    1.0655 C   0  0  0  0  0  0  0  0  0  0  0  0
    0.1240    0.5467    0.8904 C   0  0  0  0  0  3  0  0  0  0  0  0
    1.0896    1.6450    0.8476 C   0  0  0  0  0  0  0  0  0  0  0  0
    1.8786    2.5424    0.8126 C   0  0  0  0  0  0  0  0  0  0  0  0
   -3.3914    1.6851    1.3359 H   0  0  0  0  0  0  0  0  0  0  0  0
    0.3879   -0.1320    1.7063 H   0  0  0  0  0  0  0  0  0  0  0  0
    2.5805    3.3408    0.7815 H   0  0  0  0  0  0  0  0  0  0  0  0
    0.1240   -1.8912   -0.0636 C   0  0  0  0  0  0  0  0  0  0  0  0
    0.1240   -1.8912   -1.8743 S   0  0  0  0  0  0  0  0  0  0  0  0
    0.1240   -0.6754    0.4122 H   0  0  0  0  0  0  0  0  0  0  0  0
   -0.7966   -2.3854    0.2423 H   0  0  0  0  0  0  0  0  0  0  0  0
    0.9684   -2.4512    0.3329 H   0  0  0  0  0  0  0  0  0  0  0  0
    1.2943   -1.2631   -2.0407 H   0  0  0  0  0  0  0  0  0  0  0  0
  1  2  3  0
  1  6  1  0
  2  3  1  0
  3  4  1  0
  3  7  1  0
  4  5  3  0
  5  8  1  0
  9 10  1  0
  9 11  1  0
  9 12  1  0
  9 13  1  0
 10 14  1  0
M  RAD  1   3   2
M  END
>  <reaction>  (12) 
rxn_1823

>  <mol_properties>  (12) 
{"1": {"label": "*0", "atom_type": "Ct"}, "2": {"label": "*1", "atom_type": "Cs"}, "8": {"label": "*3", "atom_type": "Cs"}, "9": {"label": "*4", "atom_type": "S2s"}, "10": {"label": "*2", "atom_type": "H0"}}

>  <type>  (12) 
unop_8

>  <geom_source>  (12) 
Heuristics

$$$$

     RDKit          3D

 14 12  0  0  0  0  0  0  0  0999 V2000
    0.7649    2.4701   -0.8460 C   0  0  0  0  0  0  0  0  0  0  0  0
    0.2003    1.7481   -0.0784 C   0  0  0  0  0  0  0  0  0  0  0  0
   -0.4906    0.8645    0.8609 C   0  0  0  0  0  3  0  0  0  0  0  0
    0.3115    0.5245    2.0362 C   0  0  0  0  0  0  0  0  0  0  0  0
    0.9669    0.2467    2.9966 C   0  0  0  0  0  0  0  0  0  0  0  0
    1.2672    3.1124   -1.5288 H   0  0  0  0  0  0  0  0  0  0  0  0
   -1.4195    1.3414    1.1857 H   0  0  0  0  0  0  0  0  0  0  0  0
    1.5500   -0.0005    3.8510 H   0  0  0  0  0  0  0  0  0  0  0  0
   -0.4906   -1.5734   -0.0931 C   0  0  0  0  0  0  0  0  0  0  0  0
   -0.4906   -1.5734   -1.9038 S   0  0  0  0  0  0  0  0  0  0  0  0
   -0.4906   -0.3576    0.3826 H   0  0  0  0  0  0  0  0  0  0  0  0
   -1.4112   -2.0676    0.2128 H   0  0  0  0  0  0  0  0  0  0  0  0
    0.3538   -2.1334    0.3033 H   0  0  0  0  0  0  0  0  0  0  0  0
    0.6797   -0.9453   -2.0702 H   0  0  0  0  0  0  0  0  0  0  0  0
  1  2  3  0
  1  6  1  0
  2  3  1  0
  3  4  1  0
  3  7  1  0
  4  5  3  0
  5  8  1  0
  9 10  1  0
  9 11  1  0
  9 12  1  0
  9 13  1  0
 10 14  1  0
M  RAD  1   3   2
M  END
>  <reaction>  (13) 
rxn_1823

>  <mol_properties>  (13) 
{"1": {"label": "*0", "atom_type": "Ct"}, "2": {"label": "*1", "atom_type": "Cs"}, "8": {"label": "*3", "atom_type": "Cs"}, "9": {"label": "*4", "atom_type": "S2s"}, "10": {"label": "*2", "atom_type": "H0"}}

>  <type>  (13) 
unop_9

>  <geom_source>  (13) 
Heuristics

$$$$

     RDKit          3D

 14 12  0  0  0  0  0  0  0  0999 V2000
   -2.1557    1.8001    0.1361 C   0  0  0  0  0  0  0  0  0  0  0  0
   -1.1778    1.2287    0.5188 C   0  0  0  0  0  0  0  0  0  0  0  0
    0.0189    0.5294    0.9870 C   0  0  0  0  0  3  0  0  0  0  0  0
    1.1345    1.4259    1.2904 C   0  0  0  0  0  0  0  0  0  0  0  0
    2.0462    2.1585    1.5383 C   0  0  0  0  0  0  0  0  0  0  0  0
   -3.0256    2.3084   -0.2043 H   0  0  0  0  0  0  0  0  0  0  0  0
   -0.2300   -0.0495    1.8808 H   0  0  0  0  0  0  0  0  0  0  0  0
    2.8571    2.8102    1.7588 H   0  0  0  0  0  0  0  0  0  0  0  0
    0.0189   -1.9085    0.0330 C   0  0  0  0  0  0  0  0  0  0  0  0
    0.0189   -1.9085   -1.7776 S   0  0  0  0  0  0  0  0  0  0  0  0
    0.0189   -0.6927    0.5088 H   0  0  0  0  0  0  0  0  0  0  0  0
   -0.9018   -2.4026    0.3390 H   0  0  0  0  0  0  0  0  0  0  0  0
    0.8633   -2.4685    0.4295 H   0  0  0  0  0  0  0  0  0  0  0  0
    1.1892   -1.2804   -1.9440 H   0  0  0  0  0  0  0  0  0  0  0  0
  1  2  3  0
  1  6  1  0
  2  3  1  0
  3  4  1  0
  3  7  1  0
  4  5  3  0
  5  8  1  0
  9 10  1  0
  9 11  1  0
  9 12  1  0
  9 13  1  0
 10 14  1  0
M  RAD  1   3   2
M  END
>  <reaction>  (14) 
rxn_1823

>  <mol_properties>  (14) 
{"1": {"label": "*0", "atom_type": "Ct"}, "2": {"label": "*1", "atom_type": "Cs"}, "8": {"label": "*3", "atom_type": "Cs"}, "9": {"label": "*4", "atom_type": "S2s"}, "10": {"label": "*2", "atom_type": "H0"}}

>  <type>  (14) 
unop_10

>  <geom_source>  (14) 
Heuristics

$$$$

     RDKit          3D

 14 12  0  0  0  0  0  0  0  0999 V2000
    1.4924    1.1041    2.8278 C   0  0  0  0  0  0  0  0  0  0  0  0
    0.9278    1.0948    1.7741 C   0  0  0  0  0  0  0  0  0  0  0  0
    0.2369    1.0834    0.4845 C   0  0  0  0  0  3  0  0  0  0  0  0
   -1.2137    0.9347    0.6037 C   0  0  0  0  0  0  0  0  0  0  0  0
   -2.3990    0.8132    0.7011 C   0  0  0  0  0  0  0  0  0  0  0  0
    1.9946    1.1124    3.7652 H   0  0  0  0  0  0  0  0  0  0  0  0
    0.4602    2.0105   -0.0508 H   0  0  0  0  0  0  0  0  0  0  0  0
   -3.4534    0.7052    0.7877 H   0  0  0  0  0  0  0  0  0  0  0  0
    0.2369   -1.3545   -0.4695 C   0  0  0  0  0  0  0  0  0  0  0  0
    0.2369   -1.3545   -2.2801 S   0  0  0  0  0  0  0  0  0  0  0  0
    0.2369   -0.1386    0.0063 H   0  0  0  0  0  0  0  0  0  0  0  0
   -0.6838   -1.8486   -0.1635 H   0  0  0  0  0  0  0  0  0  0  0  0
    1.0812   -1.9145   -0.0730 H   0  0  0  0  0  0  0  0  0  0  0  0
    1.4072   -0.7263   -2.4465 H   0  0  0  0  0  0  0  0  0  0  0  0
  1  2  3  0
  1  6  1  0
  2  3  1  0
  3  4  1  0
  3  7  1  0
  4  5  3  0
  5  8  1  0
  9 10  1  0
  9 11  1  0
  9 12  1  0
  9 13  1  0
 10 14  1  0
M  RAD  1   3   2
M  END
>  <reaction>  (15) 
rxn_1823

>  <mol_properties>  (15) 
{"1": {"label": "*0", "atom_type": "Ct"}, "2": {"label": "*1", "atom_type": "Cs"}, "8": {"label": "*3", "atom_type": "Cs"}, "9": {"label": "*4", "atom_type": "S2s"}, "10": {"label": "*2", "atom_type": "H0"}}

>  <type>  (15) 
unop_11

>  <geom_source>  (15) 
Heuristics

$$$$

     RDKit          3D

 14 12  0  0  0  0  0  0  0  0999 V2000
   -0.3746    2.4093   -1.0160 C   0  0  0  0  0  0  0  0  0  0  0  0
   -0.3746    1.6322   -0.1076 C   0  0  0  0  0  0  0  0  0  0  0  0
   -0.3746    0.6811    1.0041 C   0  0  0  0  0  3  0  0  0  0  0  0
    0.7644    0.8435    1.9078 C   0  0  0  0  0  0  0  0  0  0  0  0
    1.6951    0.9762    2.6463 C   0  0  0  0  0  0  0  0  0  0  0  0
   -0.3746    3.1007   -1.8241 H   0  0  0  0  0  0  0  0  0  0  0  0
   -1.3025    0.7925    1.5720 H   0  0  0  0  0  0  0  0  0  0  0  0
    2.5231    1.0942    3.3032 H   0  0  0  0  0  0  0  0  0  0  0  0
   -0.3746   -1.7568    0.0501 C   0  0  0  0  0  0  0  0  0  0  0  0
   -0.3746   -1.7568   -1.7605 S   0  0  0  0  0  0  0  0  0  0  0  0
   -0.3746   -0.5409    0.5259 H   0  0  0  0  0  0  0  0  0  0  0  0
   -1.2953   -2.2509    0.3561 H   0  0  0  0  0  0  0  0  0  0  0  0
    0.4698   -2.3168    0.4466 H   0  0  0  0  0  0  0  0  0  0  0  0
    0.7957   -1.1286   -1.9269 H   0  0  0  0  0  0  0  0  0  0  0  0
  1  2  3  0
  1  6  1  0
  2  3  1  0
  3  4  1  0
  3  7  1  0
  4  5  3  0
  5  8  1  0
  9 10  1  0
  9 11  1  0
  9 12  1  0
  9 13  1  0
 10 14  1  0
M  RAD  1   3   2
M  END
>  <reaction>  (16) 
rxn_1823

>  <mol_properties>  (16) 
{"1": {"label": "*0", "atom_type": "Ct"}, "2": {"label": "*1", "atom_type": "Cs"}, "8": {"label": "*3", "atom_type": "Cs"}, "9": {"label": "*4", "atom_type": "S2s"}, "10": {"label": "*2", "atom_type": "H0"}}

>  <type>  (16) 
unop_12

>  <geom_source>  (16) 
Heuristics

$$$$

     RDKit          3D

 14 12  0  0  0  0  0  0  0  0999 V2000
    2.8186   -0.2501    1.0347 S   0  0  0  0  0  0  0  0  0  0  0  0
   -0.8382   -0.2919   -0.5037 C   0  0  0  0  0  3  0  0  0  0  0  0
    1.7450   -0.7062   -0.3548 C   0  0  0  0  0  0  0  0  0  0  0  0
   -1.7420   -0.7124    0.5688 C   0  0  0  0  0  0  0  0  0  0  0  0
   -0.7676    1.1700   -0.5458 C   0  0  0  0  0  0  0  0  0  0  0  0
   -2.4856   -1.0607    1.4516 C   0  0  0  0  0  0  0  0  0  0  0  0
   -0.7078    2.3737   -0.5818 C   0  0  0  0  0  0  0  0  0  0  0  0
   -1.2161   -0.6716   -1.4753 H   0  0  0  0  0  0  0  0  0  0  0  0
    0.4357   -0.8111   -0.2670 H   0  0  0  0  0  0  0  0  0  0  0  0
    2.2313   -0.4202   -1.3103 H   0  0  0  0  0  0  0  0  0  0  0  0
    1.5717   -1.8019   -0.3432 H   0  0  0  0  0  0  0  0  0  0  0  0
    2.7488    1.1185    0.7135 H   0  0  0  0  0  0  0  0  0  0  0  0
   -3.1383   -1.3663    2.2266 H   0  0  0  0  0  0  0  0  0  0  0  0
   -0.6555    3.4302   -0.6134 H   0  0  0  0  0  0  0  0  0  0  0  0
  1  3  1  0
  1 12  1  0
  2  4  1  0
  2  5  1  0
  2  8  1  0
  3  9  1  0
  3 10  1  0
  3 11  1  0
  4  6  3  0
  5  7  3  0
  6 13  1  0
  7 14  1  0
M  RAD  1   2   2
M  END
>  <reaction>  (17) 
rxn_1823

>  <mol_properties>  (17) 
{"1": {"label": "*0", "atom_type": "Ct"}, "2": {"label": "*1", "atom_type": "Cs"}, "8": {"label": "*3", "atom_type": "Cs"}, "9": {"label": "*4", "atom_type": "S2s"}, "10": {"label": "*2", "atom_type": "H0"}}

>  <type>  (17) 
unop_13

>  <geom_source>  (17) 
AutoTST

$$$$
