
     RDKit          3D

 16 15  0  0  0  0  0  0  0  0999 V2000
    1.7961   -0.3807    1.6176 C   0  0  0  0  0  0  0  0  0  0  0  0
    0.8562   -0.8708    0.8256 C   0  0  0  0  0  0  0  0  0  0  0  0
    0.0895   -0.0826   -0.2048 C   0  0  0  0  0  0  0  0  0  0  0  0
   -1.4061   -0.1111    0.0982 C   0  0  0  0  0  0  0  0  0  0  0  0
    0.4476   -0.5902   -1.5797 C   0  0  0  0  0  0  0  0  0  0  0  0
   -0.3793   -1.1113   -2.4728 C   0  0  0  0  0  0  0  0  0  0  0  0
    2.3110   -1.0032    2.3386 H   0  0  0  0  0  0  0  0  0  0  0  0
    2.0846    0.6643    1.5737 H   0  0  0  0  0  0  0  0  0  0  0  0
    0.5921   -1.9241    0.8925 H   0  0  0  0  0  0  0  0  0  0  0  0
    0.4358    0.9557   -0.1462 H   0  0  0  0  0  0  0  0  0  0  0  0
   -1.5968    0.3080    1.0865 H   0  0  0  0  0  0  0  0  0  0  0  0
   -1.9674    0.4693   -0.6359 H   0  0  0  0  0  0  0  0  0  0  0  0
   -1.7902   -1.1338    0.0883 H   0  0  0  0  0  0  0  0  0  0  0  0
    1.5049   -0.5197   -1.8214 H   0  0  0  0  0  0  0  0  0  0  0  0
   -1.4421   -1.2131   -2.2889 H   0  0  0  0  0  0  0  0  0  0  0  0
   -0.0162   -1.4558   -3.4328 H   0  0  0  0  0  0  0  0  0  0  0  0
  1  2  2  3
  1  7  1  0
  1  8  1  0
  2  3  1  0
  2  9  1  0
  3  4  1  0
  3  5  1  0
  3 10  1  0
  4 11  1  0
  4 12  1  0
  4 13  1  0
  5  6  2  3
  5 14  1  0
  6 15  1  0
  6 16  1  0
M  END
>  <reaction>  (1) 
rxn_1196

>  <mol_properties>  (1) 
{"2": {"label": "donator", "atom_type": "Cs"}, "9": {"label": "d_hydrogen", "atom_type": "H0"}}

>  <type>  (1) 
r1h

$$$$

     RDKit          3D

 12 11  0  0  0  0  0  0  0  0999 V2000
    2.7049    0.9350   -0.4404 S   0  0  0  0  0  1  0  0  0  0  0  0
    1.0313    1.0813   -0.4080 C   0  0  0  0  0  0  0  0  0  0  0  0
    0.1364    0.1019   -0.0473 C   0  0  0  0  0  0  0  0  0  0  0  0
    0.5360   -1.2679    0.3784 C   0  0  0  0  0  0  0  0  0  0  0  0
   -1.3304    0.3842   -0.0689 C   0  0  0  0  0  0  0  0  0  0  0  0
    0.6069    2.0398   -0.6990 H   0  0  0  0  0  0  0  0  0  0  0  0
    0.1578   -1.4699    1.3849 H   0  0  0  0  0  0  0  0  0  0  0  0
    0.0783   -2.0109   -0.2814 H   0  0  0  0  0  0  0  0  0  0  0  0
    1.6154   -1.3973    0.3689 H   0  0  0  0  0  0  0  0  0  0  0  0
   -1.8406   -0.3126   -0.7406 H   0  0  0  0  0  0  0  0  0  0  0  0
   -1.5514    1.4016   -0.3887 H   0  0  0  0  0  0  0  0  0  0  0  0
   -1.7610    0.2281    0.9247 H   0  0  0  0  0  0  0  0  0  0  0  0
  1  2  1  0
  2  3  2  3
  2  6  1  0
  3  4  1  0
  3  5  1  0
  4  7  1  0
  4  8  1  0
  4  9  1  0
  5 10  1  0
  5 11  1  0
  5 12  1  0
M  RAD  1   1   2
M  END
>  <reaction>  (2) 
rxn_1196

>  <mol_properties>  (2) 
{"2": {"label": "acceptor", "atom_type": "Cs"}}

>  <type>  (2) 
r2

$$$$

     RDKit          3D

 13 12  0  0  0  0  0  0  0  0999 V2000
    2.7452   -1.1134   -0.3601 S   0  0  0  0  0  0  0  0  0  0  0  0
    1.4120   -0.4899    0.2856 C   0  0  0  0  0  0  0  0  0  0  0  0
    0.1714   -0.0257   -0.4180 C   0  0  0  0  0  0  0  0  0  0  0  0
   -0.0717    1.4493   -0.0658 C   0  0  0  0  0  0  0  0  0  0  0  0
    0.1609   -0.2576   -1.9191 C   0  0  0  0  0  0  0  0  0  0  0  0
    1.3665   -0.3550    1.3690 H   0  0  0  0  0  0  0  0  0  0  0  0
   -0.6453   -0.6023    0.0382 H   0  0  0  0  0  0  0  0  0  0  0  0
    0.7161    2.0755   -0.4895 H   0  0  0  0  0  0  0  0  0  0  0  0
   -0.0915    1.6095    1.0136 H   0  0  0  0  0  0  0  0  0  0  0  0
   -1.0268    1.7797   -0.4755 H   0  0  0  0  0  0  0  0  0  0  0  0
    0.3131   -1.3093   -2.1616 H   0  0  0  0  0  0  0  0  0  0  0  0
    0.9567    0.3095   -2.4051 H   0  0  0  0  0  0  0  0  0  0  0  0
   -0.7945    0.0619   -2.3384 H   0  0  0  0  0  0  0  0  0  0  0  0
  1  2  2  0
  2  3  1  0
  2  6  1  0
  3  4  1  0
  3  5  1  0
  3  7  1  0
  4  8  1  0
  4  9  1  0
  4 10  1  0
  5 11  1  0
  5 12  1  0
  5 13  1  0
M  END
>  <reaction>  (3) 
rxn_1196

>  <mol_properties>  (3) 
{"0": {"label": "a_hydrogen", "atom_type": "H0"}, "3": {"label": "acceptor", "atom_type": "Cs"}}

>  <type>  (3) 
r2h

$$$$

     RDKit          3D

 28 26  0  0  0  0  0  0  0  0999 V2000
    1.0982   -3.1166   -1.2396 C   0  0  0  0  0  0  0  0  0  0  0  0
    0.0188   -2.4853   -0.7754 C   0  0  0  0  0  0  0  0  0  0  0  0
   -0.0377   -1.5537    0.3561 C   0  0  0  0  0  3  0  0  0  0  0  0
    1.1728   -1.4417    1.2493 C   0  0  0  0  0  0  0  0  0  0  0  0
   -1.3603   -1.4108    0.9750 C   0  0  0  0  0  0  0  0  0  0  0  0
   -1.6193   -0.8370    2.1503 C   0  0  0  0  0  0  0  0  0  0  0  0
    1.0270   -3.7729   -2.0968 H   0  0  0  0  0  0  0  0  0  0  0  0
    2.0738   -3.0162   -0.7815 H   0  0  0  0  0  0  0  0  0  0  0  0
   -0.9272   -2.6478   -1.2856 H   0  0  0  0  0  0  0  0  0  0  0  0
    0.0225   -0.3392   -0.2467 H   0  0  0  0  0  0  0  0  0  0  0  0
    2.0919   -1.4006    0.6668 H   0  0  0  0  0  0  0  0  0  0  0  0
    1.1343   -0.5342    1.8511 H   0  0  0  0  0  0  0  0  0  0  0  0
    1.2285   -2.3005    1.9230 H   0  0  0  0  0  0  0  0  0  0  0  0
   -2.1971   -1.7584    0.3751 H   0  0  0  0  0  0  0  0  0  0  0  0
   -0.8397   -0.4576    2.7980 H   0  0  0  0  0  0  0  0  0  0  0  0
   -2.6373   -0.7391    2.5036 H   0  0  0  0  0  0  0  0  0  0  0  0
    0.8089    2.4663    1.2681 S   0  0  0  0  0  0  0  0  0  0  0  0
   -0.1992    1.7221    0.2080 C   0  0  0  0  0  0  0  0  0  0  0  0
    0.1600    0.8438   -0.8688 C   0  0  0  0  0  0  0  0  0  0  0  0
   -0.8778    0.6602   -1.9548 C   0  0  0  0  0  0  0  0  0  0  0  0
    1.5909    0.7826   -1.3363 C   0  0  0  0  0  0  0  0  0  0  0  0
   -1.2725    1.8593    0.3389 H   0  0  0  0  0  0  0  0  0  0  0  0
   -0.8520    1.5007   -2.6533 H   0  0  0  0  0  0  0  0  0  0  0  0
   -0.6808   -0.2499   -2.5250 H   0  0  0  0  0  0  0  0  0  0  0  0
   -1.8841    0.5974   -1.5368 H   0  0  0  0  0  0  0  0  0  0  0  0
    1.7781   -0.1543   -1.8650 H   0  0  0  0  0  0  0  0  0  0  0  0
    2.2833    0.8754   -0.5016 H   0  0  0  0  0  0  0  0  0  0  0  0
    1.7919    1.6055   -2.0281 H   0  0  0  0  0  0  0  0  0  0  0  0
  1  2  2  3
  1  7  1  0
  1  8  1  0
  2  3  1  0
  2  9  1  0
  3  4  1  0
  3  5  1  0
  4 11  1  0
  4 12  1  0
  4 13  1  0
  5  6  2  3
  5 14  1  0
  6 15  1  0
  6 16  1  0
 10 19  1  0
 17 18  2  0
 18 19  1  0
 18 22  1  0
 19 20  1  0
 19 21  1  0
 20 23  1  0
 20 24  1  0
 20 25  1  0
 21 26  1  0
 21 27  1  0
 21 28  1  0
M  RAD  1   3   2
M  END
>  <reaction>  (4) 
rxn_1196

>  <mol_properties>  (4) 
{"1": {"label": "*4", "atom_type": "Cd"}, "2": {"label": "*3", "atom_type": "Cs"}, "9": {"label": "*2", "atom_type": "H0"}, "17": {"label": "*0", "atom_type": "CS"}, "18": {"label": "*1", "atom_type": "Cs"}}

>  <type>  (4) 
ts

$$$$

     RDKit          3D

 28 26  0  0  0  0  0  0  0  0999 V2000
    0.3091   -2.5857   -1.6744 C   0  0  0  0  0  0  0  0  0  0  0  0
    0.3091   -2.5857   -0.3512 C   0  0  0  0  0  0  0  0  0  0  0  0
    0.3091   -1.3549    0.5182 C   0  0  0  0  0  0  0  0  0  0  0  0
    1.5475   -1.3251    1.4098 C   0  0  0  0  0  0  0  0  0  0  0  0
   -0.9944   -1.2863    1.2748 C   0  0  0  0  0  0  0  0  0  0  0  0
   -1.1490   -1.2861    2.5897 C   0  0  0  0  0  0  0  0  0  0  0  0
    0.3084   -3.5083   -2.2411 H   0  0  0  0  0  0  0  0  0  0  0  0
    0.3109   -1.6599   -2.2401 H   0  0  0  0  0  0  0  0  0  0  0  0
    0.3044   -3.5315    0.1865 H   0  0  0  0  0  0  0  0  0  0  0  0
    0.3457   -0.3106   -0.2806 H   0  0  0  0  0  0  0  0  0  0  0  0
    2.4503   -1.3335    0.7986 H   0  0  0  0  0  0  0  0  0  0  0  0
    1.5622   -0.4294    2.0330 H   0  0  0  0  0  0  0  0  0  0  0  0
    1.5801   -2.1969    2.0675 H   0  0  0  0  0  0  0  0  0  0  0  0
   -1.8775   -1.2506    0.6422 H   0  0  0  0  0  0  0  0  0  0  0  0
   -0.3086   -1.3254    3.2722 H   0  0  0  0  0  0  0  0  0  0  0  0
   -2.1354   -1.2430    3.0339 H   0  0  0  0  0  0  0  0  0  0  0  0
   -1.0933    2.6140    0.3703 S   0  0  0  0  0  1  0  0  0  0  0  0
   -0.8676    1.5048   -0.7707 C   0  0  0  0  0  0  0  0  0  0  0  0
    0.3824    0.7364   -1.0815 C   0  0  0  0  0  0  0  0  0  0  0  0
    0.7677    0.9945   -2.5456 C   0  0  0  0  0  0  0  0  0  0  0  0
    1.5444    0.9935   -0.1374 C   0  0  0  0  0  0  0  0  0  0  0  0
   -1.6985    1.2594   -1.4365 H   0  0  0  0  0  0  0  0  0  0  0  0
    1.0635    2.0366   -2.6822 H   0  0  0  0  0  0  0  0  0  0  0  0
    1.6097    0.3616   -2.8285 H   0  0  0  0  0  0  0  0  0  0  0  0
   -0.0597    0.7827   -3.2251 H   0  0  0  0  0  0  0  0  0  0  0  0
    2.3900    0.3585   -0.4065 H   0  0  0  0  0  0  0  0  0  0  0  0
    1.2707    0.7885    0.8975 H   0  0  0  0  0  0  0  0  0  0  0  0
    1.8655    2.0351   -0.1917 H   0  0  0  0  0  0  0  0  0  0  0  0
  1  2  2  3
  1  7  1  0
  1  8  1  0
  2  3  1  0
  2  9  1  0
  3  4  1  0
  3  5  1  0
  3 10  1  0
  4 11  1  0
  4 12  1  0
  4 13  1  0
  5  6  2  3
  5 14  1  0
  6 15  1  0
  6 16  1  0
 17 18  1  0
 18 19  2  3
 18 22  1  0
 19 20  1  0
 19 21  1  0
 20 23  1  0
 20 24  1  0
 20 25  1  0
 21 26  1  0
 21 27  1  0
 21 28  1  0
M  RAD  1  17   2
M  END
>  <reaction>  (5) 
rxn_1196

>  <mol_properties>  (5) 
{"1": {"label": "*4", "atom_type": "Cd"}, "2": {"label": "*3", "atom_type": "Cs"}, "9": {"label": "*2", "atom_type": "H0"}, "17": {"label": "*0", "atom_type": "CS"}, "18": {"label": "*1", "atom_type": "Cs"}}

>  <type>  (5) 
unop_1

>  <geom_source>  (5) 
Heuristics

$$$$

     RDKit          3D

 28 26  0  0  0  0  0  0  0  0999 V2000
    0.4911   -2.2222   -1.0484 C   0  0  0  0  0  0  0  0  0  0  0  0
    0.4911   -2.2222    0.2749 C   0  0  0  0  0  0  0  0  0  0  0  0
    0.4911   -0.9914    1.1443 C   0  0  0  0  0  0  0  0  0  0  0  0
    1.7295   -0.9616    2.0359 C   0  0  0  0  0  0  0  0  0  0  0  0
   -0.8124   -0.9228    1.9008 C   0  0  0  0  0  0  0  0  0  0  0  0
   -0.9670   -0.9226    3.2157 C   0  0  0  0  0  0  0  0  0  0  0  0
    0.4904   -3.1448   -1.6151 H   0  0  0  0  0  0  0  0  0  0  0  0
    0.4929   -1.2964   -1.6141 H   0  0  0  0  0  0  0  0  0  0  0  0
    0.4864   -3.1680    0.8125 H   0  0  0  0  0  0  0  0  0  0  0  0
    0.5277    0.0529    0.3454 H   0  0  0  0  0  0  0  0  0  0  0  0
    2.6323   -0.9700    1.4246 H   0  0  0  0  0  0  0  0  0  0  0  0
    1.7442   -0.0659    2.6590 H   0  0  0  0  0  0  0  0  0  0  0  0
    1.7621   -1.8334    2.6935 H   0  0  0  0  0  0  0  0  0  0  0  0
   -1.6956   -0.8871    1.2682 H   0  0  0  0  0  0  0  0  0  0  0  0
   -0.1267   -0.9619    3.8983 H   0  0  0  0  0  0  0  0  0  0  0  0
   -1.9534   -0.8795    3.6599 H   0  0  0  0  0  0  0  0  0  0  0  0
   -1.6140    1.0485   -2.2054 S   0  0  0  0  0  1  0  0  0  0  0  0
   -0.1382    0.6563   -1.7040 C   0  0  0  0  0  0  0  0  0  0  0  0
    0.5644    1.1000   -0.4554 C   0  0  0  0  0  0  0  0  0  0  0  0
    1.8786    1.7906   -0.8489 C   0  0  0  0  0  0  0  0  0  0  0  0
   -0.2693    1.9610    0.4779 C   0  0  0  0  0  0  0  0  0  0  0  0
    0.4710   -0.0020   -2.3280 H   0  0  0  0  0  0  0  0  0  0  0  0
    1.6734    2.7244   -1.3764 H   0  0  0  0  0  0  0  0  0  0  0  0
    2.4607    2.0243    0.0432 H   0  0  0  0  0  0  0  0  0  0  0  0
    2.4890    1.1595   -1.4971 H   0  0  0  0  0  0  0  0  0  0  0  0
    0.3012    2.1936    1.3786 H   0  0  0  0  0  0  0  0  0  0  0  0
   -1.1903    1.4567    0.7699 H   0  0  0  0  0  0  0  0  0  0  0  0
   -0.5478    2.8993   -0.0047 H   0  0  0  0  0  0  0  0  0  0  0  0
  1  2  2  3
  1  7  1  0
  1  8  1  0
  2  3  1  0
  2  9  1  0
  3  4  1  0
  3  5  1  0
  3 10  1  0
  4 11  1  0
  4 12  1  0
  4 13  1  0
  5  6  2  3
  5 14  1  0
  6 15  1  0
  6 16  1  0
 17 18  1  0
 18 19  2  3
 18 22  1  0
 19 20  1  0
 19 21  1  0
 20 23  1  0
 20 24  1  0
 20 25  1  0
 21 26  1  0
 21 27  1  0
 21 28  1  0
M  RAD  1  17   2
M  END
>  <reaction>  (6) 
rxn_1196

>  <mol_properties>  (6) 
{"1": {"label": "*4", "atom_type": "Cd"}, "2": {"label": "*3", "atom_type": "Cs"}, "9": {"label": "*2", "atom_type": "H0"}, "17": {"label": "*0", "atom_type": "CS"}, "18": {"label": "*1", "atom_type": "Cs"}}

>  <type>  (6) 
unop_2

>  <geom_source>  (6) 
Heuristics

$$$$

     RDKit          3D

 28 26  0  0  0  0  0  0  0  0999 V2000
    0.0508   -2.6438   -1.6703 C   0  0  0  0  0  0  0  0  0  0  0  0
    0.0508   -2.6438   -0.3471 C   0  0  0  0  0  0  0  0  0  0  0  0
    0.0508   -1.4130    0.5223 C   0  0  0  0  0  0  0  0  0  0  0  0
    1.2892   -1.3832    1.4139 C   0  0  0  0  0  0  0  0  0  0  0  0
   -1.2527   -1.3444    1.2788 C   0  0  0  0  0  0  0  0  0  0  0  0
   -1.4073   -1.3442    2.5937 C   0  0  0  0  0  0  0  0  0  0  0  0
    0.0501   -3.5664   -2.2371 H   0  0  0  0  0  0  0  0  0  0  0  0
    0.0526   -1.7180   -2.2361 H   0  0  0  0  0  0  0  0  0  0  0  0
    0.0461   -3.5896    0.1905 H   0  0  0  0  0  0  0  0  0  0  0  0
    0.0874   -0.3687   -0.2765 H   0  0  0  0  0  0  0  0  0  0  0  0
    2.1919   -1.3916    0.8026 H   0  0  0  0  0  0  0  0  0  0  0  0
    1.3038   -0.4875    2.0370 H   0  0  0  0  0  0  0  0  0  0  0  0
    1.3218   -2.2550    2.0715 H   0  0  0  0  0  0  0  0  0  0  0  0
   -2.1359   -1.3087    0.6463 H   0  0  0  0  0  0  0  0  0  0  0  0
   -0.5670   -1.3835    3.2763 H   0  0  0  0  0  0  0  0  0  0  0  0
   -2.3937   -1.3011    3.0380 H   0  0  0  0  0  0  0  0  0  0  0  0
    0.0261    2.9511    0.5461 S   0  0  0  0  0  1  0  0  0  0  0  0
   -0.6003    1.7601   -0.3328 C   0  0  0  0  0  0  0  0  0  0  0  0
    0.1241    0.6784   -1.0774 C   0  0  0  0  0  0  0  0  0  0  0  0
   -0.2768    0.7468   -2.5584 C   0  0  0  0  0  0  0  0  0  0  0  0
    1.6327    0.6773   -0.8996 C   0  0  0  0  0  0  0  0  0  0  0  0
   -1.6861    1.7020   -0.4410 H   0  0  0  0  0  0  0  0  0  0  0  0
    0.0971    1.6676   -3.0107 H   0  0  0  0  0  0  0  0  0  0  0  0
    0.1503   -0.0971   -3.1014 H   0  0  0  0  0  0  0  0  0  0  0  0
   -1.3604    0.7194   -2.6860 H   0  0  0  0  0  0  0  0  0  0  0  0
    2.0696   -0.1689   -1.4323 H   0  0  0  0  0  0  0  0  0  0  0  0
    1.9105    0.6075    0.1520 H   0  0  0  0  0  0  0  0  0  0  0  0
    2.0707    1.5956   -1.2944 H   0  0  0  0  0  0  0  0  0  0  0  0
  1  2  2  3
  1  7  1  0
  1  8  1  0
  2  3  1  0
  2  9  1  0
  3  4  1  0
  3  5  1  0
  3 10  1  0
  4 11  1  0
  4 12  1  0
  4 13  1  0
  5  6  2  3
  5 14  1  0
  6 15  1  0
  6 16  1  0
 17 18  1  0
 18 19  2  3
 18 22  1  0
 19 20  1  0
 19 21  1  0
 20 23  1  0
 20 24  1  0
 20 25  1  0
 21 26  1  0
 21 27  1  0
 21 28  1  0
M  RAD  1  17   2
M  END
>  <reaction>  (7) 
rxn_1196

>  <mol_properties>  (7) 
{"1": {"label": "*4", "atom_type": "Cd"}, "2": {"label": "*3", "atom_type": "Cs"}, "9": {"label": "*2", "atom_type": "H0"}, "17": {"label": "*0", "atom_type": "CS"}, "18": {"label": "*1", "atom_type": "Cs"}}

>  <type>  (7) 
unop_3

>  <geom_source>  (7) 
Heuristics

$$$$

     RDKit          3D

 28 26  0  0  0  0  0  0  0  0999 V2000
   -0.2636   -2.3231   -1.0099 C   0  0  0  0  0  0  0  0  0  0  0  0
   -0.2636   -2.3231    0.3134 C   0  0  0  0  0  0  0  0  0  0  0  0
   -0.2636   -1.0923    1.1828 C   0  0  0  0  0  0  0  0  0  0  0  0
    0.9748   -1.0625    2.0744 C   0  0  0  0  0  0  0  0  0  0  0  0
   -1.5671   -1.0237    1.9393 C   0  0  0  0  0  0  0  0  0  0  0  0
   -1.7217   -1.0235    3.2542 C   0  0  0  0  0  0  0  0  0  0  0  0
   -0.2643   -3.2457   -1.5766 H   0  0  0  0  0  0  0  0  0  0  0  0
   -0.2618   -1.3973   -1.5756 H   0  0  0  0  0  0  0  0  0  0  0  0
   -0.2683   -3.2689    0.8510 H   0  0  0  0  0  0  0  0  0  0  0  0
   -0.2270   -0.0479    0.3840 H   0  0  0  0  0  0  0  0  0  0  0  0
    1.8776   -1.0709    1.4631 H   0  0  0  0  0  0  0  0  0  0  0  0
    0.9895   -0.1667    2.6975 H   0  0  0  0  0  0  0  0  0  0  0  0
    1.0074   -1.9343    2.7320 H   0  0  0  0  0  0  0  0  0  0  0  0
   -2.4502   -0.9880    1.3068 H   0  0  0  0  0  0  0  0  0  0  0  0
   -0.8813   -1.0628    3.9368 H   0  0  0  0  0  0  0  0  0  0  0  0
   -2.7081   -0.9804    3.6984 H   0  0  0  0  0  0  0  0  0  0  0  0
    1.4363    1.4436   -2.6457 S   0  0  0  0  0  1  0  0  0  0  0  0
    1.0813    0.8445   -1.1972 C   0  0  0  0  0  0  0  0  0  0  0  0
   -0.1903    0.9991   -0.4169 C   0  0  0  0  0  0  0  0  0  0  0  0
    0.1401    1.6335    0.9422 C   0  0  0  0  0  0  0  0  0  0  0  0
   -1.2972    1.7498   -1.1371 C   0  0  0  0  0  0  0  0  0  0  0  0
    1.8381    0.2571   -0.6717 H   0  0  0  0  0  0  0  0  0  0  0  0
    0.4878    2.6598    0.8075 H   0  0  0  0  0  0  0  0  0  0  0  0
   -0.7502    1.6554    1.5717 H   0  0  0  0  0  0  0  0  0  0  0  0
    0.9161    1.0769    1.4706 H   0  0  0  0  0  0  0  0  0  0  0  0
   -2.1962    1.7702   -0.5190 H   0  0  0  0  0  0  0  0  0  0  0  0
   -1.5411    1.2825   -2.0910 H   0  0  0  0  0  0  0  0  0  0  0  0
   -0.9979    2.7789   -1.3430 H   0  0  0  0  0  0  0  0  0  0  0  0
  1  2  2  3
  1  7  1  0
  1  8  1  0
  2  3  1  0
  2  9  1  0
  3  4  1  0
  3  5  1  0
  3 10  1  0
  4 11  1  0
  4 12  1  0
  4 13  1  0
  5  6  2  3
  5 14  1  0
  6 15  1  0
  6 16  1  0
 17 18  1  0
 18 19  2  3
 18 22  1  0
 19 20  1  0
 19 21  1  0
 20 23  1  0
 20 24  1  0
 20 25  1  0
 21 26  1  0
 21 27  1  0
 21 28  1  0
M  RAD  1  17   2
M  END
>  <reaction>  (8) 
rxn_1196

>  <mol_properties>  (8) 
{"1": {"label": "*4", "atom_type": "Cd"}, "2": {"label": "*3", "atom_type": "Cs"}, "9": {"label": "*2", "atom_type": "H0"}, "17": {"label": "*0", "atom_type": "CS"}, "18": {"label": "*1", "atom_type": "Cs"}}

>  <type>  (8) 
unop_4

>  <geom_source>  (8) 
Heuristics

$$$$

     RDKit          3D

 28 26  0  0  0  0  0  0  0  0999 V2000
   -0.1147   -2.6561   -1.5315 C   0  0  0  0  0  0  0  0  0  0  0  0
   -0.1147   -2.6561   -0.2083 C   0  0  0  0  0  0  0  0  0  0  0  0
   -0.1147   -1.4253    0.6611 C   0  0  0  0  0  0  0  0  0  0  0  0
    1.1237   -1.3955    1.5527 C   0  0  0  0  0  0  0  0  0  0  0  0
   -1.4182   -1.3568    1.4177 C   0  0  0  0  0  0  0  0  0  0  0  0
   -1.5728   -1.3565    2.7326 C   0  0  0  0  0  0  0  0  0  0  0  0
   -0.1154   -3.5787   -2.0982 H   0  0  0  0  0  0  0  0  0  0  0  0
   -0.1129   -1.7303   -2.0972 H   0  0  0  0  0  0  0  0  0  0  0  0
   -0.1194   -3.6019    0.3294 H   0  0  0  0  0  0  0  0  0  0  0  0
   -0.0781   -0.3810   -0.1377 H   0  0  0  0  0  0  0  0  0  0  0  0
    2.0265   -1.4039    0.9415 H   0  0  0  0  0  0  0  0  0  0  0  0
    1.1384   -0.4998    2.1759 H   0  0  0  0  0  0  0  0  0  0  0  0
    1.1563   -2.2673    2.2104 H   0  0  0  0  0  0  0  0  0  0  0  0
   -2.3014   -1.3210    0.7851 H   0  0  0  0  0  0  0  0  0  0  0  0
   -0.7325   -1.3958    3.4151 H   0  0  0  0  0  0  0  0  0  0  0  0
   -2.5592   -1.3134    3.1768 H   0  0  0  0  0  0  0  0  0  0  0  0
    1.0282    3.0491    0.0553 S   0  0  0  0  0  1  0  0  0  0  0  0
   -0.0432    1.8536   -0.0225 C   0  0  0  0  0  0  0  0  0  0  0  0
   -0.0414    0.6660   -0.9386 C   0  0  0  0  0  0  0  0  0  0  0  0
   -1.3509    0.6612   -1.7410 C   0  0  0  0  0  0  0  0  0  0  0  0
    1.1752    0.5546   -1.8413 C   0  0  0  0  0  0  0  0  0  0  0  0
   -0.9058    1.8767    0.6479 H   0  0  0  0  0  0  0  0  0  0  0  0
   -1.3817    1.5139   -2.4223 H   0  0  0  0  0  0  0  0  0  0  0  0
   -1.4236   -0.2513   -2.3338 H   0  0  0  0  0  0  0  0  0  0  0  0
   -2.2249    0.7133   -1.0893 H   0  0  0  0  0  0  0  0  0  0  0  0
    1.1168   -0.3602   -2.4333 H   0  0  0  0  0  0  0  0  0  0  0  0
    2.0998    0.5375   -1.2646 H   0  0  0  0  0  0  0  0  0  0  0  0
    1.2304    1.4036   -2.5248 H   0  0  0  0  0  0  0  0  0  0  0  0
  1  2  2  3
  1  7  1  0
  1  8  1  0
  2  3  1  0
  2  9  1  0
  3  4  1  0
  3  5  1  0
  3 10  1  0
  4 11  1  0
  4 12  1  0
  4 13  1  0
  5  6  2  3
  5 14  1  0
  6 15  1  0
  6 16  1  0
 17 18  1  0
 18 19  2  3
 18 22  1  0
 19 20  1  0
 19 21  1  0
 20 23  1  0
 20 24  1  0
 20 25  1  0
 21 26  1  0
 21 27  1  0
 21 28  1  0
M  RAD  1  17   2
M  END
>  <reaction>  (9) 
rxn_1196

>  <mol_properties>  (9) 
{"1": {"label": "*4", "atom_type": "Cd"}, "2": {"label": "*3", "atom_type": "Cs"}, "9": {"label": "*2", "atom_type": "H0"}, "17": {"label": "*0", "atom_type": "CS"}, "18": {"label": "*1", "atom_type": "Cs"}}

>  <type>  (9) 
unop_5

>  <geom_source>  (9) 
Heuristics

$$$$

     RDKit          3D

 28 26  0  0  0  0  0  0  0  0999 V2000
   -0.3255   -2.4595   -1.1898 C   0  0  0  0  0  0  0  0  0  0  0  0
   -0.3255   -2.4595    0.1334 C   0  0  0  0  0  0  0  0  0  0  0  0
   -0.3255   -1.2287    1.0028 C   0  0  0  0  0  0  0  0  0  0  0  0
    0.9129   -1.1989    1.8944 C   0  0  0  0  0  0  0  0  0  0  0  0
   -1.6290   -1.1601    1.7594 C   0  0  0  0  0  0  0  0  0  0  0  0
   -1.7836   -1.1599    3.0743 C   0  0  0  0  0  0  0  0  0  0  0  0
   -0.3262   -3.3821   -1.7565 H   0  0  0  0  0  0  0  0  0  0  0  0
   -0.3237   -1.5337   -1.7555 H   0  0  0  0  0  0  0  0  0  0  0  0
   -0.3302   -3.4053    0.6711 H   0  0  0  0  0  0  0  0  0  0  0  0
   -0.2889   -0.1844    0.2040 H   0  0  0  0  0  0  0  0  0  0  0  0
    1.8156   -1.2073    1.2832 H   0  0  0  0  0  0  0  0  0  0  0  0
    0.9276   -0.3032    2.5175 H   0  0  0  0  0  0  0  0  0  0  0  0
    0.9455   -2.0707    2.5521 H   0  0  0  0  0  0  0  0  0  0  0  0
   -2.5122   -1.1244    1.1268 H   0  0  0  0  0  0  0  0  0  0  0  0
   -0.9433   -1.1992    3.7568 H   0  0  0  0  0  0  0  0  0  0  0  0
   -2.7700   -1.1168    3.5185 H   0  0  0  0  0  0  0  0  0  0  0  0
    1.8996    2.0173   -1.9559 S   0  0  0  0  0  1  0  0  0  0  0  0
    1.2071    1.1452   -0.7971 C   0  0  0  0  0  0  0  0  0  0  0  0
   -0.2522    0.8627   -0.5969 C   0  0  0  0  0  0  0  0  0  0  0  0
   -0.6622    1.3556    0.7988 C   0  0  0  0  0  0  0  0  0  0  0  0
   -1.1657    1.4095   -1.6804 C   0  0  0  0  0  0  0  0  0  0  0  0
    1.8403    0.6955   -0.0284 H   0  0  0  0  0  0  0  0  0  0  0  0
   -0.5997    2.4445    0.8502 H   0  0  0  0  0  0  0  0  0  0  0  0
   -1.6909    1.0631    1.0121 H   0  0  0  0  0  0  0  0  0  0  0  0
   -0.0221    0.9398    1.5789 H   0  0  0  0  0  0  0  0  0  0  0  0
   -2.1973    1.1150   -1.4811 H   0  0  0  0  0  0  0  0  0  0  0  0
   -0.8822    1.0394   -2.6656 H   0  0  0  0  0  0  0  0  0  0  0  0
   -1.1194    2.4993   -1.7136 H   0  0  0  0  0  0  0  0  0  0  0  0
  1  2  2  3
  1  7  1  0
  1  8  1  0
  2  3  1  0
  2  9  1  0
  3  4  1  0
  3  5  1  0
  3 10  1  0
  4 11  1  0
  4 12  1  0
  4 13  1  0
  5  6  2  3
  5 14  1  0
  6 15  1  0
  6 16  1  0
 17 18  1  0
 18 19  2  3
 18 22  1  0
 19 20  1  0
 19 21  1  0
 20 23  1  0
 20 24  1  0
 20 25  1  0
 21 26  1  0
 21 27  1  0
 21 28  1  0
M  RAD  1  17   2
M  END
>  <reaction>  (10) 
rxn_1196

>  <mol_properties>  (10) 
{"1": {"label": "*4", "atom_type": "Cd"}, "2": {"label": "*3", "atom_type": "Cs"}, "9": {"label": "*2", "atom_type": "H0"}, "17": {"label": "*0", "atom_type": "CS"}, "18": {"label": "*1", "atom_type": "Cs"}}

>  <type>  (10) 
unop_6

>  <geom_source>  (10) 
Heuristics

$$$$

     RDKit          3D

 28 26  0  0  0  0  0  0  0  0999 V2000
   -0.2696   -2.5745   -1.3374 C   0  0  0  0  0  0  0  0  0  0  0  0
   -0.2696   -2.5745   -0.0142 C   0  0  0  0  0  0  0  0  0  0  0  0
   -0.2696   -1.3437    0.8552 C   0  0  0  0  0  0  0  0  0  0  0  0
    0.9688   -1.3140    1.7468 C   0  0  0  0  0  0  0  0  0  0  0  0
   -1.5731   -1.2752    1.6117 C   0  0  0  0  0  0  0  0  0  0  0  0
   -1.7277   -1.2749    2.9267 C   0  0  0  0  0  0  0  0  0  0  0  0
   -0.2703   -3.4971   -1.9041 H   0  0  0  0  0  0  0  0  0  0  0  0
   -0.2678   -1.6487   -1.9031 H   0  0  0  0  0  0  0  0  0  0  0  0
   -0.2743   -3.5203    0.5234 H   0  0  0  0  0  0  0  0  0  0  0  0
   -0.2330   -0.2994    0.0564 H   0  0  0  0  0  0  0  0  0  0  0  0
    1.8716   -1.3223    1.1356 H   0  0  0  0  0  0  0  0  0  0  0  0
    0.9835   -0.4182    2.3699 H   0  0  0  0  0  0  0  0  0  0  0  0
    1.0014   -2.1857    2.4044 H   0  0  0  0  0  0  0  0  0  0  0  0
   -2.4562   -1.2394    0.9792 H   0  0  0  0  0  0  0  0  0  0  0  0
   -0.8873   -1.3143    3.6092 H   0  0  0  0  0  0  0  0  0  0  0  0
   -2.7141   -1.2318    3.3709 H   0  0  0  0  0  0  0  0  0  0  0  0
    1.8752    2.5572   -1.2394 S   0  0  0  0  0  1  0  0  0  0  0  0
    1.0627    1.4737   -0.3739 C   0  0  0  0  0  0  0  0  0  0  0  0
   -0.1963    0.7476   -0.7445 C   0  0  0  0  0  0  0  0  0  0  0  0
   -1.2648    1.0406    0.3191 C   0  0  0  0  0  0  0  0  0  0  0  0
   -0.7058    1.0233   -2.1487 C   0  0  0  0  0  0  0  0  0  0  0  0
    1.4296    1.2149    0.6222 H   0  0  0  0  0  0  0  0  0  0  0  0
   -1.5538    2.0931    0.2869 H   0  0  0  0  0  0  0  0  0  0  0  0
   -2.1541    0.4375    0.1326 H   0  0  0  0  0  0  0  0  0  0  0  0
   -0.9066    0.8156    1.3252 H   0  0  0  0  0  0  0  0  0  0  0  0
   -1.5913    0.4179   -2.3489 H   0  0  0  0  0  0  0  0  0  0  0  0
    0.0499    0.7936   -2.8997 H   0  0  0  0  0  0  0  0  0  0  0  0
   -0.9746    2.0747   -2.2647 H   0  0  0  0  0  0  0  0  0  0  0  0
  1  2  2  3
  1  7  1  0
  1  8  1  0
  2  3  1  0
  2  9  1  0
  3  4  1  0
  3  5  1  0
  3 10  1  0
  4 11  1  0
  4 12  1  0
  4 13  1  0
  5  6  2  3
  5 14  1  0
  6 15  1  0
  6 16  1  0
 17 18  1  0
 18 19  2  3
 18 22  1  0
 19 20  1  0
 19 21  1  0
 20 23  1  0
 20 24  1  0
 20 25  1  0
 21 26  1  0
 21 27  1  0
 21 28  1  0
M  RAD  1  17   2
M  END
>  <reaction>  (11) 
rxn_1196

>  <mol_properties>  (11) 
{"1": {"label": "*4", "atom_type": "Cd"}, "2": {"label": "*3", "atom_type": "Cs"}, "9": {"label": "*2", "atom_type": "H0"}, "17": {"label": "*0", "atom_type": "CS"}, "18": {"label": "*1", "atom_type": "Cs"}}

>  <type>  (11) 
unop_7

>  <geom_source>  (11) 
Heuristics

$$$$

     RDKit          3D

 28 26  0  0  0  0  0  0  0  0999 V2000
    0.5159   -2.4751   -1.5288 C   0  0  0  0  0  0  0  0  0  0  0  0
    0.5159   -2.4751   -0.2056 C   0  0  0  0  0  0  0  0  0  0  0  0
    0.5159   -1.2443    0.6639 C   0  0  0  0  0  0  0  0  0  0  0  0
    1.7542   -1.2145    1.5555 C   0  0  0  0  0  0  0  0  0  0  0  0
   -0.7877   -1.1757    1.4204 C   0  0  0  0  0  0  0  0  0  0  0  0
   -0.9423   -1.1755    2.7353 C   0  0  0  0  0  0  0  0  0  0  0  0
    0.5151   -3.3977   -2.0955 H   0  0  0  0  0  0  0  0  0  0  0  0
    0.5176   -1.5493   -2.0945 H   0  0  0  0  0  0  0  0  0  0  0  0
    0.5111   -3.4209    0.3321 H   0  0  0  0  0  0  0  0  0  0  0  0
    0.5525   -0.2000   -0.1350 H   0  0  0  0  0  0  0  0  0  0  0  0
    2.6570   -1.2229    0.9442 H   0  0  0  0  0  0  0  0  0  0  0  0
    1.7689   -0.3188    2.1786 H   0  0  0  0  0  0  0  0  0  0  0  0
    1.7868   -2.0863    2.2131 H   0  0  0  0  0  0  0  0  0  0  0  0
   -1.6708   -1.1400    0.7878 H   0  0  0  0  0  0  0  0  0  0  0  0
   -0.1019   -1.2148    3.4178 H   0  0  0  0  0  0  0  0  0  0  0  0
   -1.9287   -1.1324    3.1795 H   0  0  0  0  0  0  0  0  0  0  0  0
   -1.8396    2.0873   -0.3249 S   0  0  0  0  0  1  0  0  0  0  0  0
   -0.8486    1.1783   -1.2051 C   0  0  0  0  0  0  0  0  0  0  0  0
    0.5892    0.8471   -0.9358 C   0  0  0  0  0  0  0  0  0  0  0  0
    1.4332    1.3081   -2.1333 C   0  0  0  0  0  0  0  0  0  0  0  0
    1.1344    1.3790    0.3784 C   0  0  0  0  0  0  0  0  0  0  0  0
   -1.2235    0.7388   -2.1326 H   0  0  0  0  0  0  0  0  0  0  0  0
    1.4273    2.3977   -2.2046 H   0  0  0  0  0  0  0  0  0  0  0  0
    2.4662    0.9803   -2.0118 H   0  0  0  0  0  0  0  0  0  0  0  0
    1.0565    0.9025   -3.0739 H   0  0  0  0  0  0  0  0  0  0  0  0
    2.1657    1.0493    0.5141 H   0  0  0  0  0  0  0  0  0  0  0  0
    0.5435    1.0312    1.2256 H   0  0  0  0  0  0  0  0  0  0  0  0
    1.1174    2.4701    0.3925 H   0  0  0  0  0  0  0  0  0  0  0  0
  1  2  2  3
  1  7  1  0
  1  8  1  0
  2  3  1  0
  2  9  1  0
  3  4  1  0
  3  5  1  0
  3 10  1  0
  4 11  1  0
  4 12  1  0
  4 13  1  0
  5  6  2  3
  5 14  1  0
  6 15  1  0
  6 16  1  0
 17 18  1  0
 18 19  2  3
 18 22  1  0
 19 20  1  0
 19 21  1  0
 20 23  1  0
 20 24  1  0
 20 25  1  0
 21 26  1  0
 21 27  1  0
 21 28  1  0
M  RAD  1  17   2
M  END
>  <reaction>  (12) 
rxn_1196

>  <mol_properties>  (12) 
{"1": {"label": "*4", "atom_type": "Cd"}, "2": {"label": "*3", "atom_type": "Cs"}, "9": {"label": "*2", "atom_type": "H0"}, "17": {"label": "*0", "atom_type": "CS"}, "18": {"label": "*1", "atom_type": "Cs"}}

>  <type>  (12) 
unop_8

>  <geom_source>  (12) 
Heuristics

$$$$

     RDKit          3D

 28 26  0  0  0  0  0  0  0  0999 V2000
   -0.0555   -2.2122   -0.8772 C   0  0  0  0  0  0  0  0  0  0  0  0
   -0.0555   -2.2122    0.4460 C   0  0  0  0  0  0  0  0  0  0  0  0
   -0.0555   -0.9814    1.3154 C   0  0  0  0  0  0  0  0  0  0  0  0
    1.1829   -0.9517    2.2070 C   0  0  0  0  0  0  0  0  0  0  0  0
   -1.3590   -0.9129    2.0719 C   0  0  0  0  0  0  0  0  0  0  0  0
   -1.5136   -0.9126    3.3869 C   0  0  0  0  0  0  0  0  0  0  0  0
   -0.0562   -3.1348   -1.4439 H   0  0  0  0  0  0  0  0  0  0  0  0
   -0.0537   -1.2864   -1.4429 H   0  0  0  0  0  0  0  0  0  0  0  0
   -0.0602   -3.1580    0.9837 H   0  0  0  0  0  0  0  0  0  0  0  0
   -0.0189    0.0629    0.5166 H   0  0  0  0  0  0  0  0  0  0  0  0
    2.0857   -0.9600    1.5958 H   0  0  0  0  0  0  0  0  0  0  0  0
    1.1976   -0.0559    2.8301 H   0  0  0  0  0  0  0  0  0  0  0  0
    1.2155   -1.8234    2.8647 H   0  0  0  0  0  0  0  0  0  0  0  0
   -2.2421   -0.8771    1.4394 H   0  0  0  0  0  0  0  0  0  0  0  0
   -0.6732   -0.9520    4.0694 H   0  0  0  0  0  0  0  0  0  0  0  0
   -2.5000   -0.8695    3.8311 H   0  0  0  0  0  0  0  0  0  0  0  0
    0.4848    1.0096   -3.0379 S   0  0  0  0  0  1  0  0  0  0  0  0
    0.7638    0.6419   -1.4983 C   0  0  0  0  0  0  0  0  0  0  0  0
    0.0178    1.1099   -0.2843 C   0  0  0  0  0  0  0  0  0  0  0  0
    1.0051    1.8116    0.6601 C   0  0  0  0  0  0  0  0  0  0  0  0
   -1.1990    1.9724   -0.5723 C   0  0  0  0  0  0  0  0  0  0  0  0
    1.6021   -0.0167   -1.2591 H   0  0  0  0  0  0  0  0  0  0  0  0
    1.3707    2.7360    0.2083 H   0  0  0  0  0  0  0  0  0  0  0  0
    0.5107    2.0636    1.5989 H   0  0  0  0  0  0  0  0  0  0  0  0
    1.8653    1.1798    0.8882 H   0  0  0  0  0  0  0  0  0  0  0  0
   -1.7065    2.2234    0.3605 H   0  0  0  0  0  0  0  0  0  0  0  0
   -1.9052    1.4606   -1.2259 H   0  0  0  0  0  0  0  0  0  0  0  0
   -0.9084    2.9011   -1.0664 H   0  0  0  0  0  0  0  0  0  0  0  0
  1  2  2  3
  1  7  1  0
  1  8  1  0
  2  3  1  0
  2  9  1  0
  3  4  1  0
  3  5  1  0
  3 10  1  0
  4 11  1  0
  4 12  1  0
  4 13  1  0
  5  6  2  3
  5 14  1  0
  6 15  1  0
  6 16  1  0
 17 18  1  0
 18 19  2  3
 18 22  1  0
 19 20  1  0
 19 21  1  0
 20 23  1  0
 20 24  1  0
 20 25  1  0
 21 26  1  0
 21 27  1  0
 21 28  1  0
M  RAD  1  17   2
M  END
>  <reaction>  (13) 
rxn_1196

>  <mol_properties>  (13) 
{"1": {"label": "*4", "atom_type": "Cd"}, "2": {"label": "*3", "atom_type": "Cs"}, "9": {"label": "*2", "atom_type": "H0"}, "17": {"label": "*0", "atom_type": "CS"}, "18": {"label": "*1", "atom_type": "Cs"}}

>  <type>  (13) 
unop_9

>  <geom_source>  (13) 
Heuristics

$$$$

     RDKit          3D

 28 26  0  0  0  0  0  0  0  0999 V2000
    0.5882   -2.3386   -1.2950 C   0  0  0  0  0  0  0  0  0  0  0  0
    0.5882   -2.3386    0.0282 C   0  0  0  0  0  0  0  0  0  0  0  0
    0.5882   -1.1079    0.8976 C   0  0  0  0  0  0  0  0  0  0  0  0
    1.8266   -1.0781    1.7892 C   0  0  0  0  0  0  0  0  0  0  0  0
   -0.7153   -1.0393    1.6541 C   0  0  0  0  0  0  0  0  0  0  0  0
   -0.8700   -1.0390    2.9691 C   0  0  0  0  0  0  0  0  0  0  0  0
    0.5874   -3.2613   -1.8617 H   0  0  0  0  0  0  0  0  0  0  0  0
    0.5900   -1.4128   -1.8607 H   0  0  0  0  0  0  0  0  0  0  0  0
    0.5834   -3.2845    0.5658 H   0  0  0  0  0  0  0  0  0  0  0  0
    0.6248   -0.0635    0.0988 H   0  0  0  0  0  0  0  0  0  0  0  0
    2.7293   -1.0864    1.1780 H   0  0  0  0  0  0  0  0  0  0  0  0
    1.8412   -0.1823    2.4123 H   0  0  0  0  0  0  0  0  0  0  0  0
    1.8591   -1.9498    2.4468 H   0  0  0  0  0  0  0  0  0  0  0  0
   -1.5985   -1.0036    1.0216 H   0  0  0  0  0  0  0  0  0  0  0  0
   -0.0296   -1.0784    3.6516 H   0  0  0  0  0  0  0  0  0  0  0  0
   -1.8564   -0.9959    3.4133 H   0  0  0  0  0  0  0  0  0  0  0  0
   -2.0253    1.5079   -1.2647 S   0  0  0  0  0  1  0  0  0  0  0  0
   -0.5760    0.8711   -1.5421 C   0  0  0  0  0  0  0  0  0  0  0  0
    0.6615    0.9835   -0.7021 C   0  0  0  0  0  0  0  0  0  0  0  0
    1.7821    1.5955   -1.5557 C   0  0  0  0  0  0  0  0  0  0  0  0
    0.4803    1.7269    0.6102 C   0  0  0  0  0  0  0  0  0  0  0  0
   -0.4240    0.2881   -2.4536 H   0  0  0  0  0  0  0  0  0  0  0  0
    1.5449    2.6312   -1.8073 H   0  0  0  0  0  0  0  0  0  0  0  0
    2.7219    1.5861   -1.0025 H   0  0  0  0  0  0  0  0  0  0  0  0
    1.9297    1.0435   -2.4856 H   0  0  0  0  0  0  0  0  0  0  0  0
    1.4133    1.7161    1.1760 H   0  0  0  0  0  0  0  0  0  0  0  0
   -0.3019    1.2751    1.2201 H   0  0  0  0  0  0  0  0  0  0  0  0
    0.1982    2.7660    0.4319 H   0  0  0  0  0  0  0  0  0  0  0  0
  1  2  2  3
  1  7  1  0
  1  8  1  0
  2  3  1  0
  2  9  1  0
  3  4  1  0
  3  5  1  0
  3 10  1  0
  4 11  1  0
  4 12  1  0
  4 13  1  0
  5  6  2  3
  5 14  1  0
  6 15  1  0
  6 16  1  0
 17 18  1  0
 18 19  2  3
 18 22  1  0
 19 20  1  0
 19 21  1  0
 20 23  1  0
 20 24  1  0
 20 25  1  0
 21 26  1  0
 21 27  1  0
 21 28  1  0
M  RAD  1  17   2
M  END
>  <reaction>  (14) 
rxn_1196

>  <mol_properties>  (14) 
{"1": {"label": "*4", "atom_type": "Cd"}, "2": {"label": "*3", "atom_type": "Cs"}, "9": {"label": "*2", "atom_type": "H0"}, "17": {"label": "*0", "atom_type": "CS"}, "18": {"label": "*1", "atom_type": "Cs"}}

>  <type>  (14) 
unop_10

>  <geom_source>  (14) 
Heuristics

$$$$

     RDKit          3D

 28 26  0  0  0  0  0  0  0  0999 V2000
   -0.1795   -2.6389   -1.4260 C   0  0  0  0  0  0  0  0  0  0  0  0
   -0.1795   -2.6389   -0.1028 C   0  0  0  0  0  0  0  0  0  0  0  0
   -0.1795   -1.4081    0.7666 C   0  0  0  0  0  0  0  0  0  0  0  0
    1.0589   -1.3783    1.6582 C   0  0  0  0  0  0  0  0  0  0  0  0
   -1.4830   -1.3395    1.5231 C   0  0  0  0  0  0  0  0  0  0  0  0
   -1.6376   -1.3393    2.8381 C   0  0  0  0  0  0  0  0  0  0  0  0
   -0.1802   -3.5615   -1.9927 H   0  0  0  0  0  0  0  0  0  0  0  0
   -0.1777   -1.7131   -1.9917 H   0  0  0  0  0  0  0  0  0  0  0  0
   -0.1842   -3.5847    0.4349 H   0  0  0  0  0  0  0  0  0  0  0  0
   -0.1429   -0.3638   -0.0322 H   0  0  0  0  0  0  0  0  0  0  0  0
    1.9617   -1.3867    1.0470 H   0  0  0  0  0  0  0  0  0  0  0  0
    1.0736   -0.4826    2.2813 H   0  0  0  0  0  0  0  0  0  0  0  0
    1.0915   -2.2501    2.3158 H   0  0  0  0  0  0  0  0  0  0  0  0
   -2.3661   -1.3038    0.8906 H   0  0  0  0  0  0  0  0  0  0  0  0
   -0.7972   -1.3786    3.5206 H   0  0  0  0  0  0  0  0  0  0  0  0
   -2.6240   -1.2962    3.2823 H   0  0  0  0  0  0  0  0  0  0  0  0
    1.5545    2.9204   -0.6144 S   0  0  0  0  0  1  0  0  0  0  0  0
    0.6180    1.7406   -0.0539 C   0  0  0  0  0  0  0  0  0  0  0  0
   -0.1062    0.6833   -0.8331 C   0  0  0  0  0  0  0  0  0  0  0  0
   -1.6058    0.7776   -0.5152 C   0  0  0  0  0  0  0  0  0  0  0  0
    0.1565    0.6964   -2.3292 C   0  0  0  0  0  0  0  0  0  0  0  0
    0.4475    1.6719    1.0232 H   0  0  0  0  0  0  0  0  0  0  0  0
   -2.0176    1.7120   -0.9018 H   0  0  0  0  0  0  0  0  0  0  0  0
   -2.1406   -0.0497   -0.9830 H   0  0  0  0  0  0  0  0  0  0  0  0
   -1.7948    0.7400    0.5591 H   0  0  0  0  0  0  0  0  0  0  0  0
   -0.3676   -0.1333   -2.8063 H   0  0  0  0  0  0  0  0  0  0  0  0
    1.2204    0.6081   -2.5484 H   0  0  0  0  0  0  0  0  0  0  0  0
   -0.1945    1.6278   -2.7767 H   0  0  0  0  0  0  0  0  0  0  0  0
  1  2  2  3
  1  7  1  0
  1  8  1  0
  2  3  1  0
  2  9  1  0
  3  4  1  0
  3  5  1  0
  3 10  1  0
  4 11  1  0
  4 12  1  0
  4 13  1  0
  5  6  2  3
  5 14  1  0
  6 15  1  0
  6 16  1  0
 17 18  1  0
 18 19  2  3
 18 22  1  0
 19 20  1  0
 19 21  1  0
 20 23  1  0
 20 24  1  0
 20 25  1  0
 21 26  1  0
 21 27  1  0
 21 28  1  0
M  RAD  1  17   2
M  END
>  <reaction>  (15) 
rxn_1196

>  <mol_properties>  (15) 
{"1": {"label": "*4", "atom_type": "Cd"}, "2": {"label": "*3", "atom_type": "Cs"}, "9": {"label": "*2", "atom_type": "H0"}, "17": {"label": "*0", "atom_type": "CS"}, "18": {"label": "*1", "atom_type": "Cs"}}

>  <type>  (15) 
unop_11

>  <geom_source>  (15) 
Heuristics

$$$$

     RDKit          3D

 28 26  0  0  0  0  0  0  0  0999 V2000
    0.2417   -2.1725   -0.8829 C   0  0  0  0  0  0  0  0  0  0  0  0
    0.2417   -2.1725    0.4404 C   0  0  0  0  0  0  0  0  0  0  0  0
    0.2417   -0.9417    1.3098 C   0  0  0  0  0  0  0  0  0  0  0  0
    1.4801   -0.9119    2.2014 C   0  0  0  0  0  0  0  0  0  0  0  0
   -1.0618   -0.8731    2.0663 C   0  0  0  0  0  0  0  0  0  0  0  0
   -1.2164   -0.8729    3.3812 C   0  0  0  0  0  0  0  0  0  0  0  0
    0.2410   -3.0951   -1.4496 H   0  0  0  0  0  0  0  0  0  0  0  0
    0.2435   -1.2467   -1.4486 H   0  0  0  0  0  0  0  0  0  0  0  0
    0.2370   -3.1183    0.9780 H   0  0  0  0  0  0  0  0  0  0  0  0
    0.2783    0.1027    0.5110 H   0  0  0  0  0  0  0  0  0  0  0  0
    2.3829   -0.9203    1.5901 H   0  0  0  0  0  0  0  0  0  0  0  0
    1.4948   -0.0161    2.8245 H   0  0  0  0  0  0  0  0  0  0  0  0
    1.5127   -1.7837    2.8590 H   0  0  0  0  0  0  0  0  0  0  0  0
   -1.9450   -0.8374    1.4338 H   0  0  0  0  0  0  0  0  0  0  0  0
   -0.3761   -0.9122    4.0638 H   0  0  0  0  0  0  0  0  0  0  0  0
   -2.2028   -0.8298    3.8254 H   0  0  0  0  0  0  0  0  0  0  0  0
   -0.6812    0.8600   -2.8849 S   0  0  0  0  0  1  0  0  0  0  0  0
    0.3384    0.5759   -1.6754 C   0  0  0  0  0  0  0  0  0  0  0  0
    0.3150    1.1497   -0.2899 C   0  0  0  0  0  0  0  0  0  0  0  0
    1.6494    1.8644   -0.0305 C   0  0  0  0  0  0  0  0  0  0  0  0
   -0.8741    2.0450    0.0133 C   0  0  0  0  0  0  0  0  0  0  0  0
    1.1779   -0.1027   -1.8444 H   0  0  0  0  0  0  0  0  0  0  0  0
    1.7409    2.7425   -0.6730 H   0  0  0  0  0  0  0  0  0  0  0  0
    1.7017    2.1950    1.0075 H   0  0  0  0  0  0  0  0  0  0  0  0
    2.5023    1.2109   -0.2221 H   0  0  0  0  0  0  0  0  0  0  0  0
   -0.8362    2.3748    1.0528 H   0  0  0  0  0  0  0  0  0  0  0  0
   -1.8176    1.5252   -0.1528 H   0  0  0  0  0  0  0  0  0  0  0  0
   -0.8687    2.9280   -0.6281 H   0  0  0  0  0  0  0  0  0  0  0  0
  1  2  2  3
  1  7  1  0
  1  8  1  0
  2  3  1  0
  2  9  1  0
  3  4  1  0
  3  5  1  0
  3 10  1  0
  4 11  1  0
  4 12  1  0
  4 13  1  0
  5  6  2  3
  5 14  1  0
  6 15  1  0
  6 16  1  0
 17 18  1  0
 18 19  2  3
 18 22  1  0
 19 20  1  0
 19 21  1  0
 20 23  1  0
 20 24  1  0
 20 25  1  0
 21 26  1  0
 21 27  1  0
 21 28  1  0
M  RAD  1  17   2
M  END
>  <reaction>  (16) 
rxn_1196

>  <mol_properties>  (16) 
{"1": {"label": "*4", "atom_type": "Cd"}, "2": {"label": "*3", "atom_type": "Cs"}, "9": {"label": "*2", "atom_type": "H0"}, "17": {"label": "*0", "atom_type": "CS"}, "18": {"label": "*1", "atom_type": "Cs"}}

>  <type>  (16) 
unop_12

>  <geom_source>  (16) 
Heuristics

$$$$

     RDKit          3D

 28 25  0  0  0  0  0  0  0  0999 V2000
   -3.3593    1.2602    1.3286 S   0  0  0  0  0  1  0  0  0  0  0  0
   -1.3258    0.1133    0.2052 C   0  0  0  0  0  0  0  0  0  0  0  0
   -1.3998   -1.2149    0.9678 C   0  0  0  0  0  3  0  0  0  0  0  0
   -1.9234   -0.0191   -1.2007 C   0  0  0  0  0  0  0  0  0  0  0  0
    1.0697    0.0211   -1.9069 C   0  0  0  0  0  0  0  0  0  0  0  0
    1.1959    0.0910   -0.3875 C   0  0  0  0  0  3  0  0  0  0  0  0
    2.0966    1.2152    0.0278 C   0  0  0  0  0  0  0  0  0  0  0  0
    1.6941   -1.2074    0.1725 C   0  0  0  0  0  0  0  0  0  0  0  0
   -1.9610    1.2461    0.9832 C   0  0  0  0  0  0  0  0  0  0  0  0
    1.6404    2.1950    0.8087 C   0  0  0  0  0  0  0  0  0  0  0  0
    0.9618   -1.8905    1.0528 C   0  0  0  0  0  0  0  0  0  0  0  0
   -0.0386    0.4103    0.0582 H   0  0  0  0  0  0  0  0  0  0  0  0
   -0.9507   -1.0984    1.9770 H   0  0  0  0  0  0  0  0  0  0  0  0
   -2.4527   -1.5530    1.0766 H   0  0  0  0  0  0  0  0  0  0  0  0
   -0.8292   -1.9960    0.4223 H   0  0  0  0  0  0  0  0  0  0  0  0
   -1.3609   -0.7816   -1.7800 H   0  0  0  0  0  0  0  0  0  0  0  0
   -2.9908   -0.3240   -1.1522 H   0  0  0  0  0  0  0  0  0  0  0  0
   -1.8477    0.9501   -1.7379 H   0  0  0  0  0  0  0  0  0  0  0  0
    0.3693   -0.7932   -2.1894 H   0  0  0  0  0  0  0  0  0  0  0  0
    0.6637    0.9791   -2.2953 H   0  0  0  0  0  0  0  0  0  0  0  0
    2.0588   -0.1712   -2.3765 H   0  0  0  0  0  0  0  0  0  0  0  0
    3.1309    1.2305   -0.3049 H   0  0  0  0  0  0  0  0  0  0  0  0
    2.6618   -1.5936   -0.1361 H   0  0  0  0  0  0  0  0  0  0  0  0
   -1.3384    2.0789    1.2921 H   0  0  0  0  0  0  0  0  0  0  0  0
    2.2998    3.0036    1.1068 H   0  0  0  0  0  0  0  0  0  0  0  0
    0.6112    2.1981    1.1552 H   0  0  0  0  0  0  0  0  0  0  0  0
    1.3311   -2.8281    1.4553 H   0  0  0  0  0  0  0  0  0  0  0  0
   -0.0067   -1.5217    1.3775 H   0  0  0  0  0  0  0  0  0  0  0  0
  1  9  1  0
  2  4  1  0
  2  9  2  3
  2 12  1  0
  3 13  1  0
  3 14  1  0
  3 15  1  0
  4 16  1  0
  4 17  1  0
  4 18  1  0
  5  6  1  0
  5 19  1  0
  5 20  1  0
  5 21  1  0
  6  7  1  0
  6  8  1  0
  7 10  2  3
  7 22  1  0
  8 11  2  3
  8 23  1  0
  9 24  1  0
 10 25  1  0
 10 26  1  0
 11 27  1  0
 11 28  1  0
M  RAD  3   1   2   3   2   6   2
M  END
>  <reaction>  (17) 
rxn_1196

>  <mol_properties>  (17) 
{"1": {"label": "*4", "atom_type": "Cd"}, "2": {"label": "*3", "atom_type": "Cs"}, "9": {"label": "*2", "atom_type": "H0"}, "17": {"label": "*0", "atom_type": "CS"}, "18": {"label": "*1", "atom_type": "Cs"}}

>  <type>  (17) 
unop_13

>  <geom_source>  (17) 
AutoTST

$$$$

     RDKit          3D

 28 26  0  0  0  0  0  0  0  0999 V2000
    0.4911   -2.2222   -1.0484 C   0  0  0  0  0  0  0  0  0  0  0  0
    0.4911   -2.2222    0.2749 C   0  0  0  0  0  0  0  0  0  0  0  0
    0.4911   -0.9914    1.1443 C   0  0  0  0  0  0  0  0  0  0  0  0
    1.7295   -0.9616    2.0359 C   0  0  0  0  0  0  0  0  0  0  0  0
   -0.8124   -0.9228    1.9008 C   0  0  0  0  0  0  0  0  0  0  0  0
   -0.9670   -0.9226    3.2157 C   0  0  0  0  0  0  0  0  0  0  0  0
    0.4904   -3.1448   -1.6151 H   0  0  0  0  0  0  0  0  0  0  0  0
    0.4929   -1.2964   -1.6141 H   0  0  0  0  0  0  0  0  0  0  0  0
    0.4864   -3.1680    0.8125 H   0  0  0  0  0  0  0  0  0  0  0  0
    0.5277    0.0529    0.3454 H   0  0  0  0  0  0  0  0  0  0  0  0
    2.6323   -0.9700    1.4246 H   0  0  0  0  0  0  0  0  0  0  0  0
    1.7442   -0.0659    2.6590 H   0  0  0  0  0  0  0  0  0  0  0  0
    1.7621   -1.8334    2.6935 H   0  0  0  0  0  0  0  0  0  0  0  0
   -1.6956   -0.8871    1.2682 H   0  0  0  0  0  0  0  0  0  0  0  0
   -0.1267   -0.9619    3.8982 H   0  0  0  0  0  0  0  0  0  0  0  0
   -1.9534   -0.8795    3.6599 H   0  0  0  0  0  0  0  0  0  0  0  0
   -1.6140    1.0485   -2.2054 S   0  0  0  0  0  1  0  0  0  0  0  0
   -0.1382    0.6563   -1.7040 C   0  0  0  0  0  0  0  0  0  0  0  0
    0.5644    1.1000   -0.4554 C   0  0  0  0  0  0  0  0  0  0  0  0
    1.8786    1.7906   -0.8489 C   0  0  0  0  0  0  0  0  0  0  0  0
   -0.2693    1.9609    0.4779 C   0  0  0  0  0  0  0  0  0  0  0  0
    0.4710   -0.0020   -2.3281 H   0  0  0  0  0  0  0  0  0  0  0  0
    1.6734    2.7244   -1.3764 H   0  0  0  0  0  0  0  0  0  0  0  0
    2.4606    2.0243    0.0432 H   0  0  0  0  0  0  0  0  0  0  0  0
    2.4890    1.1595   -1.4971 H   0  0  0  0  0  0  0  0  0  0  0  0
    0.3012    2.1936    1.3786 H   0  0  0  0  0  0  0  0  0  0  0  0
   -1.1903    1.4567    0.7699 H   0  0  0  0  0  0  0  0  0  0  0  0
   -0.5478    2.8993   -0.0047 H   0  0  0  0  0  0  0  0  0  0  0  0
  1  2  2  3
  1  7  1  0
  1  8  1  0
  2  3  1  0
  2  9  1  0
  3  4  1  0
  3  5  1  0
  3 10  1  0
  4 11  1  0
  4 12  1  0
  4 13  1  0
  5  6  2  3
  5 14  1  0
  6 15  1  0
  6 16  1  0
 17 18  1  0
 18 19  2  3
 18 22  1  0
 19 20  1  0
 19 21  1  0
 20 23  1  0
 20 24  1  0
 20 25  1  0
 21 26  1  0
 21 27  1  0
 21 28  1  0
M  RAD  1  17   2
M  END
>  <reaction>  (18) 
rxn_1196

>  <mol_properties>  (18) 
{"1": {"label": "*4", "atom_type": "Cd"}, "2": {"label": "*3", "atom_type": "Cs"}, "9": {"label": "*2", "atom_type": "H0"}, "17": {"label": "*0", "atom_type": "CS"}, "18": {"label": "*1", "atom_type": "Cs"}}

>  <type>  (18) 
unop_14

>  <geom_source>  (18) 
gaussian_log

$$$$
