
     RDKit          3D

  6  5  0  0  0  0  0  0  0  0999 V2000
    1.2314    0.0428    0.5088 O   0  0  0  0  0  0  0  0  0  0  0  0
    0.2987    0.2341   -0.4915 N   0  0  0  0  0  0  0  0  0  0  0  0
   -0.8599   -0.1122   -0.1290 C   0  0  0  0  0  0  0  0  0  0  0  0
    2.0507    0.3401    0.1082 H   0  0  0  0  0  0  0  0  0  0  0  0
   -1.0700   -0.5112    0.8610 H   0  0  0  0  0  0  0  0  0  0  0  0
   -1.6509    0.0064   -0.8574 H   0  0  0  0  0  0  0  0  0  0  0  0
  1  2  1  0
  1  4  1  0
  2  3  2  3
  3  5  1  0
  3  6  1  0
M  END
>  <reaction>  (1) 
rxn_660

>  <mol_properties>  (1) 
{"0": {"label": "donator", "atom_type": "O2s"}, "3": {"label": "d_hydrogen", "atom_type": "H0"}}

>  <type>  (1) 
r1h

$$$$

     RDKit          3D

  3  2  0  0  0  0  0  0  0  0999 V2000
    0.0002    0.4233    0.0000 N   0  0  0  0  0  2  0  0  0  0  0  0
   -0.8051   -0.2112    0.0000 H   0  0  0  0  0  0  0  0  0  0  0  0
    0.8049   -0.2121    0.0000 H   0  0  0  0  0  0  0  0  0  0  0  0
  1  2  1  0
  1  3  1  0
M  RAD  1   1   2
M  END
>  <reaction>  (2) 
rxn_660

>  <mol_properties>  (2) 
{"0": {"label": "acceptor", "atom_type": "N3s"}}

>  <type>  (2) 
r2

$$$$

     RDKit          3D

  4  3  0  0  0  0  0  0  0  0999 V2000
    0.0006   -0.0009    0.2762 N   0  0  0  0  0  0  0  0  0  0  0  0
   -0.4188    0.8439   -0.0883 H   0  0  0  0  0  0  0  0  0  0  0  0
   -0.5215   -0.7840   -0.0936 H   0  0  0  0  0  0  0  0  0  0  0  0
    0.9397   -0.0590   -0.0943 H   0  0  0  0  0  0  0  0  0  0  0  0
  1  2  1  0
  1  3  1  0
  1  4  1  0
M  END
>  <reaction>  (3) 
rxn_660

>  <mol_properties>  (3) 
{"0": {"label": "acceptor", "atom_type": "N3s"}, "3": {"label": "a_hydrogen", "atom_type": "H0"}}

>  <type>  (3) 
r2h

$$$$

     RDKit          3D

  9  7  0  0  0  0  0  0  0  0999 V2000
   -0.0209    0.3237    2.2184 N   0  0  0  0  0  2  0  0  0  0  0  0
    0.2306   -0.6642    2.2405 H   0  0  0  0  0  0  0  0  0  0  0  0
    0.7835    0.8291    2.5877 H   0  0  0  0  0  0  0  0  0  0  0  0
    0.0558    0.7009   -0.1166 O   0  0  0  0  0  0  0  0  0  0  0  0
   -0.0751   -0.5329   -0.6148 N   0  0  0  0  0  0  0  0  0  0  0  0
   -0.0253   -0.6080   -1.8784 C   0  0  0  0  0  0  0  0  0  0  0  0
   -0.1866    0.6184    1.0006 H   0  0  0  0  0  0  0  0  0  0  0  0
    0.1045    0.2663   -2.5123 H   0  0  0  0  0  0  0  0  0  0  0  0
   -0.1255   -1.5938   -2.3120 H   0  0  0  0  0  0  0  0  0  0  0  0
  1  2  1  0
  1  3  1  0
  4  5  1  0
  4  7  1  0
  5  6  2  3
  6  8  1  0
  6  9  1  0
M  RAD  1   1   2
M  END
>  <reaction>  (4) 
rxn_660

>  <mol_properties>  (4) 
{"0": {"label": "*3", "atom_type": "N3s"}, "1": {"label": "*4", "atom_type": "H0"}, "3": {"label": "*1", "atom_type": "O2s"}, "4": {"label": "*0", "atom_type": "N3d"}, "6": {"label": "*2", "atom_type": "H0"}}

>  <type>  (4) 
ts

$$$$

     RDKit          3D

  9  7  0  0  0  0  0  0  0  0999 V2000
   -0.0041    0.3111    2.2463 N   0  0  0  0  0  2  0  0  0  0  0  0
    0.8310    0.7425    2.6191 H   0  0  0  0  0  0  0  0  0  0  0  0
   -0.5921    1.1231    2.1147 H   0  0  0  0  0  0  0  0  0  0  0  0
   -0.0041    0.6636   -0.0918 O   0  0  0  0  0  0  0  0  0  0  0  0
   -0.0041   -0.6172   -0.6081 N   0  0  0  0  0  0  0  0  0  0  0  0
   -0.0041   -0.6172   -1.8705 C   0  0  0  0  0  0  0  0  0  0  0  0
   -0.0041    0.4920    1.0464 H   0  0  0  0  0  0  0  0  0  0  0  0
   -0.0041    0.2990   -2.4571 H   0  0  0  0  0  0  0  0  0  0  0  0
   -0.0041   -1.5846   -2.3548 H   0  0  0  0  0  0  0  0  0  0  0  0
  1  2  1  0
  1  3  1  0
  4  5  1  0
  4  7  1  0
  5  6  2  3
  6  8  1  0
  6  9  1  0
M  RAD  1   1   2
M  END
>  <reaction>  (5) 
rxn_660

>  <mol_properties>  (5) 
{"0": {"label": "*3", "atom_type": "N3s"}, "1": {"label": "*4", "atom_type": "H0"}, "3": {"label": "*1", "atom_type": "O2s"}, "4": {"label": "*0", "atom_type": "N3d"}, "6": {"label": "*2", "atom_type": "H0"}}

>  <type>  (5) 
unop_1

>  <geom_source>  (5) 
Heuristics

$$$$

     RDKit          3D

  9  7  0  0  0  0  0  0  0  0999 V2000
   -0.0170    0.3322    2.2497 N   0  0  0  0  0  2  0  0  0  0  0  0
    0.4652   -0.5390    2.4263 H   0  0  0  0  0  0  0  0  0  0  0  0
    0.5303    1.1697    2.1029 H   0  0  0  0  0  0  0  0  0  0  0  0
   -0.0170    0.6847   -0.0883 O   0  0  0  0  0  0  0  0  0  0  0  0
   -0.0170   -0.5961   -0.6047 N   0  0  0  0  0  0  0  0  0  0  0  0
   -0.0170   -0.5961   -1.8670 C   0  0  0  0  0  0  0  0  0  0  0  0
   -0.0170    0.5131    1.0498 H   0  0  0  0  0  0  0  0  0  0  0  0
   -0.0170    0.3201   -2.4536 H   0  0  0  0  0  0  0  0  0  0  0  0
   -0.0170   -1.5635   -2.3513 H   0  0  0  0  0  0  0  0  0  0  0  0
  1  2  1  0
  1  3  1  0
  4  5  1  0
  4  7  1  0
  5  6  2  3
  6  8  1  0
  6  9  1  0
M  RAD  1   1   2
M  END
>  <reaction>  (6) 
rxn_660

>  <mol_properties>  (6) 
{"0": {"label": "*3", "atom_type": "N3s"}, "1": {"label": "*4", "atom_type": "H0"}, "3": {"label": "*1", "atom_type": "O2s"}, "4": {"label": "*0", "atom_type": "N3d"}, "6": {"label": "*2", "atom_type": "H0"}}

>  <type>  (6) 
unop_2

>  <geom_source>  (6) 
Heuristics

$$$$

     RDKit          3D

  9  7  0  0  0  0  0  0  0  0999 V2000
    0.0069    0.3111    2.2419 N   0  0  0  0  0  2  0  0  0  0  0  0
    0.4890    1.0916    2.6674 H   0  0  0  0  0  0  0  0  0  0  0  0
   -0.8909    0.7695    2.3222 H   0  0  0  0  0  0  0  0  0  0  0  0
    0.0069    0.6636   -0.0962 O   0  0  0  0  0  0  0  0  0  0  0  0
    0.0069   -0.6172   -0.6125 N   0  0  0  0  0  0  0  0  0  0  0  0
    0.0069   -0.6172   -1.8749 C   0  0  0  0  0  0  0  0  0  0  0  0
    0.0069    0.4920    1.0420 H   0  0  0  0  0  0  0  0  0  0  0  0
    0.0069    0.2991   -2.4615 H   0  0  0  0  0  0  0  0  0  0  0  0
    0.0069   -1.5845   -2.3591 H   0  0  0  0  0  0  0  0  0  0  0  0
  1  2  1  0
  1  3  1  0
  4  5  1  0
  4  7  1  0
  5  6  2  3
  6  8  1  0
  6  9  1  0
M  RAD  1   1   2
M  END
>  <reaction>  (7) 
rxn_660

>  <mol_properties>  (7) 
{"0": {"label": "*3", "atom_type": "N3s"}, "1": {"label": "*4", "atom_type": "H0"}, "3": {"label": "*1", "atom_type": "O2s"}, "4": {"label": "*0", "atom_type": "N3d"}, "6": {"label": "*2", "atom_type": "H0"}}

>  <type>  (7) 
unop_3

>  <geom_source>  (7) 
Heuristics

$$$$

     RDKit          3D

  9  7  0  0  0  0  0  0  0  0999 V2000
    0.0001    0.3445    2.2380 N   0  0  0  0  0  2  0  0  0  0  0  0
   -0.8351   -0.1776    2.4671 H   0  0  0  0  0  0  0  0  0  0  0  0
    0.8320    0.0826    2.7497 H   0  0  0  0  0  0  0  0  0  0  0  0
    0.0001    0.6970   -0.1001 O   0  0  0  0  0  0  0  0  0  0  0  0
    0.0001   -0.5838   -0.6164 N   0  0  0  0  0  0  0  0  0  0  0  0
    0.0001   -0.5838   -1.8787 C   0  0  0  0  0  0  0  0  0  0  0  0
    0.0001    0.5254    1.0381 H   0  0  0  0  0  0  0  0  0  0  0  0
    0.0001    0.3325   -2.4654 H   0  0  0  0  0  0  0  0  0  0  0  0
    0.0001   -1.5511   -2.3630 H   0  0  0  0  0  0  0  0  0  0  0  0
  1  2  1  0
  1  3  1  0
  4  5  1  0
  4  7  1  0
  5  6  2  3
  6  8  1  0
  6  9  1  0
M  RAD  1   1   2
M  END
>  <reaction>  (8) 
rxn_660

>  <mol_properties>  (8) 
{"0": {"label": "*3", "atom_type": "N3s"}, "1": {"label": "*4", "atom_type": "H0"}, "3": {"label": "*1", "atom_type": "O2s"}, "4": {"label": "*0", "atom_type": "N3d"}, "6": {"label": "*2", "atom_type": "H0"}}

>  <type>  (8) 
unop_4

>  <geom_source>  (8) 
Heuristics

$$$$

     RDKit          3D

  9  7  0  0  0  0  0  0  0  0999 V2000
    0.0144    0.3199    2.2351 N   0  0  0  0  0  2  0  0  0  0  0  0
    0.0144    1.2281    2.6798 H   0  0  0  0  0  0  0  0  0  0  0  0
   -0.8559    0.1200    2.7096 H   0  0  0  0  0  0  0  0  0  0  0  0
    0.0144    0.6724   -0.1030 O   0  0  0  0  0  0  0  0  0  0  0  0
    0.0144   -0.6084   -0.6193 N   0  0  0  0  0  0  0  0  0  0  0  0
    0.0144   -0.6084   -1.8817 C   0  0  0  0  0  0  0  0  0  0  0  0
    0.0144    0.5008    1.0352 H   0  0  0  0  0  0  0  0  0  0  0  0
    0.0144    0.3078   -2.4683 H   0  0  0  0  0  0  0  0  0  0  0  0
    0.0144   -1.5758   -2.3660 H   0  0  0  0  0  0  0  0  0  0  0  0
  1  2  1  0
  1  3  1  0
  4  5  1  0
  4  7  1  0
  5  6  2  3
  6  8  1  0
  6  9  1  0
M  RAD  1   1   2
M  END
>  <reaction>  (9) 
rxn_660

>  <mol_properties>  (9) 
{"0": {"label": "*3", "atom_type": "N3s"}, "1": {"label": "*4", "atom_type": "H0"}, "3": {"label": "*1", "atom_type": "O2s"}, "4": {"label": "*0", "atom_type": "N3d"}, "6": {"label": "*2", "atom_type": "H0"}}

>  <type>  (9) 
unop_5

>  <geom_source>  (9) 
Heuristics

$$$$

     RDKit          3D

  9  7  0  0  0  0  0  0  0  0999 V2000
    0.0064    0.3407    2.2344 N   0  0  0  0  0  2  0  0  0  0  0  0
   -0.9579    0.2953    2.5354 H   0  0  0  0  0  0  0  0  0  0  0  0
    0.5849   -0.1648    2.8920 H   0  0  0  0  0  0  0  0  0  0  0  0
    0.0064    0.6932   -0.1037 O   0  0  0  0  0  0  0  0  0  0  0  0
    0.0064   -0.5876   -0.6200 N   0  0  0  0  0  0  0  0  0  0  0  0
    0.0064   -0.5876   -1.8823 C   0  0  0  0  0  0  0  0  0  0  0  0
    0.0064    0.5216    1.0345 H   0  0  0  0  0  0  0  0  0  0  0  0
    0.0064    0.3286   -2.4690 H   0  0  0  0  0  0  0  0  0  0  0  0
    0.0064   -1.5550   -2.3666 H   0  0  0  0  0  0  0  0  0  0  0  0
  1  2  1  0
  1  3  1  0
  4  5  1  0
  4  7  1  0
  5  6  2  3
  6  8  1  0
  6  9  1  0
M  RAD  1   1   2
M  END
>  <reaction>  (10) 
rxn_660

>  <mol_properties>  (10) 
{"0": {"label": "*3", "atom_type": "N3s"}, "1": {"label": "*4", "atom_type": "H0"}, "3": {"label": "*1", "atom_type": "O2s"}, "4": {"label": "*0", "atom_type": "N3d"}, "6": {"label": "*2", "atom_type": "H0"}}

>  <type>  (10) 
unop_6

>  <geom_source>  (10) 
Heuristics

$$$$

     RDKit          3D

  9  7  0  0  0  0  0  0  0  0999 V2000
    0.0101    0.3352    2.2318 N   0  0  0  0  0  2  0  0  0  0  0  0
   -0.8250    0.7666    2.6047 H   0  0  0  0  0  0  0  0  0  0  0  0
    0.2343   -0.3130    2.9749 H   0  0  0  0  0  0  0  0  0  0  0  0
    0.0101    0.6877   -0.1063 O   0  0  0  0  0  0  0  0  0  0  0  0
    0.0101   -0.5931   -0.6226 N   0  0  0  0  0  0  0  0  0  0  0  0
    0.0101   -0.5931   -1.8849 C   0  0  0  0  0  0  0  0  0  0  0  0
    0.0101    0.5161    1.0319 H   0  0  0  0  0  0  0  0  0  0  0  0
    0.0101    0.3231   -2.4716 H   0  0  0  0  0  0  0  0  0  0  0  0
    0.0101   -1.5605   -2.3692 H   0  0  0  0  0  0  0  0  0  0  0  0
  1  2  1  0
  1  3  1  0
  4  5  1  0
  4  7  1  0
  5  6  2  3
  6  8  1  0
  6  9  1  0
M  RAD  1   1   2
M  END
>  <reaction>  (11) 
rxn_660

>  <mol_properties>  (11) 
{"0": {"label": "*3", "atom_type": "N3s"}, "1": {"label": "*4", "atom_type": "H0"}, "3": {"label": "*1", "atom_type": "O2s"}, "4": {"label": "*0", "atom_type": "N3d"}, "6": {"label": "*2", "atom_type": "H0"}}

>  <type>  (11) 
unop_7

>  <geom_source>  (11) 
Heuristics

$$$$

     RDKit          3D

  9  7  0  0  0  0  0  0  0  0999 V2000
   -0.0120    0.3165    2.2489 N   0  0  0  0  0  2  0  0  0  0  0  0
    0.9523    0.2711    2.5499 H   0  0  0  0  0  0  0  0  0  0  0  0
   -0.2479    1.2751    2.0296 H   0  0  0  0  0  0  0  0  0  0  0  0
   -0.0120    0.6690   -0.0892 O   0  0  0  0  0  0  0  0  0  0  0  0
   -0.0120   -0.6118   -0.6055 N   0  0  0  0  0  0  0  0  0  0  0  0
   -0.0120   -0.6118   -1.8679 C   0  0  0  0  0  0  0  0  0  0  0  0
   -0.0120    0.4974    1.0490 H   0  0  0  0  0  0  0  0  0  0  0  0
   -0.0120    0.3044   -2.4545 H   0  0  0  0  0  0  0  0  0  0  0  0
   -0.0120   -1.5792   -2.3521 H   0  0  0  0  0  0  0  0  0  0  0  0
  1  2  1  0
  1  3  1  0
  4  5  1  0
  4  7  1  0
  5  6  2  3
  6  8  1  0
  6  9  1  0
M  RAD  1   1   2
M  END
>  <reaction>  (12) 
rxn_660

>  <mol_properties>  (12) 
{"0": {"label": "*3", "atom_type": "N3s"}, "1": {"label": "*4", "atom_type": "H0"}, "3": {"label": "*1", "atom_type": "O2s"}, "4": {"label": "*0", "atom_type": "N3d"}, "6": {"label": "*2", "atom_type": "H0"}}

>  <type>  (12) 
unop_8

>  <geom_source>  (12) 
Heuristics

$$$$

     RDKit          3D

  9  7  0  0  0  0  0  0  0  0999 V2000
   -0.0079    0.3444    2.2424 N   0  0  0  0  0  2  0  0  0  0  0  0
   -0.4901   -0.5267    2.4189 H   0  0  0  0  0  0  0  0  0  0  0  0
    0.9536    0.4374    2.5416 H   0  0  0  0  0  0  0  0  0  0  0  0
   -0.0079    0.6969   -0.0957 O   0  0  0  0  0  0  0  0  0  0  0  0
   -0.0079   -0.5839   -0.6120 N   0  0  0  0  0  0  0  0  0  0  0  0
   -0.0079   -0.5839   -1.8744 C   0  0  0  0  0  0  0  0  0  0  0  0
   -0.0079    0.5254    1.0425 H   0  0  0  0  0  0  0  0  0  0  0  0
   -0.0079    0.3324   -2.4610 H   0  0  0  0  0  0  0  0  0  0  0  0
   -0.0079   -1.5512   -2.3586 H   0  0  0  0  0  0  0  0  0  0  0  0
  1  2  1  0
  1  3  1  0
  4  5  1  0
  4  7  1  0
  5  6  2  3
  6  8  1  0
  6  9  1  0
M  RAD  1   1   2
M  END
>  <reaction>  (13) 
rxn_660

>  <mol_properties>  (13) 
{"0": {"label": "*3", "atom_type": "N3s"}, "1": {"label": "*4", "atom_type": "H0"}, "3": {"label": "*1", "atom_type": "O2s"}, "4": {"label": "*0", "atom_type": "N3d"}, "6": {"label": "*2", "atom_type": "H0"}}

>  <type>  (13) 
unop_9

>  <geom_source>  (13) 
Heuristics

$$$$

     RDKit          3D

  9  7  0  0  0  0  0  0  0  0999 V2000
   -0.0162    0.3241    2.2502 N   0  0  0  0  0  2  0  0  0  0  0  0
    0.8190   -0.1980    2.4794 H   0  0  0  0  0  0  0  0  0  0  0  0
    0.1281    1.2985    2.0215 H   0  0  0  0  0  0  0  0  0  0  0  0
   -0.0162    0.6766   -0.0878 O   0  0  0  0  0  0  0  0  0  0  0  0
   -0.0162   -0.6042   -0.6042 N   0  0  0  0  0  0  0  0  0  0  0  0
   -0.0162   -0.6042   -1.8665 C   0  0  0  0  0  0  0  0  0  0  0  0
   -0.0162    0.5050    1.0503 H   0  0  0  0  0  0  0  0  0  0  0  0
   -0.0162    0.3120   -2.4531 H   0  0  0  0  0  0  0  0  0  0  0  0
   -0.0162   -1.5716   -2.3508 H   0  0  0  0  0  0  0  0  0  0  0  0
  1  2  1  0
  1  3  1  0
  4  5  1  0
  4  7  1  0
  5  6  2  3
  6  8  1  0
  6  9  1  0
M  RAD  1   1   2
M  END
>  <reaction>  (14) 
rxn_660

>  <mol_properties>  (14) 
{"0": {"label": "*3", "atom_type": "N3s"}, "1": {"label": "*4", "atom_type": "H0"}, "3": {"label": "*1", "atom_type": "O2s"}, "4": {"label": "*0", "atom_type": "N3d"}, "6": {"label": "*2", "atom_type": "H0"}}

>  <type>  (14) 
unop_10

>  <geom_source>  (14) 
Heuristics

$$$$

     RDKit          3D

  9  7  0  0  0  0  0  0  0  0999 V2000
    0.0128    0.3292    2.2311 N   0  0  0  0  0  2  0  0  0  0  0  0
   -0.4694    1.1096    2.6566 H   0  0  0  0  0  0  0  0  0  0  0  0
   -0.2783   -0.3031    2.9646 H   0  0  0  0  0  0  0  0  0  0  0  0
    0.0128    0.6817   -0.1070 O   0  0  0  0  0  0  0  0  0  0  0  0
    0.0128   -0.5991   -0.6233 N   0  0  0  0  0  0  0  0  0  0  0  0
    0.0128   -0.5991   -1.8856 C   0  0  0  0  0  0  0  0  0  0  0  0
    0.0128    0.5101    1.0312 H   0  0  0  0  0  0  0  0  0  0  0  0
    0.0128    0.3171   -2.4723 H   0  0  0  0  0  0  0  0  0  0  0  0
    0.0128   -1.5665   -2.3699 H   0  0  0  0  0  0  0  0  0  0  0  0
  1  2  1  0
  1  3  1  0
  4  5  1  0
  4  7  1  0
  5  6  2  3
  6  8  1  0
  6  9  1  0
M  RAD  1   1   2
M  END
>  <reaction>  (15) 
rxn_660

>  <mol_properties>  (15) 
{"0": {"label": "*3", "atom_type": "N3s"}, "1": {"label": "*4", "atom_type": "H0"}, "3": {"label": "*1", "atom_type": "O2s"}, "4": {"label": "*0", "atom_type": "N3d"}, "6": {"label": "*2", "atom_type": "H0"}}

>  <type>  (15) 
unop_11

>  <geom_source>  (15) 
Heuristics

$$$$

     RDKit          3D

  9  7  0  0  0  0  0  0  0  0999 V2000
   -0.0144    0.3396    2.2469 N   0  0  0  0  0  2  0  0  0  0  0  0
   -0.0144   -0.6593    2.4041 H   0  0  0  0  0  0  0  0  0  0  0  0
    0.8559    0.8523    2.2946 H   0  0  0  0  0  0  0  0  0  0  0  0
   -0.0144    0.6921   -0.0912 O   0  0  0  0  0  0  0  0  0  0  0  0
   -0.0144   -0.5887   -0.6075 N   0  0  0  0  0  0  0  0  0  0  0  0
   -0.0144   -0.5887   -1.8699 C   0  0  0  0  0  0  0  0  0  0  0  0
   -0.0144    0.5205    1.0470 H   0  0  0  0  0  0  0  0  0  0  0  0
   -0.0144    0.3275   -2.4565 H   0  0  0  0  0  0  0  0  0  0  0  0
   -0.0144   -1.5561   -2.3542 H   0  0  0  0  0  0  0  0  0  0  0  0
  1  2  1  0
  1  3  1  0
  4  5  1  0
  4  7  1  0
  5  6  2  3
  6  8  1  0
  6  9  1  0
M  RAD  1   1   2
M  END
>  <reaction>  (16) 
rxn_660

>  <mol_properties>  (16) 
{"0": {"label": "*3", "atom_type": "N3s"}, "1": {"label": "*4", "atom_type": "H0"}, "3": {"label": "*1", "atom_type": "O2s"}, "4": {"label": "*0", "atom_type": "N3d"}, "6": {"label": "*2", "atom_type": "H0"}}

>  <type>  (16) 
unop_12

>  <geom_source>  (16) 
Heuristics

$$$$
