
     RDKit          3D

 10  9  0  0  0  0  0  0  0  0999 V2000
   -1.1508    0.0666    0.2839 C   0  0  0  0  0  0  0  0  0  0  0  0
    0.1022   -0.3749   -0.4771 C   0  0  0  0  0  0  0  0  0  0  0  0
    1.3428    0.1620    0.1542 C   0  0  0  0  0  0  0  0  0  0  0  0
    2.5613   -0.6971    0.7526 S   0  0  0  0  0  0  0  0  0  0  0  0
   -1.2137    1.1546    0.3481 H   0  0  0  0  0  0  0  0  0  0  0  0
   -2.0472   -0.2935   -0.2212 H   0  0  0  0  0  0  0  0  0  0  0  0
   -1.1467   -0.3334    1.2987 H   0  0  0  0  0  0  0  0  0  0  0  0
    0.1602   -1.4616   -0.5369 H   0  0  0  0  0  0  0  0  0  0  0  0
    0.0536    0.0174   -1.4997 H   0  0  0  0  0  0  0  0  0  0  0  0
    1.3824    1.2528    0.2110 H   0  0  0  0  0  0  0  0  0  0  0  0
  1  2  1  0
  1  5  1  0
  1  6  1  0
  1  7  1  0
  2  3  1  0
  2  8  1  0
  2  9  1  0
  3  4  2  0
  3 10  1  0
M  END
>  <reaction>  (1) 
rxn_1994

>  <mol_properties>  (1) 
{"1": {"label": "donator", "atom_type": "Cs"}, "7": {"label": "d_hydrogen", "atom_type": "H0"}}

>  <type>  (1) 
r1h

$$$$

     RDKit          3D

  1  0  0  0  0  0  0  0  0  0999 V2000
    0.0000    0.0000    0.0000 H   0  0  0  0  0 15  0  0  0  0  0  0
M  END
>  <reaction>  (2) 
rxn_1994

>  <mol_properties>  (2) 
{"0": {"label": "acceptor", "atom_type": "H0"}}

>  <type>  (2) 
r2

$$$$

     RDKit          3D

  2  1  0  0  0  0  0  0  0  0999 V2000
    0.0000    0.0000    0.3721 H   0  0  0  0  0  0  0  0  0  0  0  0
    0.0000    0.0000   -0.3721 H   0  0  0  0  0  0  0  0  0  0  0  0
  1  2  1  0
M  END
>  <reaction>  (3) 
rxn_1994

>  <mol_properties>  (3) 
{"0": {"label": "acceptor", "atom_type": "H0"}, "1": {"label": "a_hydrogen", "atom_type": "H0"}}

>  <type>  (3) 
r2h

$$$$

     RDKit          3D

 11  9  0  0  0  0  0  0  0  0999 V2000
   -0.8176   -2.5470    0.5265 H   0  0  0  0  0 15  0  0  0  0  0  0
    0.2471   -1.0601   -1.9661 C   0  0  0  0  0  0  0  0  0  0  0  0
    0.6275   -1.0026   -0.5066 C   0  0  0  0  0  0  0  0  0  0  0  0
    0.5121    0.2831    0.2072 C   0  0  0  0  0  0  0  0  0  0  0  0
   -0.1669    1.6383   -0.3430 S   0  0  0  0  0  0  0  0  0  0  0  0
    0.9144   -0.4346   -2.5615 H   0  0  0  0  0  0  0  0  0  0  0  0
    0.3145   -2.0844   -2.3333 H   0  0  0  0  0  0  0  0  0  0  0  0
   -0.7679   -0.6962   -2.1223 H   0  0  0  0  0  0  0  0  0  0  0  0
   -0.1026   -1.7338    0.0870 H   0  0  0  0  0  0  0  0  0  0  0  0
    1.5979   -1.4609   -0.2970 H   0  0  0  0  0  0  0  0  0  0  0  0
    0.9222    0.2682    1.2181 H   0  0  0  0  0  0  0  0  0  0  0  0
  2  3  1  0
  2  6  1  0
  2  7  1  0
  2  8  1  0
  3  4  1  0
  3  9  1  0
  3 10  1  0
  4  5  2  0
  4 11  1  0
M  END
>  <reaction>  (4) 
rxn_1994

>  <mol_properties>  (4) 
{"0": {"label": "*1", "atom_type": "H0"}, "2": {"label": "*3", "atom_type": "Cs"}, "3": {"label": "*4", "atom_type": "CS"}, "8": {"label": "*2", "atom_type": "H0"}}

>  <type>  (4) 
ts

$$$$

     RDKit          3D

 11  9  0  0  0  0  0  0  0  0999 V2000
   -1.2389   -2.1988    0.3618 H   0  0  0  0  0 15  0  0  0  0  0  0
    0.4904   -1.0892   -1.9579 C   0  0  0  0  0  0  0  0  0  0  0  0
    0.4904   -1.0892   -0.4268 C   0  0  0  0  0  0  0  0  0  0  0  0
    0.4904    0.2989    0.1198 C   0  0  0  0  0  0  0  0  0  0  0  0
   -0.6291    0.9546    1.0674 S   0  0  0  0  0  0  0  0  0  0  0  0
    1.3456   -0.5391   -2.3550 H   0  0  0  0  0  0  0  0  0  0  0  0
    0.5413   -2.1102   -2.3366 H   0  0  0  0  0  0  0  0  0  0  0  0
   -0.4191   -0.6269   -2.3436 H   0  0  0  0  0  0  0  0  0  0  0  0
   -0.5372   -1.7486    0.0418 H   0  0  0  0  0  0  0  0  0  0  0  0
    1.4008   -1.5859   -0.0714 H   0  0  0  0  0  0  0  0  0  0  0  0
    1.3459    0.9042   -0.1905 H   0  0  0  0  0  0  0  0  0  0  0  0
  2  3  1  0
  2  6  1  0
  2  7  1  0
  2  8  1  0
  3  4  1  0
  3  9  1  0
  3 10  1  0
  4  5  2  0
  4 11  1  0
M  END
>  <reaction>  (5) 
rxn_1994

>  <mol_properties>  (5) 
{"0": {"label": "*1", "atom_type": "H0"}, "2": {"label": "*3", "atom_type": "Cs"}, "3": {"label": "*4", "atom_type": "CS"}, "8": {"label": "*2", "atom_type": "H0"}}

>  <type>  (5) 
unop_1

>  <geom_source>  (5) 
Heuristics

$$$$

     RDKit          3D

 11  9  0  0  0  0  0  0  0  0999 V2000
   -1.1152    2.0973   -0.6227 S   0  0  0  0  0  0  0  0  0  0  0  0
    1.2704   -0.1259   -0.2980 C   0  0  0  0  0  0  0  0  0  0  0  0
   -0.2274   -0.2138   -0.0256 C   0  0  0  0  0  0  0  0  0  0  0  0
   -0.7930    1.1156    0.3739 C   0  0  0  0  0  0  0  0  0  0  0  0
    1.8077    0.2265    0.6084 H   0  0  0  0  0  0  0  0  0  0  0  0
    1.6524   -1.1307   -0.5740 H   0  0  0  0  0  0  0  0  0  0  0  0
    1.4688    0.5702   -1.1401 H   0  0  0  0  0  0  0  0  0  0  0  0
   -0.4090   -0.9527    0.7841 H   0  0  0  0  0  0  0  0  0  0  0  0
   -1.1258    1.2697    1.3953 H   0  0  0  0  0  0  0  0  0  0  0  0
   -1.6422   -1.9091   -0.1207 H   0  0  0  0  0 15  0  0  0  0  0  0
   -0.8866   -0.9472   -0.3805 H   0  0  0  0  0  0  0  0  0  0  0  0
  1  4  2  0
  2  3  1  0
  2  5  1  0
  2  6  1  0
  2  7  1  0
  3  4  1  0
  3  8  1  0
  3 11  1  0
  4  9  1  0
M  END
>  <reaction>  (6) 
rxn_1994

>  <mol_properties>  (6) 
{"0": {"label": "*1", "atom_type": "H0"}, "2": {"label": "*3", "atom_type": "Cs"}, "3": {"label": "*4", "atom_type": "CS"}, "8": {"label": "*2", "atom_type": "H0"}}

>  <type>  (6) 
unop_2

>  <geom_source>  (6) 
AutoTST

$$$$
