
     RDKit          3D

 22 23  0  0  0  0  0  0  0  0999 V2000
   -2.1093   -0.3263    0.3079 C   0  0  0  0  0  0  0  0  0  0  0  0
   -1.3270    0.9803    0.4115 C   0  0  0  0  0  0  0  0  0  0  0  0
   -0.1818    0.8289   -0.6044 C   0  0  0  0  0  0  0  0  0  0  0  0
    1.1682    1.3904   -0.1341 C   0  0  0  0  0  0  0  0  0  0  0  0
    1.8508    0.2041    0.5479 C   0  0  0  0  0  0  0  0  0  0  0  0
    1.4982   -0.9663   -0.3710 C   0  0  0  0  0  0  0  0  0  0  0  0
    0.0340   -0.7124   -0.7594 C   0  0  0  0  0  0  0  0  0  0  0  0
   -0.9986   -1.3650    0.1756 C   0  0  0  0  0  0  0  0  0  0  0  0
   -2.7686   -0.5042    1.1589 H   0  0  0  0  0  0  0  0  0  0  0  0
   -2.7285   -0.3223   -0.5943 H   0  0  0  0  0  0  0  0  0  0  0  0
   -1.9339    1.8682    0.2289 H   0  0  0  0  0  0  0  0  0  0  0  0
   -0.9144    1.0729    1.4218 H   0  0  0  0  0  0  0  0  0  0  0  0
   -0.4804    1.2763   -1.5535 H   0  0  0  0  0  0  0  0  0  0  0  0
    1.7667    1.7058   -0.9931 H   0  0  0  0  0  0  0  0  0  0  0  0
    1.0540    2.2578    0.5189 H   0  0  0  0  0  0  0  0  0  0  0  0
    1.4197    0.0438    1.5410 H   0  0  0  0  0  0  0  0  0  0  0  0
    2.9248    0.3413    0.6788 H   0  0  0  0  0  0  0  0  0  0  0  0
    2.1362   -0.9329   -1.2584 H   0  0  0  0  0  0  0  0  0  0  0  0
    1.6421   -1.9421    0.0966 H   0  0  0  0  0  0  0  0  0  0  0  0
   -0.1575   -1.0299   -1.7854 H   0  0  0  0  0  0  0  0  0  0  0  0
   -1.3459   -2.3310   -0.1933 H   0  0  0  0  0  0  0  0  0  0  0  0
   -0.5489   -1.5373    1.1593 H   0  0  0  0  0  0  0  0  0  0  0  0
  1  2  1  0
  1  8  1  0
  1  9  1  0
  1 10  1  0
  2  3  1  0
  2 11  1  0
  2 12  1  0
  3  4  1  0
  3  7  1  0
  3 13  1  0
  4  5  1  0
  4 14  1  0
  4 15  1  0
  5  6  1  0
  5 16  1  0
  5 17  1  0
  6  7  1  0
  6 18  1  0
  6 19  1  0
  7  8  1  0
  7 20  1  0
  8 21  1  0
  8 22  1  0
M  END
>  <reaction>  (1) 
rxn_557

>  <mol_properties>  (1) 
{"2": {"label": "donator", "atom_type": "Cs"}, "12": {"label": "d_hydrogen", "atom_type": "H0"}}

>  <type>  (1) 
r1h

$$$$

     RDKit          3D

 10  9  0  0  0  0  0  0  0  0999 V2000
    1.2930    0.1441    0.3288 C   0  0  0  0  0  0  0  0  0  0  0  0
   -0.0374   -0.1647    0.9100 C   0  0  0  0  0  3  0  0  0  0  0  0
   -1.2664    0.4569    0.3567 C   0  0  0  0  0  0  0  0  0  0  0  0
    1.4384    1.2242    0.2174 H   0  0  0  0  0  0  0  0  0  0  0  0
    2.1077   -0.2477    0.9385 H   0  0  0  0  0  0  0  0  0  0  0  0
    1.4057   -0.2836   -0.6789 H   0  0  0  0  0  0  0  0  0  0  0  0
   -0.1309   -0.9912    1.6030 H   0  0  0  0  0  0  0  0  0  0  0  0
   -1.5005    0.0716   -0.6471 H   0  0  0  0  0  0  0  0  0  0  0  0
   -2.1382    0.2713    0.9849 H   0  0  0  0  0  0  0  0  0  0  0  0
   -1.1497    1.5406    0.2456 H   0  0  0  0  0  0  0  0  0  0  0  0
  1  2  1  0
  1  4  1  0
  1  5  1  0
  1  6  1  0
  2  3  1  0
  2  7  1  0
  3  8  1  0
  3  9  1  0
  3 10  1  0
M  RAD  1   2   2
M  END
>  <reaction>  (2) 
rxn_557

>  <mol_properties>  (2) 
{"1": {"label": "acceptor", "atom_type": "Cs"}}

>  <type>  (2) 
r2

$$$$

     RDKit          3D

 11 10  0  0  0  0  0  0  0  0999 V2000
   -1.2710    0.1907   -0.2084 C   0  0  0  0  0  0  0  0  0  0  0  0
    0.0202   -0.6130   -0.2928 C   0  0  0  0  0  0  0  0  0  0  0  0
    0.1086   -1.6953    0.7756 C   0  0  0  0  0  0  0  0  0  0  0  0
   -1.3607    0.6851    0.7620 H   0  0  0  0  0  0  0  0  0  0  0  0
   -2.1429   -0.4567   -0.3299 H   0  0  0  0  0  0  0  0  0  0  0  0
   -1.3158    0.9602   -0.9809 H   0  0  0  0  0  0  0  0  0  0  0  0
    0.8757    0.0616   -0.1992 H   0  0  0  0  0  0  0  0  0  0  0  0
    0.0997   -1.0712   -1.2825 H   0  0  0  0  0  0  0  0  0  0  0  0
   -0.7198   -2.4022    0.6850 H   0  0  0  0  0  0  0  0  0  0  0  0
    1.0395   -2.2596    0.6989 H   0  0  0  0  0  0  0  0  0  0  0  0
    0.0624   -1.2603    1.7770 H   0  0  0  0  0  0  0  0  0  0  0  0
  1  2  1  0
  1  4  1  0
  1  5  1  0
  1  6  1  0
  2  3  1  0
  2  7  1  0
  2  8  1  0
  3  9  1  0
  3 10  1  0
  3 11  1  0
M  END
>  <reaction>  (3) 
rxn_557

>  <mol_properties>  (3) 
{"1": {"label": "acceptor", "atom_type": "Cs"}, "10": {"label": "a_hydrogen", "atom_type": "H0"}}

>  <type>  (3) 
r2h

$$$$

     RDKit          3D

 32 32  0  0  0  0  0  0  0  0999 V2000
   -2.9334   -0.4624   -0.5360 C   0  0  0  0  0  0  0  0  0  0  0  0
   -2.0459   -1.3036    0.3433 C   0  0  0  0  0  3  0  0  0  0  0  0
   -2.4075   -1.3350    1.8048 C   0  0  0  0  0  0  0  0  0  0  0  0
   -2.9813    0.5676   -0.1716 H   0  0  0  0  0  0  0  0  0  0  0  0
   -2.5712   -0.4356   -1.5653 H   0  0  0  0  0  0  0  0  0  0  0  0
   -3.9606   -0.8452   -0.5567 H   0  0  0  0  0  0  0  0  0  0  0  0
   -1.8427   -2.2917   -0.0717 H   0  0  0  0  0  0  0  0  0  0  0  0
   -3.3936   -1.7856    1.9678 H   0  0  0  0  0  0  0  0  0  0  0  0
   -1.6826   -1.9087    2.3850 H   0  0  0  0  0  0  0  0  0  0  0  0
   -2.4412   -0.3235    2.2190 H   0  0  0  0  0  0  0  0  0  0  0  0
    2.0477   -1.5558   -0.4232 C   0  0  0  0  0  0  0  0  0  0  0  0
    1.3733   -0.9792    0.8242 C   0  0  0  0  0  0  0  0  0  0  0  0
    0.3081   -0.0402    0.2783 C   0  0  0  0  0  0  0  0  0  0  0  0
    0.0813    1.2927    0.9721 C   0  0  0  0  0  0  0  0  0  0  0  0
    0.8400    2.2954    0.0937 C   0  0  0  0  0  0  0  0  0  0  0  0
    0.5831    1.7830   -1.3260 C   0  0  0  0  0  0  0  0  0  0  0  0
    0.6507    0.2546   -1.1937 C   0  0  0  0  0  0  0  0  0  0  0  0
    2.0367   -0.3767   -1.3948 C   0  0  0  0  0  0  0  0  0  0  0  0
    3.0465   -1.9490   -0.2294 H   0  0  0  0  0  0  0  0  0  0  0  0
    1.4437   -2.3734   -0.8278 H   0  0  0  0  0  0  0  0  0  0  0  0
    0.9633   -1.7485    1.4837 H   0  0  0  0  0  0  0  0  0  0  0  0
    2.1044   -0.4129    1.4143 H   0  0  0  0  0  0  0  0  0  0  0  0
   -0.8327   -0.7061    0.2978 H   0  0  0  0  0  0  0  0  0  0  0  0
   -0.9842    1.5483    0.9765 H   0  0  0  0  0  0  0  0  0  0  0  0
    0.4153    1.2883    2.0112 H   0  0  0  0  0  0  0  0  0  0  0  0
    1.9093    2.2463    0.3202 H   0  0  0  0  0  0  0  0  0  0  0  0
    0.5223    3.3284    0.2421 H   0  0  0  0  0  0  0  0  0  0  0  0
   -0.4178    2.0860   -1.6455 H   0  0  0  0  0  0  0  0  0  0  0  0
    1.2918    2.1727   -2.0589 H   0  0  0  0  0  0  0  0  0  0  0  0
   -0.0599   -0.2285   -1.8711 H   0  0  0  0  0  0  0  0  0  0  0  0
    2.2255   -0.6635   -2.4304 H   0  0  0  0  0  0  0  0  0  0  0  0
    2.8132    0.3400   -1.1063 H   0  0  0  0  0  0  0  0  0  0  0  0
  1  2  1  0
  1  4  1  0
  1  5  1  0
  1  6  1  0
  2  3  1  0
  2  7  1  0
  3  8  1  0
  3  9  1  0
  3 10  1  0
 11 12  1  0
 11 18  1  0
 11 19  1  0
 11 20  1  0
 12 13  1  0
 12 21  1  0
 12 22  1  0
 13 14  1  0
 13 17  1  0
 13 23  1  0
 14 15  1  0
 14 24  1  0
 14 25  1  0
 15 16  1  0
 15 26  1  0
 15 27  1  0
 16 17  1  0
 16 28  1  0
 16 29  1  0
 17 18  1  0
 17 30  1  0
 18 31  1  0
 18 32  1  0
M  RAD  1   2   2
M  END
>  <reaction>  (4) 
rxn_557

>  <mol_properties>  (4) 
{"0": {"label": "*4", "atom_type": "Cs"}, "1": {"label": "*3", "atom_type": "Cs"}, "12": {"label": "*1", "atom_type": "Cs"}, "16": {"label": "*0", "atom_type": "Cs"}, "22": {"label": "*2", "atom_type": "H0"}}

>  <type>  (4) 
ts

$$$$

     RDKit          3D

 32 32  0  0  0  0  0  0  0  0999 V2000
   -2.4897   -0.7268    2.0555 C   0  0  0  0  0  0  0  0  0  0  0  0
   -2.0534   -1.0126    0.6242 C   0  0  0  0  0  3  0  0  0  0  0  0
   -2.8502   -2.1411   -0.0178 C   0  0  0  0  0  0  0  0  0  0  0  0
   -2.3653   -1.6107    2.6857 H   0  0  0  0  0  0  0  0  0  0  0  0
   -1.9080    0.0837    2.4979 H   0  0  0  0  0  0  0  0  0  0  0  0
   -3.5438   -0.4413    2.0929 H   0  0  0  0  0  0  0  0  0  0  0  0
   -2.1588   -0.1050    0.0234 H   0  0  0  0  0  0  0  0  0  0  0  0
   -3.9157   -1.9002   -0.0457 H   0  0  0  0  0  0  0  0  0  0  0  0
   -2.5235   -2.3309   -1.0416 H   0  0  0  0  0  0  0  0  0  0  0  0
   -2.7372   -3.0696    0.5471 H   0  0  0  0  0  0  0  0  0  0  0  0
    1.3029   -1.1535   -1.6884 C   0  0  0  0  0  0  0  0  0  0  0  0
    1.3029   -1.1535   -0.1619 C   0  0  0  0  0  0  0  0  0  0  0  0
    0.3395   -0.0188    0.2264 C   0  0  0  0  0  0  0  0  0  0  0  0
    0.7923    0.8198    1.4309 C   0  0  0  0  0  0  0  0  0  0  0  0
    1.6043    1.9580    0.8115 C   0  0  0  0  0  0  0  0  0  0  0  0
    0.7923    2.3176   -0.4334 C   0  0  0  0  0  0  0  0  0  0  0  0
    0.3395    0.9608   -0.9928 C   0  0  0  0  0  0  0  0  0  0  0  0
    1.3029    0.3370   -2.0172 C   0  0  0  0  0  0  0  0  0  0  0  0
    2.1477   -1.6917   -2.1208 H   0  0  0  0  0  0  0  0  0  0  0  0
    0.3870   -1.6204   -2.0634 H   0  0  0  0  0  0  0  0  0  0  0  0
    1.0186   -2.1119    0.2747 H   0  0  0  0  0  0  0  0  0  0  0  0
    2.3110   -0.9210    0.1973 H   0  0  0  0  0  0  0  0  0  0  0  0
   -0.8555   -0.5151    0.4251 H   0  0  0  0  0  0  0  0  0  0  0  0
   -0.0755    1.2366    1.9493 H   0  0  0  0  0  0  0  0  0  0  0  0
    1.3554    0.2330    2.1591 H   0  0  0  0  0  0  0  0  0  0  0  0
    2.5954    1.5961    0.5208 H   0  0  0  0  0  0  0  0  0  0  0  0
    1.7522    2.8003    1.4882 H   0  0  0  0  0  0  0  0  0  0  0  0
   -0.0755    2.9136   -0.1381 H   0  0  0  0  0  0  0  0  0  0  0  0
    1.3554    2.9023   -1.1633 H   0  0  0  0  0  0  0  0  0  0  0  0
   -0.6564    1.0333   -1.4324 H   0  0  0  0  0  0  0  0  0  0  0  0
    1.0186    0.5569   -3.0471 H   0  0  0  0  0  0  0  0  0  0  0  0
    2.3110    0.7380   -1.8675 H   0  0  0  0  0  0  0  0  0  0  0  0
  1  2  1  0
  1  4  1  0
  1  5  1  0
  1  6  1  0
  2  3  1  0
  2  7  1  0
  3  8  1  0
  3  9  1  0
  3 10  1  0
 11 12  1  0
 11 18  1  0
 11 19  1  0
 11 20  1  0
 12 13  1  0
 12 21  1  0
 12 22  1  0
 13 14  1  0
 13 17  1  0
 13 23  1  0
 14 15  1  0
 14 24  1  0
 14 25  1  0
 15 16  1  0
 15 26  1  0
 15 27  1  0
 16 17  1  0
 16 28  1  0
 16 29  1  0
 17 18  1  0
 17 30  1  0
 18 31  1  0
 18 32  1  0
M  RAD  1   2   2
M  END
>  <reaction>  (5) 
rxn_557

>  <mol_properties>  (5) 
{"0": {"label": "*4", "atom_type": "Cs"}, "1": {"label": "*3", "atom_type": "Cs"}, "12": {"label": "*1", "atom_type": "Cs"}, "16": {"label": "*0", "atom_type": "Cs"}, "22": {"label": "*2", "atom_type": "H0"}}

>  <type>  (5) 
unop_1

>  <geom_source>  (5) 
Heuristics

$$$$

     RDKit          3D

 32 32  0  0  0  0  0  0  0  0999 V2000
   -1.9523   -2.4009    1.2503 C   0  0  0  0  0  0  0  0  0  0  0  0
   -2.0755   -0.9683    0.7470 C   0  0  0  0  0  3  0  0  0  0  0  0
   -3.2149   -0.7921   -0.2485 C   0  0  0  0  0  0  0  0  0  0  0  0
   -1.7698   -3.0912    0.4232 H   0  0  0  0  0  0  0  0  0  0  0  0
   -1.1315   -2.5070    1.9616 H   0  0  0  0  0  0  0  0  0  0  0  0
   -2.8707   -2.7200    1.7491 H   0  0  0  0  0  0  0  0  0  0  0  0
   -2.2266   -0.2960    1.5961 H   0  0  0  0  0  0  0  0  0  0  0  0
   -4.1731   -1.0606    0.2030 H   0  0  0  0  0  0  0  0  0  0  0  0
   -3.2871    0.2394   -0.5972 H   0  0  0  0  0  0  0  0  0  0  0  0
   -3.0722   -1.4317   -1.1229 H   0  0  0  0  0  0  0  0  0  0  0  0
    1.2808   -1.1093   -1.5656 C   0  0  0  0  0  0  0  0  0  0  0  0
    1.2808   -1.1093   -0.0391 C   0  0  0  0  0  0  0  0  0  0  0  0
    0.3174    0.0255    0.3492 C   0  0  0  0  0  0  0  0  0  0  0  0
    0.7702    0.8640    1.5537 C   0  0  0  0  0  0  0  0  0  0  0  0
    1.5822    2.0022    0.9343 C   0  0  0  0  0  0  0  0  0  0  0  0
    0.7702    2.3619   -0.3106 C   0  0  0  0  0  0  0  0  0  0  0  0
    0.3174    1.0050   -0.8700 C   0  0  0  0  0  0  0  0  0  0  0  0
    1.2808    0.3813   -1.8944 C   0  0  0  0  0  0  0  0  0  0  0  0
    2.1256   -1.6475   -1.9980 H   0  0  0  0  0  0  0  0  0  0  0  0
    0.3649   -1.5761   -1.9406 H   0  0  0  0  0  0  0  0  0  0  0  0
    0.9965   -2.0676    0.3975 H   0  0  0  0  0  0  0  0  0  0  0  0
    2.2889   -0.8767    0.3202 H   0  0  0  0  0  0  0  0  0  0  0  0
   -0.8776   -0.4709    0.5479 H   0  0  0  0  0  0  0  0  0  0  0  0
   -0.0976    1.2809    2.0721 H   0  0  0  0  0  0  0  0  0  0  0  0
    1.3333    0.2773    2.2819 H   0  0  0  0  0  0  0  0  0  0  0  0
    2.5733    1.6404    0.6436 H   0  0  0  0  0  0  0  0  0  0  0  0
    1.7301    2.8446    1.6110 H   0  0  0  0  0  0  0  0  0  0  0  0
   -0.0976    2.9579   -0.0153 H   0  0  0  0  0  0  0  0  0  0  0  0
    1.3333    2.9466   -1.0404 H   0  0  0  0  0  0  0  0  0  0  0  0
   -0.6784    1.0776   -1.3096 H   0  0  0  0  0  0  0  0  0  0  0  0
    0.9965    0.6012   -2.9243 H   0  0  0  0  0  0  0  0  0  0  0  0
    2.2889    0.7823   -1.7447 H   0  0  0  0  0  0  0  0  0  0  0  0
  1  2  1  0
  1  4  1  0
  1  5  1  0
  1  6  1  0
  2  3  1  0
  2  7  1  0
  3  8  1  0
  3  9  1  0
  3 10  1  0
 11 12  1  0
 11 18  1  0
 11 19  1  0
 11 20  1  0
 12 13  1  0
 12 21  1  0
 12 22  1  0
 13 14  1  0
 13 17  1  0
 13 23  1  0
 14 15  1  0
 14 24  1  0
 14 25  1  0
 15 16  1  0
 15 26  1  0
 15 27  1  0
 16 17  1  0
 16 28  1  0
 16 29  1  0
 17 18  1  0
 17 30  1  0
 18 31  1  0
 18 32  1  0
M  RAD  1   2   2
M  END
>  <reaction>  (6) 
rxn_557

>  <mol_properties>  (6) 
{"0": {"label": "*4", "atom_type": "Cs"}, "1": {"label": "*3", "atom_type": "Cs"}, "12": {"label": "*1", "atom_type": "Cs"}, "16": {"label": "*0", "atom_type": "Cs"}, "22": {"label": "*2", "atom_type": "H0"}}

>  <type>  (6) 
unop_2

>  <geom_source>  (6) 
Heuristics

$$$$

     RDKit          3D

 32 32  0  0  0  0  0  0  0  0999 V2000
   -2.7929   -0.1905    1.6359 C   0  0  0  0  0  0  0  0  0  0  0  0
   -2.0601   -1.0325    0.5992 C   0  0  0  0  0  3  0  0  0  0  0  0
   -2.4909   -2.4935    0.6191 C   0  0  0  0  0  0  0  0  0  0  0  0
   -2.6114   -0.5683    2.6450 H   0  0  0  0  0  0  0  0  0  0  0  0
   -2.4712    0.8518    1.6062 H   0  0  0  0  0  0  0  0  0  0  0  0
   -3.8720   -0.2127    1.4650 H   0  0  0  0  0  0  0  0  0  0  0  0
   -2.2332   -0.6155   -0.3968 H   0  0  0  0  0  0  0  0  0  0  0  0
   -3.5604   -2.5882    0.4163 H   0  0  0  0  0  0  0  0  0  0  0  0
   -1.9555   -3.0798   -0.1295 H   0  0  0  0  0  0  0  0  0  0  0  0
   -2.2998   -2.9438    1.5963 H   0  0  0  0  0  0  0  0  0  0  0  0
    1.2961   -1.1734   -1.7134 C   0  0  0  0  0  0  0  0  0  0  0  0
    1.2961   -1.1734   -0.1870 C   0  0  0  0  0  0  0  0  0  0  0  0
    0.3328   -0.0387    0.2014 C   0  0  0  0  0  0  0  0  0  0  0  0
    0.7855    0.7999    1.4059 C   0  0  0  0  0  0  0  0  0  0  0  0
    1.5975    1.9381    0.7865 C   0  0  0  0  0  0  0  0  0  0  0  0
    0.7855    2.2977   -0.4584 C   0  0  0  0  0  0  0  0  0  0  0  0
    0.3328    0.9409   -1.0178 C   0  0  0  0  0  0  0  0  0  0  0  0
    1.2961    0.3172   -2.0422 C   0  0  0  0  0  0  0  0  0  0  0  0
    2.1410   -1.7116   -2.1458 H   0  0  0  0  0  0  0  0  0  0  0  0
    0.3803   -1.6402   -2.0885 H   0  0  0  0  0  0  0  0  0  0  0  0
    1.0118   -2.1318    0.2496 H   0  0  0  0  0  0  0  0  0  0  0  0
    2.3043   -0.9408    0.1723 H   0  0  0  0  0  0  0  0  0  0  0  0
   -0.8623   -0.5350    0.4001 H   0  0  0  0  0  0  0  0  0  0  0  0
   -0.0823    1.2167    1.9243 H   0  0  0  0  0  0  0  0  0  0  0  0
    1.3486    0.2132    2.1341 H   0  0  0  0  0  0  0  0  0  0  0  0
    2.5886    1.5763    0.4958 H   0  0  0  0  0  0  0  0  0  0  0  0
    1.7455    2.7804    1.4632 H   0  0  0  0  0  0  0  0  0  0  0  0
   -0.0823    2.8938   -0.1631 H   0  0  0  0  0  0  0  0  0  0  0  0
    1.3486    2.8825   -1.1883 H   0  0  0  0  0  0  0  0  0  0  0  0
   -0.6631    1.0135   -1.4574 H   0  0  0  0  0  0  0  0  0  0  0  0
    1.0118    0.5371   -3.0722 H   0  0  0  0  0  0  0  0  0  0  0  0
    2.3043    0.7181   -1.8925 H   0  0  0  0  0  0  0  0  0  0  0  0
  1  2  1  0
  1  4  1  0
  1  5  1  0
  1  6  1  0
  2  3  1  0
  2  7  1  0
  3  8  1  0
  3  9  1  0
  3 10  1  0
 11 12  1  0
 11 18  1  0
 11 19  1  0
 11 20  1  0
 12 13  1  0
 12 21  1  0
 12 22  1  0
 13 14  1  0
 13 17  1  0
 13 23  1  0
 14 15  1  0
 14 24  1  0
 14 25  1  0
 15 16  1  0
 15 26  1  0
 15 27  1  0
 16 17  1  0
 16 28  1  0
 16 29  1  0
 17 18  1  0
 17 30  1  0
 18 31  1  0
 18 32  1  0
M  RAD  1   2   2
M  END
>  <reaction>  (7) 
rxn_557

>  <mol_properties>  (7) 
{"0": {"label": "*4", "atom_type": "Cs"}, "1": {"label": "*3", "atom_type": "Cs"}, "12": {"label": "*1", "atom_type": "Cs"}, "16": {"label": "*0", "atom_type": "Cs"}, "22": {"label": "*2", "atom_type": "H0"}}

>  <type>  (7) 
unop_3

>  <geom_source>  (7) 
Heuristics

$$$$

     RDKit          3D

 32 32  0  0  0  0  0  0  0  0999 V2000
   -2.5772   -1.8431   -0.4574 C   0  0  0  0  0  0  0  0  0  0  0  0
   -2.0878   -1.1728    0.8199 C   0  0  0  0  0  3  0  0  0  0  0  0
   -2.4795    0.2972    0.8983 C   0  0  0  0  0  0  0  0  0  0  0  0
   -2.1637   -1.3499   -1.3405 H   0  0  0  0  0  0  0  0  0  0  0  0
   -2.2872   -2.8945   -0.4952 H   0  0  0  0  0  0  0  0  0  0  0  0
   -3.6662   -1.7935   -0.5321 H   0  0  0  0  0  0  0  0  0  0  0  0
   -2.4906   -1.7036    1.6869 H   0  0  0  0  0  0  0  0  0  0  0  0
   -3.5655    0.4143    0.8664 H   0  0  0  0  0  0  0  0  0  0  0  0
   -2.1204    0.7595    1.8193 H   0  0  0  0  0  0  0  0  0  0  0  0
   -2.0630    0.8578    0.0579 H   0  0  0  0  0  0  0  0  0  0  0  0
    1.2685   -1.3137   -1.4927 C   0  0  0  0  0  0  0  0  0  0  0  0
    1.2685   -1.3137    0.0338 C   0  0  0  0  0  0  0  0  0  0  0  0
    0.3051   -0.1790    0.4221 C   0  0  0  0  0  0  0  0  0  0  0  0
    0.7579    0.6596    1.6266 C   0  0  0  0  0  0  0  0  0  0  0  0
    1.5699    1.7978    1.0072 C   0  0  0  0  0  0  0  0  0  0  0  0
    0.7579    2.1574   -0.2377 C   0  0  0  0  0  0  0  0  0  0  0  0
    0.3051    0.8006   -0.7971 C   0  0  0  0  0  0  0  0  0  0  0  0
    1.2685    0.1769   -1.8215 C   0  0  0  0  0  0  0  0  0  0  0  0
    2.1133   -1.8519   -1.9251 H   0  0  0  0  0  0  0  0  0  0  0  0
    0.3526   -1.7805   -1.8678 H   0  0  0  0  0  0  0  0  0  0  0  0
    0.9842   -2.2721    0.4703 H   0  0  0  0  0  0  0  0  0  0  0  0
    2.2766   -1.0811    0.3930 H   0  0  0  0  0  0  0  0  0  0  0  0
   -0.8899   -0.6753    0.6208 H   0  0  0  0  0  0  0  0  0  0  0  0
   -0.1099    1.0764    2.1450 H   0  0  0  0  0  0  0  0  0  0  0  0
    1.3210    0.0729    2.3548 H   0  0  0  0  0  0  0  0  0  0  0  0
    2.5610    1.4360    0.7165 H   0  0  0  0  0  0  0  0  0  0  0  0
    1.7178    2.6401    1.6839 H   0  0  0  0  0  0  0  0  0  0  0  0
   -0.1099    2.7535    0.0576 H   0  0  0  0  0  0  0  0  0  0  0  0
    1.3210    2.7422   -0.9676 H   0  0  0  0  0  0  0  0  0  0  0  0
   -0.6907    0.8732   -1.2367 H   0  0  0  0  0  0  0  0  0  0  0  0
    0.9842    0.3968   -2.8514 H   0  0  0  0  0  0  0  0  0  0  0  0
    2.2766    0.5778   -1.6718 H   0  0  0  0  0  0  0  0  0  0  0  0
  1  2  1  0
  1  4  1  0
  1  5  1  0
  1  6  1  0
  2  3  1  0
  2  7  1  0
  3  8  1  0
  3  9  1  0
  3 10  1  0
 11 12  1  0
 11 18  1  0
 11 19  1  0
 11 20  1  0
 12 13  1  0
 12 21  1  0
 12 22  1  0
 13 14  1  0
 13 17  1  0
 13 23  1  0
 14 15  1  0
 14 24  1  0
 14 25  1  0
 15 16  1  0
 15 26  1  0
 15 27  1  0
 16 17  1  0
 16 28  1  0
 16 29  1  0
 17 18  1  0
 17 30  1  0
 18 31  1  0
 18 32  1  0
M  RAD  1   2   2
M  END
>  <reaction>  (8) 
rxn_557

>  <mol_properties>  (8) 
{"0": {"label": "*4", "atom_type": "Cs"}, "1": {"label": "*3", "atom_type": "Cs"}, "12": {"label": "*1", "atom_type": "Cs"}, "16": {"label": "*0", "atom_type": "Cs"}, "22": {"label": "*2", "atom_type": "H0"}}

>  <type>  (8) 
unop_4

>  <geom_source>  (8) 
Heuristics

$$$$

     RDKit          3D

 32 32  0  0  0  0  0  0  0  0999 V2000
   -3.0453    0.0275    0.9442 C   0  0  0  0  0  0  0  0  0  0  0  0
   -2.0883   -1.0934    0.5593 C   0  0  0  0  0  3  0  0  0  0  0  0
   -2.0132   -2.1891    1.6149 C   0  0  0  0  0  0  0  0  0  0  0  0
   -2.7375    0.4998    1.8802 H   0  0  0  0  0  0  0  0  0  0  0  0
   -3.0854    0.8020    0.1764 H   0  0  0  0  0  0  0  0  0  0  0  0
   -4.0587   -0.3557    1.0862 H   0  0  0  0  0  0  0  0  0  0  0  0
   -2.4009   -1.5276   -0.3944 H   0  0  0  0  0  0  0  0  0  0  0  0
   -2.9941   -2.6422    1.7781 H   0  0  0  0  0  0  0  0  0  0  0  0
   -1.3234   -2.9822    1.3215 H   0  0  0  0  0  0  0  0  0  0  0  0
   -1.6729   -1.7867    2.5721 H   0  0  0  0  0  0  0  0  0  0  0  0
    1.2680   -1.2343   -1.7533 C   0  0  0  0  0  0  0  0  0  0  0  0
    1.2680   -1.2343   -0.2269 C   0  0  0  0  0  0  0  0  0  0  0  0
    0.3046   -0.0996    0.1615 C   0  0  0  0  0  0  0  0  0  0  0  0
    0.7574    0.7390    1.3659 C   0  0  0  0  0  0  0  0  0  0  0  0
    1.5694    1.8772    0.7465 C   0  0  0  0  0  0  0  0  0  0  0  0
    0.7574    2.2368   -0.4984 C   0  0  0  0  0  0  0  0  0  0  0  0
    0.3046    0.8800   -1.0577 C   0  0  0  0  0  0  0  0  0  0  0  0
    1.2680    0.2562   -2.0822 C   0  0  0  0  0  0  0  0  0  0  0  0
    2.1128   -1.7725   -2.1857 H   0  0  0  0  0  0  0  0  0  0  0  0
    0.3521   -1.7012   -2.1284 H   0  0  0  0  0  0  0  0  0  0  0  0
    0.9836   -2.1927    0.2097 H   0  0  0  0  0  0  0  0  0  0  0  0
    2.2761   -1.0018    0.1324 H   0  0  0  0  0  0  0  0  0  0  0  0
   -0.8904   -0.5959    0.3602 H   0  0  0  0  0  0  0  0  0  0  0  0
   -0.1104    1.1558    1.8844 H   0  0  0  0  0  0  0  0  0  0  0  0
    1.3205    0.1522    2.0942 H   0  0  0  0  0  0  0  0  0  0  0  0
    2.5605    1.5153    0.4558 H   0  0  0  0  0  0  0  0  0  0  0  0
    1.7173    2.7195    1.4233 H   0  0  0  0  0  0  0  0  0  0  0  0
   -0.1104    2.8328   -0.2030 H   0  0  0  0  0  0  0  0  0  0  0  0
    1.3205    2.8215   -1.2282 H   0  0  0  0  0  0  0  0  0  0  0  0
   -0.6913    0.9525   -1.4973 H   0  0  0  0  0  0  0  0  0  0  0  0
    0.9836    0.4761   -3.1121 H   0  0  0  0  0  0  0  0  0  0  0  0
    2.2761    0.6572   -1.9325 H   0  0  0  0  0  0  0  0  0  0  0  0
  1  2  1  0
  1  4  1  0
  1  5  1  0
  1  6  1  0
  2  3  1  0
  2  7  1  0
  3  8  1  0
  3  9  1  0
  3 10  1  0
 11 12  1  0
 11 18  1  0
 11 19  1  0
 11 20  1  0
 12 13  1  0
 12 21  1  0
 12 22  1  0
 13 14  1  0
 13 17  1  0
 13 23  1  0
 14 15  1  0
 14 24  1  0
 14 25  1  0
 15 16  1  0
 15 26  1  0
 15 27  1  0
 16 17  1  0
 16 28  1  0
 16 29  1  0
 17 18  1  0
 17 30  1  0
 18 31  1  0
 18 32  1  0
M  RAD  1   2   2
M  END
>  <reaction>  (9) 
rxn_557

>  <mol_properties>  (9) 
{"0": {"label": "*4", "atom_type": "Cs"}, "1": {"label": "*3", "atom_type": "Cs"}, "12": {"label": "*1", "atom_type": "Cs"}, "16": {"label": "*0", "atom_type": "Cs"}, "22": {"label": "*2", "atom_type": "H0"}}

>  <type>  (9) 
unop_5

>  <geom_source>  (9) 
Heuristics

$$$$

     RDKit          3D

 32 32  0  0  0  0  0  0  0  0999 V2000
   -2.8725   -1.2144   -0.5512 C   0  0  0  0  0  0  0  0  0  0  0  0
   -2.0936   -1.2283    0.7579 C   0  0  0  0  0  3  0  0  0  0  0  0
   -2.1397    0.1110    1.4823 C   0  0  0  0  0  0  0  0  0  0  0  0
   -2.4731   -0.4619   -1.2354 H   0  0  0  0  0  0  0  0  0  0  0  0
   -2.8277   -2.1815   -1.0549 H   0  0  0  0  0  0  0  0  0  0  0  0
   -3.9246   -0.9761   -0.3773 H   0  0  0  0  0  0  0  0  0  0  0  0
   -2.4930   -2.0093    1.4108 H   0  0  0  0  0  0  0  0  0  0  0  0
   -3.1688    0.3911    1.7203 H   0  0  0  0  0  0  0  0  0  0  0  0
   -1.5768    0.0813    2.4167 H   0  0  0  0  0  0  0  0  0  0  0  0
   -1.7172    0.9053    0.8621 H   0  0  0  0  0  0  0  0  0  0  0  0
    1.2627   -1.3692   -1.5547 C   0  0  0  0  0  0  0  0  0  0  0  0
    1.2627   -1.3692   -0.0283 C   0  0  0  0  0  0  0  0  0  0  0  0
    0.2993   -0.2345    0.3601 C   0  0  0  0  0  0  0  0  0  0  0  0
    0.7521    0.6041    1.5645 C   0  0  0  0  0  0  0  0  0  0  0  0
    1.5641    1.7423    0.9451 C   0  0  0  0  0  0  0  0  0  0  0  0
    0.7521    2.1019   -0.2998 C   0  0  0  0  0  0  0  0  0  0  0  0
    0.2993    0.7451   -0.8591 C   0  0  0  0  0  0  0  0  0  0  0  0
    1.2627    0.1214   -1.8836 C   0  0  0  0  0  0  0  0  0  0  0  0
    2.1075   -1.9074   -1.9871 H   0  0  0  0  0  0  0  0  0  0  0  0
    0.3468   -1.8361   -1.9298 H   0  0  0  0  0  0  0  0  0  0  0  0
    0.9783   -2.3276    0.4083 H   0  0  0  0  0  0  0  0  0  0  0  0
    2.2708   -1.1366    0.3310 H   0  0  0  0  0  0  0  0  0  0  0  0
   -0.8957   -0.7308    0.5588 H   0  0  0  0  0  0  0  0  0  0  0  0
   -0.1158    1.0209    2.0829 H   0  0  0  0  0  0  0  0  0  0  0  0
    1.3151    0.0174    2.2928 H   0  0  0  0  0  0  0  0  0  0  0  0
    2.5552    1.3804    0.6544 H   0  0  0  0  0  0  0  0  0  0  0  0
    1.7120    2.5846    1.6219 H   0  0  0  0  0  0  0  0  0  0  0  0
   -0.1158    2.6980   -0.0044 H   0  0  0  0  0  0  0  0  0  0  0  0
    1.3151    2.6867   -1.0296 H   0  0  0  0  0  0  0  0  0  0  0  0
   -0.6966    0.8176   -1.2987 H   0  0  0  0  0  0  0  0  0  0  0  0
    0.9783    0.3412   -2.9135 H   0  0  0  0  0  0  0  0  0  0  0  0
    2.2708    0.5223   -1.7339 H   0  0  0  0  0  0  0  0  0  0  0  0
  1  2  1  0
  1  4  1  0
  1  5  1  0
  1  6  1  0
  2  3  1  0
  2  7  1  0
  3  8  1  0
  3  9  1  0
  3 10  1  0
 11 12  1  0
 11 18  1  0
 11 19  1  0
 11 20  1  0
 12 13  1  0
 12 21  1  0
 12 22  1  0
 13 14  1  0
 13 17  1  0
 13 23  1  0
 14 15  1  0
 14 24  1  0
 14 25  1  0
 15 16  1  0
 15 26  1  0
 15 27  1  0
 16 17  1  0
 16 28  1  0
 16 29  1  0
 17 18  1  0
 17 30  1  0
 18 31  1  0
 18 32  1  0
M  RAD  1   2   2
M  END
>  <reaction>  (10) 
rxn_557

>  <mol_properties>  (10) 
{"0": {"label": "*4", "atom_type": "Cs"}, "1": {"label": "*3", "atom_type": "Cs"}, "12": {"label": "*1", "atom_type": "Cs"}, "16": {"label": "*0", "atom_type": "Cs"}, "22": {"label": "*2", "atom_type": "H0"}}

>  <type>  (10) 
unop_6

>  <geom_source>  (10) 
Heuristics

$$$$

     RDKit          3D

 32 32  0  0  0  0  0  0  0  0999 V2000
   -3.0861   -0.5987   -0.2976 C   0  0  0  0  0  0  0  0  0  0  0  0
   -2.1024   -1.2415    0.6719 C   0  0  0  0  0  3  0  0  0  0  0  0
   -1.8597   -0.3905    1.9118 C   0  0  0  0  0  0  0  0  0  0  0  0
   -2.7205    0.3732   -0.6379 H   0  0  0  0  0  0  0  0  0  0  0  0
   -3.2469   -1.2225   -1.1784 H   0  0  0  0  0  0  0  0  0  0  0  0
   -4.0557   -0.4371    0.1796 H   0  0  0  0  0  0  0  0  0  0  0  0
   -2.4769   -2.2240    0.9723 H   0  0  0  0  0  0  0  0  0  0  0  0
   -2.7907   -0.2223    2.4586 H   0  0  0  0  0  0  0  0  0  0  0  0
   -1.1531   -0.8671    2.5934 H   0  0  0  0  0  0  0  0  0  0  0  0
   -1.4554    0.5879    1.6410 H   0  0  0  0  0  0  0  0  0  0  0  0
    1.2538   -1.3824   -1.6407 C   0  0  0  0  0  0  0  0  0  0  0  0
    1.2538   -1.3824   -0.1143 C   0  0  0  0  0  0  0  0  0  0  0  0
    0.2905   -0.2477    0.2741 C   0  0  0  0  0  0  0  0  0  0  0  0
    0.7432    0.5909    1.4785 C   0  0  0  0  0  0  0  0  0  0  0  0
    1.5552    1.7291    0.8591 C   0  0  0  0  0  0  0  0  0  0  0  0
    0.7432    2.0887   -0.3858 C   0  0  0  0  0  0  0  0  0  0  0  0
    0.2905    0.7319   -0.9452 C   0  0  0  0  0  0  0  0  0  0  0  0
    1.2538    0.1082   -1.9696 C   0  0  0  0  0  0  0  0  0  0  0  0
    2.0986   -1.9206   -2.0731 H   0  0  0  0  0  0  0  0  0  0  0  0
    0.3380   -1.8493   -2.0158 H   0  0  0  0  0  0  0  0  0  0  0  0
    0.9695   -2.3408    0.3223 H   0  0  0  0  0  0  0  0  0  0  0  0
    2.2620   -1.1498    0.2450 H   0  0  0  0  0  0  0  0  0  0  0  0
   -0.9046   -0.7440    0.4727 H   0  0  0  0  0  0  0  0  0  0  0  0
   -0.1246    1.0077    1.9969 H   0  0  0  0  0  0  0  0  0  0  0  0
    1.3063    0.0042    2.2068 H   0  0  0  0  0  0  0  0  0  0  0  0
    2.5463    1.3672    0.5684 H   0  0  0  0  0  0  0  0  0  0  0  0
    1.7031    2.5714    1.5359 H   0  0  0  0  0  0  0  0  0  0  0  0
   -0.1246    2.6848   -0.0904 H   0  0  0  0  0  0  0  0  0  0  0  0
    1.3063    2.6735   -1.1156 H   0  0  0  0  0  0  0  0  0  0  0  0
   -0.7054    0.8044   -1.3847 H   0  0  0  0  0  0  0  0  0  0  0  0
    0.9695    0.3280   -2.9995 H   0  0  0  0  0  0  0  0  0  0  0  0
    2.2620    0.5091   -1.8199 H   0  0  0  0  0  0  0  0  0  0  0  0
  1  2  1  0
  1  4  1  0
  1  5  1  0
  1  6  1  0
  2  3  1  0
  2  7  1  0
  3  8  1  0
  3  9  1  0
  3 10  1  0
 11 12  1  0
 11 18  1  0
 11 19  1  0
 11 20  1  0
 12 13  1  0
 12 21  1  0
 12 22  1  0
 13 14  1  0
 13 17  1  0
 13 23  1  0
 14 15  1  0
 14 24  1  0
 14 25  1  0
 15 16  1  0
 15 26  1  0
 15 27  1  0
 16 17  1  0
 16 28  1  0
 16 29  1  0
 17 18  1  0
 17 30  1  0
 18 31  1  0
 18 32  1  0
M  RAD  1   2   2
M  END
>  <reaction>  (11) 
rxn_557

>  <mol_properties>  (11) 
{"0": {"label": "*4", "atom_type": "Cs"}, "1": {"label": "*3", "atom_type": "Cs"}, "12": {"label": "*1", "atom_type": "Cs"}, "16": {"label": "*0", "atom_type": "Cs"}, "22": {"label": "*2", "atom_type": "H0"}}

>  <type>  (11) 
unop_7

>  <geom_source>  (11) 
Heuristics

$$$$

     RDKit          3D

 32 32  0  0  0  0  0  0  0  0999 V2000
   -2.2065   -1.3880    2.1071 C   0  0  0  0  0  0  0  0  0  0  0  0
   -2.0596   -0.9897    0.6441 C   0  0  0  0  0  3  0  0  0  0  0  0
   -3.0861   -1.6675   -0.2544 C   0  0  0  0  0  0  0  0  0  0  0  0
   -2.0848   -2.4667    2.2323 H   0  0  0  0  0  0  0  0  0  0  0  0
   -1.4632   -0.8928    2.7342 H   0  0  0  0  0  0  0  0  0  0  0  0
   -3.1958   -1.1218    2.4870 H   0  0  0  0  0  0  0  0  0  0  0  0
   -2.1547    0.0957    0.5511 H   0  0  0  0  0  0  0  0  0  0  0  0
   -4.1032   -1.4101    0.0511 H   0  0  0  0  0  0  0  0  0  0  0  0
   -2.9650   -1.3700   -1.2974 H   0  0  0  0  0  0  0  0  0  0  0  0
   -2.9922   -2.7550   -0.2036 H   0  0  0  0  0  0  0  0  0  0  0  0
    1.2966   -1.1306   -1.6685 C   0  0  0  0  0  0  0  0  0  0  0  0
    1.2966   -1.1306   -0.1421 C   0  0  0  0  0  0  0  0  0  0  0  0
    0.3333    0.0042    0.2463 C   0  0  0  0  0  0  0  0  0  0  0  0
    0.7860    0.8427    1.4507 C   0  0  0  0  0  0  0  0  0  0  0  0
    1.5980    1.9809    0.8314 C   0  0  0  0  0  0  0  0  0  0  0  0
    0.7860    2.3405   -0.4135 C   0  0  0  0  0  0  0  0  0  0  0  0
    0.3333    0.9837   -0.9729 C   0  0  0  0  0  0  0  0  0  0  0  0
    1.2966    0.3600   -1.9974 C   0  0  0  0  0  0  0  0  0  0  0  0
    2.1415   -1.6688   -2.1009 H   0  0  0  0  0  0  0  0  0  0  0  0
    0.3808   -1.5974   -2.0436 H   0  0  0  0  0  0  0  0  0  0  0  0
    1.0123   -2.0889    0.2945 H   0  0  0  0  0  0  0  0  0  0  0  0
    2.3048   -0.8980    0.2172 H   0  0  0  0  0  0  0  0  0  0  0  0
   -0.8618   -0.4922    0.4450 H   0  0  0  0  0  0  0  0  0  0  0  0
   -0.0818    1.2595    1.9692 H   0  0  0  0  0  0  0  0  0  0  0  0
    1.3491    0.2560    2.1790 H   0  0  0  0  0  0  0  0  0  0  0  0
    2.5891    1.6191    0.5406 H   0  0  0  0  0  0  0  0  0  0  0  0
    1.7459    2.8232    1.5081 H   0  0  0  0  0  0  0  0  0  0  0  0
   -0.0818    2.9366   -0.1182 H   0  0  0  0  0  0  0  0  0  0  0  0
    1.3491    2.9253   -1.1434 H   0  0  0  0  0  0  0  0  0  0  0  0
   -0.6626    1.0563   -1.4125 H   0  0  0  0  0  0  0  0  0  0  0  0
    1.0123    0.5799   -3.0273 H   0  0  0  0  0  0  0  0  0  0  0  0
    2.3048    0.7610   -1.8477 H   0  0  0  0  0  0  0  0  0  0  0  0
  1  2  1  0
  1  4  1  0
  1  5  1  0
  1  6  1  0
  2  3  1  0
  2  7  1  0
  3  8  1  0
  3  9  1  0
  3 10  1  0
 11 12  1  0
 11 18  1  0
 11 19  1  0
 11 20  1  0
 12 13  1  0
 12 21  1  0
 12 22  1  0
 13 14  1  0
 13 17  1  0
 13 23  1  0
 14 15  1  0
 14 24  1  0
 14 25  1  0
 15 16  1  0
 15 26  1  0
 15 27  1  0
 16 17  1  0
 16 28  1  0
 16 29  1  0
 17 18  1  0
 17 30  1  0
 18 31  1  0
 18 32  1  0
M  RAD  1   2   2
M  END
>  <reaction>  (12) 
rxn_557

>  <mol_properties>  (12) 
{"0": {"label": "*4", "atom_type": "Cs"}, "1": {"label": "*3", "atom_type": "Cs"}, "12": {"label": "*1", "atom_type": "Cs"}, "16": {"label": "*0", "atom_type": "Cs"}, "22": {"label": "*2", "atom_type": "H0"}}

>  <type>  (12) 
unop_8

>  <geom_source>  (12) 
Heuristics

$$$$

     RDKit          3D

 32 32  0  0  0  0  0  0  0  0999 V2000
   -2.2766   -2.3186   -0.0416 C   0  0  0  0  0  0  0  0  0  0  0  0
   -2.0837   -1.0922    0.8412 C   0  0  0  0  0  3  0  0  0  0  0  0
   -2.8149    0.1340    0.3099 C   0  0  0  0  0  0  0  0  0  0  0  0
   -1.9070   -2.1338   -1.0532 H   0  0  0  0  0  0  0  0  0  0  0  0
   -1.7458   -3.1858    0.3550 H   0  0  0  0  0  0  0  0  0  0  0  0
   -3.3344   -2.5809   -0.1202 H   0  0  0  0  0  0  0  0  0  0  0  0
   -2.4326   -1.3139    1.8535 H   0  0  0  0  0  0  0  0  0  0  0  0
   -3.8898   -0.0510    0.2423 H   0  0  0  0  0  0  0  0  0  0  0  0
   -2.6649    1.0013    0.9550 H   0  0  0  0  0  0  0  0  0  0  0  0
   -2.4623    0.3961   -0.6906 H   0  0  0  0  0  0  0  0  0  0  0  0
    1.2726   -1.2331   -1.4714 C   0  0  0  0  0  0  0  0  0  0  0  0
    1.2726   -1.2331    0.0550 C   0  0  0  0  0  0  0  0  0  0  0  0
    0.3092   -0.0984    0.4434 C   0  0  0  0  0  0  0  0  0  0  0  0
    0.7620    0.7402    1.6478 C   0  0  0  0  0  0  0  0  0  0  0  0
    1.5740    1.8784    1.0284 C   0  0  0  0  0  0  0  0  0  0  0  0
    0.7620    2.2380   -0.2165 C   0  0  0  0  0  0  0  0  0  0  0  0
    0.3092    0.8812   -0.7759 C   0  0  0  0  0  0  0  0  0  0  0  0
    1.2726    0.2575   -1.8003 C   0  0  0  0  0  0  0  0  0  0  0  0
    2.1174   -1.7713   -1.9038 H   0  0  0  0  0  0  0  0  0  0  0  0
    0.3567   -1.7000   -1.8465 H   0  0  0  0  0  0  0  0  0  0  0  0
    0.9882   -2.1915    0.4916 H   0  0  0  0  0  0  0  0  0  0  0  0
    2.2807   -1.0005    0.4143 H   0  0  0  0  0  0  0  0  0  0  0  0
   -0.8858   -0.5947    0.6420 H   0  0  0  0  0  0  0  0  0  0  0  0
   -0.1059    1.1570    2.1662 H   0  0  0  0  0  0  0  0  0  0  0  0
    1.3250    0.1535    2.3761 H   0  0  0  0  0  0  0  0  0  0  0  0
    2.5651    1.5165    0.7377 H   0  0  0  0  0  0  0  0  0  0  0  0
    1.7219    2.7207    1.7052 H   0  0  0  0  0  0  0  0  0  0  0  0
   -0.1059    2.8341    0.0789 H   0  0  0  0  0  0  0  0  0  0  0  0
    1.3250    2.8228   -0.9463 H   0  0  0  0  0  0  0  0  0  0  0  0
   -0.6867    0.9538   -1.2154 H   0  0  0  0  0  0  0  0  0  0  0  0
    0.9882    0.4773   -2.8302 H   0  0  0  0  0  0  0  0  0  0  0  0
    2.2807    0.6584   -1.6506 H   0  0  0  0  0  0  0  0  0  0  0  0
  1  2  1  0
  1  4  1  0
  1  5  1  0
  1  6  1  0
  2  3  1  0
  2  7  1  0
  3  8  1  0
  3  9  1  0
  3 10  1  0
 11 12  1  0
 11 18  1  0
 11 19  1  0
 11 20  1  0
 12 13  1  0
 12 21  1  0
 12 22  1  0
 13 14  1  0
 13 17  1  0
 13 23  1  0
 14 15  1  0
 14 24  1  0
 14 25  1  0
 15 16  1  0
 15 26  1  0
 15 27  1  0
 16 17  1  0
 16 28  1  0
 16 29  1  0
 17 18  1  0
 17 30  1  0
 18 31  1  0
 18 32  1  0
M  RAD  1   2   2
M  END
>  <reaction>  (13) 
rxn_557

>  <mol_properties>  (13) 
{"0": {"label": "*4", "atom_type": "Cs"}, "1": {"label": "*3", "atom_type": "Cs"}, "12": {"label": "*1", "atom_type": "Cs"}, "16": {"label": "*0", "atom_type": "Cs"}, "22": {"label": "*2", "atom_type": "H0"}}

>  <type>  (13) 
unop_9

>  <geom_source>  (13) 
Heuristics

$$$$

     RDKit          3D

 32 32  0  0  0  0  0  0  0  0999 V2000
   -2.0109   -1.9946    1.8069 C   0  0  0  0  0  0  0  0  0  0  0  0
   -2.0688   -0.9673    0.6836 C   0  0  0  0  0  3  0  0  0  0  0  0
   -3.2104   -1.2273   -0.2909 C   0  0  0  0  0  0  0  0  0  0  0  0
   -1.8733   -3.0025    1.4079 H   0  0  0  0  0  0  0  0  0  0  0  0
   -1.1876   -1.7918    2.4939 H   0  0  0  0  0  0  0  0  0  0  0  0
   -2.9377   -1.9933    2.3857 H   0  0  0  0  0  0  0  0  0  0  0  0
   -2.1757    0.0336    1.1109 H   0  0  0  0  0  0  0  0  0  0  0  0
   -4.1751   -1.2017    0.2217 H   0  0  0  0  0  0  0  0  0  0  0  0
   -3.2354   -0.4818   -1.0875 H   0  0  0  0  0  0  0  0  0  0  0  0
   -3.1106   -2.2110   -0.7561 H   0  0  0  0  0  0  0  0  0  0  0  0
    1.2874   -1.1082   -1.6290 C   0  0  0  0  0  0  0  0  0  0  0  0
    1.2874   -1.1082   -0.1026 C   0  0  0  0  0  0  0  0  0  0  0  0
    0.3241    0.0265    0.2858 C   0  0  0  0  0  0  0  0  0  0  0  0
    0.7768    0.8651    1.4902 C   0  0  0  0  0  0  0  0  0  0  0  0
    1.5888    2.0033    0.8709 C   0  0  0  0  0  0  0  0  0  0  0  0
    0.7768    2.3629   -0.3740 C   0  0  0  0  0  0  0  0  0  0  0  0
    0.3241    1.0061   -0.9334 C   0  0  0  0  0  0  0  0  0  0  0  0
    1.2874    0.3824   -1.9579 C   0  0  0  0  0  0  0  0  0  0  0  0
    2.1323   -1.6464   -2.0614 H   0  0  0  0  0  0  0  0  0  0  0  0
    0.3716   -1.5751   -2.0041 H   0  0  0  0  0  0  0  0  0  0  0  0
    1.0031   -2.0666    0.3340 H   0  0  0  0  0  0  0  0  0  0  0  0
    2.2956   -0.8757    0.2567 H   0  0  0  0  0  0  0  0  0  0  0  0
   -0.8710   -0.4698    0.4845 H   0  0  0  0  0  0  0  0  0  0  0  0
   -0.0910    1.2819    2.0087 H   0  0  0  0  0  0  0  0  0  0  0  0
    1.3399    0.2784    2.2185 H   0  0  0  0  0  0  0  0  0  0  0  0
    2.5800    1.6414    0.5802 H   0  0  0  0  0  0  0  0  0  0  0  0
    1.7368    2.8456    1.5476 H   0  0  0  0  0  0  0  0  0  0  0  0
   -0.0910    2.9589   -0.0787 H   0  0  0  0  0  0  0  0  0  0  0  0
    1.3399    2.9477   -1.1039 H   0  0  0  0  0  0  0  0  0  0  0  0
   -0.6718    1.0786   -1.3730 H   0  0  0  0  0  0  0  0  0  0  0  0
    1.0031    0.6022   -2.9878 H   0  0  0  0  0  0  0  0  0  0  0  0
    2.2956    0.7833   -1.8081 H   0  0  0  0  0  0  0  0  0  0  0  0
  1  2  1  0
  1  4  1  0
  1  5  1  0
  1  6  1  0
  2  3  1  0
  2  7  1  0
  3  8  1  0
  3  9  1  0
  3 10  1  0
 11 12  1  0
 11 18  1  0
 11 19  1  0
 11 20  1  0
 12 13  1  0
 12 21  1  0
 12 22  1  0
 13 14  1  0
 13 17  1  0
 13 23  1  0
 14 15  1  0
 14 24  1  0
 14 25  1  0
 15 16  1  0
 15 26  1  0
 15 27  1  0
 16 17  1  0
 16 28  1  0
 16 29  1  0
 17 18  1  0
 17 30  1  0
 18 31  1  0
 18 32  1  0
M  RAD  1   2   2
M  END
>  <reaction>  (14) 
rxn_557

>  <mol_properties>  (14) 
{"0": {"label": "*4", "atom_type": "Cs"}, "1": {"label": "*3", "atom_type": "Cs"}, "12": {"label": "*1", "atom_type": "Cs"}, "16": {"label": "*0", "atom_type": "Cs"}, "22": {"label": "*2", "atom_type": "H0"}}

>  <type>  (14) 
unop_10

>  <geom_source>  (14) 
Heuristics

$$$$

     RDKit          3D

 32 32  0  0  0  0  0  0  0  0999 V2000
   -3.1562   -0.1470    0.2374 C   0  0  0  0  0  0  0  0  0  0  0  0
   -2.1074   -1.1950    0.5868 C   0  0  0  0  0  3  0  0  0  0  0  0
   -1.7524   -1.1987    2.0682 C   0  0  0  0  0  0  0  0  0  0  0  0
   -2.8046    0.8566    0.4889 H   0  0  0  0  0  0  0  0  0  0  0  0
   -3.3971   -0.1598   -0.8269 H   0  0  0  0  0  0  0  0  0  0  0  0
   -4.0816   -0.3204    0.7920 H   0  0  0  0  0  0  0  0  0  0  0  0
   -2.4712   -2.1848    0.2972 H   0  0  0  0  0  0  0  0  0  0  0  0
   -2.6335   -1.4052    2.6805 H   0  0  0  0  0  0  0  0  0  0  0  0
   -1.0004   -1.9552    2.2986 H   0  0  0  0  0  0  0  0  0  0  0  0
   -1.3565   -0.2283    2.3774 H   0  0  0  0  0  0  0  0  0  0  0  0
    1.2489   -1.3360   -1.7258 C   0  0  0  0  0  0  0  0  0  0  0  0
    1.2489   -1.3360   -0.1994 C   0  0  0  0  0  0  0  0  0  0  0  0
    0.2855   -0.2012    0.1890 C   0  0  0  0  0  0  0  0  0  0  0  0
    0.7383    0.6374    1.3934 C   0  0  0  0  0  0  0  0  0  0  0  0
    1.5503    1.7756    0.7740 C   0  0  0  0  0  0  0  0  0  0  0  0
    0.7383    2.1352   -0.4709 C   0  0  0  0  0  0  0  0  0  0  0  0
    0.2855    0.7784   -1.0303 C   0  0  0  0  0  0  0  0  0  0  0  0
    1.2489    0.1546   -2.0547 C   0  0  0  0  0  0  0  0  0  0  0  0
    2.0937   -1.8741   -2.1582 H   0  0  0  0  0  0  0  0  0  0  0  0
    0.3330   -1.8028   -2.1009 H   0  0  0  0  0  0  0  0  0  0  0  0
    0.9646   -2.2943    0.2372 H   0  0  0  0  0  0  0  0  0  0  0  0
    2.2570   -1.1034    0.1599 H   0  0  0  0  0  0  0  0  0  0  0  0
   -0.9095   -0.6975    0.3876 H   0  0  0  0  0  0  0  0  0  0  0  0
   -0.1295    1.0542    1.9118 H   0  0  0  0  0  0  0  0  0  0  0  0
    1.3014    0.0506    2.1217 H   0  0  0  0  0  0  0  0  0  0  0  0
    2.5414    1.4137    0.4833 H   0  0  0  0  0  0  0  0  0  0  0  0
    1.6982    2.6179    1.4508 H   0  0  0  0  0  0  0  0  0  0  0  0
   -0.1295    2.7312   -0.1755 H   0  0  0  0  0  0  0  0  0  0  0  0
    1.3014    2.7199   -1.2007 H   0  0  0  0  0  0  0  0  0  0  0  0
   -0.7104    0.8509   -1.4698 H   0  0  0  0  0  0  0  0  0  0  0  0
    0.9646    0.3745   -3.0846 H   0  0  0  0  0  0  0  0  0  0  0  0
    2.2570    0.5556   -1.9050 H   0  0  0  0  0  0  0  0  0  0  0  0
  1  2  1  0
  1  4  1  0
  1  5  1  0
  1  6  1  0
  2  3  1  0
  2  7  1  0
  3  8  1  0
  3  9  1  0
  3 10  1  0
 11 12  1  0
 11 18  1  0
 11 19  1  0
 11 20  1  0
 12 13  1  0
 12 21  1  0
 12 22  1  0
 13 14  1  0
 13 17  1  0
 13 23  1  0
 14 15  1  0
 14 24  1  0
 14 25  1  0
 15 16  1  0
 15 26  1  0
 15 27  1  0
 16 17  1  0
 16 28  1  0
 16 29  1  0
 17 18  1  0
 17 30  1  0
 18 31  1  0
 18 32  1  0
M  RAD  1   2   2
M  END
>  <reaction>  (15) 
rxn_557

>  <mol_properties>  (15) 
{"0": {"label": "*4", "atom_type": "Cs"}, "1": {"label": "*3", "atom_type": "Cs"}, "12": {"label": "*1", "atom_type": "Cs"}, "16": {"label": "*0", "atom_type": "Cs"}, "22": {"label": "*2", "atom_type": "H0"}}

>  <type>  (15) 
unop_11

>  <geom_source>  (15) 
Heuristics

$$$$

     RDKit          3D

 32 32  0  0  0  0  0  0  0  0999 V2000
   -2.0484   -2.5184    0.5809 C   0  0  0  0  0  0  0  0  0  0  0  0
   -2.0797   -1.0130    0.8119 C   0  0  0  0  0  3  0  0  0  0  0  0
   -3.0805   -0.3018   -0.0898 C   0  0  0  0  0  0  0  0  0  0  0  0
   -1.7757   -2.7496   -0.4517 H   0  0  0  0  0  0  0  0  0  0  0  0
   -1.3263   -3.0097    1.2353 H   0  0  0  0  0  0  0  0  0  0  0  0
   -3.0284   -2.9631    0.7702 H   0  0  0  0  0  0  0  0  0  0  0  0
   -2.3243   -0.8103    1.8582 H   0  0  0  0  0  0  0  0  0  0  0  0
   -4.0930   -0.6766    0.0783 H   0  0  0  0  0  0  0  0  0  0  0  0
   -3.0884    0.7746    0.0902 H   0  0  0  0  0  0  0  0  0  0  0  0
   -2.8403   -0.4631   -1.1435 H   0  0  0  0  0  0  0  0  0  0  0  0
    1.2766   -1.1539   -1.5007 C   0  0  0  0  0  0  0  0  0  0  0  0
    1.2766   -1.1539    0.0257 C   0  0  0  0  0  0  0  0  0  0  0  0
    0.3132   -0.0192    0.4141 C   0  0  0  0  0  0  0  0  0  0  0  0
    0.7660    0.8194    1.6185 C   0  0  0  0  0  0  0  0  0  0  0  0
    1.5779    1.9576    0.9992 C   0  0  0  0  0  0  0  0  0  0  0  0
    0.7660    2.3172   -0.2457 C   0  0  0  0  0  0  0  0  0  0  0  0
    0.3132    0.9604   -0.8051 C   0  0  0  0  0  0  0  0  0  0  0  0
    1.2766    0.3367   -1.8296 C   0  0  0  0  0  0  0  0  0  0  0  0
    2.1214   -1.6921   -1.9331 H   0  0  0  0  0  0  0  0  0  0  0  0
    0.3607   -1.6207   -1.8758 H   0  0  0  0  0  0  0  0  0  0  0  0
    0.9922   -2.1123    0.4623 H   0  0  0  0  0  0  0  0  0  0  0  0
    2.2847   -0.9213    0.3850 H   0  0  0  0  0  0  0  0  0  0  0  0
   -0.8818   -0.5155    0.6128 H   0  0  0  0  0  0  0  0  0  0  0  0
   -0.1019    1.2362    2.1370 H   0  0  0  0  0  0  0  0  0  0  0  0
    1.3290    0.2327    2.3468 H   0  0  0  0  0  0  0  0  0  0  0  0
    2.5691    1.5958    0.7084 H   0  0  0  0  0  0  0  0  0  0  0  0
    1.7259    2.7999    1.6759 H   0  0  0  0  0  0  0  0  0  0  0  0
   -0.1019    2.9133    0.0496 H   0  0  0  0  0  0  0  0  0  0  0  0
    1.3290    2.9020   -0.9756 H   0  0  0  0  0  0  0  0  0  0  0  0
   -0.6827    1.0330   -1.2447 H   0  0  0  0  0  0  0  0  0  0  0  0
    0.9922    0.5566   -2.8595 H   0  0  0  0  0  0  0  0  0  0  0  0
    2.2847    0.7376   -1.6799 H   0  0  0  0  0  0  0  0  0  0  0  0
  1  2  1  0
  1  4  1  0
  1  5  1  0
  1  6  1  0
  2  3  1  0
  2  7  1  0
  3  8  1  0
  3  9  1  0
  3 10  1  0
 11 12  1  0
 11 18  1  0
 11 19  1  0
 11 20  1  0
 12 13  1  0
 12 21  1  0
 12 22  1  0
 13 14  1  0
 13 17  1  0
 13 23  1  0
 14 15  1  0
 14 24  1  0
 14 25  1  0
 15 16  1  0
 15 26  1  0
 15 27  1  0
 16 17  1  0
 16 28  1  0
 16 29  1  0
 17 18  1  0
 17 30  1  0
 18 31  1  0
 18 32  1  0
M  RAD  1   2   2
M  END
>  <reaction>  (16) 
rxn_557

>  <mol_properties>  (16) 
{"0": {"label": "*4", "atom_type": "Cs"}, "1": {"label": "*3", "atom_type": "Cs"}, "12": {"label": "*1", "atom_type": "Cs"}, "16": {"label": "*0", "atom_type": "Cs"}, "22": {"label": "*2", "atom_type": "H0"}}

>  <type>  (16) 
unop_12

>  <geom_source>  (16) 
Heuristics

$$$$

     RDKit          3D

 32 32  0  0  0  0  0  0  0  0999 V2000
   -0.9480   -0.7633    0.6429 C   0  0  0  0  0  0  0  0  0  0  0  0
   -2.3082   -0.5791    1.3234 C   0  0  0  0  0  0  0  0  0  0  0  0
   -0.9280   -1.8007   -0.4843 C   0  0  0  0  0  0  0  0  0  0  0  0
   -2.4678    0.9219    1.5012 C   0  0  0  0  0  0  0  0  0  0  0  0
   -0.1039   -1.1702   -1.5949 C   0  0  0  0  0  0  0  0  0  0  0  0
    1.9418    0.1206    0.3064 C   0  0  0  0  0  0  0  0  0  0  0  0
   -1.7236    1.5457    0.3323 C   0  0  0  0  0  0  0  0  0  0  0  0
   -0.3447    0.3252   -1.4738 C   0  0  0  0  0  0  0  0  0  0  0  0
    2.4475   -0.4107   -1.0303 C   0  0  0  0  0  0  0  0  0  0  0  0
    2.8703    1.1937    0.8645 C   0  0  0  0  0  0  0  0  0  0  0  0
   -0.5871    0.5739    0.0149 C   0  0  0  0  0  3  0  0  0  0  0  0
   -0.1723   -1.0091    1.4014 H   0  0  0  0  0  0  0  0  0  0  0  0
    1.8702   -0.7179    1.0324 H   0  0  0  0  0  0  0  0  0  0  0  0
    0.7572    0.6267    0.1423 H   0  0  0  0  0  0  0  0  0  0  0  0
   -2.3402   -1.1021    2.3037 H   0  0  0  0  0  0  0  0  0  0  0  0
   -3.1429   -0.9528    0.6910 H   0  0  0  0  0  0  0  0  0  0  0  0
   -1.9929    1.2366    2.4570 H   0  0  0  0  0  0  0  0  0  0  0  0
   -3.5387    1.2199    1.5081 H   0  0  0  0  0  0  0  0  0  0  0  0
   -0.4723   -2.7552   -0.1426 H   0  0  0  0  0  0  0  0  0  0  0  0
   -1.9481   -2.0103   -0.8738 H   0  0  0  0  0  0  0  0  0  0  0  0
   -0.4068   -1.5521   -2.5940 H   0  0  0  0  0  0  0  0  0  0  0  0
    0.9744   -1.3895   -1.4294 H   0  0  0  0  0  0  0  0  0  0  0  0
   -2.4262    1.6599   -0.5219 H   0  0  0  0  0  0  0  0  0  0  0  0
   -1.3155    2.5416    0.6053 H   0  0  0  0  0  0  0  0  0  0  0  0
    0.5383    0.9009   -1.8229 H   0  0  0  0  0  0  0  0  0  0  0  0
   -1.2275    0.5989   -2.0920 H   0  0  0  0  0  0  0  0  0  0  0  0
    2.5018    0.4118   -1.7748 H   0  0  0  0  0  0  0  0  0  0  0  0
    1.7480   -1.1855   -1.4080 H   0  0  0  0  0  0  0  0  0  0  0  0
    3.4536   -0.8661   -0.9099 H   0  0  0  0  0  0  0  0  0  0  0  0
    2.4713    1.5593    1.8338 H   0  0  0  0  0  0  0  0  0  0  0  0
    3.8866    0.7772    1.0311 H   0  0  0  0  0  0  0  0  0  0  0  0
    2.9337    2.0506    0.1608 H   0  0  0  0  0  0  0  0  0  0  0  0
  1  2  1  0
  1  3  1  0
  1 11  1  0
  1 12  1  0
  2  4  1  0
  2 15  1  0
  2 16  1  0
  3  5  1  0
  3 19  1  0
  3 20  1  0
  4  7  1  0
  4 17  1  0
  4 18  1  0
  5  8  1  0
  5 21  1  0
  5 22  1  0
  6  9  1  0
  6 10  1  0
  6 13  1  0
  6 14  1  0
  7 11  1  0
  7 23  1  0
  7 24  1  0
  8 11  1  0
  8 25  1  0
  8 26  1  0
  9 27  1  0
  9 28  1  0
  9 29  1  0
 10 30  1  0
 10 31  1  0
 10 32  1  0
M  RAD  1  11   2
M  END
>  <reaction>  (17) 
rxn_557

>  <mol_properties>  (17) 
{"0": {"label": "*4", "atom_type": "Cs"}, "1": {"label": "*3", "atom_type": "Cs"}, "12": {"label": "*1", "atom_type": "Cs"}, "16": {"label": "*0", "atom_type": "Cs"}, "22": {"label": "*2", "atom_type": "H0"}}

>  <type>  (17) 
unop_13

>  <geom_source>  (17) 
AutoTST

$$$$
