
     RDKit          3D

 11 10  0  0  0  0  0  0  0  0999 V2000
   -1.2710    0.1907   -0.2084 C   0  0  0  0  0  0  0  0  0  0  0  0
    0.0202   -0.6130   -0.2928 C   0  0  0  0  0  0  0  0  0  0  0  0
    0.1086   -1.6953    0.7756 C   0  0  0  0  0  0  0  0  0  0  0  0
   -1.3607    0.6851    0.7620 H   0  0  0  0  0  0  0  0  0  0  0  0
   -2.1429   -0.4567   -0.3299 H   0  0  0  0  0  0  0  0  0  0  0  0
   -1.3158    0.9602   -0.9809 H   0  0  0  0  0  0  0  0  0  0  0  0
    0.8757    0.0616   -0.1992 H   0  0  0  0  0  0  0  0  0  0  0  0
    0.0997   -1.0712   -1.2825 H   0  0  0  0  0  0  0  0  0  0  0  0
   -0.7198   -2.4022    0.6850 H   0  0  0  0  0  0  0  0  0  0  0  0
    1.0395   -2.2596    0.6989 H   0  0  0  0  0  0  0  0  0  0  0  0
    0.0624   -1.2603    1.7770 H   0  0  0  0  0  0  0  0  0  0  0  0
  1  2  1  0
  1  4  1  0
  1  5  1  0
  1  6  1  0
  2  3  1  0
  2  7  1  0
  2  8  1  0
  3  9  1  0
  3 10  1  0
  3 11  1  0
M  END
>  <reaction>  (1) 
rxn_53

>  <mol_properties>  (1) 
{"1": {"label": "donator", "atom_type": "Cs"}, "6": {"label": "d_hydrogen", "atom_type": "H0"}}

>  <type>  (1) 
r1h

$$$$

     RDKit          3D

  2  1  0  0  0  0  0  0  0  0999 V2000
    0.0000    0.0000    0.6715 S   0  0  0  0  0  1  0  0  0  0  0  0
    0.0000    0.0000   -0.6715 H   0  0  0  0  0  0  0  0  0  0  0  0
  1  2  1  0
M  RAD  1   1   2
M  END
>  <reaction>  (2) 
rxn_53

>  <mol_properties>  (2) 
{"0": {"label": "acceptor", "atom_type": "S2s"}}

>  <type>  (2) 
r2

$$$$

     RDKit          3D

  3  2  0  0  0  0  0  0  0  0999 V2000
   -0.0007    0.6157    0.0000 S   0  0  0  0  0  0  0  0  0  0  0  0
   -0.9686   -0.3090    0.0000 H   0  0  0  0  0  0  0  0  0  0  0  0
    0.9693   -0.3067    0.0000 H   0  0  0  0  0  0  0  0  0  0  0  0
  1  2  1  0
  1  3  1  0
M  END
>  <reaction>  (3) 
rxn_53

>  <mol_properties>  (3) 
{"0": {"label": "a_hydrogen", "atom_type": "H0"}, "1": {"label": "acceptor", "atom_type": "S2s"}}

>  <type>  (3) 
r2h

$$$$

     RDKit          3D

 13 11  0  0  0  0  0  0  0  0999 V2000
   -1.0328    0.3101   -1.7793 C   0  0  0  0  0  0  0  0  0  0  0  0
   -1.1163    0.4070   -0.2894 C   0  0  0  0  0  3  0  0  0  0  0  0
   -0.9686    1.7538    0.3433 C   0  0  0  0  0  0  0  0  0  0  0  0
   -0.1416    0.8164   -2.1559 H   0  0  0  0  0  0  0  0  0  0  0  0
   -1.9041    0.7894   -2.2422 H   0  0  0  0  0  0  0  0  0  0  0  0
   -1.0102   -0.7269   -2.1160 H   0  0  0  0  0  0  0  0  0  0  0  0
    0.1376   -0.3114    0.1331 H   0  0  0  0  0  0  0  0  0  0  0  0
   -1.8350   -0.2578    0.1848 H   0  0  0  0  0  0  0  0  0  0  0  0
   -1.8226    2.3925    0.0870 H   0  0  0  0  0  0  0  0  0  0  0  0
   -0.9238    1.6868    1.4308 H   0  0  0  0  0  0  0  0  0  0  0  0
   -0.0666    2.2568   -0.0121 H   0  0  0  0  0  0  0  0  0  0  0  0
    1.4294   -0.9160    0.5432 S   0  0  0  0  0  0  0  0  0  0  0  0
    1.4738   -0.1328    1.6288 H   0  0  0  0  0  0  0  0  0  0  0  0
  1  2  1  0
  1  4  1  0
  1  5  1  0
  1  6  1  0
  2  3  1  0
  2  8  1  0
  3  9  1  0
  3 10  1  0
  3 11  1  0
  7 12  1  0
 12 13  1  0
M  RAD  1   2   2
M  END
>  <reaction>  (4) 
rxn_53

>  <mol_properties>  (4) 
{"0": {"label": "*4", "atom_type": "Cs"}, "1": {"label": "*3", "atom_type": "Cs"}, "6": {"label": "*2", "atom_type": "H0"}, "11": {"label": "*1", "atom_type": "S2s"}, "12": {"label": "*0", "atom_type": "H0"}}

>  <type>  (4) 
ts

$$$$

     RDKit          3D

 13 11  0  0  0  0  0  0  0  0999 V2000
   -1.0077    0.3373   -1.7659 C   0  0  0  0  0  0  0  0  0  0  0  0
   -1.0077    0.3373   -0.2426 C   0  0  0  0  0  0  0  0  0  0  0  0
   -1.0077    1.7431    0.3442 C   0  0  0  0  0  0  0  0  0  0  0  0
   -0.1262    0.8516   -2.1565 H   0  0  0  0  0  0  0  0  0  0  0  0
   -1.8891    0.8516   -2.1565 H   0  0  0  0  0  0  0  0  0  0  0  0
   -1.0077   -0.6776   -2.1671 H   0  0  0  0  0  0  0  0  0  0  0  0
    0.0418   -0.3183    0.1942 H   0  0  0  0  0  0  0  0  0  0  0  0
   -1.8822   -0.2090    0.1214 H   0  0  0  0  0  0  0  0  0  0  0  0
   -1.8891    2.3017    0.0200 H   0  0  0  0  0  0  0  0  0  0  0  0
   -1.0077    1.7224    1.4353 H   0  0  0  0  0  0  0  0  0  0  0  0
   -0.1262    2.3017    0.0200 H   0  0  0  0  0  0  0  0  0  0  0  0
    1.3264   -1.1209    0.7289 S   0  0  0  0  0  1  0  0  0  0  0  0
    1.8026   -0.0530    1.3807 H   0  0  0  0  0  0  0  0  0  0  0  0
  1  2  1  0
  1  4  1  0
  1  5  1  0
  1  6  1  0
  2  3  1  0
  2  7  1  0
  2  8  1  0
  3  9  1  0
  3 10  1  0
  3 11  1  0
 12 13  1  0
M  RAD  1  12   2
M  END
>  <reaction>  (5) 
rxn_53

>  <mol_properties>  (5) 
{"0": {"label": "*4", "atom_type": "Cs"}, "1": {"label": "*3", "atom_type": "Cs"}, "6": {"label": "*2", "atom_type": "H0"}, "11": {"label": "*1", "atom_type": "S2s"}, "12": {"label": "*0", "atom_type": "H0"}}

>  <type>  (5) 
unop_1

>  <geom_source>  (5) 
Heuristics

$$$$

     RDKit          3D

 13 11  0  0  0  0  0  0  0  0999 V2000
   -1.0110    0.3469   -1.7434 C   0  0  0  0  0  0  0  0  0  0  0  0
   -1.0110    0.3469   -0.2200 C   0  0  0  0  0  0  0  0  0  0  0  0
   -1.0110    1.7528    0.3667 C   0  0  0  0  0  0  0  0  0  0  0  0
   -0.1296    0.8612   -2.1340 H   0  0  0  0  0  0  0  0  0  0  0  0
   -1.8925    0.8612   -2.1340 H   0  0  0  0  0  0  0  0  0  0  0  0
   -1.0110   -0.6679   -2.1445 H   0  0  0  0  0  0  0  0  0  0  0  0
    0.0384   -0.3087    0.2168 H   0  0  0  0  0  0  0  0  0  0  0  0
   -1.8856   -0.1994    0.1440 H   0  0  0  0  0  0  0  0  0  0  0  0
   -1.8925    2.3113    0.0425 H   0  0  0  0  0  0  0  0  0  0  0  0
   -1.0110    1.7321    1.4578 H   0  0  0  0  0  0  0  0  0  0  0  0
   -0.1296    2.3113    0.0425 H   0  0  0  0  0  0  0  0  0  0  0  0
    1.3231   -1.1112    0.7515 S   0  0  0  0  0  1  0  0  0  0  0  0
    2.0555   -0.7806   -0.3191 H   0  0  0  0  0  0  0  0  0  0  0  0
  1  2  1  0
  1  4  1  0
  1  5  1  0
  1  6  1  0
  2  3  1  0
  2  7  1  0
  2  8  1  0
  3  9  1  0
  3 10  1  0
  3 11  1  0
 12 13  1  0
M  RAD  1  12   2
M  END
>  <reaction>  (6) 
rxn_53

>  <mol_properties>  (6) 
{"0": {"label": "*4", "atom_type": "Cs"}, "1": {"label": "*3", "atom_type": "Cs"}, "6": {"label": "*2", "atom_type": "H0"}, "11": {"label": "*1", "atom_type": "S2s"}, "12": {"label": "*0", "atom_type": "H0"}}

>  <type>  (6) 
unop_2

>  <geom_source>  (6) 
Heuristics

$$$$

     RDKit          3D

 13 11  0  0  0  0  0  0  0  0999 V2000
   -1.0025    0.3416   -1.7719 C   0  0  0  0  0  0  0  0  0  0  0  0
   -1.0025    0.3416   -0.2486 C   0  0  0  0  0  0  0  0  0  0  0  0
   -1.0025    1.7474    0.3381 C   0  0  0  0  0  0  0  0  0  0  0  0
   -0.1210    0.8559   -2.1626 H   0  0  0  0  0  0  0  0  0  0  0  0
   -1.8839    0.8559   -2.1626 H   0  0  0  0  0  0  0  0  0  0  0  0
   -1.0025   -0.6733   -2.1731 H   0  0  0  0  0  0  0  0  0  0  0  0
    0.0470   -0.3140    0.1882 H   0  0  0  0  0  0  0  0  0  0  0  0
   -1.8770   -0.2047    0.1154 H   0  0  0  0  0  0  0  0  0  0  0  0
   -1.8839    2.3060    0.0140 H   0  0  0  0  0  0  0  0  0  0  0  0
   -1.0025    1.7267    1.4292 H   0  0  0  0  0  0  0  0  0  0  0  0
   -0.1210    2.3060    0.0140 H   0  0  0  0  0  0  0  0  0  0  0  0
    1.3316   -1.1166    0.7229 S   0  0  0  0  0  1  0  0  0  0  0  0
    1.4103   -0.3775    1.8362 H   0  0  0  0  0  0  0  0  0  0  0  0
  1  2  1  0
  1  4  1  0
  1  5  1  0
  1  6  1  0
  2  3  1  0
  2  7  1  0
  2  8  1  0
  3  9  1  0
  3 10  1  0
  3 11  1  0
 12 13  1  0
M  RAD  1  12   2
M  END
>  <reaction>  (7) 
rxn_53

>  <mol_properties>  (7) 
{"0": {"label": "*4", "atom_type": "Cs"}, "1": {"label": "*3", "atom_type": "Cs"}, "6": {"label": "*2", "atom_type": "H0"}, "11": {"label": "*1", "atom_type": "S2s"}, "12": {"label": "*0", "atom_type": "H0"}}

>  <type>  (7) 
unop_3

>  <geom_source>  (7) 
Heuristics

$$$$

     RDKit          3D

 13 11  0  0  0  0  0  0  0  0999 V2000
   -0.9966    0.3661   -1.7494 C   0  0  0  0  0  0  0  0  0  0  0  0
   -0.9966    0.3661   -0.2261 C   0  0  0  0  0  0  0  0  0  0  0  0
   -0.9966    1.7719    0.3606 C   0  0  0  0  0  0  0  0  0  0  0  0
   -0.1151    0.8804   -2.1400 H   0  0  0  0  0  0  0  0  0  0  0  0
   -1.8780    0.8803   -2.1400 H   0  0  0  0  0  0  0  0  0  0  0  0
   -0.9966   -0.6488   -2.1506 H   0  0  0  0  0  0  0  0  0  0  0  0
    0.0529   -0.2895    0.2107 H   0  0  0  0  0  0  0  0  0  0  0  0
   -1.8711   -0.1803    0.1379 H   0  0  0  0  0  0  0  0  0  0  0  0
   -1.8780    2.3305    0.0365 H   0  0  0  0  0  0  0  0  0  0  0  0
   -0.9966    1.7512    1.4518 H   0  0  0  0  0  0  0  0  0  0  0  0
   -0.1151    2.3305    0.0365 H   0  0  0  0  0  0  0  0  0  0  0  0
    1.3375   -1.0921    0.7454 S   0  0  0  0  0  1  0  0  0  0  0  0
    0.9641   -2.2242    0.1364 H   0  0  0  0  0  0  0  0  0  0  0  0
  1  2  1  0
  1  4  1  0
  1  5  1  0
  1  6  1  0
  2  3  1  0
  2  7  1  0
  2  8  1  0
  3  9  1  0
  3 10  1  0
  3 11  1  0
 12 13  1  0
M  RAD  1  12   2
M  END
>  <reaction>  (8) 
rxn_53

>  <mol_properties>  (8) 
{"0": {"label": "*4", "atom_type": "Cs"}, "1": {"label": "*3", "atom_type": "Cs"}, "6": {"label": "*2", "atom_type": "H0"}, "11": {"label": "*1", "atom_type": "S2s"}, "12": {"label": "*0", "atom_type": "H0"}}

>  <type>  (8) 
unop_4

>  <geom_source>  (8) 
Heuristics

$$$$

     RDKit          3D

 13 11  0  0  0  0  0  0  0  0999 V2000
   -0.9972    0.3486   -1.7741 C   0  0  0  0  0  0  0  0  0  0  0  0
   -0.9972    0.3486   -0.2508 C   0  0  0  0  0  0  0  0  0  0  0  0
   -0.9972    1.7544    0.3359 C   0  0  0  0  0  0  0  0  0  0  0  0
   -0.1157    0.8629   -2.1648 H   0  0  0  0  0  0  0  0  0  0  0  0
   -1.8786    0.8629   -2.1648 H   0  0  0  0  0  0  0  0  0  0  0  0
   -0.9972   -0.6663   -2.1753 H   0  0  0  0  0  0  0  0  0  0  0  0
    0.0523   -0.3070    0.1860 H   0  0  0  0  0  0  0  0  0  0  0  0
   -1.8717   -0.1977    0.1132 H   0  0  0  0  0  0  0  0  0  0  0  0
   -1.8786    2.3130    0.0118 H   0  0  0  0  0  0  0  0  0  0  0  0
   -0.9972    1.7337    1.4270 H   0  0  0  0  0  0  0  0  0  0  0  0
   -0.1157    2.3130    0.0118 H   0  0  0  0  0  0  0  0  0  0  0  0
    1.3369   -1.1096    0.7207 S   0  0  0  0  0  1  0  0  0  0  0  0
    1.0108   -0.9058    2.0029 H   0  0  0  0  0  0  0  0  0  0  0  0
  1  2  1  0
  1  4  1  0
  1  5  1  0
  1  6  1  0
  2  3  1  0
  2  7  1  0
  2  8  1  0
  3  9  1  0
  3 10  1  0
  3 11  1  0
 12 13  1  0
M  RAD  1  12   2
M  END
>  <reaction>  (9) 
rxn_53

>  <mol_properties>  (9) 
{"0": {"label": "*4", "atom_type": "Cs"}, "1": {"label": "*3", "atom_type": "Cs"}, "6": {"label": "*2", "atom_type": "H0"}, "11": {"label": "*1", "atom_type": "S2s"}, "12": {"label": "*0", "atom_type": "H0"}}

>  <type>  (9) 
unop_5

>  <geom_source>  (9) 
Heuristics

$$$$

     RDKit          3D

 13 11  0  0  0  0  0  0  0  0999 V2000
   -0.9929    0.3665   -1.7576 C   0  0  0  0  0  0  0  0  0  0  0  0
   -0.9929    0.3665   -0.2343 C   0  0  0  0  0  0  0  0  0  0  0  0
   -0.9929    1.7723    0.3524 C   0  0  0  0  0  0  0  0  0  0  0  0
   -0.1114    0.8808   -2.1483 H   0  0  0  0  0  0  0  0  0  0  0  0
   -1.8743    0.8808   -2.1483 H   0  0  0  0  0  0  0  0  0  0  0  0
   -0.9929   -0.6484   -2.1588 H   0  0  0  0  0  0  0  0  0  0  0  0
    0.0566   -0.2891    0.2025 H   0  0  0  0  0  0  0  0  0  0  0  0
   -1.8674   -0.1798    0.1297 H   0  0  0  0  0  0  0  0  0  0  0  0
   -1.8743    2.3309    0.0283 H   0  0  0  0  0  0  0  0  0  0  0  0
   -0.9929    1.7517    1.4435 H   0  0  0  0  0  0  0  0  0  0  0  0
   -0.1114    2.3309    0.0283 H   0  0  0  0  0  0  0  0  0  0  0  0
    1.3412   -1.0917    0.7372 S   0  0  0  0  0  1  0  0  0  0  0  0
    0.6842   -2.2577    0.7586 H   0  0  0  0  0  0  0  0  0  0  0  0
  1  2  1  0
  1  4  1  0
  1  5  1  0
  1  6  1  0
  2  3  1  0
  2  7  1  0
  2  8  1  0
  3  9  1  0
  3 10  1  0
  3 11  1  0
 12 13  1  0
M  RAD  1  12   2
M  END
>  <reaction>  (10) 
rxn_53

>  <mol_properties>  (10) 
{"0": {"label": "*4", "atom_type": "Cs"}, "1": {"label": "*3", "atom_type": "Cs"}, "6": {"label": "*2", "atom_type": "H0"}, "11": {"label": "*1", "atom_type": "S2s"}, "12": {"label": "*0", "atom_type": "H0"}}

>  <type>  (10) 
unop_6

>  <geom_source>  (10) 
Heuristics

$$$$

     RDKit          3D

 13 11  0  0  0  0  0  0  0  0999 V2000
   -0.9916    0.3630   -1.7659 C   0  0  0  0  0  0  0  0  0  0  0  0
   -0.9916    0.3630   -0.2426 C   0  0  0  0  0  0  0  0  0  0  0  0
   -0.9916    1.7688    0.3442 C   0  0  0  0  0  0  0  0  0  0  0  0
   -0.1102    0.8773   -2.1565 H   0  0  0  0  0  0  0  0  0  0  0  0
   -1.8731    0.8773   -2.1565 H   0  0  0  0  0  0  0  0  0  0  0  0
   -0.9916   -0.6519   -2.1671 H   0  0  0  0  0  0  0  0  0  0  0  0
    0.0578   -0.2926    0.1942 H   0  0  0  0  0  0  0  0  0  0  0  0
   -1.8662   -0.1833    0.1214 H   0  0  0  0  0  0  0  0  0  0  0  0
   -1.8731    2.3274    0.0200 H   0  0  0  0  0  0  0  0  0  0  0  0
   -0.9916    1.7481    1.4353 H   0  0  0  0  0  0  0  0  0  0  0  0
   -0.1102    2.3274    0.0200 H   0  0  0  0  0  0  0  0  0  0  0  0
    1.3425   -1.0952    0.7289 S   0  0  0  0  0  1  0  0  0  0  0  0
    0.5916   -1.9914    1.3807 H   0  0  0  0  0  0  0  0  0  0  0  0
  1  2  1  0
  1  4  1  0
  1  5  1  0
  1  6  1  0
  2  3  1  0
  2  7  1  0
  2  8  1  0
  3  9  1  0
  3 10  1  0
  3 11  1  0
 12 13  1  0
M  RAD  1  12   2
M  END
>  <reaction>  (11) 
rxn_53

>  <mol_properties>  (11) 
{"0": {"label": "*4", "atom_type": "Cs"}, "1": {"label": "*3", "atom_type": "Cs"}, "6": {"label": "*2", "atom_type": "H0"}, "11": {"label": "*1", "atom_type": "S2s"}, "12": {"label": "*0", "atom_type": "H0"}}

>  <type>  (11) 
unop_7

>  <geom_source>  (11) 
Heuristics

$$$$

     RDKit          3D

 13 11  0  0  0  0  0  0  0  0999 V2000
   -1.0114    0.3369   -1.7576 C   0  0  0  0  0  0  0  0  0  0  0  0
   -1.0114    0.3369   -0.2343 C   0  0  0  0  0  0  0  0  0  0  0  0
   -1.0114    1.7427    0.3524 C   0  0  0  0  0  0  0  0  0  0  0  0
   -0.1299    0.8511   -2.1483 H   0  0  0  0  0  0  0  0  0  0  0  0
   -1.8928    0.8511   -2.1483 H   0  0  0  0  0  0  0  0  0  0  0  0
   -1.0114   -0.6780   -2.1588 H   0  0  0  0  0  0  0  0  0  0  0  0
    0.0380   -0.3188    0.2025 H   0  0  0  0  0  0  0  0  0  0  0  0
   -1.8859   -0.2095    0.1297 H   0  0  0  0  0  0  0  0  0  0  0  0
   -1.8928    2.3012    0.0283 H   0  0  0  0  0  0  0  0  0  0  0  0
   -1.0114    1.7220    1.4435 H   0  0  0  0  0  0  0  0  0  0  0  0
   -0.1299    2.3012    0.0283 H   0  0  0  0  0  0  0  0  0  0  0  0
    1.3227   -1.1213    0.7372 S   0  0  0  0  0  1  0  0  0  0  0  0
    2.0825   -0.0194    0.7586 H   0  0  0  0  0  0  0  0  0  0  0  0
  1  2  1  0
  1  4  1  0
  1  5  1  0
  1  6  1  0
  2  3  1  0
  2  7  1  0
  2  8  1  0
  3  9  1  0
  3 10  1  0
  3 11  1  0
 12 13  1  0
M  RAD  1  12   2
M  END
>  <reaction>  (12) 
rxn_53

>  <mol_properties>  (12) 
{"0": {"label": "*4", "atom_type": "Cs"}, "1": {"label": "*3", "atom_type": "Cs"}, "6": {"label": "*2", "atom_type": "H0"}, "11": {"label": "*1", "atom_type": "S2s"}, "12": {"label": "*0", "atom_type": "H0"}}

>  <type>  (12) 
unop_8

>  <geom_source>  (12) 
Heuristics

$$$$

     RDKit          3D

 13 11  0  0  0  0  0  0  0  0999 V2000
   -1.0018    0.3618   -1.7434 C   0  0  0  0  0  0  0  0  0  0  0  0
   -1.0018    0.3618   -0.2200 C   0  0  0  0  0  0  0  0  0  0  0  0
   -1.0018    1.7676    0.3667 C   0  0  0  0  0  0  0  0  0  0  0  0
   -0.1203    0.8761   -2.1340 H   0  0  0  0  0  0  0  0  0  0  0  0
   -1.8832    0.8760   -2.1340 H   0  0  0  0  0  0  0  0  0  0  0  0
   -1.0018   -0.6531   -2.1445 H   0  0  0  0  0  0  0  0  0  0  0  0
    0.0477   -0.2938    0.2168 H   0  0  0  0  0  0  0  0  0  0  0  0
   -1.8763   -0.1846    0.1440 H   0  0  0  0  0  0  0  0  0  0  0  0
   -1.8832    2.3262    0.0425 H   0  0  0  0  0  0  0  0  0  0  0  0
   -1.0018    1.7469    1.4578 H   0  0  0  0  0  0  0  0  0  0  0  0
   -0.1203    2.3262    0.0425 H   0  0  0  0  0  0  0  0  0  0  0  0
    1.3323   -1.0964    0.7515 S   0  0  0  0  0  1  0  0  0  0  0  0
    1.3564   -1.8997   -0.3191 H   0  0  0  0  0  0  0  0  0  0  0  0
  1  2  1  0
  1  4  1  0
  1  5  1  0
  1  6  1  0
  2  3  1  0
  2  7  1  0
  2  8  1  0
  3  9  1  0
  3 10  1  0
  3 11  1  0
 12 13  1  0
M  RAD  1  12   2
M  END
>  <reaction>  (13) 
rxn_53

>  <mol_properties>  (13) 
{"0": {"label": "*4", "atom_type": "Cs"}, "1": {"label": "*3", "atom_type": "Cs"}, "6": {"label": "*2", "atom_type": "H0"}, "11": {"label": "*1", "atom_type": "S2s"}, "12": {"label": "*0", "atom_type": "H0"}}

>  <type>  (13) 
unop_9

>  <geom_source>  (13) 
Heuristics

$$$$

     RDKit          3D

 13 11  0  0  0  0  0  0  0  0999 V2000
   -1.0126    0.3404   -1.7494 C   0  0  0  0  0  0  0  0  0  0  0  0
   -1.0126    0.3404   -0.2261 C   0  0  0  0  0  0  0  0  0  0  0  0
   -1.0126    1.7462    0.3606 C   0  0  0  0  0  0  0  0  0  0  0  0
   -0.1312    0.8547   -2.1400 H   0  0  0  0  0  0  0  0  0  0  0  0
   -1.8941    0.8547   -2.1400 H   0  0  0  0  0  0  0  0  0  0  0  0
   -1.0126   -0.6745   -2.1506 H   0  0  0  0  0  0  0  0  0  0  0  0
    0.0368   -0.3152    0.2107 H   0  0  0  0  0  0  0  0  0  0  0  0
   -1.8872   -0.2060    0.1379 H   0  0  0  0  0  0  0  0  0  0  0  0
   -1.8941    2.3048    0.0365 H   0  0  0  0  0  0  0  0  0  0  0  0
   -1.0126    1.7255    1.4518 H   0  0  0  0  0  0  0  0  0  0  0  0
   -0.1312    2.3048    0.0365 H   0  0  0  0  0  0  0  0  0  0  0  0
    1.3215   -1.1178    0.7454 S   0  0  0  0  0  1  0  0  0  0  0  0
    2.1751   -0.2857    0.1364 H   0  0  0  0  0  0  0  0  0  0  0  0
  1  2  1  0
  1  4  1  0
  1  5  1  0
  1  6  1  0
  2  3  1  0
  2  7  1  0
  2  8  1  0
  3  9  1  0
  3 10  1  0
  3 11  1  0
 12 13  1  0
M  RAD  1  12   2
M  END
>  <reaction>  (14) 
rxn_53

>  <mol_properties>  (14) 
{"0": {"label": "*4", "atom_type": "Cs"}, "1": {"label": "*3", "atom_type": "Cs"}, "6": {"label": "*2", "atom_type": "H0"}, "11": {"label": "*1", "atom_type": "S2s"}, "12": {"label": "*0", "atom_type": "H0"}}

>  <type>  (14) 
unop_10

>  <geom_source>  (14) 
Heuristics

$$$$

     RDKit          3D

 13 11  0  0  0  0  0  0  0  0999 V2000
   -0.9932    0.3564   -1.7719 C   0  0  0  0  0  0  0  0  0  0  0  0
   -0.9932    0.3564   -0.2486 C   0  0  0  0  0  0  0  0  0  0  0  0
   -0.9932    1.7623    0.3381 C   0  0  0  0  0  0  0  0  0  0  0  0
   -0.1118    0.8707   -2.1626 H   0  0  0  0  0  0  0  0  0  0  0  0
   -1.8747    0.8707   -2.1626 H   0  0  0  0  0  0  0  0  0  0  0  0
   -0.9932   -0.6585   -2.1731 H   0  0  0  0  0  0  0  0  0  0  0  0
    0.0562   -0.2992    0.1882 H   0  0  0  0  0  0  0  0  0  0  0  0
   -1.8677   -0.1899    0.1154 H   0  0  0  0  0  0  0  0  0  0  0  0
   -1.8747    2.3208    0.0140 H   0  0  0  0  0  0  0  0  0  0  0  0
   -0.9932    1.7416    1.4292 H   0  0  0  0  0  0  0  0  0  0  0  0
   -0.1118    2.3208    0.0140 H   0  0  0  0  0  0  0  0  0  0  0  0
    1.3409   -1.1017    0.7229 S   0  0  0  0  0  1  0  0  0  0  0  0
    0.7111   -1.4966    1.8362 H   0  0  0  0  0  0  0  0  0  0  0  0
  1  2  1  0
  1  4  1  0
  1  5  1  0
  1  6  1  0
  2  3  1  0
  2  7  1  0
  2  8  1  0
  3  9  1  0
  3 10  1  0
  3 11  1  0
 12 13  1  0
M  RAD  1  12   2
M  END
>  <reaction>  (15) 
rxn_53

>  <mol_properties>  (15) 
{"0": {"label": "*4", "atom_type": "Cs"}, "1": {"label": "*3", "atom_type": "Cs"}, "6": {"label": "*2", "atom_type": "H0"}, "11": {"label": "*1", "atom_type": "S2s"}, "12": {"label": "*0", "atom_type": "H0"}}

>  <type>  (15) 
unop_11

>  <geom_source>  (15) 
Heuristics

$$$$

     RDKit          3D

 13 11  0  0  0  0  0  0  0  0999 V2000
   -1.0071    0.3548   -1.7412 C   0  0  0  0  0  0  0  0  0  0  0  0
   -1.0071    0.3548   -0.2178 C   0  0  0  0  0  0  0  0  0  0  0  0
   -1.0071    1.7606    0.3689 C   0  0  0  0  0  0  0  0  0  0  0  0
   -0.1256    0.8690   -2.1318 H   0  0  0  0  0  0  0  0  0  0  0  0
   -1.8885    0.8690   -2.1318 H   0  0  0  0  0  0  0  0  0  0  0  0
   -1.0071   -0.6601   -2.1423 H   0  0  0  0  0  0  0  0  0  0  0  0
    0.0424   -0.3008    0.2190 H   0  0  0  0  0  0  0  0  0  0  0  0
   -1.8816   -0.1916    0.1462 H   0  0  0  0  0  0  0  0  0  0  0  0
   -1.8885    2.3192    0.0448 H   0  0  0  0  0  0  0  0  0  0  0  0
   -1.0071    1.7399    1.4600 H   0  0  0  0  0  0  0  0  0  0  0  0
   -0.1256    2.3192    0.0448 H   0  0  0  0  0  0  0  0  0  0  0  0
    1.3270   -1.1034    0.7537 S   0  0  0  0  0  1  0  0  0  0  0  0
    1.7559   -1.3713   -0.4858 H   0  0  0  0  0  0  0  0  0  0  0  0
  1  2  1  0
  1  4  1  0
  1  5  1  0
  1  6  1  0
  2  3  1  0
  2  7  1  0
  2  8  1  0
  3  9  1  0
  3 10  1  0
  3 11  1  0
 12 13  1  0
M  RAD  1  12   2
M  END
>  <reaction>  (16) 
rxn_53

>  <mol_properties>  (16) 
{"0": {"label": "*4", "atom_type": "Cs"}, "1": {"label": "*3", "atom_type": "Cs"}, "6": {"label": "*2", "atom_type": "H0"}, "11": {"label": "*1", "atom_type": "S2s"}, "12": {"label": "*0", "atom_type": "H0"}}

>  <type>  (16) 
unop_12

>  <geom_source>  (16) 
Heuristics

$$$$
