
     RDKit          3D

 12 11  0  0  0  0  0  0  0  0999 V2000
    1.9877    0.1011    0.4814 C   0  0  0  0  0  0  0  0  0  0  0  0
    0.8179    0.5502    0.0525 C   0  0  0  0  0  0  0  0  0  0  0  0
   -0.2939   -0.2692   -0.5320 C   0  0  0  0  0  0  0  0  0  0  0  0
   -0.0292   -1.7631   -0.6328 C   0  0  0  0  0  0  0  0  0  0  0  0
    2.2522   -0.9490    0.4436 H   0  0  0  0  0  0  0  0  0  0  0  0
    2.7295    0.7757    0.8896 H   0  0  0  0  0  0  0  0  0  0  0  0
    0.6162    1.6164    0.1190 H   0  0  0  0  0  0  0  0  0  0  0  0
   -0.5268    0.1319   -1.5245 H   0  0  0  0  0  0  0  0  0  0  0  0
   -1.1959   -0.0938    0.0644 H   0  0  0  0  0  0  0  0  0  0  0  0
    0.1590   -2.1992    0.3502 H   0  0  0  0  0  0  0  0  0  0  0  0
    0.8382   -1.9701   -1.2626 H   0  0  0  0  0  0  0  0  0  0  0  0
   -0.8879   -2.2759   -1.0672 H   0  0  0  0  0  0  0  0  0  0  0  0
  1  2  2  3
  1  5  1  0
  1  6  1  0
  2  3  1  0
  2  7  1  0
  3  4  1  0
  3  8  1  0
  3  9  1  0
  4 10  1  0
  4 11  1  0
  4 12  1  0
M  END
>  <reaction>  (1) 
rxn_1040

>  <mol_properties>  (1) 
{"2": {"label": "donator", "atom_type": "Cs"}, "7": {"label": "d_hydrogen", "atom_type": "H0"}}

>  <type>  (1) 
r1h

$$$$

     RDKit          3D

 10  9  0  0  0  0  0  0  0  0999 V2000
    1.2930    0.1441    0.3288 C   0  0  0  0  0  0  0  0  0  0  0  0
   -0.0374   -0.1647    0.9100 C   0  0  0  0  0  3  0  0  0  0  0  0
   -1.2664    0.4569    0.3567 C   0  0  0  0  0  0  0  0  0  0  0  0
    1.4384    1.2242    0.2174 H   0  0  0  0  0  0  0  0  0  0  0  0
    2.1077   -0.2477    0.9385 H   0  0  0  0  0  0  0  0  0  0  0  0
    1.4057   -0.2836   -0.6789 H   0  0  0  0  0  0  0  0  0  0  0  0
   -0.1309   -0.9912    1.6030 H   0  0  0  0  0  0  0  0  0  0  0  0
   -1.5005    0.0716   -0.6471 H   0  0  0  0  0  0  0  0  0  0  0  0
   -2.1382    0.2713    0.9849 H   0  0  0  0  0  0  0  0  0  0  0  0
   -1.1497    1.5406    0.2456 H   0  0  0  0  0  0  0  0  0  0  0  0
  1  2  1  0
  1  4  1  0
  1  5  1  0
  1  6  1  0
  2  3  1  0
  2  7  1  0
  3  8  1  0
  3  9  1  0
  3 10  1  0
M  RAD  1   2   2
M  END
>  <reaction>  (2) 
rxn_1040

>  <mol_properties>  (2) 
{"1": {"label": "acceptor", "atom_type": "Cs"}}

>  <type>  (2) 
r2

$$$$

     RDKit          3D

 11 10  0  0  0  0  0  0  0  0999 V2000
   -1.2710    0.1907   -0.2084 C   0  0  0  0  0  0  0  0  0  0  0  0
    0.0202   -0.6130   -0.2928 C   0  0  0  0  0  0  0  0  0  0  0  0
    0.1086   -1.6953    0.7756 C   0  0  0  0  0  0  0  0  0  0  0  0
   -1.3607    0.6851    0.7620 H   0  0  0  0  0  0  0  0  0  0  0  0
   -2.1429   -0.4567   -0.3299 H   0  0  0  0  0  0  0  0  0  0  0  0
   -1.3158    0.9602   -0.9809 H   0  0  0  0  0  0  0  0  0  0  0  0
    0.8757    0.0616   -0.1992 H   0  0  0  0  0  0  0  0  0  0  0  0
    0.0997   -1.0712   -1.2825 H   0  0  0  0  0  0  0  0  0  0  0  0
   -0.7198   -2.4022    0.6850 H   0  0  0  0  0  0  0  0  0  0  0  0
    1.0395   -2.2596    0.6989 H   0  0  0  0  0  0  0  0  0  0  0  0
    0.0624   -1.2603    1.7770 H   0  0  0  0  0  0  0  0  0  0  0  0
  1  2  1  0
  1  4  1  0
  1  5  1  0
  1  6  1  0
  2  3  1  0
  2  7  1  0
  2  8  1  0
  3  9  1  0
  3 10  1  0
  3 11  1  0
M  END
>  <reaction>  (3) 
rxn_1040

>  <mol_properties>  (3) 
{"0": {"label": "a_hydrogen", "atom_type": "H0"}, "2": {"label": "acceptor", "atom_type": "Cs"}}

>  <type>  (3) 
r2h

$$$$

     RDKit          3D

 22 20  0  0  0  0  0  0  0  0999 V2000
   -0.9747   -1.3439   -1.7418 C   0  0  0  0  0  0  0  0  0  0  0  0
   -1.3547   -0.7914   -0.5878 C   0  0  0  0  0  0  0  0  0  0  0  0
   -1.1437    0.5989   -0.1771 C   0  0  0  0  0  0  0  0  0  0  0  0
   -0.7426    1.6052   -1.2287 C   0  0  0  0  0  0  0  0  0  0  0  0
   -0.4972   -0.7687   -2.5260 H   0  0  0  0  0  0  0  0  0  0  0  0
   -1.1443   -2.3941   -1.9406 H   0  0  0  0  0  0  0  0  0  0  0  0
   -1.8355   -1.4284    0.1501 H   0  0  0  0  0  0  0  0  0  0  0  0
   -0.1421    0.5650    0.6398 H   0  0  0  0  0  0  0  0  0  0  0  0
   -1.9342    0.9600    0.4816 H   0  0  0  0  0  0  0  0  0  0  0  0
   -1.5174    1.7154   -1.9927 H   0  0  0  0  0  0  0  0  0  0  0  0
    0.1780    1.3066   -1.7343 H   0  0  0  0  0  0  0  0  0  0  0  0
   -0.5693    2.5840   -0.7792 H   0  0  0  0  0  0  0  0  0  0  0  0
    2.1185    0.2787    0.3897 C   0  0  0  0  0  0  0  0  0  0  0  0
    1.0324    0.4375    1.4148 C   0  0  0  0  0  3  0  0  0  0  0  0
    0.7355   -0.7649    2.2641 C   0  0  0  0  0  0  0  0  0  0  0  0
    1.8823   -0.5396   -0.2966 H   0  0  0  0  0  0  0  0  0  0  0  0
    2.2551    1.1872   -0.1985 H   0  0  0  0  0  0  0  0  0  0  0  0
    3.0800    0.0407    0.8607 H   0  0  0  0  0  0  0  0  0  0  0  0
    1.0609    1.3792    1.9618 H   0  0  0  0  0  0  0  0  0  0  0  0
    1.5924   -1.0303    2.8942 H   0  0  0  0  0  0  0  0  0  0  0  0
   -0.1181   -0.5933    2.9224 H   0  0  0  0  0  0  0  0  0  0  0  0
    0.5132   -1.6333    1.6376 H   0  0  0  0  0  0  0  0  0  0  0  0
  1  2  2  3
  1  5  1  0
  1  6  1  0
  2  3  1  0
  2  7  1  0
  3  4  1  0
  3  8  1  0
  3  9  1  0
  4 10  1  0
  4 11  1  0
  4 12  1  0
 13 14  1  0
 13 16  1  0
 13 17  1  0
 13 18  1  0
 14 15  1  0
 14 19  1  0
 15 20  1  0
 15 21  1  0
 15 22  1  0
M  RAD  1  14   2
M  END
>  <reaction>  (4) 
rxn_1040

>  <mol_properties>  (4) 
{"1": {"label": "*0", "atom_type": "Cd"}, "2": {"label": "*1", "atom_type": "Cs"}, "7": {"label": "*2", "atom_type": "H0"}, "12": {"label": "*4", "atom_type": "Cs"}, "13": {"label": "*3", "atom_type": "Cs"}}

>  <type>  (4) 
ts

$$$$

     RDKit          3D

 22 20  0  0  0  0  0  0  0  0999 V2000
   -1.1577   -1.0201   -2.4532 C   0  0  0  0  0  0  0  0  0  0  0  0
   -1.1577   -1.0201   -1.1289 C   0  0  0  0  0  0  0  0  0  0  0  0
   -1.1577    0.1843   -0.2354 C   0  0  0  0  0  3  0  0  0  0  0  0
   -1.1577    1.5301   -0.9431 C   0  0  0  0  0  0  0  0  0  0  0  0
   -1.1577   -0.1032   -3.0307 H   0  0  0  0  0  0  0  0  0  0  0  0
   -1.1577   -1.9475   -3.0119 H   0  0  0  0  0  0  0  0  0  0  0  0
   -1.1577   -1.9759   -0.6107 H   0  0  0  0  0  0  0  0  0  0  0  0
   -0.1144    0.1028    0.5603 H   0  0  0  0  0  0  0  0  0  0  0  0
   -2.0271    0.1164    0.4277 H   0  0  0  0  0  0  0  0  0  0  0  0
   -2.0402    1.6451   -1.5755 H   0  0  0  0  0  0  0  0  0  0  0  0
   -0.2753    1.6451   -1.5755 H   0  0  0  0  0  0  0  0  0  0  0  0
   -1.1577    2.3445   -0.2178 H   0  0  0  0  0  0  0  0  0  0  0  0
    1.8276    1.2302    1.1354 C   0  0  0  0  0  0  0  0  0  0  0  0
    0.9269    0.0214    1.3546 C   0  0  0  0  0  0  0  0  0  0  0  0
    1.6503   -1.1336    2.0354 C   0  0  0  0  0  0  0  0  0  0  0  0
    2.6846    0.9703    0.5092 H   0  0  0  0  0  0  0  0  0  0  0  0
    1.2921    2.0461    0.6472 H   0  0  0  0  0  0  0  0  0  0  0  0
    2.2156    1.6056    2.0854 H   0  0  0  0  0  0  0  0  0  0  0  0
    0.0631    0.3156    1.9572 H   0  0  0  0  0  0  0  0  0  0  0  0
    2.0327   -0.8326    3.0138 H   0  0  0  0  0  0  0  0  0  0  0  0
    0.9894   -1.9892    2.1837 H   0  0  0  0  0  0  0  0  0  0  0  0
    2.5017   -1.4679    1.4376 H   0  0  0  0  0  0  0  0  0  0  0  0
  1  2  2  3
  1  5  1  0
  1  6  1  0
  2  3  1  0
  2  7  1  0
  3  4  1  0
  3  9  1  0
  4 10  1  0
  4 11  1  0
  4 12  1  0
  8 14  1  0
 13 14  1  0
 13 16  1  0
 13 17  1  0
 13 18  1  0
 14 15  1  0
 14 19  1  0
 15 20  1  0
 15 21  1  0
 15 22  1  0
M  RAD  1   3   2
M  END
>  <reaction>  (5) 
rxn_1040

>  <mol_properties>  (5) 
{"1": {"label": "*0", "atom_type": "Cd"}, "2": {"label": "*1", "atom_type": "Cs"}, "7": {"label": "*2", "atom_type": "H0"}, "12": {"label": "*4", "atom_type": "Cs"}, "13": {"label": "*3", "atom_type": "Cs"}}

>  <type>  (5) 
unop_1

>  <geom_source>  (5) 
Heuristics

$$$$

     RDKit          3D

 22 20  0  0  0  0  0  0  0  0999 V2000
   -1.0693   -0.8403   -2.4945 C   0  0  0  0  0  0  0  0  0  0  0  0
   -1.0693   -0.8403   -1.1701 C   0  0  0  0  0  0  0  0  0  0  0  0
   -1.0693    0.3642   -0.2767 C   0  0  0  0  0  3  0  0  0  0  0  0
   -1.0693    1.7099   -0.9844 C   0  0  0  0  0  0  0  0  0  0  0  0
   -1.0693    0.0766   -3.0719 H   0  0  0  0  0  0  0  0  0  0  0  0
   -1.0693   -1.7676   -3.0532 H   0  0  0  0  0  0  0  0  0  0  0  0
   -1.0693   -1.7960   -0.6520 H   0  0  0  0  0  0  0  0  0  0  0  0
   -0.0260    0.2826    0.5191 H   0  0  0  0  0  0  0  0  0  0  0  0
   -1.9387    0.2962    0.3864 H   0  0  0  0  0  0  0  0  0  0  0  0
   -1.9517    1.8250   -1.6168 H   0  0  0  0  0  0  0  0  0  0  0  0
   -0.1869    1.8250   -1.6168 H   0  0  0  0  0  0  0  0  0  0  0  0
   -1.0693    2.5243   -0.2591 H   0  0  0  0  0  0  0  0  0  0  0  0
    2.1358   -0.5494    0.6051 C   0  0  0  0  0  0  0  0  0  0  0  0
    1.0153    0.2012    1.3134 C   0  0  0  0  0  0  0  0  0  0  0  0
    0.8992   -0.1709    2.7860 C   0  0  0  0  0  0  0  0  0  0  0  0
    1.9751   -1.6291    0.6549 H   0  0  0  0  0  0  0  0  0  0  0  0
    2.2032   -0.2697   -0.4476 H   0  0  0  0  0  0  0  0  0  0  0  0
    3.1020   -0.3385    1.0699 H   0  0  0  0  0  0  0  0  0  0  0  0
    1.1841    1.2778    1.2222 H   0  0  0  0  0  0  0  0  0  0  0  0
    1.8264    0.0519    3.3195 H   0  0  0  0  0  0  0  0  0  0  0  0
    0.0920    0.3765    3.2756 H   0  0  0  0  0  0  0  0  0  0  0  0
    0.6994   -1.2387    2.9045 H   0  0  0  0  0  0  0  0  0  0  0  0
  1  2  2  3
  1  5  1  0
  1  6  1  0
  2  3  1  0
  2  7  1  0
  3  4  1  0
  3  9  1  0
  4 10  1  0
  4 11  1  0
  4 12  1  0
  8 14  1  0
 13 14  1  0
 13 16  1  0
 13 17  1  0
 13 18  1  0
 14 15  1  0
 14 19  1  0
 15 20  1  0
 15 21  1  0
 15 22  1  0
M  RAD  1   3   2
M  END
>  <reaction>  (6) 
rxn_1040

>  <mol_properties>  (6) 
{"1": {"label": "*0", "atom_type": "Cd"}, "2": {"label": "*1", "atom_type": "Cs"}, "7": {"label": "*2", "atom_type": "H0"}, "12": {"label": "*4", "atom_type": "Cs"}, "13": {"label": "*3", "atom_type": "Cs"}}

>  <type>  (6) 
unop_2

>  <geom_source>  (6) 
Heuristics

$$$$

     RDKit          3D

 22 20  0  0  0  0  0  0  0  0999 V2000
   -1.1565   -1.0669   -2.4344 C   0  0  0  0  0  0  0  0  0  0  0  0
   -1.1565   -1.0669   -1.1101 C   0  0  0  0  0  0  0  0  0  0  0  0
   -1.1565    0.1376   -0.2166 C   0  0  0  0  0  3  0  0  0  0  0  0
   -1.1565    1.4833   -0.9243 C   0  0  0  0  0  0  0  0  0  0  0  0
   -1.1565   -0.1500   -3.0119 H   0  0  0  0  0  0  0  0  0  0  0  0
   -1.1565   -1.9943   -2.9931 H   0  0  0  0  0  0  0  0  0  0  0  0
   -1.1565   -2.0227   -0.5919 H   0  0  0  0  0  0  0  0  0  0  0  0
   -0.1132    0.0560    0.5791 H   0  0  0  0  0  0  0  0  0  0  0  0
   -2.0258    0.0696    0.4465 H   0  0  0  0  0  0  0  0  0  0  0  0
   -2.0389    1.5983   -1.5568 H   0  0  0  0  0  0  0  0  0  0  0  0
   -0.2740    1.5983   -1.5568 H   0  0  0  0  0  0  0  0  0  0  0  0
   -1.1565    2.2977   -0.1990 H   0  0  0  0  0  0  0  0  0  0  0  0
    1.4031    1.3768    1.7323 C   0  0  0  0  0  0  0  0  0  0  0  0
    0.9282   -0.0254    1.3734 C   0  0  0  0  0  0  0  0  0  0  0  0
    2.0630   -1.0415    1.3512 C   0  0  0  0  0  0  0  0  0  0  0  0
    2.1441    1.7342    1.0131 H   0  0  0  0  0  0  0  0  0  0  0  0
    0.5769    2.0897    1.7430 H   0  0  0  0  0  0  0  0  0  0  0  0
    1.8697    1.3903    2.7203 H   0  0  0  0  0  0  0  0  0  0  0  0
    0.1664   -0.3461    2.0895 H   0  0  0  0  0  0  0  0  0  0  0  0
    2.5503   -1.1041    2.3272 H   0  0  0  0  0  0  0  0  0  0  0  0
    1.7034   -2.0388    1.0925 H   0  0  0  0  0  0  0  0  0  0  0  0
    2.8248   -0.7602    0.6201 H   0  0  0  0  0  0  0  0  0  0  0  0
  1  2  2  3
  1  5  1  0
  1  6  1  0
  2  3  1  0
  2  7  1  0
  3  4  1  0
  3  9  1  0
  4 10  1  0
  4 11  1  0
  4 12  1  0
  8 14  1  0
 13 14  1  0
 13 16  1  0
 13 17  1  0
 13 18  1  0
 14 15  1  0
 14 19  1  0
 15 20  1  0
 15 21  1  0
 15 22  1  0
M  RAD  1   3   2
M  END
>  <reaction>  (7) 
rxn_1040

>  <mol_properties>  (7) 
{"1": {"label": "*0", "atom_type": "Cd"}, "2": {"label": "*1", "atom_type": "Cs"}, "7": {"label": "*2", "atom_type": "H0"}, "12": {"label": "*4", "atom_type": "Cs"}, "13": {"label": "*3", "atom_type": "Cs"}}

>  <type>  (7) 
unop_3

>  <geom_source>  (7) 
Heuristics

$$$$

     RDKit          3D

 22 20  0  0  0  0  0  0  0  0999 V2000
   -0.7975   -0.9987   -2.6123 C   0  0  0  0  0  0  0  0  0  0  0  0
   -0.7975   -0.9987   -1.2880 C   0  0  0  0  0  0  0  0  0  0  0  0
   -0.7975    0.2058   -0.3945 C   0  0  0  0  0  3  0  0  0  0  0  0
   -0.7975    1.5516   -1.1022 C   0  0  0  0  0  0  0  0  0  0  0  0
   -0.7975   -0.0818   -3.1897 H   0  0  0  0  0  0  0  0  0  0  0  0
   -0.7975   -1.9260   -3.1710 H   0  0  0  0  0  0  0  0  0  0  0  0
   -0.7975   -1.9544   -0.7698 H   0  0  0  0  0  0  0  0  0  0  0  0
    0.2458    0.1242    0.4013 H   0  0  0  0  0  0  0  0  0  0  0  0
   -1.6669    0.1378    0.2686 H   0  0  0  0  0  0  0  0  0  0  0  0
   -1.6799    1.6666   -1.7346 H   0  0  0  0  0  0  0  0  0  0  0  0
    0.0849    1.6666   -1.7346 H   0  0  0  0  0  0  0  0  0  0  0  0
   -0.7975    2.3659   -0.3769 H   0  0  0  0  0  0  0  0  0  0  0  0
    1.1912   -1.2289    2.0286 C   0  0  0  0  0  0  0  0  0  0  0  0
    1.2871    0.0428    1.1956 C   0  0  0  0  0  0  0  0  0  0  0  0
    0.6282    1.2383    1.8717 C   0  0  0  0  0  0  0  0  0  0  0  0
    0.1482   -1.4962    2.2149 H   0  0  0  0  0  0  0  0  0  0  0  0
    1.6683   -2.0732    1.5282 H   0  0  0  0  0  0  0  0  0  0  0  0
    1.6759   -1.0976    2.9991 H   0  0  0  0  0  0  0  0  0  0  0  0
    2.3384    0.2702    0.9980 H   0  0  0  0  0  0  0  0  0  0  0  0
    1.0951    1.4473    2.8373 H   0  0  0  0  0  0  0  0  0  0  0  0
    0.7071    2.1388    1.2604 H   0  0  0  0  0  0  0  0  0  0  0  0
   -0.4326    1.0488    2.0530 H   0  0  0  0  0  0  0  0  0  0  0  0
  1  2  2  3
  1  5  1  0
  1  6  1  0
  2  3  1  0
  2  7  1  0
  3  4  1  0
  3  9  1  0
  4 10  1  0
  4 11  1  0
  4 12  1  0
  8 14  1  0
 13 14  1  0
 13 16  1  0
 13 17  1  0
 13 18  1  0
 14 15  1  0
 14 19  1  0
 15 20  1  0
 15 21  1  0
 15 22  1  0
M  RAD  1   3   2
M  END
>  <reaction>  (8) 
rxn_1040

>  <mol_properties>  (8) 
{"1": {"label": "*0", "atom_type": "Cd"}, "2": {"label": "*1", "atom_type": "Cs"}, "7": {"label": "*2", "atom_type": "H0"}, "12": {"label": "*4", "atom_type": "Cs"}, "13": {"label": "*3", "atom_type": "Cs"}}

>  <type>  (8) 
unop_4

>  <geom_source>  (8) 
Heuristics

$$$$

     RDKit          3D

 22 20  0  0  0  0  0  0  0  0999 V2000
   -1.1127   -1.1717   -2.3933 C   0  0  0  0  0  0  0  0  0  0  0  0
   -1.1127   -1.1717   -1.0690 C   0  0  0  0  0  0  0  0  0  0  0  0
   -1.1127    0.0328   -0.1755 C   0  0  0  0  0  3  0  0  0  0  0  0
   -1.1127    1.3786   -0.8832 C   0  0  0  0  0  0  0  0  0  0  0  0
   -1.1127   -0.2548   -2.9708 H   0  0  0  0  0  0  0  0  0  0  0  0
   -1.1127   -2.0990   -2.9520 H   0  0  0  0  0  0  0  0  0  0  0  0
   -1.1127   -2.1274   -0.5508 H   0  0  0  0  0  0  0  0  0  0  0  0
   -0.0695   -0.0487    0.6202 H   0  0  0  0  0  0  0  0  0  0  0  0
   -1.9821   -0.0351    0.4876 H   0  0  0  0  0  0  0  0  0  0  0  0
   -1.9952    1.4936   -1.5156 H   0  0  0  0  0  0  0  0  0  0  0  0
   -0.2303    1.4936   -1.5156 H   0  0  0  0  0  0  0  0  0  0  0  0
   -1.1127    2.1929   -0.1579 H   0  0  0  0  0  0  0  0  0  0  0  0
    1.0016    1.0813    2.3375 C   0  0  0  0  0  0  0  0  0  0  0  0
    0.9719   -0.1302    1.4145 C   0  0  0  0  0  0  0  0  0  0  0  0
    2.2384   -0.2618    0.5783 C   0  0  0  0  0  0  0  0  0  0  0  0
    1.1097    2.0059    1.7652 H   0  0  0  0  0  0  0  0  0  0  0  0
    0.0868    1.1586    2.9276 H   0  0  0  0  0  0  0  0  0  0  0  0
    1.8436    1.0232    3.0315 H   0  0  0  0  0  0  0  0  0  0  0  0
    0.8322   -1.0373    2.0090 H   0  0  0  0  0  0  0  0  0  0  0  0
    3.1194   -0.3623    1.2169 H   0  0  0  0  0  0  0  0  0  0  0  0
    2.1983   -1.1345   -0.0757 H   0  0  0  0  0  0  0  0  0  0  0  0
    2.3855    0.6204   -0.0494 H   0  0  0  0  0  0  0  0  0  0  0  0
  1  2  2  3
  1  5  1  0
  1  6  1  0
  2  3  1  0
  2  7  1  0
  3  4  1  0
  3  9  1  0
  4 10  1  0
  4 11  1  0
  4 12  1  0
  8 14  1  0
 13 14  1  0
 13 16  1  0
 13 17  1  0
 13 18  1  0
 14 15  1  0
 14 19  1  0
 15 20  1  0
 15 21  1  0
 15 22  1  0
M  RAD  1   3   2
M  END
>  <reaction>  (9) 
rxn_1040

>  <mol_properties>  (9) 
{"1": {"label": "*0", "atom_type": "Cd"}, "2": {"label": "*1", "atom_type": "Cs"}, "7": {"label": "*2", "atom_type": "H0"}, "12": {"label": "*4", "atom_type": "Cs"}, "13": {"label": "*3", "atom_type": "Cs"}}

>  <type>  (9) 
unop_5

>  <geom_source>  (9) 
Heuristics

$$$$

     RDKit          3D

 22 20  0  0  0  0  0  0  0  0999 V2000
   -0.7971   -1.1242   -2.5825 C   0  0  0  0  0  0  0  0  0  0  0  0
   -0.7971   -1.1242   -1.2581 C   0  0  0  0  0  0  0  0  0  0  0  0
   -0.7971    0.0803   -0.3647 C   0  0  0  0  0  3  0  0  0  0  0  0
   -0.7971    1.4261   -1.0724 C   0  0  0  0  0  0  0  0  0  0  0  0
   -0.7971   -0.2073   -3.1599 H   0  0  0  0  0  0  0  0  0  0  0  0
   -0.7971   -2.0515   -3.1412 H   0  0  0  0  0  0  0  0  0  0  0  0
   -0.7971   -2.0799   -0.7399 H   0  0  0  0  0  0  0  0  0  0  0  0
    0.2462   -0.0012    0.4311 H   0  0  0  0  0  0  0  0  0  0  0  0
   -1.6665    0.0124    0.2985 H   0  0  0  0  0  0  0  0  0  0  0  0
   -1.6795    1.5411   -1.7048 H   0  0  0  0  0  0  0  0  0  0  0  0
    0.0854    1.5411   -1.7048 H   0  0  0  0  0  0  0  0  0  0  0  0
   -0.7971    2.2405   -0.3471 H   0  0  0  0  0  0  0  0  0  0  0  0
    0.8994   -0.8286    2.4956 C   0  0  0  0  0  0  0  0  0  0  0  0
    1.2876   -0.0826    1.2254 C   0  0  0  0  0  0  0  0  0  0  0  0
    0.9165    1.3940    1.2756 C   0  0  0  0  0  0  0  0  0  0  0  0
   -0.1780   -0.7708    2.6688 H   0  0  0  0  0  0  0  0  0  0  0  0
    1.1729   -1.8837    2.4407 H   0  0  0  0  0  0  0  0  0  0  0  0
    1.3968   -0.3989    3.3685 H   0  0  0  0  0  0  0  0  0  0  0  0
    2.3638   -0.1821    1.0593 H   0  0  0  0  0  0  0  0  0  0  0  0
    1.4145    1.8937    2.1100 H   0  0  0  0  0  0  0  0  0  0  0  0
    1.2023    1.9108    0.3578 H   0  0  0  0  0  0  0  0  0  0  0  0
   -0.1603    1.5218    1.4103 H   0  0  0  0  0  0  0  0  0  0  0  0
  1  2  2  3
  1  5  1  0
  1  6  1  0
  2  3  1  0
  2  7  1  0
  3  4  1  0
  3  9  1  0
  4 10  1  0
  4 11  1  0
  4 12  1  0
  8 14  1  0
 13 14  1  0
 13 16  1  0
 13 17  1  0
 13 18  1  0
 14 15  1  0
 14 19  1  0
 15 20  1  0
 15 21  1  0
 15 22  1  0
M  RAD  1   3   2
M  END
>  <reaction>  (10) 
rxn_1040

>  <mol_properties>  (10) 
{"1": {"label": "*0", "atom_type": "Cd"}, "2": {"label": "*1", "atom_type": "Cs"}, "7": {"label": "*2", "atom_type": "H0"}, "12": {"label": "*4", "atom_type": "Cs"}, "13": {"label": "*3", "atom_type": "Cs"}}

>  <type>  (10) 
unop_6

>  <geom_source>  (10) 
Heuristics

$$$$

     RDKit          3D

 22 20  0  0  0  0  0  0  0  0999 V2000
   -0.8566   -1.2247   -2.5146 C   0  0  0  0  0  0  0  0  0  0  0  0
   -0.8566   -1.2247   -1.1902 C   0  0  0  0  0  0  0  0  0  0  0  0
   -0.8566   -0.0202   -0.2968 C   0  0  0  0  0  3  0  0  0  0  0  0
   -0.8566    1.3255   -1.0045 C   0  0  0  0  0  0  0  0  0  0  0  0
   -0.8566   -0.3078   -3.0920 H   0  0  0  0  0  0  0  0  0  0  0  0
   -0.8566   -2.1520   -3.0733 H   0  0  0  0  0  0  0  0  0  0  0  0
   -0.8566   -2.1804   -0.6721 H   0  0  0  0  0  0  0  0  0  0  0  0
    0.1866   -0.1018    0.4990 H   0  0  0  0  0  0  0  0  0  0  0  0
   -1.7260   -0.0882    0.3664 H   0  0  0  0  0  0  0  0  0  0  0  0
   -1.7391    1.4406   -1.6369 H   0  0  0  0  0  0  0  0  0  0  0  0
    0.0258    1.4406   -1.6369 H   0  0  0  0  0  0  0  0  0  0  0  0
   -0.8566    2.1399   -0.2792 H   0  0  0  0  0  0  0  0  0  0  0  0
    0.7594   -0.2120    2.7424 C   0  0  0  0  0  0  0  0  0  0  0  0
    1.2280   -0.1832    1.2933 C   0  0  0  0  0  0  0  0  0  0  0  0
    1.3169    1.2307    0.7334 C   0  0  0  0  0  0  0  0  0  0  0  0
   -0.2310    0.2389    2.8417 H   0  0  0  0  0  0  0  0  0  0  0  0
    0.7021   -1.2323    3.1253 H   0  0  0  0  0  0  0  0  0  0  0  0
    1.4424    0.3488    3.3851 H   0  0  0  0  0  0  0  0  0  0  0  0
    2.2057   -0.6670    1.2172 H   0  0  0  0  0  0  0  0  0  0  0  0
    2.0176    1.8369    1.3127 H   0  0  0  0  0  0  0  0  0  0  0  0
    1.6539    1.2307   -0.3046 H   0  0  0  0  0  0  0  0  0  0  0  0
    0.3441    1.7270    0.7693 H   0  0  0  0  0  0  0  0  0  0  0  0
  1  2  2  3
  1  5  1  0
  1  6  1  0
  2  3  1  0
  2  7  1  0
  3  4  1  0
  3  9  1  0
  4 10  1  0
  4 11  1  0
  4 12  1  0
  8 14  1  0
 13 14  1  0
 13 16  1  0
 13 17  1  0
 13 18  1  0
 14 15  1  0
 14 19  1  0
 15 20  1  0
 15 21  1  0
 15 22  1  0
M  RAD  1   3   2
M  END
>  <reaction>  (11) 
rxn_1040

>  <mol_properties>  (11) 
{"1": {"label": "*0", "atom_type": "Cd"}, "2": {"label": "*1", "atom_type": "Cs"}, "7": {"label": "*2", "atom_type": "H0"}, "12": {"label": "*4", "atom_type": "Cs"}, "13": {"label": "*3", "atom_type": "Cs"}}

>  <type>  (11) 
unop_7

>  <geom_source>  (11) 
Heuristics

$$$$

     RDKit          3D

 22 20  0  0  0  0  0  0  0  0999 V2000
   -1.1563   -0.9724   -2.4501 C   0  0  0  0  0  0  0  0  0  0  0  0
   -1.1563   -0.9724   -1.1257 C   0  0  0  0  0  0  0  0  0  0  0  0
   -1.1563    0.2321   -0.2323 C   0  0  0  0  0  3  0  0  0  0  0  0
   -1.1563    1.5779   -0.9400 C   0  0  0  0  0  0  0  0  0  0  0  0
   -1.1563   -0.0555   -3.0275 H   0  0  0  0  0  0  0  0  0  0  0  0
   -1.1563   -1.8997   -3.0088 H   0  0  0  0  0  0  0  0  0  0  0  0
   -1.1563   -1.9281   -0.6076 H   0  0  0  0  0  0  0  0  0  0  0  0
   -0.1131    0.1506    0.5635 H   0  0  0  0  0  0  0  0  0  0  0  0
   -2.0257    0.1642    0.4308 H   0  0  0  0  0  0  0  0  0  0  0  0
   -2.0388    1.6929   -1.5724 H   0  0  0  0  0  0  0  0  0  0  0  0
   -0.2739    1.6929   -1.5724 H   0  0  0  0  0  0  0  0  0  0  0  0
   -1.1563    2.3922   -0.2147 H   0  0  0  0  0  0  0  0  0  0  0  0
    2.1213    0.7522    0.7014 C   0  0  0  0  0  0  0  0  0  0  0  0
    0.9283    0.0691    1.3578 C   0  0  0  0  0  0  0  0  0  0  0  0
    1.3388   -0.8890    2.4686 C   0  0  0  0  0  0  0  0  0  0  0  0
    2.7990    0.0167    0.2612 H   0  0  0  0  0  0  0  0  0  0  0  0
    1.8073    1.4338   -0.0909 H   0  0  0  0  0  0  0  0  0  0  0  0
    2.6920    1.3295    1.4329 H   0  0  0  0  0  0  0  0  0  0  0  0
    0.2520    0.8273    1.7624 H   0  0  0  0  0  0  0  0  0  0  0  0
    1.8849   -0.3634    3.2558 H   0  0  0  0  0  0  0  0  0  0  0  0
    0.4715   -1.3680    2.9261 H   0  0  0  0  0  0  0  0  0  0  0  0
    1.9918   -1.6762    2.0840 H   0  0  0  0  0  0  0  0  0  0  0  0
  1  2  2  3
  1  5  1  0
  1  6  1  0
  2  3  1  0
  2  7  1  0
  3  4  1  0
  3  9  1  0
  4 10  1  0
  4 11  1  0
  4 12  1  0
  8 14  1  0
 13 14  1  0
 13 16  1  0
 13 17  1  0
 13 18  1  0
 14 15  1  0
 14 19  1  0
 15 20  1  0
 15 21  1  0
 15 22  1  0
M  RAD  1   3   2
M  END
>  <reaction>  (12) 
rxn_1040

>  <mol_properties>  (12) 
{"1": {"label": "*0", "atom_type": "Cd"}, "2": {"label": "*1", "atom_type": "Cs"}, "7": {"label": "*2", "atom_type": "H0"}, "12": {"label": "*4", "atom_type": "Cs"}, "13": {"label": "*3", "atom_type": "Cs"}}

>  <type>  (12) 
unop_8

>  <geom_source>  (12) 
Heuristics

$$$$

     RDKit          3D

 22 20  0  0  0  0  0  0  0  0999 V2000
   -0.8580   -0.8854   -2.6006 C   0  0  0  0  0  0  0  0  0  0  0  0
   -0.8580   -0.8854   -1.2763 C   0  0  0  0  0  0  0  0  0  0  0  0
   -0.8580    0.3191   -0.3828 C   0  0  0  0  0  3  0  0  0  0  0  0
   -0.8580    1.6648   -1.0905 C   0  0  0  0  0  0  0  0  0  0  0  0
   -0.8580    0.0315   -3.1781 H   0  0  0  0  0  0  0  0  0  0  0  0
   -0.8580   -1.8128   -3.1593 H   0  0  0  0  0  0  0  0  0  0  0  0
   -0.8580   -1.8412   -0.7581 H   0  0  0  0  0  0  0  0  0  0  0  0
    0.1853    0.2375    0.4129 H   0  0  0  0  0  0  0  0  0  0  0  0
   -1.7274    0.2511    0.2803 H   0  0  0  0  0  0  0  0  0  0  0  0
   -1.7405    1.7798   -1.7230 H   0  0  0  0  0  0  0  0  0  0  0  0
    0.0244    1.7798   -1.7230 H   0  0  0  0  0  0  0  0  0  0  0  0
   -0.8580    2.4792   -0.3652 H   0  0  0  0  0  0  0  0  0  0  0  0
    1.5565   -1.3091    1.4622 C   0  0  0  0  0  0  0  0  0  0  0  0
    1.2266    0.1561    1.2072 C   0  0  0  0  0  0  0  0  0  0  0  0
    0.5294    0.8150    2.3905 C   0  0  0  0  0  0  0  0  0  0  0  0
    0.6498   -1.8840    1.6654 H   0  0  0  0  0  0  0  0  0  0  0  0
    2.0550   -1.7633    0.6043 H   0  0  0  0  0  0  0  0  0  0  0  0
    2.2153   -1.4163    2.3274 H   0  0  0  0  0  0  0  0  0  0  0  0
    2.1460    0.7014    0.9767 H   0  0  0  0  0  0  0  0  0  0  0  0
    1.1558    0.7748    3.2849 H   0  0  0  0  0  0  0  0  0  0  0  0
    0.3015    1.8631    2.1890 H   0  0  0  0  0  0  0  0  0  0  0  0
   -0.4098    0.3070    2.6229 H   0  0  0  0  0  0  0  0  0  0  0  0
  1  2  2  3
  1  5  1  0
  1  6  1  0
  2  3  1  0
  2  7  1  0
  3  4  1  0
  3  9  1  0
  4 10  1  0
  4 11  1  0
  4 12  1  0
  8 14  1  0
 13 14  1  0
 13 16  1  0
 13 17  1  0
 13 18  1  0
 14 15  1  0
 14 19  1  0
 15 20  1  0
 15 21  1  0
 15 22  1  0
M  RAD  1   3   2
M  END
>  <reaction>  (13) 
rxn_1040

>  <mol_properties>  (13) 
{"1": {"label": "*0", "atom_type": "Cd"}, "2": {"label": "*1", "atom_type": "Cs"}, "7": {"label": "*2", "atom_type": "H0"}, "12": {"label": "*4", "atom_type": "Cs"}, "13": {"label": "*3", "atom_type": "Cs"}}

>  <type>  (13) 
unop_9

>  <geom_source>  (13) 
Heuristics

$$$$

     RDKit          3D

 22 20  0  0  0  0  0  0  0  0999 V2000
   -1.1340   -0.9048   -2.4574 C   0  0  0  0  0  0  0  0  0  0  0  0
   -1.1340   -0.9048   -1.1331 C   0  0  0  0  0  0  0  0  0  0  0  0
   -1.1340    0.2997   -0.2396 C   0  0  0  0  0  3  0  0  0  0  0  0
   -1.1340    1.6455   -0.9473 C   0  0  0  0  0  0  0  0  0  0  0  0
   -1.1340    0.0121   -3.0348 H   0  0  0  0  0  0  0  0  0  0  0  0
   -1.1340   -1.8321   -3.0161 H   0  0  0  0  0  0  0  0  0  0  0  0
   -1.1340   -1.8605   -0.6149 H   0  0  0  0  0  0  0  0  0  0  0  0
   -0.0907    0.2182    0.5562 H   0  0  0  0  0  0  0  0  0  0  0  0
   -2.0034    0.2317    0.4235 H   0  0  0  0  0  0  0  0  0  0  0  0
   -2.0164    1.7605   -1.5797 H   0  0  0  0  0  0  0  0  0  0  0  0
   -0.2515    1.7605   -1.5797 H   0  0  0  0  0  0  0  0  0  0  0  0
   -1.1340    2.4598   -0.2220 H   0  0  0  0  0  0  0  0  0  0  0  0
    2.2241    0.1026    0.5151 C   0  0  0  0  0  0  0  0  0  0  0  0
    0.9506    0.1367    1.3505 C   0  0  0  0  0  0  0  0  0  0  0  0
    1.1172   -0.5455    2.7023 C   0  0  0  0  0  0  0  0  0  0  0  0
    2.5374   -0.9264    0.3225 H   0  0  0  0  0  0  0  0  0  0  0  0
    2.0851    0.5956   -0.4485 H   0  0  0  0  0  0  0  0  0  0  0  0
    3.0445    0.6052    1.0330 H   0  0  0  0  0  0  0  0  0  0  0  0
    0.6426    1.1749    1.5022 H   0  0  0  0  0  0  0  0  0  0  0  0
    1.9028   -0.0632    3.2890 H   0  0  0  0  0  0  0  0  0  0  0  0
    0.1954   -0.5108    3.2854 H   0  0  0  0  0  0  0  0  0  0  0  0
    1.3957   -1.5949    2.5786 H   0  0  0  0  0  0  0  0  0  0  0  0
  1  2  2  3
  1  5  1  0
  1  6  1  0
  2  3  1  0
  2  7  1  0
  3  4  1  0
  3  9  1  0
  4 10  1  0
  4 11  1  0
  4 12  1  0
  8 14  1  0
 13 14  1  0
 13 16  1  0
 13 17  1  0
 13 18  1  0
 14 15  1  0
 14 19  1  0
 15 20  1  0
 15 21  1  0
 15 22  1  0
M  RAD  1   3   2
M  END
>  <reaction>  (14) 
rxn_1040

>  <mol_properties>  (14) 
{"1": {"label": "*0", "atom_type": "Cd"}, "2": {"label": "*1", "atom_type": "Cs"}, "7": {"label": "*2", "atom_type": "H0"}, "12": {"label": "*4", "atom_type": "Cs"}, "13": {"label": "*3", "atom_type": "Cs"}}

>  <type>  (14) 
unop_10

>  <geom_source>  (14) 
Heuristics

$$$$

     RDKit          3D

 22 20  0  0  0  0  0  0  0  0999 V2000
   -0.9754   -1.2566   -2.4286 C   0  0  0  0  0  0  0  0  0  0  0  0
   -0.9754   -1.2566   -1.1043 C   0  0  0  0  0  0  0  0  0  0  0  0
   -0.9754   -0.0521   -0.2108 C   0  0  0  0  0  3  0  0  0  0  0  0
   -0.9754    1.2936   -0.9185 C   0  0  0  0  0  0  0  0  0  0  0  0
   -0.9754   -0.3397   -3.0061 H   0  0  0  0  0  0  0  0  0  0  0  0
   -0.9754   -2.1839   -2.9873 H   0  0  0  0  0  0  0  0  0  0  0  0
   -0.9754   -2.2123   -0.5861 H   0  0  0  0  0  0  0  0  0  0  0  0
    0.0679   -0.1337    0.5849 H   0  0  0  0  0  0  0  0  0  0  0  0
   -1.8448   -0.1201    0.4523 H   0  0  0  0  0  0  0  0  0  0  0  0
   -1.8578    1.4087   -1.5510 H   0  0  0  0  0  0  0  0  0  0  0  0
   -0.0929    1.4087   -1.5510 H   0  0  0  0  0  0  0  0  0  0  0  0
   -0.9754    2.1080   -0.1932 H   0  0  0  0  0  0  0  0  0  0  0  0
    0.7936    0.4726    2.7013 C   0  0  0  0  0  0  0  0  0  0  0  0
    1.1093   -0.2151    1.3792 C   0  0  0  0  0  0  0  0  0  0  0  0
    1.8117    0.7073    0.3911 C   0  0  0  0  0  0  0  0  0  0  0  0
    0.1435    1.3371    2.5465 H   0  0  0  0  0  0  0  0  0  0  0  0
    0.2911   -0.2034    3.3952 H   0  0  0  0  0  0  0  0  0  0  0  0
    1.7067    0.8294    3.1839 H   0  0  0  0  0  0  0  0  0  0  0  0
    1.7344   -1.0927    1.5656 H   0  0  0  0  0  0  0  0  0  0  0  0
    2.7569    1.0715    0.8009 H   0  0  0  0  0  0  0  0  0  0  0  0
    2.0293    0.1972   -0.5488 H   0  0  0  0  0  0  0  0  0  0  0  0
    1.1937    1.5792    0.1635 H   0  0  0  0  0  0  0  0  0  0  0  0
  1  2  2  3
  1  5  1  0
  1  6  1  0
  2  3  1  0
  2  7  1  0
  3  4  1  0
  3  9  1  0
  4 10  1  0
  4 11  1  0
  4 12  1  0
  8 14  1  0
 13 14  1  0
 13 16  1  0
 13 17  1  0
 13 18  1  0
 14 15  1  0
 14 19  1  0
 15 20  1  0
 15 21  1  0
 15 22  1  0
M  RAD  1   3   2
M  END
>  <reaction>  (15) 
rxn_1040

>  <mol_properties>  (15) 
{"1": {"label": "*0", "atom_type": "Cd"}, "2": {"label": "*1", "atom_type": "Cs"}, "7": {"label": "*2", "atom_type": "H0"}, "12": {"label": "*4", "atom_type": "Cs"}, "13": {"label": "*3", "atom_type": "Cs"}}

>  <type>  (15) 
unop_11

>  <geom_source>  (15) 
Heuristics

$$$$

     RDKit          3D

 22 20  0  0  0  0  0  0  0  0999 V2000
   -0.9637   -0.8250   -2.5532 C   0  0  0  0  0  0  0  0  0  0  0  0
   -0.9637   -0.8250   -1.2289 C   0  0  0  0  0  0  0  0  0  0  0  0
   -0.9637    0.3795   -0.3354 C   0  0  0  0  0  3  0  0  0  0  0  0
   -0.9637    1.7253   -1.0431 C   0  0  0  0  0  0  0  0  0  0  0  0
   -0.9637    0.0919   -3.1307 H   0  0  0  0  0  0  0  0  0  0  0  0
   -0.9637   -1.7523   -3.1119 H   0  0  0  0  0  0  0  0  0  0  0  0
   -0.9637   -1.7807   -0.7107 H   0  0  0  0  0  0  0  0  0  0  0  0
    0.0796    0.2980    0.4603 H   0  0  0  0  0  0  0  0  0  0  0  0
   -1.8331    0.3116    0.3277 H   0  0  0  0  0  0  0  0  0  0  0  0
   -1.8461    1.8403   -1.6756 H   0  0  0  0  0  0  0  0  0  0  0  0
   -0.0812    1.8403   -1.6756 H   0  0  0  0  0  0  0  0  0  0  0  0
   -0.9637    2.5396   -0.3178 H   0  0  0  0  0  0  0  0  0  0  0  0
    1.8961   -1.0579    0.9455 C   0  0  0  0  0  0  0  0  0  0  0  0
    1.1210    0.2165    1.2546 C   0  0  0  0  0  0  0  0  0  0  0  0
    0.6593    0.2853    2.7047 C   0  0  0  0  0  0  0  0  0  0  0  0
    1.2833   -1.9430    1.1329 H   0  0  0  0  0  0  0  0  0  0  0  0
    2.2180   -1.0888   -0.0968 H   0  0  0  0  0  0  0  0  0  0  0  0
    2.7871   -1.1352    1.5733 H   0  0  0  0  0  0  0  0  0  0  0  0
    1.7451    1.0858    1.0297 H   0  0  0  0  0  0  0  0  0  0  0  0
    1.5113    0.2503    3.3880 H   0  0  0  0  0  0  0  0  0  0  0  0
    0.1065    1.2043    2.9065 H   0  0  0  0  0  0  0  0  0  0  0  0
    0.0075   -0.5575    2.9475 H   0  0  0  0  0  0  0  0  0  0  0  0
  1  2  2  3
  1  5  1  0
  1  6  1  0
  2  3  1  0
  2  7  1  0
  3  4  1  0
  3  9  1  0
  4 10  1  0
  4 11  1  0
  4 12  1  0
  8 14  1  0
 13 14  1  0
 13 16  1  0
 13 17  1  0
 13 18  1  0
 14 15  1  0
 14 19  1  0
 15 20  1  0
 15 21  1  0
 15 22  1  0
M  RAD  1   3   2
M  END
>  <reaction>  (16) 
rxn_1040

>  <mol_properties>  (16) 
{"1": {"label": "*0", "atom_type": "Cd"}, "2": {"label": "*1", "atom_type": "Cs"}, "7": {"label": "*2", "atom_type": "H0"}, "12": {"label": "*4", "atom_type": "Cs"}, "13": {"label": "*3", "atom_type": "Cs"}}

>  <type>  (16) 
unop_12

>  <geom_source>  (16) 
Heuristics

$$$$

     RDKit          3D

 22 20  0  0  0  0  0  0  0  0999 V2000
   -1.3791   -0.3537    0.5105 C   0  0  0  0  0  0  0  0  0  0  0  0
   -2.1049    0.9870    0.5427 C   0  0  0  0  0  0  0  0  0  0  0  0
   -2.2946   -1.4689    0.0172 C   0  0  0  0  0  0  0  0  0  0  0  0
    1.6250    0.9654   -1.6428 C   0  0  0  0  0  0  0  0  0  0  0  0
    0.9685    0.1457   -0.5387 C   0  0  0  0  0  3  0  0  0  0  0  0
    1.7423    0.2134    0.7460 C   0  0  0  0  0  0  0  0  0  0  0  0
    2.9228   -0.3954    0.8898 C   0  0  0  0  0  0  0  0  0  0  0  0
   -1.0164   -0.6002    1.5317 H   0  0  0  0  0  0  0  0  0  0  0  0
   -0.3735   -0.2654   -0.2652 H   0  0  0  0  0  0  0  0  0  0  0  0
   -2.9764    0.9384    1.2298 H   0  0  0  0  0  0  0  0  0  0  0  0
   -1.4103    1.7745    0.9029 H   0  0  0  0  0  0  0  0  0  0  0  0
   -2.4534    1.2598   -0.4760 H   0  0  0  0  0  0  0  0  0  0  0  0
   -2.6472   -1.2492   -1.0129 H   0  0  0  0  0  0  0  0  0  0  0  0
   -3.1707   -1.5767    0.6916 H   0  0  0  0  0  0  0  0  0  0  0  0
   -1.7349   -2.4275    0.0037 H   0  0  0  0  0  0  0  0  0  0  0  0
    0.9841    0.9385   -2.5484 H   0  0  0  0  0  0  0  0  0  0  0  0
    2.6221    0.5479   -1.8981 H   0  0  0  0  0  0  0  0  0  0  0  0
    1.7374    2.0216   -1.3185 H   0  0  0  0  0  0  0  0  0  0  0  0
    0.8305   -0.9096   -0.8593 H   0  0  0  0  0  0  0  0  0  0  0  0
    1.3109    0.7474    1.5864 H   0  0  0  0  0  0  0  0  0  0  0  0
    3.3674   -0.9534    0.0712 H   0  0  0  0  0  0  0  0  0  0  0  0
    3.4506   -0.3395    1.8362 H   0  0  0  0  0  0  0  0  0  0  0  0
  1  2  1  0
  1  3  1  0
  1  8  1  0
  1  9  1  0
  2 10  1  0
  2 11  1  0
  2 12  1  0
  3 13  1  0
  3 14  1  0
  3 15  1  0
  4  5  1  0
  4 16  1  0
  4 17  1  0
  4 18  1  0
  5  6  1  0
  5 19  1  0
  6  7  2  3
  6 20  1  0
  7 21  1  0
  7 22  1  0
M  RAD  1   5   2
M  END
>  <reaction>  (17) 
rxn_1040

>  <mol_properties>  (17) 
{"1": {"label": "*0", "atom_type": "Cd"}, "2": {"label": "*1", "atom_type": "Cs"}, "7": {"label": "*2", "atom_type": "H0"}, "12": {"label": "*4", "atom_type": "Cs"}, "13": {"label": "*3", "atom_type": "Cs"}}

>  <type>  (17) 
unop_13

>  <geom_source>  (17) 
AutoTST

$$$$
