
     RDKit          3D

  8  7  0  0  0  0  0  0  0  0999 V2000
   -1.0119   -0.1138    0.0343 C   0  0  0  0  0  0  0  0  0  0  0  0
    0.1635    0.6127    0.4537 N   0  0  0  0  0  0  0  0  0  0  0  0
    1.2806    0.2308    0.0237 C   0  0  0  0  0  0  0  0  0  0  0  0
   -1.5282   -0.4917    0.9187 H   0  0  0  0  0  0  0  0  0  0  0  0
   -1.6952    0.5767   -0.4637 H   0  0  0  0  0  0  0  0  0  0  0  0
   -0.7939   -0.9530   -0.6406 H   0  0  0  0  0  0  0  0  0  0  0  0
    2.1799    0.7636    0.3269 H   0  0  0  0  0  0  0  0  0  0  0  0
    1.4052   -0.6254   -0.6530 H   0  0  0  0  0  0  0  0  0  0  0  0
  1  2  1  0
  1  4  1  0
  1  5  1  0
  1  6  1  0
  2  3  2  3
  3  7  1  0
  3  8  1  0
M  END
>  <reaction>  (1) 
rxn_705

>  <mol_properties>  (1) 
{"0": {"label": "donator", "atom_type": "Cs"}, "3": {"label": "d_hydrogen", "atom_type": "H0"}}

>  <type>  (1) 
r1h

$$$$

     RDKit          3D

  3  2  0  0  0  0  0  0  0  0999 V2000
    0.0002    0.4233    0.0000 N   0  0  0  0  0  2  0  0  0  0  0  0
   -0.8051   -0.2112    0.0000 H   0  0  0  0  0  0  0  0  0  0  0  0
    0.8049   -0.2121    0.0000 H   0  0  0  0  0  0  0  0  0  0  0  0
  1  2  1  0
  1  3  1  0
M  RAD  1   1   2
M  END
>  <reaction>  (2) 
rxn_705

>  <mol_properties>  (2) 
{"0": {"label": "acceptor", "atom_type": "N3s"}}

>  <type>  (2) 
r2

$$$$

     RDKit          3D

  4  3  0  0  0  0  0  0  0  0999 V2000
    0.0006   -0.0009    0.2762 N   0  0  0  0  0  0  0  0  0  0  0  0
   -0.4188    0.8439   -0.0883 H   0  0  0  0  0  0  0  0  0  0  0  0
   -0.5215   -0.7840   -0.0936 H   0  0  0  0  0  0  0  0  0  0  0  0
    0.9397   -0.0590   -0.0943 H   0  0  0  0  0  0  0  0  0  0  0  0
  1  2  1  0
  1  3  1  0
  1  4  1  0
M  END
>  <reaction>  (3) 
rxn_705

>  <mol_properties>  (3) 
{"0": {"label": "acceptor", "atom_type": "N3s"}, "3": {"label": "a_hydrogen", "atom_type": "H0"}}

>  <type>  (3) 
r2h

$$$$

     RDKit          3D

 11  9  0  0  0  0  0  0  0  0999 V2000
   -1.5276    0.6516    1.5518 N   0  0  0  0  0  2  0  0  0  0  0  0
   -1.6590   -0.3587    1.4589 H   0  0  0  0  0  0  0  0  0  0  0  0
   -1.1367    0.7636    2.4900 H   0  0  0  0  0  0  0  0  0  0  0  0
    0.6982    0.6094    0.2186 C   0  0  0  0  0  0  0  0  0  0  0  0
    0.6532   -0.6560   -0.4125 N   0  0  0  0  0  0  0  0  0  0  0  0
    0.4310   -0.6990   -1.6554 C   0  0  0  0  0  0  0  0  0  0  0  0
   -0.3918    0.7449    0.8195 H   0  0  0  0  0  0  0  0  0  0  0  0
    1.4551    0.6508    0.9990 H   0  0  0  0  0  0  0  0  0  0  0  0
    0.7247    1.4816   -0.4468 H   0  0  0  0  0  0  0  0  0  0  0  0
    0.3587   -1.6648   -2.1498 H   0  0  0  0  0  0  0  0  0  0  0  0
    0.3105    0.1992   -2.2737 H   0  0  0  0  0  0  0  0  0  0  0  0
  1  2  1  0
  1  3  1  0
  4  5  1  0
  4  7  1  0
  4  8  1  0
  4  9  1  0
  5  6  2  3
  6 10  1  0
  6 11  1  0
M  RAD  1   1   2
M  END
>  <reaction>  (4) 
rxn_705

>  <mol_properties>  (4) 
{"0": {"label": "*3", "atom_type": "N3s"}, "1": {"label": "*4", "atom_type": "H0"}, "3": {"label": "*1", "atom_type": "Cs"}, "4": {"label": "*0", "atom_type": "N3d"}, "6": {"label": "*2", "atom_type": "H0"}}

>  <type>  (4) 
ts

$$$$

     RDKit          3D

 11  9  0  0  0  0  0  0  0  0999 V2000
   -1.4828    0.6625    1.7076 N   0  0  0  0  0  0  0  0  0  0  0  0
   -1.1545    0.7844    2.6562 H   0  0  0  0  0  0  0  0  0  0  0  0
   -1.3755    1.6021    1.3495 H   0  0  0  0  0  0  0  0  0  0  0  0
    0.5458    0.5353    0.2121 C   0  0  0  0  0  0  0  0  0  0  0  0
    0.5458   -0.7383   -0.4686 N   0  0  0  0  0  0  0  0  0  0  0  0
    0.5458   -0.7383   -1.7250 C   0  0  0  0  0  3  0  0  0  0  0  0
   -0.5073    0.6013    0.9885 H   0  0  0  0  0  0  0  0  0  0  0  0
    1.4233    0.5903    0.8591 H   0  0  0  0  0  0  0  0  0  0  0  0
    0.5458    1.3984   -0.4677 H   0  0  0  0  0  0  0  0  0  0  0  0
    0.5458   -1.6867   -2.2589 H   0  0  0  0  0  0  0  0  0  0  0  0
    0.5458    0.1801   -2.3276 H   0  0  0  0  0  0  0  0  0  0  0  0
  1  2  1  0
  1  3  1  0
  1  7  1  0
  4  5  2  3
  4  8  1  0
  4  9  1  0
  5  6  1  0
  6 10  1  0
  6 11  1  0
M  RAD  1   6   2
M  END
>  <reaction>  (5) 
rxn_705

>  <mol_properties>  (5) 
{"0": {"label": "*3", "atom_type": "N3s"}, "1": {"label": "*4", "atom_type": "H0"}, "3": {"label": "*1", "atom_type": "Cs"}, "4": {"label": "*0", "atom_type": "N3d"}, "6": {"label": "*2", "atom_type": "H0"}}

>  <type>  (5) 
unop_1

>  <geom_source>  (5) 
Heuristics

$$$$

     RDKit          3D

 11  9  0  0  0  0  0  0  0  0999 V2000
   -1.4840    0.6880    1.7043 N   0  0  0  0  0  0  0  0  0  0  0  0
   -1.7043   -0.2538    1.9993 H   0  0  0  0  0  0  0  0  0  0  0  0
   -0.7565    1.1929    2.1926 H   0  0  0  0  0  0  0  0  0  0  0  0
    0.5445    0.5609    0.2088 C   0  0  0  0  0  0  0  0  0  0  0  0
    0.5445   -0.7127   -0.4719 N   0  0  0  0  0  0  0  0  0  0  0  0
    0.5445   -0.7127   -1.7283 C   0  0  0  0  0  3  0  0  0  0  0  0
   -0.5085    0.6269    0.9852 H   0  0  0  0  0  0  0  0  0  0  0  0
    1.4221    0.6159    0.8558 H   0  0  0  0  0  0  0  0  0  0  0  0
    0.5445    1.4240   -0.4710 H   0  0  0  0  0  0  0  0  0  0  0  0
    0.5445   -1.6611   -2.2621 H   0  0  0  0  0  0  0  0  0  0  0  0
    0.5445    0.2057   -2.3309 H   0  0  0  0  0  0  0  0  0  0  0  0
  1  2  1  0
  1  3  1  0
  1  7  1  0
  4  5  2  3
  4  8  1  0
  4  9  1  0
  5  6  1  0
  6 10  1  0
  6 11  1  0
M  RAD  1   6   2
M  END
>  <reaction>  (6) 
rxn_705

>  <mol_properties>  (6) 
{"0": {"label": "*3", "atom_type": "N3s"}, "1": {"label": "*4", "atom_type": "H0"}, "3": {"label": "*1", "atom_type": "Cs"}, "4": {"label": "*0", "atom_type": "N3d"}, "6": {"label": "*2", "atom_type": "H0"}}

>  <type>  (6) 
unop_2

>  <geom_source>  (6) 
Heuristics

$$$$

     RDKit          3D

 11  9  0  0  0  0  0  0  0  0999 V2000
   -1.4734    0.6572    1.7132 N   0  0  0  0  0  0  0  0  0  0  0  0
   -1.2341    1.2434    2.5016 H   0  0  0  0  0  0  0  0  0  0  0  0
   -1.8277    1.4430    1.1845 H   0  0  0  0  0  0  0  0  0  0  0  0
    0.5552    0.5300    0.2178 C   0  0  0  0  0  0  0  0  0  0  0  0
    0.5552   -0.7436   -0.4629 N   0  0  0  0  0  0  0  0  0  0  0  0
    0.5552   -0.7436   -1.7194 C   0  0  0  0  0  3  0  0  0  0  0  0
   -0.4979    0.5960    0.9941 H   0  0  0  0  0  0  0  0  0  0  0  0
    1.4327    0.5850    0.8647 H   0  0  0  0  0  0  0  0  0  0  0  0
    0.5552    1.3931   -0.4620 H   0  0  0  0  0  0  0  0  0  0  0  0
    0.5552   -1.6920   -2.2532 H   0  0  0  0  0  0  0  0  0  0  0  0
    0.5552    0.1749   -2.3220 H   0  0  0  0  0  0  0  0  0  0  0  0
  1  2  1  0
  1  3  1  0
  1  7  1  0
  4  5  2  3
  4  8  1  0
  4  9  1  0
  5  6  1  0
  6 10  1  0
  6 11  1  0
M  RAD  1   6   2
M  END
>  <reaction>  (7) 
rxn_705

>  <mol_properties>  (7) 
{"0": {"label": "*3", "atom_type": "N3s"}, "1": {"label": "*4", "atom_type": "H0"}, "3": {"label": "*1", "atom_type": "Cs"}, "4": {"label": "*0", "atom_type": "N3d"}, "6": {"label": "*2", "atom_type": "H0"}}

>  <type>  (7) 
unop_3

>  <geom_source>  (7) 
Heuristics

$$$$

     RDKit          3D

 11  9  0  0  0  0  0  0  0  0999 V2000
   -1.4606    0.6902    1.7125 N   0  0  0  0  0  0  0  0  0  0  0  0
   -2.2783    0.5989    1.1246 H   0  0  0  0  0  0  0  0  0  0  0  0
   -1.5103    0.2173    2.6049 H   0  0  0  0  0  0  0  0  0  0  0  0
    0.5680    0.5630    0.2170 C   0  0  0  0  0  0  0  0  0  0  0  0
    0.5680   -0.7105   -0.4637 N   0  0  0  0  0  0  0  0  0  0  0  0
    0.5680   -0.7105   -1.7202 C   0  0  0  0  0  3  0  0  0  0  0  0
   -0.4851    0.6290    0.9933 H   0  0  0  0  0  0  0  0  0  0  0  0
    1.4456    0.6180    0.8639 H   0  0  0  0  0  0  0  0  0  0  0  0
    0.5680    1.4262   -0.4628 H   0  0  0  0  0  0  0  0  0  0  0  0
    0.5680   -1.6589   -2.2540 H   0  0  0  0  0  0  0  0  0  0  0  0
    0.5680    0.2079   -2.3227 H   0  0  0  0  0  0  0  0  0  0  0  0
  1  2  1  0
  1  3  1  0
  1  7  1  0
  4  5  2  3
  4  8  1  0
  4  9  1  0
  5  6  1  0
  6 10  1  0
  6 11  1  0
M  RAD  1   6   2
M  END
>  <reaction>  (8) 
rxn_705

>  <mol_properties>  (8) 
{"0": {"label": "*3", "atom_type": "N3s"}, "1": {"label": "*4", "atom_type": "H0"}, "3": {"label": "*1", "atom_type": "Cs"}, "4": {"label": "*0", "atom_type": "N3d"}, "6": {"label": "*2", "atom_type": "H0"}}

>  <type>  (8) 
unop_4

>  <geom_source>  (8) 
Heuristics

$$$$

     RDKit          3D

 11  9  0  0  0  0  0  0  0  0999 V2000
   -1.4605    0.6609    1.7164 N   0  0  0  0  0  0  0  0  0  0  0  0
   -1.4399    1.5585    2.1817 H   0  0  0  0  0  0  0  0  0  0  0  0
   -2.3555    0.9185    1.3225 H   0  0  0  0  0  0  0  0  0  0  0  0
    0.5681    0.5337    0.2210 C   0  0  0  0  0  0  0  0  0  0  0  0
    0.5681   -0.7399   -0.4597 N   0  0  0  0  0  0  0  0  0  0  0  0
    0.5681   -0.7399   -1.7162 C   0  0  0  0  0  3  0  0  0  0  0  0
   -0.4850    0.5997    0.9973 H   0  0  0  0  0  0  0  0  0  0  0  0
    1.4457    0.5887    0.8679 H   0  0  0  0  0  0  0  0  0  0  0  0
    0.5681    1.3968   -0.4588 H   0  0  0  0  0  0  0  0  0  0  0  0
    0.5681   -1.6883   -2.2500 H   0  0  0  0  0  0  0  0  0  0  0  0
    0.5681    0.1786   -2.3188 H   0  0  0  0  0  0  0  0  0  0  0  0
  1  2  1  0
  1  3  1  0
  1  7  1  0
  4  5  2  3
  4  8  1  0
  4  9  1  0
  5  6  1  0
  6 10  1  0
  6 11  1  0
M  RAD  1   6   2
M  END
>  <reaction>  (9) 
rxn_705

>  <mol_properties>  (9) 
{"0": {"label": "*3", "atom_type": "N3s"}, "1": {"label": "*4", "atom_type": "H0"}, "3": {"label": "*1", "atom_type": "Cs"}, "4": {"label": "*0", "atom_type": "N3d"}, "6": {"label": "*2", "atom_type": "H0"}}

>  <type>  (9) 
unop_5

>  <geom_source>  (9) 
Heuristics

$$$$

     RDKit          3D

 11  9  0  0  0  0  0  0  0  0999 V2000
   -1.4559    0.6833    1.7142 N   0  0  0  0  0  0  0  0  0  0  0  0
   -2.2091    1.0849    1.1720 H   0  0  0  0  0  0  0  0  0  0  0  0
   -1.8447    0.1206    2.4590 H   0  0  0  0  0  0  0  0  0  0  0  0
    0.5727    0.5562    0.2188 C   0  0  0  0  0  0  0  0  0  0  0  0
    0.5727   -0.7174   -0.4620 N   0  0  0  0  0  0  0  0  0  0  0  0
    0.5727   -0.7174   -1.7184 C   0  0  0  0  0  3  0  0  0  0  0  0
   -0.4804    0.6222    0.9951 H   0  0  0  0  0  0  0  0  0  0  0  0
    1.4502    0.6112    0.8657 H   0  0  0  0  0  0  0  0  0  0  0  0
    0.5727    1.4193   -0.4611 H   0  0  0  0  0  0  0  0  0  0  0  0
    0.5727   -1.6658   -2.2522 H   0  0  0  0  0  0  0  0  0  0  0  0
    0.5727    0.2010   -2.3210 H   0  0  0  0  0  0  0  0  0  0  0  0
  1  2  1  0
  1  3  1  0
  1  7  1  0
  4  5  2  3
  4  8  1  0
  4  9  1  0
  5  6  1  0
  6 10  1  0
  6 11  1  0
M  RAD  1   6   2
M  END
>  <reaction>  (10) 
rxn_705

>  <mol_properties>  (10) 
{"0": {"label": "*3", "atom_type": "N3s"}, "1": {"label": "*4", "atom_type": "H0"}, "3": {"label": "*1", "atom_type": "Cs"}, "4": {"label": "*0", "atom_type": "N3d"}, "6": {"label": "*2", "atom_type": "H0"}}

>  <type>  (10) 
unop_6

>  <geom_source>  (10) 
Heuristics

$$$$

     RDKit          3D

 11  9  0  0  0  0  0  0  0  0999 V2000
   -1.4541    0.6762    1.7142 N   0  0  0  0  0  0  0  0  0  0  0  0
   -2.0065    1.4671    1.4113 H   0  0  0  0  0  0  0  0  0  0  0  0
   -2.1501    0.1432    2.2183 H   0  0  0  0  0  0  0  0  0  0  0  0
    0.5745    0.5490    0.2188 C   0  0  0  0  0  0  0  0  0  0  0  0
    0.5745   -0.7246   -0.4619 N   0  0  0  0  0  0  0  0  0  0  0  0
    0.5745   -0.7246   -1.7184 C   0  0  0  0  0  3  0  0  0  0  0  0
   -0.4786    0.6150    0.9951 H   0  0  0  0  0  0  0  0  0  0  0  0
    1.4521    0.6040    0.8657 H   0  0  0  0  0  0  0  0  0  0  0  0
    0.5745    1.4122   -0.4611 H   0  0  0  0  0  0  0  0  0  0  0  0
    0.5745   -1.6730   -2.2522 H   0  0  0  0  0  0  0  0  0  0  0  0
    0.5745    0.1939   -2.3210 H   0  0  0  0  0  0  0  0  0  0  0  0
  1  2  1  0
  1  3  1  0
  1  7  1  0
  4  5  2  3
  4  8  1  0
  4  9  1  0
  5  6  1  0
  6 10  1  0
  6 11  1  0
M  RAD  1   6   2
M  END
>  <reaction>  (11) 
rxn_705

>  <mol_properties>  (11) 
{"0": {"label": "*3", "atom_type": "N3s"}, "1": {"label": "*4", "atom_type": "H0"}, "3": {"label": "*1", "atom_type": "Cs"}, "4": {"label": "*0", "atom_type": "N3d"}, "6": {"label": "*2", "atom_type": "H0"}}

>  <type>  (11) 
unop_7

>  <geom_source>  (11) 
Heuristics

$$$$

     RDKit          3D

 11  9  0  0  0  0  0  0  0  0999 V2000
   -1.4870    0.6713    1.7043 N   0  0  0  0  0  0  0  0  0  0  0  0
   -1.2232    0.3004    2.6073 H   0  0  0  0  0  0  0  0  0  0  0  0
   -1.0704    1.5849    1.5847 H   0  0  0  0  0  0  0  0  0  0  0  0
    0.5416    0.5441    0.2088 C   0  0  0  0  0  0  0  0  0  0  0  0
    0.5416   -0.7294   -0.4719 N   0  0  0  0  0  0  0  0  0  0  0  0
    0.5416   -0.7294   -1.7283 C   0  0  0  0  0  3  0  0  0  0  0  0
   -0.5115    0.6102    0.9852 H   0  0  0  0  0  0  0  0  0  0  0  0
    1.4191    0.5992    0.8558 H   0  0  0  0  0  0  0  0  0  0  0  0
    0.5416    1.4073   -0.4710 H   0  0  0  0  0  0  0  0  0  0  0  0
    0.5416   -1.6778   -2.2622 H   0  0  0  0  0  0  0  0  0  0  0  0
    0.5416    0.1890   -2.3309 H   0  0  0  0  0  0  0  0  0  0  0  0
  1  2  1  0
  1  3  1  0
  1  7  1  0
  4  5  2  3
  4  8  1  0
  4  9  1  0
  5  6  1  0
  6 10  1  0
  6 11  1  0
M  RAD  1   6   2
M  END
>  <reaction>  (12) 
rxn_705

>  <mol_properties>  (12) 
{"0": {"label": "*3", "atom_type": "N3s"}, "1": {"label": "*4", "atom_type": "H0"}, "3": {"label": "*1", "atom_type": "Cs"}, "4": {"label": "*0", "atom_type": "N3d"}, "6": {"label": "*2", "atom_type": "H0"}}

>  <type>  (12) 
unop_8

>  <geom_source>  (12) 
Heuristics

$$$$

     RDKit          3D

 11  9  0  0  0  0  0  0  0  0999 V2000
   -1.4684    0.6943    1.7091 N   0  0  0  0  0  0  0  0  0  0  0  0
   -2.1971    0.1387    1.2815 H   0  0  0  0  0  0  0  0  0  0  0  0
   -1.1505    0.4482    2.6370 H   0  0  0  0  0  0  0  0  0  0  0  0
    0.5602    0.5671    0.2137 C   0  0  0  0  0  0  0  0  0  0  0  0
    0.5602   -0.7065   -0.4671 N   0  0  0  0  0  0  0  0  0  0  0  0
    0.5602   -0.7065   -1.7235 C   0  0  0  0  0  3  0  0  0  0  0  0
   -0.4929    0.6331    0.9900 H   0  0  0  0  0  0  0  0  0  0  0  0
    1.4378    0.6221    0.8606 H   0  0  0  0  0  0  0  0  0  0  0  0
    0.5602    1.4302   -0.4662 H   0  0  0  0  0  0  0  0  0  0  0  0
    0.5602   -1.6549   -2.2573 H   0  0  0  0  0  0  0  0  0  0  0  0
    0.5602    0.2119   -2.3261 H   0  0  0  0  0  0  0  0  0  0  0  0
  1  2  1  0
  1  3  1  0
  1  7  1  0
  4  5  2  3
  4  8  1  0
  4  9  1  0
  5  6  1  0
  6 10  1  0
  6 11  1  0
M  RAD  1   6   2
M  END
>  <reaction>  (13) 
rxn_705

>  <mol_properties>  (13) 
{"0": {"label": "*3", "atom_type": "N3s"}, "1": {"label": "*4", "atom_type": "H0"}, "3": {"label": "*1", "atom_type": "Cs"}, "4": {"label": "*0", "atom_type": "N3d"}, "6": {"label": "*2", "atom_type": "H0"}}

>  <type>  (13) 
unop_9

>  <geom_source>  (13) 
Heuristics

$$$$

     RDKit          3D

 11  9  0  0  0  0  0  0  0  0999 V2000
   -1.4872    0.6803    1.7036 N   0  0  0  0  0  0  0  0  0  0  0  0
   -1.4242   -0.0799    2.3673 H   0  0  0  0  0  0  0  0  0  0  0  0
   -0.8568    1.4542    1.8661 H   0  0  0  0  0  0  0  0  0  0  0  0
    0.5414    0.5532    0.2081 C   0  0  0  0  0  0  0  0  0  0  0  0
    0.5414   -0.7204   -0.4726 N   0  0  0  0  0  0  0  0  0  0  0  0
    0.5414   -0.7204   -1.7291 C   0  0  0  0  0  3  0  0  0  0  0  0
   -0.5117    0.6192    0.9844 H   0  0  0  0  0  0  0  0  0  0  0  0
    1.4189    0.6082    0.8550 H   0  0  0  0  0  0  0  0  0  0  0  0
    0.5414    1.4163   -0.4717 H   0  0  0  0  0  0  0  0  0  0  0  0
    0.5414   -1.6688   -2.2629 H   0  0  0  0  0  0  0  0  0  0  0  0
    0.5414    0.1980   -2.3316 H   0  0  0  0  0  0  0  0  0  0  0  0
  1  2  1  0
  1  3  1  0
  1  7  1  0
  4  5  2  3
  4  8  1  0
  4  9  1  0
  5  6  1  0
  6 10  1  0
  6 11  1  0
M  RAD  1   6   2
M  END
>  <reaction>  (14) 
rxn_705

>  <mol_properties>  (14) 
{"0": {"label": "*3", "atom_type": "N3s"}, "1": {"label": "*4", "atom_type": "H0"}, "3": {"label": "*1", "atom_type": "Cs"}, "4": {"label": "*0", "atom_type": "N3d"}, "6": {"label": "*2", "atom_type": "H0"}}

>  <type>  (14) 
unop_10

>  <geom_source>  (14) 
Heuristics

$$$$

     RDKit          3D

 11  9  0  0  0  0  0  0  0  0999 V2000
   -1.4545    0.6693    1.7146 N   0  0  0  0  0  0  0  0  0  0  0  0
   -1.7237    1.6419    1.7804 H   0  0  0  0  0  0  0  0  0  0  0  0
   -2.4088    0.3553    1.8297 H   0  0  0  0  0  0  0  0  0  0  0  0
    0.5741    0.5422    0.2191 C   0  0  0  0  0  0  0  0  0  0  0  0
    0.5741   -0.7314   -0.4616 N   0  0  0  0  0  0  0  0  0  0  0  0
    0.5741   -0.7314   -1.7181 C   0  0  0  0  0  3  0  0  0  0  0  0
   -0.4790    0.6082    0.9954 H   0  0  0  0  0  0  0  0  0  0  0  0
    1.4516    0.5972    0.8661 H   0  0  0  0  0  0  0  0  0  0  0  0
    0.5741    1.4053   -0.4607 H   0  0  0  0  0  0  0  0  0  0  0  0
    0.5741   -1.6798   -2.2519 H   0  0  0  0  0  0  0  0  0  0  0  0
    0.5741    0.1870   -2.3206 H   0  0  0  0  0  0  0  0  0  0  0  0
  1  2  1  0
  1  3  1  0
  1  7  1  0
  4  5  2  3
  4  8  1  0
  4  9  1  0
  5  6  1  0
  6 10  1  0
  6 11  1  0
M  RAD  1   6   2
M  END
>  <reaction>  (15) 
rxn_705

>  <mol_properties>  (15) 
{"0": {"label": "*3", "atom_type": "N3s"}, "1": {"label": "*4", "atom_type": "H0"}, "3": {"label": "*1", "atom_type": "Cs"}, "4": {"label": "*0", "atom_type": "N3d"}, "6": {"label": "*2", "atom_type": "H0"}}

>  <type>  (15) 
unop_11

>  <geom_source>  (15) 
Heuristics

$$$$

     RDKit          3D

 11  9  0  0  0  0  0  0  0  0999 V2000
   -1.4773    0.6933    1.7060 N   0  0  0  0  0  0  0  0  0  0  0  0
   -1.9874   -0.1736    1.6015 H   0  0  0  0  0  0  0  0  0  0  0  0
   -0.8535    0.8136    2.4927 H   0  0  0  0  0  0  0  0  0  0  0  0
    0.5513    0.5661    0.2106 C   0  0  0  0  0  0  0  0  0  0  0  0
    0.5513   -0.7074   -0.4702 N   0  0  0  0  0  0  0  0  0  0  0  0
    0.5513   -0.7074   -1.7266 C   0  0  0  0  0  3  0  0  0  0  0  0
   -0.5018    0.6322    0.9869 H   0  0  0  0  0  0  0  0  0  0  0  0
    1.4288    0.6212    0.8575 H   0  0  0  0  0  0  0  0  0  0  0  0
    0.5513    1.4293   -0.4693 H   0  0  0  0  0  0  0  0  0  0  0  0
    0.5513   -1.6558   -2.2604 H   0  0  0  0  0  0  0  0  0  0  0  0
    0.5513    0.2110   -2.3292 H   0  0  0  0  0  0  0  0  0  0  0  0
  1  2  1  0
  1  3  1  0
  1  7  1  0
  4  5  2  3
  4  8  1  0
  4  9  1  0
  5  6  1  0
  6 10  1  0
  6 11  1  0
M  RAD  1   6   2
M  END
>  <reaction>  (16) 
rxn_705

>  <mol_properties>  (16) 
{"0": {"label": "*3", "atom_type": "N3s"}, "1": {"label": "*4", "atom_type": "H0"}, "3": {"label": "*1", "atom_type": "Cs"}, "4": {"label": "*0", "atom_type": "N3d"}, "6": {"label": "*2", "atom_type": "H0"}}

>  <type>  (16) 
unop_12

>  <geom_source>  (16) 
Heuristics

$$$$
