
     RDKit          3D

 10  9  0  0  0  0  0  0  0  0999 V2000
   -1.0989    0.2495   -0.1782 C   0  0  0  0  0  0  0  0  0  0  0  0
    0.1603   -0.4979    0.2013 C   0  0  0  0  0  0  0  0  0  0  0  0
    1.1961   -0.9467   -1.2394 S   0  0  0  0  0  0  0  0  0  0  0  0
   -0.2201   -1.6155    0.9575 O   0  0  0  0  0  0  0  0  0  0  0  0
   -1.7398   -0.3820   -0.7953 H   0  0  0  0  0  0  0  0  0  0  0  0
   -0.8561    1.1556   -0.7305 H   0  0  0  0  0  0  0  0  0  0  0  0
   -1.6486    0.5163    0.7257 H   0  0  0  0  0  0  0  0  0  0  0  0
    0.8242    0.1583    0.7771 H   0  0  0  0  0  0  0  0  0  0  0  0
    0.2423   -1.6274   -1.8911 H   0  0  0  0  0  0  0  0  0  0  0  0
    0.5568   -2.1556    1.1170 H   0  0  0  0  0  0  0  0  0  0  0  0
  1  2  1  0
  1  5  1  0
  1  6  1  0
  1  7  1  0
  2  4  1  0
  2  3  1  0
  2  8  1  0
  3  9  1  0
  4 10  1  0
M  END
>  <reaction>  (1) 
rxn_476

>  <mol_properties>  (1) 
{"1": {"label": "donator", "atom_type": "Cs"}, "7": {"label": "d_hydrogen", "atom_type": "H0"}}

>  <type>  (1) 
r1h

$$$$

     RDKit          3D

  4  3  0  0  0  0  0  0  0  0999 V2000
    0.0000    0.0000    0.0000 C   0  0  0  0  0  3  0  0  0  0  0  0
    1.0638   -0.1747    0.0540 H   0  0  0  0  0  0  0  0  0  0  0  0
   -0.6833   -0.8351   -0.0280 H   0  0  0  0  0  0  0  0  0  0  0  0
   -0.3805    1.0098   -0.0260 H   0  0  0  0  0  0  0  0  0  0  0  0
  1  2  1  0
  1  3  1  0
  1  4  1  0
M  RAD  1   1   2
M  END
>  <reaction>  (2) 
rxn_476

>  <mol_properties>  (2) 
{"0": {"label": "acceptor", "atom_type": "Cs"}}

>  <type>  (2) 
r2

$$$$

     RDKit          3D

  5  4  0  0  0  0  0  0  0  0999 V2000
    0.0000    0.0000    0.0000 C   0  0  0  0  0  0  0  0  0  0  0  0
   -0.6486   -0.7720   -0.4113 H   0  0  0  0  0  0  0  0  0  0  0  0
   -0.3482    0.9787   -0.3267 H   0  0  0  0  0  0  0  0  0  0  0  0
   -0.0223   -0.0487    1.0876 H   0  0  0  0  0  0  0  0  0  0  0  0
    1.0191   -0.1580   -0.3496 H   0  0  0  0  0  0  0  0  0  0  0  0
  1  2  1  0
  1  3  1  0
  1  4  1  0
  1  5  1  0
M  END
>  <reaction>  (3) 
rxn_476

>  <mol_properties>  (3) 
{"0": {"label": "a_hydrogen", "atom_type": "H0"}, "1": {"label": "acceptor", "atom_type": "Cs"}}

>  <type>  (3) 
r2h

$$$$

     RDKit          3D

 14 12  0  0  0  0  0  0  0  0999 V2000
    0.1588    0.2215   -1.7359 C   0  0  0  0  0  0  0  0  0  0  0  0
    0.0778    0.3372   -0.2387 C   0  0  0  0  0  0  0  0  0  0  0  0
   -1.2908   -0.5499    0.5464 S   0  0  0  0  0  0  0  0  0  0  0  0
    0.1731    1.6690    0.1295 O   0  0  0  0  0  0  0  0  0  0  0  0
   -0.7018    0.7030   -2.2075 H   0  0  0  0  0  0  0  0  0  0  0  0
    0.1841   -0.8250   -2.0347 H   0  0  0  0  0  0  0  0  0  0  0  0
    1.0643    0.7172   -2.0898 H   0  0  0  0  0  0  0  0  0  0  0  0
    1.0775   -0.2966    0.2307 H   0  0  0  0  0  0  0  0  0  0  0  0
   -2.2859    0.0912   -0.0889 H   0  0  0  0  0  0  0  0  0  0  0  0
    0.0098    1.7384    1.0733 H   0  0  0  0  0  0  0  0  0  0  0  0
    2.2663   -0.9325    0.7378 C   0  0  0  0  0  3  0  0  0  0  0  0
    3.0367   -0.1906    0.5547 H   0  0  0  0  0  0  0  0  0  0  0  0
    2.3569   -1.8362    0.1441 H   0  0  0  0  0  0  0  0  0  0  0  0
    2.0448   -1.1051    1.7864 H   0  0  0  0  0  0  0  0  0  0  0  0
  1  2  1  0
  1  5  1  0
  1  6  1  0
  1  7  1  0
  2  4  1  0
  2  3  1  0
  2  8  1  0
  3  9  1  0
  4 10  1  0
 11 12  1  0
 11 13  1  0
 11 14  1  0
M  RAD  1  11   2
M  END
>  <reaction>  (4) 
rxn_476

>  <mol_properties>  (4) 
{"1": {"label": "*1", "atom_type": "Cs"}, "2": {"label": "*0", "atom_type": "S2s"}, "7": {"label": "*2", "atom_type": "H0"}, "10": {"label": "*3", "atom_type": "Cs"}, "11": {"label": "*4", "atom_type": "H0"}}

>  <type>  (4) 
ts

$$$$

     RDKit          3D

 14 12  0  0  0  0  0  0  0  0999 V2000
    0.1418    0.3070   -1.7533 C   0  0  0  0  0  0  0  0  0  0  0  0
    0.1418    0.3070   -0.2407 C   0  0  0  0  0  3  0  0  0  0  0  0
   -1.2356   -0.6579    0.4817 S   0  0  0  0  0  0  0  0  0  0  0  0
    0.1418    1.6429    0.1846 O   0  0  0  0  0  0  0  0  0  0  0  0
   -0.7620    0.7884   -2.1298 H   0  0  0  0  0  0  0  0  0  0  0  0
    0.1881   -0.7106   -2.1375 H   0  0  0  0  0  0  0  0  0  0  0  0
    1.0050    0.8673   -2.1159 H   0  0  0  0  0  0  0  0  0  0  0  0
    1.2030   -0.3301    0.2068 H   0  0  0  0  0  0  0  0  0  0  0  0
   -2.2170    0.0120   -0.1395 H   0  0  0  0  0  0  0  0  0  0  0  0
    0.0365    1.6602    1.1382 H   0  0  0  0  0  0  0  0  0  0  0  0
    2.2565   -0.9626    0.6511 C   0  0  0  0  0  0  0  0  0  0  0  0
    2.8572   -0.2861    1.2573 H   0  0  0  0  0  0  0  0  0  0  0  0
    2.8762   -1.7897    0.3080 H   0  0  0  0  0  0  0  0  0  0  0  0
    1.5160   -1.2634    1.3906 H   0  0  0  0  0  0  0  0  0  0  0  0
  1  2  1  0
  1  5  1  0
  1  6  1  0
  1  7  1  0
  2  4  1  0
  2  3  1  0
  3  9  1  0
  4 10  1  0
  8 11  1  0
 11 12  1  0
 11 13  1  0
 11 14  1  0
M  RAD  1   2   2
M  END
>  <reaction>  (5) 
rxn_476

>  <mol_properties>  (5) 
{"1": {"label": "*1", "atom_type": "Cs"}, "2": {"label": "*0", "atom_type": "S2s"}, "7": {"label": "*2", "atom_type": "H0"}, "10": {"label": "*3", "atom_type": "Cs"}, "11": {"label": "*4", "atom_type": "H0"}}

>  <type>  (5) 
unop_1

>  <geom_source>  (5) 
Heuristics

$$$$

     RDKit          3D

 14 12  0  0  0  0  0  0  0  0999 V2000
    0.1428    0.3059   -1.7478 C   0  0  0  0  0  0  0  0  0  0  0  0
    0.1428    0.3059   -0.2352 C   0  0  0  0  0  3  0  0  0  0  0  0
   -1.2346   -0.6590    0.4872 S   0  0  0  0  0  0  0  0  0  0  0  0
    0.1428    1.6418    0.1901 O   0  0  0  0  0  0  0  0  0  0  0  0
   -0.7610    0.7872   -2.1243 H   0  0  0  0  0  0  0  0  0  0  0  0
    0.1891   -0.7117   -2.1320 H   0  0  0  0  0  0  0  0  0  0  0  0
    1.0059    0.8662   -2.1104 H   0  0  0  0  0  0  0  0  0  0  0  0
    1.2039   -0.3312    0.2123 H   0  0  0  0  0  0  0  0  0  0  0  0
   -2.2160    0.0109   -0.1340 H   0  0  0  0  0  0  0  0  0  0  0  0
    0.0374    1.6591    1.1437 H   0  0  0  0  0  0  0  0  0  0  0  0
    2.2575   -0.9637    0.6566 C   0  0  0  0  0  0  0  0  0  0  0  0
    3.0736   -0.8548   -0.0561 H   0  0  0  0  0  0  0  0  0  0  0  0
    2.2320   -1.9879    1.0255 H   0  0  0  0  0  0  0  0  0  0  0  0
    1.8565   -0.3973    1.4958 H   0  0  0  0  0  0  0  0  0  0  0  0
  1  2  1  0
  1  5  1  0
  1  6  1  0
  1  7  1  0
  2  4  1  0
  2  3  1  0
  3  9  1  0
  4 10  1  0
  8 11  1  0
 11 12  1  0
 11 13  1  0
 11 14  1  0
M  RAD  1   2   2
M  END
>  <reaction>  (6) 
rxn_476

>  <mol_properties>  (6) 
{"1": {"label": "*1", "atom_type": "Cs"}, "2": {"label": "*0", "atom_type": "S2s"}, "7": {"label": "*2", "atom_type": "H0"}, "10": {"label": "*3", "atom_type": "Cs"}, "11": {"label": "*4", "atom_type": "H0"}}

>  <type>  (6) 
unop_2

>  <geom_source>  (6) 
Heuristics

$$$$

     RDKit          3D

 14 12  0  0  0  0  0  0  0  0999 V2000
    0.1407    0.3095   -1.7526 C   0  0  0  0  0  0  0  0  0  0  0  0
    0.1407    0.3095   -0.2400 C   0  0  0  0  0  3  0  0  0  0  0  0
   -1.2367   -0.6554    0.4824 S   0  0  0  0  0  0  0  0  0  0  0  0
    0.1407    1.6454    0.1853 O   0  0  0  0  0  0  0  0  0  0  0  0
   -0.7631    0.7909   -2.1291 H   0  0  0  0  0  0  0  0  0  0  0  0
    0.1870   -0.7081   -2.1368 H   0  0  0  0  0  0  0  0  0  0  0  0
    1.0038    0.8698   -2.1152 H   0  0  0  0  0  0  0  0  0  0  0  0
    1.2018   -0.3276    0.2075 H   0  0  0  0  0  0  0  0  0  0  0  0
   -2.2181    0.0145   -0.1388 H   0  0  0  0  0  0  0  0  0  0  0  0
    0.0353    1.6627    1.1389 H   0  0  0  0  0  0  0  0  0  0  0  0
    2.2554   -0.9601    0.6518 C   0  0  0  0  0  0  0  0  0  0  0  0
    2.5531   -0.5400    1.6114 H   0  0  0  0  0  0  0  0  0  0  0  0
    3.1386   -1.3082    0.1183 H   0  0  0  0  0  0  0  0  0  0  0  0
    1.6582   -1.7138    1.1628 H   0  0  0  0  0  0  0  0  0  0  0  0
  1  2  1  0
  1  5  1  0
  1  6  1  0
  1  7  1  0
  2  4  1  0
  2  3  1  0
  3  9  1  0
  4 10  1  0
  8 11  1  0
 11 12  1  0
 11 13  1  0
 11 14  1  0
M  RAD  1   2   2
M  END
>  <reaction>  (7) 
rxn_476

>  <mol_properties>  (7) 
{"1": {"label": "*1", "atom_type": "Cs"}, "2": {"label": "*0", "atom_type": "S2s"}, "7": {"label": "*2", "atom_type": "H0"}, "10": {"label": "*3", "atom_type": "Cs"}, "11": {"label": "*4", "atom_type": "H0"}}

>  <type>  (7) 
unop_3

>  <geom_source>  (7) 
Heuristics

$$$$

     RDKit          3D

 14 12  0  0  0  0  0  0  0  0999 V2000
    0.1435    0.3058   -1.7504 C   0  0  0  0  0  0  0  0  0  0  0  0
    0.1435    0.3058   -0.2377 C   0  0  0  0  0  3  0  0  0  0  0  0
   -1.2339   -0.6590    0.4846 S   0  0  0  0  0  0  0  0  0  0  0  0
    0.1435    1.6417    0.1876 O   0  0  0  0  0  0  0  0  0  0  0  0
   -0.7603    0.7872   -2.1268 H   0  0  0  0  0  0  0  0  0  0  0  0
    0.1898   -0.7117   -2.1345 H   0  0  0  0  0  0  0  0  0  0  0  0
    1.0067    0.8662   -2.1129 H   0  0  0  0  0  0  0  0  0  0  0  0
    1.2046   -0.3312    0.2098 H   0  0  0  0  0  0  0  0  0  0  0  0
   -2.2153    0.0109   -0.1366 H   0  0  0  0  0  0  0  0  0  0  0  0
    0.0382    1.6591    1.1412 H   0  0  0  0  0  0  0  0  0  0  0  0
    2.2582   -0.9637    0.6541 C   0  0  0  0  0  0  0  0  0  0  0  0
    2.2429   -1.9915    0.2947 H   0  0  0  0  0  0  0  0  0  0  0  0
    1.7130   -0.8998    1.5945 H   0  0  0  0  0  0  0  0  0  0  0  0
    3.1418   -0.3450    0.8035 H   0  0  0  0  0  0  0  0  0  0  0  0
  1  2  1  0
  1  5  1  0
  1  6  1  0
  1  7  1  0
  2  4  1  0
  2  3  1  0
  3  9  1  0
  4 10  1  0
  8 11  1  0
 11 12  1  0
 11 13  1  0
 11 14  1  0
M  RAD  1   2   2
M  END
>  <reaction>  (8) 
rxn_476

>  <mol_properties>  (8) 
{"1": {"label": "*1", "atom_type": "Cs"}, "2": {"label": "*0", "atom_type": "S2s"}, "7": {"label": "*2", "atom_type": "H0"}, "10": {"label": "*3", "atom_type": "Cs"}, "11": {"label": "*4", "atom_type": "H0"}}

>  <type>  (8) 
unop_4

>  <geom_source>  (8) 
Heuristics

$$$$

     RDKit          3D

 14 12  0  0  0  0  0  0  0  0999 V2000
    0.1373    0.3084   -1.7512 C   0  0  0  0  0  0  0  0  0  0  0  0
    0.1373    0.3084   -0.2385 C   0  0  0  0  0  3  0  0  0  0  0  0
   -1.2401   -0.6564    0.4839 S   0  0  0  0  0  0  0  0  0  0  0  0
    0.1373    1.6443    0.1868 O   0  0  0  0  0  0  0  0  0  0  0  0
   -0.7665    0.7898   -2.1276 H   0  0  0  0  0  0  0  0  0  0  0  0
    0.1837   -0.7091   -2.1353 H   0  0  0  0  0  0  0  0  0  0  0  0
    1.0005    0.8688   -2.1137 H   0  0  0  0  0  0  0  0  0  0  0  0
    1.1985   -0.3286    0.2090 H   0  0  0  0  0  0  0  0  0  0  0  0
   -2.2214    0.0135   -0.1374 H   0  0  0  0  0  0  0  0  0  0  0  0
    0.0320    1.6617    1.1404 H   0  0  0  0  0  0  0  0  0  0  0  0
    2.2521   -0.9611    0.6533 C   0  0  0  0  0  0  0  0  0  0  0  0
    2.2455   -0.9571    1.7422 H   0  0  0  0  0  0  0  0  0  0  0  0
    3.1520   -0.4643    0.2940 H   0  0  0  0  0  0  0  0  0  0  0  0
    2.2505   -2.0476    0.7265 H   0  0  0  0  0  0  0  0  0  0  0  0
  1  2  1  0
  1  5  1  0
  1  6  1  0
  1  7  1  0
  2  4  1  0
  2  3  1  0
  3  9  1  0
  4 10  1  0
  8 11  1  0
 11 12  1  0
 11 13  1  0
 11 14  1  0
M  RAD  1   2   2
M  END
>  <reaction>  (9) 
rxn_476

>  <mol_properties>  (9) 
{"1": {"label": "*1", "atom_type": "Cs"}, "2": {"label": "*0", "atom_type": "S2s"}, "7": {"label": "*2", "atom_type": "H0"}, "10": {"label": "*3", "atom_type": "Cs"}, "11": {"label": "*4", "atom_type": "H0"}}

>  <type>  (9) 
unop_5

>  <geom_source>  (9) 
Heuristics

$$$$

     RDKit          3D

 14 12  0  0  0  0  0  0  0  0999 V2000
    0.1419    0.3055   -1.7521 C   0  0  0  0  0  0  0  0  0  0  0  0
    0.1419    0.3055   -0.2394 C   0  0  0  0  0  3  0  0  0  0  0  0
   -1.2354   -0.6593    0.4829 S   0  0  0  0  0  0  0  0  0  0  0  0
    0.1419    1.6414    0.1859 O   0  0  0  0  0  0  0  0  0  0  0  0
   -0.7619    0.7869   -2.1285 H   0  0  0  0  0  0  0  0  0  0  0  0
    0.1883   -0.7120   -2.1362 H   0  0  0  0  0  0  0  0  0  0  0  0
    1.0051    0.8658   -2.1146 H   0  0  0  0  0  0  0  0  0  0  0  0
    1.2031   -0.3315    0.2081 H   0  0  0  0  0  0  0  0  0  0  0  0
   -2.2168    0.0106   -0.1383 H   0  0  0  0  0  0  0  0  0  0  0  0
    0.0366    1.6588    1.1395 H   0  0  0  0  0  0  0  0  0  0  0  0
    2.2567   -0.9640    0.6524 C   0  0  0  0  0  0  0  0  0  0  0  0
    2.0210   -2.0199    0.7758 H   0  0  0  0  0  0  0  0  0  0  0  0
    1.8890   -0.4070    1.5128 H   0  0  0  0  0  0  0  0  0  0  0  0
    3.3259   -0.7821    0.5553 H   0  0  0  0  0  0  0  0  0  0  0  0
  1  2  1  0
  1  5  1  0
  1  6  1  0
  1  7  1  0
  2  4  1  0
  2  3  1  0
  3  9  1  0
  4 10  1  0
  8 11  1  0
 11 12  1  0
 11 13  1  0
 11 14  1  0
M  RAD  1   2   2
M  END
>  <reaction>  (10) 
rxn_476

>  <mol_properties>  (10) 
{"1": {"label": "*1", "atom_type": "Cs"}, "2": {"label": "*0", "atom_type": "S2s"}, "7": {"label": "*2", "atom_type": "H0"}, "10": {"label": "*3", "atom_type": "Cs"}, "11": {"label": "*4", "atom_type": "H0"}}

>  <type>  (10) 
unop_6

>  <geom_source>  (10) 
Heuristics

$$$$

     RDKit          3D

 14 12  0  0  0  0  0  0  0  0999 V2000
    0.1398    0.3047   -1.7530 C   0  0  0  0  0  0  0  0  0  0  0  0
    0.1398    0.3047   -0.2403 C   0  0  0  0  0  3  0  0  0  0  0  0
   -1.2375   -0.6601    0.4820 S   0  0  0  0  0  0  0  0  0  0  0  0
    0.1398    1.6406    0.1849 O   0  0  0  0  0  0  0  0  0  0  0  0
   -0.7640    0.7861   -2.1294 H   0  0  0  0  0  0  0  0  0  0  0  0
    0.1862   -0.7128   -2.1372 H   0  0  0  0  0  0  0  0  0  0  0  0
    1.0030    0.8651   -2.1156 H   0  0  0  0  0  0  0  0  0  0  0  0
    1.2010   -0.3323    0.2071 H   0  0  0  0  0  0  0  0  0  0  0  0
   -2.2189    0.0098   -0.1392 H   0  0  0  0  0  0  0  0  0  0  0  0
    0.0345    1.6580    1.1386 H   0  0  0  0  0  0  0  0  0  0  0  0
    2.2546   -0.9648    0.6514 C   0  0  0  0  0  0  0  0  0  0  0  0
    1.9400   -1.8129    1.2576 H   0  0  0  0  0  0  0  0  0  0  0  0
    2.2088   -0.0552    1.2484 H   0  0  0  0  0  0  0  0  0  0  0  0
    3.2735   -1.2718    0.4206 H   0  0  0  0  0  0  0  0  0  0  0  0
  1  2  1  0
  1  5  1  0
  1  6  1  0
  1  7  1  0
  2  4  1  0
  2  3  1  0
  3  9  1  0
  4 10  1  0
  8 11  1  0
 11 12  1  0
 11 13  1  0
 11 14  1  0
M  RAD  1   2   2
M  END
>  <reaction>  (11) 
rxn_476

>  <mol_properties>  (11) 
{"1": {"label": "*1", "atom_type": "Cs"}, "2": {"label": "*0", "atom_type": "S2s"}, "7": {"label": "*2", "atom_type": "H0"}, "10": {"label": "*3", "atom_type": "Cs"}, "11": {"label": "*4", "atom_type": "H0"}}

>  <type>  (11) 
unop_7

>  <geom_source>  (11) 
Heuristics

$$$$

     RDKit          3D

 14 12  0  0  0  0  0  0  0  0999 V2000
    0.1414    0.3051   -1.7519 C   0  0  0  0  0  0  0  0  0  0  0  0
    0.1414    0.3051   -0.2393 C   0  0  0  0  0  3  0  0  0  0  0  0
   -1.2360   -0.6598    0.4831 S   0  0  0  0  0  0  0  0  0  0  0  0
    0.1414    1.6410    0.1860 O   0  0  0  0  0  0  0  0  0  0  0  0
   -0.7624    0.7865   -2.1284 H   0  0  0  0  0  0  0  0  0  0  0  0
    0.1878   -0.7125   -2.1361 H   0  0  0  0  0  0  0  0  0  0  0  0
    1.0046    0.8654   -2.1145 H   0  0  0  0  0  0  0  0  0  0  0  0
    1.2026   -0.3320    0.2082 H   0  0  0  0  0  0  0  0  0  0  0  0
   -2.2173    0.0102   -0.1381 H   0  0  0  0  0  0  0  0  0  0  0  0
    0.0361    1.6583    1.1396 H   0  0  0  0  0  0  0  0  0  0  0  0
    2.2562   -0.9644    0.6525 C   0  0  0  0  0  0  0  0  0  0  0  0
    3.0773   -0.2599    0.7759 H   0  0  0  0  0  0  0  0  0  0  0  0
    2.6538   -1.9751    0.5738 H   0  0  0  0  0  0  0  0  0  0  0  0
    1.5509   -0.9352    1.4817 H   0  0  0  0  0  0  0  0  0  0  0  0
  1  2  1  0
  1  5  1  0
  1  6  1  0
  1  7  1  0
  2  4  1  0
  2  3  1  0
  3  9  1  0
  4 10  1  0
  8 11  1  0
 11 12  1  0
 11 13  1  0
 11 14  1  0
M  RAD  1   2   2
M  END
>  <reaction>  (12) 
rxn_476

>  <mol_properties>  (12) 
{"1": {"label": "*1", "atom_type": "Cs"}, "2": {"label": "*0", "atom_type": "S2s"}, "7": {"label": "*2", "atom_type": "H0"}, "10": {"label": "*3", "atom_type": "Cs"}, "11": {"label": "*4", "atom_type": "H0"}}

>  <type>  (12) 
unop_8

>  <geom_source>  (12) 
Heuristics

$$$$

     RDKit          3D

 14 12  0  0  0  0  0  0  0  0999 V2000
    0.1445    0.3060   -1.7488 C   0  0  0  0  0  0  0  0  0  0  0  0
    0.1445    0.3060   -0.2361 C   0  0  0  0  0  3  0  0  0  0  0  0
   -1.2328   -0.6589    0.4862 S   0  0  0  0  0  0  0  0  0  0  0  0
    0.1445    1.6419    0.1892 O   0  0  0  0  0  0  0  0  0  0  0  0
   -0.7593    0.7874   -2.1252 H   0  0  0  0  0  0  0  0  0  0  0  0
    0.1909   -0.7116   -2.1329 H   0  0  0  0  0  0  0  0  0  0  0  0
    1.0077    0.8663   -2.1113 H   0  0  0  0  0  0  0  0  0  0  0  0
    1.2057   -0.3311    0.2114 H   0  0  0  0  0  0  0  0  0  0  0  0
   -2.2142    0.0110   -0.1350 H   0  0  0  0  0  0  0  0  0  0  0  0
    0.0392    1.6592    1.1428 H   0  0  0  0  0  0  0  0  0  0  0  0
    2.2593   -0.9636    0.6557 C   0  0  0  0  0  0  0  0  0  0  0  0
    2.5470   -1.7350   -0.0571 H   0  0  0  0  0  0  0  0  0  0  0  0
    1.7289   -1.4199    1.4901 H   0  0  0  0  0  0  0  0  0  0  0  0
    2.7274   -0.0950    1.1164 H   0  0  0  0  0  0  0  0  0  0  0  0
  1  2  1  0
  1  5  1  0
  1  6  1  0
  1  7  1  0
  2  4  1  0
  2  3  1  0
  3  9  1  0
  4 10  1  0
  8 11  1  0
 11 12  1  0
 11 13  1  0
 11 14  1  0
M  RAD  1   2   2
M  END
>  <reaction>  (13) 
rxn_476

>  <mol_properties>  (13) 
{"1": {"label": "*1", "atom_type": "Cs"}, "2": {"label": "*0", "atom_type": "S2s"}, "7": {"label": "*2", "atom_type": "H0"}, "10": {"label": "*3", "atom_type": "Cs"}, "11": {"label": "*4", "atom_type": "H0"}}

>  <type>  (13) 
unop_9

>  <geom_source>  (13) 
Heuristics

$$$$

     RDKit          3D

 14 12  0  0  0  0  0  0  0  0999 V2000
    0.1415    0.3050   -1.7496 C   0  0  0  0  0  0  0  0  0  0  0  0
    0.1415    0.3050   -0.2369 C   0  0  0  0  0  3  0  0  0  0  0  0
   -1.2359   -0.6599    0.4855 S   0  0  0  0  0  0  0  0  0  0  0  0
    0.1415    1.6409    0.1884 O   0  0  0  0  0  0  0  0  0  0  0  0
   -0.7623    0.7864   -2.1260 H   0  0  0  0  0  0  0  0  0  0  0  0
    0.1878   -0.7126   -2.1337 H   0  0  0  0  0  0  0  0  0  0  0  0
    1.0047    0.8653   -2.1121 H   0  0  0  0  0  0  0  0  0  0  0  0
    1.2027   -0.3321    0.2106 H   0  0  0  0  0  0  0  0  0  0  0  0
   -2.2172    0.0100   -0.1358 H   0  0  0  0  0  0  0  0  0  0  0  0
    0.0362    1.6582    1.1420 H   0  0  0  0  0  0  0  0  0  0  0  0
    2.2563   -0.9646    0.6549 C   0  0  0  0  0  0  0  0  0  0  0  0
    3.1562   -0.4678    0.2955 H   0  0  0  0  0  0  0  0  0  0  0  0
    2.4632   -2.0222    0.8108 H   0  0  0  0  0  0  0  0  0  0  0  0
    1.6555   -0.6702    1.5141 H   0  0  0  0  0  0  0  0  0  0  0  0
  1  2  1  0
  1  5  1  0
  1  6  1  0
  1  7  1  0
  2  4  1  0
  2  3  1  0
  3  9  1  0
  4 10  1  0
  8 11  1  0
 11 12  1  0
 11 13  1  0
 11 14  1  0
M  RAD  1   2   2
M  END
>  <reaction>  (14) 
rxn_476

>  <mol_properties>  (14) 
{"1": {"label": "*1", "atom_type": "Cs"}, "2": {"label": "*0", "atom_type": "S2s"}, "7": {"label": "*2", "atom_type": "H0"}, "10": {"label": "*3", "atom_type": "Cs"}, "11": {"label": "*4", "atom_type": "H0"}}

>  <type>  (14) 
unop_10

>  <geom_source>  (14) 
Heuristics

$$$$

     RDKit          3D

 14 12  0  0  0  0  0  0  0  0999 V2000
    0.1373    0.3050   -1.7522 C   0  0  0  0  0  0  0  0  0  0  0  0
    0.1373    0.3050   -0.2396 C   0  0  0  0  0  3  0  0  0  0  0  0
   -1.2400   -0.6598    0.4828 S   0  0  0  0  0  0  0  0  0  0  0  0
    0.1373    1.6409    0.1857 O   0  0  0  0  0  0  0  0  0  0  0  0
   -0.7665    0.7864   -2.1287 H   0  0  0  0  0  0  0  0  0  0  0  0
    0.1837   -0.7125   -2.1364 H   0  0  0  0  0  0  0  0  0  0  0  0
    1.0005    0.8654   -2.1148 H   0  0  0  0  0  0  0  0  0  0  0  0
    1.1985   -0.3320    0.2079 H   0  0  0  0  0  0  0  0  0  0  0  0
   -2.2214    0.0101   -0.1385 H   0  0  0  0  0  0  0  0  0  0  0  0
    0.0320    1.6583    1.1393 H   0  0  0  0  0  0  0  0  0  0  0  0
    2.2521   -0.9645    0.6522 C   0  0  0  0  0  0  0  0  0  0  0  0
    2.0214   -1.4247    1.6117 H   0  0  0  0  0  0  0  0  0  0  0  0
    2.6713    0.0269    0.8166 H   0  0  0  0  0  0  0  0  0  0  0  0
    2.9543   -1.7671    0.4319 H   0  0  0  0  0  0  0  0  0  0  0  0
  1  2  1  0
  1  5  1  0
  1  6  1  0
  1  7  1  0
  2  4  1  0
  2  3  1  0
  3  9  1  0
  4 10  1  0
  8 11  1  0
 11 12  1  0
 11 13  1  0
 11 14  1  0
M  RAD  1   2   2
M  END
>  <reaction>  (15) 
rxn_476

>  <mol_properties>  (15) 
{"1": {"label": "*1", "atom_type": "Cs"}, "2": {"label": "*0", "atom_type": "S2s"}, "7": {"label": "*2", "atom_type": "H0"}, "10": {"label": "*3", "atom_type": "Cs"}, "11": {"label": "*4", "atom_type": "H0"}}

>  <type>  (15) 
unop_11

>  <geom_source>  (15) 
Heuristics

$$$$

     RDKit          3D

 14 12  0  0  0  0  0  0  0  0999 V2000
    0.1443    0.3063   -1.7477 C   0  0  0  0  0  0  0  0  0  0  0  0
    0.1443    0.3063   -0.2350 C   0  0  0  0  0  3  0  0  0  0  0  0
   -1.2331   -0.6586    0.4873 S   0  0  0  0  0  0  0  0  0  0  0  0
    0.1443    1.6422    0.1902 O   0  0  0  0  0  0  0  0  0  0  0  0
   -0.7595    0.7876   -2.1241 H   0  0  0  0  0  0  0  0  0  0  0  0
    0.1906   -0.7113   -2.1319 H   0  0  0  0  0  0  0  0  0  0  0  0
    1.0075    0.8666   -2.1103 H   0  0  0  0  0  0  0  0  0  0  0  0
    1.2055   -0.3308    0.2124 H   0  0  0  0  0  0  0  0  0  0  0  0
   -2.2144    0.0113   -0.1339 H   0  0  0  0  0  0  0  0  0  0  0  0
    0.0390    1.6595    1.1439 H   0  0  0  0  0  0  0  0  0  0  0  0
    2.2591   -0.9633    0.6567 C   0  0  0  0  0  0  0  0  0  0  0  0
    2.8510   -1.3186   -0.1853 H   0  0  0  0  0  0  0  0  0  0  0  0
    1.9445   -1.8114    1.2629 H   0  0  0  0  0  0  0  0  0  0  0  0
    2.2284   -0.1455    1.3751 H   0  0  0  0  0  0  0  0  0  0  0  0
  1  2  1  0
  1  5  1  0
  1  6  1  0
  1  7  1  0
  2  4  1  0
  2  3  1  0
  3  9  1  0
  4 10  1  0
  8 11  1  0
 11 12  1  0
 11 13  1  0
 11 14  1  0
M  RAD  1   2   2
M  END
>  <reaction>  (16) 
rxn_476

>  <mol_properties>  (16) 
{"1": {"label": "*1", "atom_type": "Cs"}, "2": {"label": "*0", "atom_type": "S2s"}, "7": {"label": "*2", "atom_type": "H0"}, "10": {"label": "*3", "atom_type": "Cs"}, "11": {"label": "*4", "atom_type": "H0"}}

>  <type>  (16) 
unop_12

>  <geom_source>  (16) 
Heuristics

$$$$

     RDKit          3D

 14 12  0  0  0  0  0  0  0  0999 V2000
   -1.5663    1.6271    0.9669 S   0  0  0  0  0  0  0  0  0  0  0  0
   -1.0512   -0.9361    1.3013 O   0  0  0  0  0  0  0  0  0  0  0  0
   -1.1088   -0.2551   -0.9879 C   0  0  0  0  0  0  0  0  0  0  0  0
    1.8462   -0.1770    0.0601 C   0  0  0  0  0  0  0  0  0  0  0  0
   -0.7171    0.1077    0.4374 C   0  0  0  0  0  3  0  0  0  0  0  0
   -2.2049   -0.4224   -1.0578 H   0  0  0  0  0  0  0  0  0  0  0  0
   -0.8172    0.5623   -1.6801 H   0  0  0  0  0  0  0  0  0  0  0  0
   -0.5800   -1.1818   -1.2945 H   0  0  0  0  0  0  0  0  0  0  0  0
    2.0104   -1.2270   -0.2580 H   0  0  0  0  0  0  0  0  0  0  0  0
    2.6098    0.1048    0.8139 H   0  0  0  0  0  0  0  0  0  0  0  0
    1.9303    0.4934   -0.8199 H   0  0  0  0  0  0  0  0  0  0  0  0
    0.7054   -0.0665    0.5608 H   0  0  0  0  0  0  0  0  0  0  0  0
   -0.8114    2.4347    0.0953 H   0  0  0  0  0  0  0  0  0  0  0  0
   -0.2451   -1.0640    1.8627 H   0  0  0  0  0  0  0  0  0  0  0  0
  1  5  1  0
  1 13  1  0
  2  5  1  0
  2 14  1  0
  3  5  1  0
  3  6  1  0
  3  7  1  0
  3  8  1  0
  4  9  1  0
  4 10  1  0
  4 11  1  0
  4 12  1  0
M  RAD  1   5   2
M  END
>  <reaction>  (17) 
rxn_476

>  <mol_properties>  (17) 
{"1": {"label": "*1", "atom_type": "Cs"}, "2": {"label": "*0", "atom_type": "S2s"}, "7": {"label": "*2", "atom_type": "H0"}, "10": {"label": "*3", "atom_type": "Cs"}, "11": {"label": "*4", "atom_type": "H0"}}

>  <type>  (17) 
unop_13

>  <geom_source>  (17) 
AutoTST

$$$$
