
     RDKit          3D

 12 11  0  0  0  0  0  0  0  0999 V2000
    1.2394   -0.3763   -0.3020 C   0  0  0  0  0  0  0  0  0  0  0  0
    0.1007    0.3023    0.4464 C   0  0  0  0  0  0  0  0  0  0  0  0
   -0.1187    2.0399   -0.0725 S   0  0  0  0  0  0  0  0  0  0  0  0
   -1.1974   -0.4877    0.3552 C   0  0  0  0  0  0  0  0  0  0  0  0
    2.1681    0.1849   -0.2048 H   0  0  0  0  0  0  0  0  0  0  0  0
    1.0031   -0.4606   -1.3656 H   0  0  0  0  0  0  0  0  0  0  0  0
    1.3994   -1.3856    0.0860 H   0  0  0  0  0  0  0  0  0  0  0  0
    0.3796    0.4050    1.4981 H   0  0  0  0  0  0  0  0  0  0  0  0
   -0.4500    1.7779   -1.3452 H   0  0  0  0  0  0  0  0  0  0  0  0
   -1.0545   -1.4978    0.7479 H   0  0  0  0  0  0  0  0  0  0  0  0
   -1.5206   -0.5759   -0.6849 H   0  0  0  0  0  0  0  0  0  0  0  0
   -1.9957   -0.0054    0.9183 H   0  0  0  0  0  0  0  0  0  0  0  0
  1  2  1  0
  1  5  1  0
  1  6  1  0
  1  7  1  0
  2  4  1  0
  2  3  1  0
  2  8  1  0
  3  9  1  0
  4 10  1  0
  4 11  1  0
  4 12  1  0
M  END
>  <reaction>  (1) 
rxn_1918

>  <mol_properties>  (1) 
{"1": {"label": "donator", "atom_type": "Cs"}, "7": {"label": "d_hydrogen", "atom_type": "H0"}}

>  <type>  (1) 
r1h

$$$$

     RDKit          3D

  9  8  0  0  0  0  0  0  0  0999 V2000
    2.3038   -0.0269    0.1590 C   0  0  0  0  0  0  0  0  0  0  0  0
    1.1426    0.1377   -0.1648 C   0  0  0  0  0  0  0  0  0  0  0  0
   -0.1694    0.3175   -0.5203 C   0  0  0  0  0  3  0  0  0  0  0  0
   -1.3163   -0.1910    0.2856 C   0  0  0  0  0  0  0  0  0  0  0  0
    3.3199   -0.1683    0.4378 H   0  0  0  0  0  0  0  0  0  0  0  0
   -0.3786    0.8584   -1.4360 H   0  0  0  0  0  0  0  0  0  0  0  0
   -1.9694    0.6309    0.5951 H   0  0  0  0  0  0  0  0  0  0  0  0
   -1.9325   -0.8770   -0.3039 H   0  0  0  0  0  0  0  0  0  0  0  0
   -0.9753   -0.7144    1.1774 H   0  0  0  0  0  0  0  0  0  0  0  0
  1  2  3  0
  1  5  1  0
  2  3  1  0
  3  4  1  0
  3  6  1  0
  4  7  1  0
  4  8  1  0
  4  9  1  0
M  RAD  1   3   2
M  END
>  <reaction>  (2) 
rxn_1918

>  <mol_properties>  (2) 
{"2": {"label": "acceptor", "atom_type": "Cs"}}

>  <type>  (2) 
r2

$$$$

     RDKit          3D

 10  9  0  0  0  0  0  0  0  0999 V2000
    2.2738    0.0217   -0.0992 C   0  0  0  0  0  0  0  0  0  0  0  0
    1.1083    0.2960   -0.0695 C   0  0  0  0  0  0  0  0  0  0  0  0
   -0.3173    0.6046   -0.0227 C   0  0  0  0  0  0  0  0  0  0  0  0
   -1.1561   -0.5495    0.5292 C   0  0  0  0  0  0  0  0  0  0  0  0
    3.3097   -0.2166   -0.1277 H   0  0  0  0  0  0  0  0  0  0  0  0
   -0.6542    0.8617   -1.0302 H   0  0  0  0  0  0  0  0  0  0  0  0
   -0.4633    1.4978    0.5900 H   0  0  0  0  0  0  0  0  0  0  0  0
   -0.8485   -0.7997    1.5447 H   0  0  0  0  0  0  0  0  0  0  0  0
   -2.2115   -0.2752    0.5459 H   0  0  0  0  0  0  0  0  0  0  0  0
   -1.0409   -1.4407   -0.0879 H   0  0  0  0  0  0  0  0  0  0  0  0
  1  2  3  0
  1  5  1  0
  2  3  1  0
  3  4  1  0
  3  6  1  0
  3  7  1  0
  4  8  1  0
  4  9  1  0
  4 10  1  0
M  END
>  <reaction>  (3) 
rxn_1918

>  <mol_properties>  (3) 
{"2": {"label": "acceptor", "atom_type": "Cs"}, "9": {"label": "a_hydrogen", "atom_type": "H0"}}

>  <type>  (3) 
r2h

$$$$

     RDKit          3D

 21 19  0  0  0  0  0  0  0  0999 V2000
   -1.7288   -2.1047   -1.5333 C   0  0  0  0  0  0  0  0  0  0  0  0
   -1.6676   -1.3175   -0.6243 C   0  0  0  0  0  0  0  0  0  0  0  0
   -1.5144   -0.3689    0.4287 C   0  0  0  0  0  0  0  0  0  0  0  0
   -1.1923   -0.9145    1.8028 C   0  0  0  0  0  0  0  0  0  0  0  0
   -1.8151   -2.8093   -2.3248 H   0  0  0  0  0  0  0  0  0  0  0  0
   -2.2852    0.4010    0.4199 H   0  0  0  0  0  0  0  0  0  0  0  0
   -1.0185   -0.0967    2.5037 H   0  0  0  0  0  0  0  0  0  0  0  0
   -2.0095   -1.5272    2.1913 H   0  0  0  0  0  0  0  0  0  0  0  0
   -0.2935   -1.5318    1.7662 H   0  0  0  0  0  0  0  0  0  0  0  0
    0.3341    1.4942   -1.6546 C   0  0  0  0  0  0  0  0  0  0  0  0
    0.7199    0.9300   -0.3110 C   0  0  0  0  0  3  0  0  0  0  0  0
    1.9447   -0.3677   -0.3416 S   0  0  0  0  0  0  0  0  0  0  0  0
    1.0252    1.9489    0.7584 C   0  0  0  0  0  0  0  0  0  0  0  0
   -0.0104    0.7077   -2.3281 H   0  0  0  0  0  0  0  0  0  0  0  0
    1.1804    2.0028   -2.1261 H   0  0  0  0  0  0  0  0  0  0  0  0
   -0.4770    2.2174   -1.5371 H   0  0  0  0  0  0  0  0  0  0  0  0
   -0.4130    0.3113    0.0861 H   0  0  0  0  0  0  0  0  0  0  0  0
    1.3438   -1.1238   -1.2716 H   0  0  0  0  0  0  0  0  0  0  0  0
    0.1770    2.6267    0.8759 H   0  0  0  0  0  0  0  0  0  0  0  0
    1.8986    2.5544    0.4945 H   0  0  0  0  0  0  0  0  0  0  0  0
    1.2211    1.4742    1.7210 H   0  0  0  0  0  0  0  0  0  0  0  0
  1  2  3  0
  1  5  1  0
  2  3  1  0
  3  4  1  0
  3  6  1  0
  3 17  1  0
  4  7  1  0
  4  8  1  0
  4  9  1  0
 10 11  1  0
 10 14  1  0
 10 15  1  0
 10 16  1  0
 11 13  1  0
 11 12  1  0
 12 18  1  0
 13 19  1  0
 13 20  1  0
 13 21  1  0
M  RAD  1  11   2
M  END
>  <reaction>  (4) 
rxn_1918

>  <mol_properties>  (4) 
{"1": {"label": "*0", "atom_type": "Ct"}, "2": {"label": "*1", "atom_type": "Cs"}, "10": {"label": "*3", "atom_type": "Cs"}, "11": {"label": "*4", "atom_type": "S2s"}, "16": {"label": "*2", "atom_type": "H0"}}

>  <type>  (4) 
ts

$$$$

     RDKit          3D

 21 19  0  0  0  0  0  0  0  0999 V2000
   -0.9428   -2.5607    1.6046 C   0  0  0  0  0  0  0  0  0  0  0  0
   -1.2900   -1.6375    0.9251 C   0  0  0  0  0  0  0  0  0  0  0  0
   -1.7105   -0.4956    0.1194 C   0  0  0  0  0  0  0  0  0  0  0  0
   -1.7478    0.8102    0.9155 C   0  0  0  0  0  0  0  0  0  0  0  0
   -0.6345   -3.3803    2.2078 H   0  0  0  0  0  0  0  0  0  0  0  0
   -2.6982   -0.7056   -0.2987 H   0  0  0  0  0  0  0  0  0  0  0  0
   -2.0663    1.6338    0.2755 H   0  0  0  0  0  0  0  0  0  0  0  0
   -2.4435    0.7336    1.7512 H   0  0  0  0  0  0  0  0  0  0  0  0
   -0.7622    1.0463    1.3170 H   0  0  0  0  0  0  0  0  0  0  0  0
    0.4252    0.7681   -2.2529 C   0  0  0  0  0  0  0  0  0  0  0  0
    0.4252    0.7681   -0.7306 C   0  0  0  0  0  3  0  0  0  0  0  0
    1.7802   -0.2483   -0.0469 S   0  0  0  0  0  0  0  0  0  0  0  0
    0.4252    2.1781   -0.1565 C   0  0  0  0  0  0  0  0  0  0  0  0
    0.3966   -0.2462   -2.6495 H   0  0  0  0  0  0  0  0  0  0  0  0
    1.3236    1.2578   -2.6365 H   0  0  0  0  0  0  0  0  0  0  0  0
   -0.4417    1.3155   -2.6317 H   0  0  0  0  0  0  0  0  0  0  0  0
   -0.6427    0.1362   -0.3056 H   0  0  0  0  0  0  0  0  0  0  0  0
    2.7865    0.4872   -0.5416 H   0  0  0  0  0  0  0  0  0  0  0  0
   -0.4417    2.7353   -0.5207 H   0  0  0  0  0  0  0  0  0  0  0  0
    1.3236    2.7180   -0.4654 H   0  0  0  0  0  0  0  0  0  0  0  0
    0.3966    2.1630    0.9324 H   0  0  0  0  0  0  0  0  0  0  0  0
  1  2  3  0
  1  5  1  0
  2  3  1  0
  3  4  1  0
  3  6  1  0
  3 17  1  0
  4  7  1  0
  4  8  1  0
  4  9  1  0
 10 11  1  0
 10 14  1  0
 10 15  1  0
 10 16  1  0
 11 13  1  0
 11 12  1  0
 12 18  1  0
 13 19  1  0
 13 20  1  0
 13 21  1  0
M  RAD  1  11   2
M  END
>  <reaction>  (5) 
rxn_1918

>  <mol_properties>  (5) 
{"1": {"label": "*0", "atom_type": "Ct"}, "2": {"label": "*1", "atom_type": "Cs"}, "10": {"label": "*3", "atom_type": "Cs"}, "11": {"label": "*4", "atom_type": "S2s"}, "16": {"label": "*2", "atom_type": "H0"}}

>  <type>  (5) 
unop_1

>  <geom_source>  (5) 
Heuristics

$$$$

     RDKit          3D

 21 19  0  0  0  0  0  0  0  0999 V2000
   -2.2312   -2.1717   -1.2071 C   0  0  0  0  0  0  0  0  0  0  0  0
   -1.9416   -1.3200   -0.4165 C   0  0  0  0  0  0  0  0  0  0  0  0
   -1.5780   -0.3019    0.5639 C   0  0  0  0  0  0  0  0  0  0  0  0
   -0.9010   -0.8880    1.8042 C   0  0  0  0  0  0  0  0  0  0  0  0
   -2.4884   -2.9279   -1.9090 H   0  0  0  0  0  0  0  0  0  0  0  0
   -2.4793    0.2439    0.8541 H   0  0  0  0  0  0  0  0  0  0  0  0
   -0.6477   -0.0937    2.5073 H   0  0  0  0  0  0  0  0  0  0  0  0
   -1.5606   -1.5959    2.3064 H   0  0  0  0  0  0  0  0  0  0  0  0
    0.0147   -1.4135    1.5328 H   0  0  0  0  0  0  0  0  0  0  0  0
    0.5577    0.9618   -1.8084 C   0  0  0  0  0  0  0  0  0  0  0  0
    0.5577    0.9618   -0.2860 C   0  0  0  0  0  3  0  0  0  0  0  0
    1.9127   -0.0546    0.3976 S   0  0  0  0  0  0  0  0  0  0  0  0
    0.5577    2.3718    0.2880 C   0  0  0  0  0  0  0  0  0  0  0  0
    0.5291   -0.0524   -2.2050 H   0  0  0  0  0  0  0  0  0  0  0  0
    1.4561    1.4516   -2.1920 H   0  0  0  0  0  0  0  0  0  0  0  0
   -0.3092    1.5093   -2.1872 H   0  0  0  0  0  0  0  0  0  0  0  0
   -0.5102    0.3300    0.1390 H   0  0  0  0  0  0  0  0  0  0  0  0
    2.9190    0.6809   -0.0971 H   0  0  0  0  0  0  0  0  0  0  0  0
   -0.3092    2.9291   -0.0761 H   0  0  0  0  0  0  0  0  0  0  0  0
    1.4561    2.9117   -0.0209 H   0  0  0  0  0  0  0  0  0  0  0  0
    0.5291    2.3567    1.3770 H   0  0  0  0  0  0  0  0  0  0  0  0
  1  2  3  0
  1  5  1  0
  2  3  1  0
  3  4  1  0
  3  6  1  0
  3 17  1  0
  4  7  1  0
  4  8  1  0
  4  9  1  0
 10 11  1  0
 10 14  1  0
 10 15  1  0
 10 16  1  0
 11 13  1  0
 11 12  1  0
 12 18  1  0
 13 19  1  0
 13 20  1  0
 13 21  1  0
M  RAD  1  11   2
M  END
>  <reaction>  (6) 
rxn_1918

>  <mol_properties>  (6) 
{"1": {"label": "*0", "atom_type": "Ct"}, "2": {"label": "*1", "atom_type": "Cs"}, "10": {"label": "*3", "atom_type": "Cs"}, "11": {"label": "*4", "atom_type": "S2s"}, "16": {"label": "*2", "atom_type": "H0"}}

>  <type>  (6) 
unop_2

>  <geom_source>  (6) 
Heuristics

$$$$

     RDKit          3D

 21 19  0  0  0  0  0  0  0  0999 V2000
   -1.0587   -1.7631    2.4146 C   0  0  0  0  0  0  0  0  0  0  0  0
   -1.2993   -1.2703    1.3498 C   0  0  0  0  0  0  0  0  0  0  0  0
   -1.6032   -0.6472    0.0656 C   0  0  0  0  0  0  0  0  0  0  0  0
   -2.2605    0.7262    0.2136 C   0  0  0  0  0  0  0  0  0  0  0  0
   -0.8450   -2.2007    3.3598 H   0  0  0  0  0  0  0  0  0  0  0  0
   -2.2570   -1.3140   -0.5022 H   0  0  0  0  0  0  0  0  0  0  0  0
   -2.4691    1.1530   -0.7681 H   0  0  0  0  0  0  0  0  0  0  0  0
   -3.1991    0.6484    0.7625 H   0  0  0  0  0  0  0  0  0  0  0  0
   -1.6078    1.4106    0.7558 H   0  0  0  0  0  0  0  0  0  0  0  0
    0.5325    0.6165   -2.3067 C   0  0  0  0  0  0  0  0  0  0  0  0
    0.5325    0.6165   -0.7844 C   0  0  0  0  0  3  0  0  0  0  0  0
    1.8875   -0.3999   -0.1007 S   0  0  0  0  0  0  0  0  0  0  0  0
    0.5325    2.0265   -0.2103 C   0  0  0  0  0  0  0  0  0  0  0  0
    0.5039   -0.3977   -2.7034 H   0  0  0  0  0  0  0  0  0  0  0  0
    1.4309    1.1063   -2.6903 H   0  0  0  0  0  0  0  0  0  0  0  0
   -0.3345    1.1640   -2.6855 H   0  0  0  0  0  0  0  0  0  0  0  0
   -0.5354   -0.0153   -0.3594 H   0  0  0  0  0  0  0  0  0  0  0  0
    2.8938    0.3356   -0.5954 H   0  0  0  0  0  0  0  0  0  0  0  0
   -0.3345    2.5838   -0.5745 H   0  0  0  0  0  0  0  0  0  0  0  0
    1.4309    2.5665   -0.5192 H   0  0  0  0  0  0  0  0  0  0  0  0
    0.5039    2.0114    0.8786 H   0  0  0  0  0  0  0  0  0  0  0  0
  1  2  3  0
  1  5  1  0
  2  3  1  0
  3  4  1  0
  3  6  1  0
  3 17  1  0
  4  7  1  0
  4  8  1  0
  4  9  1  0
 10 11  1  0
 10 14  1  0
 10 15  1  0
 10 16  1  0
 11 13  1  0
 11 12  1  0
 12 18  1  0
 13 19  1  0
 13 20  1  0
 13 21  1  0
M  RAD  1  11   2
M  END
>  <reaction>  (7) 
rxn_1918

>  <mol_properties>  (7) 
{"1": {"label": "*0", "atom_type": "Ct"}, "2": {"label": "*1", "atom_type": "Cs"}, "10": {"label": "*3", "atom_type": "Cs"}, "11": {"label": "*4", "atom_type": "S2s"}, "16": {"label": "*2", "atom_type": "H0"}}

>  <type>  (7) 
unop_3

>  <geom_source>  (7) 
Heuristics

$$$$

     RDKit          3D

 21 19  0  0  0  0  0  0  0  0999 V2000
   -3.4079    0.5634   -0.3692 C   0  0  0  0  0  0  0  0  0  0  0  0
   -2.4244    0.0168    0.0413 C   0  0  0  0  0  0  0  0  0  0  0  0
   -1.2405   -0.6734    0.5432 C   0  0  0  0  0  0  0  0  0  0  0  0
   -1.4917   -2.1567    0.8203 C   0  0  0  0  0  0  0  0  0  0  0  0
   -4.2810    1.0486   -0.7337 H   0  0  0  0  0  0  0  0  0  0  0  0
   -0.9043   -0.1753    1.4561 H   0  0  0  0  0  0  0  0  0  0  0  0
   -0.5827   -2.6307    1.1925 H   0  0  0  0  0  0  0  0  0  0  0  0
   -2.2768   -2.2830    1.5660 H   0  0  0  0  0  0  0  0  0  0  0  0
   -1.8026   -2.6724   -0.0884 H   0  0  0  0  0  0  0  0  0  0  0  0
    0.8952    0.5903   -1.8291 C   0  0  0  0  0  0  0  0  0  0  0  0
    0.8952    0.5903   -0.3068 C   0  0  0  0  0  3  0  0  0  0  0  0
    2.2502   -0.4261    0.3768 S   0  0  0  0  0  0  0  0  0  0  0  0
    0.8952    2.0003    0.2673 C   0  0  0  0  0  0  0  0  0  0  0  0
    0.8666   -0.4239   -2.2258 H   0  0  0  0  0  0  0  0  0  0  0  0
    1.7936    1.0801   -2.2127 H   0  0  0  0  0  0  0  0  0  0  0  0
    0.0282    1.1378   -2.2079 H   0  0  0  0  0  0  0  0  0  0  0  0
   -0.1727   -0.0415    0.1182 H   0  0  0  0  0  0  0  0  0  0  0  0
    3.2565    0.3094   -0.1178 H   0  0  0  0  0  0  0  0  0  0  0  0
    0.0282    2.5576   -0.0969 H   0  0  0  0  0  0  0  0  0  0  0  0
    1.7936    2.5402   -0.0417 H   0  0  0  0  0  0  0  0  0  0  0  0
    0.8666    1.9852    1.3562 H   0  0  0  0  0  0  0  0  0  0  0  0
  1  2  3  0
  1  5  1  0
  2  3  1  0
  3  4  1  0
  3  6  1  0
  3 17  1  0
  4  7  1  0
  4  8  1  0
  4  9  1  0
 10 11  1  0
 10 14  1  0
 10 15  1  0
 10 16  1  0
 11 13  1  0
 11 12  1  0
 12 18  1  0
 13 19  1  0
 13 20  1  0
 13 21  1  0
M  RAD  1  11   2
M  END
>  <reaction>  (8) 
rxn_1918

>  <mol_properties>  (8) 
{"1": {"label": "*0", "atom_type": "Ct"}, "2": {"label": "*1", "atom_type": "Cs"}, "10": {"label": "*3", "atom_type": "Cs"}, "11": {"label": "*4", "atom_type": "S2s"}, "16": {"label": "*2", "atom_type": "H0"}}

>  <type>  (8) 
unop_4

>  <geom_source>  (8) 
Heuristics

$$$$

     RDKit          3D

 21 19  0  0  0  0  0  0  0  0999 V2000
   -1.4637   -0.7160    2.7629 C   0  0  0  0  0  0  0  0  0  0  0  0
   -1.4461   -0.7284    1.5654 C   0  0  0  0  0  0  0  0  0  0  0  0
   -1.4498   -0.7306    0.1060 C   0  0  0  0  0  0  0  0  0  0  0  0
   -2.7060   -0.0878   -0.4848 C   0  0  0  0  0  0  0  0  0  0  0  0
   -1.4794   -0.7051    3.8260 H   0  0  0  0  0  0  0  0  0  0  0  0
   -1.3592   -1.7620   -0.2438 H   0  0  0  0  0  0  0  0  0  0  0  0
   -2.6657   -0.1115   -1.5744 H   0  0  0  0  0  0  0  0  0  0  0  0
   -3.6010   -0.6194   -0.1610 H   0  0  0  0  0  0  0  0  0  0  0  0
   -2.7956    0.9506   -0.1653 H   0  0  0  0  0  0  0  0  0  0  0  0
    0.6859    0.5332   -2.2663 C   0  0  0  0  0  0  0  0  0  0  0  0
    0.6859    0.5332   -0.7440 C   0  0  0  0  0  3  0  0  0  0  0  0
    2.0409   -0.4833   -0.0603 S   0  0  0  0  0  0  0  0  0  0  0  0
    0.6859    1.9431   -0.1699 C   0  0  0  0  0  0  0  0  0  0  0  0
    0.6573   -0.4811   -2.6630 H   0  0  0  0  0  0  0  0  0  0  0  0
    1.5843    1.0229   -2.6499 H   0  0  0  0  0  0  0  0  0  0  0  0
   -0.1811    1.0806   -2.6451 H   0  0  0  0  0  0  0  0  0  0  0  0
   -0.3820   -0.0987   -0.3190 H   0  0  0  0  0  0  0  0  0  0  0  0
    3.0472    0.2522   -0.5550 H   0  0  0  0  0  0  0  0  0  0  0  0
   -0.1811    2.5004   -0.5341 H   0  0  0  0  0  0  0  0  0  0  0  0
    1.5843    2.4831   -0.4788 H   0  0  0  0  0  0  0  0  0  0  0  0
    0.6573    1.9280    0.9190 H   0  0  0  0  0  0  0  0  0  0  0  0
  1  2  3  0
  1  5  1  0
  2  3  1  0
  3  4  1  0
  3  6  1  0
  3 17  1  0
  4  7  1  0
  4  8  1  0
  4  9  1  0
 10 11  1  0
 10 14  1  0
 10 15  1  0
 10 16  1  0
 11 13  1  0
 11 12  1  0
 12 18  1  0
 13 19  1  0
 13 20  1  0
 13 21  1  0
M  RAD  1  11   2
M  END
>  <reaction>  (9) 
rxn_1918

>  <mol_properties>  (9) 
{"1": {"label": "*0", "atom_type": "Ct"}, "2": {"label": "*1", "atom_type": "Cs"}, "10": {"label": "*3", "atom_type": "Cs"}, "11": {"label": "*4", "atom_type": "S2s"}, "16": {"label": "*2", "atom_type": "H0"}}

>  <type>  (9) 
unop_5

>  <geom_source>  (9) 
Heuristics

$$$$

     RDKit          3D

 21 19  0  0  0  0  0  0  0  0999 V2000
   -3.2322    0.9844    0.6799 C   0  0  0  0  0  0  0  0  0  0  0  0
   -2.3261    0.2111    0.5557 C   0  0  0  0  0  0  0  0  0  0  0  0
   -1.2406   -0.7525    0.4037 C   0  0  0  0  0  0  0  0  0  0  0  0
   -1.7374   -2.1969    0.3185 C   0  0  0  0  0  0  0  0  0  0  0  0
   -4.0367    1.6709    0.7903 H   0  0  0  0  0  0  0  0  0  0  0  0
   -0.5539   -0.6437    1.2470 H   0  0  0  0  0  0  0  0  0  0  0  0
   -0.8948   -2.8801    0.2059 H   0  0  0  0  0  0  0  0  0  0  0  0
   -2.2857   -2.4708    1.2200 H   0  0  0  0  0  0  0  0  0  0  0  0
   -2.4034   -2.3268   -0.5346 H   0  0  0  0  0  0  0  0  0  0  0  0
    0.8951    0.5112   -1.9685 C   0  0  0  0  0  0  0  0  0  0  0  0
    0.8951    0.5112   -0.4462 C   0  0  0  0  0  3  0  0  0  0  0  0
    2.2501   -0.5052    0.2374 S   0  0  0  0  0  0  0  0  0  0  0  0
    0.8951    1.9212    0.1279 C   0  0  0  0  0  0  0  0  0  0  0  0
    0.8665   -0.5030   -2.3652 H   0  0  0  0  0  0  0  0  0  0  0  0
    1.7935    1.0009   -2.3521 H   0  0  0  0  0  0  0  0  0  0  0  0
    0.0281    1.0586   -2.3473 H   0  0  0  0  0  0  0  0  0  0  0  0
   -0.1728   -0.1207   -0.0212 H   0  0  0  0  0  0  0  0  0  0  0  0
    3.2564    0.2303   -0.2572 H   0  0  0  0  0  0  0  0  0  0  0  0
    0.0281    2.4784   -0.2363 H   0  0  0  0  0  0  0  0  0  0  0  0
    1.7935    2.4611   -0.1811 H   0  0  0  0  0  0  0  0  0  0  0  0
    0.8665    1.9061    1.2168 H   0  0  0  0  0  0  0  0  0  0  0  0
  1  2  3  0
  1  5  1  0
  2  3  1  0
  3  4  1  0
  3  6  1  0
  3 17  1  0
  4  7  1  0
  4  8  1  0
  4  9  1  0
 10 11  1  0
 10 14  1  0
 10 15  1  0
 10 16  1  0
 11 13  1  0
 11 12  1  0
 12 18  1  0
 13 19  1  0
 13 20  1  0
 13 21  1  0
M  RAD  1  11   2
M  END
>  <reaction>  (10) 
rxn_1918

>  <mol_properties>  (10) 
{"1": {"label": "*0", "atom_type": "Ct"}, "2": {"label": "*1", "atom_type": "Cs"}, "10": {"label": "*3", "atom_type": "Cs"}, "11": {"label": "*4", "atom_type": "S2s"}, "16": {"label": "*2", "atom_type": "H0"}}

>  <type>  (10) 
unop_6

>  <geom_source>  (10) 
Heuristics

$$$$

     RDKit          3D

 21 19  0  0  0  0  0  0  0  0999 V2000
   -2.7574    0.8919    1.7360 C   0  0  0  0  0  0  0  0  0  0  0  0
   -2.0837    0.1521    1.0777 C   0  0  0  0  0  0  0  0  0  0  0  0
   -1.2851   -0.7661    0.2721 C   0  0  0  0  0  0  0  0  0  0  0  0
   -2.0878   -1.9691   -0.2265 C   0  0  0  0  0  0  0  0  0  0  0  0
   -3.3555    1.5487    2.3204 H   0  0  0  0  0  0  0  0  0  0  0  0
   -0.4343   -1.1066    0.8675 H   0  0  0  0  0  0  0  0  0  0  0  0
   -1.4530   -2.6262   -0.8222 H   0  0  0  0  0  0  0  0  0  0  0  0
   -2.4870   -2.5414    0.6110 H   0  0  0  0  0  0  0  0  0  0  0  0
   -2.9255   -1.6456   -0.8445 H   0  0  0  0  0  0  0  0  0  0  0  0
    0.8506    0.4976   -2.1002 C   0  0  0  0  0  0  0  0  0  0  0  0
    0.8506    0.4976   -0.5779 C   0  0  0  0  0  3  0  0  0  0  0  0
    2.2056   -0.5188    0.1057 S   0  0  0  0  0  0  0  0  0  0  0  0
    0.8506    1.9076   -0.0038 C   0  0  0  0  0  0  0  0  0  0  0  0
    0.8220   -0.5166   -2.4969 H   0  0  0  0  0  0  0  0  0  0  0  0
    1.7490    0.9873   -2.4838 H   0  0  0  0  0  0  0  0  0  0  0  0
   -0.0164    1.0450   -2.4790 H   0  0  0  0  0  0  0  0  0  0  0  0
   -0.2173   -0.1343   -0.1529 H   0  0  0  0  0  0  0  0  0  0  0  0
    3.2119    0.2167   -0.3889 H   0  0  0  0  0  0  0  0  0  0  0  0
   -0.0164    2.4648   -0.3680 H   0  0  0  0  0  0  0  0  0  0  0  0
    1.7490    2.4475   -0.3128 H   0  0  0  0  0  0  0  0  0  0  0  0
    0.8220    1.8925    1.0851 H   0  0  0  0  0  0  0  0  0  0  0  0
  1  2  3  0
  1  5  1  0
  2  3  1  0
  3  4  1  0
  3  6  1  0
  3 17  1  0
  4  7  1  0
  4  8  1  0
  4  9  1  0
 10 11  1  0
 10 14  1  0
 10 15  1  0
 10 16  1  0
 11 13  1  0
 11 12  1  0
 12 18  1  0
 13 19  1  0
 13 20  1  0
 13 21  1  0
M  RAD  1  11   2
M  END
>  <reaction>  (11) 
rxn_1918

>  <mol_properties>  (11) 
{"1": {"label": "*0", "atom_type": "Ct"}, "2": {"label": "*1", "atom_type": "Cs"}, "10": {"label": "*3", "atom_type": "Cs"}, "11": {"label": "*4", "atom_type": "S2s"}, "16": {"label": "*2", "atom_type": "H0"}}

>  <type>  (11) 
unop_7

>  <geom_source>  (11) 
Heuristics

$$$$

     RDKit          3D

 21 19  0  0  0  0  0  0  0  0999 V2000
   -1.1424   -2.9347    0.5481 C   0  0  0  0  0  0  0  0  0  0  0  0
   -1.4156   -1.7777    0.4025 C   0  0  0  0  0  0  0  0  0  0  0  0
   -1.7376   -0.3624    0.2506 C   0  0  0  0  0  0  0  0  0  0  0  0
   -1.3261    0.4730    1.4643 C   0  0  0  0  0  0  0  0  0  0  0  0
   -0.8999   -3.9619    0.6774 H   0  0  0  0  0  0  0  0  0  0  0  0
   -2.8121   -0.2635    0.0770 H   0  0  0  0  0  0  0  0  0  0  0  0
   -1.5852    1.5207    1.3071 H   0  0  0  0  0  0  0  0  0  0  0  0
   -1.8330    0.1234    2.3639 H   0  0  0  0  0  0  0  0  0  0  0  0
   -0.2515    0.4050    1.6339 H   0  0  0  0  0  0  0  0  0  0  0  0
    0.3981    0.9014   -2.1217 C   0  0  0  0  0  0  0  0  0  0  0  0
    0.3981    0.9014   -0.5994 C   0  0  0  0  0  3  0  0  0  0  0  0
    1.7531   -0.1151    0.0843 S   0  0  0  0  0  0  0  0  0  0  0  0
    0.3981    2.3113   -0.0253 C   0  0  0  0  0  0  0  0  0  0  0  0
    0.3695   -0.1129   -2.5183 H   0  0  0  0  0  0  0  0  0  0  0  0
    1.2965    1.3911   -2.5053 H   0  0  0  0  0  0  0  0  0  0  0  0
   -0.4689    1.4488   -2.5005 H   0  0  0  0  0  0  0  0  0  0  0  0
   -0.6698    0.2695   -0.1744 H   0  0  0  0  0  0  0  0  0  0  0  0
    2.7594    0.6204   -0.4104 H   0  0  0  0  0  0  0  0  0  0  0  0
   -0.4689    2.8686   -0.3895 H   0  0  0  0  0  0  0  0  0  0  0  0
    1.2965    2.8513   -0.3342 H   0  0  0  0  0  0  0  0  0  0  0  0
    0.3695    2.2962    1.0636 H   0  0  0  0  0  0  0  0  0  0  0  0
  1  2  3  0
  1  5  1  0
  2  3  1  0
  3  4  1  0
  3  6  1  0
  3 17  1  0
  4  7  1  0
  4  8  1  0
  4  9  1  0
 10 11  1  0
 10 14  1  0
 10 15  1  0
 10 16  1  0
 11 13  1  0
 11 12  1  0
 12 18  1  0
 13 19  1  0
 13 20  1  0
 13 21  1  0
M  RAD  1  11   2
M  END
>  <reaction>  (12) 
rxn_1918

>  <mol_properties>  (12) 
{"1": {"label": "*0", "atom_type": "Ct"}, "2": {"label": "*1", "atom_type": "Cs"}, "10": {"label": "*3", "atom_type": "Cs"}, "11": {"label": "*4", "atom_type": "S2s"}, "16": {"label": "*2", "atom_type": "H0"}}

>  <type>  (12) 
unop_8

>  <geom_source>  (12) 
Heuristics

$$$$

     RDKit          3D

 21 19  0  0  0  0  0  0  0  0999 V2000
   -3.2556   -0.2477   -1.1414 C   0  0  0  0  0  0  0  0  0  0  0  0
   -2.3733   -0.3663   -0.3402 C   0  0  0  0  0  0  0  0  0  0  0  0
   -1.3059   -0.5376    0.6402 C   0  0  0  0  0  0  0  0  0  0  0  0
   -1.2662   -1.9472    1.2334 C   0  0  0  0  0  0  0  0  0  0  0  0
   -4.0388   -0.1424   -1.8528 H   0  0  0  0  0  0  0  0  0  0  0  0
   -1.4395    0.1984    1.4370 H   0  0  0  0  0  0  0  0  0  0  0  0
   -0.4558   -2.0291    1.9587 H   0  0  0  0  0  0  0  0  0  0  0  0
   -2.2045   -2.1813    1.7365 H   0  0  0  0  0  0  0  0  0  0  0  0
   -1.1069   -2.6908    0.4525 H   0  0  0  0  0  0  0  0  0  0  0  0
    0.8298    0.7261   -1.7321 C   0  0  0  0  0  0  0  0  0  0  0  0
    0.8298    0.7261   -0.2097 C   0  0  0  0  0  3  0  0  0  0  0  0
    2.1849   -0.2904    0.4739 S   0  0  0  0  0  0  0  0  0  0  0  0
    0.8298    2.1360    0.3643 C   0  0  0  0  0  0  0  0  0  0  0  0
    0.8012   -0.2882   -2.1287 H   0  0  0  0  0  0  0  0  0  0  0  0
    1.7283    1.2158   -2.1157 H   0  0  0  0  0  0  0  0  0  0  0  0
   -0.0371    1.2735   -2.1109 H   0  0  0  0  0  0  0  0  0  0  0  0
   -0.2380    0.0942    0.2153 H   0  0  0  0  0  0  0  0  0  0  0  0
    3.1911    0.4451   -0.0208 H   0  0  0  0  0  0  0  0  0  0  0  0
   -0.0371    2.6933    0.0002 H   0  0  0  0  0  0  0  0  0  0  0  0
    1.7283    2.6760    0.0554 H   0  0  0  0  0  0  0  0  0  0  0  0
    0.8012    2.1209    1.4533 H   0  0  0  0  0  0  0  0  0  0  0  0
  1  2  3  0
  1  5  1  0
  2  3  1  0
  3  4  1  0
  3  6  1  0
  3 17  1  0
  4  7  1  0
  4  8  1  0
  4  9  1  0
 10 11  1  0
 10 14  1  0
 10 15  1  0
 10 16  1  0
 11 13  1  0
 11 12  1  0
 12 18  1  0
 13 19  1  0
 13 20  1  0
 13 21  1  0
M  RAD  1  11   2
M  END
>  <reaction>  (13) 
rxn_1918

>  <mol_properties>  (13) 
{"1": {"label": "*0", "atom_type": "Ct"}, "2": {"label": "*1", "atom_type": "Cs"}, "10": {"label": "*3", "atom_type": "Cs"}, "11": {"label": "*4", "atom_type": "S2s"}, "16": {"label": "*2", "atom_type": "H0"}}

>  <type>  (13) 
unop_9

>  <geom_source>  (13) 
Heuristics

$$$$

     RDKit          3D

 21 19  0  0  0  0  0  0  0  0999 V2000
   -1.6141   -2.7926   -0.4797 C   0  0  0  0  0  0  0  0  0  0  0  0
   -1.6542   -1.6618   -0.0870 C   0  0  0  0  0  0  0  0  0  0  0  0
   -1.6893   -0.2918    0.4149 C   0  0  0  0  0  0  0  0  0  0  0  0
   -1.0154   -0.1429    1.7801 C   0  0  0  0  0  0  0  0  0  0  0  0
   -1.5785   -3.7965   -0.8283 H   0  0  0  0  0  0  0  0  0  0  0  0
   -2.7309    0.0332    0.4759 H   0  0  0  0  0  0  0  0  0  0  0  0
   -1.0652    0.8938    2.1149 H   0  0  0  0  0  0  0  0  0  0  0  0
   -1.5070   -0.7698    2.5242 H   0  0  0  0  0  0  0  0  0  0  0  0
    0.0325   -0.4389    1.7282 H   0  0  0  0  0  0  0  0  0  0  0  0
    0.4464    0.9719   -1.9574 C   0  0  0  0  0  0  0  0  0  0  0  0
    0.4464    0.9719   -0.4351 C   0  0  0  0  0  3  0  0  0  0  0  0
    1.8015   -0.0445    0.2485 S   0  0  0  0  0  0  0  0  0  0  0  0
    0.4464    2.3819    0.1390 C   0  0  0  0  0  0  0  0  0  0  0  0
    0.4179   -0.0423   -2.3541 H   0  0  0  0  0  0  0  0  0  0  0  0
    1.3449    1.4616   -2.3410 H   0  0  0  0  0  0  0  0  0  0  0  0
   -0.4205    1.5193   -2.3362 H   0  0  0  0  0  0  0  0  0  0  0  0
   -0.6214    0.3400   -0.0101 H   0  0  0  0  0  0  0  0  0  0  0  0
    2.8077    0.6910   -0.2461 H   0  0  0  0  0  0  0  0  0  0  0  0
   -0.4205    2.9391   -0.2252 H   0  0  0  0  0  0  0  0  0  0  0  0
    1.3449    2.9218   -0.1700 H   0  0  0  0  0  0  0  0  0  0  0  0
    0.4179    2.3668    1.2279 H   0  0  0  0  0  0  0  0  0  0  0  0
  1  2  3  0
  1  5  1  0
  2  3  1  0
  3  4  1  0
  3  6  1  0
  3 17  1  0
  4  7  1  0
  4  8  1  0
  4  9  1  0
 10 11  1  0
 10 14  1  0
 10 15  1  0
 10 16  1  0
 11 13  1  0
 11 12  1  0
 12 18  1  0
 13 19  1  0
 13 20  1  0
 13 21  1  0
M  RAD  1  11   2
M  END
>  <reaction>  (14) 
rxn_1918

>  <mol_properties>  (14) 
{"1": {"label": "*0", "atom_type": "Ct"}, "2": {"label": "*1", "atom_type": "Cs"}, "10": {"label": "*3", "atom_type": "Cs"}, "11": {"label": "*4", "atom_type": "S2s"}, "16": {"label": "*2", "atom_type": "H0"}}

>  <type>  (14) 
unop_10

>  <geom_source>  (14) 
Heuristics

$$$$

     RDKit          3D

 21 19  0  0  0  0  0  0  0  0999 V2000
   -2.0996    0.2804    2.5114 C   0  0  0  0  0  0  0  0  0  0  0  0
   -1.7494   -0.1792    1.4623 C   0  0  0  0  0  0  0  0  0  0  0  0
   -1.3495   -0.7456    0.1780 C   0  0  0  0  0  0  0  0  0  0  0  0
   -2.5338   -1.2827   -0.6277 C   0  0  0  0  0  0  0  0  0  0  0  0
   -2.4105    0.6885    3.4427 H   0  0  0  0  0  0  0  0  0  0  0  0
   -0.6269   -1.5457    0.3569 H   0  0  0  0  0  0  0  0  0  0  0  0
   -2.1891   -1.6950   -1.5767 H   0  0  0  0  0  0  0  0  0  0  0  0
   -3.0509   -2.0689   -0.0774 H   0  0  0  0  0  0  0  0  0  0  0  0
   -3.2510   -0.4888   -0.8366 H   0  0  0  0  0  0  0  0  0  0  0  0
    0.7862    0.5181   -2.1942 C   0  0  0  0  0  0  0  0  0  0  0  0
    0.7862    0.5181   -0.6719 C   0  0  0  0  0  3  0  0  0  0  0  0
    2.1412   -0.4983    0.0117 S   0  0  0  0  0  0  0  0  0  0  0  0
    0.7862    1.9281   -0.0979 C   0  0  0  0  0  0  0  0  0  0  0  0
    0.7576   -0.4961   -2.5909 H   0  0  0  0  0  0  0  0  0  0  0  0
    1.6846    1.0079   -2.5778 H   0  0  0  0  0  0  0  0  0  0  0  0
   -0.0808    1.0656   -2.5730 H   0  0  0  0  0  0  0  0  0  0  0  0
   -0.2817   -0.1137   -0.2469 H   0  0  0  0  0  0  0  0  0  0  0  0
    3.1474    0.2372   -0.4829 H   0  0  0  0  0  0  0  0  0  0  0  0
   -0.0808    2.4854   -0.4620 H   0  0  0  0  0  0  0  0  0  0  0  0
    1.6846    2.4680   -0.4068 H   0  0  0  0  0  0  0  0  0  0  0  0
    0.7576    1.9130    0.9911 H   0  0  0  0  0  0  0  0  0  0  0  0
  1  2  3  0
  1  5  1  0
  2  3  1  0
  3  4  1  0
  3  6  1  0
  3 17  1  0
  4  7  1  0
  4  8  1  0
  4  9  1  0
 10 11  1  0
 10 14  1  0
 10 15  1  0
 10 16  1  0
 11 13  1  0
 11 12  1  0
 12 18  1  0
 13 19  1  0
 13 20  1  0
 13 21  1  0
M  RAD  1  11   2
M  END
>  <reaction>  (15) 
rxn_1918

>  <mol_properties>  (15) 
{"1": {"label": "*0", "atom_type": "Ct"}, "2": {"label": "*1", "atom_type": "Cs"}, "10": {"label": "*3", "atom_type": "Cs"}, "11": {"label": "*4", "atom_type": "S2s"}, "16": {"label": "*2", "atom_type": "H0"}}

>  <type>  (15) 
unop_11

>  <geom_source>  (15) 
Heuristics

$$$$

     RDKit          3D

 21 19  0  0  0  0  0  0  0  0999 V2000
   -2.8277   -1.2418   -1.4462 C   0  0  0  0  0  0  0  0  0  0  0  0
   -2.1998   -0.8475   -0.5055 C   0  0  0  0  0  0  0  0  0  0  0  0
   -1.4327   -0.3935    0.6501 C   0  0  0  0  0  0  0  0  0  0  0  0
   -1.0260   -1.5390    1.5789 C   0  0  0  0  0  0  0  0  0  0  0  0
   -3.3852   -1.5918   -2.2812 H   0  0  0  0  0  0  0  0  0  0  0  0
   -2.0278    0.3394    1.2006 H   0  0  0  0  0  0  0  0  0  0  0  0
   -0.4566   -1.1545    2.4259 H   0  0  0  0  0  0  0  0  0  0  0  0
   -1.9055   -2.0574    1.9612 H   0  0  0  0  0  0  0  0  0  0  0  0
   -0.4092   -2.2654    1.0496 H   0  0  0  0  0  0  0  0  0  0  0  0
    0.7030    0.8702   -1.7222 C   0  0  0  0  0  0  0  0  0  0  0  0
    0.7030    0.8702   -0.1999 C   0  0  0  0  0  3  0  0  0  0  0  0
    2.0580   -0.1463    0.4837 S   0  0  0  0  0  0  0  0  0  0  0  0
    0.7030    2.2801    0.3742 C   0  0  0  0  0  0  0  0  0  0  0  0
    0.6744   -0.1441   -2.1189 H   0  0  0  0  0  0  0  0  0  0  0  0
    1.6014    1.3599   -2.1058 H   0  0  0  0  0  0  0  0  0  0  0  0
   -0.1640    1.4176   -2.1010 H   0  0  0  0  0  0  0  0  0  0  0  0
   -0.3649    0.2383    0.2251 H   0  0  0  0  0  0  0  0  0  0  0  0
    3.0643    0.5892   -0.0109 H   0  0  0  0  0  0  0  0  0  0  0  0
   -0.1640    2.8374    0.0100 H   0  0  0  0  0  0  0  0  0  0  0  0
    1.6014    2.8201    0.0652 H   0  0  0  0  0  0  0  0  0  0  0  0
    0.6744    2.2651    1.4631 H   0  0  0  0  0  0  0  0  0  0  0  0
  1  2  3  0
  1  5  1  0
  2  3  1  0
  3  4  1  0
  3  6  1  0
  3 17  1  0
  4  7  1  0
  4  8  1  0
  4  9  1  0
 10 11  1  0
 10 14  1  0
 10 15  1  0
 10 16  1  0
 11 13  1  0
 11 12  1  0
 12 18  1  0
 13 19  1  0
 13 20  1  0
 13 21  1  0
M  RAD  1  11   2
M  END
>  <reaction>  (16) 
rxn_1918

>  <mol_properties>  (16) 
{"1": {"label": "*0", "atom_type": "Ct"}, "2": {"label": "*1", "atom_type": "Cs"}, "10": {"label": "*3", "atom_type": "Cs"}, "11": {"label": "*4", "atom_type": "S2s"}, "16": {"label": "*2", "atom_type": "H0"}}

>  <type>  (16) 
unop_12

>  <geom_source>  (16) 
Heuristics

$$$$

     RDKit          3D

 21 19  0  0  0  0  0  0  0  0999 V2000
   -2.2782   -0.9849   -1.0649 S   0  0  0  0  0  0  0  0  0  0  0  0
    1.1399   -0.7839   -0.2988 C   0  0  0  0  0  3  0  0  0  0  0  0
    1.6771   -0.9787    1.1124 C   0  0  0  0  0  0  0  0  0  0  0  0
   -1.2169    1.5364   -0.7833 C   0  0  0  0  0  0  0  0  0  0  0  0
   -1.8408    0.3080    1.3296 C   0  0  0  0  0  0  0  0  0  0  0  0
   -1.2792    0.1816   -0.0844 C   0  0  0  0  0  0  0  0  0  0  0  0
    2.1519   -0.1543   -1.1539 C   0  0  0  0  0  0  0  0  0  0  0  0
    2.9829    0.3634   -1.8574 C   0  0  0  0  0  0  0  0  0  0  0  0
    0.8589   -1.7675   -0.7309 H   0  0  0  0  0  0  0  0  0  0  0  0
    0.0307    0.0148   -0.2552 H   0  0  0  0  0  0  0  0  0  0  0  0
    2.5724   -1.6369    1.0993 H   0  0  0  0  0  0  0  0  0  0  0  0
    0.8951   -1.4530    1.7415 H   0  0  0  0  0  0  0  0  0  0  0  0
    1.9458    0.0018    1.5603 H   0  0  0  0  0  0  0  0  0  0  0  0
   -0.5741    2.2327   -0.2045 H   0  0  0  0  0  0  0  0  0  0  0  0
   -2.2338    1.9736   -0.8807 H   0  0  0  0  0  0  0  0  0  0  0  0
   -0.7758    1.4151   -1.7948 H   0  0  0  0  0  0  0  0  0  0  0  0
   -1.8353   -0.6847    1.8263 H   0  0  0  0  0  0  0  0  0  0  0  0
   -1.2100    0.9986    1.9280 H   0  0  0  0  0  0  0  0  0  0  0  0
   -2.8821    0.6949    1.3035 H   0  0  0  0  0  0  0  0  0  0  0  0
   -1.8414   -2.0949   -0.3174 H   0  0  0  0  0  0  0  0  0  0  0  0
    3.7125    0.8178   -2.4748 H   0  0  0  0  0  0  0  0  0  0  0  0
  1  6  1  0
  1 20  1  0
  2  3  1  0
  2  7  1  0
  2  9  1  0
  3 11  1  0
  3 12  1  0
  3 13  1  0
  4  6  1  0
  4 14  1  0
  4 15  1  0
  4 16  1  0
  5  6  1  0
  5 17  1  0
  5 18  1  0
  5 19  1  0
  6 10  1  0
  7  8  3  0
  8 21  1  0
M  RAD  1   2   2
M  END
>  <reaction>  (17) 
rxn_1918

>  <mol_properties>  (17) 
{"1": {"label": "*0", "atom_type": "Ct"}, "2": {"label": "*1", "atom_type": "Cs"}, "10": {"label": "*3", "atom_type": "Cs"}, "11": {"label": "*4", "atom_type": "S2s"}, "16": {"label": "*2", "atom_type": "H0"}}

>  <type>  (17) 
unop_13

>  <geom_source>  (17) 
AutoTST

$$$$
