
     RDKit          3D

 10  9  0  0  0  0  0  0  0  0999 V2000
    2.2738    0.0217   -0.0992 C   0  0  0  0  0  0  0  0  0  0  0  0
    1.1083    0.2960   -0.0695 C   0  0  0  0  0  0  0  0  0  0  0  0
   -0.3173    0.6046   -0.0227 C   0  0  0  0  0  0  0  0  0  0  0  0
   -1.1561   -0.5495    0.5292 C   0  0  0  0  0  0  0  0  0  0  0  0
    3.3097   -0.2166   -0.1277 H   0  0  0  0  0  0  0  0  0  0  0  0
   -0.6542    0.8617   -1.0302 H   0  0  0  0  0  0  0  0  0  0  0  0
   -0.4633    1.4978    0.5900 H   0  0  0  0  0  0  0  0  0  0  0  0
   -0.8485   -0.7997    1.5447 H   0  0  0  0  0  0  0  0  0  0  0  0
   -2.2115   -0.2752    0.5459 H   0  0  0  0  0  0  0  0  0  0  0  0
   -1.0409   -1.4407   -0.0879 H   0  0  0  0  0  0  0  0  0  0  0  0
  1  2  3  0
  1  5  1  0
  2  3  1  0
  3  4  1  0
  3  6  1  0
  3  7  1  0
  4  8  1  0
  4  9  1  0
  4 10  1  0
M  END
>  <reaction>  (1) 
rxn_1287

>  <mol_properties>  (1) 
{"2": {"label": "donator", "atom_type": "Cs"}, "5": {"label": "d_hydrogen", "atom_type": "H0"}}

>  <type>  (1) 
r1h

$$$$

     RDKit          3D

  9  8  0  0  0  0  0  0  0  0999 V2000
    2.3991   -0.1292   -0.2384 S   0  0  0  0  0  0  0  0  0  0  0  0
    0.7460    0.2807    0.0931 C   0  0  0  0  0  3  0  0  0  0  0  0
   -0.3131   -0.5719   -0.2043 C   0  0  0  0  0  0  0  0  0  0  0  0
   -0.2286   -1.8095   -0.7775 C   0  0  0  0  0  0  0  0  0  0  0  0
    2.9373    1.0009    0.2312 H   0  0  0  0  0  0  0  0  0  0  0  0
    0.5618    1.2421    0.5487 H   0  0  0  0  0  0  0  0  0  0  0  0
   -1.2978   -0.1954    0.0537 H   0  0  0  0  0  0  0  0  0  0  0  0
    0.7207   -2.2479   -1.0607 H   0  0  0  0  0  0  0  0  0  0  0  0
   -1.1177   -2.3938   -0.9670 H   0  0  0  0  0  0  0  0  0  0  0  0
  1  2  1  0
  1  5  1  0
  2  3  1  0
  2  6  1  0
  3  4  2  3
  3  7  1  0
  4  8  1  0
  4  9  1  0
M  RAD  1   2   2
M  END
>  <reaction>  (2) 
rxn_1287

>  <mol_properties>  (2) 
{"1": {"label": "acceptor", "atom_type": "Cs"}}

>  <type>  (2) 
r2

$$$$

     RDKit          3D

 10  9  0  0  0  0  0  0  0  0999 V2000
    2.2097   -0.5315    0.2575 S   0  0  0  0  0  0  0  0  0  0  0  0
    0.5401   -0.7188   -0.4494 C   0  0  0  0  0  0  0  0  0  0  0  0
   -0.5263   -0.1678    0.4365 C   0  0  0  0  0  0  0  0  0  0  0  0
   -1.3394    0.8185    0.0912 C   0  0  0  0  0  0  0  0  0  0  0  0
    2.1701    0.8016    0.3806 H   0  0  0  0  0  0  0  0  0  0  0  0
    0.4238   -1.7978   -0.5701 H   0  0  0  0  0  0  0  0  0  0  0  0
    0.5053   -0.2663   -1.4400 H   0  0  0  0  0  0  0  0  0  0  0  0
   -0.6005   -0.6141    1.4236 H   0  0  0  0  0  0  0  0  0  0  0  0
   -2.0960    1.1907    0.7700 H   0  0  0  0  0  0  0  0  0  0  0  0
   -1.2784    1.2877   -0.8850 H   0  0  0  0  0  0  0  0  0  0  0  0
  1  2  1  0
  1  5  1  0
  2  3  1  0
  2  6  1  0
  2  7  1  0
  3  4  2  3
  3  8  1  0
  4  9  1  0
  4 10  1  0
M  END
>  <reaction>  (3) 
rxn_1287

>  <mol_properties>  (3) 
{"0": {"label": "a_hydrogen", "atom_type": "H0"}, "2": {"label": "acceptor", "atom_type": "Cs"}}

>  <type>  (3) 
r2h

$$$$

     RDKit          3D

 19 17  0  0  0  0  0  0  0  0999 V2000
   -1.5529    0.0073   -3.0016 C   0  0  0  0  0  0  0  0  0  0  0  0
   -1.5856    0.2772   -1.8292 C   0  0  0  0  0  0  0  0  0  0  0  0
   -1.5532    0.5646   -0.4375 C   0  0  0  0  0  3  0  0  0  0  0  0
   -1.0969    1.9413   -0.0168 C   0  0  0  0  0  0  0  0  0  0  0  0
   -1.5445   -0.2204   -4.0401 H   0  0  0  0  0  0  0  0  0  0  0  0
   -0.5646   -0.2290    0.0412 H   0  0  0  0  0  0  0  0  0  0  0  0
   -2.4147    0.1820    0.1078 H   0  0  0  0  0  0  0  0  0  0  0  0
   -1.8312    2.7012   -0.2947 H   0  0  0  0  0  0  0  0  0  0  0  0
   -0.9580    1.9784    1.0647 H   0  0  0  0  0  0  0  0  0  0  0  0
   -0.1514    2.1943   -0.4984 H   0  0  0  0  0  0  0  0  0  0  0  0
    0.0389   -1.1716    2.2037 S   0  0  0  0  0  0  0  0  0  0  0  0
    0.4832   -0.9330    0.4877 C   0  0  0  0  0  0  0  0  0  0  0  0
    1.6590   -0.1289    0.1907 C   0  0  0  0  0  0  0  0  0  0  0  0
    2.3833   -0.2525   -0.9240 C   0  0  0  0  0  0  0  0  0  0  0  0
    1.2290   -1.6076    2.6434 H   0  0  0  0  0  0  0  0  0  0  0  0
    0.3686   -1.8245   -0.1260 H   0  0  0  0  0  0  0  0  0  0  0  0
    1.9117    0.6411    0.9137 H   0  0  0  0  0  0  0  0  0  0  0  0
    2.1534   -1.0078   -1.6667 H   0  0  0  0  0  0  0  0  0  0  0  0
    3.2240    0.3991   -1.1225 H   0  0  0  0  0  0  0  0  0  0  0  0
  1  2  3  0
  1  5  1  0
  2  3  1  0
  3  4  1  0
  3  7  1  0
  4  8  1  0
  4  9  1  0
  4 10  1  0
  6 12  1  0
 11 12  1  0
 11 15  1  0
 12 13  1  0
 12 16  1  0
 13 14  2  3
 13 17  1  0
 14 18  1  0
 14 19  1  0
M  RAD  1   3   2
M  END
>  <reaction>  (4) 
rxn_1287

>  <mol_properties>  (4) 
{"1": {"label": "*4", "atom_type": "Ct"}, "2": {"label": "*3", "atom_type": "Cs"}, "5": {"label": "*2", "atom_type": "H0"}, "10": {"label": "*0", "atom_type": "S2s"}, "11": {"label": "*1", "atom_type": "Cs"}}

>  <type>  (4) 
ts

$$$$

     RDKit          3D

 19 17  0  0  0  0  0  0  0  0999 V2000
   -1.6152    0.6332   -3.0065 C   0  0  0  0  0  0  0  0  0  0  0  0
   -1.6152    0.6332   -1.8088 C   0  0  0  0  0  0  0  0  0  0  0  0
   -1.6152    0.6614   -0.3497 C   0  0  0  0  0  3  0  0  0  0  0  0
   -1.6151    2.0828    0.2159 C   0  0  0  0  0  0  0  0  0  0  0  0
   -1.6152    0.6332   -4.0698 H   0  0  0  0  0  0  0  0  0  0  0  0
   -0.5646    0.0073    0.0844 H   0  0  0  0  0  0  0  0  0  0  0  0
   -2.4907    0.1163    0.0120 H   0  0  0  0  0  0  0  0  0  0  0  0
   -2.4974    2.6306   -0.1155 H   0  0  0  0  0  0  0  0  0  0  0  0
   -1.6151    2.0555    1.3062 H   0  0  0  0  0  0  0  0  0  0  0  0
   -0.7329    2.6306   -0.1155 H   0  0  0  0  0  0  0  0  0  0  0  0
    1.4149    0.5969    1.4733 S   0  0  0  0  0  0  0  0  0  0  0  0
    0.4851   -0.6462    0.5180 C   0  0  0  0  0  0  0  0  0  0  0  0
    1.3453   -1.7669    0.0389 C   0  0  0  0  0  0  0  0  0  0  0  0
    1.1672   -3.0344    0.3783 C   0  0  0  0  0  0  0  0  0  0  0  0
    1.8692   -0.2453    2.4104 H   0  0  0  0  0  0  0  0  0  0  0  0
   -0.3533   -1.0147    1.1084 H   0  0  0  0  0  0  0  0  0  0  0  0
    2.1686   -1.4883   -0.6118 H   0  0  0  0  0  0  0  0  0  0  0  0
    0.3586   -3.3368    1.0352 H   0  0  0  0  0  0  0  0  0  0  0  0
    1.8210   -3.8147    0.0105 H   0  0  0  0  0  0  0  0  0  0  0  0
  1  2  3  0
  1  5  1  0
  2  3  1  0
  3  4  1  0
  3  7  1  0
  4  8  1  0
  4  9  1  0
  4 10  1  0
  6 12  1  0
 11 12  1  0
 11 15  1  0
 12 13  1  0
 12 16  1  0
 13 14  2  3
 13 17  1  0
 14 18  1  0
 14 19  1  0
M  RAD  1   3   2
M  END
>  <reaction>  (5) 
rxn_1287

>  <mol_properties>  (5) 
{"1": {"label": "*4", "atom_type": "Ct"}, "2": {"label": "*3", "atom_type": "Cs"}, "5": {"label": "*2", "atom_type": "H0"}, "10": {"label": "*0", "atom_type": "S2s"}, "11": {"label": "*1", "atom_type": "Cs"}}

>  <type>  (5) 
unop_1

>  <geom_source>  (5) 
Heuristics

$$$$

     RDKit          3D

 19 17  0  0  0  0  0  0  0  0999 V2000
   -1.5657    0.8352   -2.7416 C   0  0  0  0  0  0  0  0  0  0  0  0
   -1.5657    0.8352   -1.5439 C   0  0  0  0  0  0  0  0  0  0  0  0
   -1.5657    0.8635   -0.0847 C   0  0  0  0  0  3  0  0  0  0  0  0
   -1.5657    2.2848    0.4809 C   0  0  0  0  0  0  0  0  0  0  0  0
   -1.5657    0.8352   -3.8049 H   0  0  0  0  0  0  0  0  0  0  0  0
   -0.5151    0.2094    0.3494 H   0  0  0  0  0  0  0  0  0  0  0  0
   -2.4412    0.3184    0.2770 H   0  0  0  0  0  0  0  0  0  0  0  0
   -2.4479    2.8327    0.1494 H   0  0  0  0  0  0  0  0  0  0  0  0
   -1.5657    2.2576    1.5712 H   0  0  0  0  0  0  0  0  0  0  0  0
   -0.6835    2.8327    0.1494 H   0  0  0  0  0  0  0  0  0  0  0  0
    1.7756   -0.2066   -0.5306 S   0  0  0  0  0  0  0  0  0  0  0  0
    0.5345   -0.4441    0.7830 C   0  0  0  0  0  0  0  0  0  0  0  0
    0.5237   -1.8355    1.3213 C   0  0  0  0  0  0  0  0  0  0  0  0
    0.7773   -2.1429    2.5840 C   0  0  0  0  0  0  0  0  0  0  0  0
    2.8374   -0.5683    0.2012 H   0  0  0  0  0  0  0  0  0  0  0  0
    0.6914    0.2863    1.5761 H   0  0  0  0  0  0  0  0  0  0  0  0
    0.3084   -2.6205    0.6027 H   0  0  0  0  0  0  0  0  0  0  0  0
    1.0053   -1.3779    3.3186 H   0  0  0  0  0  0  0  0  0  0  0  0
    0.7640   -3.1687    2.9291 H   0  0  0  0  0  0  0  0  0  0  0  0
  1  2  3  0
  1  5  1  0
  2  3  1  0
  3  4  1  0
  3  7  1  0
  4  8  1  0
  4  9  1  0
  4 10  1  0
  6 12  1  0
 11 12  1  0
 11 15  1  0
 12 13  1  0
 12 16  1  0
 13 14  2  3
 13 17  1  0
 14 18  1  0
 14 19  1  0
M  RAD  1   3   2
M  END
>  <reaction>  (6) 
rxn_1287

>  <mol_properties>  (6) 
{"1": {"label": "*4", "atom_type": "Ct"}, "2": {"label": "*3", "atom_type": "Cs"}, "5": {"label": "*2", "atom_type": "H0"}, "10": {"label": "*0", "atom_type": "S2s"}, "11": {"label": "*1", "atom_type": "Cs"}}

>  <type>  (6) 
unop_2

>  <geom_source>  (6) 
Heuristics

$$$$

     RDKit          3D

 19 17  0  0  0  0  0  0  0  0999 V2000
   -1.6050    0.6054   -3.0340 C   0  0  0  0  0  0  0  0  0  0  0  0
   -1.6050    0.6054   -1.8363 C   0  0  0  0  0  0  0  0  0  0  0  0
   -1.6050    0.6336   -0.3772 C   0  0  0  0  0  3  0  0  0  0  0  0
   -1.6050    2.0550    0.1884 C   0  0  0  0  0  0  0  0  0  0  0  0
   -1.6050    0.6054   -4.0973 H   0  0  0  0  0  0  0  0  0  0  0  0
   -0.5544   -0.0205    0.0569 H   0  0  0  0  0  0  0  0  0  0  0  0
   -2.4805    0.0885   -0.0155 H   0  0  0  0  0  0  0  0  0  0  0  0
   -2.4872    2.6028   -0.1430 H   0  0  0  0  0  0  0  0  0  0  0  0
   -1.6050    2.0277    1.2787 H   0  0  0  0  0  0  0  0  0  0  0  0
   -0.7228    2.6028   -0.1430 H   0  0  0  0  0  0  0  0  0  0  0  0
    0.9039    0.1444    2.0671 S   0  0  0  0  0  0  0  0  0  0  0  0
    0.4952   -0.6740    0.4905 C   0  0  0  0  0  0  0  0  0  0  0  0
    1.7049   -1.1406   -0.2474 C   0  0  0  0  0  0  0  0  0  0  0  0
    1.9445   -2.4070   -0.5510 C   0  0  0  0  0  0  0  0  0  0  0  0
    1.5649   -0.8894    2.6040 H   0  0  0  0  0  0  0  0  0  0  0  0
   -0.2006   -1.4933    0.6689 H   0  0  0  0  0  0  0  0  0  0  0  0
    2.4198   -0.3706   -0.5214 H   0  0  0  0  0  0  0  0  0  0  0  0
    1.2511   -3.1957   -0.2792 H   0  0  0  0  0  0  0  0  0  0  0  0
    2.8401   -2.7005   -1.0833 H   0  0  0  0  0  0  0  0  0  0  0  0
  1  2  3  0
  1  5  1  0
  2  3  1  0
  3  4  1  0
  3  7  1  0
  4  8  1  0
  4  9  1  0
  4 10  1  0
  6 12  1  0
 11 12  1  0
 11 15  1  0
 12 13  1  0
 12 16  1  0
 13 14  2  3
 13 17  1  0
 14 18  1  0
 14 19  1  0
M  RAD  1   3   2
M  END
>  <reaction>  (7) 
rxn_1287

>  <mol_properties>  (7) 
{"1": {"label": "*4", "atom_type": "Ct"}, "2": {"label": "*3", "atom_type": "Cs"}, "5": {"label": "*2", "atom_type": "H0"}, "10": {"label": "*0", "atom_type": "S2s"}, "11": {"label": "*1", "atom_type": "Cs"}}

>  <type>  (7) 
unop_3

>  <geom_source>  (7) 
Heuristics

$$$$

     RDKit          3D

 19 17  0  0  0  0  0  0  0  0999 V2000
   -1.0907    0.9254   -3.0622 C   0  0  0  0  0  0  0  0  0  0  0  0
   -1.0907    0.9254   -1.8645 C   0  0  0  0  0  0  0  0  0  0  0  0
   -1.0907    0.9536   -0.4054 C   0  0  0  0  0  3  0  0  0  0  0  0
   -1.0907    2.3750    0.1602 C   0  0  0  0  0  0  0  0  0  0  0  0
   -1.0907    0.9254   -4.1256 H   0  0  0  0  0  0  0  0  0  0  0  0
   -0.0401    0.2995    0.0287 H   0  0  0  0  0  0  0  0  0  0  0  0
   -1.9662    0.4086   -0.0437 H   0  0  0  0  0  0  0  0  0  0  0  0
   -1.9729    2.9229   -0.1712 H   0  0  0  0  0  0  0  0  0  0  0  0
   -1.0907    2.3477    1.2505 H   0  0  0  0  0  0  0  0  0  0  0  0
   -0.2084    2.9229   -0.1712 H   0  0  0  0  0  0  0  0  0  0  0  0
    0.7862   -2.0370   -0.2010 S   0  0  0  0  0  0  0  0  0  0  0  0
    1.0096   -0.3540    0.4623 C   0  0  0  0  0  0  0  0  0  0  0  0
    0.3519   -0.1648    1.7880 C   0  0  0  0  0  0  0  0  0  0  0  0
    1.0005    0.1538    2.8975 C   0  0  0  0  0  0  0  0  0  0  0  0
    1.3419   -2.6796    0.8345 H   0  0  0  0  0  0  0  0  0  0  0  0
    2.0711   -0.1128    0.5086 H   0  0  0  0  0  0  0  0  0  0  0  0
   -0.7220   -0.3230    1.8117 H   0  0  0  0  0  0  0  0  0  0  0  0
    2.0745    0.3069    2.9020 H   0  0  0  0  0  0  0  0  0  0  0  0
    0.4819    0.2752    3.8398 H   0  0  0  0  0  0  0  0  0  0  0  0
  1  2  3  0
  1  5  1  0
  2  3  1  0
  3  4  1  0
  3  7  1  0
  4  8  1  0
  4  9  1  0
  4 10  1  0
  6 12  1  0
 11 12  1  0
 11 15  1  0
 12 13  1  0
 12 16  1  0
 13 14  2  3
 13 17  1  0
 14 18  1  0
 14 19  1  0
M  RAD  1   3   2
M  END
>  <reaction>  (8) 
rxn_1287

>  <mol_properties>  (8) 
{"1": {"label": "*4", "atom_type": "Ct"}, "2": {"label": "*3", "atom_type": "Cs"}, "5": {"label": "*2", "atom_type": "H0"}, "10": {"label": "*0", "atom_type": "S2s"}, "11": {"label": "*1", "atom_type": "Cs"}}

>  <type>  (8) 
unop_4

>  <geom_source>  (8) 
Heuristics

$$$$

     RDKit          3D

 19 17  0  0  0  0  0  0  0  0999 V2000
   -1.5594    0.4868   -3.0947 C   0  0  0  0  0  0  0  0  0  0  0  0
   -1.5594    0.4868   -1.8970 C   0  0  0  0  0  0  0  0  0  0  0  0
   -1.5594    0.5150   -0.4378 C   0  0  0  0  0  3  0  0  0  0  0  0
   -1.5594    1.9364    0.1278 C   0  0  0  0  0  0  0  0  0  0  0  0
   -1.5594    0.4868   -4.1580 H   0  0  0  0  0  0  0  0  0  0  0  0
   -0.5088   -0.1391   -0.0038 H   0  0  0  0  0  0  0  0  0  0  0  0
   -2.4349   -0.0301   -0.0761 H   0  0  0  0  0  0  0  0  0  0  0  0
   -2.4416    2.4842   -0.2037 H   0  0  0  0  0  0  0  0  0  0  0  0
   -1.5594    1.9091    1.2181 H   0  0  0  0  0  0  0  0  0  0  0  0
   -0.6772    2.4842   -0.2037 H   0  0  0  0  0  0  0  0  0  0  0  0
    0.4134   -0.6772    2.2445 S   0  0  0  0  0  0  0  0  0  0  0  0
    0.5408   -0.7926    0.4299 C   0  0  0  0  0  0  0  0  0  0  0  0
    1.7970   -0.1867   -0.0996 C   0  0  0  0  0  0  0  0  0  0  0  0
    2.7171   -0.8598   -0.7732 C   0  0  0  0  0  0  0  0  0  0  0  0
    1.5492   -1.3336    2.5151 H   0  0  0  0  0  0  0  0  0  0  0  0
    0.4398   -1.8316    0.1176 H   0  0  0  0  0  0  0  0  0  0  0  0
    1.9415    0.8681    0.1136 H   0  0  0  0  0  0  0  0  0  0  0  0
    2.6010   -1.9163   -0.9899 H   0  0  0  0  0  0  0  0  0  0  0  0
    3.6175   -0.3792   -1.1337 H   0  0  0  0  0  0  0  0  0  0  0  0
  1  2  3  0
  1  5  1  0
  2  3  1  0
  3  4  1  0
  3  7  1  0
  4  8  1  0
  4  9  1  0
  4 10  1  0
  6 12  1  0
 11 12  1  0
 11 15  1  0
 12 13  1  0
 12 16  1  0
 13 14  2  3
 13 17  1  0
 14 18  1  0
 14 19  1  0
M  RAD  1   3   2
M  END
>  <reaction>  (9) 
rxn_1287

>  <mol_properties>  (9) 
{"1": {"label": "*4", "atom_type": "Ct"}, "2": {"label": "*3", "atom_type": "Cs"}, "5": {"label": "*2", "atom_type": "H0"}, "10": {"label": "*0", "atom_type": "S2s"}, "11": {"label": "*1", "atom_type": "Cs"}}

>  <type>  (9) 
unop_5

>  <geom_source>  (9) 
Heuristics

$$$$

     RDKit          3D

 19 17  0  0  0  0  0  0  0  0999 V2000
   -1.0874    0.7560   -3.2081 C   0  0  0  0  0  0  0  0  0  0  0  0
   -1.0874    0.7560   -2.0104 C   0  0  0  0  0  0  0  0  0  0  0  0
   -1.0874    0.7842   -0.5513 C   0  0  0  0  0  3  0  0  0  0  0  0
   -1.0874    2.2056    0.0143 C   0  0  0  0  0  0  0  0  0  0  0  0
   -1.0874    0.7560   -4.2714 H   0  0  0  0  0  0  0  0  0  0  0  0
   -0.0368    0.1301   -0.1172 H   0  0  0  0  0  0  0  0  0  0  0  0
   -1.9629    0.2392   -0.1896 H   0  0  0  0  0  0  0  0  0  0  0  0
   -1.9696    2.7535   -0.3171 H   0  0  0  0  0  0  0  0  0  0  0  0
   -1.0874    2.1783    1.1046 H   0  0  0  0  0  0  0  0  0  0  0  0
   -0.2052    2.7534   -0.3171 H   0  0  0  0  0  0  0  0  0  0  0  0
    0.4228   -2.2391    0.4913 S   0  0  0  0  0  0  0  0  0  0  0  0
    1.0128   -0.5234    0.3164 C   0  0  0  0  0  0  0  0  0  0  0  0
    0.6525    0.3321    1.4844 C   0  0  0  0  0  0  0  0  0  0  0  0
    1.5387    0.9327    2.2636 C   0  0  0  0  0  0  0  0  0  0  0  0
    1.0631   -2.5001    1.6384 H   0  0  0  0  0  0  0  0  0  0  0  0
    2.0877   -0.5185    0.1383 H   0  0  0  0  0  0  0  0  0  0  0  0
   -0.4090    0.4322    1.6895 H   0  0  0  0  0  0  0  0  0  0  0  0
    2.6048    0.8396    2.0858 H   0  0  0  0  0  0  0  0  0  0  0  0
    1.2310    1.5401    3.1050 H   0  0  0  0  0  0  0  0  0  0  0  0
  1  2  3  0
  1  5  1  0
  2  3  1  0
  3  4  1  0
  3  7  1  0
  4  8  1  0
  4  9  1  0
  4 10  1  0
  6 12  1  0
 11 12  1  0
 11 15  1  0
 12 13  1  0
 12 16  1  0
 13 14  2  3
 13 17  1  0
 14 18  1  0
 14 19  1  0
M  RAD  1   3   2
M  END
>  <reaction>  (10) 
rxn_1287

>  <mol_properties>  (10) 
{"1": {"label": "*4", "atom_type": "Ct"}, "2": {"label": "*3", "atom_type": "Cs"}, "5": {"label": "*2", "atom_type": "H0"}, "10": {"label": "*0", "atom_type": "S2s"}, "11": {"label": "*1", "atom_type": "Cs"}}

>  <type>  (10) 
unop_6

>  <geom_source>  (10) 
Heuristics

$$$$

     RDKit          3D

 19 17  0  0  0  0  0  0  0  0999 V2000
   -1.1909    0.5642   -3.2694 C   0  0  0  0  0  0  0  0  0  0  0  0
   -1.1909    0.5642   -2.0717 C   0  0  0  0  0  0  0  0  0  0  0  0
   -1.1909    0.5925   -0.6125 C   0  0  0  0  0  3  0  0  0  0  0  0
   -1.1909    2.0138   -0.0469 C   0  0  0  0  0  0  0  0  0  0  0  0
   -1.1909    0.5642   -4.3327 H   0  0  0  0  0  0  0  0  0  0  0  0
   -0.1404   -0.0616   -0.1785 H   0  0  0  0  0  0  0  0  0  0  0  0
   -2.0665    0.0474   -0.2508 H   0  0  0  0  0  0  0  0  0  0  0  0
   -2.0732    2.5617   -0.3784 H   0  0  0  0  0  0  0  0  0  0  0  0
   -1.1909    1.9866    1.0434 H   0  0  0  0  0  0  0  0  0  0  0  0
   -0.3087    2.5617   -0.3784 H   0  0  0  0  0  0  0  0  0  0  0  0
    0.2054   -2.0628    1.2605 S   0  0  0  0  0  0  0  0  0  0  0  0
    0.9093   -0.7151    0.2552 C   0  0  0  0  0  0  0  0  0  0  0  0
    1.0216    0.5678    1.0083 C   0  0  0  0  0  0  0  0  0  0  0  0
    2.1656    1.1935    1.2385 C   0  0  0  0  0  0  0  0  0  0  0  0
    1.1284   -2.0224    2.2302 H   0  0  0  0  0  0  0  0  0  0  0  0
    1.8726   -1.0216   -0.1512 H   0  0  0  0  0  0  0  0  0  0  0  0
    0.0913    0.9759    1.3916 H   0  0  0  0  0  0  0  0  0  0  0  0
    3.1093    0.8009    0.8752 H   0  0  0  0  0  0  0  0  0  0  0  0
    2.1999    2.1208    1.7958 H   0  0  0  0  0  0  0  0  0  0  0  0
  1  2  3  0
  1  5  1  0
  2  3  1  0
  3  4  1  0
  3  7  1  0
  4  8  1  0
  4  9  1  0
  4 10  1  0
  6 12  1  0
 11 12  1  0
 11 15  1  0
 12 13  1  0
 12 16  1  0
 13 14  2  3
 13 17  1  0
 14 18  1  0
 14 19  1  0
M  RAD  1   3   2
M  END
>  <reaction>  (11) 
rxn_1287

>  <mol_properties>  (11) 
{"1": {"label": "*4", "atom_type": "Ct"}, "2": {"label": "*3", "atom_type": "Cs"}, "5": {"label": "*2", "atom_type": "H0"}, "10": {"label": "*0", "atom_type": "S2s"}, "11": {"label": "*1", "atom_type": "Cs"}}

>  <type>  (11) 
unop_7

>  <geom_source>  (11) 
Heuristics

$$$$

     RDKit          3D

 19 17  0  0  0  0  0  0  0  0999 V2000
   -1.6407    0.6410   -2.9344 C   0  0  0  0  0  0  0  0  0  0  0  0
   -1.6407    0.6410   -1.7367 C   0  0  0  0  0  0  0  0  0  0  0  0
   -1.6407    0.6692   -0.2775 C   0  0  0  0  0  3  0  0  0  0  0  0
   -1.6407    2.0906    0.2881 C   0  0  0  0  0  0  0  0  0  0  0  0
   -1.6407    0.6410   -3.9977 H   0  0  0  0  0  0  0  0  0  0  0  0
   -0.5901    0.0151    0.1566 H   0  0  0  0  0  0  0  0  0  0  0  0
   -2.5162    0.1242    0.0842 H   0  0  0  0  0  0  0  0  0  0  0  0
   -2.5229    2.6385   -0.0434 H   0  0  0  0  0  0  0  0  0  0  0  0
   -1.6407    2.0633    1.3784 H   0  0  0  0  0  0  0  0  0  0  0  0
   -0.7584    2.6384   -0.0434 H   0  0  0  0  0  0  0  0  0  0  0  0
    1.7560    0.6375    0.7072 S   0  0  0  0  0  0  0  0  0  0  0  0
    0.4595   -0.6384    0.5902 C   0  0  0  0  0  0  0  0  0  0  0  0
    1.0164   -2.0186    0.4870 C   0  0  0  0  0  0  0  0  0  0  0  0
    0.7873   -2.9775    1.3709 C   0  0  0  0  0  0  0  0  0  0  0  0
    2.3443    0.1508    1.8077 H   0  0  0  0  0  0  0  0  0  0  0  0
   -0.2241   -0.5491    1.4339 H   0  0  0  0  0  0  0  0  0  0  0  0
    1.6585   -2.2083   -0.3677 H   0  0  0  0  0  0  0  0  0  0  0  0
    0.1581   -2.8098    2.2385 H   0  0  0  0  0  0  0  0  0  0  0  0
    1.2180   -3.9641    1.2583 H   0  0  0  0  0  0  0  0  0  0  0  0
  1  2  3  0
  1  5  1  0
  2  3  1  0
  3  4  1  0
  3  7  1  0
  4  8  1  0
  4  9  1  0
  4 10  1  0
  6 12  1  0
 11 12  1  0
 11 15  1  0
 12 13  1  0
 12 16  1  0
 13 14  2  3
 13 17  1  0
 14 18  1  0
 14 19  1  0
M  RAD  1   3   2
M  END
>  <reaction>  (12) 
rxn_1287

>  <mol_properties>  (12) 
{"1": {"label": "*4", "atom_type": "Ct"}, "2": {"label": "*3", "atom_type": "Cs"}, "5": {"label": "*2", "atom_type": "H0"}, "10": {"label": "*0", "atom_type": "S2s"}, "11": {"label": "*1", "atom_type": "Cs"}}

>  <type>  (12) 
unop_8

>  <geom_source>  (12) 
Heuristics

$$$$

     RDKit          3D

 19 17  0  0  0  0  0  0  0  0999 V2000
   -1.2056    1.0119   -2.8855 C   0  0  0  0  0  0  0  0  0  0  0  0
   -1.2056    1.0119   -1.6878 C   0  0  0  0  0  0  0  0  0  0  0  0
   -1.2056    1.0401   -0.2286 C   0  0  0  0  0  3  0  0  0  0  0  0
   -1.2055    2.4615    0.3370 C   0  0  0  0  0  0  0  0  0  0  0  0
   -1.2056    1.0119   -3.9488 H   0  0  0  0  0  0  0  0  0  0  0  0
   -0.1550    0.3860    0.2054 H   0  0  0  0  0  0  0  0  0  0  0  0
   -2.0811    0.4951    0.1331 H   0  0  0  0  0  0  0  0  0  0  0  0
   -2.0878    3.0094    0.0055 H   0  0  0  0  0  0  0  0  0  0  0  0
   -1.2055    2.4342    1.4273 H   0  0  0  0  0  0  0  0  0  0  0  0
   -0.3233    3.0094    0.0055 H   0  0  0  0  0  0  0  0  0  0  0  0
    1.1925   -1.5257   -0.6456 S   0  0  0  0  0  0  0  0  0  0  0  0
    0.8947   -0.2675    0.6391 C   0  0  0  0  0  0  0  0  0  0  0  0
    0.2073   -0.8224    1.8413 C   0  0  0  0  0  0  0  0  0  0  0  0
    0.7263   -0.8171    3.0594 C   0  0  0  0  0  0  0  0  0  0  0  0
    1.9139   -2.3534    0.1216 H   0  0  0  0  0  0  0  0  0  0  0  0
    1.8334    0.2162    0.9074 H   0  0  0  0  0  0  0  0  0  0  0  0
   -0.7686   -1.2656    1.6674 H   0  0  0  0  0  0  0  0  0  0  0  0
    1.7037   -0.3898    3.2570 H   0  0  0  0  0  0  0  0  0  0  0  0
    0.1929   -1.2370    3.9024 H   0  0  0  0  0  0  0  0  0  0  0  0
  1  2  3  0
  1  5  1  0
  2  3  1  0
  3  4  1  0
  3  7  1  0
  4  8  1  0
  4  9  1  0
  4 10  1  0
  6 12  1  0
 11 12  1  0
 11 15  1  0
 12 13  1  0
 12 16  1  0
 13 14  2  3
 13 17  1  0
 14 18  1  0
 14 19  1  0
M  RAD  1   3   2
M  END
>  <reaction>  (13) 
rxn_1287

>  <mol_properties>  (13) 
{"1": {"label": "*4", "atom_type": "Ct"}, "2": {"label": "*3", "atom_type": "Cs"}, "5": {"label": "*2", "atom_type": "H0"}, "10": {"label": "*0", "atom_type": "S2s"}, "11": {"label": "*1", "atom_type": "Cs"}}

>  <type>  (13) 
unop_9

>  <geom_source>  (13) 
Heuristics

$$$$

     RDKit          3D

 19 17  0  0  0  0  0  0  0  0999 V2000
   -1.6414    0.7034   -2.8260 C   0  0  0  0  0  0  0  0  0  0  0  0
   -1.6414    0.7034   -1.6283 C   0  0  0  0  0  0  0  0  0  0  0  0
   -1.6414    0.7316   -0.1691 C   0  0  0  0  0  3  0  0  0  0  0  0
   -1.6414    2.1530    0.3965 C   0  0  0  0  0  0  0  0  0  0  0  0
   -1.6414    0.7034   -3.8893 H   0  0  0  0  0  0  0  0  0  0  0  0
   -0.5908    0.0775    0.2649 H   0  0  0  0  0  0  0  0  0  0  0  0
   -2.5169    0.1866    0.1926 H   0  0  0  0  0  0  0  0  0  0  0  0
   -2.5236    2.7009    0.0650 H   0  0  0  0  0  0  0  0  0  0  0  0
   -1.6414    2.1257    1.4868 H   0  0  0  0  0  0  0  0  0  0  0  0
   -0.7591    2.7009    0.0650 H   0  0  0  0  0  0  0  0  0  0  0  0
    1.8693    0.3318   -0.0148 S   0  0  0  0  0  0  0  0  0  0  0  0
    0.4588   -0.5760    0.6986 C   0  0  0  0  0  0  0  0  0  0  0  0
    0.7604   -2.0181    0.9329 C   0  0  0  0  0  0  0  0  0  0  0  0
    0.7305   -2.5969    2.1235 C   0  0  0  0  0  0  0  0  0  0  0  0
    2.7350    0.0587    0.9699 H   0  0  0  0  0  0  0  0  0  0  0  0
    0.1292   -0.0862    1.6144 H   0  0  0  0  0  0  0  0  0  0  0  0
    1.0345   -2.5943    0.0544 H   0  0  0  0  0  0  0  0  0  0  0  0
    0.4699   -2.0406    3.0176 H   0  0  0  0  0  0  0  0  0  0  0  0
    0.9628   -3.6468    2.2471 H   0  0  0  0  0  0  0  0  0  0  0  0
  1  2  3  0
  1  5  1  0
  2  3  1  0
  3  4  1  0
  3  7  1  0
  4  8  1  0
  4  9  1  0
  4 10  1  0
  6 12  1  0
 11 12  1  0
 11 15  1  0
 12 13  1  0
 12 16  1  0
 13 14  2  3
 13 17  1  0
 14 18  1  0
 14 19  1  0
M  RAD  1   3   2
M  END
>  <reaction>  (14) 
rxn_1287

>  <mol_properties>  (14) 
{"1": {"label": "*4", "atom_type": "Ct"}, "2": {"label": "*3", "atom_type": "Cs"}, "5": {"label": "*2", "atom_type": "H0"}, "10": {"label": "*0", "atom_type": "S2s"}, "11": {"label": "*1", "atom_type": "Cs"}}

>  <type>  (14) 
unop_10

>  <geom_source>  (14) 
Heuristics

$$$$

     RDKit          3D

 19 17  0  0  0  0  0  0  0  0999 V2000
   -1.3793    0.4380   -3.2179 C   0  0  0  0  0  0  0  0  0  0  0  0
   -1.3793    0.4380   -2.0202 C   0  0  0  0  0  0  0  0  0  0  0  0
   -1.3793    0.4663   -0.5611 C   0  0  0  0  0  3  0  0  0  0  0  0
   -1.3792    1.8876    0.0046 C   0  0  0  0  0  0  0  0  0  0  0  0
   -1.3793    0.4380   -4.2812 H   0  0  0  0  0  0  0  0  0  0  0  0
   -0.3287   -0.1878   -0.1270 H   0  0  0  0  0  0  0  0  0  0  0  0
   -2.2548   -0.0788   -0.1993 H   0  0  0  0  0  0  0  0  0  0  0  0
   -2.2615    2.4355   -0.3269 H   0  0  0  0  0  0  0  0  0  0  0  0
   -1.3793    1.8604    1.0948 H   0  0  0  0  0  0  0  0  0  0  0  0
   -0.4970    2.4355   -0.3269 H   0  0  0  0  0  0  0  0  0  0  0  0
    0.1864   -1.5188    1.9122 S   0  0  0  0  0  0  0  0  0  0  0  0
    0.7210   -0.8414    0.3067 C   0  0  0  0  0  0  0  0  0  0  0  0
    1.4410    0.4584    0.4402 C   0  0  0  0  0  0  0  0  0  0  0  0
    2.6933    0.6539    0.0571 C   0  0  0  0  0  0  0  0  0  0  0  0
    1.4052   -1.5694    2.4652 H   0  0  0  0  0  0  0  0  0  0  0  0
    1.3263   -1.5772   -0.2218 H   0  0  0  0  0  0  0  0  0  0  0  0
    0.8800    1.2665    0.8998 H   0  0  0  0  0  0  0  0  0  0  0  0
    3.2781   -0.1402   -0.3949 H   0  0  0  0  0  0  0  0  0  0  0  0
    3.1779    1.6140    0.1791 H   0  0  0  0  0  0  0  0  0  0  0  0
  1  2  3  0
  1  5  1  0
  2  3  1  0
  3  4  1  0
  3  7  1  0
  4  8  1  0
  4  9  1  0
  4 10  1  0
  6 12  1  0
 11 12  1  0
 11 15  1  0
 12 13  1  0
 12 16  1  0
 13 14  2  3
 13 17  1  0
 14 18  1  0
 14 19  1  0
M  RAD  1   3   2
M  END
>  <reaction>  (15) 
rxn_1287

>  <mol_properties>  (15) 
{"1": {"label": "*4", "atom_type": "Ct"}, "2": {"label": "*3", "atom_type": "Cs"}, "5": {"label": "*2", "atom_type": "H0"}, "10": {"label": "*0", "atom_type": "S2s"}, "11": {"label": "*1", "atom_type": "Cs"}}

>  <type>  (15) 
unop_11

>  <geom_source>  (15) 
Heuristics

$$$$

     RDKit          3D

 19 17  0  0  0  0  0  0  0  0999 V2000
   -1.3968    0.9727   -2.7559 C   0  0  0  0  0  0  0  0  0  0  0  0
   -1.3968    0.9727   -1.5582 C   0  0  0  0  0  0  0  0  0  0  0  0
   -1.3968    1.0009   -0.0991 C   0  0  0  0  0  3  0  0  0  0  0  0
   -1.3968    2.4223    0.4665 C   0  0  0  0  0  0  0  0  0  0  0  0
   -1.3968    0.9727   -3.8192 H   0  0  0  0  0  0  0  0  0  0  0  0
   -0.3462    0.3468    0.3350 H   0  0  0  0  0  0  0  0  0  0  0  0
   -2.2723    0.4559    0.2626 H   0  0  0  0  0  0  0  0  0  0  0  0
   -2.2790    2.9702    0.1351 H   0  0  0  0  0  0  0  0  0  0  0  0
   -1.3968    2.3950    1.5568 H   0  0  0  0  0  0  0  0  0  0  0  0
   -0.5146    2.9702    0.1351 H   0  0  0  0  0  0  0  0  0  0  0  0
    1.5373   -0.8620   -0.7541 S   0  0  0  0  0  0  0  0  0  0  0  0
    0.7034   -0.3067    0.7686 C   0  0  0  0  0  0  0  0  0  0  0  0
    0.2944   -1.4402    1.6482 C   0  0  0  0  0  0  0  0  0  0  0  0
    0.7360   -1.6148    2.8843 C   0  0  0  0  0  0  0  0  0  0  0  0
    2.5271   -1.5290   -0.1465 H   0  0  0  0  0  0  0  0  0  0  0  0
    1.3394    0.3992    1.3019 H   0  0  0  0  0  0  0  0  0  0  0  0
   -0.3944   -2.1560    1.2100 H   0  0  0  0  0  0  0  0  0  0  0  0
    1.4324   -0.9196    3.3407 H   0  0  0  0  0  0  0  0  0  0  0  0
    0.4159   -2.4567    3.4846 H   0  0  0  0  0  0  0  0  0  0  0  0
  1  2  3  0
  1  5  1  0
  2  3  1  0
  3  4  1  0
  3  7  1  0
  4  8  1  0
  4  9  1  0
  4 10  1  0
  6 12  1  0
 11 12  1  0
 11 15  1  0
 12 13  1  0
 12 16  1  0
 13 14  2  3
 13 17  1  0
 14 18  1  0
 14 19  1  0
M  RAD  1   3   2
M  END
>  <reaction>  (16) 
rxn_1287

>  <mol_properties>  (16) 
{"1": {"label": "*4", "atom_type": "Ct"}, "2": {"label": "*3", "atom_type": "Cs"}, "5": {"label": "*2", "atom_type": "H0"}, "10": {"label": "*0", "atom_type": "S2s"}, "11": {"label": "*1", "atom_type": "Cs"}}

>  <type>  (16) 
unop_12

>  <geom_source>  (16) 
Heuristics

$$$$

     RDKit          3D

 19 17  0  0  0  0  0  0  0  0999 V2000
   -2.4180   -1.2116    1.2105 S   0  0  0  0  0  0  0  0  0  0  0  0
   -1.5120    0.2326    0.5771 C   0  0  0  0  0  0  0  0  0  0  0  0
    1.9110   -0.2139    1.5298 C   0  0  0  0  0  0  0  0  0  0  0  0
   -1.9807    0.5775   -0.8040 C   0  0  0  0  0  0  0  0  0  0  0  0
    1.1001    0.4144    0.4058 C   0  0  0  0  0  3  0  0  0  0  0  0
   -1.7101   -0.2098   -1.8482 C   0  0  0  0  0  0  0  0  0  0  0  0
    1.7089    0.1277   -0.8977 C   0  0  0  0  0  0  0  0  0  0  0  0
    2.2085   -0.1076   -1.9694 C   0  0  0  0  0  0  0  0  0  0  0  0
   -1.6944    1.0938    1.2539 H   0  0  0  0  0  0  0  0  0  0  0  0
   -0.1926   -0.0314    0.5595 H   0  0  0  0  0  0  0  0  0  0  0  0
    1.4234    0.0087    2.5017 H   0  0  0  0  0  0  0  0  0  0  0  0
    2.9423    0.2000    1.5430 H   0  0  0  0  0  0  0  0  0  0  0  0
    1.9554   -1.3163    1.4003 H   0  0  0  0  0  0  0  0  0  0  0  0
   -2.5242    1.5041   -0.9634 H   0  0  0  0  0  0  0  0  0  0  0  0
    1.0380    1.5135    0.5509 H   0  0  0  0  0  0  0  0  0  0  0  0
   -2.0472    0.0698   -2.8410 H   0  0  0  0  0  0  0  0  0  0  0  0
   -1.1529   -1.1333   -1.7217 H   0  0  0  0  0  0  0  0  0  0  0  0
   -1.7028   -1.2041    2.4229 H   0  0  0  0  0  0  0  0  0  0  0  0
    2.6472   -0.3142   -2.9100 H   0  0  0  0  0  0  0  0  0  0  0  0
  1  2  1  0
  1 18  1  0
  2  4  1  0
  2  9  1  0
  2 10  1  0
  3  5  1  0
  3 11  1  0
  3 12  1  0
  3 13  1  0
  4  6  2  3
  4 14  1  0
  5  7  1  0
  5 15  1  0
  6 16  1  0
  6 17  1  0
  7  8  3  0
  8 19  1  0
M  RAD  1   5   2
M  END
>  <reaction>  (17) 
rxn_1287

>  <mol_properties>  (17) 
{"1": {"label": "*4", "atom_type": "Ct"}, "2": {"label": "*3", "atom_type": "Cs"}, "5": {"label": "*2", "atom_type": "H0"}, "10": {"label": "*0", "atom_type": "S2s"}, "11": {"label": "*1", "atom_type": "Cs"}}

>  <type>  (17) 
unop_13

>  <geom_source>  (17) 
AutoTST

$$$$

     RDKit          3D

 19 17  0  0  0  0  0  0  0  0999 V2000
   -1.5657    0.8352   -2.7416 C   0  0  0  0  0  0  0  0  0  0  0  0
   -1.5657    0.8352   -1.5438 C   0  0  0  0  0  0  0  0  0  0  0  0
   -1.5657    0.8635   -0.0847 C   0  0  0  0  0  3  0  0  0  0  0  0
   -1.5657    2.2848    0.4809 C   0  0  0  0  0  0  0  0  0  0  0  0
   -1.5657    0.8352   -3.8049 H   0  0  0  0  0  0  0  0  0  0  0  0
   -0.5151    0.2094    0.3493 H   0  0  0  0  0  0  0  0  0  0  0  0
   -2.4412    0.3184    0.2770 H   0  0  0  0  0  0  0  0  0  0  0  0
   -2.4479    2.8327    0.1494 H   0  0  0  0  0  0  0  0  0  0  0  0
   -1.5657    2.2576    1.5712 H   0  0  0  0  0  0  0  0  0  0  0  0
   -0.6835    2.8327    0.1494 H   0  0  0  0  0  0  0  0  0  0  0  0
    1.7756   -0.2066   -0.5306 S   0  0  0  0  0  0  0  0  0  0  0  0
    0.5345   -0.4441    0.7830 C   0  0  0  0  0  0  0  0  0  0  0  0
    0.5237   -1.8355    1.3213 C   0  0  0  0  0  0  0  0  0  0  0  0
    0.7773   -2.1429    2.5840 C   0  0  0  0  0  0  0  0  0  0  0  0
    2.8374   -0.5684    0.2012 H   0  0  0  0  0  0  0  0  0  0  0  0
    0.6914    0.2863    1.5761 H   0  0  0  0  0  0  0  0  0  0  0  0
    0.3084   -2.6205    0.6027 H   0  0  0  0  0  0  0  0  0  0  0  0
    1.0053   -1.3780    3.3186 H   0  0  0  0  0  0  0  0  0  0  0  0
    0.7640   -3.1687    2.9291 H   0  0  0  0  0  0  0  0  0  0  0  0
  1  2  3  0
  1  5  1  0
  2  3  1  0
  3  4  1  0
  3  7  1  0
  4  8  1  0
  4  9  1  0
  4 10  1  0
  6 12  1  0
 11 12  1  0
 11 15  1  0
 12 13  1  0
 12 16  1  0
 13 14  2  3
 13 17  1  0
 14 18  1  0
 14 19  1  0
M  RAD  1   3   2
M  END
>  <reaction>  (18) 
rxn_1287

>  <mol_properties>  (18) 
{"1": {"label": "*4", "atom_type": "Ct"}, "2": {"label": "*3", "atom_type": "Cs"}, "5": {"label": "*2", "atom_type": "H0"}, "10": {"label": "*0", "atom_type": "S2s"}, "11": {"label": "*1", "atom_type": "Cs"}}

>  <type>  (18) 
unop_14

>  <geom_source>  (18) 
gaussian_log

$$$$
