
     RDKit          3D

  5  4  0  0  0  0  0  0  0  0999 V2000
    0.0000    0.0000    0.0000 C   0  0  0  0  0  0  0  0  0  0  0  0
   -0.6486   -0.7720   -0.4113 H   0  0  0  0  0  0  0  0  0  0  0  0
   -0.3482    0.9787   -0.3267 H   0  0  0  0  0  0  0  0  0  0  0  0
   -0.0223   -0.0487    1.0876 H   0  0  0  0  0  0  0  0  0  0  0  0
    1.0191   -0.1580   -0.3496 H   0  0  0  0  0  0  0  0  0  0  0  0
  1  2  1  0
  1  3  1  0
  1  4  1  0
  1  5  1  0
M  END
>  <reaction>  (1) 
rxn_857

>  <mol_properties>  (1) 
{"0": {"label": "donator", "atom_type": "Cs"}, "1": {"label": "d_hydrogen", "atom_type": "H0"}}

>  <type>  (1) 
r1h

$$$$

     RDKit          3D

  7  6  0  0  0  0  0  0  0  0999 V2000
    1.8092   -0.3013   -0.2242 S   0  0  0  0  0  0  0  0  0  0  0  0
    0.1552   -0.6967   -0.1137 C   0  0  0  0  0  0  0  0  0  0  0  0
   -0.8921    0.1788    0.1148 C   0  0  0  0  0  0  0  0  0  0  0  0
   -0.7548    1.8245    0.3328 S   0  0  0  0  0  1  0  0  0  0  0  0
    1.6168    1.0210   -0.0187 H   0  0  0  0  0  0  0  0  0  0  0  0
   -0.0550   -1.7522   -0.2412 H   0  0  0  0  0  0  0  0  0  0  0  0
   -1.8791   -0.2740    0.1502 H   0  0  0  0  0  0  0  0  0  0  0  0
  1  2  1  0
  1  5  1  0
  2  3  2  3
  2  6  1  0
  3  4  1  0
  3  7  1  0
M  RAD  1   4   2
M  END
>  <reaction>  (2) 
rxn_857

>  <mol_properties>  (2) 
{"1": {"label": "acceptor", "atom_type": "Cs"}}

>  <type>  (2) 
r2

$$$$

     RDKit          3D

  8  7  0  0  0  0  0  0  0  0999 V2000
    1.7301   -0.0562    0.5281 S   0  0  0  0  0  0  0  0  0  0  0  0
    0.1858    0.6127   -0.1669 C   0  0  0  0  0  0  0  0  0  0  0  0
   -0.9621   -0.2567    0.2171 C   0  0  0  0  0  0  0  0  0  0  0  0
   -1.8663   -1.1002   -0.8086 S   0  0  0  0  0  0  0  0  0  0  0  0
    1.7025   -1.2092   -0.1540 H   0  0  0  0  0  0  0  0  0  0  0  0
    0.2619    0.7246   -1.2458 H   0  0  0  0  0  0  0  0  0  0  0  0
    0.0809    1.5982    0.2929 H   0  0  0  0  0  0  0  0  0  0  0  0
   -1.1456   -0.3126    1.2907 H   0  0  0  0  0  0  0  0  0  0  0  0
  1  2  1  0
  1  5  1  0
  2  3  1  0
  2  6  1  0
  2  7  1  0
  3  4  2  0
  3  8  1  0
M  END
>  <reaction>  (3) 
rxn_857

>  <mol_properties>  (3) 
{"1": {"label": "acceptor", "atom_type": "Cs"}, "7": {"label": "a_hydrogen", "atom_type": "H0"}}

>  <type>  (3) 
r2h

$$$$

     RDKit          3D

 12 10  0  0  0  0  0  0  0  0999 V2000
   -1.8386   -0.0228    0.5035 S   0  0  0  0  0  0  0  0  0  0  0  0
   -0.1259   -0.4248    0.8012 C   0  0  0  0  0  0  0  0  0  0  0  0
    0.9338    0.4419    0.2754 C   0  0  0  0  0  0  0  0  0  0  0  0
    0.8274    1.5237   -0.9190 S   0  0  0  0  0  0  0  0  0  0  0  0
   -1.5995    0.7018   -0.6032 H   0  0  0  0  0  0  0  0  0  0  0  0
    0.0190   -0.6537    1.8568 H   0  0  0  0  0  0  0  0  0  0  0  0
    1.9072    0.2451    0.7264 H   0  0  0  0  0  0  0  0  0  0  0  0
    0.2365   -2.8614   -0.4591 C   0  0  0  0  0  3  0  0  0  0  0  0
    0.1066   -1.4966    0.2678 H   0  0  0  0  0  0  0  0  0  0  0  0
    0.2010   -2.5050   -1.4816 H   0  0  0  0  0  0  0  0  0  0  0  0
    1.1905   -3.2361   -0.1080 H   0  0  0  0  0  0  0  0  0  0  0  0
   -0.6510   -3.3614   -0.0918 H   0  0  0  0  0  0  0  0  0  0  0  0
  1  2  1  0
  1  5  1  0
  2  3  1  0
  2  6  1  0
  2  9  1  0
  3  4  2  0
  3  7  1  0
  8 10  1  0
  8 11  1  0
  8 12  1  0
M  RAD  1   8   2
M  END
>  <reaction>  (4) 
rxn_857

>  <mol_properties>  (4) 
{"1": {"label": "*1", "atom_type": "Cs"}, "2": {"label": "*0", "atom_type": "CS"}, "7": {"label": "*3", "atom_type": "Cs"}, "8": {"label": "*2", "atom_type": "H0"}, "9": {"label": "*4", "atom_type": "H0"}}

>  <type>  (4) 
ts

$$$$

     RDKit          3D

 12 10  0  0  0  0  0  0  0  0999 V2000
   -1.3239   -0.1099    1.4539 S   0  0  0  0  0  0  0  0  0  0  0  0
    0.1490   -0.4395    0.4354 C   0  0  0  0  0  0  0  0  0  0  0  0
    0.7803    0.8463    0.0246 C   0  0  0  0  0  0  0  0  0  0  0  0
    0.9018    1.3748   -1.4877 S   0  0  0  0  0  0  0  0  0  0  0  0
   -2.0157    0.5249    0.4979 H   0  0  0  0  0  0  0  0  0  0  0  0
    0.8211   -0.9944    1.0944 H   0  0  0  0  0  0  0  0  0  0  0  0
    1.1493    1.4521    0.8531 H   0  0  0  0  0  0  0  0  0  0  0  0
    0.1490   -2.9018   -0.4351 C   0  0  0  0  0  3  0  0  0  0  0  0
    0.1490   -1.6698    0.0004 H   0  0  0  0  0  0  0  0  0  0  0  0
    1.0381   -3.4151   -0.0722 H   0  0  0  0  0  0  0  0  0  0  0  0
   -0.7401   -3.4151   -0.0722 H   0  0  0  0  0  0  0  0  0  0  0  0
    0.1490   -2.9018   -1.5241 H   0  0  0  0  0  0  0  0  0  0  0  0
  1  2  1  0
  1  5  1  0
  2  3  1  0
  2  6  1  0
  2  9  1  0
  3  4  2  0
  3  7  1  0
  8 10  1  0
  8 11  1  0
  8 12  1  0
M  RAD  1   8   2
M  END
>  <reaction>  (5) 
rxn_857

>  <mol_properties>  (5) 
{"1": {"label": "*1", "atom_type": "Cs"}, "2": {"label": "*0", "atom_type": "CS"}, "7": {"label": "*3", "atom_type": "Cs"}, "8": {"label": "*2", "atom_type": "H0"}, "9": {"label": "*4", "atom_type": "H0"}}

>  <type>  (5) 
unop_1

>  <geom_source>  (5) 
Heuristics

$$$$

     RDKit          3D

 12 10  0  0  0  0  0  0  0  0999 V2000
   -1.5419    0.9625   -0.8710 S   0  0  0  0  0  0  0  0  0  0  0  0
   -0.6915   -0.1416    0.3009 C   0  0  0  0  0  0  0  0  0  0  0  0
    0.4878    0.5540    0.8892 C   0  0  0  0  0  0  0  0  0  0  0  0
    2.0190    0.1137    0.6818 S   0  0  0  0  0  0  0  0  0  0  0  0
   -0.5198    1.0672   -1.7311 H   0  0  0  0  0  0  0  0  0  0  0  0
   -1.4337   -0.3442    1.0766 H   0  0  0  0  0  0  0  0  0  0  0  0
    0.2421    1.4401    1.4756 H   0  0  0  0  0  0  0  0  0  0  0  0
   -0.6915   -2.6038   -0.5697 C   0  0  0  0  0  3  0  0  0  0  0  0
   -0.6915   -1.3718   -0.1341 H   0  0  0  0  0  0  0  0  0  0  0  0
    0.1976   -3.1171   -0.2067 H   0  0  0  0  0  0  0  0  0  0  0  0
   -1.5806   -3.1171   -0.2067 H   0  0  0  0  0  0  0  0  0  0  0  0
   -0.6915   -2.6038   -1.6586 H   0  0  0  0  0  0  0  0  0  0  0  0
  1  2  1  0
  1  5  1  0
  2  3  1  0
  2  6  1  0
  2  9  1  0
  3  4  2  0
  3  7  1  0
  8 10  1  0
  8 11  1  0
  8 12  1  0
M  RAD  1   8   2
M  END
>  <reaction>  (6) 
rxn_857

>  <mol_properties>  (6) 
{"1": {"label": "*1", "atom_type": "Cs"}, "2": {"label": "*0", "atom_type": "CS"}, "7": {"label": "*3", "atom_type": "Cs"}, "8": {"label": "*2", "atom_type": "H0"}, "9": {"label": "*4", "atom_type": "H0"}}

>  <type>  (6) 
unop_2

>  <geom_source>  (6) 
Heuristics

$$$$

     RDKit          3D

 12 10  0  0  0  0  0  0  0  0999 V2000
   -0.3203   -0.1709    1.9578 S   0  0  0  0  0  0  0  0  0  0  0  0
    0.5301   -0.2930    0.3523 C   0  0  0  0  0  0  0  0  0  0  0  0
    0.4355    1.0057   -0.3723 C   0  0  0  0  0  0  0  0  0  0  0  0
   -0.3379    1.2346   -1.7619 S   0  0  0  0  0  0  0  0  0  0  0  0
   -1.5410    0.0530    1.4526 H   0  0  0  0  0  0  0  0  0  0  0  0
    1.5709   -0.5059    0.6074 H   0  0  0  0  0  0  0  0  0  0  0  0
    0.9221    1.8405    0.1334 H   0  0  0  0  0  0  0  0  0  0  0  0
    0.5301   -2.7552   -0.5182 C   0  0  0  0  0  3  0  0  0  0  0  0
    0.5301   -1.5232   -0.0826 H   0  0  0  0  0  0  0  0  0  0  0  0
    1.4192   -3.2685   -0.1552 H   0  0  0  0  0  0  0  0  0  0  0  0
   -0.3590   -3.2685   -0.1552 H   0  0  0  0  0  0  0  0  0  0  0  0
    0.5301   -2.7552   -1.6071 H   0  0  0  0  0  0  0  0  0  0  0  0
  1  2  1  0
  1  5  1  0
  2  3  1  0
  2  6  1  0
  2  9  1  0
  3  4  2  0
  3  7  1  0
  8 10  1  0
  8 11  1  0
  8 12  1  0
M  RAD  1   8   2
M  END
>  <reaction>  (7) 
rxn_857

>  <mol_properties>  (7) 
{"1": {"label": "*1", "atom_type": "Cs"}, "2": {"label": "*0", "atom_type": "CS"}, "7": {"label": "*3", "atom_type": "Cs"}, "8": {"label": "*2", "atom_type": "H0"}, "9": {"label": "*4", "atom_type": "H0"}}

>  <type>  (7) 
unop_3

>  <geom_source>  (7) 
Heuristics

$$$$

     RDKit          3D

 12 10  0  0  0  0  0  0  0  0999 V2000
    0.8925    1.7106   -0.9341 S   0  0  0  0  0  0  0  0  0  0  0  0
   -0.5804    0.8141   -0.3491 C   0  0  0  0  0  0  0  0  0  0  0  0
   -0.3080    0.2048    0.9833 C   0  0  0  0  0  0  0  0  0  0  0  0
   -0.2756   -1.3721    1.2894 S   0  0  0  0  0  0  0  0  0  0  0  0
    1.6895    0.6361   -1.0088 H   0  0  0  0  0  0  0  0  0  0  0  0
   -1.3529    1.5816   -0.2603 H   0  0  0  0  0  0  0  0  0  0  0  0
   -0.0936    0.9256    1.7731 H   0  0  0  0  0  0  0  0  0  0  0  0
   -0.5804   -1.6482   -1.2196 C   0  0  0  0  0  3  0  0  0  0  0  0
   -0.5804   -0.4162   -0.7840 H   0  0  0  0  0  0  0  0  0  0  0  0
    0.3087   -2.1615   -0.8566 H   0  0  0  0  0  0  0  0  0  0  0  0
   -1.4695   -2.1615   -0.8566 H   0  0  0  0  0  0  0  0  0  0  0  0
   -0.5804   -1.6482   -2.3085 H   0  0  0  0  0  0  0  0  0  0  0  0
  1  2  1  0
  1  5  1  0
  2  3  1  0
  2  6  1  0
  2  9  1  0
  3  4  2  0
  3  7  1  0
  8 10  1  0
  8 11  1  0
  8 12  1  0
M  RAD  1   8   2
M  END
>  <reaction>  (8) 
rxn_857

>  <mol_properties>  (8) 
{"1": {"label": "*1", "atom_type": "Cs"}, "2": {"label": "*0", "atom_type": "CS"}, "7": {"label": "*3", "atom_type": "Cs"}, "8": {"label": "*2", "atom_type": "H0"}, "9": {"label": "*4", "atom_type": "H0"}}

>  <type>  (8) 
unop_4

>  <geom_source>  (8) 
Heuristics

$$$$

     RDKit          3D

 12 10  0  0  0  0  0  0  0  0999 V2000
    0.8557    0.2533    1.8585 S   0  0  0  0  0  0  0  0  0  0  0  0
    0.8557    0.2072    0.0382 C   0  0  0  0  0  0  0  0  0  0  0  0
   -0.3056    0.9780   -0.4892 C   0  0  0  0  0  0  0  0  0  0  0  0
   -1.5287    0.3523   -1.3222 S   0  0  0  0  0  0  0  0  0  0  0  0
   -0.3084   -0.3917    2.0146 H   0  0  0  0  0  0  0  0  0  0  0  0
    1.7910    0.6930   -0.2497 H   0  0  0  0  0  0  0  0  0  0  0  0
   -0.2915    2.0399   -0.2414 H   0  0  0  0  0  0  0  0  0  0  0  0
    0.8557   -2.2551   -0.8323 C   0  0  0  0  0  3  0  0  0  0  0  0
    0.8557   -1.0231   -0.3968 H   0  0  0  0  0  0  0  0  0  0  0  0
    1.7448   -2.7684   -0.4693 H   0  0  0  0  0  0  0  0  0  0  0  0
   -0.0335   -2.7684   -0.4693 H   0  0  0  0  0  0  0  0  0  0  0  0
    0.8557   -2.2551   -1.9213 H   0  0  0  0  0  0  0  0  0  0  0  0
  1  2  1  0
  1  5  1  0
  2  3  1  0
  2  6  1  0
  2  9  1  0
  3  4  2  0
  3  7  1  0
  8 10  1  0
  8 11  1  0
  8 12  1  0
M  RAD  1   8   2
M  END
>  <reaction>  (9) 
rxn_857

>  <mol_properties>  (9) 
{"1": {"label": "*1", "atom_type": "Cs"}, "2": {"label": "*0", "atom_type": "CS"}, "7": {"label": "*3", "atom_type": "Cs"}, "8": {"label": "*2", "atom_type": "H0"}, "9": {"label": "*4", "atom_type": "H0"}}

>  <type>  (9) 
unop_5

>  <geom_source>  (9) 
Heuristics

$$$$

     RDKit          3D

 12 10  0  0  0  0  0  0  0  0999 V2000
    1.4611    1.5724   -0.2516 S   0  0  0  0  0  0  0  0  0  0  0  0
   -0.2396    0.9594   -0.4684 C   0  0  0  0  0  0  0  0  0  0  0  0
   -0.6672    0.2085    0.7458 C   0  0  0  0  0  0  0  0  0  0  0  0
   -1.0159   -1.3593    0.7878 S   0  0  0  0  0  0  0  0  0  0  0  0
    2.0345    0.3648   -0.1605 H   0  0  0  0  0  0  0  0  0  0  0  0
   -0.8449    1.8615   -0.5847 H   0  0  0  0  0  0  0  0  0  0  0  0
   -0.7052    0.8078    1.6561 H   0  0  0  0  0  0  0  0  0  0  0  0
   -0.2396   -1.5029   -1.3389 C   0  0  0  0  0  3  0  0  0  0  0  0
   -0.2396   -0.2709   -0.9033 H   0  0  0  0  0  0  0  0  0  0  0  0
    0.6495   -2.0162   -0.9759 H   0  0  0  0  0  0  0  0  0  0  0  0
   -1.1287   -2.0162   -0.9759 H   0  0  0  0  0  0  0  0  0  0  0  0
   -0.2396   -1.5029   -2.4278 H   0  0  0  0  0  0  0  0  0  0  0  0
  1  2  1  0
  1  5  1  0
  2  3  1  0
  2  6  1  0
  2  9  1  0
  3  4  2  0
  3  7  1  0
  8 10  1  0
  8 11  1  0
  8 12  1  0
M  RAD  1   8   2
M  END
>  <reaction>  (10) 
rxn_857

>  <mol_properties>  (10) 
{"1": {"label": "*1", "atom_type": "Cs"}, "2": {"label": "*0", "atom_type": "CS"}, "7": {"label": "*3", "atom_type": "Cs"}, "8": {"label": "*2", "atom_type": "H0"}, "9": {"label": "*4", "atom_type": "H0"}}

>  <type>  (10) 
unop_6

>  <geom_source>  (10) 
Heuristics

$$$$

     RDKit          3D

 12 10  0  0  0  0  0  0  0  0999 V2000
    1.6429    1.2991    0.5366 S   0  0  0  0  0  0  0  0  0  0  0  0
    0.1700    0.9695   -0.4819 C   0  0  0  0  0  0  0  0  0  0  0  0
   -0.8942    0.3431    0.3522 C   0  0  0  0  0  0  0  0  0  0  0  0
   -1.4717   -1.1426    0.1511 S   0  0  0  0  0  0  0  0  0  0  0  0
    1.9007    0.0171    0.8285 H   0  0  0  0  0  0  0  0  0  0  0  0
   -0.1534    1.9550   -0.8256 H   0  0  0  0  0  0  0  0  0  0  0  0
   -1.2579    0.9720    1.1656 H   0  0  0  0  0  0  0  0  0  0  0  0
    0.1700   -1.4927   -1.3524 C   0  0  0  0  0  3  0  0  0  0  0  0
    0.1700   -0.2607   -0.9169 H   0  0  0  0  0  0  0  0  0  0  0  0
    1.0591   -2.0060   -0.9894 H   0  0  0  0  0  0  0  0  0  0  0  0
   -0.7191   -2.0060   -0.9894 H   0  0  0  0  0  0  0  0  0  0  0  0
    0.1700   -1.4927   -2.4414 H   0  0  0  0  0  0  0  0  0  0  0  0
  1  2  1  0
  1  5  1  0
  2  3  1  0
  2  6  1  0
  2  9  1  0
  3  4  2  0
  3  7  1  0
  8 10  1  0
  8 11  1  0
  8 12  1  0
M  RAD  1   8   2
M  END
>  <reaction>  (11) 
rxn_857

>  <mol_properties>  (11) 
{"1": {"label": "*1", "atom_type": "Cs"}, "2": {"label": "*0", "atom_type": "CS"}, "7": {"label": "*3", "atom_type": "Cs"}, "8": {"label": "*2", "atom_type": "H0"}, "9": {"label": "*4", "atom_type": "H0"}}

>  <type>  (11) 
unop_7

>  <geom_source>  (11) 
Heuristics

$$$$

     RDKit          3D

 12 10  0  0  0  0  0  0  0  0999 V2000
   -1.8488    0.1755    0.6578 S   0  0  0  0  0  0  0  0  0  0  0  0
   -0.1480   -0.4375    0.4410 C   0  0  0  0  0  0  0  0  0  0  0  0
    0.8056    0.7074    0.4210 C   0  0  0  0  0  0  0  0  0  0  0  0
    1.7085    1.1364   -0.8368 S   0  0  0  0  0  0  0  0  0  0  0  0
   -1.8948    0.8682   -0.4883 H   0  0  0  0  0  0  0  0  0  0  0  0
    0.0335   -1.0624    1.3187 H   0  0  0  0  0  0  0  0  0  0  0  0
    0.8373    1.2837    1.3463 H   0  0  0  0  0  0  0  0  0  0  0  0
   -0.1480   -2.8998   -0.4295 C   0  0  0  0  0  3  0  0  0  0  0  0
   -0.1480   -1.6678    0.0061 H   0  0  0  0  0  0  0  0  0  0  0  0
    0.7411   -3.4131   -0.0665 H   0  0  0  0  0  0  0  0  0  0  0  0
   -1.0371   -3.4131   -0.0665 H   0  0  0  0  0  0  0  0  0  0  0  0
   -0.1480   -2.8998   -1.5184 H   0  0  0  0  0  0  0  0  0  0  0  0
  1  2  1  0
  1  5  1  0
  2  3  1  0
  2  6  1  0
  2  9  1  0
  3  4  2  0
  3  7  1  0
  8 10  1  0
  8 11  1  0
  8 12  1  0
M  RAD  1   8   2
M  END
>  <reaction>  (12) 
rxn_857

>  <mol_properties>  (12) 
{"1": {"label": "*1", "atom_type": "Cs"}, "2": {"label": "*0", "atom_type": "CS"}, "7": {"label": "*3", "atom_type": "Cs"}, "8": {"label": "*2", "atom_type": "H0"}, "9": {"label": "*4", "atom_type": "H0"}}

>  <type>  (12) 
unop_8

>  <geom_source>  (12) 
Heuristics

$$$$

     RDKit          3D

 12 10  0  0  0  0  0  0  0  0999 V2000
    0.0383    1.6473   -1.3169 S   0  0  0  0  0  0  0  0  0  0  0  0
   -0.8121    0.5433   -0.1450 C   0  0  0  0  0  0  0  0  0  0  0  0
    0.0492    0.3094    1.0484 C   0  0  0  0  0  0  0  0  0  0  0  0
    0.6673   -1.1099    1.4784 S   0  0  0  0  0  0  0  0  0  0  0  0
    1.0617    0.8204   -1.5704 H   0  0  0  0  0  0  0  0  0  0  0  0
   -1.7135    1.0893    0.1434 H   0  0  0  0  0  0  0  0  0  0  0  0
    0.2702    1.2068    1.6275 H   0  0  0  0  0  0  0  0  0  0  0  0
   -0.8121   -1.9190   -1.0155 C   0  0  0  0  0  3  0  0  0  0  0  0
   -0.8121   -0.6870   -0.5799 H   0  0  0  0  0  0  0  0  0  0  0  0
    0.0770   -2.4323   -0.6525 H   0  0  0  0  0  0  0  0  0  0  0  0
   -1.7012   -2.4323   -0.6525 H   0  0  0  0  0  0  0  0  0  0  0  0
   -0.8121   -1.9190   -2.1044 H   0  0  0  0  0  0  0  0  0  0  0  0
  1  2  1  0
  1  5  1  0
  2  3  1  0
  2  6  1  0
  2  9  1  0
  3  4  2  0
  3  7  1  0
  8 10  1  0
  8 11  1  0
  8 12  1  0
M  RAD  1   8   2
M  END
>  <reaction>  (13) 
rxn_857

>  <mol_properties>  (13) 
{"1": {"label": "*1", "atom_type": "Cs"}, "2": {"label": "*0", "atom_type": "CS"}, "7": {"label": "*3", "atom_type": "Cs"}, "8": {"label": "*2", "atom_type": "H0"}, "9": {"label": "*4", "atom_type": "H0"}}

>  <type>  (13) 
unop_9

>  <geom_source>  (13) 
Heuristics

$$$$

     RDKit          3D

 12 10  0  0  0  0  0  0  0  0999 V2000
   -1.8986    0.5505   -0.1788 S   0  0  0  0  0  0  0  0  0  0  0  0
   -0.4257   -0.3461    0.4062 C   0  0  0  0  0  0  0  0  0  0  0  0
    0.6673    0.6191    0.7136 C   0  0  0  0  0  0  0  0  0  0  0  0
    2.0731    0.7006   -0.0599 S   0  0  0  0  0  0  0  0  0  0  0  0
   -1.3269    1.0542   -1.2810 H   0  0  0  0  0  0  0  0  0  0  0  0
   -0.7530   -0.8467    1.3205 H   0  0  0  0  0  0  0  0  0  0  0  0
    0.4364    1.3209    1.5158 H   0  0  0  0  0  0  0  0  0  0  0  0
   -0.4257   -2.8083   -0.4644 C   0  0  0  0  0  3  0  0  0  0  0  0
   -0.4257   -1.5763   -0.0288 H   0  0  0  0  0  0  0  0  0  0  0  0
    0.4634   -3.3216   -0.1014 H   0  0  0  0  0  0  0  0  0  0  0  0
   -1.3148   -3.3216   -0.1014 H   0  0  0  0  0  0  0  0  0  0  0  0
   -0.4257   -2.8083   -1.5533 H   0  0  0  0  0  0  0  0  0  0  0  0
  1  2  1  0
  1  5  1  0
  2  3  1  0
  2  6  1  0
  2  9  1  0
  3  4  2  0
  3  7  1  0
  8 10  1  0
  8 11  1  0
  8 12  1  0
M  RAD  1   8   2
M  END
>  <reaction>  (14) 
rxn_857

>  <mol_properties>  (14) 
{"1": {"label": "*1", "atom_type": "Cs"}, "2": {"label": "*0", "atom_type": "CS"}, "7": {"label": "*3", "atom_type": "Cs"}, "8": {"label": "*2", "atom_type": "H0"}, "9": {"label": "*4", "atom_type": "H0"}}

>  <type>  (14) 
unop_10

>  <geom_source>  (14) 
Heuristics

$$$$

     RDKit          3D

 12 10  0  0  0  0  0  0  0  0999 V2000
    1.4718    0.8901    1.2671 S   0  0  0  0  0  0  0  0  0  0  0  0
    0.6214    0.7679   -0.3383 C   0  0  0  0  0  0  0  0  0  0  0  0
   -0.8467    0.6268   -0.1257 C   0  0  0  0  0  0  0  0  0  0  0  0
   -1.7194   -0.6608   -0.5280 S   0  0  0  0  0  0  0  0  0  0  0  0
    1.1260   -0.3294    1.7015 H   0  0  0  0  0  0  0  0  0  0  0  0
    0.8394    1.7147   -0.8382 H   0  0  0  0  0  0  0  0  0  0  0  0
   -1.3145    1.4790    0.3687 H   0  0  0  0  0  0  0  0  0  0  0  0
    0.6214   -1.6943   -1.2088 C   0  0  0  0  0  3  0  0  0  0  0  0
    0.6214   -0.4623   -0.7733 H   0  0  0  0  0  0  0  0  0  0  0  0
    1.5106   -2.2076   -0.8459 H   0  0  0  0  0  0  0  0  0  0  0  0
   -0.2677   -2.2076   -0.8459 H   0  0  0  0  0  0  0  0  0  0  0  0
    0.6214   -1.6943   -2.2978 H   0  0  0  0  0  0  0  0  0  0  0  0
  1  2  1  0
  1  5  1  0
  2  3  1  0
  2  6  1  0
  2  9  1  0
  3  4  2  0
  3  7  1  0
  8 10  1  0
  8 11  1  0
  8 12  1  0
M  RAD  1   8   2
M  END
>  <reaction>  (15) 
rxn_857

>  <mol_properties>  (15) 
{"1": {"label": "*1", "atom_type": "Cs"}, "2": {"label": "*0", "atom_type": "CS"}, "7": {"label": "*3", "atom_type": "Cs"}, "8": {"label": "*2", "atom_type": "H0"}, "9": {"label": "*4", "atom_type": "H0"}}

>  <type>  (15) 
unop_11

>  <geom_source>  (15) 
Heuristics

$$$$

     RDKit          3D

 12 10  0  0  0  0  0  0  0  0999 V2000
   -0.8557    1.3652   -1.2862 S   0  0  0  0  0  0  0  0  0  0  0  0
   -0.8557    0.1851    0.1005 C   0  0  0  0  0  0  0  0  0  0  0  0
    0.3056    0.4532    0.9952 C   0  0  0  0  0  0  0  0  0  0  0  0
    1.5287   -0.5570    1.2498 S   0  0  0  0  0  0  0  0  0  0  0  0
    0.3084    0.9616   -1.8131 H   0  0  0  0  0  0  0  0  0  0  0  0
   -1.7910    0.3821    0.6298 H   0  0  0  0  0  0  0  0  0  0  0  0
    0.2915    1.4349    1.4699 H   0  0  0  0  0  0  0  0  0  0  0  0
   -0.8557   -2.2771   -0.7700 C   0  0  0  0  0  3  0  0  0  0  0  0
   -0.8557   -1.0451   -0.3345 H   0  0  0  0  0  0  0  0  0  0  0  0
    0.0335   -2.7904   -0.4071 H   0  0  0  0  0  0  0  0  0  0  0  0
   -1.7448   -2.7904   -0.4071 H   0  0  0  0  0  0  0  0  0  0  0  0
   -0.8557   -2.2771   -1.8590 H   0  0  0  0  0  0  0  0  0  0  0  0
  1  2  1  0
  1  5  1  0
  2  3  1  0
  2  6  1  0
  2  9  1  0
  3  4  2  0
  3  7  1  0
  8 10  1  0
  8 11  1  0
  8 12  1  0
M  RAD  1   8   2
M  END
>  <reaction>  (16) 
rxn_857

>  <mol_properties>  (16) 
{"1": {"label": "*1", "atom_type": "Cs"}, "2": {"label": "*0", "atom_type": "CS"}, "7": {"label": "*3", "atom_type": "Cs"}, "8": {"label": "*2", "atom_type": "H0"}, "9": {"label": "*4", "atom_type": "H0"}}

>  <type>  (16) 
unop_12

>  <geom_source>  (16) 
Heuristics

$$$$

     RDKit          3D

 12 10  0  0  0  0  0  0  0  0999 V2000
   -1.6652    1.4597    0.7850 S   0  0  0  0  0  0  0  0  0  0  0  0
   -1.2931   -1.9119    1.1550 S   0  0  0  0  0  1  0  0  0  0  0  0
   -0.8123    0.1932   -0.2051 C   0  0  0  0  0  0  0  0  0  0  0  0
   -1.4781   -1.1388   -0.0414 C   0  0  0  0  0  0  0  0  0  0  0  0
    1.8044    0.0416   -0.0731 C   0  0  0  0  0  0  0  0  0  0  0  0
   -0.8527    0.4933   -1.2733 H   0  0  0  0  0  0  0  0  0  0  0  0
    0.5756    0.1114    0.1974 H   0  0  0  0  0  0  0  0  0  0  0  0
   -1.9957   -1.5846   -0.8846 H   0  0  0  0  0  0  0  0  0  0  0  0
    2.0380    0.1428    1.0067 H   0  0  0  0  0  0  0  0  0  0  0  0
    2.4472    0.7322   -0.6568 H   0  0  0  0  0  0  0  0  0  0  0  0
    1.9944   -1.0025   -0.3963 H   0  0  0  0  0  0  0  0  0  0  0  0
   -0.7626    2.4636    0.3867 H   0  0  0  0  0  0  0  0  0  0  0  0
  1  3  1  0
  1 12  1  0
  2  4  1  0
  3  4  2  3
  3  6  1  0
  4  8  1  0
  5  7  1  0
  5  9  1  0
  5 10  1  0
  5 11  1  0
M  RAD  1   2   2
M  END
>  <reaction>  (17) 
rxn_857

>  <mol_properties>  (17) 
{"1": {"label": "*1", "atom_type": "Cs"}, "2": {"label": "*0", "atom_type": "CS"}, "7": {"label": "*3", "atom_type": "Cs"}, "8": {"label": "*2", "atom_type": "H0"}, "9": {"label": "*4", "atom_type": "H0"}}

>  <type>  (17) 
unop_13

>  <geom_source>  (17) 
AutoTST

$$$$
