
     RDKit          3D

 12 11  0  0  0  0  0  0  0  0999 V2000
    2.1696    0.6854    1.1310 C   0  0  0  0  0  0  0  0  0  0  0  0
    1.2518    0.4145    0.4134 C   0  0  0  0  0  0  0  0  0  0  0  0
    0.1391    0.0443   -0.4683 C   0  0  0  0  0  0  0  0  0  0  0  0
   -0.2054   -1.4492   -0.3339 C   0  0  0  0  0  0  0  0  0  0  0  0
   -1.0375    0.8853   -0.2222 C   0  0  0  0  0  0  0  0  0  0  0  0
   -2.0160    1.5463   -0.0311 C   0  0  0  0  0  0  0  0  0  0  0  0
    2.9819    0.9356    1.7702 H   0  0  0  0  0  0  0  0  0  0  0  0
    0.4629    0.2285   -1.4981 H   0  0  0  0  0  0  0  0  0  0  0  0
   -0.5327   -1.6703    0.6812 H   0  0  0  0  0  0  0  0  0  0  0  0
    0.6727   -2.0535   -0.5593 H   0  0  0  0  0  0  0  0  0  0  0  0
   -1.0064   -1.7081   -1.0256 H   0  0  0  0  0  0  0  0  0  0  0  0
   -2.8802    2.1413    0.1426 H   0  0  0  0  0  0  0  0  0  0  0  0
  1  2  3  0
  1  7  1  0
  2  3  1  0
  3  4  1  0
  3  5  1  0
  3  8  1  0
  4  9  1  0
  4 10  1  0
  4 11  1  0
  5  6  3  0
  6 12  1  0
M  END
>  <reaction>  (1) 
rxn_1398

>  <mol_properties>  (1) 
{"2": {"label": "donator", "atom_type": "Cs"}, "7": {"label": "d_hydrogen", "atom_type": "H0"}}

>  <type>  (1) 
r1h

$$$$

     RDKit          3D

 15 14  0  0  0  0  0  0  0  0999 V2000
    2.4381    0.5770   -0.2356 C   0  0  0  0  0  0  0  0  0  0  0  0
    1.4430   -0.3367   -0.1409 C   0  0  0  0  0  0  0  0  0  0  0  0
    0.0521   -0.0957   -0.0045 C   0  0  0  0  0  3  0  0  0  0  0  0
   -0.5167    1.2867    0.0548 C   0  0  0  0  0  0  0  0  0  0  0  0
   -0.8226   -1.2147    0.0778 C   0  0  0  0  0  0  0  0  0  0  0  0
   -2.1666   -1.1669    0.2092 C   0  0  0  0  0  0  0  0  0  0  0  0
    3.4666    0.2585   -0.3369 H   0  0  0  0  0  0  0  0  0  0  0  0
    2.2594    1.6438   -0.2152 H   0  0  0  0  0  0  0  0  0  0  0  0
    1.7306   -1.3845   -0.1719 H   0  0  0  0  0  0  0  0  0  0  0  0
   -1.2300    1.4469   -0.7583 H   0  0  0  0  0  0  0  0  0  0  0  0
    0.2481    2.0557   -0.0178 H   0  0  0  0  0  0  0  0  0  0  0  0
   -1.0592    1.4421    0.9914 H   0  0  0  0  0  0  0  0  0  0  0  0
   -0.3519   -2.1929    0.0292 H   0  0  0  0  0  0  0  0  0  0  0  0
   -2.7080   -0.2310    0.2646 H   0  0  0  0  0  0  0  0  0  0  0  0
   -2.7513   -2.0751    0.2638 H   0  0  0  0  0  0  0  0  0  0  0  0
  1  2  2  3
  1  7  1  0
  1  8  1  0
  2  3  1  0
  2  9  1  0
  3  4  1  0
  3  5  1  0
  4 10  1  0
  4 11  1  0
  4 12  1  0
  5  6  2  3
  5 13  1  0
  6 14  1  0
  6 15  1  0
M  RAD  1   3   2
M  END
>  <reaction>  (2) 
rxn_1398

>  <mol_properties>  (2) 
{"2": {"label": "acceptor", "atom_type": "Cs"}}

>  <type>  (2) 
r2

$$$$

     RDKit          3D

 16 15  0  0  0  0  0  0  0  0999 V2000
    1.7961   -0.3807    1.6176 C   0  0  0  0  0  0  0  0  0  0  0  0
    0.8562   -0.8708    0.8256 C   0  0  0  0  0  0  0  0  0  0  0  0
    0.0895   -0.0826   -0.2048 C   0  0  0  0  0  0  0  0  0  0  0  0
   -1.4061   -0.1111    0.0982 C   0  0  0  0  0  0  0  0  0  0  0  0
    0.4476   -0.5902   -1.5797 C   0  0  0  0  0  0  0  0  0  0  0  0
   -0.3793   -1.1113   -2.4728 C   0  0  0  0  0  0  0  0  0  0  0  0
    2.3110   -1.0032    2.3386 H   0  0  0  0  0  0  0  0  0  0  0  0
    2.0846    0.6643    1.5737 H   0  0  0  0  0  0  0  0  0  0  0  0
    0.5921   -1.9241    0.8925 H   0  0  0  0  0  0  0  0  0  0  0  0
    0.4358    0.9557   -0.1462 H   0  0  0  0  0  0  0  0  0  0  0  0
   -1.5968    0.3080    1.0865 H   0  0  0  0  0  0  0  0  0  0  0  0
   -1.9674    0.4693   -0.6359 H   0  0  0  0  0  0  0  0  0  0  0  0
   -1.7902   -1.1338    0.0883 H   0  0  0  0  0  0  0  0  0  0  0  0
    1.5049   -0.5197   -1.8214 H   0  0  0  0  0  0  0  0  0  0  0  0
   -1.4421   -1.2131   -2.2889 H   0  0  0  0  0  0  0  0  0  0  0  0
   -0.0162   -1.4558   -3.4328 H   0  0  0  0  0  0  0  0  0  0  0  0
  1  2  2  3
  1  7  1  0
  1  8  1  0
  2  3  1  0
  2  9  1  0
  3  4  1  0
  3  5  1  0
  3 10  1  0
  4 11  1  0
  4 12  1  0
  4 13  1  0
  5  6  2  3
  5 14  1  0
  6 15  1  0
  6 16  1  0
M  END
>  <reaction>  (3) 
rxn_1398

>  <mol_properties>  (3) 
{"0": {"label": "a_hydrogen", "atom_type": "H0"}, "3": {"label": "acceptor", "atom_type": "Cs"}}

>  <type>  (3) 
r2h

$$$$

     RDKit          3D

 27 25  0  0  0  0  0  0  0  0999 V2000
   -2.5378    2.0650    0.3132 C   0  0  0  0  0  0  0  0  0  0  0  0
   -2.0157    1.0204    0.0299 C   0  0  0  0  0  0  0  0  0  0  0  0
   -1.3502   -0.2118   -0.2534 C   0  0  0  0  0  3  0  0  0  0  0  0
   -1.6847   -1.3837    0.6521 C   0  0  0  0  0  0  0  0  0  0  0  0
   -1.1463   -0.5140   -1.6349 C   0  0  0  0  0  0  0  0  0  0  0  0
   -0.9211   -0.7887   -2.7828 C   0  0  0  0  0  0  0  0  0  0  0  0
   -3.0126    2.9853    0.5537 H   0  0  0  0  0  0  0  0  0  0  0  0
   -0.0463    0.0461    0.1898 H   0  0  0  0  0  0  0  0  0  0  0  0
   -2.6957   -1.7483    0.4603 H   0  0  0  0  0  0  0  0  0  0  0  0
   -1.6204   -1.0743    1.6957 H   0  0  0  0  0  0  0  0  0  0  0  0
   -0.9831   -2.1993    0.4752 H   0  0  0  0  0  0  0  0  0  0  0  0
   -0.7381   -1.0295   -3.8021 H   0  0  0  0  0  0  0  0  0  0  0  0
    2.5437   -1.2381   -0.8295 C   0  0  0  0  0  0  0  0  0  0  0  0
    1.8850   -0.9140    0.2821 C   0  0  0  0  0  0  0  0  0  0  0  0
    1.1791    0.3485    0.5509 C   0  0  0  0  0  0  0  0  0  0  0  0
    1.4331    1.5068   -0.3840 C   0  0  0  0  0  0  0  0  0  0  0  0
    0.9986    0.6505    1.9795 C   0  0  0  0  0  0  0  0  0  0  0  0
    0.7941    1.8502    2.5211 C   0  0  0  0  0  0  0  0  0  0  0  0
    3.0048   -2.2113   -0.9344 H   0  0  0  0  0  0  0  0  0  0  0  0
    2.6507   -0.5539   -1.6612 H   0  0  0  0  0  0  0  0  0  0  0  0
    1.8216   -1.6557    1.0746 H   0  0  0  0  0  0  0  0  0  0  0  0
    0.7073    2.3030   -0.2199 H   0  0  0  0  0  0  0  0  0  0  0  0
    1.3357    1.1937   -1.4234 H   0  0  0  0  0  0  0  0  0  0  0  0
    2.4364    1.9137   -0.2352 H   0  0  0  0  0  0  0  0  0  0  0  0
    1.0051   -0.2145    2.6382 H   0  0  0  0  0  0  0  0  0  0  0  0
    0.7747    2.7577    1.9315 H   0  0  0  0  0  0  0  0  0  0  0  0
    0.6435    1.9565    3.5873 H   0  0  0  0  0  0  0  0  0  0  0  0
  1  2  3  0
  1  7  1  0
  2  3  1  0
  3  4  1  0
  3  5  1  0
  4  9  1  0
  4 10  1  0
  4 11  1  0
  5  6  3  0
  6 12  1  0
  8 15  1  0
 13 14  2  3
 13 19  1  0
 13 20  1  0
 14 15  1  0
 14 21  1  0
 15 16  1  0
 15 17  1  0
 16 22  1  0
 16 23  1  0
 16 24  1  0
 17 18  2  3
 17 25  1  0
 18 26  1  0
 18 27  1  0
M  RAD  1   3   2
M  END
>  <reaction>  (4) 
rxn_1398

>  <mol_properties>  (4) 
{"1": {"label": "*4", "atom_type": "Ct"}, "2": {"label": "*3", "atom_type": "Cs"}, "7": {"label": "*2", "atom_type": "H0"}, "13": {"label": "*0", "atom_type": "Cd"}, "14": {"label": "*1", "atom_type": "Cs"}}

>  <type>  (4) 
ts

$$$$

     RDKit          3D

 27 25  0  0  0  0  0  0  0  0999 V2000
   -1.2830    0.0969   -3.0251 C   0  0  0  0  0  0  0  0  0  0  0  0
   -1.2830    0.0969   -1.8290 C   0  0  0  0  0  0  0  0  0  0  0  0
   -1.2830    0.1370   -0.3624 C   0  0  0  0  0  0  0  0  0  0  0  0
   -1.9211    1.4362    0.1596 C   0  0  0  0  0  0  0  0  0  0  0  0
   -1.9449   -1.0443    0.2024 C   0  0  0  0  0  0  0  0  0  0  0  0
   -2.4931   -1.9896    0.6888 C   0  0  0  0  0  0  0  0  0  0  0  0
   -1.2830    0.0969   -4.0886 H   0  0  0  0  0  0  0  0  0  0  0  0
   -0.0294    0.1097    0.0307 H   0  0  0  0  0  0  0  0  0  0  0  0
   -2.9643    1.4934   -0.1482 H   0  0  0  0  0  0  0  0  0  0  0  0
   -1.3884    2.2976   -0.2421 H   0  0  0  0  0  0  0  0  0  0  0  0
   -1.8739    1.4606    1.2478 H   0  0  0  0  0  0  0  0  0  0  0  0
   -2.9805   -2.8300    1.1214 H   0  0  0  0  0  0  0  0  0  0  0  0
    1.0060    2.5409    0.9040 C   0  0  0  0  0  0  0  0  0  0  0  0
    1.4770    1.3430    1.2106 C   0  0  0  0  0  0  0  0  0  0  0  0
    1.2253    0.0824    0.4242 C   0  0  0  0  0  3  0  0  0  0  0  0
    0.5190   -0.9592    1.2877 C   0  0  0  0  0  0  0  0  0  0  0  0
    2.5267   -0.3941   -0.1721 C   0  0  0  0  0  0  0  0  0  0  0  0
    3.1208   -1.5568    0.0474 C   0  0  0  0  0  0  0  0  0  0  0  0
    1.2255    3.4090    1.5127 H   0  0  0  0  0  0  0  0  0  0  0  0
    0.3811    2.6966    0.0308 H   0  0  0  0  0  0  0  0  0  0  0  0
    2.1035    1.2210    2.0916 H   0  0  0  0  0  0  0  0  0  0  0  0
    0.3204   -1.8705    0.7212 H   0  0  0  0  0  0  0  0  0  0  0  0
   -0.4312   -0.5651    1.6490 H   0  0  0  0  0  0  0  0  0  0  0  0
    1.1240   -1.2250    2.1576 H   0  0  0  0  0  0  0  0  0  0  0  0
    3.0056    0.3238   -0.8328 H   0  0  0  0  0  0  0  0  0  0  0  0
    2.6962   -2.3109    0.6991 H   0  0  0  0  0  0  0  0  0  0  0  0
    4.0639   -1.7979   -0.4265 H   0  0  0  0  0  0  0  0  0  0  0  0
  1  2  3  0
  1  7  1  0
  2  3  1  0
  3  4  1  0
  3  5  1  0
  3  8  1  0
  4  9  1  0
  4 10  1  0
  4 11  1  0
  5  6  3  0
  6 12  1  0
 13 14  2  3
 13 19  1  0
 13 20  1  0
 14 15  1  0
 14 21  1  0
 15 16  1  0
 15 17  1  0
 16 22  1  0
 16 23  1  0
 16 24  1  0
 17 18  2  3
 17 25  1  0
 18 26  1  0
 18 27  1  0
M  RAD  1  15   2
M  END
>  <reaction>  (5) 
rxn_1398

>  <mol_properties>  (5) 
{"1": {"label": "*4", "atom_type": "Ct"}, "2": {"label": "*3", "atom_type": "Cs"}, "7": {"label": "*2", "atom_type": "H0"}, "13": {"label": "*0", "atom_type": "Cd"}, "14": {"label": "*1", "atom_type": "Cs"}}

>  <type>  (5) 
unop_1

>  <geom_source>  (5) 
Heuristics

$$$$

     RDKit          3D

 27 25  0  0  0  0  0  0  0  0999 V2000
   -1.3120    0.1579   -2.9091 C   0  0  0  0  0  0  0  0  0  0  0  0
   -1.3120    0.1579   -1.7129 C   0  0  0  0  0  0  0  0  0  0  0  0
   -1.3120    0.1980   -0.2464 C   0  0  0  0  0  0  0  0  0  0  0  0
   -1.9500    1.4972    0.2756 C   0  0  0  0  0  0  0  0  0  0  0  0
   -1.9738   -0.9833    0.3184 C   0  0  0  0  0  0  0  0  0  0  0  0
   -2.5221   -1.9285    0.8049 C   0  0  0  0  0  0  0  0  0  0  0  0
   -1.3120    0.1579   -3.9725 H   0  0  0  0  0  0  0  0  0  0  0  0
   -0.0584    0.1707    0.1468 H   0  0  0  0  0  0  0  0  0  0  0  0
   -2.9933    1.5545   -0.0321 H   0  0  0  0  0  0  0  0  0  0  0  0
   -1.4174    2.3586   -0.1260 H   0  0  0  0  0  0  0  0  0  0  0  0
   -1.9028    1.5216    1.3639 H   0  0  0  0  0  0  0  0  0  0  0  0
   -3.0095   -2.7690    1.2374 H   0  0  0  0  0  0  0  0  0  0  0  0
    1.6379    0.9829   -1.7885 C   0  0  0  0  0  0  0  0  0  0  0  0
    2.0184    0.8090   -0.5331 C   0  0  0  0  0  0  0  0  0  0  0  0
    1.1964    0.1435    0.5403 C   0  0  0  0  0  3  0  0  0  0  0  0
    0.9334    1.1082    1.6934 C   0  0  0  0  0  0  0  0  0  0  0  0
    1.8736   -1.1394    0.9548 C   0  0  0  0  0  0  0  0  0  0  0  0
    2.3131   -1.4490    2.1647 C   0  0  0  0  0  0  0  0  0  0  0  0
    2.2788    1.4699   -2.5126 H   0  0  0  0  0  0  0  0  0  0  0  0
    0.6682    0.6440   -2.1378 H   0  0  0  0  0  0  0  0  0  0  0  0
    2.9986    1.1579   -0.2152 H   0  0  0  0  0  0  0  0  0  0  0  0
    0.3266    0.6380    2.4690 H   0  0  0  0  0  0  0  0  0  0  0  0
    0.4052    1.9906    1.3314 H   0  0  0  0  0  0  0  0  0  0  0  0
    1.8688    1.4411    2.1491 H   0  0  0  0  0  0  0  0  0  0  0  0
    2.0125   -1.8533    0.1471 H   0  0  0  0  0  0  0  0  0  0  0  0
    2.2088   -0.7779    3.0087 H   0  0  0  0  0  0  0  0  0  0  0  0
    2.7963   -2.3990    2.3550 H   0  0  0  0  0  0  0  0  0  0  0  0
  1  2  3  0
  1  7  1  0
  2  3  1  0
  3  4  1  0
  3  5  1  0
  3  8  1  0
  4  9  1  0
  4 10  1  0
  4 11  1  0
  5  6  3  0
  6 12  1  0
 13 14  2  3
 13 19  1  0
 13 20  1  0
 14 15  1  0
 14 21  1  0
 15 16  1  0
 15 17  1  0
 16 22  1  0
 16 23  1  0
 16 24  1  0
 17 18  2  3
 17 25  1  0
 18 26  1  0
 18 27  1  0
M  RAD  1  15   2
M  END
>  <reaction>  (6) 
rxn_1398

>  <mol_properties>  (6) 
{"1": {"label": "*4", "atom_type": "Ct"}, "2": {"label": "*3", "atom_type": "Cs"}, "7": {"label": "*2", "atom_type": "H0"}, "13": {"label": "*0", "atom_type": "Cd"}, "14": {"label": "*1", "atom_type": "Cs"}}

>  <type>  (6) 
unop_2

>  <geom_source>  (6) 
Heuristics

$$$$

     RDKit          3D

 27 25  0  0  0  0  0  0  0  0999 V2000
   -1.2847    0.0886   -3.0187 C   0  0  0  0  0  0  0  0  0  0  0  0
   -1.2847    0.0886   -1.8225 C   0  0  0  0  0  0  0  0  0  0  0  0
   -1.2847    0.1286   -0.3560 C   0  0  0  0  0  0  0  0  0  0  0  0
   -1.9227    1.4279    0.1660 C   0  0  0  0  0  0  0  0  0  0  0  0
   -1.9465   -1.0526    0.2088 C   0  0  0  0  0  0  0  0  0  0  0  0
   -2.4948   -1.9979    0.6953 C   0  0  0  0  0  0  0  0  0  0  0  0
   -1.2847    0.0886   -4.0822 H   0  0  0  0  0  0  0  0  0  0  0  0
   -0.0311    0.1014    0.0371 H   0  0  0  0  0  0  0  0  0  0  0  0
   -2.9660    1.4851   -0.1418 H   0  0  0  0  0  0  0  0  0  0  0  0
   -1.3901    2.2893   -0.2356 H   0  0  0  0  0  0  0  0  0  0  0  0
   -1.8755    1.4523    1.2542 H   0  0  0  0  0  0  0  0  0  0  0  0
   -2.9822   -2.8383    1.1278 H   0  0  0  0  0  0  0  0  0  0  0  0
    0.4965    1.8121    2.0959 C   0  0  0  0  0  0  0  0  0  0  0  0
    1.3023    0.8271    1.7335 C   0  0  0  0  0  0  0  0  0  0  0  0
    1.2237    0.0741    0.4307 C   0  0  0  0  0  3  0  0  0  0  0  0
    0.9836   -1.4122    0.6811 C   0  0  0  0  0  0  0  0  0  0  0  0
    2.4593    0.3683   -0.3835 C   0  0  0  0  0  0  0  0  0  0  0  0
    3.3559   -0.5082   -0.8088 C   0  0  0  0  0  0  0  0  0  0  0  0
    0.6077    2.3138    3.0490 H   0  0  0  0  0  0  0  0  0  0  0  0
   -0.3066    2.1525    1.4506 H   0  0  0  0  0  0  0  0  0  0  0  0
    2.1000    0.5114    2.4026 H   0  0  0  0  0  0  0  0  0  0  0  0
    0.9114   -1.9627   -0.2584 H   0  0  0  0  0  0  0  0  0  0  0  0
    0.0553   -1.5542    1.2350 H   0  0  0  0  0  0  0  0  0  0  0  0
    1.7946   -1.8483    1.2689 H   0  0  0  0  0  0  0  0  0  0  0  0
    2.6044    1.4208   -0.6123 H   0  0  0  0  0  0  0  0  0  0  0  0
    3.2696   -1.5694   -0.6086 H   0  0  0  0  0  0  0  0  0  0  0  0
    4.2172   -0.1894   -1.3821 H   0  0  0  0  0  0  0  0  0  0  0  0
  1  2  3  0
  1  7  1  0
  2  3  1  0
  3  4  1  0
  3  5  1  0
  3  8  1  0
  4  9  1  0
  4 10  1  0
  4 11  1  0
  5  6  3  0
  6 12  1  0
 13 14  2  3
 13 19  1  0
 13 20  1  0
 14 15  1  0
 14 21  1  0
 15 16  1  0
 15 17  1  0
 16 22  1  0
 16 23  1  0
 16 24  1  0
 17 18  2  3
 17 25  1  0
 18 26  1  0
 18 27  1  0
M  RAD  1  15   2
M  END
>  <reaction>  (7) 
rxn_1398

>  <mol_properties>  (7) 
{"1": {"label": "*4", "atom_type": "Ct"}, "2": {"label": "*3", "atom_type": "Cs"}, "7": {"label": "*2", "atom_type": "H0"}, "13": {"label": "*0", "atom_type": "Cd"}, "14": {"label": "*1", "atom_type": "Cs"}}

>  <type>  (7) 
unop_3

>  <geom_source>  (7) 
Heuristics

$$$$

     RDKit          3D

 27 25  0  0  0  0  0  0  0  0999 V2000
   -1.1469    0.3060   -3.0666 C   0  0  0  0  0  0  0  0  0  0  0  0
   -1.1469    0.3060   -1.8704 C   0  0  0  0  0  0  0  0  0  0  0  0
   -1.1469    0.3461   -0.4039 C   0  0  0  0  0  0  0  0  0  0  0  0
   -1.7850    1.6453    0.1181 C   0  0  0  0  0  0  0  0  0  0  0  0
   -1.8088   -0.8352    0.1609 C   0  0  0  0  0  0  0  0  0  0  0  0
   -2.3570   -1.7805    0.6474 C   0  0  0  0  0  0  0  0  0  0  0  0
   -1.1469    0.3060   -4.1300 H   0  0  0  0  0  0  0  0  0  0  0  0
    0.1067    0.3188   -0.0107 H   0  0  0  0  0  0  0  0  0  0  0  0
   -2.8282    1.7025   -0.1896 H   0  0  0  0  0  0  0  0  0  0  0  0
   -1.2523    2.5067   -0.2835 H   0  0  0  0  0  0  0  0  0  0  0  0
   -1.7378    1.6697    1.2064 H   0  0  0  0  0  0  0  0  0  0  0  0
   -2.8444   -2.6209    1.0799 H   0  0  0  0  0  0  0  0  0  0  0  0
    1.6032   -1.6101   -1.2444 C   0  0  0  0  0  0  0  0  0  0  0  0
    1.9668   -0.9876   -0.1348 C   0  0  0  0  0  0  0  0  0  0  0  0
    1.3615    0.2916    0.3828 C   0  0  0  0  0  3  0  0  0  0  0  0
    2.4203    1.3859    0.4851 C   0  0  0  0  0  0  0  0  0  0  0  0
    0.6441    0.0076    1.6793 C   0  0  0  0  0  0  0  0  0  0  0  0
    0.9012    0.5447    2.8619 C   0  0  0  0  0  0  0  0  0  0  0  0
    2.0799   -2.5294   -1.5607 H   0  0  0  0  0  0  0  0  0  0  0  0
    0.8138   -1.2208   -1.8787 H   0  0  0  0  0  0  0  0  0  0  0  0
    2.7602   -1.4059    0.4810 H   0  0  0  0  0  0  0  0  0  0  0  0
    1.9870    2.3201    0.8461 H   0  0  0  0  0  0  0  0  0  0  0  0
    2.8663    1.5692   -0.4928 H   0  0  0  0  0  0  0  0  0  0  0  0
    3.2211    1.0962    1.1694 H   0  0  0  0  0  0  0  0  0  0  0  0
   -0.1492   -0.7310    1.5994 H   0  0  0  0  0  0  0  0  0  0  0  0
    1.6819    1.2818    3.0065 H   0  0  0  0  0  0  0  0  0  0  0  0
    0.3291    0.2634    3.7369 H   0  0  0  0  0  0  0  0  0  0  0  0
  1  2  3  0
  1  7  1  0
  2  3  1  0
  3  4  1  0
  3  5  1  0
  3  8  1  0
  4  9  1  0
  4 10  1  0
  4 11  1  0
  5  6  3  0
  6 12  1  0
 13 14  2  3
 13 19  1  0
 13 20  1  0
 14 15  1  0
 14 21  1  0
 15 16  1  0
 15 17  1  0
 16 22  1  0
 16 23  1  0
 16 24  1  0
 17 18  2  3
 17 25  1  0
 18 26  1  0
 18 27  1  0
M  RAD  1  15   2
M  END
>  <reaction>  (8) 
rxn_1398

>  <mol_properties>  (8) 
{"1": {"label": "*4", "atom_type": "Ct"}, "2": {"label": "*3", "atom_type": "Cs"}, "7": {"label": "*2", "atom_type": "H0"}, "13": {"label": "*0", "atom_type": "Cd"}, "14": {"label": "*1", "atom_type": "Cs"}}

>  <type>  (8) 
unop_4

>  <geom_source>  (8) 
Heuristics

$$$$

     RDKit          3D

 27 25  0  0  0  0  0  0  0  0999 V2000
   -1.2485    0.0222   -3.0353 C   0  0  0  0  0  0  0  0  0  0  0  0
   -1.2485    0.0222   -1.8392 C   0  0  0  0  0  0  0  0  0  0  0  0
   -1.2485    0.0623   -0.3726 C   0  0  0  0  0  0  0  0  0  0  0  0
   -1.8865    1.3615    0.1494 C   0  0  0  0  0  0  0  0  0  0  0  0
   -1.9103   -1.1190    0.1921 C   0  0  0  0  0  0  0  0  0  0  0  0
   -2.4586   -2.0643    0.6786 C   0  0  0  0  0  0  0  0  0  0  0  0
   -1.2485    0.0222   -4.0988 H   0  0  0  0  0  0  0  0  0  0  0  0
    0.0051    0.0350    0.0205 H   0  0  0  0  0  0  0  0  0  0  0  0
   -2.9298    1.4187   -0.1584 H   0  0  0  0  0  0  0  0  0  0  0  0
   -1.3539    2.2229   -0.2523 H   0  0  0  0  0  0  0  0  0  0  0  0
   -1.8393    1.3859    1.2376 H   0  0  0  0  0  0  0  0  0  0  0  0
   -2.9460   -2.9047    1.1111 H   0  0  0  0  0  0  0  0  0  0  0  0
    0.1801    0.1339    2.6813 C   0  0  0  0  0  0  0  0  0  0  0  0
    1.2593    0.0489    1.9203 C   0  0  0  0  0  0  0  0  0  0  0  0
    1.2599    0.0077    0.4140 C   0  0  0  0  0  3  0  0  0  0  0  0
    1.8964   -1.2849   -0.0893 C   0  0  0  0  0  0  0  0  0  0  0  0
    1.9148    1.2607   -0.1126 C   0  0  0  0  0  0  0  0  0  0  0  0
    2.9963    1.3305   -0.8732 C   0  0  0  0  0  0  0  0  0  0  0  0
    0.2490    0.1601    3.7616 H   0  0  0  0  0  0  0  0  0  0  0  0
   -0.8143    0.1796    2.2497 H   0  0  0  0  0  0  0  0  0  0  0  0
    2.2424    0.0078    2.3844 H   0  0  0  0  0  0  0  0  0  0  0  0
    1.8881   -1.3289   -1.1797 H   0  0  0  0  0  0  0  0  0  0  0  0
    1.3490   -2.1466    0.2936 H   0  0  0  0  0  0  0  0  0  0  0  0
    2.9325   -1.3701    0.2462 H   0  0  0  0  0  0  0  0  0  0  0  0
    1.4309    2.1830    0.1978 H   0  0  0  0  0  0  0  0  0  0  0  0
    3.5257    0.4476   -1.2107 H   0  0  0  0  0  0  0  0  0  0  0  0
    3.3924    2.2867   -1.1908 H   0  0  0  0  0  0  0  0  0  0  0  0
  1  2  3  0
  1  7  1  0
  2  3  1  0
  3  4  1  0
  3  5  1  0
  3  8  1  0
  4  9  1  0
  4 10  1  0
  4 11  1  0
  5  6  3  0
  6 12  1  0
 13 14  2  3
 13 19  1  0
 13 20  1  0
 14 15  1  0
 14 21  1  0
 15 16  1  0
 15 17  1  0
 16 22  1  0
 16 23  1  0
 16 24  1  0
 17 18  2  3
 17 25  1  0
 18 26  1  0
 18 27  1  0
M  RAD  1  15   2
M  END
>  <reaction>  (9) 
rxn_1398

>  <mol_properties>  (9) 
{"1": {"label": "*4", "atom_type": "Ct"}, "2": {"label": "*3", "atom_type": "Cs"}, "7": {"label": "*2", "atom_type": "H0"}, "13": {"label": "*0", "atom_type": "Cd"}, "14": {"label": "*1", "atom_type": "Cs"}}

>  <type>  (9) 
unop_5

>  <geom_source>  (9) 
Heuristics

$$$$

     RDKit          3D

 27 25  0  0  0  0  0  0  0  0999 V2000
   -1.1040    0.2280   -3.1348 C   0  0  0  0  0  0  0  0  0  0  0  0
   -1.1040    0.2280   -1.9386 C   0  0  0  0  0  0  0  0  0  0  0  0
   -1.1040    0.2680   -0.4721 C   0  0  0  0  0  0  0  0  0  0  0  0
   -1.7421    1.5673    0.0499 C   0  0  0  0  0  0  0  0  0  0  0  0
   -1.7659   -0.9132    0.0927 C   0  0  0  0  0  0  0  0  0  0  0  0
   -2.3141   -1.8585    0.5792 C   0  0  0  0  0  0  0  0  0  0  0  0
   -1.1040    0.2280   -4.1982 H   0  0  0  0  0  0  0  0  0  0  0  0
    0.1496    0.2408   -0.0789 H   0  0  0  0  0  0  0  0  0  0  0  0
   -2.7853    1.6245   -0.2578 H   0  0  0  0  0  0  0  0  0  0  0  0
   -1.2095    2.4287   -0.3517 H   0  0  0  0  0  0  0  0  0  0  0  0
   -1.6949    1.5917    1.1381 H   0  0  0  0  0  0  0  0  0  0  0  0
   -2.8015   -2.6989    1.0117 H   0  0  0  0  0  0  0  0  0  0  0  0
    1.3827   -2.2290   -0.2821 C   0  0  0  0  0  0  0  0  0  0  0  0
    1.7893   -1.2330    0.4882 C   0  0  0  0  0  0  0  0  0  0  0  0
    1.4043    0.2135    0.3146 C   0  0  0  0  0  3  0  0  0  0  0  0
    2.6414    1.0756    0.0783 C   0  0  0  0  0  0  0  0  0  0  0  0
    0.5702    0.6462    1.4949 C   0  0  0  0  0  0  0  0  0  0  0  0
    0.8519    1.6147    2.3525 C   0  0  0  0  0  0  0  0  0  0  0  0
    1.6968   -3.2494   -0.1020 H   0  0  0  0  0  0  0  0  0  0  0  0
    0.7196   -2.0588   -1.1239 H   0  0  0  0  0  0  0  0  0  0  0  0
    2.4520   -1.4376    1.3265 H   0  0  0  0  0  0  0  0  0  0  0  0
    2.3699    2.1232   -0.0624 H   0  0  0  0  0  0  0  0  0  0  0  0
    3.1716    0.7354   -0.8115 H   0  0  0  0  0  0  0  0  0  0  0  0
    3.3312    1.0141    0.9233 H   0  0  0  0  0  0  0  0  0  0  0  0
   -0.3412    0.0706    1.6338 H   0  0  0  0  0  0  0  0  0  0  0  0
    1.7468    2.2198    2.2702 H   0  0  0  0  0  0  0  0  0  0  0  0
    0.1859    1.8400    3.1758 H   0  0  0  0  0  0  0  0  0  0  0  0
  1  2  3  0
  1  7  1  0
  2  3  1  0
  3  4  1  0
  3  5  1  0
  3  8  1  0
  4  9  1  0
  4 10  1  0
  4 11  1  0
  5  6  3  0
  6 12  1  0
 13 14  2  3
 13 19  1  0
 13 20  1  0
 14 15  1  0
 14 21  1  0
 15 16  1  0
 15 17  1  0
 16 22  1  0
 16 23  1  0
 16 24  1  0
 17 18  2  3
 17 25  1  0
 18 26  1  0
 18 27  1  0
M  RAD  1  15   2
M  END
>  <reaction>  (10) 
rxn_1398

>  <mol_properties>  (10) 
{"1": {"label": "*4", "atom_type": "Ct"}, "2": {"label": "*3", "atom_type": "Cs"}, "7": {"label": "*2", "atom_type": "H0"}, "13": {"label": "*0", "atom_type": "Cd"}, "14": {"label": "*1", "atom_type": "Cs"}}

>  <type>  (10) 
unop_6

>  <geom_source>  (10) 
Heuristics

$$$$

     RDKit          3D

 27 25  0  0  0  0  0  0  0  0999 V2000
   -1.1023    0.1152   -3.1535 C   0  0  0  0  0  0  0  0  0  0  0  0
   -1.1023    0.1152   -1.9574 C   0  0  0  0  0  0  0  0  0  0  0  0
   -1.1023    0.1552   -0.4908 C   0  0  0  0  0  0  0  0  0  0  0  0
   -1.7403    1.4544    0.0312 C   0  0  0  0  0  0  0  0  0  0  0  0
   -1.7641   -1.0260    0.0739 C   0  0  0  0  0  0  0  0  0  0  0  0
   -2.3124   -1.9713    0.5604 C   0  0  0  0  0  0  0  0  0  0  0  0
   -1.1023    0.1152   -4.2170 H   0  0  0  0  0  0  0  0  0  0  0  0
    0.1513    0.1280   -0.0977 H   0  0  0  0  0  0  0  0  0  0  0  0
   -2.7836    1.5117   -0.2766 H   0  0  0  0  0  0  0  0  0  0  0  0
   -1.2077    2.3159   -0.3705 H   0  0  0  0  0  0  0  0  0  0  0  0
   -1.6931    1.4789    1.1194 H   0  0  0  0  0  0  0  0  0  0  0  0
   -2.7998   -2.8117    0.9929 H   0  0  0  0  0  0  0  0  0  0  0  0
    0.9897   -2.2929    0.9436 C   0  0  0  0  0  0  0  0  0  0  0  0
    1.5823   -1.1280    1.1502 C   0  0  0  0  0  0  0  0  0  0  0  0
    1.4061    0.1007    0.2958 C   0  0  0  0  0  3  0  0  0  0  0  0
    2.7415    0.5395   -0.2987 C   0  0  0  0  0  0  0  0  0  0  0  0
    0.7136    1.1686    1.1059 C   0  0  0  0  0  0  0  0  0  0  0  0
    1.1839    2.3710    1.3996 C   0  0  0  0  0  0  0  0  0  0  0  0
    1.1593   -3.1389    1.5978 H   0  0  0  0  0  0  0  0  0  0  0  0
    0.3122   -2.4430    0.1096 H   0  0  0  0  0  0  0  0  0  0  0  0
    2.2541   -1.0093    1.9977 H   0  0  0  0  0  0  0  0  0  0  0  0
    2.6202    1.4210   -0.9305 H   0  0  0  0  0  0  0  0  0  0  0  0
    3.1640   -0.2622   -0.9049 H   0  0  0  0  0  0  0  0  0  0  0  0
    3.4616    0.7809    0.4865 H   0  0  0  0  0  0  0  0  0  0  0  0
   -0.2634    0.8801    1.4846 H   0  0  0  0  0  0  0  0  0  0  0  0
    2.1521    2.7146    1.0561 H   0  0  0  0  0  0  0  0  0  0  0  0
    0.6065    3.0629    1.9996 H   0  0  0  0  0  0  0  0  0  0  0  0
  1  2  3  0
  1  7  1  0
  2  3  1  0
  3  4  1  0
  3  5  1  0
  3  8  1  0
  4  9  1  0
  4 10  1  0
  4 11  1  0
  5  6  3  0
  6 12  1  0
 13 14  2  3
 13 19  1  0
 13 20  1  0
 14 15  1  0
 14 21  1  0
 15 16  1  0
 15 17  1  0
 16 22  1  0
 16 23  1  0
 16 24  1  0
 17 18  2  3
 17 25  1  0
 18 26  1  0
 18 27  1  0
M  RAD  1  15   2
M  END
>  <reaction>  (11) 
rxn_1398

>  <mol_properties>  (11) 
{"1": {"label": "*4", "atom_type": "Ct"}, "2": {"label": "*3", "atom_type": "Cs"}, "7": {"label": "*2", "atom_type": "H0"}, "13": {"label": "*0", "atom_type": "Cd"}, "14": {"label": "*1", "atom_type": "Cs"}}

>  <type>  (11) 
unop_7

>  <geom_source>  (11) 
Heuristics

$$$$

     RDKit          3D

 27 25  0  0  0  0  0  0  0  0999 V2000
   -1.2906    0.0811   -3.0015 C   0  0  0  0  0  0  0  0  0  0  0  0
   -1.2906    0.0811   -1.8053 C   0  0  0  0  0  0  0  0  0  0  0  0
   -1.2906    0.1211   -0.3388 C   0  0  0  0  0  0  0  0  0  0  0  0
   -1.9287    1.4204    0.1832 C   0  0  0  0  0  0  0  0  0  0  0  0
   -1.9525   -1.0601    0.2260 C   0  0  0  0  0  0  0  0  0  0  0  0
   -2.5007   -2.0054    0.7125 C   0  0  0  0  0  0  0  0  0  0  0  0
   -1.2906    0.0811   -4.0649 H   0  0  0  0  0  0  0  0  0  0  0  0
   -0.0370    0.0939    0.0544 H   0  0  0  0  0  0  0  0  0  0  0  0
   -2.9719    1.4776   -0.1245 H   0  0  0  0  0  0  0  0  0  0  0  0
   -1.3961    2.2818   -0.2184 H   0  0  0  0  0  0  0  0  0  0  0  0
   -1.8815    1.4448    1.2715 H   0  0  0  0  0  0  0  0  0  0  0  0
   -2.9881   -2.8458    1.1450 H   0  0  0  0  0  0  0  0  0  0  0  0
    1.3930    2.4556   -0.3167 C   0  0  0  0  0  0  0  0  0  0  0  0
    1.6898    1.4945    0.5430 C   0  0  0  0  0  0  0  0  0  0  0  0
    1.2177    0.0666    0.4479 C   0  0  0  0  0  3  0  0  0  0  0  0
    0.3987   -0.3131    1.6785 C   0  0  0  0  0  0  0  0  0  0  0  0
    2.4060   -0.8295    0.2002 C   0  0  0  0  0  0  0  0  0  0  0  0
    2.8260   -1.8206    0.9711 C   0  0  0  0  0  0  0  0  0  0  0  0
    1.7665    3.4640   -0.1906 H   0  0  0  0  0  0  0  0  0  0  0  0
    0.7629    2.2679   -1.1797 H   0  0  0  0  0  0  0  0  0  0  0  0
    2.3269    1.7149    1.3969 H   0  0  0  0  0  0  0  0  0  0  0  0
    0.0411   -1.3419    1.6109 H   0  0  0  0  0  0  0  0  0  0  0  0
   -0.4650    0.3456    1.7723 H   0  0  0  0  0  0  0  0  0  0  0  0
    0.9923   -0.2191    2.5907 H   0  0  0  0  0  0  0  0  0  0  0  0
    2.9600   -0.5979   -0.7058 H   0  0  0  0  0  0  0  0  0  0  0  0
    2.3199   -2.0960    1.8885 H   0  0  0  0  0  0  0  0  0  0  0  0
    3.7012   -2.3998    0.7051 H   0  0  0  0  0  0  0  0  0  0  0  0
  1  2  3  0
  1  7  1  0
  2  3  1  0
  3  4  1  0
  3  5  1  0
  3  8  1  0
  4  9  1  0
  4 10  1  0
  4 11  1  0
  5  6  3  0
  6 12  1  0
 13 14  2  3
 13 19  1  0
 13 20  1  0
 14 15  1  0
 14 21  1  0
 15 16  1  0
 15 17  1  0
 16 22  1  0
 16 23  1  0
 16 24  1  0
 17 18  2  3
 17 25  1  0
 18 26  1  0
 18 27  1  0
M  RAD  1  15   2
M  END
>  <reaction>  (12) 
rxn_1398

>  <mol_properties>  (12) 
{"1": {"label": "*4", "atom_type": "Ct"}, "2": {"label": "*3", "atom_type": "Cs"}, "7": {"label": "*2", "atom_type": "H0"}, "13": {"label": "*0", "atom_type": "Cd"}, "14": {"label": "*1", "atom_type": "Cs"}}

>  <type>  (12) 
unop_8

>  <geom_source>  (12) 
Heuristics

$$$$

     RDKit          3D

 27 25  0  0  0  0  0  0  0  0999 V2000
   -1.2154    0.3173   -2.9785 C   0  0  0  0  0  0  0  0  0  0  0  0
   -1.2154    0.3173   -1.7824 C   0  0  0  0  0  0  0  0  0  0  0  0
   -1.2154    0.3573   -0.3158 C   0  0  0  0  0  0  0  0  0  0  0  0
   -1.8535    1.6566    0.2062 C   0  0  0  0  0  0  0  0  0  0  0  0
   -1.8773   -0.8239    0.2490 C   0  0  0  0  0  0  0  0  0  0  0  0
   -2.4255   -1.7692    0.7355 C   0  0  0  0  0  0  0  0  0  0  0  0
   -1.2154    0.3173   -4.0420 H   0  0  0  0  0  0  0  0  0  0  0  0
    0.0381    0.3301    0.0773 H   0  0  0  0  0  0  0  0  0  0  0  0
   -2.8967    1.7138   -0.1016 H   0  0  0  0  0  0  0  0  0  0  0  0
   -1.3209    2.5180   -0.1955 H   0  0  0  0  0  0  0  0  0  0  0  0
   -1.8063    1.6810    1.2944 H   0  0  0  0  0  0  0  0  0  0  0  0
   -2.9130   -2.6096    1.1680 H   0  0  0  0  0  0  0  0  0  0  0  0
    1.6519   -0.7410   -1.7884 C   0  0  0  0  0  0  0  0  0  0  0  0
    2.0713   -0.4688   -0.5633 C   0  0  0  0  0  0  0  0  0  0  0  0
    1.2929    0.3028    0.4708 C   0  0  0  0  0  3  0  0  0  0  0  0
    2.0549    1.5555    0.8947 C   0  0  0  0  0  0  0  0  0  0  0  0
    0.9426   -0.6190    1.6126 C   0  0  0  0  0  0  0  0  0  0  0  0
    1.2962   -0.4801    2.8810 C   0  0  0  0  0  0  0  0  0  0  0  0
    2.2621   -1.3025   -2.4846 H   0  0  0  0  0  0  0  0  0  0  0  0
    0.6805   -0.4099   -2.1404 H   0  0  0  0  0  0  0  0  0  0  0  0
    3.0498   -0.8178   -0.2400 H   0  0  0  0  0  0  0  0  0  0  0  0
    1.4913    2.1276    1.6335 H   0  0  0  0  0  0  0  0  0  0  0  0
    2.2363    2.1948    0.0304 H   0  0  0  0  0  0  0  0  0  0  0  0
    3.0231    1.2987    1.3305 H   0  0  0  0  0  0  0  0  0  0  0  0
    0.3515   -1.4842    1.3241 H   0  0  0  0  0  0  0  0  0  0  0  0
    1.8888    0.3572    3.2293 H   0  0  0  0  0  0  0  0  0  0  0  0
    0.9980   -1.2083    3.6246 H   0  0  0  0  0  0  0  0  0  0  0  0
  1  2  3  0
  1  7  1  0
  2  3  1  0
  3  4  1  0
  3  5  1  0
  3  8  1  0
  4  9  1  0
  4 10  1  0
  4 11  1  0
  5  6  3  0
  6 12  1  0
 13 14  2  3
 13 19  1  0
 13 20  1  0
 14 15  1  0
 14 21  1  0
 15 16  1  0
 15 17  1  0
 16 22  1  0
 16 23  1  0
 16 24  1  0
 17 18  2  3
 17 25  1  0
 18 26  1  0
 18 27  1  0
M  RAD  1  15   2
M  END
>  <reaction>  (13) 
rxn_1398

>  <mol_properties>  (13) 
{"1": {"label": "*4", "atom_type": "Ct"}, "2": {"label": "*3", "atom_type": "Cs"}, "7": {"label": "*2", "atom_type": "H0"}, "13": {"label": "*0", "atom_type": "Cd"}, "14": {"label": "*1", "atom_type": "Cs"}}

>  <type>  (13) 
unop_9

>  <geom_source>  (13) 
Heuristics

$$$$

     RDKit          3D

 27 25  0  0  0  0  0  0  0  0999 V2000
   -1.3068    0.0934   -2.9518 C   0  0  0  0  0  0  0  0  0  0  0  0
   -1.3068    0.0934   -1.7557 C   0  0  0  0  0  0  0  0  0  0  0  0
   -1.3068    0.1334   -0.2891 C   0  0  0  0  0  0  0  0  0  0  0  0
   -1.9448    1.4327    0.2329 C   0  0  0  0  0  0  0  0  0  0  0  0
   -1.9687   -1.0478    0.2756 C   0  0  0  0  0  0  0  0  0  0  0  0
   -2.5169   -1.9931    0.7621 C   0  0  0  0  0  0  0  0  0  0  0  0
   -1.3068    0.0934   -4.0153 H   0  0  0  0  0  0  0  0  0  0  0  0
   -0.0532    0.1062    0.1040 H   0  0  0  0  0  0  0  0  0  0  0  0
   -2.9881    1.4899   -0.0749 H   0  0  0  0  0  0  0  0  0  0  0  0
   -1.4122    2.2941   -0.1688 H   0  0  0  0  0  0  0  0  0  0  0  0
   -1.8977    1.4571    1.3211 H   0  0  0  0  0  0  0  0  0  0  0  0
   -3.0043   -2.8335    1.1946 H   0  0  0  0  0  0  0  0  0  0  0  0
    1.5967    1.8334   -1.2598 C   0  0  0  0  0  0  0  0  0  0  0  0
    1.8824    1.2890   -0.0881 C   0  0  0  0  0  0  0  0  0  0  0  0
    1.2016    0.0789    0.4975 C   0  0  0  0  0  3  0  0  0  0  0  0
    0.5374    0.4252    1.8273 C   0  0  0  0  0  0  0  0  0  0  0  0
    2.1962   -1.0522    0.5837 C   0  0  0  0  0  0  0  0  0  0  0  0
    2.5843   -1.6851    1.6800 C   0  0  0  0  0  0  0  0  0  0  0  0
    2.1259    2.7051   -1.6238 H   0  0  0  0  0  0  0  0  0  0  0  0
    0.8200    1.4261   -1.8985 H   0  0  0  0  0  0  0  0  0  0  0  0
    2.6691    1.7200    0.5275 H   0  0  0  0  0  0  0  0  0  0  0  0
    0.0299   -0.4428    2.2514 H   0  0  0  0  0  0  0  0  0  0  0  0
   -0.1979    1.2175    1.6844 H   0  0  0  0  0  0  0  0  0  0  0  0
    1.2726    0.7777    2.5545 H   0  0  0  0  0  0  0  0  0  0  0  0
    2.6304   -1.3400   -0.3702 H   0  0  0  0  0  0  0  0  0  0  0  0
    2.1923   -1.4407    2.6600 H   0  0  0  0  0  0  0  0  0  0  0  0
    3.3154   -2.4822    1.6330 H   0  0  0  0  0  0  0  0  0  0  0  0
  1  2  3  0
  1  7  1  0
  2  3  1  0
  3  4  1  0
  3  5  1  0
  3  8  1  0
  4  9  1  0
  4 10  1  0
  4 11  1  0
  5  6  3  0
  6 12  1  0
 13 14  2  3
 13 19  1  0
 13 20  1  0
 14 15  1  0
 14 21  1  0
 15 16  1  0
 15 17  1  0
 16 22  1  0
 16 23  1  0
 16 24  1  0
 17 18  2  3
 17 25  1  0
 18 26  1  0
 18 27  1  0
M  RAD  1  15   2
M  END
>  <reaction>  (14) 
rxn_1398

>  <mol_properties>  (14) 
{"1": {"label": "*4", "atom_type": "Ct"}, "2": {"label": "*3", "atom_type": "Cs"}, "7": {"label": "*2", "atom_type": "H0"}, "13": {"label": "*0", "atom_type": "Cd"}, "14": {"label": "*1", "atom_type": "Cs"}}

>  <type>  (14) 
unop_10

>  <geom_source>  (14) 
Heuristics

$$$$

     RDKit          3D

 27 25  0  0  0  0  0  0  0  0999 V2000
   -1.1558    0.0190   -3.1098 C   0  0  0  0  0  0  0  0  0  0  0  0
   -1.1558    0.0190   -1.9136 C   0  0  0  0  0  0  0  0  0  0  0  0
   -1.1558    0.0591   -0.4471 C   0  0  0  0  0  0  0  0  0  0  0  0
   -1.7938    1.3583    0.0749 C   0  0  0  0  0  0  0  0  0  0  0  0
   -1.8176   -1.1221    0.1177 C   0  0  0  0  0  0  0  0  0  0  0  0
   -2.3659   -2.0674    0.6042 C   0  0  0  0  0  0  0  0  0  0  0  0
   -1.1558    0.0190   -4.1733 H   0  0  0  0  0  0  0  0  0  0  0  0
    0.0978    0.0319   -0.0540 H   0  0  0  0  0  0  0  0  0  0  0  0
   -2.8371    1.4156   -0.2329 H   0  0  0  0  0  0  0  0  0  0  0  0
   -1.2612    2.2197   -0.3268 H   0  0  0  0  0  0  0  0  0  0  0  0
   -1.7466    1.3828    1.1631 H   0  0  0  0  0  0  0  0  0  0  0  0
   -2.8533   -2.9078    1.0367 H   0  0  0  0  0  0  0  0  0  0  0  0
    0.4894   -1.5465    2.1204 C   0  0  0  0  0  0  0  0  0  0  0  0
    1.3877   -0.6796    1.6817 C   0  0  0  0  0  0  0  0  0  0  0  0
    1.3526    0.0046    0.3395 C   0  0  0  0  0  3  0  0  0  0  0  0
    2.5992   -0.3370   -0.4721 C   0  0  0  0  0  0  0  0  0  0  0  0
    1.1404    1.4839    0.5463 C   0  0  0  0  0  0  0  0  0  0  0  0
    1.9510    2.4613    0.1713 C   0  0  0  0  0  0  0  0  0  0  0  0
    0.5730   -2.0031    3.0987 H   0  0  0  0  0  0  0  0  0  0  0  0
   -0.3641   -1.8322    1.5146 H   0  0  0  0  0  0  0  0  0  0  0  0
    2.2307   -0.4119    2.3152 H   0  0  0  0  0  0  0  0  0  0  0  0
    2.5749    0.1436   -1.4515 H   0  0  0  0  0  0  0  0  0  0  0  0
    2.6670   -1.4151   -0.6198 H   0  0  0  0  0  0  0  0  0  0  0  0
    3.5058   -0.0118    0.0435 H   0  0  0  0  0  0  0  0  0  0  0  0
    0.2247    1.7350    1.0752 H   0  0  0  0  0  0  0  0  0  0  0  0
    2.8798    2.2747   -0.3542 H   0  0  0  0  0  0  0  0  0  0  0  0
    1.7078    3.4959    0.3778 H   0  0  0  0  0  0  0  0  0  0  0  0
  1  2  3  0
  1  7  1  0
  2  3  1  0
  3  4  1  0
  3  5  1  0
  3  8  1  0
  4  9  1  0
  4 10  1  0
  4 11  1  0
  5  6  3  0
  6 12  1  0
 13 14  2  3
 13 19  1  0
 13 20  1  0
 14 15  1  0
 14 21  1  0
 15 16  1  0
 15 17  1  0
 16 22  1  0
 16 23  1  0
 16 24  1  0
 17 18  2  3
 17 25  1  0
 18 26  1  0
 18 27  1  0
M  RAD  1  15   2
M  END
>  <reaction>  (15) 
rxn_1398

>  <mol_properties>  (15) 
{"1": {"label": "*4", "atom_type": "Ct"}, "2": {"label": "*3", "atom_type": "Cs"}, "7": {"label": "*2", "atom_type": "H0"}, "13": {"label": "*0", "atom_type": "Cd"}, "14": {"label": "*1", "atom_type": "Cs"}}

>  <type>  (15) 
unop_11

>  <geom_source>  (15) 
Heuristics

$$$$

     RDKit          3D

 27 25  0  0  0  0  0  0  0  0999 V2000
   -1.2814    0.2538   -2.9143 C   0  0  0  0  0  0  0  0  0  0  0  0
   -1.2814    0.2538   -1.7181 C   0  0  0  0  0  0  0  0  0  0  0  0
   -1.2814    0.2939   -0.2516 C   0  0  0  0  0  0  0  0  0  0  0  0
   -1.9195    1.5931    0.2704 C   0  0  0  0  0  0  0  0  0  0  0  0
   -1.9433   -0.8874    0.3132 C   0  0  0  0  0  0  0  0  0  0  0  0
   -2.4915   -1.8326    0.7997 C   0  0  0  0  0  0  0  0  0  0  0  0
   -1.2814    0.2538   -3.9777 H   0  0  0  0  0  0  0  0  0  0  0  0
   -0.0278    0.2666    0.1416 H   0  0  0  0  0  0  0  0  0  0  0  0
   -2.9627    1.6504   -0.0373 H   0  0  0  0  0  0  0  0  0  0  0  0
   -1.3868    2.4545   -0.1312 H   0  0  0  0  0  0  0  0  0  0  0  0
   -1.8723    1.6175    1.3586 H   0  0  0  0  0  0  0  0  0  0  0  0
   -2.9789   -2.6731    1.2322 H   0  0  0  0  0  0  0  0  0  0  0  0
    1.6306    0.1279   -1.9443 C   0  0  0  0  0  0  0  0  0  0  0  0
    2.0846    0.1796   -0.7025 C   0  0  0  0  0  0  0  0  0  0  0  0
    1.2270    0.2394    0.5351 C   0  0  0  0  0  3  0  0  0  0  0  0
    1.5128    1.5120    1.3276 C   0  0  0  0  0  0  0  0  0  0  0  0
    1.4139   -1.0319    1.3258 C   0  0  0  0  0  0  0  0  0  0  0  0
    1.8640   -1.1349    2.5666 C   0  0  0  0  0  0  0  0  0  0  0  0
    2.3027    0.0856   -2.7921 H   0  0  0  0  0  0  0  0  0  0  0  0
    0.5669    0.1270   -2.1581 H   0  0  0  0  0  0  0  0  0  0  0  0
    3.1575    0.1760   -0.5217 H   0  0  0  0  0  0  0  0  0  0  0  0
    0.8853    1.5698    2.2186 H   0  0  0  0  0  0  0  0  0  0  0  0
    1.3166    2.3898    0.7115 H   0  0  0  0  0  0  0  0  0  0  0  0
    2.5575    1.5519    1.6447 H   0  0  0  0  0  0  0  0  0  0  0  0
    1.1577   -1.9381    0.7832 H   0  0  0  0  0  0  0  0  0  0  0  0
    2.1404   -0.2696    3.1568 H   0  0  0  0  0  0  0  0  0  0  0  0
    1.9697   -2.1021    3.0416 H   0  0  0  0  0  0  0  0  0  0  0  0
  1  2  3  0
  1  7  1  0
  2  3  1  0
  3  4  1  0
  3  5  1  0
  3  8  1  0
  4  9  1  0
  4 10  1  0
  4 11  1  0
  5  6  3  0
  6 12  1  0
 13 14  2  3
 13 19  1  0
 13 20  1  0
 14 15  1  0
 14 21  1  0
 15 16  1  0
 15 17  1  0
 16 22  1  0
 16 23  1  0
 16 24  1  0
 17 18  2  3
 17 25  1  0
 18 26  1  0
 18 27  1  0
M  RAD  1  15   2
M  END
>  <reaction>  (16) 
rxn_1398

>  <mol_properties>  (16) 
{"1": {"label": "*4", "atom_type": "Ct"}, "2": {"label": "*3", "atom_type": "Cs"}, "7": {"label": "*2", "atom_type": "H0"}, "13": {"label": "*0", "atom_type": "Cd"}, "14": {"label": "*1", "atom_type": "Cs"}}

>  <type>  (16) 
unop_12

>  <geom_source>  (16) 
Heuristics

$$$$

     RDKit          3D

 27 25  0  0  0  0  0  0  0  0999 V2000
    0.9591    0.1232    0.0674 C   0  0  0  0  0  0  0  0  0  0  0  0
    1.1144    1.4111   -0.7472 C   0  0  0  0  0  0  0  0  0  0  0  0
   -2.4037    0.3383    1.0785 C   0  0  0  0  0  0  0  0  0  0  0  0
    1.3775    0.3343    1.5027 C   0  0  0  0  0  0  0  0  0  0  0  0
    1.7291   -1.0131   -0.5644 C   0  0  0  0  0  0  0  0  0  0  0  0
   -1.6099    0.0937   -0.2016 C   0  0  0  0  0  3  0  0  0  0  0  0
    1.0763   -0.5577    2.4505 C   0  0  0  0  0  0  0  0  0  0  0  0
    3.0641   -1.0176   -0.6598 C   0  0  0  0  0  0  0  0  0  0  0  0
   -1.9627    1.0817   -1.2283 C   0  0  0  0  0  0  0  0  0  0  0  0
   -1.8544   -1.2601   -0.7137 C   0  0  0  0  0  0  0  0  0  0  0  0
   -2.2513    1.8944   -2.0711 C   0  0  0  0  0  0  0  0  0  0  0  0
   -2.0541   -2.3729   -1.1334 C   0  0  0  0  0  0  0  0  0  0  0  0
   -0.3313   -0.1945    0.0540 H   0  0  0  0  0  0  0  0  0  0  0  0
    0.4778    2.2106   -0.3120 H   0  0  0  0  0  0  0  0  0  0  0  0
    0.7868    1.2389   -1.7945 H   0  0  0  0  0  0  0  0  0  0  0  0
    2.1700    1.7580   -0.7515 H   0  0  0  0  0  0  0  0  0  0  0  0
   -2.1061   -0.3990    1.8542 H   0  0  0  0  0  0  0  0  0  0  0  0
   -2.1872    1.3556    1.4686 H   0  0  0  0  0  0  0  0  0  0  0  0
   -3.4963    0.2467    0.8917 H   0  0  0  0  0  0  0  0  0  0  0  0
    1.9257    1.2302    1.7825 H   0  0  0  0  0  0  0  0  0  0  0  0
    1.1731   -1.8624   -0.9494 H   0  0  0  0  0  0  0  0  0  0  0  0
    0.5258   -1.4625    2.2107 H   0  0  0  0  0  0  0  0  0  0  0  0
    1.3828   -0.3844    3.4769 H   0  0  0  0  0  0  0  0  0  0  0  0
    3.5720   -1.8588   -1.1199 H   0  0  0  0  0  0  0  0  0  0  0  0
    3.6566   -0.1919   -0.2784 H   0  0  0  0  0  0  0  0  0  0  0  0
   -2.5047    2.6076   -2.8108 H   0  0  0  0  0  0  0  0  0  0  0  0
   -2.2294   -3.3494   -1.5017 H   0  0  0  0  0  0  0  0  0  0  0  0
  1  2  1  0
  1  4  1  0
  1  5  1  0
  1 13  1  0
  2 14  1  0
  2 15  1  0
  2 16  1  0
  3  6  1  0
  3 17  1  0
  3 18  1  0
  3 19  1  0
  4  7  2  3
  4 20  1  0
  5  8  2  3
  5 21  1  0
  6  9  1  0
  6 10  1  0
  7 22  1  0
  7 23  1  0
  8 24  1  0
  8 25  1  0
  9 11  3  0
 10 12  3  0
 11 26  1  0
 12 27  1  0
M  RAD  1   6   2
M  END
>  <reaction>  (17) 
rxn_1398

>  <mol_properties>  (17) 
{"1": {"label": "*4", "atom_type": "Ct"}, "2": {"label": "*3", "atom_type": "Cs"}, "7": {"label": "*2", "atom_type": "H0"}, "13": {"label": "*0", "atom_type": "Cd"}, "14": {"label": "*1", "atom_type": "Cs"}}

>  <type>  (17) 
unop_13

>  <geom_source>  (17) 
AutoTST

$$$$
