
     RDKit          3D

 13 12  0  0  0  0  0  0  0  0999 V2000
    3.0977   -0.3549   -0.5105 C   0  0  0  0  0  0  0  0  0  0  0  0
    2.0556    0.4221   -0.2627 C   0  0  0  0  0  0  0  0  0  0  0  0
    0.6313   -0.0354   -0.2366 C   0  0  0  0  0  0  0  0  0  0  0  0
   -0.2567    0.6038   -1.2694 C   0  0  0  0  0  0  0  0  0  0  0  0
    0.1459    1.3456   -2.2891 C   0  0  0  0  0  0  0  0  0  0  0  0
    4.1081    0.0344   -0.5074 H   0  0  0  0  0  0  0  0  0  0  0  0
    2.9777   -1.4116   -0.7243 H   0  0  0  0  0  0  0  0  0  0  0  0
    2.2171    1.4781   -0.0618 H   0  0  0  0  0  0  0  0  0  0  0  0
    0.5865   -1.1233   -0.3540 H   0  0  0  0  0  0  0  0  0  0  0  0
    0.2065    0.1743    0.7521 H   0  0  0  0  0  0  0  0  0  0  0  0
   -1.3190    0.4126   -1.1445 H   0  0  0  0  0  0  0  0  0  0  0  0
    1.1948    1.5564   -2.4628 H   0  0  0  0  0  0  0  0  0  0  0  0
   -0.5644    1.7621   -2.9918 H   0  0  0  0  0  0  0  0  0  0  0  0
  1  2  2  3
  1  6  1  0
  1  7  1  0
  2  3  1  0
  2  8  1  0
  3  4  1  0
  3  9  1  0
  3 10  1  0
  4  5  2  3
  4 11  1  0
  5 12  1  0
  5 13  1  0
M  END
>  <reaction>  (1) 
rxn_1136

>  <mol_properties>  (1) 
{"2": {"label": "donator", "atom_type": "Cs"}, "8": {"label": "d_hydrogen", "atom_type": "H0"}}

>  <type>  (1) 
r1h

$$$$

     RDKit          3D

 12 11  0  0  0  0  0  0  0  0999 V2000
    2.5164   -0.5559   -0.0242 C   0  0  0  0  0  0  0  0  0  0  0  0
    1.3287   -0.2938   -0.0132 C   0  0  0  0  0  0  0  0  0  0  0  0
   -0.0146    0.0027   -0.0006 C   0  0  0  0  0  3  0  0  0  0  0  0
   -1.0396   -1.0729   -0.1642 C   0  0  0  0  0  0  0  0  0  0  0  0
   -0.4887    1.4091    0.1769 C   0  0  0  0  0  0  0  0  0  0  0  0
    3.5543   -0.7850   -0.0339 H   0  0  0  0  0  0  0  0  0  0  0  0
   -1.7064   -1.1056    0.7044 H   0  0  0  0  0  0  0  0  0  0  0  0
   -0.5831   -2.0533   -0.2854 H   0  0  0  0  0  0  0  0  0  0  0  0
   -1.6716   -0.8741   -1.0367 H   0  0  0  0  0  0  0  0  0  0  0  0
   -1.0951    1.7228   -0.6798 H   0  0  0  0  0  0  0  0  0  0  0  0
    0.3401    2.1059    0.2861 H   0  0  0  0  0  0  0  0  0  0  0  0
   -1.1300    1.4913    1.0613 H   0  0  0  0  0  0  0  0  0  0  0  0
  1  2  3  0
  1  6  1  0
  2  3  1  0
  3  4  1  0
  3  5  1  0
  4  7  1  0
  4  8  1  0
  4  9  1  0
  5 10  1  0
  5 11  1  0
  5 12  1  0
M  RAD  1   3   2
M  END
>  <reaction>  (2) 
rxn_1136

>  <mol_properties>  (2) 
{"2": {"label": "acceptor", "atom_type": "Cs"}}

>  <type>  (2) 
r2

$$$$

     RDKit          3D

 13 12  0  0  0  0  0  0  0  0999 V2000
    2.2975   -0.6134    0.7685 C   0  0  0  0  0  0  0  0  0  0  0  0
    1.1676   -0.5248    0.3802 C   0  0  0  0  0  0  0  0  0  0  0  0
   -0.2109   -0.3926   -0.0948 C   0  0  0  0  0  0  0  0  0  0  0  0
   -0.2501    0.2584   -1.4808 C   0  0  0  0  0  0  0  0  0  0  0  0
   -1.0633    0.3831    0.9141 C   0  0  0  0  0  0  0  0  0  0  0  0
    3.2999   -0.6974    1.1133 H   0  0  0  0  0  0  0  0  0  0  0  0
   -0.6209   -1.4038   -0.1814 H   0  0  0  0  0  0  0  0  0  0  0  0
    0.3402   -0.3102   -2.1992 H   0  0  0  0  0  0  0  0  0  0  0  0
    0.1511    1.2724   -1.4369 H   0  0  0  0  0  0  0  0  0  0  0  0
   -1.2791    0.3109   -1.8407 H   0  0  0  0  0  0  0  0  0  0  0  0
   -0.6861    1.4008    1.0287 H   0  0  0  0  0  0  0  0  0  0  0  0
   -1.0492   -0.0971    1.8924 H   0  0  0  0  0  0  0  0  0  0  0  0
   -2.0971    0.4363    0.5680 H   0  0  0  0  0  0  0  0  0  0  0  0
  1  2  3  0
  1  6  1  0
  2  3  1  0
  3  4  1  0
  3  5  1  0
  3  7  1  0
  4  8  1  0
  4  9  1  0
  4 10  1  0
  5 11  1  0
  5 12  1  0
  5 13  1  0
M  END
>  <reaction>  (3) 
rxn_1136

>  <mol_properties>  (3) 
{"2": {"label": "acceptor", "atom_type": "Cs"}, "12": {"label": "a_hydrogen", "atom_type": "H0"}}

>  <type>  (3) 
r2h

$$$$

     RDKit          3D

 25 23  0  0  0  0  0  0  0  0999 V2000
   -2.5835    1.1605   -1.5734 C   0  0  0  0  0  0  0  0  0  0  0  0
   -1.5352    1.2917   -0.9953 C   0  0  0  0  0  0  0  0  0  0  0  0
   -0.3054    1.3841   -0.2881 C   0  0  0  0  0  3  0  0  0  0  0  0
   -0.3027    2.2710    0.9349 C   0  0  0  0  0  0  0  0  0  0  0  0
    0.9475    1.4223   -1.1301 C   0  0  0  0  0  0  0  0  0  0  0  0
   -3.5061    1.0600   -2.0923 H   0  0  0  0  0  0  0  0  0  0  0  0
    0.5847    2.0723    1.5395 H   0  0  0  0  0  0  0  0  0  0  0  0
   -1.1889    2.1036    1.5474 H   0  0  0  0  0  0  0  0  0  0  0  0
   -0.2855    3.3270    0.6480 H   0  0  0  0  0  0  0  0  0  0  0  0
    1.0766    2.4060   -1.5920 H   0  0  0  0  0  0  0  0  0  0  0  0
    0.9085    0.6757   -1.9231 H   0  0  0  0  0  0  0  0  0  0  0  0
    1.8221    1.2253   -0.5056 H   0  0  0  0  0  0  0  0  0  0  0  0
   -0.3661   -2.4610   -1.2410 C   0  0  0  0  0  0  0  0  0  0  0  0
    0.4560   -1.8684   -0.3779 C   0  0  0  0  0  0  0  0  0  0  0  0
    0.0075   -1.0817    0.7749 C   0  0  0  0  0  0  0  0  0  0  0  0
    0.8942   -0.8588    1.9240 C   0  0  0  0  0  0  0  0  0  0  0  0
    2.2134   -1.0443    1.9793 C   0  0  0  0  0  0  0  0  0  0  0  0
    0.0111   -2.9995   -2.1005 H   0  0  0  0  0  0  0  0  0  0  0  0
   -1.4421   -2.4237   -1.1124 H   0  0  0  0  0  0  0  0  0  0  0  0
    1.5247   -1.9209   -0.5596 H   0  0  0  0  0  0  0  0  0  0  0  0
   -0.1836    0.1097    0.2832 H   0  0  0  0  0  0  0  0  0  0  0  0
   -1.0239   -1.2894    1.0598 H   0  0  0  0  0  0  0  0  0  0  0  0
    0.4021   -0.4559    2.8048 H   0  0  0  0  0  0  0  0  0  0  0  0
    2.7834   -1.4450    1.1503 H   0  0  0  0  0  0  0  0  0  0  0  0
    2.7671   -0.8083    2.8785 H   0  0  0  0  0  0  0  0  0  0  0  0
  1  2  3  0
  1  6  1  0
  2  3  1  0
  3  4  1  0
  3  5  1  0
  4  7  1  0
  4  8  1  0
  4  9  1  0
  5 10  1  0
  5 11  1  0
  5 12  1  0
 13 14  2  3
 13 18  1  0
 13 19  1  0
 14 15  1  0
 14 20  1  0
 15 16  1  0
 15 21  1  0
 15 22  1  0
 16 17  2  3
 16 23  1  0
 17 24  1  0
 17 25  1  0
M  RAD  1   3   2
M  END
>  <reaction>  (4) 
rxn_1136

>  <mol_properties>  (4) 
{"1": {"label": "*4", "atom_type": "Ct"}, "2": {"label": "*3", "atom_type": "Cs"}, "13": {"label": "*0", "atom_type": "Cd"}, "14": {"label": "*1", "atom_type": "Cs"}, "20": {"label": "*2", "atom_type": "H0"}}

>  <type>  (4) 
ts

$$$$

     RDKit          3D

 25 23  0  0  0  0  0  0  0  0999 V2000
   -2.5391    2.3684    0.0915 C   0  0  0  0  0  0  0  0  0  0  0  0
   -1.5480    1.7887   -0.2507 C   0  0  0  0  0  0  0  0  0  0  0  0
   -0.3260    1.1013   -0.6720 C   0  0  0  0  0  0  0  0  0  0  0  0
    0.8295    1.4069    0.2860 C   0  0  0  0  0  0  0  0  0  0  0  0
    0.0322    1.4622   -2.1168 C   0  0  0  0  0  0  0  0  0  0  0  0
   -3.4187    2.8830    0.3952 H   0  0  0  0  0  0  0  0  0  0  0  0
    1.7213    0.8543   -0.0149 H   0  0  0  0  0  0  0  0  0  0  0  0
    0.5769    1.1276    1.3088 H   0  0  0  0  0  0  0  0  0  0  0  0
    1.0642    2.4727    0.2720 H   0  0  0  0  0  0  0  0  0  0  0  0
    0.2434    2.5296   -2.2017 H   0  0  0  0  0  0  0  0  0  0  0  0
   -0.7853    1.2220   -2.7964 H   0  0  0  0  0  0  0  0  0  0  0  0
    0.9194    0.9099   -2.4316 H   0  0  0  0  0  0  0  0  0  0  0  0
   -0.0859   -2.2680   -1.3524 C   0  0  0  0  0  0  0  0  0  0  0  0
   -0.0859   -2.2680   -0.0292 C   0  0  0  0  0  0  0  0  0  0  0  0
   -0.0859   -1.0422    0.8289 C   0  0  0  0  0  3  0  0  0  0  0  0
    1.1238   -0.8878    1.7101 C   0  0  0  0  0  0  0  0  0  0  0  0
    2.2350   -1.6035    1.6376 C   0  0  0  0  0  0  0  0  0  0  0  0
   -0.0940   -3.1908   -1.9189 H   0  0  0  0  0  0  0  0  0  0  0  0
   -0.0795   -1.3426   -1.9184 H   0  0  0  0  0  0  0  0  0  0  0  0
   -0.0833   -3.2168    0.5014 H   0  0  0  0  0  0  0  0  0  0  0  0
   -0.2059    0.0298    0.0783 H   0  0  0  0  0  0  0  0  0  0  0  0
   -0.9738   -1.0557    1.4716 H   0  0  0  0  0  0  0  0  0  0  0  0
    1.0512   -0.1028    2.4578 H   0  0  0  0  0  0  0  0  0  0  0  0
    2.3605   -2.3904    0.9028 H   0  0  0  0  0  0  0  0  0  0  0  0
    3.0632   -1.4192    2.3100 H   0  0  0  0  0  0  0  0  0  0  0  0
  1  2  3  0
  1  6  1  0
  2  3  1  0
  3  4  1  0
  3  5  1  0
  3 21  1  0
  4  7  1  0
  4  8  1  0
  4  9  1  0
  5 10  1  0
  5 11  1  0
  5 12  1  0
 13 14  2  3
 13 18  1  0
 13 19  1  0
 14 15  1  0
 14 20  1  0
 15 16  1  0
 15 22  1  0
 16 17  2  3
 16 23  1  0
 17 24  1  0
 17 25  1  0
M  RAD  1  15   2
M  END
>  <reaction>  (5) 
rxn_1136

>  <mol_properties>  (5) 
{"1": {"label": "*4", "atom_type": "Ct"}, "2": {"label": "*3", "atom_type": "Cs"}, "13": {"label": "*0", "atom_type": "Cd"}, "14": {"label": "*1", "atom_type": "Cs"}, "20": {"label": "*2", "atom_type": "H0"}}

>  <type>  (5) 
unop_1

>  <geom_source>  (5) 
Heuristics

$$$$

     RDKit          3D

 25 23  0  0  0  0  0  0  0  0999 V2000
   -1.7185    0.6041   -2.5222 C   0  0  0  0  0  0  0  0  0  0  0  0
   -1.0798    0.8997   -1.5526 C   0  0  0  0  0  0  0  0  0  0  0  0
   -0.3041    1.2839   -0.3719 C   0  0  0  0  0  0  0  0  0  0  0  0
   -1.1926    1.9858    0.6596 C   0  0  0  0  0  0  0  0  0  0  0  0
    0.8937    2.1536   -0.7657 C   0  0  0  0  0  0  0  0  0  0  0  0
   -2.2853    0.3419   -3.3828 H   0  0  0  0  0  0  0  0  0  0  0  0
   -0.6116    2.2274    1.5514 H   0  0  0  0  0  0  0  0  0  0  0  0
   -2.0306    1.3534    0.9522 H   0  0  0  0  0  0  0  0  0  0  0  0
   -1.5935    2.9139    0.2484 H   0  0  0  0  0  0  0  0  0  0  0  0
    0.5544    3.0867   -1.2189 H   0  0  0  0  0  0  0  0  0  0  0  0
    1.5338    1.6401   -1.4830 H   0  0  0  0  0  0  0  0  0  0  0  0
    1.4868    2.3962    0.1178 H   0  0  0  0  0  0  0  0  0  0  0  0
   -0.0640   -2.0854   -1.0524 C   0  0  0  0  0  0  0  0  0  0  0  0
   -0.0640   -2.0854    0.2709 C   0  0  0  0  0  0  0  0  0  0  0  0
   -0.0640   -0.8596    1.1289 C   0  0  0  0  0  3  0  0  0  0  0  0
    1.1458   -0.7053    2.0101 C   0  0  0  0  0  0  0  0  0  0  0  0
    2.2569   -1.4209    1.9376 C   0  0  0  0  0  0  0  0  0  0  0  0
   -0.0721   -3.0082   -1.6189 H   0  0  0  0  0  0  0  0  0  0  0  0
   -0.0576   -1.1600   -1.6184 H   0  0  0  0  0  0  0  0  0  0  0  0
   -0.0614   -3.0342    0.8014 H   0  0  0  0  0  0  0  0  0  0  0  0
   -0.1840    0.2124    0.3783 H   0  0  0  0  0  0  0  0  0  0  0  0
   -0.9519   -0.8731    1.7716 H   0  0  0  0  0  0  0  0  0  0  0  0
    1.0731    0.0798    2.7578 H   0  0  0  0  0  0  0  0  0  0  0  0
    2.3824   -2.2078    1.2028 H   0  0  0  0  0  0  0  0  0  0  0  0
    3.0851   -1.2366    2.6100 H   0  0  0  0  0  0  0  0  0  0  0  0
  1  2  3  0
  1  6  1  0
  2  3  1  0
  3  4  1  0
  3  5  1  0
  3 21  1  0
  4  7  1  0
  4  8  1  0
  4  9  1  0
  5 10  1  0
  5 11  1  0
  5 12  1  0
 13 14  2  3
 13 18  1  0
 13 19  1  0
 14 15  1  0
 14 20  1  0
 15 16  1  0
 15 22  1  0
 16 17  2  3
 16 23  1  0
 17 24  1  0
 17 25  1  0
M  RAD  1  15   2
M  END
>  <reaction>  (6) 
rxn_1136

>  <mol_properties>  (6) 
{"1": {"label": "*4", "atom_type": "Ct"}, "2": {"label": "*3", "atom_type": "Cs"}, "13": {"label": "*0", "atom_type": "Cd"}, "14": {"label": "*1", "atom_type": "Cs"}, "20": {"label": "*2", "atom_type": "H0"}}

>  <type>  (6) 
unop_2

>  <geom_source>  (6) 
Heuristics

$$$$

     RDKit          3D

 25 23  0  0  0  0  0  0  0  0999 V2000
   -1.6758    2.9195    0.7651 C   0  0  0  0  0  0  0  0  0  0  0  0
   -1.1153    2.0783    0.1219 C   0  0  0  0  0  0  0  0  0  0  0  0
   -0.4198    1.0676   -0.6769 C   0  0  0  0  0  0  0  0  0  0  0  0
    1.0979    1.1918   -0.5122 C   0  0  0  0  0  0  0  0  0  0  0  0
   -0.8339    1.1562   -2.1489 C   0  0  0  0  0  0  0  0  0  0  0  0
   -2.1732    3.6660    1.3360 H   0  0  0  0  0  0  0  0  0  0  0  0
    1.6014    0.4060   -1.0780 H   0  0  0  0  0  0  0  0  0  0  0  0
    1.3883    1.1059    0.5348 H   0  0  0  0  0  0  0  0  0  0  0  0
    1.4436    2.1582   -0.8834 H   0  0  0  0  0  0  0  0  0  0  0  0
   -0.5453    2.1215   -2.5684 H   0  0  0  0  0  0  0  0  0  0  0  0
   -1.9123    1.0450   -2.2616 H   0  0  0  0  0  0  0  0  0  0  0  0
   -0.3416    0.3701   -2.7242 H   0  0  0  0  0  0  0  0  0  0  0  0
   -0.1797   -2.3017   -1.3574 C   0  0  0  0  0  0  0  0  0  0  0  0
   -0.1797   -2.3017   -0.0341 C   0  0  0  0  0  0  0  0  0  0  0  0
   -0.1797   -1.0759    0.8239 C   0  0  0  0  0  3  0  0  0  0  0  0
    1.0300   -0.9216    1.7051 C   0  0  0  0  0  0  0  0  0  0  0  0
    2.1411   -1.6373    1.6326 C   0  0  0  0  0  0  0  0  0  0  0  0
   -0.1879   -3.2245   -1.9239 H   0  0  0  0  0  0  0  0  0  0  0  0
   -0.1734   -1.3763   -1.9234 H   0  0  0  0  0  0  0  0  0  0  0  0
   -0.1772   -3.2505    0.4964 H   0  0  0  0  0  0  0  0  0  0  0  0
   -0.2998   -0.0040    0.0733 H   0  0  0  0  0  0  0  0  0  0  0  0
   -1.0677   -1.0894    1.4667 H   0  0  0  0  0  0  0  0  0  0  0  0
    0.9573   -0.1365    2.4528 H   0  0  0  0  0  0  0  0  0  0  0  0
    2.2666   -2.4241    0.8978 H   0  0  0  0  0  0  0  0  0  0  0  0
    2.9694   -1.4530    2.3050 H   0  0  0  0  0  0  0  0  0  0  0  0
  1  2  3  0
  1  6  1  0
  2  3  1  0
  3  4  1  0
  3  5  1  0
  3 21  1  0
  4  7  1  0
  4  8  1  0
  4  9  1  0
  5 10  1  0
  5 11  1  0
  5 12  1  0
 13 14  2  3
 13 18  1  0
 13 19  1  0
 14 15  1  0
 14 20  1  0
 15 16  1  0
 15 22  1  0
 16 17  2  3
 16 23  1  0
 17 24  1  0
 17 25  1  0
M  RAD  1  15   2
M  END
>  <reaction>  (7) 
rxn_1136

>  <mol_properties>  (7) 
{"1": {"label": "*4", "atom_type": "Ct"}, "2": {"label": "*3", "atom_type": "Cs"}, "13": {"label": "*0", "atom_type": "Cd"}, "14": {"label": "*1", "atom_type": "Cs"}, "20": {"label": "*2", "atom_type": "H0"}}

>  <type>  (7) 
unop_3

>  <geom_source>  (7) 
Heuristics

$$$$

     RDKit          3D

 25 23  0  0  0  0  0  0  0  0999 V2000
    1.3944    1.2555   -2.1127 C   0  0  0  0  0  0  0  0  0  0  0  0
    0.4592    1.2220   -1.3645 C   0  0  0  0  0  0  0  0  0  0  0  0
   -0.6839    1.2049   -0.4500 C   0  0  0  0  0  0  0  0  0  0  0  0
   -1.9073    1.8644   -1.0939 C   0  0  0  0  0  0  0  0  0  0  0  0
   -0.3254    1.8678    0.8835 C   0  0  0  0  0  0  0  0  0  0  0  0
    2.2243    1.2853   -2.7767 H   0  0  0  0  0  0  0  0  0  0  0  0
   -2.7628    1.8059   -0.4188 H   0  0  0  0  0  0  0  0  0  0  0  0
   -2.1707    1.3744   -2.0311 H   0  0  0  0  0  0  0  0  0  0  0  0
   -1.7065    2.9164   -1.3042 H   0  0  0  0  0  0  0  0  0  0  0  0
   -0.0779    2.9199    0.7315 H   0  0  0  0  0  0  0  0  0  0  0  0
    0.5319    1.3801    1.3472 H   0  0  0  0  0  0  0  0  0  0  0  0
   -1.1718    1.8093    1.5701 H   0  0  0  0  0  0  0  0  0  0  0  0
   -0.4438   -2.1644   -1.1305 C   0  0  0  0  0  0  0  0  0  0  0  0
   -0.4438   -2.1644    0.1928 C   0  0  0  0  0  0  0  0  0  0  0  0
   -0.4438   -0.9386    1.0508 C   0  0  0  0  0  3  0  0  0  0  0  0
    0.7659   -0.7843    1.9320 C   0  0  0  0  0  0  0  0  0  0  0  0
    1.8771   -1.4999    1.8595 C   0  0  0  0  0  0  0  0  0  0  0  0
   -0.4520   -3.0872   -1.6970 H   0  0  0  0  0  0  0  0  0  0  0  0
   -0.4375   -1.2390   -1.6965 H   0  0  0  0  0  0  0  0  0  0  0  0
   -0.4412   -3.1132    0.7233 H   0  0  0  0  0  0  0  0  0  0  0  0
   -0.5639    0.1334    0.3002 H   0  0  0  0  0  0  0  0  0  0  0  0
   -1.3318   -0.9521    1.6935 H   0  0  0  0  0  0  0  0  0  0  0  0
    0.6932    0.0008    2.6797 H   0  0  0  0  0  0  0  0  0  0  0  0
    2.0025   -2.2868    1.1247 H   0  0  0  0  0  0  0  0  0  0  0  0
    2.7053   -1.3157    2.5319 H   0  0  0  0  0  0  0  0  0  0  0  0
  1  2  3  0
  1  6  1  0
  2  3  1  0
  3  4  1  0
  3  5  1  0
  3 21  1  0
  4  7  1  0
  4  8  1  0
  4  9  1  0
  5 10  1  0
  5 11  1  0
  5 12  1  0
 13 14  2  3
 13 18  1  0
 13 19  1  0
 14 15  1  0
 14 20  1  0
 15 16  1  0
 15 22  1  0
 16 17  2  3
 16 23  1  0
 17 24  1  0
 17 25  1  0
M  RAD  1  15   2
M  END
>  <reaction>  (8) 
rxn_1136

>  <mol_properties>  (8) 
{"1": {"label": "*4", "atom_type": "Ct"}, "2": {"label": "*3", "atom_type": "Cs"}, "13": {"label": "*0", "atom_type": "Cd"}, "14": {"label": "*1", "atom_type": "Cs"}, "20": {"label": "*2", "atom_type": "H0"}}

>  <type>  (8) 
unop_4

>  <geom_source>  (8) 
Heuristics

$$$$

     RDKit          3D

 25 23  0  0  0  0  0  0  0  0999 V2000
   -0.4525    3.1755    0.9596 C   0  0  0  0  0  0  0  0  0  0  0  0
   -0.4562    2.2164    0.2416 C   0  0  0  0  0  0  0  0  0  0  0  0
   -0.4631    1.0588   -0.6546 C   0  0  0  0  0  0  0  0  0  0  0  0
    0.7296    1.1052   -1.6145 C   0  0  0  0  0  0  0  0  0  0  0  0
   -1.7906    0.9641   -1.4129 C   0  0  0  0  0  0  0  0  0  0  0  0
   -0.4492    4.0268    1.5968 H   0  0  0  0  0  0  0  0  0  0  0  0
    0.7363    0.2154   -2.2466 H   0  0  0  0  0  0  0  0  0  0  0  0
    1.6721    1.1502   -1.0689 H   0  0  0  0  0  0  0  0  0  0  0  0
    0.6664    1.9841   -2.2585 H   0  0  0  0  0  0  0  0  0  0  0  0
   -1.9282    1.8388   -2.0509 H   0  0  0  0  0  0  0  0  0  0  0  0
   -2.6338    0.9091   -0.7244 H   0  0  0  0  0  0  0  0  0  0  0  0
   -1.7986    0.0735   -2.0438 H   0  0  0  0  0  0  0  0  0  0  0  0
   -0.2230   -2.3105   -1.3351 C   0  0  0  0  0  0  0  0  0  0  0  0
   -0.2230   -2.3105   -0.0118 C   0  0  0  0  0  0  0  0  0  0  0  0
   -0.2230   -1.0847    0.8462 C   0  0  0  0  0  3  0  0  0  0  0  0
    0.9867   -0.9304    1.7274 C   0  0  0  0  0  0  0  0  0  0  0  0
    2.0979   -1.6461    1.6549 C   0  0  0  0  0  0  0  0  0  0  0  0
   -0.2312   -3.2333   -1.9016 H   0  0  0  0  0  0  0  0  0  0  0  0
   -0.2167   -1.3851   -1.9011 H   0  0  0  0  0  0  0  0  0  0  0  0
   -0.2204   -3.2593    0.5187 H   0  0  0  0  0  0  0  0  0  0  0  0
   -0.3431   -0.0128    0.0956 H   0  0  0  0  0  0  0  0  0  0  0  0
   -1.1110   -1.0982    1.4890 H   0  0  0  0  0  0  0  0  0  0  0  0
    0.9140   -0.1453    2.4751 H   0  0  0  0  0  0  0  0  0  0  0  0
    2.2233   -2.4329    0.9201 H   0  0  0  0  0  0  0  0  0  0  0  0
    2.9261   -1.4618    2.3273 H   0  0  0  0  0  0  0  0  0  0  0  0
  1  2  3  0
  1  6  1  0
  2  3  1  0
  3  4  1  0
  3  5  1  0
  3 21  1  0
  4  7  1  0
  4  8  1  0
  4  9  1  0
  5 10  1  0
  5 11  1  0
  5 12  1  0
 13 14  2  3
 13 18  1  0
 13 19  1  0
 14 15  1  0
 14 20  1  0
 15 16  1  0
 15 22  1  0
 16 17  2  3
 16 23  1  0
 17 24  1  0
 17 25  1  0
M  RAD  1  15   2
M  END
>  <reaction>  (9) 
rxn_1136

>  <mol_properties>  (9) 
{"1": {"label": "*4", "atom_type": "Ct"}, "2": {"label": "*3", "atom_type": "Cs"}, "13": {"label": "*0", "atom_type": "Cd"}, "14": {"label": "*1", "atom_type": "Cs"}, "20": {"label": "*2", "atom_type": "H0"}}

>  <type>  (9) 
unop_5

>  <geom_source>  (9) 
Heuristics

$$$$

     RDKit          3D

 25 23  0  0  0  0  0  0  0  0999 V2000
    1.7744    1.9376   -1.2153 C   0  0  0  0  0  0  0  0  0  0  0  0
    0.6729    1.5668   -0.9244 C   0  0  0  0  0  0  0  0  0  0  0  0
   -0.6799    1.1367   -0.5664 C   0  0  0  0  0  0  0  0  0  0  0  0
   -1.7021    1.6462   -1.5869 C   0  0  0  0  0  0  0  0  0  0  0  0
   -1.0356    1.5825    0.8552 C   0  0  0  0  0  0  0  0  0  0  0  0
    2.7520    2.2666   -1.4735 H   0  0  0  0  0  0  0  0  0  0  0  0
   -2.6990    1.2822   -1.3319 H   0  0  0  0  0  0  0  0  0  0  0  0
   -1.4559    1.3074   -2.5931 H   0  0  0  0  0  0  0  0  0  0  0  0
   -1.7251    2.7374   -1.5909 H   0  0  0  0  0  0  0  0  0  0  0  0
   -1.0389    2.6717    0.9233 H   0  0  0  0  0  0  0  0  0  0  0  0
   -0.3171    1.1985    1.5792 H   0  0  0  0  0  0  0  0  0  0  0  0
   -2.0286    1.2181    1.1243 H   0  0  0  0  0  0  0  0  0  0  0  0
   -0.4398   -2.2327   -1.2468 C   0  0  0  0  0  0  0  0  0  0  0  0
   -0.4398   -2.2327    0.0764 C   0  0  0  0  0  0  0  0  0  0  0  0
   -0.4398   -1.0069    0.9344 C   0  0  0  0  0  3  0  0  0  0  0  0
    0.7700   -0.8525    1.8156 C   0  0  0  0  0  0  0  0  0  0  0  0
    1.8811   -1.5682    1.7432 C   0  0  0  0  0  0  0  0  0  0  0  0
   -0.4479   -3.1554   -1.8133 H   0  0  0  0  0  0  0  0  0  0  0  0
   -0.4334   -1.3072   -1.8128 H   0  0  0  0  0  0  0  0  0  0  0  0
   -0.4372   -3.1814    0.6070 H   0  0  0  0  0  0  0  0  0  0  0  0
   -0.5598    0.0651    0.1839 H   0  0  0  0  0  0  0  0  0  0  0  0
   -1.3277   -1.0204    1.5772 H   0  0  0  0  0  0  0  0  0  0  0  0
    0.6973   -0.0675    2.5634 H   0  0  0  0  0  0  0  0  0  0  0  0
    2.0066   -2.3551    1.0083 H   0  0  0  0  0  0  0  0  0  0  0  0
    2.7093   -1.3839    2.4155 H   0  0  0  0  0  0  0  0  0  0  0  0
  1  2  3  0
  1  6  1  0
  2  3  1  0
  3  4  1  0
  3  5  1  0
  3 21  1  0
  4  7  1  0
  4  8  1  0
  4  9  1  0
  5 10  1  0
  5 11  1  0
  5 12  1  0
 13 14  2  3
 13 18  1  0
 13 19  1  0
 14 15  1  0
 14 20  1  0
 15 16  1  0
 15 22  1  0
 16 17  2  3
 16 23  1  0
 17 24  1  0
 17 25  1  0
M  RAD  1  15   2
M  END
>  <reaction>  (10) 
rxn_1136

>  <mol_properties>  (10) 
{"1": {"label": "*4", "atom_type": "Ct"}, "2": {"label": "*3", "atom_type": "Cs"}, "13": {"label": "*0", "atom_type": "Cd"}, "14": {"label": "*1", "atom_type": "Cs"}, "20": {"label": "*2", "atom_type": "H0"}}

>  <type>  (10) 
unop_6

>  <geom_source>  (10) 
Heuristics

$$$$

     RDKit          3D

 25 23  0  0  0  0  0  0  0  0999 V2000
    1.5466    2.5972   -0.2354 C   0  0  0  0  0  0  0  0  0  0  0  0
    0.5843    1.9081   -0.4213 C   0  0  0  0  0  0  0  0  0  0  0  0
   -0.6051    1.0857   -0.6496 C   0  0  0  0  0  0  0  0  0  0  0  0
   -1.2256    1.3917   -2.0162 C   0  0  0  0  0  0  0  0  0  0  0  0
   -1.6208    1.2697    0.4820 C   0  0  0  0  0  0  0  0  0  0  0  0
    2.4006    3.2089   -0.0704 H   0  0  0  0  0  0  0  0  0  0  0  0
   -2.0847    0.7417   -2.1913 H   0  0  0  0  0  0  0  0  0  0  0  0
   -0.5046    1.2377   -2.8189 H   0  0  0  0  0  0  0  0  0  0  0  0
   -1.5647    2.4283   -2.0571 H   0  0  0  0  0  0  0  0  0  0  0  0
   -1.9716    2.3027    0.5149 H   0  0  0  0  0  0  0  0  0  0  0  0
   -1.1799    1.0292    1.4493 H   0  0  0  0  0  0  0  0  0  0  0  0
   -2.4822    0.6189    0.3214 H   0  0  0  0  0  0  0  0  0  0  0  0
   -0.3650   -2.2837   -1.3301 C   0  0  0  0  0  0  0  0  0  0  0  0
   -0.3650   -2.2837   -0.0068 C   0  0  0  0  0  0  0  0  0  0  0  0
   -0.3650   -1.0578    0.8512 C   0  0  0  0  0  3  0  0  0  0  0  0
    0.8447   -0.9035    1.7324 C   0  0  0  0  0  0  0  0  0  0  0  0
    1.9558   -1.6192    1.6599 C   0  0  0  0  0  0  0  0  0  0  0  0
   -0.3732   -3.2064   -1.8966 H   0  0  0  0  0  0  0  0  0  0  0  0
   -0.3587   -1.3582   -1.8961 H   0  0  0  0  0  0  0  0  0  0  0  0
   -0.3625   -3.2324    0.5237 H   0  0  0  0  0  0  0  0  0  0  0  0
   -0.4851    0.0141    0.1006 H   0  0  0  0  0  0  0  0  0  0  0  0
   -1.2530   -1.0713    1.4940 H   0  0  0  0  0  0  0  0  0  0  0  0
    0.7720   -0.1185    2.4801 H   0  0  0  0  0  0  0  0  0  0  0  0
    2.0813   -2.4060    0.9251 H   0  0  0  0  0  0  0  0  0  0  0  0
    2.7841   -1.4349    2.3323 H   0  0  0  0  0  0  0  0  0  0  0  0
  1  2  3  0
  1  6  1  0
  2  3  1  0
  3  4  1  0
  3  5  1  0
  3 21  1  0
  4  7  1  0
  4  8  1  0
  4  9  1  0
  5 10  1  0
  5 11  1  0
  5 12  1  0
 13 14  2  3
 13 18  1  0
 13 19  1  0
 14 15  1  0
 14 20  1  0
 15 16  1  0
 15 22  1  0
 16 17  2  3
 16 23  1  0
 17 24  1  0
 17 25  1  0
M  RAD  1  15   2
M  END
>  <reaction>  (11) 
rxn_1136

>  <mol_properties>  (11) 
{"1": {"label": "*4", "atom_type": "Ct"}, "2": {"label": "*3", "atom_type": "Cs"}, "13": {"label": "*0", "atom_type": "Cd"}, "14": {"label": "*1", "atom_type": "Cs"}, "20": {"label": "*2", "atom_type": "H0"}}

>  <type>  (11) 
unop_7

>  <geom_source>  (11) 
Heuristics

$$$$

     RDKit          3D

 25 23  0  0  0  0  0  0  0  0999 V2000
   -2.8448    1.6789   -0.8457 C   0  0  0  0  0  0  0  0  0  0  0  0
   -1.6768    1.4353   -0.7364 C   0  0  0  0  0  0  0  0  0  0  0  0
   -0.2451    1.1610   -0.6011 C   0  0  0  0  0  0  0  0  0  0  0  0
    0.2798    1.6561    0.7500 C   0  0  0  0  0  0  0  0  0  0  0  0
    0.5396    1.7718   -1.7662 C   0  0  0  0  0  0  0  0  0  0  0  0
   -3.8813    1.8951   -0.9428 H   0  0  0  0  0  0  0  0  0  0  0  0
    1.3371    1.4065    0.8551 H   0  0  0  0  0  0  0  0  0  0  0  0
   -0.2678    1.2012    1.5753 H   0  0  0  0  0  0  0  0  0  0  0  0
    0.1729    2.7396    0.8263 H   0  0  0  0  0  0  0  0  0  0  0  0
    0.4403    2.8586   -1.7641 H   0  0  0  0  0  0  0  0  0  0  0  0
    0.1760    1.3988   -2.7237 H   0  0  0  0  0  0  0  0  0  0  0  0
    1.5984    1.5228   -1.6757 H   0  0  0  0  0  0  0  0  0  0  0  0
   -0.0050   -2.2083   -1.2816 C   0  0  0  0  0  0  0  0  0  0  0  0
   -0.0050   -2.2083    0.0417 C   0  0  0  0  0  0  0  0  0  0  0  0
   -0.0050   -0.9825    0.8997 C   0  0  0  0  0  3  0  0  0  0  0  0
    1.2047   -0.8282    1.7809 C   0  0  0  0  0  0  0  0  0  0  0  0
    2.3159   -1.5439    1.7084 C   0  0  0  0  0  0  0  0  0  0  0  0
   -0.0132   -3.1311   -1.8481 H   0  0  0  0  0  0  0  0  0  0  0  0
    0.0013   -1.2829   -1.8476 H   0  0  0  0  0  0  0  0  0  0  0  0
   -0.0024   -3.1571    0.5722 H   0  0  0  0  0  0  0  0  0  0  0  0
   -0.1251    0.0895    0.1491 H   0  0  0  0  0  0  0  0  0  0  0  0
   -0.8930   -0.9960    1.5424 H   0  0  0  0  0  0  0  0  0  0  0  0
    1.1320   -0.0431    2.5286 H   0  0  0  0  0  0  0  0  0  0  0  0
    2.4413   -2.3307    0.9736 H   0  0  0  0  0  0  0  0  0  0  0  0
    3.1441   -1.3596    2.3808 H   0  0  0  0  0  0  0  0  0  0  0  0
  1  2  3  0
  1  6  1  0
  2  3  1  0
  3  4  1  0
  3  5  1  0
  3 21  1  0
  4  7  1  0
  4  8  1  0
  4  9  1  0
  5 10  1  0
  5 11  1  0
  5 12  1  0
 13 14  2  3
 13 18  1  0
 13 19  1  0
 14 15  1  0
 14 20  1  0
 15 16  1  0
 15 22  1  0
 16 17  2  3
 16 23  1  0
 17 24  1  0
 17 25  1  0
M  RAD  1  15   2
M  END
>  <reaction>  (12) 
rxn_1136

>  <mol_properties>  (12) 
{"1": {"label": "*4", "atom_type": "Ct"}, "2": {"label": "*3", "atom_type": "Cs"}, "13": {"label": "*0", "atom_type": "Cd"}, "14": {"label": "*1", "atom_type": "Cs"}, "20": {"label": "*2", "atom_type": "H0"}}

>  <type>  (12) 
unop_8

>  <geom_source>  (12) 
Heuristics

$$$$

     RDKit          3D

 25 23  0  0  0  0  0  0  0  0999 V2000
    0.5229    0.7297   -2.7015 C   0  0  0  0  0  0  0  0  0  0  0  0
    0.0172    0.9611   -1.6404 C   0  0  0  0  0  0  0  0  0  0  0  0
   -0.5993    1.2674   -0.3483 C   0  0  0  0  0  0  0  0  0  0  0  0
   -1.9334    1.9953   -0.5395 C   0  0  0  0  0  0  0  0  0  0  0  0
    0.3580    2.0727    0.5356 C   0  0  0  0  0  0  0  0  0  0  0  0
    0.9717    0.5243   -3.6433 H   0  0  0  0  0  0  0  0  0  0  0  0
   -2.4021    2.1784    0.4290 H   0  0  0  0  0  0  0  0  0  0  0  0
   -2.6181    1.4076   -1.1508 H   0  0  0  0  0  0  0  0  0  0  0  0
   -1.7758    2.9562   -1.0325 H   0  0  0  0  0  0  0  0  0  0  0  0
    0.5832    3.0358    0.0743 H   0  0  0  0  0  0  0  0  0  0  0  0
    1.2967    1.5397    0.6860 H   0  0  0  0  0  0  0  0  0  0  0  0
   -0.0974    2.2562    1.5103 H   0  0  0  0  0  0  0  0  0  0  0  0
   -0.3592   -2.1020   -1.0288 C   0  0  0  0  0  0  0  0  0  0  0  0
   -0.3592   -2.1020    0.2945 C   0  0  0  0  0  0  0  0  0  0  0  0
   -0.3592   -0.8762    1.1525 C   0  0  0  0  0  3  0  0  0  0  0  0
    0.8505   -0.7218    2.0337 C   0  0  0  0  0  0  0  0  0  0  0  0
    1.9617   -1.4375    1.9612 C   0  0  0  0  0  0  0  0  0  0  0  0
   -0.3674   -3.0247   -1.5953 H   0  0  0  0  0  0  0  0  0  0  0  0
   -0.3529   -1.1765   -1.5948 H   0  0  0  0  0  0  0  0  0  0  0  0
   -0.3567   -3.0507    0.8250 H   0  0  0  0  0  0  0  0  0  0  0  0
   -0.4793    0.1958    0.4019 H   0  0  0  0  0  0  0  0  0  0  0  0
   -1.2472   -0.8896    1.7953 H   0  0  0  0  0  0  0  0  0  0  0  0
    0.7778    0.0632    2.7814 H   0  0  0  0  0  0  0  0  0  0  0  0
    2.0871   -2.2243    1.2264 H   0  0  0  0  0  0  0  0  0  0  0  0
    2.7899   -1.2532    2.6336 H   0  0  0  0  0  0  0  0  0  0  0  0
  1  2  3  0
  1  6  1  0
  2  3  1  0
  3  4  1  0
  3  5  1  0
  3 21  1  0
  4  7  1  0
  4  8  1  0
  4  9  1  0
  5 10  1  0
  5 11  1  0
  5 12  1  0
 13 14  2  3
 13 18  1  0
 13 19  1  0
 14 15  1  0
 14 20  1  0
 15 16  1  0
 15 22  1  0
 16 17  2  3
 16 23  1  0
 17 24  1  0
 17 25  1  0
M  RAD  1  15   2
M  END
>  <reaction>  (13) 
rxn_1136

>  <mol_properties>  (13) 
{"1": {"label": "*4", "atom_type": "Ct"}, "2": {"label": "*3", "atom_type": "Cs"}, "13": {"label": "*0", "atom_type": "Cd"}, "14": {"label": "*1", "atom_type": "Cs"}, "20": {"label": "*2", "atom_type": "H0"}}

>  <type>  (13) 
unop_9

>  <geom_source>  (13) 
Heuristics

$$$$

     RDKit          3D

 25 23  0  0  0  0  0  0  0  0999 V2000
   -2.5384    1.0353   -1.7981 C   0  0  0  0  0  0  0  0  0  0  0  0
   -1.4986    1.1123   -1.2079 C   0  0  0  0  0  0  0  0  0  0  0  0
   -0.2303    1.2303   -0.4863 C   0  0  0  0  0  0  0  0  0  0  0  0
   -0.4442    1.8612    0.8930 C   0  0  0  0  0  0  0  0  0  0  0  0
    0.7947    2.0158   -1.3101 C   0  0  0  0  0  0  0  0  0  0  0  0
   -3.4613    0.9669   -2.3218 H   0  0  0  0  0  0  0  0  0  0  0  0
    0.5016    1.9030    1.4362 H   0  0  0  0  0  0  0  0  0  0  0  0
   -1.1577    1.2855    1.4824 H   0  0  0  0  0  0  0  0  0  0  0  0
   -0.8278    2.8779    0.7915 H   0  0  0  0  0  0  0  0  0  0  0  0
    0.4477    3.0370   -1.4765 H   0  0  0  0  0  0  0  0  0  0  0  0
    0.9590    1.5497   -2.2815 H   0  0  0  0  0  0  0  0  0  0  0  0
    1.7477    2.0585   -0.7796 H   0  0  0  0  0  0  0  0  0  0  0  0
    0.0098   -2.1390   -1.1668 C   0  0  0  0  0  0  0  0  0  0  0  0
    0.0098   -2.1390    0.1565 C   0  0  0  0  0  0  0  0  0  0  0  0
    0.0098   -0.9132    1.0145 C   0  0  0  0  0  3  0  0  0  0  0  0
    1.2196   -0.7589    1.8957 C   0  0  0  0  0  0  0  0  0  0  0  0
    2.3307   -1.4745    1.8232 C   0  0  0  0  0  0  0  0  0  0  0  0
    0.0017   -3.0618   -1.7333 H   0  0  0  0  0  0  0  0  0  0  0  0
    0.0162   -1.2136   -1.7328 H   0  0  0  0  0  0  0  0  0  0  0  0
    0.0124   -3.0878    0.6870 H   0  0  0  0  0  0  0  0  0  0  0  0
   -0.1102    0.1588    0.2639 H   0  0  0  0  0  0  0  0  0  0  0  0
   -0.8781   -0.9267    1.6572 H   0  0  0  0  0  0  0  0  0  0  0  0
    1.1469    0.0262    2.6434 H   0  0  0  0  0  0  0  0  0  0  0  0
    2.4562   -2.2614    1.0884 H   0  0  0  0  0  0  0  0  0  0  0  0
    3.1589   -1.2903    2.4956 H   0  0  0  0  0  0  0  0  0  0  0  0
  1  2  3  0
  1  6  1  0
  2  3  1  0
  3  4  1  0
  3  5  1  0
  3 21  1  0
  4  7  1  0
  4  8  1  0
  4  9  1  0
  5 10  1  0
  5 11  1  0
  5 12  1  0
 13 14  2  3
 13 18  1  0
 13 19  1  0
 14 15  1  0
 14 20  1  0
 15 16  1  0
 15 22  1  0
 16 17  2  3
 16 23  1  0
 17 24  1  0
 17 25  1  0
M  RAD  1  15   2
M  END
>  <reaction>  (14) 
rxn_1136

>  <mol_properties>  (14) 
{"1": {"label": "*4", "atom_type": "Ct"}, "2": {"label": "*3", "atom_type": "Cs"}, "13": {"label": "*0", "atom_type": "Cd"}, "14": {"label": "*1", "atom_type": "Cs"}, "20": {"label": "*2", "atom_type": "H0"}}

>  <type>  (14) 
unop_10

>  <geom_source>  (14) 
Heuristics

$$$$

     RDKit          3D

 25 23  0  0  0  0  0  0  0  0999 V2000
    0.7452    3.0551    0.5714 C   0  0  0  0  0  0  0  0  0  0  0  0
    0.1867    2.1512    0.0178 C   0  0  0  0  0  0  0  0  0  0  0  0
   -0.5101    1.0625   -0.6697 C   0  0  0  0  0  0  0  0  0  0  0  0
   -0.3470    1.1835   -2.1879 C   0  0  0  0  0  0  0  0  0  0  0  0
   -1.9869    1.0191   -0.2654 C   0  0  0  0  0  0  0  0  0  0  0  0
    1.2409    3.8572    1.0628 H   0  0  0  0  0  0  0  0  0  0  0  0
   -0.8340    0.3426   -2.6848 H   0  0  0  0  0  0  0  0  0  0  0  0
    0.7055    1.1916   -2.4710 H   0  0  0  0  0  0  0  0  0  0  0  0
   -0.8038    2.1071   -2.5477 H   0  0  0  0  0  0  0  0  0  0  0  0
   -2.4920    1.9378   -0.5685 H   0  0  0  0  0  0  0  0  0  0  0  0
   -2.0962    0.9108    0.8136 H   0  0  0  0  0  0  0  0  0  0  0  0
   -2.4833    0.1772   -0.7512 H   0  0  0  0  0  0  0  0  0  0  0  0
   -0.2700   -2.3068   -1.3501 C   0  0  0  0  0  0  0  0  0  0  0  0
   -0.2700   -2.3068   -0.0269 C   0  0  0  0  0  0  0  0  0  0  0  0
   -0.2700   -1.0810    0.8311 C   0  0  0  0  0  3  0  0  0  0  0  0
    0.9397   -0.9266    1.7123 C   0  0  0  0  0  0  0  0  0  0  0  0
    2.0509   -1.6423    1.6399 C   0  0  0  0  0  0  0  0  0  0  0  0
   -0.2782   -3.2295   -1.9167 H   0  0  0  0  0  0  0  0  0  0  0  0
   -0.2636   -1.3813   -1.9161 H   0  0  0  0  0  0  0  0  0  0  0  0
   -0.2674   -3.2555    0.5036 H   0  0  0  0  0  0  0  0  0  0  0  0
   -0.3901   -0.0090    0.0806 H   0  0  0  0  0  0  0  0  0  0  0  0
   -1.1580   -1.0945    1.4739 H   0  0  0  0  0  0  0  0  0  0  0  0
    0.8670   -0.1416    2.4600 H   0  0  0  0  0  0  0  0  0  0  0  0
    2.1763   -2.4292    0.9050 H   0  0  0  0  0  0  0  0  0  0  0  0
    2.8791   -1.4580    2.3122 H   0  0  0  0  0  0  0  0  0  0  0  0
  1  2  3  0
  1  6  1  0
  2  3  1  0
  3  4  1  0
  3  5  1  0
  3 21  1  0
  4  7  1  0
  4  8  1  0
  4  9  1  0
  5 10  1  0
  5 11  1  0
  5 12  1  0
 13 14  2  3
 13 18  1  0
 13 19  1  0
 14 15  1  0
 14 20  1  0
 15 16  1  0
 15 22  1  0
 16 17  2  3
 16 23  1  0
 17 24  1  0
 17 25  1  0
M  RAD  1  15   2
M  END
>  <reaction>  (15) 
rxn_1136

>  <mol_properties>  (15) 
{"1": {"label": "*4", "atom_type": "Ct"}, "2": {"label": "*3", "atom_type": "Cs"}, "13": {"label": "*0", "atom_type": "Cd"}, "14": {"label": "*1", "atom_type": "Cs"}, "20": {"label": "*2", "atom_type": "H0"}}

>  <type>  (15) 
unop_11

>  <geom_source>  (15) 
Heuristics

$$$$

     RDKit          3D

 25 23  0  0  0  0  0  0  0  0999 V2000
   -0.6068    0.4933   -2.8467 C   0  0  0  0  0  0  0  0  0  0  0  0
   -0.5351    0.8454   -1.7038 C   0  0  0  0  0  0  0  0  0  0  0  0
   -0.4493    1.2986   -0.3143 C   0  0  0  0  0  0  0  0  0  0  0  0
   -1.7293    2.0306    0.1006 C   0  0  0  0  0  0  0  0  0  0  0  0
    0.7910    2.1717   -0.1011 C   0  0  0  0  0  0  0  0  0  0  0  0
   -0.6705    0.1807   -3.8610 H   0  0  0  0  0  0  0  0  0  0  0  0
   -1.6691    2.3242    1.1501 H   0  0  0  0  0  0  0  0  0  0  0  0
   -2.6057    1.3966   -0.0327 H   0  0  0  0  0  0  0  0  0  0  0  0
   -1.8654    2.9309   -0.5012 H   0  0  0  0  0  0  0  0  0  0  0  0
    0.7293    3.0762   -0.7088 H   0  0  0  0  0  0  0  0  0  0  0  0
    1.7001    1.6377   -0.3772 H   0  0  0  0  0  0  0  0  0  0  0  0
    0.8657    2.4661    0.9472 H   0  0  0  0  0  0  0  0  0  0  0  0
   -0.2092   -2.0708   -0.9948 C   0  0  0  0  0  0  0  0  0  0  0  0
   -0.2092   -2.0708    0.3285 C   0  0  0  0  0  0  0  0  0  0  0  0
   -0.2092   -0.8449    1.1865 C   0  0  0  0  0  3  0  0  0  0  0  0
    1.0005   -0.6906    2.0677 C   0  0  0  0  0  0  0  0  0  0  0  0
    2.1117   -1.4063    1.9952 C   0  0  0  0  0  0  0  0  0  0  0  0
   -0.2174   -2.9935   -1.5613 H   0  0  0  0  0  0  0  0  0  0  0  0
   -0.2029   -1.1453   -1.5608 H   0  0  0  0  0  0  0  0  0  0  0  0
   -0.2067   -3.0195    0.8590 H   0  0  0  0  0  0  0  0  0  0  0  0
   -0.3293    0.2270    0.4359 H   0  0  0  0  0  0  0  0  0  0  0  0
   -1.0972   -0.8584    1.8292 H   0  0  0  0  0  0  0  0  0  0  0  0
    0.9278    0.0944    2.8154 H   0  0  0  0  0  0  0  0  0  0  0  0
    2.2371   -2.1931    1.2604 H   0  0  0  0  0  0  0  0  0  0  0  0
    2.9399   -1.2220    2.6676 H   0  0  0  0  0  0  0  0  0  0  0  0
  1  2  3  0
  1  6  1  0
  2  3  1  0
  3  4  1  0
  3  5  1  0
  3 21  1  0
  4  7  1  0
  4  8  1  0
  4  9  1  0
  5 10  1  0
  5 11  1  0
  5 12  1  0
 13 14  2  3
 13 18  1  0
 13 19  1  0
 14 15  1  0
 14 20  1  0
 15 16  1  0
 15 22  1  0
 16 17  2  3
 16 23  1  0
 17 24  1  0
 17 25  1  0
M  RAD  1  15   2
M  END
>  <reaction>  (16) 
rxn_1136

>  <mol_properties>  (16) 
{"1": {"label": "*4", "atom_type": "Ct"}, "2": {"label": "*3", "atom_type": "Cs"}, "13": {"label": "*0", "atom_type": "Cd"}, "14": {"label": "*1", "atom_type": "Cs"}, "20": {"label": "*2", "atom_type": "H0"}}

>  <type>  (16) 
unop_12

>  <geom_source>  (16) 
Heuristics

$$$$

     RDKit          3D

 25 23  0  0  0  0  0  0  0  0999 V2000
   -1.2979    0.0188    0.0363 C   0  0  0  0  0  0  0  0  0  0  0  0
   -2.2569   -1.0711    0.5170 C   0  0  0  0  0  0  0  0  0  0  0  0
   -1.6810    0.5092   -1.3607 C   0  0  0  0  0  0  0  0  0  0  0  0
    1.2642   -0.3765   -0.4328 C   0  0  0  0  0  3  0  0  0  0  0  0
    2.3028    0.6791   -0.6682 C   0  0  0  0  0  0  0  0  0  0  0  0
    1.8571   -1.5800    0.2297 C   0  0  0  0  0  0  0  0  0  0  0  0
    1.9459    1.9010   -1.0660 C   0  0  0  0  0  0  0  0  0  0  0  0
    1.5333   -1.8928    1.4847 C   0  0  0  0  0  0  0  0  0  0  0  0
   -1.2973    1.1441    0.9835 C   0  0  0  0  0  0  0  0  0  0  0  0
   -1.2958    2.0664    1.7602 C   0  0  0  0  0  0  0  0  0  0  0  0
   -0.1087   -0.4719   -0.0119 H   0  0  0  0  0  0  0  0  0  0  0  0
   -2.2325   -1.9336   -0.1824 H   0  0  0  0  0  0  0  0  0  0  0  0
   -1.9498   -1.4329    1.5217 H   0  0  0  0  0  0  0  0  0  0  0  0
   -3.2976   -0.6843    0.5752 H   0  0  0  0  0  0  0  0  0  0  0  0
   -2.7040    0.9445   -1.3601 H   0  0  0  0  0  0  0  0  0  0  0  0
   -1.6501   -0.3356   -2.0812 H   0  0  0  0  0  0  0  0  0  0  0  0
   -0.9603    1.2821   -1.7042 H   0  0  0  0  0  0  0  0  0  0  0  0
    3.3569    0.4573   -0.5216 H   0  0  0  0  0  0  0  0  0  0  0  0
    0.7886   -0.6685   -1.3930 H   0  0  0  0  0  0  0  0  0  0  0  0
    2.5691   -2.1951   -0.3128 H   0  0  0  0  0  0  0  0  0  0  0  0
    0.9016    2.1541   -1.2235 H   0  0  0  0  0  0  0  0  0  0  0  0
    2.7030    2.6595   -1.2369 H   0  0  0  0  0  0  0  0  0  0  0  0
    0.8294   -1.2861    2.0468 H   0  0  0  0  0  0  0  0  0  0  0  0
    1.9748   -2.7634    1.9586 H   0  0  0  0  0  0  0  0  0  0  0  0
   -1.2947    2.8759    2.4418 H   0  0  0  0  0  0  0  0  0  0  0  0
  1  2  1  0
  1  3  1  0
  1  9  1  0
  1 11  1  0
  2 12  1  0
  2 13  1  0
  2 14  1  0
  3 15  1  0
  3 16  1  0
  3 17  1  0
  4  5  1  0
  4  6  1  0
  4 19  1  0
  5  7  2  3
  5 18  1  0
  6  8  2  3
  6 20  1  0
  7 21  1  0
  7 22  1  0
  8 23  1  0
  8 24  1  0
  9 10  3  0
 10 25  1  0
M  RAD  1   4   2
M  END
>  <reaction>  (17) 
rxn_1136

>  <mol_properties>  (17) 
{"1": {"label": "*4", "atom_type": "Ct"}, "2": {"label": "*3", "atom_type": "Cs"}, "13": {"label": "*0", "atom_type": "Cd"}, "14": {"label": "*1", "atom_type": "Cs"}, "20": {"label": "*2", "atom_type": "H0"}}

>  <type>  (17) 
unop_13

>  <geom_source>  (17) 
AutoTST

$$$$

     RDKit          3D

 25 23  0  0  0  0  0  0  0  0999 V2000
   -1.7185    0.6041   -2.5222 C   0  0  0  0  0  0  0  0  0  0  0  0
   -1.0798    0.8997   -1.5526 C   0  0  0  0  0  0  0  0  0  0  0  0
   -0.3041    1.2839   -0.3719 C   0  0  0  0  0  0  0  0  0  0  0  0
   -1.1926    1.9858    0.6596 C   0  0  0  0  0  0  0  0  0  0  0  0
    0.8937    2.1536   -0.7657 C   0  0  0  0  0  0  0  0  0  0  0  0
   -2.2853    0.3418   -3.3828 H   0  0  0  0  0  0  0  0  0  0  0  0
   -0.6116    2.2274    1.5514 H   0  0  0  0  0  0  0  0  0  0  0  0
   -2.0306    1.3534    0.9522 H   0  0  0  0  0  0  0  0  0  0  0  0
   -1.5935    2.9139    0.2484 H   0  0  0  0  0  0  0  0  0  0  0  0
    0.5544    3.0867   -1.2189 H   0  0  0  0  0  0  0  0  0  0  0  0
    1.5338    1.6401   -1.4830 H   0  0  0  0  0  0  0  0  0  0  0  0
    1.4868    2.3962    0.1178 H   0  0  0  0  0  0  0  0  0  0  0  0
   -0.0640   -2.0854   -1.0524 C   0  0  0  0  0  0  0  0  0  0  0  0
   -0.0640   -2.0854    0.2709 C   0  0  0  0  0  0  0  0  0  0  0  0
   -0.0640   -0.8596    1.1289 C   0  0  0  0  0  3  0  0  0  0  0  0
    1.1458   -0.7053    2.0101 C   0  0  0  0  0  0  0  0  0  0  0  0
    2.2569   -1.4209    1.9376 C   0  0  0  0  0  0  0  0  0  0  0  0
   -0.0721   -3.0082   -1.6189 H   0  0  0  0  0  0  0  0  0  0  0  0
   -0.0576   -1.1600   -1.6184 H   0  0  0  0  0  0  0  0  0  0  0  0
   -0.0614   -3.0342    0.8014 H   0  0  0  0  0  0  0  0  0  0  0  0
   -0.1840    0.2124    0.3783 H   0  0  0  0  0  0  0  0  0  0  0  0
   -0.9519   -0.8731    1.7716 H   0  0  0  0  0  0  0  0  0  0  0  0
    1.0731    0.0798    2.7578 H   0  0  0  0  0  0  0  0  0  0  0  0
    2.3824   -2.2078    1.2028 H   0  0  0  0  0  0  0  0  0  0  0  0
    3.0851   -1.2367    2.6100 H   0  0  0  0  0  0  0  0  0  0  0  0
  1  2  3  0
  1  6  1  0
  2  3  1  0
  3  4  1  0
  3  5  1  0
  3 21  1  0
  4  7  1  0
  4  8  1  0
  4  9  1  0
  5 10  1  0
  5 11  1  0
  5 12  1  0
 13 14  2  3
 13 18  1  0
 13 19  1  0
 14 15  1  0
 14 20  1  0
 15 16  1  0
 15 22  1  0
 16 17  2  3
 16 23  1  0
 17 24  1  0
 17 25  1  0
M  RAD  1  15   2
M  END
>  <reaction>  (18) 
rxn_1136

>  <mol_properties>  (18) 
{"1": {"label": "*4", "atom_type": "Ct"}, "2": {"label": "*3", "atom_type": "Cs"}, "13": {"label": "*0", "atom_type": "Cd"}, "14": {"label": "*1", "atom_type": "Cs"}, "20": {"label": "*2", "atom_type": "H0"}}

>  <type>  (18) 
unop_14

>  <geom_source>  (18) 
gaussian_log

$$$$
