
     RDKit          3D

  9  8  0  0  0  0  0  0  0  0999 V2000
    1.1303   -0.2933   -0.7510 C   0  0  0  0  0  0  0  0  0  0  0  0
    0.2866    0.4560   -0.0588 C   0  0  0  0  0  0  0  0  0  0  0  0
   -0.9719   -0.0331    0.5823 C   0  0  0  0  0  0  0  0  0  0  0  0
    2.0274    0.1230   -1.1916 H   0  0  0  0  0  0  0  0  0  0  0  0
    0.9532   -1.3530   -0.9023 H   0  0  0  0  0  0  0  0  0  0  0  0
    0.5065    1.5132    0.0659 H   0  0  0  0  0  0  0  0  0  0  0  0
   -0.9526    0.1426    1.6610 H   0  0  0  0  0  0  0  0  0  0  0  0
   -1.1182   -1.1002    0.4106 H   0  0  0  0  0  0  0  0  0  0  0  0
   -1.8412    0.5010    0.1901 H   0  0  0  0  0  0  0  0  0  0  0  0
  1  2  2  3
  1  4  1  0
  1  5  1  0
  2  3  1  0
  2  6  1  0
  3  7  1  0
  3  8  1  0
  3  9  1  0
M  END
>  <reaction>  (1) 
rxn_1029

>  <mol_properties>  (1) 
{"2": {"label": "donator", "atom_type": "Cs"}, "6": {"label": "d_hydrogen", "atom_type": "H0"}}

>  <type>  (1) 
r1h

$$$$

     RDKit          3D

 10  9  0  0  0  0  0  0  0  0999 V2000
   -1.3354   -0.2069    0.0525 C   0  0  0  0  0  0  0  0  0  0  0  0
    0.0851    0.2624    0.0266 C   0  0  0  0  0  0  0  0  0  0  0  0
    0.4841    1.3876    0.7359 C   0  0  0  0  0  0  0  0  0  0  0  0
    2.0191    2.0303    0.8057 S   0  0  0  0  0  1  0  0  0  0  0  0
    1.1566   -0.6823   -0.9297 S   0  0  0  0  0  0  0  0  0  0  0  0
   -1.7589   -0.2174   -0.9545 H   0  0  0  0  0  0  0  0  0  0  0  0
   -1.4004   -1.2253    0.4427 H   0  0  0  0  0  0  0  0  0  0  0  0
   -1.9442    0.4442    0.6783 H   0  0  0  0  0  0  0  0  0  0  0  0
   -0.3073    1.8814    1.2951 H   0  0  0  0  0  0  0  0  0  0  0  0
    2.2383    0.0827   -0.6554 H   0  0  0  0  0  0  0  0  0  0  0  0
  1  2  1  0
  1  6  1  0
  1  7  1  0
  1  8  1  0
  2  3  2  3
  2  5  1  0
  3  4  1  0
  3  9  1  0
  5 10  1  0
M  RAD  1   4   2
M  END
>  <reaction>  (2) 
rxn_1029

>  <mol_properties>  (2) 
{"1": {"label": "acceptor", "atom_type": "Cs"}}

>  <type>  (2) 
r2

$$$$

     RDKit          3D

 11 10  0  0  0  0  0  0  0  0999 V2000
   -1.0997   -0.5860   -0.1182 C   0  0  0  0  0  0  0  0  0  0  0  0
    0.0827    0.2961    0.2270 C   0  0  0  0  0  0  0  0  0  0  0  0
    0.1622    1.6171   -0.4774 C   0  0  0  0  0  0  0  0  0  0  0  0
   -0.9879    2.3087   -1.3633 S   0  0  0  0  0  0  0  0  0  0  0  0
    0.2176    0.6619    2.0187 S   0  0  0  0  0  0  0  0  0  0  0  0
   -1.1052   -0.8107   -1.1861 H   0  0  0  0  0  0  0  0  0  0  0  0
   -2.0402   -0.0893    0.1198 H   0  0  0  0  0  0  0  0  0  0  0  0
   -1.0438   -1.5182    0.4423 H   0  0  0  0  0  0  0  0  0  0  0  0
    1.0207   -0.2324    0.0280 H   0  0  0  0  0  0  0  0  0  0  0  0
    1.1091    2.1333   -0.3182 H   0  0  0  0  0  0  0  0  0  0  0  0
   -0.9205    1.3661    2.0994 H   0  0  0  0  0  0  0  0  0  0  0  0
  1  2  1  0
  1  6  1  0
  1  7  1  0
  1  8  1  0
  2  3  1  0
  2  5  1  0
  2  9  1  0
  3  4  2  0
  3 10  1  0
  5 11  1  0
M  END
>  <reaction>  (3) 
rxn_1029

>  <mol_properties>  (3) 
{"1": {"label": "acceptor", "atom_type": "Cs"}, "10": {"label": "a_hydrogen", "atom_type": "H0"}}

>  <type>  (3) 
r2h

$$$$

     RDKit          3D

 19 17  0  0  0  0  0  0  0  0999 V2000
   -0.8047    1.5486   -0.1319 C   0  0  0  0  0  0  0  0  0  0  0  0
   -0.2938    0.2680    0.4806 C   0  0  1  0  0  0  0  0  0  0  0  0
    0.2736    0.2980    1.8205 C   0  0  0  0  0  0  0  0  0  0  0  0
    0.7994    1.6131    2.6135 S   0  0  0  0  0  0  0  0  0  0  0  0
   -1.3298   -1.1796    0.2333 S   0  0  0  0  0  0  0  0  0  0  0  0
   -1.7349    1.8562    0.3487 H   0  0  0  0  0  0  0  0  0  0  0  0
   -0.0737    2.3466   -0.0021 H   0  0  0  0  0  0  0  0  0  0  0  0
   -0.9959    1.4063   -1.1965 H   0  0  0  0  0  0  0  0  0  0  0  0
    0.3983   -0.6838    2.2792 H   0  0  0  0  0  0  0  0  0  0  0  0
   -1.3536   -1.1007   -1.1056 H   0  0  0  0  0  0  0  0  0  0  0  0
    0.6259   -0.1694   -3.3640 C   0  0  0  0  0  0  0  0  0  0  0  0
    1.1954   -0.7954   -2.3168 C   0  0  0  0  0  0  0  0  0  0  0  0
    1.7870   -0.1258   -1.1966 C   0  0  0  0  0  3  0  0  0  0  0  0
    0.1696   -0.7235   -4.1733 H   0  0  0  0  0  0  0  0  0  0  0  0
    0.6236    0.9124   -3.4385 H   0  0  0  0  0  0  0  0  0  0  0  0
    1.1761   -1.8805   -2.2868 H   0  0  0  0  0  0  0  0  0  0  0  0
    0.7412    0.0019   -0.2309 H   0  0  0  0  0  0  0  0  0  0  0  0
    2.0268    0.9280   -1.3076 H   0  0  0  0  0  0  0  0  0  0  0  0
    2.4759   -0.6865   -0.5731 H   0  0  0  0  0  0  0  0  0  0  0  0
  1  2  1  0
  1  6  1  0
  1  7  1  0
  1  8  1  0
  2  3  1  0
  2  5  1  0
  2 17  1  6
  3  4  2  0
  3  9  1  0
  5 10  1  0
 11 12  2  3
 11 14  1  0
 11 15  1  0
 12 13  1  0
 12 16  1  0
 13 18  1  0
 13 19  1  0
M  RAD  1  13   2
M  END
>  <reaction>  (4) 
rxn_1029

>  <mol_properties>  (4) 
{"1": {"label": "*1", "atom_type": "Cs"}, "2": {"label": "*0", "atom_type": "CS"}, "11": {"label": "*4", "atom_type": "Cd"}, "12": {"label": "*3", "atom_type": "Cs"}, "16": {"label": "*2", "atom_type": "H0"}}

>  <type>  (4) 
ts

$$$$

     RDKit          3D

 19 17  0  0  0  0  0  0  0  0999 V2000
    0.4216    0.0537    2.0720 C   0  0  0  0  0  0  0  0  0  0  0  0
   -0.0043    0.0368    0.6181 C   0  0  0  0  0  0  0  0  0  0  0  0
   -1.4178   -0.3769    0.3381 C   0  0  0  0  0  0  0  0  0  0  0  0
   -2.5999   -0.5611    1.4125 S   0  0  0  0  0  1  0  0  0  0  0  0
    0.2359    1.6457   -0.2279 S   0  0  0  0  0  0  0  0  0  0  0  0
   -0.1886    0.7476    2.6498 H   0  0  0  0  0  0  0  0  0  0  0  0
    0.3025   -0.9376    2.5127 H   0  0  0  0  0  0  0  0  0  0  0  0
    1.4652    0.3557    2.1498 H   0  0  0  0  0  0  0  0  0  0  0  0
   -1.6192   -0.5304   -0.7223 H   0  0  0  0  0  0  0  0  0  0  0  0
   -0.6608    2.3201    0.5062 H   0  0  0  0  0  0  0  0  0  0  0  0
    2.1040   -1.2265   -3.1304 C   0  0  0  0  0  0  0  0  0  0  0  0
    2.1040   -1.2265   -1.8067 C   0  0  0  0  0  0  0  0  0  0  0  0
    2.1040   -0.0043   -0.9461 C   0  0  0  0  0  0  0  0  0  0  0  0
    2.1040   -2.1492   -3.6969 H   0  0  0  0  0  0  0  0  0  0  0  0
    2.1040   -0.3009   -3.6964 H   0  0  0  0  0  0  0  0  0  0  0  0
    2.1040   -2.1791   -1.2831 H   0  0  0  0  0  0  0  0  0  0  0  0
    1.0508    0.0162   -0.1647 H   0  0  0  0  0  0  0  0  0  0  0  0
    2.1040    0.9061   -1.5467 H   0  0  0  0  0  0  0  0  0  0  0  0
    2.9817    0.0128   -0.2949 H   0  0  0  0  0  0  0  0  0  0  0  0
  1  2  1  0
  1  6  1  0
  1  7  1  0
  1  8  1  0
  2  3  2  3
  2  5  1  0
  3  4  1  0
  3  9  1  0
  5 10  1  0
 11 12  2  3
 11 14  1  0
 11 15  1  0
 12 13  1  0
 12 16  1  0
 13 17  1  0
 13 18  1  0
 13 19  1  0
M  RAD  1   4   2
M  END
>  <reaction>  (5) 
rxn_1029

>  <mol_properties>  (5) 
{"1": {"label": "*1", "atom_type": "Cs"}, "2": {"label": "*0", "atom_type": "CS"}, "11": {"label": "*4", "atom_type": "Cd"}, "12": {"label": "*3", "atom_type": "Cs"}, "16": {"label": "*2", "atom_type": "H0"}}

>  <type>  (5) 
unop_1

>  <geom_source>  (5) 
Heuristics

$$$$

     RDKit          3D

 19 17  0  0  0  0  0  0  0  0999 V2000
   -0.5514   -1.4601    0.7554 C   0  0  0  0  0  0  0  0  0  0  0  0
   -0.1175   -0.0471    0.4227 C   0  0  0  0  0  0  0  0  0  0  0  0
   -1.2099    0.9463    0.1627 C   0  0  0  0  0  0  0  0  0  0  0  0
   -2.7811    0.7471    0.4408 S   0  0  0  0  0  1  0  0  0  0  0  0
    0.9620    0.7015    1.7019 S   0  0  0  0  0  0  0  0  0  0  0  0
   -1.1621   -1.4789    1.6578 H   0  0  0  0  0  0  0  0  0  0  0  0
   -1.1502   -1.8734   -0.0580 H   0  0  0  0  0  0  0  0  0  0  0  0
    0.3233   -2.0903    0.9105 H   0  0  0  0  0  0  0  0  0  0  0  0
   -0.8442    1.8949   -0.2307 H   0  0  0  0  0  0  0  0  0  0  0  0
    0.0330    0.7213    2.6686 H   0  0  0  0  0  0  0  0  0  0  0  0
    1.9908   -1.3104   -3.3258 C   0  0  0  0  0  0  0  0  0  0  0  0
    1.9908   -1.3104   -2.0021 C   0  0  0  0  0  0  0  0  0  0  0  0
    1.9908   -0.0882   -1.1416 C   0  0  0  0  0  0  0  0  0  0  0  0
    1.9908   -2.2331   -3.8923 H   0  0  0  0  0  0  0  0  0  0  0  0
    1.9908   -0.3848   -3.8918 H   0  0  0  0  0  0  0  0  0  0  0  0
    1.9908   -2.2630   -1.4786 H   0  0  0  0  0  0  0  0  0  0  0  0
    0.9375   -0.0676   -0.3601 H   0  0  0  0  0  0  0  0  0  0  0  0
    1.9908    0.8223   -1.7422 H   0  0  0  0  0  0  0  0  0  0  0  0
    2.8685   -0.0711   -0.4904 H   0  0  0  0  0  0  0  0  0  0  0  0
  1  2  1  0
  1  6  1  0
  1  7  1  0
  1  8  1  0
  2  3  2  3
  2  5  1  0
  3  4  1  0
  3  9  1  0
  5 10  1  0
 11 12  2  3
 11 14  1  0
 11 15  1  0
 12 13  1  0
 12 16  1  0
 13 17  1  0
 13 18  1  0
 13 19  1  0
M  RAD  1   4   2
M  END
>  <reaction>  (6) 
rxn_1029

>  <mol_properties>  (6) 
{"1": {"label": "*1", "atom_type": "Cs"}, "2": {"label": "*0", "atom_type": "CS"}, "11": {"label": "*4", "atom_type": "Cd"}, "12": {"label": "*3", "atom_type": "Cs"}, "16": {"label": "*2", "atom_type": "H0"}}

>  <type>  (6) 
unop_2

>  <geom_source>  (6) 
Heuristics

$$$$

     RDKit          3D

 19 17  0  0  0  0  0  0  0  0999 V2000
    0.3413    1.0295    1.8976 C   0  0  0  0  0  0  0  0  0  0  0  0
    0.0225    0.3032    0.6067 C   0  0  0  0  0  0  0  0  0  0  0  0
   -1.0177   -0.7738    0.6824 C   0  0  0  0  0  0  0  0  0  0  0  0
   -2.0074   -1.0742    1.9136 S   0  0  0  0  0  1  0  0  0  0  0  0
   -0.4980    1.4239   -0.7479 S   0  0  0  0  0  0  0  0  0  0  0  0
   -0.5433    1.5275    2.2943 H   0  0  0  0  0  0  0  0  0  0  0  0
    0.6901    0.3233    2.6529 H   0  0  0  0  0  0  0  0  0  0  0  0
    1.1151    1.7757    1.7225 H   0  0  0  0  0  0  0  0  0  0  0  0
   -1.0872   -1.3695   -0.2279 H   0  0  0  0  0  0  0  0  0  0  0  0
   -1.6308    1.8324   -0.1583 H   0  0  0  0  0  0  0  0  0  0  0  0
    2.1308   -0.9601   -3.1418 C   0  0  0  0  0  0  0  0  0  0  0  0
    2.1308   -0.9601   -1.8180 C   0  0  0  0  0  0  0  0  0  0  0  0
    2.1308    0.2621   -0.9575 C   0  0  0  0  0  0  0  0  0  0  0  0
    2.1308   -1.8828   -3.7083 H   0  0  0  0  0  0  0  0  0  0  0  0
    2.1308   -0.0345   -3.7078 H   0  0  0  0  0  0  0  0  0  0  0  0
    2.1308   -1.9127   -1.2945 H   0  0  0  0  0  0  0  0  0  0  0  0
    1.0775    0.2826   -0.1761 H   0  0  0  0  0  0  0  0  0  0  0  0
    2.1308    1.1725   -1.5581 H   0  0  0  0  0  0  0  0  0  0  0  0
    3.0085    0.2792   -0.3063 H   0  0  0  0  0  0  0  0  0  0  0  0
  1  2  1  0
  1  6  1  0
  1  7  1  0
  1  8  1  0
  2  3  2  3
  2  5  1  0
  3  4  1  0
  3  9  1  0
  5 10  1  0
 11 12  2  3
 11 14  1  0
 11 15  1  0
 12 13  1  0
 12 16  1  0
 13 17  1  0
 13 18  1  0
 13 19  1  0
M  RAD  1   4   2
M  END
>  <reaction>  (7) 
rxn_1029

>  <mol_properties>  (7) 
{"1": {"label": "*1", "atom_type": "Cs"}, "2": {"label": "*0", "atom_type": "CS"}, "11": {"label": "*4", "atom_type": "Cd"}, "12": {"label": "*3", "atom_type": "Cs"}, "16": {"label": "*2", "atom_type": "H0"}}

>  <type>  (7) 
unop_3

>  <geom_source>  (7) 
Heuristics

$$$$

     RDKit          3D

 19 17  0  0  0  0  0  0  0  0999 V2000
   -1.7149   -0.2812   -0.4421 C   0  0  0  0  0  0  0  0  0  0  0  0
   -0.4467   -0.2808    0.3869 C   0  0  0  0  0  0  0  0  0  0  0  0
    0.1171    1.0602    0.7494 C   0  0  0  0  0  0  0  0  0  0  0  0
   -0.6015    2.4881    0.5746 S   0  0  0  0  0  1  0  0  0  0  0  0
   -0.6059   -1.2116    1.9586 S   0  0  0  0  0  0  0  0  0  0  0  0
   -2.5245    0.2259    0.0824 H   0  0  0  0  0  0  0  0  0  0  0  0
   -1.5510    0.2440   -1.3846 H   0  0  0  0  0  0  0  0  0  0  0  0
   -2.0205   -1.3052   -0.6527 H   0  0  0  0  0  0  0  0  0  0  0  0
    1.1087    1.0029    1.1987 H   0  0  0  0  0  0  0  0  0  0  0  0
   -1.5152   -0.3941    2.5088 H   0  0  0  0  0  0  0  0  0  0  0  0
    1.6616   -1.5441   -3.3616 C   0  0  0  0  0  0  0  0  0  0  0  0
    1.6616   -1.5441   -2.0379 C   0  0  0  0  0  0  0  0  0  0  0  0
    1.6616   -0.3219   -1.1774 C   0  0  0  0  0  0  0  0  0  0  0  0
    1.6616   -2.4668   -3.9281 H   0  0  0  0  0  0  0  0  0  0  0  0
    1.6616   -0.6185   -3.9276 H   0  0  0  0  0  0  0  0  0  0  0  0
    1.6616   -2.4967   -1.5144 H   0  0  0  0  0  0  0  0  0  0  0  0
    0.6084   -0.3013   -0.3959 H   0  0  0  0  0  0  0  0  0  0  0  0
    1.6616    0.5886   -1.7780 H   0  0  0  0  0  0  0  0  0  0  0  0
    2.5393   -0.3048   -0.5262 H   0  0  0  0  0  0  0  0  0  0  0  0
  1  2  1  0
  1  6  1  0
  1  7  1  0
  1  8  1  0
  2  3  2  3
  2  5  1  0
  3  4  1  0
  3  9  1  0
  5 10  1  0
 11 12  2  3
 11 14  1  0
 11 15  1  0
 12 13  1  0
 12 16  1  0
 13 17  1  0
 13 18  1  0
 13 19  1  0
M  RAD  1   4   2
M  END
>  <reaction>  (8) 
rxn_1029

>  <mol_properties>  (8) 
{"1": {"label": "*1", "atom_type": "Cs"}, "2": {"label": "*0", "atom_type": "CS"}, "11": {"label": "*4", "atom_type": "Cd"}, "12": {"label": "*3", "atom_type": "Cs"}, "16": {"label": "*2", "atom_type": "H0"}}

>  <type>  (8) 
unop_4

>  <geom_source>  (8) 
Heuristics

$$$$

     RDKit          3D

 19 17  0  0  0  0  0  0  0  0999 V2000
   -0.1994    1.8133    1.2126 C   0  0  0  0  0  0  0  0  0  0  0  0
   -0.2128    0.5699    0.3470 C   0  0  0  0  0  0  0  0  0  0  0  0
   -0.2564   -0.7460    1.0639 C   0  0  0  0  0  0  0  0  0  0  0  0
   -0.5424   -0.9832    2.6284 S   0  0  0  0  0  1  0  0  0  0  0  0
   -1.5915    0.5410   -0.8615 S   0  0  0  0  0  0  0  0  0  0  0  0
   -1.0936    1.8667    1.8334 H   0  0  0  0  0  0  0  0  0  0  0  0
    0.6653    1.8015    1.8783 H   0  0  0  0  0  0  0  0  0  0  0  0
   -0.1544    2.7023    0.5850 H   0  0  0  0  0  0  0  0  0  0  0  0
   -0.0977   -1.6002    0.4054 H   0  0  0  0  0  0  0  0  0  0  0  0
   -2.5710    0.4760    0.0518 H   0  0  0  0  0  0  0  0  0  0  0  0
    1.8955   -0.6934   -3.4015 C   0  0  0  0  0  0  0  0  0  0  0  0
    1.8955   -0.6934   -2.0778 C   0  0  0  0  0  0  0  0  0  0  0  0
    1.8955    0.5288   -1.2173 C   0  0  0  0  0  0  0  0  0  0  0  0
    1.8955   -1.6161   -3.9680 H   0  0  0  0  0  0  0  0  0  0  0  0
    1.8955    0.2322   -3.9675 H   0  0  0  0  0  0  0  0  0  0  0  0
    1.8955   -1.6460   -1.5543 H   0  0  0  0  0  0  0  0  0  0  0  0
    0.8423    0.5493   -0.4358 H   0  0  0  0  0  0  0  0  0  0  0  0
    1.8955    1.4392   -1.8179 H   0  0  0  0  0  0  0  0  0  0  0  0
    2.7732    0.5459   -0.5661 H   0  0  0  0  0  0  0  0  0  0  0  0
  1  2  1  0
  1  6  1  0
  1  7  1  0
  1  8  1  0
  2  3  2  3
  2  5  1  0
  3  4  1  0
  3  9  1  0
  5 10  1  0
 11 12  2  3
 11 14  1  0
 11 15  1  0
 12 13  1  0
 12 16  1  0
 13 17  1  0
 13 18  1  0
 13 19  1  0
M  RAD  1   4   2
M  END
>  <reaction>  (9) 
rxn_1029

>  <mol_properties>  (9) 
{"1": {"label": "*1", "atom_type": "Cs"}, "2": {"label": "*0", "atom_type": "CS"}, "11": {"label": "*4", "atom_type": "Cd"}, "12": {"label": "*3", "atom_type": "Cs"}, "16": {"label": "*2", "atom_type": "H0"}}

>  <type>  (9) 
unop_5

>  <geom_source>  (9) 
Heuristics

$$$$

     RDKit          3D

 19 17  0  0  0  0  0  0  0  0999 V2000
   -1.7844    0.5410   -0.4487 C   0  0  0  0  0  0  0  0  0  0  0  0
   -0.6361   -0.1704    0.2375 C   0  0  0  0  0  0  0  0  0  0  0  0
    0.3691    0.6964    0.9347 C   0  0  0  0  0  0  0  0  0  0  0  0
    0.2344    2.2673    1.2502 S   0  0  0  0  0  1  0  0  0  0  0  0
   -1.1836   -1.4128    1.4698 S   0  0  0  0  0  0  0  0  0  0  0  0
   -2.3683    1.1202    0.2665 H   0  0  0  0  0  0  0  0  0  0  0  0
   -1.4048    1.2323   -1.2029 H   0  0  0  0  0  0  0  0  0  0  0  0
   -2.4384   -0.1862   -0.9281 H   0  0  0  0  0  0  0  0  0  0  0  0
    1.2528    0.1501    1.2648 H   0  0  0  0  0  0  0  0  0  0  0  0
   -1.7465   -0.5321    2.3095 H   0  0  0  0  0  0  0  0  0  0  0  0
    1.4722   -1.4337   -3.5110 C   0  0  0  0  0  0  0  0  0  0  0  0
    1.4722   -1.4337   -2.1873 C   0  0  0  0  0  0  0  0  0  0  0  0
    1.4722   -0.2115   -1.3267 C   0  0  0  0  0  0  0  0  0  0  0  0
    1.4722   -2.3564   -4.0775 H   0  0  0  0  0  0  0  0  0  0  0  0
    1.4722   -0.5081   -4.0770 H   0  0  0  0  0  0  0  0  0  0  0  0
    1.4722   -2.3863   -1.6637 H   0  0  0  0  0  0  0  0  0  0  0  0
    0.4189   -0.1909   -0.5453 H   0  0  0  0  0  0  0  0  0  0  0  0
    1.4722    0.6990   -1.9273 H   0  0  0  0  0  0  0  0  0  0  0  0
    2.3499   -0.1944   -0.6755 H   0  0  0  0  0  0  0  0  0  0  0  0
  1  2  1  0
  1  6  1  0
  1  7  1  0
  1  8  1  0
  2  3  2  3
  2  5  1  0
  3  4  1  0
  3  9  1  0
  5 10  1  0
 11 12  2  3
 11 14  1  0
 11 15  1  0
 12 13  1  0
 12 16  1  0
 13 17  1  0
 13 18  1  0
 13 19  1  0
M  RAD  1   4   2
M  END
>  <reaction>  (10) 
rxn_1029

>  <mol_properties>  (10) 
{"1": {"label": "*1", "atom_type": "Cs"}, "2": {"label": "*0", "atom_type": "CS"}, "11": {"label": "*4", "atom_type": "Cd"}, "12": {"label": "*3", "atom_type": "Cs"}, "16": {"label": "*2", "atom_type": "H0"}}

>  <type>  (10) 
unop_6

>  <geom_source>  (10) 
Heuristics

$$$$

     RDKit          3D

 19 17  0  0  0  0  0  0  0  0999 V2000
   -1.5551    1.3251   -0.1569 C   0  0  0  0  0  0  0  0  0  0  0  0
   -0.7214    0.0904    0.1188 C   0  0  0  0  0  0  0  0  0  0  0  0
    0.4454    0.2620    1.0444 C   0  0  0  0  0  0  0  0  0  0  0  0
    0.7633    1.5383    1.9695 S   0  0  0  0  0  1  0  0  0  0  0  0
   -1.6986   -1.3128    0.7807 S   0  0  0  0  0  0  0  0  0  0  0  0
   -1.9880    1.7176    0.7630 H   0  0  0  0  0  0  0  0  0  0  0  0
   -0.9352    2.1107   -0.5924 H   0  0  0  0  0  0  0  0  0  0  0  0
   -2.3610    1.0823   -0.8481 H   0  0  0  0  0  0  0  0  0  0  0  0
    1.1010   -0.6084    1.0762 H   0  0  0  0  0  0  0  0  0  0  0  0
   -2.0303   -0.7149    1.9341 H   0  0  0  0  0  0  0  0  0  0  0  0
    1.3869   -1.1728   -3.6297 C   0  0  0  0  0  0  0  0  0  0  0  0
    1.3869   -1.1728   -2.3059 C   0  0  0  0  0  0  0  0  0  0  0  0
    1.3869    0.0493   -1.4454 C   0  0  0  0  0  0  0  0  0  0  0  0
    1.3869   -2.0956   -4.1962 H   0  0  0  0  0  0  0  0  0  0  0  0
    1.3869   -0.2472   -4.1957 H   0  0  0  0  0  0  0  0  0  0  0  0
    1.3869   -2.1255   -1.7824 H   0  0  0  0  0  0  0  0  0  0  0  0
    0.3336    0.0699   -0.6640 H   0  0  0  0  0  0  0  0  0  0  0  0
    1.3869    0.9598   -2.0460 H   0  0  0  0  0  0  0  0  0  0  0  0
    2.2646    0.0664   -0.7942 H   0  0  0  0  0  0  0  0  0  0  0  0
  1  2  1  0
  1  6  1  0
  1  7  1  0
  1  8  1  0
  2  3  2  3
  2  5  1  0
  3  4  1  0
  3  9  1  0
  5 10  1  0
 11 12  2  3
 11 14  1  0
 11 15  1  0
 12 13  1  0
 12 16  1  0
 13 17  1  0
 13 18  1  0
 13 19  1  0
M  RAD  1   4   2
M  END
>  <reaction>  (11) 
rxn_1029

>  <mol_properties>  (11) 
{"1": {"label": "*1", "atom_type": "Cs"}, "2": {"label": "*0", "atom_type": "CS"}, "11": {"label": "*4", "atom_type": "Cd"}, "12": {"label": "*3", "atom_type": "Cs"}, "16": {"label": "*2", "atom_type": "H0"}}

>  <type>  (11) 
unop_7

>  <geom_source>  (11) 
Heuristics

$$$$

     RDKit          3D

 19 17  0  0  0  0  0  0  0  0999 V2000
    0.2236   -0.7637    1.8255 C   0  0  0  0  0  0  0  0  0  0  0  0
   -0.0824   -0.0688    0.5144 C   0  0  0  0  0  0  0  0  0  0  0  0
   -1.5311    0.1042    0.1692 C   0  0  0  0  0  0  0  0  0  0  0  0
   -2.7896   -0.1360    1.1409 S   0  0  0  0  0  1  0  0  0  0  0  0
    0.6787    1.5938    0.3785 S   0  0  0  0  0  0  0  0  0  0  0  0
   -0.1967   -0.2131    2.6669 H   0  0  0  0  0  0  0  0  0  0  0  0
   -0.2120   -1.7643    1.8341 H   0  0  0  0  0  0  0  0  0  0  0  0
    1.3014   -0.8426    1.9612 H   0  0  0  0  0  0  0  0  0  0  0  0
   -1.6914    0.4562   -0.8500 H   0  0  0  0  0  0  0  0  0  0  0  0
   -0.0318    2.1497    1.3704 H   0  0  0  0  0  0  0  0  0  0  0  0
    2.0259   -1.3321   -3.2341 C   0  0  0  0  0  0  0  0  0  0  0  0
    2.0259   -1.3321   -1.9103 C   0  0  0  0  0  0  0  0  0  0  0  0
    2.0259   -0.1099   -1.0498 C   0  0  0  0  0  0  0  0  0  0  0  0
    2.0259   -2.2548   -3.8006 H   0  0  0  0  0  0  0  0  0  0  0  0
    2.0259   -0.4065   -3.8001 H   0  0  0  0  0  0  0  0  0  0  0  0
    2.0259   -2.2847   -1.3868 H   0  0  0  0  0  0  0  0  0  0  0  0
    0.9726   -0.0894   -0.2684 H   0  0  0  0  0  0  0  0  0  0  0  0
    2.0259    0.8005   -1.6504 H   0  0  0  0  0  0  0  0  0  0  0  0
    2.9036   -0.0928   -0.3986 H   0  0  0  0  0  0  0  0  0  0  0  0
  1  2  1  0
  1  6  1  0
  1  7  1  0
  1  8  1  0
  2  3  2  3
  2  5  1  0
  3  4  1  0
  3  9  1  0
  5 10  1  0
 11 12  2  3
 11 14  1  0
 11 15  1  0
 12 13  1  0
 12 16  1  0
 13 17  1  0
 13 18  1  0
 13 19  1  0
M  RAD  1   4   2
M  END
>  <reaction>  (12) 
rxn_1029

>  <mol_properties>  (12) 
{"1": {"label": "*1", "atom_type": "Cs"}, "2": {"label": "*0", "atom_type": "CS"}, "11": {"label": "*4", "atom_type": "Cd"}, "12": {"label": "*3", "atom_type": "Cs"}, "16": {"label": "*2", "atom_type": "H0"}}

>  <type>  (12) 
unop_8

>  <geom_source>  (12) 
Heuristics

$$$$

     RDKit          3D

 19 17  0  0  0  0  0  0  0  0999 V2000
   -1.4083   -0.9451   -0.1835 C   0  0  0  0  0  0  0  0  0  0  0  0
   -0.2473   -0.2352    0.4825 C   0  0  0  0  0  0  0  0  0  0  0  0
   -0.3004    1.2629    0.5039 C   0  0  0  0  0  0  0  0  0  0  0  0
   -1.5598    2.1891    0.1273 S   0  0  0  0  0  1  0  0  0  0  0  0
    0.0286   -0.7629    2.2167 S   0  0  0  0  0  0  0  0  0  0  0  0
   -2.3483   -0.7093    0.3153 H   0  0  0  0  0  0  0  0  0  0  0  0
   -1.4979   -0.6297   -1.2243 H   0  0  0  0  0  0  0  0  0  0  0  0
   -1.2538   -2.0226   -0.1492 H   0  0  0  0  0  0  0  0  0  0  0  0
    0.6288    1.7216    0.8426 H   0  0  0  0  0  0  0  0  0  0  0  0
   -1.1328   -0.2882    2.6893 H   0  0  0  0  0  0  0  0  0  0  0  0
    1.8610   -1.4985   -3.2660 C   0  0  0  0  0  0  0  0  0  0  0  0
    1.8610   -1.4985   -1.9423 C   0  0  0  0  0  0  0  0  0  0  0  0
    1.8610   -0.2763   -1.0818 C   0  0  0  0  0  0  0  0  0  0  0  0
    1.8610   -2.4212   -3.8325 H   0  0  0  0  0  0  0  0  0  0  0  0
    1.8610   -0.5729   -3.8320 H   0  0  0  0  0  0  0  0  0  0  0  0
    1.8610   -2.4511   -1.4188 H   0  0  0  0  0  0  0  0  0  0  0  0
    0.8078   -0.2557   -0.3003 H   0  0  0  0  0  0  0  0  0  0  0  0
    1.8610    0.6342   -1.6824 H   0  0  0  0  0  0  0  0  0  0  0  0
    2.7387   -0.2592   -0.4306 H   0  0  0  0  0  0  0  0  0  0  0  0
  1  2  1  0
  1  6  1  0
  1  7  1  0
  1  8  1  0
  2  3  2  3
  2  5  1  0
  3  4  1  0
  3  9  1  0
  5 10  1  0
 11 12  2  3
 11 14  1  0
 11 15  1  0
 12 13  1  0
 12 16  1  0
 13 17  1  0
 13 18  1  0
 13 19  1  0
M  RAD  1   4   2
M  END
>  <reaction>  (13) 
rxn_1029

>  <mol_properties>  (13) 
{"1": {"label": "*1", "atom_type": "Cs"}, "2": {"label": "*0", "atom_type": "CS"}, "11": {"label": "*4", "atom_type": "Cd"}, "12": {"label": "*3", "atom_type": "Cs"}, "16": {"label": "*2", "atom_type": "H0"}}

>  <type>  (13) 
unop_9

>  <geom_source>  (13) 
Heuristics

$$$$

     RDKit          3D

 19 17  0  0  0  0  0  0  0  0999 V2000
   -0.1323   -1.2811    1.3286 C   0  0  0  0  0  0  0  0  0  0  0  0
   -0.1237   -0.0628    0.4279 C   0  0  0  0  0  0  0  0  0  0  0  0
   -1.4548    0.5575    0.1260 C   0  0  0  0  0  0  0  0  0  0  0  0
   -2.8558    0.2326    0.8451 S   0  0  0  0  0  1  0  0  0  0  0  0
    0.9439    1.2923    1.0491 S   0  0  0  0  0  0  0  0  0  0  0  0
   -0.5533   -1.0420    2.3050 H   0  0  0  0  0  0  0  0  0  0  0  0
   -0.7431   -2.0718    0.8897 H   0  0  0  0  0  0  0  0  0  0  0  0
    0.8836   -1.6491    1.4652 H   0  0  0  0  0  0  0  0  0  0  0  0
   -1.4075    1.3205   -0.6512 H   0  0  0  0  0  0  0  0  0  0  0  0
    0.2212    1.5401    2.1510 H   0  0  0  0  0  0  0  0  0  0  0  0
    1.9846   -1.3261   -3.3206 C   0  0  0  0  0  0  0  0  0  0  0  0
    1.9846   -1.3261   -1.9968 C   0  0  0  0  0  0  0  0  0  0  0  0
    1.9846   -0.1039   -1.1363 C   0  0  0  0  0  0  0  0  0  0  0  0
    1.9846   -2.2488   -3.8871 H   0  0  0  0  0  0  0  0  0  0  0  0
    1.9846   -0.4005   -3.8866 H   0  0  0  0  0  0  0  0  0  0  0  0
    1.9846   -2.2787   -1.4733 H   0  0  0  0  0  0  0  0  0  0  0  0
    0.9313   -0.0834   -0.3549 H   0  0  0  0  0  0  0  0  0  0  0  0
    1.9846    0.8065   -1.7369 H   0  0  0  0  0  0  0  0  0  0  0  0
    2.8623   -0.0868   -0.4851 H   0  0  0  0  0  0  0  0  0  0  0  0
  1  2  1  0
  1  6  1  0
  1  7  1  0
  1  8  1  0
  2  3  2  3
  2  5  1  0
  3  4  1  0
  3  9  1  0
  5 10  1  0
 11 12  2  3
 11 14  1  0
 11 15  1  0
 12 13  1  0
 12 16  1  0
 13 17  1  0
 13 18  1  0
 13 19  1  0
M  RAD  1   4   2
M  END
>  <reaction>  (14) 
rxn_1029

>  <mol_properties>  (14) 
{"1": {"label": "*1", "atom_type": "Cs"}, "2": {"label": "*0", "atom_type": "CS"}, "11": {"label": "*4", "atom_type": "Cd"}, "12": {"label": "*3", "atom_type": "Cs"}, "16": {"label": "*2", "atom_type": "H0"}}

>  <type>  (14) 
unop_10

>  <geom_source>  (14) 
Heuristics

$$$$

     RDKit          3D

 19 17  0  0  0  0  0  0  0  0999 V2000
   -1.0053    1.8539    0.4109 C   0  0  0  0  0  0  0  0  0  0  0  0
   -0.5969    0.4245    0.1186 C   0  0  0  0  0  0  0  0  0  0  0  0
    0.3067   -0.2326    1.1184 C   0  0  0  0  0  0  0  0  0  0  0  0
    0.6868    0.3154    2.5816 S   0  0  0  0  0  1  0  0  0  0  0  0
   -2.0223   -0.7069   -0.1052 S   0  0  0  0  0  0  0  0  0  0  0  0
   -1.5443    1.9208    1.3558 H   0  0  0  0  0  0  0  0  0  0  0  0
   -0.1229    2.4914    0.4875 H   0  0  0  0  0  0  0  0  0  0  0  0
   -1.6470    2.2271   -0.3861 H   0  0  0  0  0  0  0  0  0  0  0  0
    0.6989   -1.1914    0.7789 H   0  0  0  0  0  0  0  0  0  0  0  0
   -2.4744   -0.6060    1.1531 H   0  0  0  0  0  0  0  0  0  0  0  0
    1.5114   -0.8388   -3.6299 C   0  0  0  0  0  0  0  0  0  0  0  0
    1.5114   -0.8388   -2.3061 C   0  0  0  0  0  0  0  0  0  0  0  0
    1.5114    0.3834   -1.4456 C   0  0  0  0  0  0  0  0  0  0  0  0
    1.5114   -1.7615   -4.1964 H   0  0  0  0  0  0  0  0  0  0  0  0
    1.5114    0.0868   -4.1959 H   0  0  0  0  0  0  0  0  0  0  0  0
    1.5114   -1.7914   -1.7826 H   0  0  0  0  0  0  0  0  0  0  0  0
    0.4582    0.4039   -0.6641 H   0  0  0  0  0  0  0  0  0  0  0  0
    1.5114    1.2938   -2.0462 H   0  0  0  0  0  0  0  0  0  0  0  0
    2.3891    0.4005   -0.7944 H   0  0  0  0  0  0  0  0  0  0  0  0
  1  2  1  0
  1  6  1  0
  1  7  1  0
  1  8  1  0
  2  3  2  3
  2  5  1  0
  3  4  1  0
  3  9  1  0
  5 10  1  0
 11 12  2  3
 11 14  1  0
 11 15  1  0
 12 13  1  0
 12 16  1  0
 13 17  1  0
 13 18  1  0
 13 19  1  0
M  RAD  1   4   2
M  END
>  <reaction>  (15) 
rxn_1029

>  <mol_properties>  (15) 
{"1": {"label": "*1", "atom_type": "Cs"}, "2": {"label": "*0", "atom_type": "CS"}, "11": {"label": "*4", "atom_type": "Cd"}, "12": {"label": "*3", "atom_type": "Cs"}, "16": {"label": "*2", "atom_type": "H0"}}

>  <type>  (15) 
unop_11

>  <geom_source>  (15) 
Heuristics

$$$$

     RDKit          3D

 19 17  0  0  0  0  0  0  0  0999 V2000
   -0.9865   -1.3408    0.2346 C   0  0  0  0  0  0  0  0  0  0  0  0
   -0.1308   -0.1139    0.4754 C   0  0  0  0  0  0  0  0  0  0  0  0
   -0.7963    1.2159    0.2846 C   0  0  0  0  0  0  0  0  0  0  0  0
   -2.3701    1.4893    0.1000 S   0  0  0  0  0  1  0  0  0  0  0  0
    0.6269   -0.0729    2.1446 S   0  0  0  0  0  0  0  0  0  0  0  0
   -1.8408   -1.3601    0.9111 H   0  0  0  0  0  0  0  0  0  0  0  0
   -1.3727   -1.3384   -0.7860 H   0  0  0  0  0  0  0  0  0  0  0  0
   -0.3954   -2.2422    0.3903 H   0  0  0  0  0  0  0  0  0  0  0  0
   -0.0989    2.0534    0.3079 H   0  0  0  0  0  0  0  0  0  0  0  0
   -0.5290    0.0338    2.8156 H   0  0  0  0  0  0  0  0  0  0  0  0
    1.9775   -1.3772   -3.2731 C   0  0  0  0  0  0  0  0  0  0  0  0
    1.9775   -1.3772   -1.9494 C   0  0  0  0  0  0  0  0  0  0  0  0
    1.9775   -0.1550   -1.0889 C   0  0  0  0  0  0  0  0  0  0  0  0
    1.9775   -2.2999   -3.8396 H   0  0  0  0  0  0  0  0  0  0  0  0
    1.9775   -0.4516   -3.8391 H   0  0  0  0  0  0  0  0  0  0  0  0
    1.9775   -2.3298   -1.4259 H   0  0  0  0  0  0  0  0  0  0  0  0
    0.9242   -0.1345   -0.3074 H   0  0  0  0  0  0  0  0  0  0  0  0
    1.9775    0.7555   -1.6895 H   0  0  0  0  0  0  0  0  0  0  0  0
    2.8552   -0.1379   -0.4377 H   0  0  0  0  0  0  0  0  0  0  0  0
  1  2  1  0
  1  6  1  0
  1  7  1  0
  1  8  1  0
  2  3  2  3
  2  5  1  0
  3  4  1  0
  3  9  1  0
  5 10  1  0
 11 12  2  3
 11 14  1  0
 11 15  1  0
 12 13  1  0
 12 16  1  0
 13 17  1  0
 13 18  1  0
 13 19  1  0
M  RAD  1   4   2
M  END
>  <reaction>  (16) 
rxn_1029

>  <mol_properties>  (16) 
{"1": {"label": "*1", "atom_type": "Cs"}, "2": {"label": "*0", "atom_type": "CS"}, "11": {"label": "*4", "atom_type": "Cd"}, "12": {"label": "*3", "atom_type": "Cs"}, "16": {"label": "*2", "atom_type": "H0"}}

>  <type>  (16) 
unop_12

>  <geom_source>  (16) 
Heuristics

$$$$

     RDKit          3D

 19 17  0  0  0  0  0  0  0  0999 V2000
   -2.5466    1.0762   -0.5528 S   0  0  0  0  0  0  0  0  0  0  0  0
   -3.1860   -1.3730    1.6074 S   0  0  0  0  0  0  0  0  0  0  0  0
   -1.3921   -0.0759    0.2698 C   0  0  0  0  0  0  0  0  0  0  0  0
   -0.9942   -1.2095   -0.6782 C   0  0  0  0  0  0  0  0  0  0  0  0
    2.0698    0.6640   -0.5793 C   0  0  0  0  0  0  0  0  0  0  0  0
   -1.9751   -0.5947    1.5630 C   0  0  0  0  0  0  0  0  0  0  0  0
    0.9004    1.1798    0.1963 C   0  0  0  0  0  0  0  0  0  0  0  0
    2.8738   -0.2675   -0.0646 C   0  0  0  0  0  3  0  0  0  0  0  0
   -0.2946    0.6046    0.5686 H   0  0  0  0  0  0  0  0  0  0  0  0
   -0.3022   -1.9099   -0.1640 H   0  0  0  0  0  0  0  0  0  0  0  0
   -0.4719   -0.7923   -1.5646 H   0  0  0  0  0  0  0  0  0  0  0  0
   -1.8897   -1.7693   -1.0230 H   0  0  0  0  0  0  0  0  0  0  0  0
    2.2591    1.0438   -1.5790 H   0  0  0  0  0  0  0  0  0  0  0  0
   -1.4627   -0.3710    2.4926 H   0  0  0  0  0  0  0  0  0  0  0  0
    2.7003   -0.6669    0.9303 H   0  0  0  0  0  0  0  0  0  0  0  0
    3.7155   -0.6373   -0.6413 H   0  0  0  0  0  0  0  0  0  0  0  0
    0.3230    1.8989   -0.4215 H   0  0  0  0  0  0  0  0  0  0  0  0
    1.2511    1.6902    1.1181 H   0  0  0  0  0  0  0  0  0  0  0  0
   -1.5778    1.5099   -1.4778 H   0  0  0  0  0  0  0  0  0  0  0  0
  1  3  1  0
  1 19  1  0
  2  6  2  0
  3  4  1  0
  3  6  1  0
  3  9  1  0
  4 10  1  0
  4 11  1  0
  4 12  1  0
  5  7  2  3
  5  8  1  0
  5 13  1  0
  6 14  1  0
  7 17  1  0
  7 18  1  0
  8 15  1  0
  8 16  1  0
M  RAD  1   8   2
M  END
>  <reaction>  (17) 
rxn_1029

>  <mol_properties>  (17) 
{"1": {"label": "*1", "atom_type": "Cs"}, "2": {"label": "*0", "atom_type": "CS"}, "11": {"label": "*4", "atom_type": "Cd"}, "12": {"label": "*3", "atom_type": "Cs"}, "16": {"label": "*2", "atom_type": "H0"}}

>  <type>  (17) 
unop_13

>  <geom_source>  (17) 
AutoTST

$$$$
