
     RDKit          3D

 15 14  0  0  0  0  0  0  0  0999 V2000
   -0.6986    1.3249   -0.1641 C   0  0  0  0  0  0  0  0  0  0  0  0
   -0.2590   -0.0344    0.3671 C   0  0  0  0  0  0  0  0  0  0  0  0
   -0.4734   -0.1429    1.8733 C   0  0  0  0  0  0  0  0  0  0  0  0
   -0.9841   -1.1722   -0.3462 C   0  0  0  0  0  0  0  0  0  0  0  0
   -0.7805   -1.1911   -1.7444 O   0  0  0  0  0  0  0  0  0  0  0  0
   -0.1246    2.1306    0.2976 H   0  0  0  0  0  0  0  0  0  0  0  0
   -1.7557    1.4964    0.0581 H   0  0  0  0  0  0  0  0  0  0  0  0
   -0.5709    1.3852   -1.2449 H   0  0  0  0  0  0  0  0  0  0  0  0
    0.8141   -0.1541    0.1667 H   0  0  0  0  0  0  0  0  0  0  0  0
   -1.5346   -0.0466    2.1192 H   0  0  0  0  0  0  0  0  0  0  0  0
    0.0611    0.6480    2.4019 H   0  0  0  0  0  0  0  0  0  0  0  0
   -0.1249   -1.1023    2.2618 H   0  0  0  0  0  0  0  0  0  0  0  0
   -0.6918   -2.1316    0.1011 H   0  0  0  0  0  0  0  0  0  0  0  0
   -2.0629   -1.0627   -0.2056 H   0  0  0  0  0  0  0  0  0  0  0  0
    0.1528   -1.3298   -1.9125 H   0  0  0  0  0  0  0  0  0  0  0  0
  1  2  1  0
  1  6  1  0
  1  7  1  0
  1  8  1  0
  2  3  1  0
  2  4  1  0
  2  9  1  0
  3 10  1  0
  3 11  1  0
  3 12  1  0
  4  5  1  0
  4 13  1  0
  4 14  1  0
  5 15  1  0
M  END
>  <reaction>  (1) 
rxn_425

>  <mol_properties>  (1) 
{"3": {"label": "donator", "atom_type": "Cs"}, "12": {"label": "d_hydrogen", "atom_type": "H0"}}

>  <type>  (1) 
r1h

$$$$

     RDKit          3D

  9  8  0  0  0  0  0  0  0  0999 V2000
   -1.1429   -0.0056    0.0357 C   0  0  0  0  0  0  0  0  0  0  0  0
    0.2348   -0.4846   -0.1988 C   0  0  0  0  0  0  0  0  0  0  0  0
    1.3889    0.3067    0.0768 C   0  0  0  0  0  0  0  0  0  0  0  0
    1.3416    1.4450    0.5289 O   0  0  0  0  0  1  0  0  0  0  0  0
   -1.7198   -0.0230   -0.8945 H   0  0  0  0  0  0  0  0  0  0  0  0
   -1.1399    1.0063    0.4362 H   0  0  0  0  0  0  0  0  0  0  0  0
   -1.6667   -0.6673    0.7330 H   0  0  0  0  0  0  0  0  0  0  0  0
    0.3900   -1.4812   -0.5984 H   0  0  0  0  0  0  0  0  0  0  0  0
    2.3646   -0.1624   -0.1407 H   0  0  0  0  0  0  0  0  0  0  0  0
  1  2  1  0
  1  5  1  0
  1  6  1  0
  1  7  1  0
  2  3  2  3
  2  8  1  0
  3  4  1  0
  3  9  1  0
M  RAD  1   4   2
M  END
>  <reaction>  (2) 
rxn_425

>  <mol_properties>  (2) 
{"1": {"label": "acceptor", "atom_type": "Cs"}}

>  <type>  (2) 
r2

$$$$

     RDKit          3D

 10  9  0  0  0  0  0  0  0  0999 V2000
   -1.1238    0.2714    0.2496 C   0  0  0  0  0  0  0  0  0  0  0  0
    0.0881   -0.5850   -0.0680 C   0  0  0  0  0  0  0  0  0  0  0  0
   -0.0512   -1.4242   -1.3070 C   0  0  0  0  0  0  0  0  0  0  0  0
   -1.0187   -1.4480   -2.0158 O   0  0  0  0  0  0  0  0  0  0  0  0
   -2.0096   -0.3470    0.3939 H   0  0  0  0  0  0  0  0  0  0  0  0
   -0.9564    0.8523    1.1567 H   0  0  0  0  0  0  0  0  0  0  0  0
   -1.3376    0.9606   -0.5673 H   0  0  0  0  0  0  0  0  0  0  0  0
    0.3267   -1.2715    0.7528 H   0  0  0  0  0  0  0  0  0  0  0  0
    0.9917    0.0222   -0.1983 H   0  0  0  0  0  0  0  0  0  0  0  0
    0.8330   -2.0534   -1.5447 H   0  0  0  0  0  0  0  0  0  0  0  0
  1  2  1  0
  1  5  1  0
  1  6  1  0
  1  7  1  0
  2  3  1  0
  2  8  1  0
  2  9  1  0
  3  4  2  0
  3 10  1  0
M  END
>  <reaction>  (3) 
rxn_425

>  <mol_properties>  (3) 
{"0": {"label": "a_hydrogen", "atom_type": "H0"}, "2": {"label": "acceptor", "atom_type": "Cs"}}

>  <type>  (3) 
r2h

$$$$

     RDKit          3D

 24 22  0  0  0  0  0  0  0  0999 V2000
    0.8463    0.3319   -3.1313 C   0  0  0  0  0  0  0  0  0  0  0  0
    0.6622    0.3196   -1.6111 C   0  0  0  0  0  0  0  0  0  0  0  0
    0.7780    1.7237   -1.0262 C   0  0  0  0  0  0  0  0  0  0  0  0
   -0.6580   -0.3063   -1.2331 C   0  0  0  0  0  3  0  0  0  0  0  0
   -0.8669   -1.6115   -1.6134 O   0  0  0  0  0  0  0  0  0  0  0  0
    1.8318    0.7215   -3.3923 H   0  0  0  0  0  0  0  0  0  0  0  0
    0.0951    0.9722   -3.6001 H   0  0  0  0  0  0  0  0  0  0  0  0
    0.7487   -0.6664   -3.5594 H   0  0  0  0  0  0  0  0  0  0  0  0
    1.4576   -0.2990   -1.1718 H   0  0  0  0  0  0  0  0  0  0  0  0
   -0.0444    2.3537   -1.3755 H   0  0  0  0  0  0  0  0  0  0  0  0
    1.7115    2.1901   -1.3435 H   0  0  0  0  0  0  0  0  0  0  0  0
    0.7684    1.7109    0.0636 H   0  0  0  0  0  0  0  0  0  0  0  0
   -0.6675   -0.3018    0.1496 H   0  0  0  0  0  0  0  0  0  0  0  0
   -1.5395    0.2842   -1.4844 H   0  0  0  0  0  0  0  0  0  0  0  0
   -0.0459   -2.1020   -1.5256 H   0  0  0  0  0  0  0  0  0  0  0  0
   -1.5539    0.8677    1.8534 C   0  0  0  0  0  0  0  0  0  0  0  0
   -0.7823   -0.3679    1.4699 C   0  0  0  0  0  0  0  0  0  0  0  0
    0.6036   -0.4818    1.9135 C   0  0  0  0  0  0  0  0  0  0  0  0
    1.2985    0.4454    2.2745 O   0  0  0  0  0  0  0  0  0  0  0  0
   -2.4689    0.9531    1.2652 H   0  0  0  0  0  0  0  0  0  0  0  0
   -0.9529    1.7632    1.6985 H   0  0  0  0  0  0  0  0  0  0  0  0
   -1.8347    0.8411    2.9089 H   0  0  0  0  0  0  0  0  0  0  0  0
   -1.3308   -1.3065    1.5448 H   0  0  0  0  0  0  0  0  0  0  0  0
    1.0356   -1.5029    1.8520 H   0  0  0  0  0  0  0  0  0  0  0  0
  1  2  1  0
  1  6  1  0
  1  7  1  0
  1  8  1  0
  2  3  1  0
  2  4  1  0
  2  9  1  0
  3 10  1  0
  3 11  1  0
  3 12  1  0
  4  5  1  0
  4 14  1  0
  5 15  1  0
 13 17  1  0
 16 17  1  0
 16 20  1  0
 16 21  1  0
 16 22  1  0
 17 18  1  0
 17 23  1  0
 18 19  2  0
 18 24  1  0
M  RAD  1   4   2
M  END
>  <reaction>  (4) 
rxn_425

>  <mol_properties>  (4) 
{"1": {"label": "*4", "atom_type": "Cs"}, "3": {"label": "*3", "atom_type": "Cs"}, "12": {"label": "*2", "atom_type": "H0"}, "16": {"label": "*1", "atom_type": "Cs"}, "17": {"label": "*0", "atom_type": "CO"}}

>  <type>  (4) 
ts

$$$$

     RDKit          3D

 24 22  0  0  0  0  0  0  0  0999 V2000
    0.7038    0.3338   -3.2933 C   0  0  0  0  0  0  0  0  0  0  0  0
    0.7038    0.3338   -1.7692 C   0  0  0  0  0  0  0  0  0  0  0  0
    0.7038    1.7525   -1.2093 C   0  0  0  0  0  0  0  0  0  0  0  0
   -0.4837   -0.4466   -1.2122 C   0  0  0  0  0  3  0  0  0  0  0  0
   -0.5225   -1.7978   -1.6240 O   0  0  0  0  0  0  0  0  0  0  0  0
    1.5935    0.8303   -3.6854 H   0  0  0  0  0  0  0  0  0  0  0  0
   -0.1724    0.8665   -3.6738 H   0  0  0  0  0  0  0  0  0  0  0  0
    0.6734   -0.6822   -3.6870 H   0  0  0  0  0  0  0  0  0  0  0  0
    1.6167   -0.1687   -1.4227 H   0  0  0  0  0  0  0  0  0  0  0  0
   -0.1994    2.2876   -1.5155 H   0  0  0  0  0  0  0  0  0  0  0  0
    1.5624    2.3172   -1.5762 H   0  0  0  0  0  0  0  0  0  0  0  0
    0.7411    1.7550   -0.1178 H   0  0  0  0  0  0  0  0  0  0  0  0
   -0.4899   -0.3607    0.1027 H   0  0  0  0  0  0  0  0  0  0  0  0
   -1.4149   -0.0006   -1.5720 H   0  0  0  0  0  0  0  0  0  0  0  0
    0.2602   -2.2387   -1.2896 H   0  0  0  0  0  0  0  0  0  0  0  0
   -1.7711    0.3665    1.9311 C   0  0  0  0  0  0  0  0  0  0  0  0
   -0.4960   -0.2750    1.4156 C   0  0  0  0  0  0  0  0  0  0  0  0
    0.6429   -0.2700    2.3963 C   0  0  0  0  0  0  0  0  0  0  0  0
    0.5948    0.1903    3.5030 O   0  0  0  0  0  0  0  0  0  0  0  0
   -2.5534    0.3291    1.1729 H   0  0  0  0  0  0  0  0  0  0  0  0
   -1.6005    1.4087    2.2004 H   0  0  0  0  0  0  0  0  0  0  0  0
   -2.1304   -0.1455    2.8237 H   0  0  0  0  0  0  0  0  0  0  0  0
   -0.6562   -1.3195    1.1235 H   0  0  0  0  0  0  0  0  0  0  0  0
    1.5792   -0.7382    2.0245 H   0  0  0  0  0  0  0  0  0  0  0  0
  1  2  1  0
  1  6  1  0
  1  7  1  0
  1  8  1  0
  2  3  1  0
  2  4  1  0
  2  9  1  0
  3 10  1  0
  3 11  1  0
  3 12  1  0
  4  5  1  0
  4 14  1  0
  5 15  1  0
 13 17  1  0
 16 17  1  0
 16 20  1  0
 16 21  1  0
 16 22  1  0
 17 18  1  0
 17 23  1  0
 18 19  2  0
 18 24  1  0
M  RAD  1   4   2
M  END
>  <reaction>  (5) 
rxn_425

>  <mol_properties>  (5) 
{"1": {"label": "*4", "atom_type": "Cs"}, "3": {"label": "*3", "atom_type": "Cs"}, "12": {"label": "*2", "atom_type": "H0"}, "16": {"label": "*1", "atom_type": "Cs"}, "17": {"label": "*0", "atom_type": "CO"}}

>  <type>  (5) 
unop_1

>  <geom_source>  (5) 
Heuristics

$$$$

     RDKit          3D

 24 22  0  0  0  0  0  0  0  0999 V2000
    0.5678    0.5693   -3.2370 C   0  0  0  0  0  0  0  0  0  0  0  0
    0.5678    0.5693   -1.7129 C   0  0  0  0  0  0  0  0  0  0  0  0
    0.5678    1.9880   -1.1530 C   0  0  0  0  0  0  0  0  0  0  0  0
   -0.6198   -0.2111   -1.1559 C   0  0  0  0  0  3  0  0  0  0  0  0
   -0.6586   -1.5623   -1.5677 O   0  0  0  0  0  0  0  0  0  0  0  0
    1.4575    1.0658   -3.6291 H   0  0  0  0  0  0  0  0  0  0  0  0
   -0.3085    1.1020   -3.6175 H   0  0  0  0  0  0  0  0  0  0  0  0
    0.5373   -0.4467   -3.6307 H   0  0  0  0  0  0  0  0  0  0  0  0
    1.4806    0.0668   -1.3664 H   0  0  0  0  0  0  0  0  0  0  0  0
   -0.3355    2.5231   -1.4592 H   0  0  0  0  0  0  0  0  0  0  0  0
    1.4263    2.5527   -1.5199 H   0  0  0  0  0  0  0  0  0  0  0  0
    0.6050    1.9905   -0.0615 H   0  0  0  0  0  0  0  0  0  0  0  0
   -0.6259   -0.1252    0.1590 H   0  0  0  0  0  0  0  0  0  0  0  0
   -1.5510    0.2349   -1.5157 H   0  0  0  0  0  0  0  0  0  0  0  0
    0.1241   -2.0032   -1.2333 H   0  0  0  0  0  0  0  0  0  0  0  0
   -0.0283    1.2671    1.9528 C   0  0  0  0  0  0  0  0  0  0  0  0
   -0.6321   -0.0395    1.4719 C   0  0  0  0  0  0  0  0  0  0  0  0
   -0.2454   -1.2407    2.2882 C   0  0  0  0  0  0  0  0  0  0  0  0
    0.4761   -1.2172    3.2463 O   0  0  0  0  0  0  0  0  0  0  0  0
   -0.3483    2.0943    1.3190 H   0  0  0  0  0  0  0  0  0  0  0  0
    1.0605    1.2212    1.9371 H   0  0  0  0  0  0  0  0  0  0  0  0
   -0.3302    1.4808    2.9780 H   0  0  0  0  0  0  0  0  0  0  0  0
   -1.7278   -0.0023    1.4650 H   0  0  0  0  0  0  0  0  0  0  0  0
   -0.6844   -2.2003    1.9409 H   0  0  0  0  0  0  0  0  0  0  0  0
  1  2  1  0
  1  6  1  0
  1  7  1  0
  1  8  1  0
  2  3  1  0
  2  4  1  0
  2  9  1  0
  3 10  1  0
  3 11  1  0
  3 12  1  0
  4  5  1  0
  4 14  1  0
  5 15  1  0
 13 17  1  0
 16 17  1  0
 16 20  1  0
 16 21  1  0
 16 22  1  0
 17 18  1  0
 17 23  1  0
 18 19  2  0
 18 24  1  0
M  RAD  1   4   2
M  END
>  <reaction>  (6) 
rxn_425

>  <mol_properties>  (6) 
{"1": {"label": "*4", "atom_type": "Cs"}, "3": {"label": "*3", "atom_type": "Cs"}, "12": {"label": "*2", "atom_type": "H0"}, "16": {"label": "*1", "atom_type": "Cs"}, "17": {"label": "*0", "atom_type": "CO"}}

>  <type>  (6) 
unop_2

>  <geom_source>  (6) 
Heuristics

$$$$

     RDKit          3D

 24 22  0  0  0  0  0  0  0  0999 V2000
    0.7826    0.2260   -3.2564 C   0  0  0  0  0  0  0  0  0  0  0  0
    0.7826    0.2260   -1.7323 C   0  0  0  0  0  0  0  0  0  0  0  0
    0.7826    1.6447   -1.1724 C   0  0  0  0  0  0  0  0  0  0  0  0
   -0.4049   -0.5544   -1.1753 C   0  0  0  0  0  3  0  0  0  0  0  0
   -0.4437   -1.9057   -1.5871 O   0  0  0  0  0  0  0  0  0  0  0  0
    1.6724    0.7225   -3.6485 H   0  0  0  0  0  0  0  0  0  0  0  0
   -0.0936    0.7587   -3.6369 H   0  0  0  0  0  0  0  0  0  0  0  0
    0.7522   -0.7900   -3.6501 H   0  0  0  0  0  0  0  0  0  0  0  0
    1.6955   -0.2765   -1.3858 H   0  0  0  0  0  0  0  0  0  0  0  0
   -0.1206    2.1797   -1.4786 H   0  0  0  0  0  0  0  0  0  0  0  0
    1.6412    2.2094   -1.5394 H   0  0  0  0  0  0  0  0  0  0  0  0
    0.8199    1.6471   -0.0809 H   0  0  0  0  0  0  0  0  0  0  0  0
   -0.4110   -0.4685    0.1396 H   0  0  0  0  0  0  0  0  0  0  0  0
   -1.3361   -0.1085   -1.5351 H   0  0  0  0  0  0  0  0  0  0  0  0
    0.3390   -2.3465   -1.2528 H   0  0  0  0  0  0  0  0  0  0  0  0
   -1.8250   -0.4573    2.0142 C   0  0  0  0  0  0  0  0  0  0  0  0
   -0.4172   -0.3828    1.4525 C   0  0  0  0  0  0  0  0  0  0  0  0
    0.5408    0.4260    2.2814 C   0  0  0  0  0  0  0  0  0  0  0  0
    0.2617    0.9831    3.3064 O   0  0  0  0  0  0  0  0  0  0  0  0
   -2.4655   -1.0564    1.3667 H   0  0  0  0  0  0  0  0  0  0  0  0
   -2.2603    0.5377    2.1055 H   0  0  0  0  0  0  0  0  0  0  0  0
   -1.8238   -0.9044    3.0082 H   0  0  0  0  0  0  0  0  0  0  0  0
    0.0276   -1.3783    1.3378 H   0  0  0  0  0  0  0  0  0  0  0  0
    1.5731    0.4842    1.8752 H   0  0  0  0  0  0  0  0  0  0  0  0
  1  2  1  0
  1  6  1  0
  1  7  1  0
  1  8  1  0
  2  3  1  0
  2  4  1  0
  2  9  1  0
  3 10  1  0
  3 11  1  0
  3 12  1  0
  4  5  1  0
  4 14  1  0
  5 15  1  0
 13 17  1  0
 16 17  1  0
 16 20  1  0
 16 21  1  0
 16 22  1  0
 17 18  1  0
 17 23  1  0
 18 19  2  0
 18 24  1  0
M  RAD  1   4   2
M  END
>  <reaction>  (7) 
rxn_425

>  <mol_properties>  (7) 
{"1": {"label": "*4", "atom_type": "Cs"}, "3": {"label": "*3", "atom_type": "Cs"}, "12": {"label": "*2", "atom_type": "H0"}, "16": {"label": "*1", "atom_type": "Cs"}, "17": {"label": "*0", "atom_type": "CO"}}

>  <type>  (7) 
unop_3

>  <geom_source>  (7) 
Heuristics

$$$$

     RDKit          3D

 24 22  0  0  0  0  0  0  0  0999 V2000
    0.8963    0.8787   -2.9565 C   0  0  0  0  0  0  0  0  0  0  0  0
    0.8963    0.8787   -1.4324 C   0  0  0  0  0  0  0  0  0  0  0  0
    0.8963    2.2974   -0.8725 C   0  0  0  0  0  0  0  0  0  0  0  0
   -0.2912    0.0983   -0.8754 C   0  0  0  0  0  3  0  0  0  0  0  0
   -0.3300   -1.2530   -1.2872 O   0  0  0  0  0  0  0  0  0  0  0  0
    1.7860    1.3752   -3.3486 H   0  0  0  0  0  0  0  0  0  0  0  0
    0.0201    1.4114   -3.3370 H   0  0  0  0  0  0  0  0  0  0  0  0
    0.8659   -0.1373   -3.3502 H   0  0  0  0  0  0  0  0  0  0  0  0
    1.8092    0.3762   -1.0859 H   0  0  0  0  0  0  0  0  0  0  0  0
   -0.0069    2.8324   -1.1787 H   0  0  0  0  0  0  0  0  0  0  0  0
    1.7549    2.8621   -1.2394 H   0  0  0  0  0  0  0  0  0  0  0  0
    0.9336    2.2998    0.2190 H   0  0  0  0  0  0  0  0  0  0  0  0
   -0.2974    0.1842    0.4395 H   0  0  0  0  0  0  0  0  0  0  0  0
   -1.2224    0.5442   -1.2352 H   0  0  0  0  0  0  0  0  0  0  0  0
    0.4527   -1.6938   -0.9528 H   0  0  0  0  0  0  0  0  0  0  0  0
    0.9663   -0.2982    2.3589 C   0  0  0  0  0  0  0  0  0  0  0  0
   -0.3035    0.2699    1.7524 C   0  0  0  0  0  0  0  0  0  0  0  0
   -1.4110   -0.7311    1.5777 C   0  0  0  0  0  0  0  0  0  0  0  0
   -1.3428   -1.8906    1.8775 O   0  0  0  0  0  0  0  0  0  0  0  0
    1.7254    0.4779    2.4573 H   0  0  0  0  0  0  0  0  0  0  0  0
    1.3691   -1.0986    1.7384 H   0  0  0  0  0  0  0  0  0  0  0  0
    0.7716   -0.7181    3.3457 H   0  0  0  0  0  0  0  0  0  0  0  0
   -0.7111    1.0890    2.3566 H   0  0  0  0  0  0  0  0  0  0  0  0
   -2.3432   -0.3210    1.1341 H   0  0  0  0  0  0  0  0  0  0  0  0
  1  2  1  0
  1  6  1  0
  1  7  1  0
  1  8  1  0
  2  3  1  0
  2  4  1  0
  2  9  1  0
  3 10  1  0
  3 11  1  0
  3 12  1  0
  4  5  1  0
  4 14  1  0
  5 15  1  0
 13 17  1  0
 16 17  1  0
 16 20  1  0
 16 21  1  0
 16 22  1  0
 17 18  1  0
 17 23  1  0
 18 19  2  0
 18 24  1  0
M  RAD  1   4   2
M  END
>  <reaction>  (8) 
rxn_425

>  <mol_properties>  (8) 
{"1": {"label": "*4", "atom_type": "Cs"}, "3": {"label": "*3", "atom_type": "Cs"}, "12": {"label": "*2", "atom_type": "H0"}, "16": {"label": "*1", "atom_type": "Cs"}, "17": {"label": "*0", "atom_type": "CO"}}

>  <type>  (8) 
unop_4

>  <geom_source>  (8) 
Heuristics

$$$$

     RDKit          3D

 24 22  0  0  0  0  0  0  0  0999 V2000
    1.0203    0.1545   -3.1151 C   0  0  0  0  0  0  0  0  0  0  0  0
    1.0203    0.1545   -1.5910 C   0  0  0  0  0  0  0  0  0  0  0  0
    1.0203    1.5733   -1.0311 C   0  0  0  0  0  0  0  0  0  0  0  0
   -0.1672   -0.6259   -1.0340 C   0  0  0  0  0  3  0  0  0  0  0  0
   -0.2060   -1.9771   -1.4457 O   0  0  0  0  0  0  0  0  0  0  0  0
    1.9100    0.6511   -3.5071 H   0  0  0  0  0  0  0  0  0  0  0  0
    0.1441    0.6872   -3.4956 H   0  0  0  0  0  0  0  0  0  0  0  0
    0.9899   -0.8614   -3.5088 H   0  0  0  0  0  0  0  0  0  0  0  0
    1.9332   -0.3480   -1.2445 H   0  0  0  0  0  0  0  0  0  0  0  0
    0.1170    2.1083   -1.3373 H   0  0  0  0  0  0  0  0  0  0  0  0
    1.8789    2.1379   -1.3980 H   0  0  0  0  0  0  0  0  0  0  0  0
    1.0576    1.5757    0.0604 H   0  0  0  0  0  0  0  0  0  0  0  0
   -0.1734   -0.5400    0.2810 H   0  0  0  0  0  0  0  0  0  0  0  0
   -1.0984   -0.1799   -1.3937 H   0  0  0  0  0  0  0  0  0  0  0  0
    0.5767   -2.4180   -1.1114 H   0  0  0  0  0  0  0  0  0  0  0  0
   -1.3436   -1.2150    2.2014 C   0  0  0  0  0  0  0  0  0  0  0  0
   -0.1795   -0.4542    1.5938 C   0  0  0  0  0  0  0  0  0  0  0  0
   -0.1497    1.0100    1.9316 C   0  0  0  0  0  0  0  0  0  0  0  0
   -0.9555    1.5733    2.6189 O   0  0  0  0  0  0  0  0  0  0  0  0
   -1.3049   -2.2668    1.9178 H   0  0  0  0  0  0  0  0  0  0  0  0
   -2.2950   -0.8018    1.8668 H   0  0  0  0  0  0  0  0  0  0  0  0
   -1.3251   -1.1498    3.2893 H   0  0  0  0  0  0  0  0  0  0  0  0
    0.7853   -0.8700    1.9073 H   0  0  0  0  0  0  0  0  0  0  0  0
    0.7003    1.5723    1.4896 H   0  0  0  0  0  0  0  0  0  0  0  0
  1  2  1  0
  1  6  1  0
  1  7  1  0
  1  8  1  0
  2  3  1  0
  2  4  1  0
  2  9  1  0
  3 10  1  0
  3 11  1  0
  3 12  1  0
  4  5  1  0
  4 14  1  0
  5 15  1  0
 13 17  1  0
 16 17  1  0
 16 20  1  0
 16 21  1  0
 16 22  1  0
 17 18  1  0
 17 23  1  0
 18 19  2  0
 18 24  1  0
M  RAD  1   4   2
M  END
>  <reaction>  (9) 
rxn_425

>  <mol_properties>  (9) 
{"1": {"label": "*4", "atom_type": "Cs"}, "3": {"label": "*3", "atom_type": "Cs"}, "12": {"label": "*2", "atom_type": "H0"}, "16": {"label": "*1", "atom_type": "Cs"}, "17": {"label": "*0", "atom_type": "CO"}}

>  <type>  (9) 
unop_5

>  <geom_source>  (9) 
Heuristics

$$$$

     RDKit          3D

 24 22  0  0  0  0  0  0  0  0999 V2000
    1.0819    0.7940   -2.8972 C   0  0  0  0  0  0  0  0  0  0  0  0
    1.0819    0.7940   -1.3731 C   0  0  0  0  0  0  0  0  0  0  0  0
    1.0819    2.2127   -0.8132 C   0  0  0  0  0  0  0  0  0  0  0  0
   -0.1056    0.0136   -0.8161 C   0  0  0  0  0  3  0  0  0  0  0  0
   -0.1444   -1.3376   -1.2278 O   0  0  0  0  0  0  0  0  0  0  0  0
    1.9716    1.2905   -3.2892 H   0  0  0  0  0  0  0  0  0  0  0  0
    0.2057    1.3267   -3.2777 H   0  0  0  0  0  0  0  0  0  0  0  0
    1.0515   -0.2220   -3.2909 H   0  0  0  0  0  0  0  0  0  0  0  0
    1.9948    0.2915   -1.0266 H   0  0  0  0  0  0  0  0  0  0  0  0
    0.1786    2.7478   -1.1194 H   0  0  0  0  0  0  0  0  0  0  0  0
    1.9405    2.7774   -1.1801 H   0  0  0  0  0  0  0  0  0  0  0  0
    1.1192    2.2152    0.2783 H   0  0  0  0  0  0  0  0  0  0  0  0
   -0.1118    0.0995    0.4989 H   0  0  0  0  0  0  0  0  0  0  0  0
   -1.0368    0.4596   -1.1758 H   0  0  0  0  0  0  0  0  0  0  0  0
    0.6383   -1.7785   -0.8935 H   0  0  0  0  0  0  0  0  0  0  0  0
    0.6781   -0.9368    2.4522 C   0  0  0  0  0  0  0  0  0  0  0  0
   -0.1179    0.1852    1.8117 C   0  0  0  0  0  0  0  0  0  0  0  0
   -1.5208   -0.1903    1.4245 C   0  0  0  0  0  0  0  0  0  0  0  0
   -2.0126   -1.2721    1.5881 O   0  0  0  0  0  0  0  0  0  0  0  0
    1.6824   -0.5980    2.7073 H   0  0  0  0  0  0  0  0  0  0  0  0
    0.7620   -1.7883    1.7770 H   0  0  0  0  0  0  0  0  0  0  0  0
    0.1911   -1.2892    3.3613 H   0  0  0  0  0  0  0  0  0  0  0  0
   -0.1957    1.0566    2.4726 H   0  0  0  0  0  0  0  0  0  0  0  0
   -2.1086    0.6272    0.9551 H   0  0  0  0  0  0  0  0  0  0  0  0
  1  2  1  0
  1  6  1  0
  1  7  1  0
  1  8  1  0
  2  3  1  0
  2  4  1  0
  2  9  1  0
  3 10  1  0
  3 11  1  0
  3 12  1  0
  4  5  1  0
  4 14  1  0
  5 15  1  0
 13 17  1  0
 16 17  1  0
 16 20  1  0
 16 21  1  0
 16 22  1  0
 17 18  1  0
 17 23  1  0
 18 19  2  0
 18 24  1  0
M  RAD  1   4   2
M  END
>  <reaction>  (10) 
rxn_425

>  <mol_properties>  (10) 
{"1": {"label": "*4", "atom_type": "Cs"}, "3": {"label": "*3", "atom_type": "Cs"}, "12": {"label": "*2", "atom_type": "H0"}, "16": {"label": "*1", "atom_type": "Cs"}, "17": {"label": "*0", "atom_type": "CO"}}

>  <type>  (10) 
unop_6

>  <geom_source>  (10) 
Heuristics

$$$$

     RDKit          3D

 24 22  0  0  0  0  0  0  0  0999 V2000
    1.2125    0.6112   -2.8807 C   0  0  0  0  0  0  0  0  0  0  0  0
    1.2125    0.6112   -1.3565 C   0  0  0  0  0  0  0  0  0  0  0  0
    1.2125    2.0299   -0.7967 C   0  0  0  0  0  0  0  0  0  0  0  0
    0.0250   -0.1692   -0.7996 C   0  0  0  0  0  3  0  0  0  0  0  0
   -0.0138   -1.5204   -1.2113 O   0  0  0  0  0  0  0  0  0  0  0  0
    2.1022    1.1077   -3.2727 H   0  0  0  0  0  0  0  0  0  0  0  0
    0.3362    1.1439   -3.2612 H   0  0  0  0  0  0  0  0  0  0  0  0
    1.1821   -0.4048   -3.2743 H   0  0  0  0  0  0  0  0  0  0  0  0
    2.1253    0.1087   -1.0101 H   0  0  0  0  0  0  0  0  0  0  0  0
    0.3092    2.5649   -1.1029 H   0  0  0  0  0  0  0  0  0  0  0  0
    2.0710    2.5946   -1.1636 H   0  0  0  0  0  0  0  0  0  0  0  0
    1.2498    2.0324    0.2949 H   0  0  0  0  0  0  0  0  0  0  0  0
    0.0188   -0.0833    0.5154 H   0  0  0  0  0  0  0  0  0  0  0  0
   -0.9062    0.2768   -1.1593 H   0  0  0  0  0  0  0  0  0  0  0  0
    0.7688   -1.9613   -0.8770 H   0  0  0  0  0  0  0  0  0  0  0  0
    0.1210   -1.3631    2.4813 C   0  0  0  0  0  0  0  0  0  0  0  0
    0.0126    0.0024    1.8282 C   0  0  0  0  0  0  0  0  0  0  0  0
   -1.3744    0.3688    1.3799 C   0  0  0  0  0  0  0  0  0  0  0  0
   -2.3436   -0.3265    1.5064 O   0  0  0  0  0  0  0  0  0  0  0  0
    1.1494   -1.5647    2.7814 H   0  0  0  0  0  0  0  0  0  0  0  0
   -0.1991   -2.1481    1.7964 H   0  0  0  0  0  0  0  0  0  0  0  0
   -0.5146   -1.4230    3.3647 H   0  0  0  0  0  0  0  0  0  0  0  0
    0.3485    0.8016    2.4995 H   0  0  0  0  0  0  0  0  0  0  0  0
   -1.4600    1.3675    0.9009 H   0  0  0  0  0  0  0  0  0  0  0  0
  1  2  1  0
  1  6  1  0
  1  7  1  0
  1  8  1  0
  2  3  1  0
  2  4  1  0
  2  9  1  0
  3 10  1  0
  3 11  1  0
  3 12  1  0
  4  5  1  0
  4 14  1  0
  5 15  1  0
 13 17  1  0
 16 17  1  0
 16 20  1  0
 16 21  1  0
 16 22  1  0
 17 18  1  0
 17 23  1  0
 18 19  2  0
 18 24  1  0
M  RAD  1   4   2
M  END
>  <reaction>  (11) 
rxn_425

>  <mol_properties>  (11) 
{"1": {"label": "*4", "atom_type": "Cs"}, "3": {"label": "*3", "atom_type": "Cs"}, "12": {"label": "*2", "atom_type": "H0"}, "16": {"label": "*1", "atom_type": "Cs"}, "17": {"label": "*0", "atom_type": "CO"}}

>  <type>  (11) 
unop_7

>  <geom_source>  (11) 
Heuristics

$$$$

     RDKit          3D

 24 22  0  0  0  0  0  0  0  0999 V2000
    0.6662    0.3941   -3.2962 C   0  0  0  0  0  0  0  0  0  0  0  0
    0.6662    0.3941   -1.7720 C   0  0  0  0  0  0  0  0  0  0  0  0
    0.6662    1.8128   -1.2122 C   0  0  0  0  0  0  0  0  0  0  0  0
   -0.5213   -0.3863   -1.2151 C   0  0  0  0  0  3  0  0  0  0  0  0
   -0.5601   -1.7375   -1.6268 O   0  0  0  0  0  0  0  0  0  0  0  0
    1.5559    0.8906   -3.6882 H   0  0  0  0  0  0  0  0  0  0  0  0
   -0.2101    0.9268   -3.6767 H   0  0  0  0  0  0  0  0  0  0  0  0
    0.6358   -0.6219   -3.6898 H   0  0  0  0  0  0  0  0  0  0  0  0
    1.5791   -0.1084   -1.4256 H   0  0  0  0  0  0  0  0  0  0  0  0
   -0.2371    2.3479   -1.5184 H   0  0  0  0  0  0  0  0  0  0  0  0
    1.5248    2.3775   -1.5791 H   0  0  0  0  0  0  0  0  0  0  0  0
    0.7035    1.8153   -0.1206 H   0  0  0  0  0  0  0  0  0  0  0  0
   -0.5275   -0.3004    0.0999 H   0  0  0  0  0  0  0  0  0  0  0  0
   -1.4525    0.0597   -1.5748 H   0  0  0  0  0  0  0  0  0  0  0  0
    0.2226   -2.1784   -1.2925 H   0  0  0  0  0  0  0  0  0  0  0  0
   -1.3350    0.9807    1.8943 C   0  0  0  0  0  0  0  0  0  0  0  0
   -0.5337   -0.2147    1.4127 C   0  0  0  0  0  0  0  0  0  0  0  0
    0.4325   -0.7639    2.4246 C   0  0  0  0  0  0  0  0  0  0  0  0
    0.5911   -0.3276    3.5307 O   0  0  0  0  0  0  0  0  0  0  0  0
   -2.0133    1.3276    1.1146 H   0  0  0  0  0  0  0  0  0  0  0  0
   -0.6767    1.8042    2.1707 H   0  0  0  0  0  0  0  0  0  0  0  0
   -1.9235    0.7247    2.7753 H   0  0  0  0  0  0  0  0  0  0  0  0
   -1.1835   -1.0455    1.1137 H   0  0  0  0  0  0  0  0  0  0  0  0
    1.0221   -1.6392    2.0778 H   0  0  0  0  0  0  0  0  0  0  0  0
  1  2  1  0
  1  6  1  0
  1  7  1  0
  1  8  1  0
  2  3  1  0
  2  4  1  0
  2  9  1  0
  3 10  1  0
  3 11  1  0
  3 12  1  0
  4  5  1  0
  4 14  1  0
  5 15  1  0
 13 17  1  0
 16 17  1  0
 16 20  1  0
 16 21  1  0
 16 22  1  0
 17 18  1  0
 17 23  1  0
 18 19  2  0
 18 24  1  0
M  RAD  1   4   2
M  END
>  <reaction>  (12) 
rxn_425

>  <mol_properties>  (12) 
{"1": {"label": "*4", "atom_type": "Cs"}, "3": {"label": "*3", "atom_type": "Cs"}, "12": {"label": "*2", "atom_type": "H0"}, "16": {"label": "*1", "atom_type": "Cs"}, "17": {"label": "*0", "atom_type": "CO"}}

>  <type>  (12) 
unop_8

>  <geom_source>  (12) 
Heuristics

$$$$

     RDKit          3D

 24 22  0  0  0  0  0  0  0  0999 V2000
    0.7093    0.8522   -3.0488 C   0  0  0  0  0  0  0  0  0  0  0  0
    0.7093    0.8522   -1.5247 C   0  0  0  0  0  0  0  0  0  0  0  0
    0.7093    2.2709   -0.9648 C   0  0  0  0  0  0  0  0  0  0  0  0
   -0.4782    0.0718   -0.9678 C   0  0  0  0  0  3  0  0  0  0  0  0
   -0.5170   -1.2795   -1.3795 O   0  0  0  0  0  0  0  0  0  0  0  0
    1.5990    1.3487   -3.4409 H   0  0  0  0  0  0  0  0  0  0  0  0
   -0.1669    1.3849   -3.4293 H   0  0  0  0  0  0  0  0  0  0  0  0
    0.6789   -0.1638   -3.4425 H   0  0  0  0  0  0  0  0  0  0  0  0
    1.6222    0.3497   -1.1782 H   0  0  0  0  0  0  0  0  0  0  0  0
   -0.1940    2.8059   -1.2710 H   0  0  0  0  0  0  0  0  0  0  0  0
    1.5679    2.8356   -1.3318 H   0  0  0  0  0  0  0  0  0  0  0  0
    0.7466    2.2733    0.1267 H   0  0  0  0  0  0  0  0  0  0  0  0
   -0.4844    0.1577    0.3472 H   0  0  0  0  0  0  0  0  0  0  0  0
   -1.4094    0.5177   -1.3275 H   0  0  0  0  0  0  0  0  0  0  0  0
    0.2657   -1.7203   -1.0452 H   0  0  0  0  0  0  0  0  0  0  0  0
    0.9120    0.3913    2.2204 C   0  0  0  0  0  0  0  0  0  0  0  0
   -0.4905    0.2434    1.6601 C   0  0  0  0  0  0  0  0  0  0  0  0
   -1.0794   -1.1309    1.8129 C   0  0  0  0  0  0  0  0  0  0  0  0
   -0.5256   -2.0626    2.3270 O   0  0  0  0  0  0  0  0  0  0  0  0
    1.2776    1.4082    2.0771 H   0  0  0  0  0  0  0  0  0  0  0  0
    1.6011   -0.2959    1.7296 H   0  0  0  0  0  0  0  0  0  0  0  0
    0.9306    0.1646    3.2864 H   0  0  0  0  0  0  0  0  0  0  0  0
   -1.1921    0.9414    2.1319 H   0  0  0  0  0  0  0  0  0  0  0  0
   -2.1061   -1.2453    1.4046 H   0  0  0  0  0  0  0  0  0  0  0  0
  1  2  1  0
  1  6  1  0
  1  7  1  0
  1  8  1  0
  2  3  1  0
  2  4  1  0
  2  9  1  0
  3 10  1  0
  3 11  1  0
  3 12  1  0
  4  5  1  0
  4 14  1  0
  5 15  1  0
 13 17  1  0
 16 17  1  0
 16 20  1  0
 16 21  1  0
 16 22  1  0
 17 18  1  0
 17 23  1  0
 18 19  2  0
 18 24  1  0
M  RAD  1   4   2
M  END
>  <reaction>  (13) 
rxn_425

>  <mol_properties>  (13) 
{"1": {"label": "*4", "atom_type": "Cs"}, "3": {"label": "*3", "atom_type": "Cs"}, "12": {"label": "*2", "atom_type": "H0"}, "16": {"label": "*1", "atom_type": "Cs"}, "17": {"label": "*0", "atom_type": "CO"}}

>  <type>  (13) 
unop_9

>  <geom_source>  (13) 
Heuristics

$$$$

     RDKit          3D

 24 22  0  0  0  0  0  0  0  0999 V2000
    0.6149    0.4569   -3.2805 C   0  0  0  0  0  0  0  0  0  0  0  0
    0.6149    0.4569   -1.7564 C   0  0  0  0  0  0  0  0  0  0  0  0
    0.6149    1.8757   -1.1965 C   0  0  0  0  0  0  0  0  0  0  0  0
   -0.5726   -0.3235   -1.1994 C   0  0  0  0  0  3  0  0  0  0  0  0
   -0.6114   -1.6747   -1.6111 O   0  0  0  0  0  0  0  0  0  0  0  0
    1.5046    0.9535   -3.6725 H   0  0  0  0  0  0  0  0  0  0  0  0
   -0.2614    0.9896   -3.6610 H   0  0  0  0  0  0  0  0  0  0  0  0
    0.5845   -0.5590   -3.6742 H   0  0  0  0  0  0  0  0  0  0  0  0
    1.5277   -0.0456   -1.4099 H   0  0  0  0  0  0  0  0  0  0  0  0
   -0.2884    2.4107   -1.5027 H   0  0  0  0  0  0  0  0  0  0  0  0
    1.4735    2.4404   -1.5634 H   0  0  0  0  0  0  0  0  0  0  0  0
    0.6522    1.8781   -0.1050 H   0  0  0  0  0  0  0  0  0  0  0  0
   -0.5788   -0.2376    0.1156 H   0  0  0  0  0  0  0  0  0  0  0  0
   -1.5038    0.1225   -1.5591 H   0  0  0  0  0  0  0  0  0  0  0  0
    0.1712   -2.1156   -1.2768 H   0  0  0  0  0  0  0  0  0  0  0  0
   -0.6986    1.2870    1.8973 C   0  0  0  0  0  0  0  0  0  0  0  0
   -0.5850   -0.1518    1.4284 C   0  0  0  0  0  0  0  0  0  0  0  0
    0.1104   -1.0679    2.3959 C   0  0  0  0  0  0  0  0  0  0  0  0
    0.5542   -0.7351    3.4596 O   0  0  0  0  0  0  0  0  0  0  0  0
   -1.2112    1.8946    1.1514 H   0  0  0  0  0  0  0  0  0  0  0  0
    0.2870    1.7169    2.0750 H   0  0  0  0  0  0  0  0  0  0  0  0
   -1.2538    1.3481    2.8333 H   0  0  0  0  0  0  0  0  0  0  0  0
   -1.5687   -0.5926    1.2281 H   0  0  0  0  0  0  0  0  0  0  0  0
    0.1967   -2.1227    2.0582 H   0  0  0  0  0  0  0  0  0  0  0  0
  1  2  1  0
  1  6  1  0
  1  7  1  0
  1  8  1  0
  2  3  1  0
  2  4  1  0
  2  9  1  0
  3 10  1  0
  3 11  1  0
  3 12  1  0
  4  5  1  0
  4 14  1  0
  5 15  1  0
 13 17  1  0
 16 17  1  0
 16 20  1  0
 16 21  1  0
 16 22  1  0
 17 18  1  0
 17 23  1  0
 18 19  2  0
 18 24  1  0
M  RAD  1   4   2
M  END
>  <reaction>  (14) 
rxn_425

>  <mol_properties>  (14) 
{"1": {"label": "*4", "atom_type": "Cs"}, "3": {"label": "*3", "atom_type": "Cs"}, "12": {"label": "*2", "atom_type": "H0"}, "16": {"label": "*1", "atom_type": "Cs"}, "17": {"label": "*0", "atom_type": "CO"}}

>  <type>  (14) 
unop_10

>  <geom_source>  (14) 
Heuristics

$$$$

     RDKit          3D

 24 22  0  0  0  0  0  0  0  0999 V2000
    1.2247    0.3530   -2.9384 C   0  0  0  0  0  0  0  0  0  0  0  0
    1.2247    0.3530   -1.4143 C   0  0  0  0  0  0  0  0  0  0  0  0
    1.2247    1.7717   -0.8544 C   0  0  0  0  0  0  0  0  0  0  0  0
    0.0372   -0.4274   -0.8574 C   0  0  0  0  0  3  0  0  0  0  0  0
   -0.0016   -1.7786   -1.2691 O   0  0  0  0  0  0  0  0  0  0  0  0
    2.1144    0.8496   -3.3305 H   0  0  0  0  0  0  0  0  0  0  0  0
    0.3485    0.8857   -3.3189 H   0  0  0  0  0  0  0  0  0  0  0  0
    1.1943   -0.6629   -3.3321 H   0  0  0  0  0  0  0  0  0  0  0  0
    2.1376   -0.1495   -1.0679 H   0  0  0  0  0  0  0  0  0  0  0  0
    0.3214    2.3068   -1.1607 H   0  0  0  0  0  0  0  0  0  0  0  0
    2.0833    2.3364   -1.2214 H   0  0  0  0  0  0  0  0  0  0  0  0
    1.2620    1.7742    0.2371 H   0  0  0  0  0  0  0  0  0  0  0  0
    0.0310   -0.3415    0.4576 H   0  0  0  0  0  0  0  0  0  0  0  0
   -0.8940    0.0186   -1.2171 H   0  0  0  0  0  0  0  0  0  0  0  0
    0.7811   -2.2195   -0.9348 H   0  0  0  0  0  0  0  0  0  0  0  0
   -0.5842   -1.4890    2.4115 C   0  0  0  0  0  0  0  0  0  0  0  0
    0.0248   -0.2557    1.7704 C   0  0  0  0  0  0  0  0  0  0  0  0
   -0.9509    0.8587    1.5157 C   0  0  0  0  0  0  0  0  0  0  0  0
   -2.1205    0.8219    1.7797 O   0  0  0  0  0  0  0  0  0  0  0  0
    0.1752   -2.2553    2.5679 H   0  0  0  0  0  0  0  0  0  0  0  0
   -1.3709   -1.9057    1.7827 H   0  0  0  0  0  0  0  0  0  0  0  0
   -1.0324   -1.2453    3.3747 H   0  0  0  0  0  0  0  0  0  0  0  0
    0.8308    0.1647    2.3834 H   0  0  0  0  0  0  0  0  0  0  0  0
   -0.5108    1.7643    1.0464 H   0  0  0  0  0  0  0  0  0  0  0  0
  1  2  1  0
  1  6  1  0
  1  7  1  0
  1  8  1  0
  2  3  1  0
  2  4  1  0
  2  9  1  0
  3 10  1  0
  3 11  1  0
  3 12  1  0
  4  5  1  0
  4 14  1  0
  5 15  1  0
 13 17  1  0
 16 17  1  0
 16 20  1  0
 16 21  1  0
 16 22  1  0
 17 18  1  0
 17 23  1  0
 18 19  2  0
 18 24  1  0
M  RAD  1   4   2
M  END
>  <reaction>  (15) 
rxn_425

>  <mol_properties>  (15) 
{"1": {"label": "*4", "atom_type": "Cs"}, "3": {"label": "*3", "atom_type": "Cs"}, "12": {"label": "*2", "atom_type": "H0"}, "16": {"label": "*1", "atom_type": "Cs"}, "17": {"label": "*0", "atom_type": "CO"}}

>  <type>  (15) 
unop_11

>  <geom_source>  (15) 
Heuristics

$$$$

     RDKit          3D

 24 22  0  0  0  0  0  0  0  0999 V2000
    0.5866    0.7261   -3.1545 C   0  0  0  0  0  0  0  0  0  0  0  0
    0.5866    0.7261   -1.6303 C   0  0  0  0  0  0  0  0  0  0  0  0
    0.5866    2.1449   -1.0704 C   0  0  0  0  0  0  0  0  0  0  0  0
   -0.6009   -0.0542   -1.0734 C   0  0  0  0  0  3  0  0  0  0  0  0
   -0.6397   -1.4055   -1.4851 O   0  0  0  0  0  0  0  0  0  0  0  0
    1.4764    1.2227   -3.5465 H   0  0  0  0  0  0  0  0  0  0  0  0
   -0.2896    1.2588   -3.5349 H   0  0  0  0  0  0  0  0  0  0  0  0
    0.5562   -0.2898   -3.5481 H   0  0  0  0  0  0  0  0  0  0  0  0
    1.4995    0.2236   -1.2839 H   0  0  0  0  0  0  0  0  0  0  0  0
   -0.3166    2.6799   -1.3767 H   0  0  0  0  0  0  0  0  0  0  0  0
    1.4452    2.7096   -1.4374 H   0  0  0  0  0  0  0  0  0  0  0  0
    0.6239    2.1473    0.0211 H   0  0  0  0  0  0  0  0  0  0  0  0
   -0.6070    0.0316    0.2416 H   0  0  0  0  0  0  0  0  0  0  0  0
   -1.5321    0.3917   -1.4331 H   0  0  0  0  0  0  0  0  0  0  0  0
    0.1430   -1.8463   -1.1508 H   0  0  0  0  0  0  0  0  0  0  0  0
    0.5456    0.9514    2.0688 C   0  0  0  0  0  0  0  0  0  0  0  0
   -0.6132    0.1174    1.5544 C   0  0  0  0  0  0  0  0  0  0  0  0
   -0.6472   -1.2905    2.0795 C   0  0  0  0  0  0  0  0  0  0  0  0
    0.1518   -1.7591    2.8417 O   0  0  0  0  0  0  0  0  0  0  0  0
    0.5102    1.9574    1.6504 H   0  0  0  0  0  0  0  0  0  0  0  0
    1.4999    0.4988    1.7997 H   0  0  0  0  0  0  0  0  0  0  0  0
    0.5169    1.0283    3.1556 H   0  0  0  0  0  0  0  0  0  0  0  0
   -1.5807    0.5698    1.8021 H   0  0  0  0  0  0  0  0  0  0  0  0
   -1.4933   -1.9060    1.7065 H   0  0  0  0  0  0  0  0  0  0  0  0
  1  2  1  0
  1  6  1  0
  1  7  1  0
  1  8  1  0
  2  3  1  0
  2  4  1  0
  2  9  1  0
  3 10  1  0
  3 11  1  0
  3 12  1  0
  4  5  1  0
  4 14  1  0
  5 15  1  0
 13 17  1  0
 16 17  1  0
 16 20  1  0
 16 21  1  0
 16 22  1  0
 17 18  1  0
 17 23  1  0
 18 19  2  0
 18 24  1  0
M  RAD  1   4   2
M  END
>  <reaction>  (16) 
rxn_425

>  <mol_properties>  (16) 
{"1": {"label": "*4", "atom_type": "Cs"}, "3": {"label": "*3", "atom_type": "Cs"}, "12": {"label": "*2", "atom_type": "H0"}, "16": {"label": "*1", "atom_type": "Cs"}, "17": {"label": "*0", "atom_type": "CO"}}

>  <type>  (16) 
unop_12

>  <geom_source>  (16) 
Heuristics

$$$$

     RDKit          3D

 24 22  0  0  0  0  0  0  0  0999 V2000
   -0.8349    0.3291   -1.8056 O   0  0  0  0  0  0  0  0  0  0  0  0
    3.7190    1.5782   -0.9936 O   0  0  0  0  0  1  0  0  0  0  0  0
   -1.6150    0.1702    0.4812 C   0  0  0  0  0  0  0  0  0  0  0  0
    2.0356    0.3321    0.1034 C   0  0  0  0  0  0  0  0  0  0  0  0
   -1.8216   -1.3465    0.4273 C   0  0  0  0  0  0  0  0  0  0  0  0
   -2.9230    0.9145    0.1875 C   0  0  0  0  0  0  0  0  0  0  0  0
    2.4571   -0.9222    0.8569 C   0  0  0  0  0  0  0  0  0  0  0  0
   -0.4974    0.6004   -0.4768 C   0  0  0  0  0  0  0  0  0  0  0  0
    2.9781    0.6088   -1.0277 C   0  0  0  0  0  0  0  0  0  0  0  0
   -1.2928    0.4336    1.5124 H   0  0  0  0  0  0  0  0  0  0  0  0
    2.0119    1.1940    0.8056 H   0  0  0  0  0  0  0  0  0  0  0  0
    0.7687    0.1495   -0.4052 H   0  0  0  0  0  0  0  0  0  0  0  0
    3.4744   -0.7924    1.2845 H   0  0  0  0  0  0  0  0  0  0  0  0
    1.7427   -1.1124    1.6849 H   0  0  0  0  0  0  0  0  0  0  0  0
    2.4520   -1.7994    0.1754 H   0  0  0  0  0  0  0  0  0  0  0  0
   -2.1756   -1.6626   -0.5775 H   0  0  0  0  0  0  0  0  0  0  0  0
   -0.8676   -1.8693    0.6531 H   0  0  0  0  0  0  0  0  0  0  0  0
   -2.5743   -1.6557    1.1837 H   0  0  0  0  0  0  0  0  0  0  0  0
   -3.3047    0.6608   -0.8247 H   0  0  0  0  0  0  0  0  0  0  0  0
   -2.7599    2.0118    0.2457 H   0  0  0  0  0  0  0  0  0  0  0  0
   -3.6944    0.6390    0.9380 H   0  0  0  0  0  0  0  0  0  0  0  0
   -0.2769    1.6834   -0.3606 H   0  0  0  0  0  0  0  0  0  0  0  0
    3.0174   -0.0674   -1.8754 H   0  0  0  0  0  0  0  0  0  0  0  0
   -0.0189   -0.0774   -2.1928 H   0  0  0  0  0  0  0  0  0  0  0  0
  1  8  1  0
  1 24  1  0
  2  9  1  0
  3  5  1  0
  3  6  1  0
  3  8  1  0
  3 10  1  0
  4  7  1  0
  4  9  2  3
  4 11  1  0
  5 16  1  0
  5 17  1  0
  5 18  1  0
  6 19  1  0
  6 20  1  0
  6 21  1  0
  7 13  1  0
  7 14  1  0
  7 15  1  0
  8 12  1  0
  8 22  1  0
  9 23  1  0
M  RAD  1   2   2
M  END
>  <reaction>  (17) 
rxn_425

>  <mol_properties>  (17) 
{"1": {"label": "*4", "atom_type": "Cs"}, "3": {"label": "*3", "atom_type": "Cs"}, "12": {"label": "*2", "atom_type": "H0"}, "16": {"label": "*1", "atom_type": "Cs"}, "17": {"label": "*0", "atom_type": "CO"}}

>  <type>  (17) 
unop_13

>  <geom_source>  (17) 
AutoTST

$$$$
