
     RDKit          3D

 15 15  0  0  0  0  0  0  0  0999 V2000
    2.2031   -0.2111   -0.1693 C   0  0  0  0  0  0  0  0  0  0  0  0
    0.7140   -0.0314   -0.0623 C   0  0  0  0  0  0  0  0  0  0  0  0
   -0.0114    0.5491   -1.0982 C   0  0  0  0  0  0  0  0  0  0  0  0
   -1.3882    0.6886   -1.0150 C   0  0  0  0  0  0  0  0  0  0  0  0
   -2.0661    0.2493    0.1118 C   0  0  0  0  0  0  0  0  0  0  0  0
   -1.3551   -0.3278    1.1528 C   0  0  0  0  0  0  0  0  0  0  0  0
    0.0216   -0.4648    1.0642 C   0  0  0  0  0  0  0  0  0  0  0  0
    2.6776   -0.1836    0.8122 H   0  0  0  0  0  0  0  0  0  0  0  0
    2.4446   -1.1749   -0.6249 H   0  0  0  0  0  0  0  0  0  0  0  0
    2.6532    0.5664   -0.7875 H   0  0  0  0  0  0  0  0  0  0  0  0
    0.5104    0.8989   -1.9819 H   0  0  0  0  0  0  0  0  0  0  0  0
   -1.9328    1.1452   -1.8322 H   0  0  0  0  0  0  0  0  0  0  0  0
   -3.1409    0.3597    0.1800 H   0  0  0  0  0  0  0  0  0  0  0  0
   -1.8736   -0.6702    2.0398 H   0  0  0  0  0  0  0  0  0  0  0  0
    0.5695   -0.9141    1.8849 H   0  0  0  0  0  0  0  0  0  0  0  0
  1  2  1  0
  1  8  1  0
  1  9  1  0
  1 10  1  0
  2  3  2  0
  2  7  1  0
  3  4  1  0
  3 11  1  0
  4  5  2  0
  4 12  1  0
  5  6  1  0
  5 13  1  0
  6  7  2  0
  6 14  1  0
  7 15  1  0
M  END
>  <reaction>  (1) 
rxn_260

>  <mol_properties>  (1) 
{"4": {"label": "donator", "atom_type": "Cd"}, "12": {"label": "d_hydrogen", "atom_type": "H0"}}

>  <type>  (1) 
r1h

$$$$

     RDKit          3D

  2  1  0  0  0  0  0  0  0  0999 V2000
    0.0000    0.0000    0.4855 O   0  0  0  0  0  1  0  0  0  0  0  0
    0.0000    0.0000   -0.4855 H   0  0  0  0  0  0  0  0  0  0  0  0
  1  2  1  0
M  RAD  1   1   2
M  END
>  <reaction>  (2) 
rxn_260

>  <mol_properties>  (2) 
{"0": {"label": "acceptor", "atom_type": "O2s"}}

>  <type>  (2) 
r2

$$$$

     RDKit          3D

  3  2  0  0  0  0  0  0  0  0999 V2000
   -0.0003    0.3867    0.0000 O   0  0  0  0  0  0  0  0  0  0  0  0
   -0.7617   -0.1940    0.0000 H   0  0  0  0  0  0  0  0  0  0  0  0
    0.7620   -0.1927    0.0000 H   0  0  0  0  0  0  0  0  0  0  0  0
  1  2  1  0
  1  3  1  0
M  END
>  <reaction>  (3) 
rxn_260

>  <mol_properties>  (3) 
{"0": {"label": "a_hydrogen", "atom_type": "H0"}, "1": {"label": "acceptor", "atom_type": "O2s"}}

>  <type>  (3) 
r2h

$$$$

     RDKit          3D

 17 16  0  0  0  0  0  0  0  0999 V2000
    0.0762   -0.0282   -3.0934 C   0  0  0  0  0  0  0  0  0  0  0  0
    0.0325    0.0053   -1.5906 C   0  0  0  0  0  0  0  0  0  0  0  0
    0.2724    1.1898   -0.8995 C   0  0  0  0  0  0  0  0  0  0  0  0
    0.2065    1.2376    0.4871 C   0  0  0  0  0  0  0  0  0  0  0  0
   -0.1118    0.0818    1.1654 C   0  0  0  0  0  0  0  0  0  0  0  0
   -0.3431   -1.1147    0.5236 C   0  0  0  0  0  0  0  0  0  0  0  0
   -0.2725   -1.1419   -0.8633 C   0  0  0  0  0  0  0  0  0  0  0  0
    0.7762    0.7095   -3.4865 H   0  0  0  0  0  0  0  0  0  0  0  0
    0.3748   -1.0108   -3.4597 H   0  0  0  0  0  0  0  0  0  0  0  0
   -0.9080    0.1949   -3.5126 H   0  0  0  0  0  0  0  0  0  0  0  0
    0.5176    2.0899   -1.4518 H   0  0  0  0  0  0  0  0  0  0  0  0
    0.3954    2.1606    1.0197 H   0  0  0  0  0  0  0  0  0  0  0  0
   -0.2111    0.1241    2.3916 H   0  0  0  0  0  0  0  0  0  0  0  0
   -0.5791   -2.0098    1.0844 H   0  0  0  0  0  0  0  0  0  0  0  0
   -0.4553   -2.0733   -1.3871 H   0  0  0  0  0  0  0  0  0  0  0  0
    0.0071    0.0924    3.6318 O   0  0  0  0  0  1  0  0  0  0  0  0
    0.9482   -0.1276    3.6280 H   0  0  0  0  0  0  0  0  0  0  0  0
  1  2  1  0
  1  8  1  0
  1  9  1  0
  1 10  1  0
  2  3  2  0
  2  7  1  0
  3  4  1  0
  3 11  1  0
  4  5  2  0
  4 12  1  0
  5  6  1  0
  5 13  1  0
  6  7  2  0
  6 14  1  0
  7 15  1  0
 16 17  1  0
M  RAD  1  16   2
M  END
>  <reaction>  (4) 
rxn_260

>  <mol_properties>  (4) 
{"3": {"label": "*0", "atom_type": "Cd"}, "4": {"label": "*1", "atom_type": "Cd"}, "12": {"label": "*2", "atom_type": "H0"}, "15": {"label": "*3", "atom_type": "O2s"}, "16": {"label": "*4", "atom_type": "H0"}}

>  <type>  (4) 
ts

$$$$

     RDKit          3D

 17 16  0  0  0  0  0  0  0  0999 V2000
    0.0453    0.0037   -3.1229 C   0  0  0  0  0  0  0  0  0  0  0  0
    0.0453    0.0037   -1.6192 C   0  0  0  0  0  0  0  0  0  0  0  0
    0.0453    1.1981   -0.9051 C   0  0  0  0  0  0  0  0  0  0  0  0
    0.0148    1.2014    0.4809 C   0  0  0  0  0  0  0  0  0  0  0  0
   -0.0147    0.0044    1.1799 C   0  0  0  0  0  0  0  0  0  0  0  0
   -0.0116   -1.1930    0.4809 C   0  0  0  0  0  0  0  0  0  0  0  0
    0.0189   -1.1903   -0.9051 C   0  0  0  0  0  3  0  0  0  0  0  0
    0.5368   -0.8852   -3.5196 H   0  0  0  0  0  0  0  0  0  0  0  0
   -0.9770    0.0150   -3.5097 H   0  0  0  0  0  0  0  0  0  0  0  0
    0.5563    0.8816   -3.5196 H   0  0  0  0  0  0  0  0  0  0  0  0
    0.0719    2.1392   -1.4429 H   0  0  0  0  0  0  0  0  0  0  0  0
    0.0175    2.1426    1.0166 H   0  0  0  0  0  0  0  0  0  0  0  0
   -0.0401    0.0047    2.4787 H   0  0  0  0  0  0  0  0  0  0  0  0
   -0.0297   -2.1340    1.0166 H   0  0  0  0  0  0  0  0  0  0  0  0
    0.0248   -2.1317   -1.4429 H   0  0  0  0  0  0  0  0  0  0  0  0
   -0.0626    0.0049    3.6276 O   0  0  0  0  0  0  0  0  0  0  0  0
   -0.8728   -0.4459    3.8667 H   0  0  0  0  0  0  0  0  0  0  0  0
  1  2  1  0
  1  8  1  0
  1  9  1  0
  1 10  1  0
  2  3  2  0
  2  7  1  0
  3  4  1  0
  3 11  1  0
  4  5  2  0
  4 12  1  0
  5  6  2  0
  6  7  1  0
  6 14  1  0
  7 15  1  0
 13 16  1  0
 16 17  1  0
M  RAD  1   7   2
M  END
>  <reaction>  (5) 
rxn_260

>  <mol_properties>  (5) 
{"3": {"label": "*0", "atom_type": "Cd"}, "4": {"label": "*1", "atom_type": "Cd"}, "12": {"label": "*2", "atom_type": "H0"}, "15": {"label": "*3", "atom_type": "O2s"}, "16": {"label": "*4", "atom_type": "H0"}}

>  <type>  (5) 
unop_1

>  <geom_source>  (5) 
Heuristics

$$$$

     RDKit          3D

 17 16  0  0  0  0  0  0  0  0999 V2000
    0.0420   -0.0079   -3.1230 C   0  0  0  0  0  0  0  0  0  0  0  0
    0.0420   -0.0079   -1.6192 C   0  0  0  0  0  0  0  0  0  0  0  0
    0.0420    1.1865   -0.9052 C   0  0  0  0  0  0  0  0  0  0  0  0
    0.0115    1.1898    0.4808 C   0  0  0  0  0  0  0  0  0  0  0  0
   -0.0180   -0.0072    1.1798 C   0  0  0  0  0  0  0  0  0  0  0  0
   -0.0149   -1.2046    0.4808 C   0  0  0  0  0  0  0  0  0  0  0  0
    0.0157   -1.2019   -0.9052 C   0  0  0  0  0  3  0  0  0  0  0  0
    0.5336   -0.8968   -3.5197 H   0  0  0  0  0  0  0  0  0  0  0  0
   -0.9802    0.0034   -3.5097 H   0  0  0  0  0  0  0  0  0  0  0  0
    0.5530    0.8700   -3.5197 H   0  0  0  0  0  0  0  0  0  0  0  0
    0.0686    2.1276   -1.4430 H   0  0  0  0  0  0  0  0  0  0  0  0
    0.0142    2.1310    1.0165 H   0  0  0  0  0  0  0  0  0  0  0  0
   -0.0434   -0.0069    2.4787 H   0  0  0  0  0  0  0  0  0  0  0  0
   -0.0330   -2.1456    1.0165 H   0  0  0  0  0  0  0  0  0  0  0  0
    0.0215   -2.1433   -1.4430 H   0  0  0  0  0  0  0  0  0  0  0  0
   -0.0658   -0.0067    3.6276 O   0  0  0  0  0  0  0  0  0  0  0  0
   -0.5216    0.7988    3.8733 H   0  0  0  0  0  0  0  0  0  0  0  0
  1  2  1  0
  1  8  1  0
  1  9  1  0
  1 10  1  0
  2  3  2  0
  2  7  1  0
  3  4  1  0
  3 11  1  0
  4  5  2  0
  4 12  1  0
  5  6  2  0
  6  7  1  0
  6 14  1  0
  7 15  1  0
 13 16  1  0
 16 17  1  0
M  RAD  1   7   2
M  END
>  <reaction>  (6) 
rxn_260

>  <mol_properties>  (6) 
{"3": {"label": "*0", "atom_type": "Cd"}, "4": {"label": "*1", "atom_type": "Cd"}, "12": {"label": "*2", "atom_type": "H0"}, "15": {"label": "*3", "atom_type": "O2s"}, "16": {"label": "*4", "atom_type": "H0"}}

>  <type>  (6) 
unop_2

>  <geom_source>  (6) 
Heuristics

$$$$

     RDKit          3D

 17 16  0  0  0  0  0  0  0  0999 V2000
    0.0422    0.0069   -3.1230 C   0  0  0  0  0  0  0  0  0  0  0  0
    0.0422    0.0069   -1.6192 C   0  0  0  0  0  0  0  0  0  0  0  0
    0.0422    1.2012   -0.9052 C   0  0  0  0  0  0  0  0  0  0  0  0
    0.0117    1.2046    0.4808 C   0  0  0  0  0  0  0  0  0  0  0  0
   -0.0178    0.0076    1.1798 C   0  0  0  0  0  0  0  0  0  0  0  0
   -0.0147   -1.1898    0.4808 C   0  0  0  0  0  0  0  0  0  0  0  0
    0.0158   -1.1871   -0.9052 C   0  0  0  0  0  3  0  0  0  0  0  0
    0.5338   -0.8820   -3.5197 H   0  0  0  0  0  0  0  0  0  0  0  0
   -0.9800    0.0182   -3.5097 H   0  0  0  0  0  0  0  0  0  0  0  0
    0.5532    0.8848   -3.5197 H   0  0  0  0  0  0  0  0  0  0  0  0
    0.0688    2.1423   -1.4430 H   0  0  0  0  0  0  0  0  0  0  0  0
    0.0144    2.1458    1.0165 H   0  0  0  0  0  0  0  0  0  0  0  0
   -0.0432    0.0079    2.4787 H   0  0  0  0  0  0  0  0  0  0  0  0
   -0.0328   -2.1308    1.0165 H   0  0  0  0  0  0  0  0  0  0  0  0
    0.0217   -2.1286   -1.4430 H   0  0  0  0  0  0  0  0  0  0  0  0
   -0.0656    0.0081    3.6276 O   0  0  0  0  0  0  0  0  0  0  0  0
   -0.5426   -0.7850    3.8732 H   0  0  0  0  0  0  0  0  0  0  0  0
  1  2  1  0
  1  8  1  0
  1  9  1  0
  1 10  1  0
  2  3  2  0
  2  7  1  0
  3  4  1  0
  3 11  1  0
  4  5  2  0
  4 12  1  0
  5  6  2  0
  6  7  1  0
  6 14  1  0
  7 15  1  0
 13 16  1  0
 16 17  1  0
M  RAD  1   7   2
M  END
>  <reaction>  (7) 
rxn_260

>  <mol_properties>  (7) 
{"3": {"label": "*0", "atom_type": "Cd"}, "4": {"label": "*1", "atom_type": "Cd"}, "12": {"label": "*2", "atom_type": "H0"}, "15": {"label": "*3", "atom_type": "O2s"}, "16": {"label": "*4", "atom_type": "H0"}}

>  <type>  (7) 
unop_3

>  <geom_source>  (7) 
Heuristics

$$$$

     RDKit          3D

 17 16  0  0  0  0  0  0  0  0999 V2000
    0.0304   -0.0046   -3.1232 C   0  0  0  0  0  0  0  0  0  0  0  0
    0.0304   -0.0046   -1.6195 C   0  0  0  0  0  0  0  0  0  0  0  0
    0.0304    1.1897   -0.9054 C   0  0  0  0  0  0  0  0  0  0  0  0
   -0.0001    1.1931    0.4806 C   0  0  0  0  0  0  0  0  0  0  0  0
   -0.0296   -0.0039    1.1796 C   0  0  0  0  0  0  0  0  0  0  0  0
   -0.0265   -1.2013    0.4806 C   0  0  0  0  0  0  0  0  0  0  0  0
    0.0040   -1.1986   -0.9054 C   0  0  0  0  0  3  0  0  0  0  0  0
    0.5219   -0.8935   -3.5199 H   0  0  0  0  0  0  0  0  0  0  0  0
   -0.9918    0.0067   -3.5099 H   0  0  0  0  0  0  0  0  0  0  0  0
    0.5414    0.8733   -3.5199 H   0  0  0  0  0  0  0  0  0  0  0  0
    0.0570    2.1308   -1.4432 H   0  0  0  0  0  0  0  0  0  0  0  0
    0.0026    2.1343    1.0163 H   0  0  0  0  0  0  0  0  0  0  0  0
   -0.0550   -0.0036    2.4784 H   0  0  0  0  0  0  0  0  0  0  0  0
   -0.0446   -2.1423    1.0163 H   0  0  0  0  0  0  0  0  0  0  0  0
    0.0099   -2.1401   -1.4432 H   0  0  0  0  0  0  0  0  0  0  0  0
   -0.0774   -0.0034    3.6273 O   0  0  0  0  0  0  0  0  0  0  0  0
    0.7229    0.4476    3.8977 H   0  0  0  0  0  0  0  0  0  0  0  0
  1  2  1  0
  1  8  1  0
  1  9  1  0
  1 10  1  0
  2  3  2  0
  2  7  1  0
  3  4  1  0
  3 11  1  0
  4  5  2  0
  4 12  1  0
  5  6  2  0
  6  7  1  0
  6 14  1  0
  7 15  1  0
 13 16  1  0
 16 17  1  0
M  RAD  1   7   2
M  END
>  <reaction>  (8) 
rxn_260

>  <mol_properties>  (8) 
{"3": {"label": "*0", "atom_type": "Cd"}, "4": {"label": "*1", "atom_type": "Cd"}, "12": {"label": "*2", "atom_type": "H0"}, "15": {"label": "*3", "atom_type": "O2s"}, "16": {"label": "*4", "atom_type": "H0"}}

>  <type>  (8) 
unop_4

>  <geom_source>  (8) 
Heuristics

$$$$

     RDKit          3D

 17 16  0  0  0  0  0  0  0  0999 V2000
    0.0379    0.0081   -3.1230 C   0  0  0  0  0  0  0  0  0  0  0  0
    0.0379    0.0081   -1.6193 C   0  0  0  0  0  0  0  0  0  0  0  0
    0.0379    1.2024   -0.9053 C   0  0  0  0  0  0  0  0  0  0  0  0
    0.0075    1.2058    0.4807 C   0  0  0  0  0  0  0  0  0  0  0  0
   -0.0221    0.0088    1.1798 C   0  0  0  0  0  0  0  0  0  0  0  0
   -0.0189   -1.1886    0.4807 C   0  0  0  0  0  0  0  0  0  0  0  0
    0.0116   -1.1859   -0.9053 C   0  0  0  0  0  3  0  0  0  0  0  0
    0.5295   -0.8808   -3.5198 H   0  0  0  0  0  0  0  0  0  0  0  0
   -0.9843    0.0194   -3.5098 H   0  0  0  0  0  0  0  0  0  0  0  0
    0.5490    0.8860   -3.5198 H   0  0  0  0  0  0  0  0  0  0  0  0
    0.0646    2.1435   -1.4431 H   0  0  0  0  0  0  0  0  0  0  0  0
    0.0101    2.1470    1.0164 H   0  0  0  0  0  0  0  0  0  0  0  0
   -0.0474    0.0091    2.4786 H   0  0  0  0  0  0  0  0  0  0  0  0
   -0.0370   -2.1296    1.0164 H   0  0  0  0  0  0  0  0  0  0  0  0
    0.0175   -2.1274   -1.4431 H   0  0  0  0  0  0  0  0  0  0  0  0
   -0.0699    0.0093    3.6275 O   0  0  0  0  0  0  0  0  0  0  0  0
   -0.0871   -0.9136    3.8822 H   0  0  0  0  0  0  0  0  0  0  0  0
  1  2  1  0
  1  8  1  0
  1  9  1  0
  1 10  1  0
  2  3  2  0
  2  7  1  0
  3  4  1  0
  3 11  1  0
  4  5  2  0
  4 12  1  0
  5  6  2  0
  6  7  1  0
  6 14  1  0
  7 15  1  0
 13 16  1  0
 16 17  1  0
M  RAD  1   7   2
M  END
>  <reaction>  (9) 
rxn_260

>  <mol_properties>  (9) 
{"3": {"label": "*0", "atom_type": "Cd"}, "4": {"label": "*1", "atom_type": "Cd"}, "12": {"label": "*2", "atom_type": "H0"}, "15": {"label": "*3", "atom_type": "O2s"}, "16": {"label": "*4", "atom_type": "H0"}}

>  <type>  (9) 
unop_5

>  <geom_source>  (9) 
Heuristics

$$$$

     RDKit          3D

 17 16  0  0  0  0  0  0  0  0999 V2000
    0.0293   -0.0003   -3.1232 C   0  0  0  0  0  0  0  0  0  0  0  0
    0.0293   -0.0003   -1.6195 C   0  0  0  0  0  0  0  0  0  0  0  0
    0.0293    1.1940   -0.9054 C   0  0  0  0  0  0  0  0  0  0  0  0
   -0.0012    1.1974    0.4806 C   0  0  0  0  0  0  0  0  0  0  0  0
   -0.0307    0.0004    1.1796 C   0  0  0  0  0  0  0  0  0  0  0  0
   -0.0276   -1.1970    0.4806 C   0  0  0  0  0  0  0  0  0  0  0  0
    0.0030   -1.1943   -0.9054 C   0  0  0  0  0  3  0  0  0  0  0  0
    0.5209   -0.8892   -3.5199 H   0  0  0  0  0  0  0  0  0  0  0  0
   -0.9929    0.0109   -3.5100 H   0  0  0  0  0  0  0  0  0  0  0  0
    0.5403    0.8776   -3.5199 H   0  0  0  0  0  0  0  0  0  0  0  0
    0.0559    2.1351   -1.4432 H   0  0  0  0  0  0  0  0  0  0  0  0
    0.0015    2.1386    1.0163 H   0  0  0  0  0  0  0  0  0  0  0  0
   -0.0561    0.0006    2.4784 H   0  0  0  0  0  0  0  0  0  0  0  0
   -0.0457   -2.1381    1.0163 H   0  0  0  0  0  0  0  0  0  0  0  0
    0.0088   -2.1358   -1.4432 H   0  0  0  0  0  0  0  0  0  0  0  0
   -0.0785    0.0009    3.6273 O   0  0  0  0  0  0  0  0  0  0  0  0
    0.8393   -0.0113    3.9001 H   0  0  0  0  0  0  0  0  0  0  0  0
  1  2  1  0
  1  8  1  0
  1  9  1  0
  1 10  1  0
  2  3  2  0
  2  7  1  0
  3  4  1  0
  3 11  1  0
  4  5  2  0
  4 12  1  0
  5  6  2  0
  6  7  1  0
  6 14  1  0
  7 15  1  0
 13 16  1  0
 16 17  1  0
M  RAD  1   7   2
M  END
>  <reaction>  (10) 
rxn_260

>  <mol_properties>  (10) 
{"3": {"label": "*0", "atom_type": "Cd"}, "4": {"label": "*1", "atom_type": "Cd"}, "12": {"label": "*2", "atom_type": "H0"}, "15": {"label": "*3", "atom_type": "O2s"}, "16": {"label": "*4", "atom_type": "H0"}}

>  <type>  (10) 
unop_6

>  <geom_source>  (10) 
Heuristics

$$$$

     RDKit          3D

 17 16  0  0  0  0  0  0  0  0999 V2000
    0.0305    0.0039   -3.1232 C   0  0  0  0  0  0  0  0  0  0  0  0
    0.0305    0.0039   -1.6195 C   0  0  0  0  0  0  0  0  0  0  0  0
    0.0305    1.1983   -0.9054 C   0  0  0  0  0  0  0  0  0  0  0  0
    0.0000    1.2016    0.4806 C   0  0  0  0  0  0  0  0  0  0  0  0
   -0.0295    0.0046    1.1796 C   0  0  0  0  0  0  0  0  0  0  0  0
   -0.0264   -1.1928    0.4806 C   0  0  0  0  0  0  0  0  0  0  0  0
    0.0042   -1.1901   -0.9054 C   0  0  0  0  0  3  0  0  0  0  0  0
    0.5221   -0.8850   -3.5199 H   0  0  0  0  0  0  0  0  0  0  0  0
   -0.9917    0.0152   -3.5099 H   0  0  0  0  0  0  0  0  0  0  0  0
    0.5415    0.8818   -3.5199 H   0  0  0  0  0  0  0  0  0  0  0  0
    0.0571    2.1394   -1.4432 H   0  0  0  0  0  0  0  0  0  0  0  0
    0.0027    2.1428    1.0163 H   0  0  0  0  0  0  0  0  0  0  0  0
   -0.0549    0.0049    2.4785 H   0  0  0  0  0  0  0  0  0  0  0  0
   -0.0445   -2.1338    1.0163 H   0  0  0  0  0  0  0  0  0  0  0  0
    0.0100   -2.1315   -1.4432 H   0  0  0  0  0  0  0  0  0  0  0  0
   -0.0773    0.0051    3.6273 O   0  0  0  0  0  0  0  0  0  0  0  0
    0.7107   -0.4669    3.8977 H   0  0  0  0  0  0  0  0  0  0  0  0
  1  2  1  0
  1  8  1  0
  1  9  1  0
  1 10  1  0
  2  3  2  0
  2  7  1  0
  3  4  1  0
  3 11  1  0
  4  5  2  0
  4 12  1  0
  5  6  2  0
  6  7  1  0
  6 14  1  0
  7 15  1  0
 13 16  1  0
 16 17  1  0
M  RAD  1   7   2
M  END
>  <reaction>  (11) 
rxn_260

>  <mol_properties>  (11) 
{"3": {"label": "*0", "atom_type": "Cd"}, "4": {"label": "*1", "atom_type": "Cd"}, "12": {"label": "*2", "atom_type": "H0"}, "15": {"label": "*3", "atom_type": "O2s"}, "16": {"label": "*4", "atom_type": "H0"}}

>  <type>  (11) 
unop_7

>  <geom_source>  (11) 
Heuristics

$$$$

     RDKit          3D

 17 16  0  0  0  0  0  0  0  0999 V2000
    0.0464   -0.0005   -3.1229 C   0  0  0  0  0  0  0  0  0  0  0  0
    0.0464   -0.0005   -1.6191 C   0  0  0  0  0  0  0  0  0  0  0  0
    0.0464    1.1938   -0.9051 C   0  0  0  0  0  0  0  0  0  0  0  0
    0.0159    1.1971    0.4809 C   0  0  0  0  0  0  0  0  0  0  0  0
   -0.0136    0.0001    1.1799 C   0  0  0  0  0  0  0  0  0  0  0  0
   -0.0105   -1.1972    0.4809 C   0  0  0  0  0  0  0  0  0  0  0  0
    0.0200   -1.1946   -0.9051 C   0  0  0  0  0  3  0  0  0  0  0  0
    0.5379   -0.8895   -3.5196 H   0  0  0  0  0  0  0  0  0  0  0  0
   -0.9759    0.0107   -3.5096 H   0  0  0  0  0  0  0  0  0  0  0  0
    0.5574    0.8774   -3.5196 H   0  0  0  0  0  0  0  0  0  0  0  0
    0.0730    2.1349   -1.4429 H   0  0  0  0  0  0  0  0  0  0  0  0
    0.0185    2.1384    1.0166 H   0  0  0  0  0  0  0  0  0  0  0  0
   -0.0390    0.0004    2.4788 H   0  0  0  0  0  0  0  0  0  0  0  0
   -0.0286   -2.1383    1.0166 H   0  0  0  0  0  0  0  0  0  0  0  0
    0.0259   -2.1360   -1.4429 H   0  0  0  0  0  0  0  0  0  0  0  0
   -0.0615    0.0007    3.6276 O   0  0  0  0  0  0  0  0  0  0  0  0
   -0.9893    0.0130    3.8643 H   0  0  0  0  0  0  0  0  0  0  0  0
  1  2  1  0
  1  8  1  0
  1  9  1  0
  1 10  1  0
  2  3  2  0
  2  7  1  0
  3  4  1  0
  3 11  1  0
  4  5  2  0
  4 12  1  0
  5  6  2  0
  6  7  1  0
  6 14  1  0
  7 15  1  0
 13 16  1  0
 16 17  1  0
M  RAD  1   7   2
M  END
>  <reaction>  (12) 
rxn_260

>  <mol_properties>  (12) 
{"3": {"label": "*0", "atom_type": "Cd"}, "4": {"label": "*1", "atom_type": "Cd"}, "12": {"label": "*2", "atom_type": "H0"}, "15": {"label": "*3", "atom_type": "O2s"}, "16": {"label": "*4", "atom_type": "H0"}}

>  <type>  (12) 
unop_8

>  <geom_source>  (12) 
Heuristics

$$$$

     RDKit          3D

 17 16  0  0  0  0  0  0  0  0999 V2000
    0.0335   -0.0077   -3.1231 C   0  0  0  0  0  0  0  0  0  0  0  0
    0.0335   -0.0077   -1.6194 C   0  0  0  0  0  0  0  0  0  0  0  0
    0.0335    1.1866   -0.9053 C   0  0  0  0  0  0  0  0  0  0  0  0
    0.0030    1.1899    0.4806 C   0  0  0  0  0  0  0  0  0  0  0  0
   -0.0265   -0.0071    1.1797 C   0  0  0  0  0  0  0  0  0  0  0  0
   -0.0234   -1.2045    0.4806 C   0  0  0  0  0  0  0  0  0  0  0  0
    0.0071   -1.2018   -0.9053 C   0  0  0  0  0  3  0  0  0  0  0  0
    0.5250   -0.8967   -3.5199 H   0  0  0  0  0  0  0  0  0  0  0  0
   -0.9888    0.0035   -3.5099 H   0  0  0  0  0  0  0  0  0  0  0  0
    0.5445    0.8701   -3.5199 H   0  0  0  0  0  0  0  0  0  0  0  0
    0.0601    2.1277   -1.4432 H   0  0  0  0  0  0  0  0  0  0  0  0
    0.0057    2.1311    1.0164 H   0  0  0  0  0  0  0  0  0  0  0  0
   -0.0519   -0.0068    2.4785 H   0  0  0  0  0  0  0  0  0  0  0  0
   -0.0415   -2.1455    1.0164 H   0  0  0  0  0  0  0  0  0  0  0  0
    0.0130   -2.1432   -1.4432 H   0  0  0  0  0  0  0  0  0  0  0  0
   -0.0744   -0.0066    3.6274 O   0  0  0  0  0  0  0  0  0  0  0  0
    0.3927    0.7867    3.8912 H   0  0  0  0  0  0  0  0  0  0  0  0
  1  2  1  0
  1  8  1  0
  1  9  1  0
  1 10  1  0
  2  3  2  0
  2  7  1  0
  3  4  1  0
  3 11  1  0
  4  5  2  0
  4 12  1  0
  5  6  2  0
  6  7  1  0
  6 14  1  0
  7 15  1  0
 13 16  1  0
 16 17  1  0
M  RAD  1   7   2
M  END
>  <reaction>  (13) 
rxn_260

>  <mol_properties>  (13) 
{"3": {"label": "*0", "atom_type": "Cd"}, "4": {"label": "*1", "atom_type": "Cd"}, "12": {"label": "*2", "atom_type": "H0"}, "15": {"label": "*3", "atom_type": "O2s"}, "16": {"label": "*4", "atom_type": "H0"}}

>  <type>  (13) 
unop_9

>  <geom_source>  (13) 
Heuristics

$$$$

     RDKit          3D

 17 16  0  0  0  0  0  0  0  0999 V2000
    0.0452   -0.0048   -3.1229 C   0  0  0  0  0  0  0  0  0  0  0  0
    0.0452   -0.0048   -1.6192 C   0  0  0  0  0  0  0  0  0  0  0  0
    0.0452    1.1895   -0.9051 C   0  0  0  0  0  0  0  0  0  0  0  0
    0.0147    1.1929    0.4809 C   0  0  0  0  0  0  0  0  0  0  0  0
   -0.0148   -0.0041    1.1799 C   0  0  0  0  0  0  0  0  0  0  0  0
   -0.0117   -1.2015    0.4809 C   0  0  0  0  0  0  0  0  0  0  0  0
    0.0188   -1.1988   -0.9051 C   0  0  0  0  0  3  0  0  0  0  0  0
    0.5367   -0.8937   -3.5196 H   0  0  0  0  0  0  0  0  0  0  0  0
   -0.9771    0.0065   -3.5097 H   0  0  0  0  0  0  0  0  0  0  0  0
    0.5562    0.8731   -3.5196 H   0  0  0  0  0  0  0  0  0  0  0  0
    0.0718    2.1306   -1.4429 H   0  0  0  0  0  0  0  0  0  0  0  0
    0.0173    2.1341    1.0166 H   0  0  0  0  0  0  0  0  0  0  0  0
   -0.0402   -0.0038    2.4787 H   0  0  0  0  0  0  0  0  0  0  0  0
   -0.0298   -2.1425    1.0166 H   0  0  0  0  0  0  0  0  0  0  0  0
    0.0247   -2.1403   -1.4429 H   0  0  0  0  0  0  0  0  0  0  0  0
   -0.0627   -0.0036    3.6276 O   0  0  0  0  0  0  0  0  0  0  0  0
   -0.8607    0.4686    3.8668 H   0  0  0  0  0  0  0  0  0  0  0  0
  1  2  1  0
  1  8  1  0
  1  9  1  0
  1 10  1  0
  2  3  2  0
  2  7  1  0
  3  4  1  0
  3 11  1  0
  4  5  2  0
  4 12  1  0
  5  6  2  0
  6  7  1  0
  6 14  1  0
  7 15  1  0
 13 16  1  0
 16 17  1  0
M  RAD  1   7   2
M  END
>  <reaction>  (14) 
rxn_260

>  <mol_properties>  (14) 
{"3": {"label": "*0", "atom_type": "Cd"}, "4": {"label": "*1", "atom_type": "Cd"}, "12": {"label": "*2", "atom_type": "H0"}, "15": {"label": "*3", "atom_type": "O2s"}, "16": {"label": "*4", "atom_type": "H0"}}

>  <type>  (14) 
unop_10

>  <geom_source>  (14) 
Heuristics

$$$$

     RDKit          3D

 17 16  0  0  0  0  0  0  0  0999 V2000
    0.0337    0.0070   -3.1231 C   0  0  0  0  0  0  0  0  0  0  0  0
    0.0337    0.0070   -1.6194 C   0  0  0  0  0  0  0  0  0  0  0  0
    0.0337    1.2013   -0.9053 C   0  0  0  0  0  0  0  0  0  0  0  0
    0.0032    1.2047    0.4806 C   0  0  0  0  0  0  0  0  0  0  0  0
   -0.0263    0.0077    1.1797 C   0  0  0  0  0  0  0  0  0  0  0  0
   -0.0232   -1.1897    0.4806 C   0  0  0  0  0  0  0  0  0  0  0  0
    0.0073   -1.1870   -0.9053 C   0  0  0  0  0  3  0  0  0  0  0  0
    0.5252   -0.8819   -3.5199 H   0  0  0  0  0  0  0  0  0  0  0  0
   -0.9886    0.0183   -3.5099 H   0  0  0  0  0  0  0  0  0  0  0  0
    0.5447    0.8849   -3.5199 H   0  0  0  0  0  0  0  0  0  0  0  0
    0.0603    2.1424   -1.4432 H   0  0  0  0  0  0  0  0  0  0  0  0
    0.0059    2.1459    1.0164 H   0  0  0  0  0  0  0  0  0  0  0  0
   -0.0517    0.0080    2.4785 H   0  0  0  0  0  0  0  0  0  0  0  0
   -0.0413   -2.1307    1.0164 H   0  0  0  0  0  0  0  0  0  0  0  0
    0.0132   -2.1285   -1.4432 H   0  0  0  0  0  0  0  0  0  0  0  0
   -0.0742    0.0082    3.6274 O   0  0  0  0  0  0  0  0  0  0  0  0
    0.3717   -0.7972    3.8911 H   0  0  0  0  0  0  0  0  0  0  0  0
  1  2  1  0
  1  8  1  0
  1  9  1  0
  1 10  1  0
  2  3  2  0
  2  7  1  0
  3  4  1  0
  3 11  1  0
  4  5  2  0
  4 12  1  0
  5  6  2  0
  6  7  1  0
  6 14  1  0
  7 15  1  0
 13 16  1  0
 16 17  1  0
M  RAD  1   7   2
M  END
>  <reaction>  (15) 
rxn_260

>  <mol_properties>  (15) 
{"3": {"label": "*0", "atom_type": "Cd"}, "4": {"label": "*1", "atom_type": "Cd"}, "12": {"label": "*2", "atom_type": "H0"}, "15": {"label": "*3", "atom_type": "O2s"}, "16": {"label": "*4", "atom_type": "H0"}}

>  <type>  (15) 
unop_11

>  <geom_source>  (15) 
Heuristics

$$$$

     RDKit          3D

 17 16  0  0  0  0  0  0  0  0999 V2000
    0.0377   -0.0089   -3.1230 C   0  0  0  0  0  0  0  0  0  0  0  0
    0.0377   -0.0089   -1.6193 C   0  0  0  0  0  0  0  0  0  0  0  0
    0.0377    1.1854   -0.9053 C   0  0  0  0  0  0  0  0  0  0  0  0
    0.0073    1.1887    0.4807 C   0  0  0  0  0  0  0  0  0  0  0  0
   -0.0223   -0.0083    1.1798 C   0  0  0  0  0  0  0  0  0  0  0  0
   -0.0191   -1.2057    0.4807 C   0  0  0  0  0  0  0  0  0  0  0  0
    0.0114   -1.2030   -0.9053 C   0  0  0  0  0  3  0  0  0  0  0  0
    0.5293   -0.8979   -3.5198 H   0  0  0  0  0  0  0  0  0  0  0  0
   -0.9845    0.0023   -3.5098 H   0  0  0  0  0  0  0  0  0  0  0  0
    0.5487    0.8689   -3.5198 H   0  0  0  0  0  0  0  0  0  0  0  0
    0.0643    2.1265   -1.4431 H   0  0  0  0  0  0  0  0  0  0  0  0
    0.0099    2.1299    1.0164 H   0  0  0  0  0  0  0  0  0  0  0  0
   -0.0477   -0.0080    2.4786 H   0  0  0  0  0  0  0  0  0  0  0  0
   -0.0373   -2.1467    1.0164 H   0  0  0  0  0  0  0  0  0  0  0  0
    0.0172   -2.1444   -1.4431 H   0  0  0  0  0  0  0  0  0  0  0  0
   -0.0701   -0.0078    3.6275 O   0  0  0  0  0  0  0  0  0  0  0  0
   -0.0629    0.9153    3.8822 H   0  0  0  0  0  0  0  0  0  0  0  0
  1  2  1  0
  1  8  1  0
  1  9  1  0
  1 10  1  0
  2  3  2  0
  2  7  1  0
  3  4  1  0
  3 11  1  0
  4  5  2  0
  4 12  1  0
  5  6  2  0
  6  7  1  0
  6 14  1  0
  7 15  1  0
 13 16  1  0
 16 17  1  0
M  RAD  1   7   2
M  END
>  <reaction>  (16) 
rxn_260

>  <mol_properties>  (16) 
{"3": {"label": "*0", "atom_type": "Cd"}, "4": {"label": "*1", "atom_type": "Cd"}, "12": {"label": "*2", "atom_type": "H0"}, "15": {"label": "*3", "atom_type": "O2s"}, "16": {"label": "*4", "atom_type": "H0"}}

>  <type>  (16) 
unop_12

>  <geom_source>  (16) 
Heuristics

$$$$

     RDKit          3D

 17 16  0  0  0  0  0  0  0  0999 V2000
   -2.9167    0.5498   -0.9695 O   0  0  0  0  0  0  0  0  0  0  0  0
    2.5388    0.1949   -0.3732 C   0  0  0  0  0  0  0  0  0  0  0  0
    1.1167   -0.0885    0.0100 C   0  0  0  0  0  0  0  0  0  0  0  0
    0.5550    0.5187    1.1454 C   0  0  0  0  0  0  0  0  0  0  0  0
    0.3152   -0.9094   -0.8004 C   0  0  0  0  0  3  0  0  0  0  0  0
   -0.7823    0.2823    1.4803 C   0  0  0  0  0  0  0  0  0  0  0  0
   -1.0216   -1.1426   -0.4611 C   0  0  0  0  0  0  0  0  0  0  0  0
   -1.5687   -0.5481    0.6784 C   0  0  0  0  0  0  0  0  0  0  0  0
    2.5725    1.0874   -1.0323 H   0  0  0  0  0  0  0  0  0  0  0  0
    2.9791   -0.6708   -0.9124 H   0  0  0  0  0  0  0  0  0  0  0  0
    3.1569    0.3874    0.5295 H   0  0  0  0  0  0  0  0  0  0  0  0
    1.1512    1.1726    1.7699 H   0  0  0  0  0  0  0  0  0  0  0  0
    0.7245   -1.3682   -1.6920 H   0  0  0  0  0  0  0  0  0  0  0  0
   -1.2123    0.7448    2.3586 H   0  0  0  0  0  0  0  0  0  0  0  0
   -1.6364   -1.7804   -1.0819 H   0  0  0  0  0  0  0  0  0  0  0  0
   -3.3823    1.4094   -0.8112 H   0  0  0  0  0  0  0  0  0  0  0  0
   -2.5896    0.1606    0.1619 H   0  0  0  0  0  0  0  0  0  0  0  0
  1 16  1  0
  1 17  1  0
  2  3  1  0
  2  9  1  0
  2 10  1  0
  2 11  1  0
  3  4  2  0
  3  5  1  0
  4  6  1  0
  4 12  1  0
  5  7  1  0
  5 13  1  0
  6  8  2  0
  6 14  1  0
  7  8  2  0
  7 15  1  0
M  RAD  1   5   2
M  END
>  <reaction>  (17) 
rxn_260

>  <mol_properties>  (17) 
{"3": {"label": "*0", "atom_type": "Cd"}, "4": {"label": "*1", "atom_type": "Cd"}, "12": {"label": "*2", "atom_type": "H0"}, "15": {"label": "*3", "atom_type": "O2s"}, "16": {"label": "*4", "atom_type": "H0"}}

>  <type>  (17) 
unop_13

>  <geom_source>  (17) 
AutoTST

$$$$
