
     RDKit          3D

 13 12  0  0  0  0  0  0  0  0999 V2000
    3.0977   -0.3549   -0.5105 C   0  0  0  0  0  0  0  0  0  0  0  0
    2.0556    0.4221   -0.2627 C   0  0  0  0  0  0  0  0  0  0  0  0
    0.6313   -0.0354   -0.2366 C   0  0  0  0  0  0  0  0  0  0  0  0
   -0.2567    0.6038   -1.2694 C   0  0  0  0  0  0  0  0  0  0  0  0
    0.1459    1.3456   -2.2891 C   0  0  0  0  0  0  0  0  0  0  0  0
    4.1081    0.0344   -0.5074 H   0  0  0  0  0  0  0  0  0  0  0  0
    2.9777   -1.4116   -0.7243 H   0  0  0  0  0  0  0  0  0  0  0  0
    2.2171    1.4781   -0.0618 H   0  0  0  0  0  0  0  0  0  0  0  0
    0.5865   -1.1233   -0.3540 H   0  0  0  0  0  0  0  0  0  0  0  0
    0.2065    0.1743    0.7521 H   0  0  0  0  0  0  0  0  0  0  0  0
   -1.3190    0.4126   -1.1445 H   0  0  0  0  0  0  0  0  0  0  0  0
    1.1948    1.5564   -2.4628 H   0  0  0  0  0  0  0  0  0  0  0  0
   -0.5644    1.7621   -2.9918 H   0  0  0  0  0  0  0  0  0  0  0  0
  1  2  2  3
  1  6  1  0
  1  7  1  0
  2  3  1  0
  2  8  1  0
  3  4  1  0
  3  9  1  0
  3 10  1  0
  4  5  2  3
  4 11  1  0
  5 12  1  0
  5 13  1  0
M  END
>  <reaction>  (1) 
rxn_748

>  <mol_properties>  (1) 
{"2": {"label": "donator", "atom_type": "Cs"}, "8": {"label": "d_hydrogen", "atom_type": "H0"}}

>  <type>  (1) 
r1h

$$$$

     RDKit          3D

 18 19  0  0  0  0  0  0  0  0999 V2000
   -0.2352   -0.0323    1.4420 C   0  0  0  0  0  3  0  0  0  0  0  0
   -0.1734   -1.1359    0.4256 C   0  0  0  0  0  0  0  0  0  0  0  0
   -1.2562   -0.6812   -0.5734 C   0  0  0  0  0  0  0  0  0  0  0  0
   -1.1576    0.8706   -0.5226 C   0  0  0  0  0  0  0  0  0  0  0  0
   -0.0301    1.1185    0.4994 C   0  0  0  0  0  0  0  0  0  0  0  0
    1.3075    0.7028   -0.1632 C   0  0  0  0  0  0  0  0  0  0  0  0
    1.2087   -0.8504   -0.2141 C   0  0  0  0  0  0  0  0  0  0  0  0
    0.1290   -0.0888    2.4599 H   0  0  0  0  0  0  0  0  0  0  0  0
   -0.2924   -2.1557    0.7848 H   0  0  0  0  0  0  0  0  0  0  0  0
   -2.2417   -1.0206   -0.2534 H   0  0  0  0  0  0  0  0  0  0  0  0
   -1.0769   -1.0814   -1.5727 H   0  0  0  0  0  0  0  0  0  0  0  0
   -0.9249    1.3092   -1.4944 H   0  0  0  0  0  0  0  0  0  0  0  0
   -2.0935    1.3103   -0.1770 H   0  0  0  0  0  0  0  0  0  0  0  0
   -0.0206    2.1196    0.9249 H   0  0  0  0  0  0  0  0  0  0  0  0
    1.4248    1.1518   -1.1514 H   0  0  0  0  0  0  0  0  0  0  0  0
    2.1542    1.0215    0.4460 H   0  0  0  0  0  0  0  0  0  0  0  0
    1.2724   -1.2452   -1.2300 H   0  0  0  0  0  0  0  0  0  0  0  0
    2.0058   -1.3127    0.3695 H   0  0  0  0  0  0  0  0  0  0  0  0
  1  2  1  0
  1  5  1  0
  1  8  1  0
  2  3  1  0
  2  7  1  0
  2  9  1  0
  3  4  1  0
  3 10  1  0
  3 11  1  0
  4  5  1  0
  4 12  1  0
  4 13  1  0
  5  6  1  0
  5 14  1  0
  6  7  1  0
  6 15  1  0
  6 16  1  0
  7 17  1  0
  7 18  1  0
M  RAD  1   1   2
M  END
>  <reaction>  (2) 
rxn_748

>  <mol_properties>  (2) 
{"0": {"label": "acceptor", "atom_type": "Cs"}}

>  <type>  (2) 
r2

$$$$

     RDKit          3D

 19 20  0  0  0  0  0  0  0  0999 V2000
    1.1087   -0.4716   -0.9619 C   0  0  0  0  0  0  0  0  0  0  0  0
    0.9355    1.0407   -0.6470 C   0  0  0  0  0  0  0  0  0  0  0  0
   -0.0085    1.0377    0.5657 C   0  0  0  0  0  0  0  0  0  0  0  0
   -1.4093    0.6181    0.0927 C   0  0  0  0  0  0  0  0  0  0  0  0
   -1.2361   -0.8942   -0.2222 C   0  0  0  0  0  0  0  0  0  0  0  0
    0.2422   -1.1516    0.1099 C   0  0  0  0  0  0  0  0  0  0  0  0
    0.4537   -0.2211    1.3118 C   0  0  0  0  0  0  0  0  0  0  0  0
    2.1524   -0.7752   -0.8653 H   0  0  0  0  0  0  0  0  0  0  0  0
    0.7855   -0.7316   -1.9710 H   0  0  0  0  0  0  0  0  0  0  0  0
    1.8918    1.5001   -0.3916 H   0  0  0  0  0  0  0  0  0  0  0  0
    0.5184    1.6005   -1.4855 H   0  0  0  0  0  0  0  0  0  0  0  0
    0.0038    1.9661    1.1351 H   0  0  0  0  0  0  0  0  0  0  0  0
   -1.7351    1.1944   -0.7746 H   0  0  0  0  0  0  0  0  0  0  0  0
   -2.1465    0.7723    0.8824 H   0  0  0  0  0  0  0  0  0  0  0  0
   -1.4680   -1.1377   -1.2601 H   0  0  0  0  0  0  0  0  0  0  0  0
   -1.8859   -1.5030    0.4087 H   0  0  0  0  0  0  0  0  0  0  0  0
    0.4812   -2.2025    0.2673 H   0  0  0  0  0  0  0  0  0  0  0  0
    1.4942   -0.1701    1.6391 H   0  0  0  0  0  0  0  0  0  0  0  0
   -0.1779   -0.4714    2.1666 H   0  0  0  0  0  0  0  0  0  0  0  0
  1  2  1  0
  1  6  1  0
  1  8  1  0
  1  9  1  0
  2  3  1  0
  2 10  1  0
  2 11  1  0
  3  4  1  0
  3  7  1  0
  3 12  1  0
  4  5  1  0
  4 13  1  0
  4 14  1  0
  5  6  1  0
  5 15  1  0
  5 16  1  0
  6  7  1  0
  6 17  1  0
  7 18  1  0
  7 19  1  0
M  END
>  <reaction>  (3) 
rxn_748

>  <mol_properties>  (3) 
{"0": {"label": "a_hydrogen", "atom_type": "H0"}, "1": {"label": "acceptor", "atom_type": "Cs"}}

>  <type>  (3) 
r2h

$$$$

     RDKit          3D

 31 31  0  0  0  0  0  0  0  0999 V2000
    1.9601   -2.8035   -1.1834 C   0  0  0  0  0  0  0  0  0  0  0  0
    1.4885   -2.0797   -0.1747 C   0  0  0  0  0  0  0  0  0  0  0  0
    0.0716   -2.0183    0.2282 C   0  0  0  0  0  0  0  0  0  0  0  0
   -0.2584   -1.9621    1.6681 C   0  0  0  0  0  0  0  0  0  0  0  0
    0.5951   -1.8919    2.6845 C   0  0  0  0  0  0  0  0  0  0  0  0
    3.0056   -2.7713   -1.4621 H   0  0  0  0  0  0  0  0  0  0  0  0
    1.3157   -3.4575   -1.7610 H   0  0  0  0  0  0  0  0  0  0  0  0
    2.1753   -1.4379    0.3706 H   0  0  0  0  0  0  0  0  0  0  0  0
   -0.3671   -0.9556   -0.2675 H   0  0  0  0  0  0  0  0  0  0  0  0
   -0.5406   -2.7522   -0.3000 H   0  0  0  0  0  0  0  0  0  0  0  0
   -1.3227   -1.9520    1.8887 H   0  0  0  0  0  0  0  0  0  0  0  0
    1.6687   -1.9160    2.5420 H   0  0  0  0  0  0  0  0  0  0  0  0
    0.2397   -1.8227    3.7044 H   0  0  0  0  0  0  0  0  0  0  0  0
   -0.7623    0.2739   -1.0194 C   0  0  0  0  0  3  0  0  0  0  0  0
    0.4163    1.2248   -0.9883 C   0  0  1  0  0  0  0  0  0  0  0  0
   -0.2183    2.4738   -1.6390 C   0  0  0  0  0  0  0  0  0  0  0  0
   -1.6916    2.4247   -1.1370 C   0  0  0  0  0  0  0  0  0  0  0  0
   -1.7161    1.1618   -0.2469 C   0  0  2  0  0  0  0  0  0  0  0  0
   -0.9083    1.4628    1.0275 C   0  0  0  0  0  0  0  0  0  0  0  0
    0.5592    1.4904    0.5201 C   0  0  0  0  0  0  0  0  0  0  0  0
   -1.0791   -0.1438   -1.9734 H   0  0  0  0  0  0  0  0  0  0  0  0
    1.3291    0.8842   -1.4731 H   0  0  0  0  0  0  0  0  0  0  0  0
   -0.1723    2.4088   -2.7269 H   0  0  0  0  0  0  0  0  0  0  0  0
    0.2980    3.3886   -1.3422 H   0  0  0  0  0  0  0  0  0  0  0  0
   -1.9778    3.3172   -0.5776 H   0  0  0  0  0  0  0  0  0  0  0  0
   -2.3864    2.3229   -1.9719 H   0  0  0  0  0  0  0  0  0  0  0  0
   -2.7153    0.7709   -0.0640 H   0  0  0  0  0  0  0  0  0  0  0  0
   -1.2144    2.4058    1.4827 H   0  0  0  0  0  0  0  0  0  0  0  0
   -1.0429    0.6773    1.7712 H   0  0  0  0  0  0  0  0  0  0  0  0
    1.0577    2.4402    0.7178 H   0  0  0  0  0  0  0  0  0  0  0  0
    1.1444    0.7048    1.0008 H   0  0  0  0  0  0  0  0  0  0  0  0
  1  2  2  3
  1  6  1  0
  1  7  1  0
  2  3  1  0
  2  8  1  0
  3  4  1  0
  3  9  1  0
  3 10  1  0
  4  5  2  3
  4 11  1  0
  5 12  1  0
  5 13  1  0
 14 15  1  0
 14 18  1  0
 14 21  1  0
 15 16  1  0
 15 20  1  0
 15 22  1  6
 16 17  1  0
 16 23  1  0
 16 24  1  0
 17 18  1  0
 17 25  1  0
 17 26  1  0
 18 19  1  0
 18 27  1  1
 19 20  1  0
 19 28  1  0
 19 29  1  0
 20 30  1  0
 20 31  1  0
M  RAD  1  14   2
M  END
>  <reaction>  (4) 
rxn_748

>  <mol_properties>  (4) 
{"1": {"label": "*0", "atom_type": "Cd"}, "2": {"label": "*1", "atom_type": "Cs"}, "8": {"label": "*2", "atom_type": "H0"}, "13": {"label": "*3", "atom_type": "Cs"}, "14": {"label": "*4", "atom_type": "Cs"}}

>  <type>  (4) 
ts

$$$$

     RDKit          3D

 31 31  0  0  0  0  0  0  0  0999 V2000
    0.2694   -2.7871   -0.7687 C   0  0  0  0  0  0  0  0  0  0  0  0
    0.2694   -2.7871    0.5545 C   0  0  0  0  0  0  0  0  0  0  0  0
    0.2694   -1.5613    1.4125 C   0  0  0  0  0  3  0  0  0  0  0  0
    1.4791   -1.4069    2.2937 C   0  0  0  0  0  0  0  0  0  0  0  0
    2.5903   -2.1226    2.2213 C   0  0  0  0  0  0  0  0  0  0  0  0
    0.2612   -3.7098   -1.3353 H   0  0  0  0  0  0  0  0  0  0  0  0
    0.2758   -1.8616   -1.3347 H   0  0  0  0  0  0  0  0  0  0  0  0
    0.2720   -3.7358    1.0850 H   0  0  0  0  0  0  0  0  0  0  0  0
    0.1493   -0.4893    0.6620 H   0  0  0  0  0  0  0  0  0  0  0  0
   -0.6186   -1.5748    2.0553 H   0  0  0  0  0  0  0  0  0  0  0  0
    1.4064   -0.6219    3.0414 H   0  0  0  0  0  0  0  0  0  0  0  0
    2.7157   -2.9095    1.4864 H   0  0  0  0  0  0  0  0  0  0  0  0
    3.4185   -1.9383    2.8936 H   0  0  0  0  0  0  0  0  0  0  0  0
    0.0296    0.5796   -0.0864 C   0  0  0  0  0  0  0  0  0  0  0  0
   -1.2178    1.4112    0.2412 C   0  0  0  0  0  0  0  0  0  0  0  0
   -0.7118    2.8394   -0.0162 C   0  0  0  0  0  0  0  0  0  0  0  0
    0.2534    2.6589   -1.2211 C   0  0  0  0  0  0  0  0  0  0  0  0
    0.1796    1.1500   -1.5031 C   0  0  0  0  0  0  0  0  0  0  0  0
   -1.1967    0.8337   -2.1095 C   0  0  0  0  0  0  0  0  0  0  0  0
   -2.1620    1.0141   -0.9046 C   0  0  0  0  0  0  0  0  0  0  0  0
    0.8796    0.8050    0.5608 H   0  0  0  0  0  0  0  0  0  0  0  0
   -1.6448    1.2677    1.2328 H   0  0  0  0  0  0  0  0  0  0  0  0
   -0.1820    3.2251    0.8564 H   0  0  0  0  0  0  0  0  0  0  0  0
   -1.5303    3.5280   -0.2314 H   0  0  0  0  0  0  0  0  0  0  0  0
   -0.0417    3.2498   -2.0895 H   0  0  0  0  0  0  0  0  0  0  0  0
    1.2703    2.9536   -0.9564 H   0  0  0  0  0  0  0  0  0  0  0  0
    1.0160    0.7704   -2.0885 H   0  0  0  0  0  0  0  0  0  0  0  0
   -1.4354    1.4956   -2.9434 H   0  0  0  0  0  0  0  0  0  0  0  0
   -1.2272   -0.1899   -2.4865 H   0  0  0  0  0  0  0  0  0  0  0  0
   -2.9240    1.7738   -1.0853 H   0  0  0  0  0  0  0  0  0  0  0  0
   -2.6795    0.0815   -0.6737 H   0  0  0  0  0  0  0  0  0  0  0  0
  1  2  2  3
  1  6  1  0
  1  7  1  0
  2  3  1  0
  2  8  1  0
  3  4  1  0
  3 10  1  0
  4  5  2  3
  4 11  1  0
  5 12  1  0
  5 13  1  0
  9 14  1  0
 14 15  1  0
 14 18  1  0
 14 21  1  0
 15 16  1  0
 15 20  1  0
 15 22  1  0
 16 17  1  0
 16 23  1  0
 16 24  1  0
 17 18  1  0
 17 25  1  0
 17 26  1  0
 18 19  1  0
 18 27  1  0
 19 20  1  0
 19 28  1  0
 19 29  1  0
 20 30  1  0
 20 31  1  0
M  RAD  1   3   2
M  END
>  <reaction>  (5) 
rxn_748

>  <mol_properties>  (5) 
{"1": {"label": "*0", "atom_type": "Cd"}, "2": {"label": "*1", "atom_type": "Cs"}, "8": {"label": "*2", "atom_type": "H0"}, "13": {"label": "*3", "atom_type": "Cs"}, "14": {"label": "*4", "atom_type": "Cs"}}

>  <type>  (5) 
unop_1

>  <geom_source>  (5) 
Heuristics

$$$$

     RDKit          3D

 31 31  0  0  0  0  0  0  0  0999 V2000
   -0.2710   -2.4585   -0.4171 C   0  0  0  0  0  0  0  0  0  0  0  0
   -0.2710   -2.4585    0.9061 C   0  0  0  0  0  0  0  0  0  0  0  0
   -0.2710   -1.2326    1.7641 C   0  0  0  0  0  3  0  0  0  0  0  0
    0.9387   -1.0783    2.6453 C   0  0  0  0  0  0  0  0  0  0  0  0
    2.0498   -1.7940    2.5729 C   0  0  0  0  0  0  0  0  0  0  0  0
   -0.2792   -3.3812   -0.9837 H   0  0  0  0  0  0  0  0  0  0  0  0
   -0.2647   -1.5330   -0.9831 H   0  0  0  0  0  0  0  0  0  0  0  0
   -0.2685   -3.4072    1.4366 H   0  0  0  0  0  0  0  0  0  0  0  0
   -0.3911   -0.1607    1.0136 H   0  0  0  0  0  0  0  0  0  0  0  0
   -1.1590   -1.2461    2.4069 H   0  0  0  0  0  0  0  0  0  0  0  0
    0.8660   -0.2933    3.3930 H   0  0  0  0  0  0  0  0  0  0  0  0
    2.1753   -2.5808    1.8380 H   0  0  0  0  0  0  0  0  0  0  0  0
    2.8780   -1.6097    3.2452 H   0  0  0  0  0  0  0  0  0  0  0  0
   -0.5109    0.9082    0.2652 C   0  0  0  0  0  0  0  0  0  0  0  0
   -1.3084    0.6596   -1.0221 C   0  0  0  0  0  0  0  0  0  0  0  0
   -1.5380    2.0940   -1.5237 C   0  0  0  0  0  0  0  0  0  0  0  0
   -0.2261    2.8227   -1.1186 C   0  0  0  0  0  0  0  0  0  0  0  0
    0.5908    1.7145   -0.4357 C   0  0  0  0  0  0  0  0  0  0  0  0
    1.0617    0.7223   -1.5107 C   0  0  0  0  0  0  0  0  0  0  0  0
   -0.2502   -0.0064   -1.9158 C   0  0  0  0  0  0  0  0  0  0  0  0
   -1.0623    1.4879    1.0083 H   0  0  0  0  0  0  0  0  0  0  0  0
   -2.2236    0.0787   -0.9163 H   0  0  0  0  0  0  0  0  0  0  0  0
   -2.4032    2.5418   -1.0320 H   0  0  0  0  0  0  0  0  0  0  0  0
   -1.7220    2.1241   -2.5987 H   0  0  0  0  0  0  0  0  0  0  0  0
    0.3010    3.2479   -1.9740 H   0  0  0  0  0  0  0  0  0  0  0  0
   -0.4294    3.6382   -0.4226 H   0  0  0  0  0  0  0  0  0  0  0  0
    1.3926    2.0874    0.2003 H   0  0  0  0  0  0  0  0  0  0  0  0
    1.5387    1.2293   -2.3508 H   0  0  0  0  0  0  0  0  0  0  0  0
    1.7885    0.0208   -1.0978 H   0  0  0  0  0  0  0  0  0  0  0  0
   -0.4844    0.1055   -2.9755 H   0  0  0  0  0  0  0  0  0  0  0  0
   -0.1853   -1.0756   -1.7073 H   0  0  0  0  0  0  0  0  0  0  0  0
  1  2  2  3
  1  6  1  0
  1  7  1  0
  2  3  1  0
  2  8  1  0
  3  4  1  0
  3 10  1  0
  4  5  2  3
  4 11  1  0
  5 12  1  0
  5 13  1  0
  9 14  1  0
 14 15  1  0
 14 18  1  0
 14 21  1  0
 15 16  1  0
 15 20  1  0
 15 22  1  0
 16 17  1  0
 16 23  1  0
 16 24  1  0
 17 18  1  0
 17 25  1  0
 17 26  1  0
 18 19  1  0
 18 27  1  0
 19 20  1  0
 19 28  1  0
 19 29  1  0
 20 30  1  0
 20 31  1  0
M  RAD  1   3   2
M  END
>  <reaction>  (6) 
rxn_748

>  <mol_properties>  (6) 
{"1": {"label": "*0", "atom_type": "Cd"}, "2": {"label": "*1", "atom_type": "Cs"}, "8": {"label": "*2", "atom_type": "H0"}, "13": {"label": "*3", "atom_type": "Cs"}, "14": {"label": "*4", "atom_type": "Cs"}}

>  <type>  (6) 
unop_2

>  <geom_source>  (6) 
Heuristics

$$$$

     RDKit          3D

 31 31  0  0  0  0  0  0  0  0999 V2000
    0.3282   -2.8341   -0.9244 C   0  0  0  0  0  0  0  0  0  0  0  0
    0.3282   -2.8341    0.3988 C   0  0  0  0  0  0  0  0  0  0  0  0
    0.3282   -1.6083    1.2568 C   0  0  0  0  0  3  0  0  0  0  0  0
    1.5379   -1.4539    2.1380 C   0  0  0  0  0  0  0  0  0  0  0  0
    2.6491   -2.1696    2.0656 C   0  0  0  0  0  0  0  0  0  0  0  0
    0.3200   -3.7568   -1.4910 H   0  0  0  0  0  0  0  0  0  0  0  0
    0.3345   -1.9086   -1.4904 H   0  0  0  0  0  0  0  0  0  0  0  0
    0.3308   -3.7828    0.9293 H   0  0  0  0  0  0  0  0  0  0  0  0
    0.2081   -0.5363    0.5063 H   0  0  0  0  0  0  0  0  0  0  0  0
   -0.5598   -1.6218    1.8996 H   0  0  0  0  0  0  0  0  0  0  0  0
    1.4652   -0.6689    2.8857 H   0  0  0  0  0  0  0  0  0  0  0  0
    2.7745   -2.9565    1.3307 H   0  0  0  0  0  0  0  0  0  0  0  0
    3.4773   -1.9853    2.7379 H   0  0  0  0  0  0  0  0  0  0  0  0
    0.0884    0.5326   -0.2421 C   0  0  0  0  0  0  0  0  0  0  0  0
   -0.6282    1.6901    0.4661 C   0  0  0  0  0  0  0  0  0  0  0  0
   -0.1030    2.9030   -0.3181 C   0  0  0  0  0  0  0  0  0  0  0  0
    0.0227    2.3570   -1.7680 C   0  0  0  0  0  0  0  0  0  0  0  0
   -0.4462    0.8997   -1.6329 C   0  0  0  0  0  0  0  0  0  0  0  0
   -1.9638    0.8960   -1.3901 C   0  0  0  0  0  0  0  0  0  0  0  0
   -2.0895    1.4419    0.0598 C   0  0  0  0  0  0  0  0  0  0  0  0
    1.1764    0.5909   -0.1698 H   0  0  0  0  0  0  0  0  0  0  0  0
   -0.4771    1.7630    1.5422 H   0  0  0  0  0  0  0  0  0  0  0  0
    0.8673    3.2215    0.0664 H   0  0  0  0  0  0  0  0  0  0  0  0
   -0.7784    3.7569   -0.2465 H   0  0  0  0  0  0  0  0  0  0  0  0
   -0.5845    2.9149   -2.4825 H   0  0  0  0  0  0  0  0  0  0  0  0
    1.0565    2.4000   -2.1150 H   0  0  0  0  0  0  0  0  0  0  0  0
   -0.1306    0.2580   -2.4544 H   0  0  0  0  0  0  0  0  0  0  0  0
   -2.4937    1.5107   -2.1192 H   0  0  0  0  0  0  0  0  0  0  0  0
   -2.3648   -0.1163   -1.4641 H   0  0  0  0  0  0  0  0  0  0  0  0
   -2.6875    2.3527    0.1167 H   0  0  0  0  0  0  0  0  0  0  0  0
   -2.5539    0.7052    0.7174 H   0  0  0  0  0  0  0  0  0  0  0  0
  1  2  2  3
  1  6  1  0
  1  7  1  0
  2  3  1  0
  2  8  1  0
  3  4  1  0
  3 10  1  0
  4  5  2  3
  4 11  1  0
  5 12  1  0
  5 13  1  0
  9 14  1  0
 14 15  1  0
 14 18  1  0
 14 21  1  0
 15 16  1  0
 15 20  1  0
 15 22  1  0
 16 17  1  0
 16 23  1  0
 16 24  1  0
 17 18  1  0
 17 25  1  0
 17 26  1  0
 18 19  1  0
 18 27  1  0
 19 20  1  0
 19 28  1  0
 19 29  1  0
 20 30  1  0
 20 31  1  0
M  RAD  1   3   2
M  END
>  <reaction>  (7) 
rxn_748

>  <mol_properties>  (7) 
{"1": {"label": "*0", "atom_type": "Cd"}, "2": {"label": "*1", "atom_type": "Cs"}, "8": {"label": "*2", "atom_type": "H0"}, "13": {"label": "*3", "atom_type": "Cs"}, "14": {"label": "*4", "atom_type": "Cs"}}

>  <type>  (7) 
unop_3

>  <geom_source>  (7) 
Heuristics

$$$$

     RDKit          3D

 31 31  0  0  0  0  0  0  0  0999 V2000
   -0.8944   -2.5743   -1.2343 C   0  0  0  0  0  0  0  0  0  0  0  0
   -0.8944   -2.5743    0.0890 C   0  0  0  0  0  0  0  0  0  0  0  0
   -0.8944   -1.3485    0.9470 C   0  0  0  0  0  3  0  0  0  0  0  0
    0.3153   -1.1941    1.8282 C   0  0  0  0  0  0  0  0  0  0  0  0
    1.4265   -1.9098    1.7557 C   0  0  0  0  0  0  0  0  0  0  0  0
   -0.9026   -3.4970   -1.8008 H   0  0  0  0  0  0  0  0  0  0  0  0
   -0.8880   -1.6488   -1.8003 H   0  0  0  0  0  0  0  0  0  0  0  0
   -0.8918   -3.5230    0.6195 H   0  0  0  0  0  0  0  0  0  0  0  0
   -1.0145   -0.2765    0.1964 H   0  0  0  0  0  0  0  0  0  0  0  0
   -1.7824   -1.3620    1.5897 H   0  0  0  0  0  0  0  0  0  0  0  0
    0.2426   -0.4091    2.5759 H   0  0  0  0  0  0  0  0  0  0  0  0
    1.5519   -2.6967    1.0209 H   0  0  0  0  0  0  0  0  0  0  0  0
    2.2547   -1.7255    2.4281 H   0  0  0  0  0  0  0  0  0  0  0  0
   -1.1342    0.7924   -0.5520 C   0  0  0  0  0  0  0  0  0  0  0  0
    0.0026    0.9483   -1.5709 C   0  0  0  0  0  0  0  0  0  0  0  0
    0.2270    2.4685   -1.5514 C   0  0  0  0  0  0  0  0  0  0  0  0
   -0.0304    2.8432   -0.0650 C   0  0  0  0  0  0  0  0  0  0  0  0
   -0.3701    1.4907    0.5809 C   0  0  0  0  0  0  0  0  0  0  0  0
    0.9131    0.6478    0.6518 C   0  0  0  0  0  0  0  0  0  0  0  0
    1.1705    0.2731   -0.8346 C   0  0  0  0  0  0  0  0  0  0  0  0
   -2.0474    1.3160   -0.8421 H   0  0  0  0  0  0  0  0  0  0  0  0
   -0.1835    0.5437   -2.5649 H   0  0  0  0  0  0  0  0  0  0  0  0
   -0.4812    2.9725   -2.2112 H   0  0  0  0  0  0  0  0  0  0  0  0
    1.2307    2.7356   -1.8855 H   0  0  0  0  0  0  0  0  0  0  0  0
    0.8337    3.3134    0.4068 H   0  0  0  0  0  0  0  0  0  0  0  0
   -0.8685    3.5362    0.0252 H   0  0  0  0  0  0  0  0  0  0  0  0
   -0.8932    1.5765    1.5324 H   0  0  0  0  0  0  0  0  0  0  0  0
    1.7405    1.2034    1.0956 H   0  0  0  0  0  0  0  0  0  0  0  0
    0.7564   -0.2448    1.2597 H   0  0  0  0  0  0  0  0  0  0  0  0
    2.1375    0.6257   -1.1966 H   0  0  0  0  0  0  0  0  0  0  0  0
    1.1437   -0.8085   -0.9767 H   0  0  0  0  0  0  0  0  0  0  0  0
  1  2  2  3
  1  6  1  0
  1  7  1  0
  2  3  1  0
  2  8  1  0
  3  4  1  0
  3 10  1  0
  4  5  2  3
  4 11  1  0
  5 12  1  0
  5 13  1  0
  9 14  1  0
 14 15  1  0
 14 18  1  0
 14 21  1  0
 15 16  1  0
 15 20  1  0
 15 22  1  0
 16 17  1  0
 16 23  1  0
 16 24  1  0
 17 18  1  0
 17 25  1  0
 17 26  1  0
 18 19  1  0
 18 27  1  0
 19 20  1  0
 19 28  1  0
 19 29  1  0
 20 30  1  0
 20 31  1  0
M  RAD  1   3   2
M  END
>  <reaction>  (8) 
rxn_748

>  <mol_properties>  (8) 
{"1": {"label": "*0", "atom_type": "Cd"}, "2": {"label": "*1", "atom_type": "Cs"}, "8": {"label": "*2", "atom_type": "H0"}, "13": {"label": "*3", "atom_type": "Cs"}, "14": {"label": "*4", "atom_type": "Cs"}}

>  <type>  (8) 
unop_4

>  <geom_source>  (8) 
Heuristics

$$$$

     RDKit          3D

 31 31  0  0  0  0  0  0  0  0999 V2000
    0.3990   -2.8247   -1.2861 C   0  0  0  0  0  0  0  0  0  0  0  0
    0.3990   -2.8247    0.0371 C   0  0  0  0  0  0  0  0  0  0  0  0
    0.3990   -1.5989    0.8951 C   0  0  0  0  0  3  0  0  0  0  0  0
    1.6087   -1.4445    1.7763 C   0  0  0  0  0  0  0  0  0  0  0  0
    2.7198   -2.1602    1.7039 C   0  0  0  0  0  0  0  0  0  0  0  0
    0.3908   -3.7475   -1.8527 H   0  0  0  0  0  0  0  0  0  0  0  0
    0.4053   -1.8993   -1.8521 H   0  0  0  0  0  0  0  0  0  0  0  0
    0.4015   -3.7735    0.5676 H   0  0  0  0  0  0  0  0  0  0  0  0
    0.2789   -0.5269    0.1446 H   0  0  0  0  0  0  0  0  0  0  0  0
   -0.4890   -1.6124    1.5379 H   0  0  0  0  0  0  0  0  0  0  0  0
    1.5360   -0.6595    2.5240 H   0  0  0  0  0  0  0  0  0  0  0  0
    2.8453   -2.9471    0.9690 H   0  0  0  0  0  0  0  0  0  0  0  0
    3.5480   -1.9759    2.3762 H   0  0  0  0  0  0  0  0  0  0  0  0
    0.1592    0.5420   -0.6038 C   0  0  0  0  0  0  0  0  0  0  0  0
    0.1506    1.8476    0.2026 C   0  0  0  0  0  0  0  0  0  0  0  0
   -0.1660    2.8816   -0.8894 C   0  0  0  0  0  0  0  0  0  0  0  0
   -1.1397    2.1154   -1.8280 C   0  0  0  0  0  0  0  0  0  0  0  0
   -1.2590    0.7383   -1.1562 C   0  0  0  0  0  0  0  0  0  0  0  0
   -2.0740    0.8954    0.1372 C   0  0  0  0  0  0  0  0  0  0  0  0
   -1.1003    1.6616    1.0758 C   0  0  0  0  0  0  0  0  0  0  0  0
    0.9253    0.5212   -1.3816 H   0  0  0  0  0  0  0  0  0  0  0  0
    1.0539    2.0688    0.7694 H   0  0  0  0  0  0  0  0  0  0  0  0
    0.7417    3.1738   -1.4202 H   0  0  0  0  0  0  0  0  0  0  0  0
   -0.6074    3.7890   -0.4744 H   0  0  0  0  0  0  0  0  0  0  0  0
   -2.1090    2.6073   -1.9219 H   0  0  0  0  0  0  0  0  0  0  0  0
   -0.7233    2.0210   -2.8323 H   0  0  0  0  0  0  0  0  0  0  0  0
   -1.6301   -0.0433   -1.8178 H   0  0  0  0  0  0  0  0  0  0  0  0
   -3.0070    1.4348   -0.0331 H   0  0  0  0  0  0  0  0  0  0  0  0
   -2.3325   -0.0802    0.5524 H   0  0  0  0  0  0  0  0  0  0  0  0
   -1.5054    2.6164    1.4143 H   0  0  0  0  0  0  0  0  0  0  0  0
   -0.8676    1.0727    1.9645 H   0  0  0  0  0  0  0  0  0  0  0  0
  1  2  2  3
  1  6  1  0
  1  7  1  0
  2  3  1  0
  2  8  1  0
  3  4  1  0
  3 10  1  0
  4  5  2  3
  4 11  1  0
  5 12  1  0
  5 13  1  0
  9 14  1  0
 14 15  1  0
 14 18  1  0
 14 21  1  0
 15 16  1  0
 15 20  1  0
 15 22  1  0
 16 17  1  0
 16 23  1  0
 16 24  1  0
 17 18  1  0
 17 25  1  0
 17 26  1  0
 18 19  1  0
 18 27  1  0
 19 20  1  0
 19 28  1  0
 19 29  1  0
 20 30  1  0
 20 31  1  0
M  RAD  1   3   2
M  END
>  <reaction>  (9) 
rxn_748

>  <mol_properties>  (9) 
{"1": {"label": "*0", "atom_type": "Cd"}, "2": {"label": "*1", "atom_type": "Cs"}, "8": {"label": "*2", "atom_type": "H0"}, "13": {"label": "*3", "atom_type": "Cs"}, "14": {"label": "*4", "atom_type": "Cs"}}

>  <type>  (9) 
unop_5

>  <geom_source>  (9) 
Heuristics

$$$$

     RDKit          3D

 31 31  0  0  0  0  0  0  0  0999 V2000
   -0.7181   -2.6919   -1.5631 C   0  0  0  0  0  3  0  0  0  0  0  0
   -0.7181   -2.6919   -0.2398 C   0  0  0  0  0  0  0  0  0  0  0  0
   -0.7181   -1.4660    0.6182 C   0  0  0  0  0  0  0  0  0  0  0  0
    0.4916   -1.3117    1.4994 C   0  0  0  0  0  0  0  0  0  0  0  0
    1.6028   -2.0274    1.4270 C   0  0  0  0  0  3  0  0  0  0  0  0
   -0.7263   -3.6146   -2.1296 H   0  0  0  0  0  0  0  0  0  0  0  0
   -0.7117   -1.7664   -2.1290 H   0  0  0  0  0  0  0  0  0  0  0  0
   -0.7155   -3.6406    0.2907 H   0  0  0  0  0  0  0  0  0  0  0  0
   -0.8382   -0.3941   -0.1324 H   0  0  0  0  0  0  0  0  0  0  0  0
   -1.6060   -1.4795    1.2610 H   0  0  0  0  0  0  0  0  0  0  0  0
    0.4190   -0.5267    2.2471 H   0  0  0  0  0  0  0  0  0  0  0  0
    1.7283   -2.8142    0.6921 H   0  0  0  0  0  0  0  0  0  0  0  0
    2.4310   -1.8431    2.0993 H   0  0  0  0  0  0  0  0  0  0  0  0
   -0.9579    0.6748   -0.8807 C   0  0  0  0  0  0  0  0  0  0  0  0
    0.3903    1.2472   -1.3387 C   0  0  0  0  0  0  0  0  0  0  0  0
    0.2001    2.7459   -1.0567 C   0  0  0  0  0  0  0  0  0  0  0  0
   -0.6609    2.7540    0.2374 C   0  0  0  0  0  0  0  0  0  0  0  0
   -0.8562    1.2588    0.5347 C   0  0  0  0  0  0  0  0  0  0  0  0
    0.4838    0.6772    1.0120 C   0  0  0  0  0  3  0  0  0  0  0  0
    1.3449    0.6691   -0.2820 C   0  0  0  0  0  0  0  0  0  0  0  0
   -1.8060    1.0644   -1.4475 H   0  0  0  0  0  0  0  0  0  0  0  0
    0.6833    1.0261   -2.3642 H   0  0  0  0  0  0  0  0  0  0  0  0
   -0.3259    3.2308   -1.8807 H   0  0  0  0  0  0  0  0  0  0  0  0
    1.1541    3.2602   -0.9312 H   0  0  0  0  0  0  0  0  0  0  0  0
   -0.1737    3.2727    1.0644 H   0  0  0  0  0  0  0  0  0  0  0  0
   -1.6214    3.2429    0.0663 H   0  0  0  0  0  0  0  0  0  0  0  0
   -1.6902    1.0484    1.2030 H   0  0  0  0  0  0  0  0  0  0  0  0
    0.9265    1.2767    1.8089 H   0  0  0  0  0  0  0  0  0  0  0  0
    0.3502   -0.3339    1.4004 H   0  0  0  0  0  0  0  0  0  0  0  0
    2.2543    1.2643   -0.1867 H   0  0  0  0  0  0  0  0  0  0  0  0
    1.6457   -0.3460   -0.5466 H   0  0  0  0  0  0  0  0  0  0  0  0
  1  2  1  0
  1  6  1  0
  1  7  1  0
  2  3  2  3
  2  8  1  0
  3  4  1  0
  3 10  1  0
  4  5  1  0
  4 11  1  0
  4 29  1  0
  5 12  1  0
  5 13  1  0
  9 14  1  0
 14 18  1  0
 14 15  1  0
 14 21  1  0
 15 20  1  0
 15 16  1  0
 15 22  1  0
 16 17  1  0
 16 23  1  0
 16 24  1  0
 17 18  1  0
 17 25  1  0
 17 26  1  0
 18 19  1  0
 18 27  1  0
 19 20  1  0
 19 28  1  0
 20 30  1  0
 20 31  1  0
M  CHG  2   1   1   5  -1
M  RAD  1  19   2
M  END
>  <reaction>  (10) 
rxn_748

>  <mol_properties>  (10) 
{"1": {"label": "*0", "atom_type": "Cd"}, "2": {"label": "*1", "atom_type": "Cs"}, "8": {"label": "*2", "atom_type": "H0"}, "13": {"label": "*3", "atom_type": "Cs"}, "14": {"label": "*4", "atom_type": "Cs"}}

>  <type>  (10) 
unop_6

>  <geom_source>  (10) 
Heuristics

$$$$

     RDKit          3D

 31 31  0  0  0  0  0  0  0  0999 V2000
   -0.3651   -2.7791   -1.7604 C   0  0  0  0  0  0  0  0  0  0  0  0
   -0.3651   -2.7791   -0.4371 C   0  0  0  0  0  0  0  0  0  0  0  0
   -0.3651   -1.5533    0.4209 C   0  0  0  0  0  3  0  0  0  0  0  0
    0.8447   -1.3990    1.3021 C   0  0  0  0  0  0  0  0  0  0  0  0
    1.9558   -2.1147    1.2296 C   0  0  0  0  0  0  0  0  0  0  0  0
   -0.3732   -3.7019   -2.3269 H   0  0  0  0  0  0  0  0  0  0  0  0
   -0.3587   -1.8537   -2.3264 H   0  0  0  0  0  0  0  0  0  0  0  0
   -0.3625   -3.7279    0.0934 H   0  0  0  0  0  0  0  0  0  0  0  0
   -0.4851   -0.4813   -0.3297 H   0  0  0  0  0  0  0  0  0  0  0  0
   -1.2530   -1.5668    1.0636 H   0  0  0  0  0  0  0  0  0  0  0  0
    0.7720   -0.6139    2.0498 H   0  0  0  0  0  0  0  0  0  0  0  0
    2.0813   -2.9015    0.4948 H   0  0  0  0  0  0  0  0  0  0  0  0
    2.7840   -1.9304    1.9020 H   0  0  0  0  0  0  0  0  0  0  0  0
   -0.6049    0.5875   -1.0781 C   0  0  0  0  0  0  0  0  0  0  0  0
    0.5786    1.5553   -0.9450 C   0  0  0  0  0  0  0  0  0  0  0  0
   -0.1425    2.9006   -0.7666 C   0  0  0  0  0  0  0  0  0  0  0  0
   -1.4008    2.5183    0.0621 C   0  0  0  0  0  0  0  0  0  0  0  0
   -1.2429    1.0018    0.2547 C   0  0  0  0  0  0  0  0  0  0  0  0
   -0.0892    0.7524    1.2388 C   0  0  0  0  0  0  0  0  0  0  0  0
    1.1691    1.1347    0.4102 C   0  0  0  0  0  0  0  0  0  0  0  0
   -1.2381    0.7979   -1.9425 H   0  0  0  0  0  0  0  0  0  0  0  0
    1.3003    1.5477   -1.7607 H   0  0  0  0  0  0  0  0  0  0  0  0
   -0.4229    3.3205   -1.7341 H   0  0  0  0  0  0  0  0  0  0  0  0
    0.4868    3.6355   -0.2623 H   0  0  0  0  0  0  0  0  0  0  0  0
   -1.4536    3.0459    1.0156 H   0  0  0  0  0  0  0  0  0  0  0  0
   -2.3160    2.7452   -0.4874 H   0  0  0  0  0  0  0  0  0  0  0  0
   -2.1681    0.4938    0.5235 H   0  0  0  0  0  0  0  0  0  0  0  0
   -0.1931    1.3487    2.1466 H   0  0  0  0  0  0  0  0  0  0  0  0
   -0.0570   -0.2962    1.5394 H   0  0  0  0  0  0  0  0  0  0  0  0
    1.7473    1.9383    0.8687 H   0  0  0  0  0  0  0  0  0  0  0  0
    1.8361    0.2790    0.2926 H   0  0  0  0  0  0  0  0  0  0  0  0
  1  2  2  3
  1  6  1  0
  1  7  1  0
  2  3  1  0
  2  8  1  0
  3  4  1  0
  3 10  1  0
  4  5  2  3
  4 11  1  0
  5 12  1  0
  5 13  1  0
  9 14  1  0
 14 15  1  0
 14 18  1  0
 14 21  1  0
 15 16  1  0
 15 20  1  0
 15 22  1  0
 16 17  1  0
 16 23  1  0
 16 24  1  0
 17 18  1  0
 17 25  1  0
 17 26  1  0
 18 19  1  0
 18 27  1  0
 19 20  1  0
 19 28  1  0
 19 29  1  0
 20 30  1  0
 20 31  1  0
M  RAD  1   3   2
M  END
>  <reaction>  (11) 
rxn_748

>  <mol_properties>  (11) 
{"1": {"label": "*0", "atom_type": "Cd"}, "2": {"label": "*1", "atom_type": "Cs"}, "8": {"label": "*2", "atom_type": "H0"}, "13": {"label": "*3", "atom_type": "Cs"}, "14": {"label": "*4", "atom_type": "Cs"}}

>  <type>  (11) 
unop_7

>  <geom_source>  (11) 
Heuristics

$$$$

     RDKit          3D

 31 31  0  0  0  0  0  0  0  0999 V2000
    0.2078   -2.6826   -0.6158 C   0  0  0  0  0  0  0  0  0  0  0  0
    0.2078   -2.6826    0.7075 C   0  0  0  0  0  0  0  0  0  0  0  0
    0.2078   -1.4568    1.5655 C   0  0  0  0  0  3  0  0  0  0  0  0
    1.4175   -1.3024    2.4467 C   0  0  0  0  0  0  0  0  0  0  0  0
    2.5286   -2.0181    2.3742 C   0  0  0  0  0  0  0  0  0  0  0  0
    0.1996   -3.6053   -1.1823 H   0  0  0  0  0  0  0  0  0  0  0  0
    0.2141   -1.7571   -1.1818 H   0  0  0  0  0  0  0  0  0  0  0  0
    0.2103   -3.6314    1.2380 H   0  0  0  0  0  0  0  0  0  0  0  0
    0.0877   -0.3848    0.8149 H   0  0  0  0  0  0  0  0  0  0  0  0
   -0.6802   -1.4703    2.2082 H   0  0  0  0  0  0  0  0  0  0  0  0
    1.3448   -0.5174    3.1944 H   0  0  0  0  0  0  0  0  0  0  0  0
    2.6541   -2.8050    1.6394 H   0  0  0  0  0  0  0  0  0  0  0  0
    3.3569   -1.8338    3.0466 H   0  0  0  0  0  0  0  0  0  0  0  0
   -0.0320    0.6841    0.0665 C   0  0  0  0  0  0  0  0  0  0  0  0
   -1.4908    1.0992   -0.1669 C   0  0  0  0  0  0  0  0  0  0  0  0
   -1.3673    2.6293   -0.2407 C   0  0  0  0  0  0  0  0  0  0  0  0
    0.0034    2.8382   -0.9433 C   0  0  0  0  0  0  0  0  0  0  0  0
    0.4935    1.4016   -1.1840 C   0  0  0  0  0  0  0  0  0  0  0  0
   -0.3702    0.7698   -2.2871 C   0  0  0  0  0  0  0  0  0  0  0  0
   -1.7409    0.5609   -1.5845 C   0  0  0  0  0  0  0  0  0  0  0  0
    0.3844    1.0779    0.9959 H   0  0  0  0  0  0  0  0  0  0  0  0
   -2.2137    0.7512    0.5697 H   0  0  0  0  0  0  0  0  0  0  0  0
   -1.3658    3.0659    0.7595 H   0  0  0  0  0  0  0  0  0  0  0  0
   -2.1956    3.0780   -0.7911 H   0  0  0  0  0  0  0  0  0  0  0  0
   -0.0818    3.4001   -1.8746 H   0  0  0  0  0  0  0  0  0  0  0  0
    0.6964    3.3802   -0.2977 H   0  0  0  0  0  0  0  0  0  0  0  0
    1.5646    1.3270   -1.3670 H   0  0  0  0  0  0  0  0  0  0  0  0
   -0.4409    1.4122   -3.1661 H   0  0  0  0  0  0  0  0  0  0  0  0
    0.0530   -0.1822   -2.6121 H   0  0  0  0  0  0  0  0  0  0  0  0
   -2.5547    1.0901   -2.0826 H   0  0  0  0  0  0  0  0  0  0  0  0
   -2.0093   -0.4964   -1.5549 H   0  0  0  0  0  0  0  0  0  0  0  0
  1  2  2  3
  1  6  1  0
  1  7  1  0
  2  3  1  0
  2  8  1  0
  3  4  1  0
  3 10  1  0
  4  5  2  3
  4 11  1  0
  5 12  1  0
  5 13  1  0
  9 14  1  0
 14 15  1  0
 14 18  1  0
 14 21  1  0
 15 16  1  0
 15 20  1  0
 15 22  1  0
 16 17  1  0
 16 23  1  0
 16 24  1  0
 17 18  1  0
 17 25  1  0
 17 26  1  0
 18 19  1  0
 18 27  1  0
 19 20  1  0
 19 28  1  0
 19 29  1  0
 20 30  1  0
 20 31  1  0
M  RAD  1   3   2
M  END
>  <reaction>  (12) 
rxn_748

>  <mol_properties>  (12) 
{"1": {"label": "*0", "atom_type": "Cd"}, "2": {"label": "*1", "atom_type": "Cs"}, "8": {"label": "*2", "atom_type": "H0"}, "13": {"label": "*3", "atom_type": "Cs"}, "14": {"label": "*4", "atom_type": "Cs"}}

>  <type>  (12) 
unop_8

>  <geom_source>  (12) 
Heuristics

$$$$

     RDKit          3D

 31 31  0  0  0  0  0  0  0  0999 V2000
   -0.8614   -2.4710   -0.8619 C   0  0  0  0  0  0  0  0  0  0  0  0
   -0.8614   -2.4710    0.4613 C   0  0  0  0  0  0  0  0  0  0  0  0
   -0.8614   -1.2452    1.3193 C   0  0  0  0  0  3  0  0  0  0  0  0
    0.3483   -1.0908    2.2006 C   0  0  0  0  0  0  0  0  0  0  0  0
    1.4594   -1.8065    2.1281 C   0  0  0  0  0  0  0  0  0  0  0  0
   -0.8696   -3.3937   -1.4284 H   0  0  0  0  0  0  0  0  0  0  0  0
   -0.8551   -1.5455   -1.4279 H   0  0  0  0  0  0  0  0  0  0  0  0
   -0.8589   -3.4197    0.9919 H   0  0  0  0  0  0  0  0  0  0  0  0
   -0.9815   -0.1732    0.5688 H   0  0  0  0  0  0  0  0  0  0  0  0
   -1.7494   -1.2587    1.9621 H   0  0  0  0  0  0  0  0  0  0  0  0
    0.2756   -0.3058    2.9483 H   0  0  0  0  0  0  0  0  0  0  0  0
    1.5849   -2.5934    1.3932 H   0  0  0  0  0  0  0  0  0  0  0  0
    2.2876   -1.6222    2.8005 H   0  0  0  0  0  0  0  0  0  0  0  0
   -1.1012    0.8957   -0.1796 C   0  0  0  0  0  0  0  0  0  0  0  0
   -0.4952    0.7256   -1.5792 C   0  0  0  0  0  0  0  0  0  0  0  0
   -0.1955    2.1830   -1.9638 C   0  0  0  0  0  0  0  0  0  0  0  0
    0.2224    2.8251   -0.6113 C   0  0  0  0  0  0  0  0  0  0  0  0
    0.1097    1.6552    0.3788 C   0  0  0  0  0  0  0  0  0  0  0  0
    1.2508    0.6652    0.0964 C   0  0  0  0  0  0  0  0  0  0  0  0
    0.8329    0.0231   -1.2561 C   0  0  0  0  0  0  0  0  0  0  0  0
   -2.0192    1.4870   -0.1767 H   0  0  0  0  0  0  0  0  0  0  0  0
   -1.1076    0.1954   -2.3073 H   0  0  0  0  0  0  0  0  0  0  0  0
   -1.0856    2.6670   -2.3693 H   0  0  0  0  0  0  0  0  0  0  0  0
    0.5864    2.2509   -2.7218 H   0  0  0  0  0  0  0  0  0  0  0  0
    1.2307    3.2411   -0.6361 H   0  0  0  0  0  0  0  0  0  0  0  0
   -0.4569    3.6331   -0.3344 H   0  0  0  0  0  0  0  0  0  0  0  0
    0.0442    1.9654    1.4208 H   0  0  0  0  0  0  0  0  0  0  0  0
    2.2191    1.1652    0.0441 H   0  0  0  0  0  0  0  0  0  0  0  0
    1.3142   -0.0869    0.8845 H   0  0  0  0  0  0  0  0  0  0  0  0
    1.5747    0.1750   -2.0416 H   0  0  0  0  0  0  0  0  0  0  0  0
    0.6856   -1.0530   -1.1503 H   0  0  0  0  0  0  0  0  0  0  0  0
  1  2  2  3
  1  6  1  0
  1  7  1  0
  2  3  1  0
  2  8  1  0
  3  4  1  0
  3 10  1  0
  4  5  2  3
  4 11  1  0
  5 12  1  0
  5 13  1  0
  9 14  1  0
 14 15  1  0
 14 18  1  0
 14 21  1  0
 15 16  1  0
 15 20  1  0
 15 22  1  0
 16 17  1  0
 16 23  1  0
 16 24  1  0
 17 18  1  0
 17 25  1  0
 17 26  1  0
 18 19  1  0
 18 27  1  0
 19 20  1  0
 19 28  1  0
 19 29  1  0
 20 30  1  0
 20 31  1  0
M  RAD  1   3   2
M  END
>  <reaction>  (13) 
rxn_748

>  <mol_properties>  (13) 
{"1": {"label": "*0", "atom_type": "Cd"}, "2": {"label": "*1", "atom_type": "Cs"}, "8": {"label": "*2", "atom_type": "H0"}, "13": {"label": "*3", "atom_type": "Cs"}, "14": {"label": "*4", "atom_type": "Cs"}}

>  <type>  (13) 
unop_9

>  <geom_source>  (13) 
Heuristics

$$$$

     RDKit          3D

 31 31  0  0  0  0  0  0  0  0999 V2000
    0.0353   -2.5573   -0.4683 C   0  0  0  0  0  0  0  0  0  0  0  0
    0.0353   -2.5573    0.8550 C   0  0  0  0  0  0  0  0  0  0  0  0
    0.0353   -1.3315    1.7130 C   0  0  0  0  0  3  0  0  0  0  0  0
    1.2450   -1.1771    2.5942 C   0  0  0  0  0  0  0  0  0  0  0  0
    2.3562   -1.8928    2.5218 C   0  0  0  0  0  0  0  0  0  0  0  0
    0.0271   -3.4800   -1.0348 H   0  0  0  0  0  0  0  0  0  0  0  0
    0.0416   -1.6318   -1.0342 H   0  0  0  0  0  0  0  0  0  0  0  0
    0.0379   -3.5060    1.3855 H   0  0  0  0  0  0  0  0  0  0  0  0
   -0.0848   -0.2595    0.9624 H   0  0  0  0  0  0  0  0  0  0  0  0
   -0.8527   -1.3449    2.3558 H   0  0  0  0  0  0  0  0  0  0  0  0
    1.1723   -0.3921    3.3419 H   0  0  0  0  0  0  0  0  0  0  0  0
    2.4816   -2.6796    1.7869 H   0  0  0  0  0  0  0  0  0  0  0  0
    3.1844   -1.7085    3.1941 H   0  0  0  0  0  0  0  0  0  0  0  0
   -0.2045    0.8094    0.2141 C   0  0  0  0  0  0  0  0  0  0  0  0
   -1.4986    0.8291   -0.6104 C   0  0  0  0  0  0  0  0  0  0  0  0
   -1.7014    2.3368   -0.8288 C   0  0  0  0  0  0  0  0  0  0  0  0
   -0.2485    2.8697   -0.9753 C   0  0  0  0  0  0  0  0  0  0  0  0
    0.6046    1.6005   -0.8225 C   0  0  0  0  0  0  0  0  0  0  0  0
    0.4227    0.7359   -2.0799 C   0  0  0  0  0  0  0  0  0  0  0  0
   -1.0301    0.2031   -1.9335 C   0  0  0  0  0  0  0  0  0  0  0  0
   -0.2967    1.3242    1.1726 H   0  0  0  0  0  0  0  0  0  0  0  0
   -2.3589    0.3292   -0.1674 H   0  0  0  0  0  0  0  0  0  0  0  0
   -2.1999    2.7885    0.0304 H   0  0  0  0  0  0  0  0  0  0  0  0
   -2.3157    2.5414   -1.7070 H   0  0  0  0  0  0  0  0  0  0  0  0
   -0.0752    3.3631   -1.9329 H   0  0  0  0  0  0  0  0  0  0  0  0
   -0.0141    3.5902   -0.1900 H   0  0  0  0  0  0  0  0  0  0  0  0
    1.6458    1.7980   -0.5712 H   0  0  0  0  0  0  0  0  0  0  0  0
    0.5698    1.3124   -2.9945 H   0  0  0  0  0  0  0  0  0  0  0  0
    1.1419   -0.0847   -2.0924 H   0  0  0  0  0  0  0  0  0  0  0  0
   -1.6706    0.4907   -2.7686 H   0  0  0  0  0  0  0  0  0  0  0  0
   -1.0439   -0.8864   -1.8721 H   0  0  0  0  0  0  0  0  0  0  0  0
  1  2  2  3
  1  6  1  0
  1  7  1  0
  2  3  1  0
  2  8  1  0
  3  4  1  0
  3 10  1  0
  4  5  2  3
  4 11  1  0
  5 12  1  0
  5 13  1  0
  9 14  1  0
 14 15  1  0
 14 18  1  0
 14 21  1  0
 15 16  1  0
 15 20  1  0
 15 22  1  0
 16 17  1  0
 16 23  1  0
 16 24  1  0
 17 18  1  0
 17 25  1  0
 17 26  1  0
 18 19  1  0
 18 27  1  0
 19 20  1  0
 19 28  1  0
 19 29  1  0
 20 30  1  0
 20 31  1  0
M  RAD  1   3   2
M  END
>  <reaction>  (14) 
rxn_748

>  <mol_properties>  (14) 
{"1": {"label": "*0", "atom_type": "Cd"}, "2": {"label": "*1", "atom_type": "Cs"}, "8": {"label": "*2", "atom_type": "H0"}, "13": {"label": "*3", "atom_type": "Cs"}, "14": {"label": "*4", "atom_type": "Cs"}}

>  <type>  (14) 
unop_10

>  <geom_source>  (14) 
Heuristics

$$$$

     RDKit          3D

 31 31  0  0  0  0  0  0  0  0999 V2000
    0.0950   -2.8137   -1.7075 C   0  0  0  0  0  0  0  0  0  0  0  0
    0.0950   -2.8137   -0.3843 C   0  0  0  0  0  0  0  0  0  0  0  0
    0.0950   -1.5879    0.4737 C   0  0  0  0  0  3  0  0  0  0  0  0
    1.3047   -1.4335    1.3549 C   0  0  0  0  0  0  0  0  0  0  0  0
    2.4159   -2.1492    1.2825 C   0  0  0  0  0  0  0  0  0  0  0  0
    0.0868   -3.7365   -2.2740 H   0  0  0  0  0  0  0  0  0  0  0  0
    0.1014   -1.8883   -2.2735 H   0  0  0  0  0  0  0  0  0  0  0  0
    0.0976   -3.7625    0.1463 H   0  0  0  0  0  0  0  0  0  0  0  0
   -0.0251   -0.5159   -0.2768 H   0  0  0  0  0  0  0  0  0  0  0  0
   -0.7930   -1.6014    1.1165 H   0  0  0  0  0  0  0  0  0  0  0  0
    1.2320   -0.6485    2.1027 H   0  0  0  0  0  0  0  0  0  0  0  0
    2.5414   -2.9361    0.5476 H   0  0  0  0  0  0  0  0  0  0  0  0
    3.2441   -1.9649    1.9548 H   0  0  0  0  0  0  0  0  0  0  0  0
   -0.1448    0.5530   -1.0252 C   0  0  0  0  0  0  0  0  0  0  0  0
    0.5421    1.7891   -0.4293 C   0  0  0  0  0  0  0  0  0  0  0  0
   -0.4315    2.9072   -0.8340 C   0  0  0  0  0  0  0  0  0  0  0  0
   -1.8207    2.2168   -0.7355 C   0  0  0  0  0  0  0  0  0  0  0  0
   -1.4690    0.7897   -0.2867 C   0  0  0  0  0  0  0  0  0  0  0  0
   -1.0008    0.8396    1.1762 C   0  0  0  0  0  0  0  0  0  0  0  0
    0.3884    1.5300    1.0777 C   0  0  0  0  0  0  0  0  0  0  0  0
   -0.2438    0.5971   -2.1117 H   0  0  0  0  0  0  0  0  0  0  0  0
    1.5701    1.9661   -0.7427 H   0  0  0  0  0  0  0  0  0  0  0  0
   -0.2322    3.2436   -1.8528 H   0  0  0  0  0  0  0  0  0  0  0  0
   -0.3460    3.7769   -0.1808 H   0  0  0  0  0  0  0  0  0  0  0  0
   -2.4883    2.7123   -0.0289 H   0  0  0  0  0  0  0  0  0  0  0  0
   -2.3223    2.2050   -1.7046 H   0  0  0  0  0  0  0  0  0  0  0  0
   -2.2592    0.0632   -0.4712 H   0  0  0  0  0  0  0  0  0  0  0  0
   -1.7003    1.3887    1.8084 H   0  0  0  0  0  0  0  0  0  0  0  0
   -0.9102   -0.1669    1.5879 H   0  0  0  0  0  0  0  0  0  0  0  0
    0.4420    2.4533    1.6566 H   0  0  0  0  0  0  0  0  0  0  0  0
    1.1799    0.8717    1.4397 H   0  0  0  0  0  0  0  0  0  0  0  0
  1  2  2  3
  1  6  1  0
  1  7  1  0
  2  3  1  0
  2  8  1  0
  3  4  1  0
  3 10  1  0
  4  5  2  3
  4 11  1  0
  5 12  1  0
  5 13  1  0
  9 14  1  0
 14 15  1  0
 14 18  1  0
 14 21  1  0
 15 16  1  0
 15 20  1  0
 15 22  1  0
 16 17  1  0
 16 23  1  0
 16 24  1  0
 17 18  1  0
 17 25  1  0
 17 26  1  0
 18 19  1  0
 18 27  1  0
 19 20  1  0
 19 28  1  0
 19 29  1  0
 20 30  1  0
 20 31  1  0
M  RAD  1   3   2
M  END
>  <reaction>  (15) 
rxn_748

>  <mol_properties>  (15) 
{"1": {"label": "*0", "atom_type": "Cd"}, "2": {"label": "*1", "atom_type": "Cs"}, "8": {"label": "*2", "atom_type": "H0"}, "13": {"label": "*3", "atom_type": "Cs"}, "14": {"label": "*4", "atom_type": "Cs"}}

>  <type>  (15) 
unop_11

>  <geom_source>  (15) 
Heuristics

$$$$

     RDKit          3D

 31 31  0  0  0  0  0  0  0  0999 V2000
   -0.6225   -2.4254   -0.5525 C   0  0  0  0  0  0  0  0  0  0  0  0
   -0.6225   -2.4254    0.7708 C   0  0  0  0  0  0  0  0  0  0  0  0
   -0.6225   -1.1996    1.6288 C   0  0  0  0  0  3  0  0  0  0  0  0
    0.5873   -1.0453    2.5100 C   0  0  0  0  0  0  0  0  0  0  0  0
    1.6984   -1.7610    2.4375 C   0  0  0  0  0  0  0  0  0  0  0  0
   -0.6306   -3.3482   -1.1190 H   0  0  0  0  0  0  0  0  0  0  0  0
   -0.6161   -1.5000   -1.1185 H   0  0  0  0  0  0  0  0  0  0  0  0
   -0.6199   -3.3742    1.3013 H   0  0  0  0  0  0  0  0  0  0  0  0
   -0.7425   -0.1277    0.8782 H   0  0  0  0  0  0  0  0  0  0  0  0
   -1.5104   -1.2131    2.2715 H   0  0  0  0  0  0  0  0  0  0  0  0
    0.5146   -0.2603    3.2577 H   0  0  0  0  0  0  0  0  0  0  0  0
    1.8239   -2.5478    1.7027 H   0  0  0  0  0  0  0  0  0  0  0  0
    2.5266   -1.5767    3.1099 H   0  0  0  0  0  0  0  0  0  0  0  0
   -0.8623    0.9412    0.1298 C   0  0  0  0  0  0  0  0  0  0  0  0
   -0.9643    0.6231   -1.3679 C   0  0  0  0  0  0  0  0  0  0  0  0
   -0.9212    2.0300   -1.9849 C   0  0  0  0  0  0  0  0  0  0  0  0
    0.0525    2.7962   -1.0464 C   0  0  0  0  0  0  0  0  0  0  0  0
    0.4453    1.7323   -0.0091 C   0  0  0  0  0  0  0  0  0  0  0  0
    1.3583    0.7006   -0.6902 C   0  0  0  0  0  0  0  0  0  0  0  0
    0.3846   -0.0657   -1.6288 C   0  0  0  0  0  0  0  0  0  0  0  0
   -1.6937    1.5449    0.4995 H   0  0  0  0  0  0  0  0  0  0  0  0
   -1.8264    0.0334   -1.6768 H   0  0  0  0  0  0  0  0  0  0  0  0
   -1.9126    2.4859   -1.9780 H   0  0  0  0  0  0  0  0  0  0  0  0
   -0.5791    2.0093   -3.0208 H   0  0  0  0  0  0  0  0  0  0  0  0
    0.9225    3.1909   -1.5733 H   0  0  0  0  0  0  0  0  0  0  0  0
   -0.4477    3.6387   -0.5659 H   0  0  0  0  0  0  0  0  0  0  0  0
    0.8576    2.1455    0.9104 H   0  0  0  0  0  0  0  0  0  0  0  0
    2.1775    1.1768   -1.2310 H   0  0  0  0  0  0  0  0  0  0  0  0
    1.8012    0.0294    0.0476 H   0  0  0  0  0  0  0  0  0  0  0  0
    0.6759   -0.0048   -2.6784 H   0  0  0  0  0  0  0  0  0  0  0  0
    0.3363   -1.1234   -1.3646 H   0  0  0  0  0  0  0  0  0  0  0  0
  1  2  2  3
  1  6  1  0
  1  7  1  0
  2  3  1  0
  2  8  1  0
  3  4  1  0
  3 10  1  0
  4  5  2  3
  4 11  1  0
  5 12  1  0
  5 13  1  0
  9 14  1  0
 14 15  1  0
 14 18  1  0
 14 21  1  0
 15 16  1  0
 15 20  1  0
 15 22  1  0
 16 17  1  0
 16 23  1  0
 16 24  1  0
 17 18  1  0
 17 25  1  0
 17 26  1  0
 18 19  1  0
 18 27  1  0
 19 20  1  0
 19 28  1  0
 19 29  1  0
 20 30  1  0
 20 31  1  0
M  RAD  1   3   2
M  END
>  <reaction>  (16) 
rxn_748

>  <mol_properties>  (16) 
{"1": {"label": "*0", "atom_type": "Cd"}, "2": {"label": "*1", "atom_type": "Cs"}, "8": {"label": "*2", "atom_type": "H0"}, "13": {"label": "*3", "atom_type": "Cs"}, "14": {"label": "*4", "atom_type": "Cs"}}

>  <type>  (16) 
unop_12

>  <geom_source>  (16) 
Heuristics

$$$$

     RDKit          3D

 31 31  0  0  0  0  0  0  0  0999 V2000
   -0.8025   -0.5552    0.8481 C   0  0  0  0  0  0  0  0  0  0  0  0
   -1.5230    1.2014   -0.2933 C   0  0  0  0  0  0  0  0  0  0  0  0
   -2.3226   -0.5991    1.0808 C   0  0  0  0  0  0  0  0  0  0  0  0
   -2.8221    0.6187    0.2894 C   0  0  0  0  0  0  0  0  0  0  0  0
   -1.0066    0.2679   -1.3984 C   0  0  0  0  0  0  0  0  0  0  0  0
   -0.5064   -0.9515   -0.6061 C   0  0  0  0  0  0  0  0  0  0  0  0
    1.5151    0.4404   -0.7916 C   0  0  0  0  0  0  0  0  0  0  0  0
   -0.5252    0.9255    0.8019 C   0  0  0  0  0  3  0  0  0  0  0  0
    2.5190    1.1809    0.0448 C   0  0  0  0  0  0  0  0  0  0  0  0
    1.9983   -0.9478   -1.1000 C   0  0  0  0  0  0  0  0  0  0  0  0
    2.5734    1.0325    1.3711 C   0  0  0  0  0  0  0  0  0  0  0  0
    1.8431   -1.9535   -0.2347 C   0  0  0  0  0  0  0  0  0  0  0  0
   -0.2085   -1.1145    1.6019 H   0  0  0  0  0  0  0  0  0  0  0  0
   -1.5958    2.2677   -0.5959 H   0  0  0  0  0  0  0  0  0  0  0  0
   -2.5497   -0.4811    2.1632 H   0  0  0  0  0  0  0  0  0  0  0  0
   -2.7747   -1.5456    0.7117 H   0  0  0  0  0  0  0  0  0  0  0  0
   -3.5431    0.3277   -0.5056 H   0  0  0  0  0  0  0  0  0  0  0  0
   -3.3031    1.3557    0.9697 H   0  0  0  0  0  0  0  0  0  0  0  0
   -0.1664    0.7481   -1.9472 H   0  0  0  0  0  0  0  0  0  0  0  0
   -1.8064   -0.0081   -2.1200 H   0  0  0  0  0  0  0  0  0  0  0  0
    0.5876   -1.0902   -0.7527 H   0  0  0  0  0  0  0  0  0  0  0  0
   -1.0375   -1.8826   -0.9020 H   0  0  0  0  0  0  0  0  0  0  0  0
    0.3923    0.4083   -0.2214 H   0  0  0  0  0  0  0  0  0  0  0  0
    1.3887    0.9869   -1.7503 H   0  0  0  0  0  0  0  0  0  0  0  0
   -0.7797    1.4414    1.7566 H   0  0  0  0  0  0  0  0  0  0  0  0
    3.2166    1.8559   -0.4424 H   0  0  0  0  0  0  0  0  0  0  0  0
    2.4844   -1.1380   -2.0525 H   0  0  0  0  0  0  0  0  0  0  0  0
    3.3104    1.5812    1.9485 H   0  0  0  0  0  0  0  0  0  0  0  0
    1.8860    0.3719    1.8899 H   0  0  0  0  0  0  0  0  0  0  0  0
    1.3550   -1.7990    0.7224 H   0  0  0  0  0  0  0  0  0  0  0  0
    2.2032   -2.9457   -0.4861 H   0  0  0  0  0  0  0  0  0  0  0  0
  1  3  1  0
  1  6  1  0
  1  8  1  0
  1 13  1  0
  2  4  1  0
  2  5  1  0
  2  8  1  0
  2 14  1  0
  3  4  1  0
  3 15  1  0
  3 16  1  0
  4 17  1  0
  4 18  1  0
  5  6  1  0
  5 19  1  0
  5 20  1  0
  6 21  1  0
  6 22  1  0
  7  9  1  0
  7 10  1  0
  7 23  1  0
  7 24  1  0
  8 25  1  0
  9 11  2  3
  9 26  1  0
 10 12  2  3
 10 27  1  0
 11 28  1  0
 11 29  1  0
 12 30  1  0
 12 31  1  0
M  RAD  1   8   2
M  END
>  <reaction>  (17) 
rxn_748

>  <mol_properties>  (17) 
{"1": {"label": "*0", "atom_type": "Cd"}, "2": {"label": "*1", "atom_type": "Cs"}, "8": {"label": "*2", "atom_type": "H0"}, "13": {"label": "*3", "atom_type": "Cs"}, "14": {"label": "*4", "atom_type": "Cs"}}

>  <type>  (17) 
unop_13

>  <geom_source>  (17) 
AutoTST

$$$$
