
     RDKit          3D

  6  5  0  0  0  0  0  0  0  0999 V2000
   -0.5072   -0.0291   -0.0097 C   0  0  0  0  0  0  0  0  0  0  0  0
    1.1321   -0.1527   -0.7687 S   0  0  0  0  0  0  0  0  0  0  0  0
   -0.6174   -0.7330    0.8127 H   0  0  0  0  0  0  0  0  0  0  0  0
   -0.5863    0.9827    0.3845 H   0  0  0  0  0  0  0  0  0  0  0  0
   -1.2962   -0.1800   -0.7434 H   0  0  0  0  0  0  0  0  0  0  0  0
    1.0312   -1.4237   -1.1764 H   0  0  0  0  0  0  0  0  0  0  0  0
  1  2  1  0
  1  3  1  0
  1  4  1  0
  1  5  1  0
  2  6  1  0
M  END
>  <reaction>  (1) 
rxn_1833

>  <mol_properties>  (1) 
{"0": {"label": "donator", "atom_type": "Cs"}, "2": {"label": "d_hydrogen", "atom_type": "H0"}}

>  <type>  (1) 
r1h

$$$$

     RDKit          3D

  5  4  0  0  0  0  0  0  0  0999 V2000
    0.0397    0.7134    0.0000 C   0  0  0  0  0  3  0  0  0  0  0  0
    0.0458   -0.5870    0.0000 C   0  0  0  0  0  0  0  0  0  0  0  0
   -0.6871    1.5118    0.0000 H   0  0  0  0  0  0  0  0  0  0  0  0
   -0.8806   -1.1637    0.0000 H   0  0  0  0  0  0  0  0  0  0  0  0
    0.9690   -1.1600    0.0000 H   0  0  0  0  0  0  0  0  0  0  0  0
  1  2  2  3
  1  3  1  0
  2  4  1  0
  2  5  1  0
M  RAD  1   1   2
M  END
>  <reaction>  (2) 
rxn_1833

>  <mol_properties>  (2) 
{"0": {"label": "acceptor", "atom_type": "Cd"}}

>  <type>  (2) 
r2

$$$$

     RDKit          3D

  6  5  0  0  0  0  0  0  0  0999 V2000
    0.6594    0.0438   -0.0050 C   0  0  0  0  0  0  0  0  0  0  0  0
   -0.6594   -0.0438    0.0050 C   0  0  0  0  0  0  0  0  0  0  0  0
    1.1706    0.8681   -0.4881 H   0  0  0  0  0  0  0  0  0  0  0  0
    1.2824   -0.7051    0.4696 H   0  0  0  0  0  0  0  0  0  0  0  0
   -1.2824    0.7051   -0.4696 H   0  0  0  0  0  0  0  0  0  0  0  0
   -1.1706   -0.8681    0.4881 H   0  0  0  0  0  0  0  0  0  0  0  0
  1  2  2  3
  1  3  1  0
  1  4  1  0
  2  5  1  0
  2  6  1  0
M  END
>  <reaction>  (3) 
rxn_1833

>  <mol_properties>  (3) 
{"0": {"label": "acceptor", "atom_type": "Cd"}, "5": {"label": "a_hydrogen", "atom_type": "H0"}}

>  <type>  (3) 
r2h

$$$$

     RDKit          3D

 11  9  0  0  0  0  0  0  0  0999 V2000
   -0.1746    1.5852    1.1104 C   0  0  0  0  0  3  0  0  0  0  0  0
   -0.0274    1.6406    2.4121 C   0  0  0  0  0  0  0  0  0  0  0  0
   -0.2721    2.3977    0.3998 H   0  0  0  0  0  0  0  0  0  0  0  0
    0.0136    2.5868    2.9476 H   0  0  0  0  0  0  0  0  0  0  0  0
    0.0604    0.7417    3.0154 H   0  0  0  0  0  0  0  0  0  0  0  0
   -0.2103   -0.8781    0.0334 C   0  0  0  0  0  0  0  0  0  0  0  0
    0.7345   -0.9434   -1.4714 S   0  0  0  0  0  0  0  0  0  0  0  0
   -0.2052    0.2896    0.5057 H   0  0  0  0  0  0  0  0  0  0  0  0
   -1.2512   -1.0975   -0.1935 H   0  0  0  0  0  0  0  0  0  0  0  0
    0.1688   -1.5248    0.8216 H   0  0  0  0  0  0  0  0  0  0  0  0
    1.9357   -0.7138   -0.9254 H   0  0  0  0  0  0  0  0  0  0  0  0
  1  2  2  3
  1  3  1  0
  2  4  1  0
  2  5  1  0
  6  7  1  0
  6  8  1  0
  6  9  1  0
  6 10  1  0
  7 11  1  0
M  RAD  1   1   2
M  END
>  <reaction>  (4) 
rxn_1833

>  <mol_properties>  (4) 
{"0": {"label": "*3", "atom_type": "Cd"}, "1": {"label": "*4", "atom_type": "Cd"}, "5": {"label": "*1", "atom_type": "Cs"}, "6": {"label": "*0", "atom_type": "S2s"}, "7": {"label": "*2", "atom_type": "H0"}}

>  <type>  (4) 
ts

$$$$

     RDKit          3D

 11  9  0  0  0  0  0  0  0  0999 V2000
    0.1646    1.4523    1.2326 C   0  0  0  0  0  0  0  0  0  0  0  0
   -0.8099    1.8929    2.0092 C   0  0  0  0  0  0  0  0  0  0  0  0
    1.2066    1.6268    1.4738 H   0  0  0  0  0  0  0  0  0  0  0  0
   -0.6062    2.4463    2.9183 H   0  0  0  0  0  0  0  0  0  0  0  0
   -1.8519    1.7184    1.7681 H   0  0  0  0  0  0  0  0  0  0  0  0
    0.1646   -0.9744    0.2830 C   0  0  0  0  0  3  0  0  0  0  0  0
    0.1646   -0.9744   -1.5277 S   0  0  0  0  0  0  0  0  0  0  0  0
    0.1646    0.2414    0.7588 H   0  0  0  0  0  0  0  0  0  0  0  0
   -0.7561   -1.4686    0.5889 H   0  0  0  0  0  0  0  0  0  0  0  0
    1.0090   -1.5344    0.6795 H   0  0  0  0  0  0  0  0  0  0  0  0
    1.3349   -0.3463   -1.6941 H   0  0  0  0  0  0  0  0  0  0  0  0
  1  2  2  3
  1  3  1  0
  1  8  1  0
  2  4  1  0
  2  5  1  0
  6  7  1  0
  6  9  1  0
  6 10  1  0
  7 11  1  0
M  RAD  1   6   2
M  END
>  <reaction>  (5) 
rxn_1833

>  <mol_properties>  (5) 
{"0": {"label": "*3", "atom_type": "Cd"}, "1": {"label": "*4", "atom_type": "Cd"}, "5": {"label": "*1", "atom_type": "Cs"}, "6": {"label": "*0", "atom_type": "S2s"}, "7": {"label": "*2", "atom_type": "H0"}}

>  <type>  (5) 
unop_1

>  <geom_source>  (5) 
Heuristics

$$$$

     RDKit          3D

 11  9  0  0  0  0  0  0  0  0999 V2000
    0.0938    1.3426    1.5056 C   0  0  0  0  0  0  0  0  0  0  0  0
   -0.4688    2.3434    0.8507 C   0  0  0  0  0  0  0  0  0  0  0  0
    0.3226    1.4122    2.5625 H   0  0  0  0  0  0  0  0  0  0  0  0
   -0.7240    3.2736    1.3444 H   0  0  0  0  0  0  0  0  0  0  0  0
   -0.6975    2.2738   -0.2062 H   0  0  0  0  0  0  0  0  0  0  0  0
    0.0938   -1.0841    0.5560 C   0  0  0  0  0  3  0  0  0  0  0  0
    0.0938   -1.0841   -1.2547 S   0  0  0  0  0  0  0  0  0  0  0  0
    0.0938    0.1317    1.0318 H   0  0  0  0  0  0  0  0  0  0  0  0
   -0.8268   -1.5783    0.8619 H   0  0  0  0  0  0  0  0  0  0  0  0
    0.9382   -1.6441    0.9525 H   0  0  0  0  0  0  0  0  0  0  0  0
    1.2641   -0.4560   -1.4211 H   0  0  0  0  0  0  0  0  0  0  0  0
  1  2  2  3
  1  3  1  0
  1  8  1  0
  2  4  1  0
  2  5  1  0
  6  7  1  0
  6  9  1  0
  6 10  1  0
  7 11  1  0
M  RAD  1   6   2
M  END
>  <reaction>  (6) 
rxn_1833

>  <mol_properties>  (6) 
{"0": {"label": "*3", "atom_type": "Cd"}, "1": {"label": "*4", "atom_type": "Cd"}, "5": {"label": "*1", "atom_type": "Cs"}, "6": {"label": "*0", "atom_type": "S2s"}, "7": {"label": "*2", "atom_type": "H0"}}

>  <type>  (6) 
unop_2

>  <geom_source>  (6) 
Heuristics

$$$$

     RDKit          3D

 11  9  0  0  0  0  0  0  0  0999 V2000
    0.0846    1.4781    1.1641 C   0  0  0  0  0  0  0  0  0  0  0  0
   -0.4781    1.7685    2.3243 C   0  0  0  0  0  0  0  0  0  0  0  0
    1.0044    1.9529    0.8438 H   0  0  0  0  0  0  0  0  0  0  0  0
   -0.0422    2.4932    3.0018 H   0  0  0  0  0  0  0  0  0  0  0  0
   -1.3980    1.2937    2.6446 H   0  0  0  0  0  0  0  0  0  0  0  0
    0.0846   -0.9487    0.2144 C   0  0  0  0  0  3  0  0  0  0  0  0
    0.0846   -0.9487   -1.5962 S   0  0  0  0  0  0  0  0  0  0  0  0
    0.0846    0.2671    0.6902 H   0  0  0  0  0  0  0  0  0  0  0  0
   -0.8361   -1.4428    0.5204 H   0  0  0  0  0  0  0  0  0  0  0  0
    0.9289   -1.5087    0.6109 H   0  0  0  0  0  0  0  0  0  0  0  0
    1.2549   -0.3206   -1.7626 H   0  0  0  0  0  0  0  0  0  0  0  0
  1  2  2  3
  1  3  1  0
  1  8  1  0
  2  4  1  0
  2  5  1  0
  6  7  1  0
  6  9  1  0
  6 10  1  0
  7 11  1  0
M  RAD  1   6   2
M  END
>  <reaction>  (7) 
rxn_1833

>  <mol_properties>  (7) 
{"0": {"label": "*3", "atom_type": "Cd"}, "1": {"label": "*4", "atom_type": "Cd"}, "5": {"label": "*1", "atom_type": "Cs"}, "6": {"label": "*0", "atom_type": "S2s"}, "7": {"label": "*2", "atom_type": "H0"}}

>  <type>  (7) 
unop_3

>  <geom_source>  (7) 
Heuristics

$$$$

     RDKit          3D

 11  9  0  0  0  0  0  0  0  0999 V2000
   -0.2009    1.3730    1.4310 C   0  0  0  0  0  0  0  0  0  0  0  0
    0.7736    2.2237    1.1597 C   0  0  0  0  0  0  0  0  0  0  0  0
   -0.7277    1.3953    2.3777 H   0  0  0  0  0  0  0  0  0  0  0  0
    1.0851    2.9776    1.8731 H   0  0  0  0  0  0  0  0  0  0  0  0
    1.3003    2.2014    0.2130 H   0  0  0  0  0  0  0  0  0  0  0  0
   -0.2009   -1.0537    0.4814 C   0  0  0  0  0  3  0  0  0  0  0  0
   -0.2009   -1.0537   -1.3293 S   0  0  0  0  0  0  0  0  0  0  0  0
   -0.2009    0.1621    0.9572 H   0  0  0  0  0  0  0  0  0  0  0  0
   -1.1216   -1.5479    0.7873 H   0  0  0  0  0  0  0  0  0  0  0  0
    0.6434   -1.6137    0.8779 H   0  0  0  0  0  0  0  0  0  0  0  0
    0.9694   -0.4256   -1.4957 H   0  0  0  0  0  0  0  0  0  0  0  0
  1  2  2  3
  1  3  1  0
  1  8  1  0
  2  4  1  0
  2  5  1  0
  6  7  1  0
  6  9  1  0
  6 10  1  0
  7 11  1  0
M  RAD  1   6   2
M  END
>  <reaction>  (8) 
rxn_1833

>  <mol_properties>  (8) 
{"0": {"label": "*3", "atom_type": "Cd"}, "1": {"label": "*4", "atom_type": "Cd"}, "5": {"label": "*1", "atom_type": "Cs"}, "6": {"label": "*0", "atom_type": "S2s"}, "7": {"label": "*2", "atom_type": "H0"}}

>  <type>  (8) 
unop_4

>  <geom_source>  (8) 
Heuristics

$$$$

     RDKit          3D

 11  9  0  0  0  0  0  0  0  0999 V2000
   -0.0147    1.4845    1.1417 C   0  0  0  0  0  0  0  0  0  0  0  0
   -0.0147    1.7200    2.4422 C   0  0  0  0  0  0  0  0  0  0  0  0
   -0.0147    2.2910    0.4180 H   0  0  0  0  0  0  0  0  0  0  0  0
   -0.0147    2.7292    2.8371 H   0  0  0  0  0  0  0  0  0  0  0  0
   -0.0147    0.9135    3.1659 H   0  0  0  0  0  0  0  0  0  0  0  0
   -0.0147   -0.9422    0.1920 C   0  0  0  0  0  3  0  0  0  0  0  0
   -0.0147   -0.9422   -1.6186 S   0  0  0  0  0  0  0  0  0  0  0  0
   -0.0147    0.2736    0.6678 H   0  0  0  0  0  0  0  0  0  0  0  0
   -0.9354   -1.4364    0.4980 H   0  0  0  0  0  0  0  0  0  0  0  0
    0.8297   -1.5022    0.5885 H   0  0  0  0  0  0  0  0  0  0  0  0
    1.1556   -0.3141   -1.7850 H   0  0  0  0  0  0  0  0  0  0  0  0
  1  2  2  3
  1  3  1  0
  1  8  1  0
  2  4  1  0
  2  5  1  0
  6  7  1  0
  6  9  1  0
  6 10  1  0
  7 11  1  0
M  RAD  1   6   2
M  END
>  <reaction>  (9) 
rxn_1833

>  <mol_properties>  (9) 
{"0": {"label": "*3", "atom_type": "Cd"}, "1": {"label": "*4", "atom_type": "Cd"}, "5": {"label": "*1", "atom_type": "Cs"}, "6": {"label": "*0", "atom_type": "S2s"}, "7": {"label": "*2", "atom_type": "H0"}}

>  <type>  (9) 
unop_5

>  <geom_source>  (9) 
Heuristics

$$$$

     RDKit          3D

 11  9  0  0  0  0  0  0  0  0999 V2000
   -0.2266    1.4135    1.3307 C   0  0  0  0  0  0  0  0  0  0  0  0
    0.8987    2.0591    1.5833 C   0  0  0  0  0  0  0  0  0  0  0  0
   -1.0696    1.4533    2.0103 H   0  0  0  0  0  0  0  0  0  0  0  0
    1.0235    2.6542    2.4803 H   0  0  0  0  0  0  0  0  0  0  0  0
    1.7418    2.0193    0.9037 H   0  0  0  0  0  0  0  0  0  0  0  0
   -0.2266   -1.0133    0.3810 C   0  0  0  0  0  3  0  0  0  0  0  0
   -0.2266   -1.0133   -1.4296 S   0  0  0  0  0  0  0  0  0  0  0  0
   -0.2266    0.2025    0.8568 H   0  0  0  0  0  0  0  0  0  0  0  0
   -1.1473   -1.5074    0.6870 H   0  0  0  0  0  0  0  0  0  0  0  0
    0.6178   -1.5733    0.7775 H   0  0  0  0  0  0  0  0  0  0  0  0
    0.9437   -0.3852   -1.5960 H   0  0  0  0  0  0  0  0  0  0  0  0
  1  2  2  3
  1  3  1  0
  1  8  1  0
  2  4  1  0
  2  5  1  0
  6  7  1  0
  6  9  1  0
  6 10  1  0
  7 11  1  0
M  RAD  1   6   2
M  END
>  <reaction>  (10) 
rxn_1833

>  <mol_properties>  (10) 
{"0": {"label": "*3", "atom_type": "Cd"}, "1": {"label": "*4", "atom_type": "Cd"}, "5": {"label": "*1", "atom_type": "Cs"}, "6": {"label": "*0", "atom_type": "S2s"}, "7": {"label": "*2", "atom_type": "H0"}}

>  <type>  (10) 
unop_6

>  <geom_source>  (10) 
Heuristics

$$$$

     RDKit          3D

 11  9  0  0  0  0  0  0  0  0999 V2000
   -0.1940    1.4523    1.2326 C   0  0  0  0  0  0  0  0  0  0  0  0
    0.7805    1.8929    2.0092 C   0  0  0  0  0  0  0  0  0  0  0  0
   -1.2359    1.6268    1.4738 H   0  0  0  0  0  0  0  0  0  0  0  0
    0.5768    2.4463    2.9183 H   0  0  0  0  0  0  0  0  0  0  0  0
    1.8225    1.7184    1.7681 H   0  0  0  0  0  0  0  0  0  0  0  0
   -0.1940   -0.9744    0.2830 C   0  0  0  0  0  3  0  0  0  0  0  0
   -0.1940   -0.9744   -1.5277 S   0  0  0  0  0  0  0  0  0  0  0  0
   -0.1940    0.2414    0.7588 H   0  0  0  0  0  0  0  0  0  0  0  0
   -1.1147   -1.4686    0.5889 H   0  0  0  0  0  0  0  0  0  0  0  0
    0.6504   -1.5344    0.6795 H   0  0  0  0  0  0  0  0  0  0  0  0
    0.9763   -0.3463   -1.6941 H   0  0  0  0  0  0  0  0  0  0  0  0
  1  2  2  3
  1  3  1  0
  1  8  1  0
  2  4  1  0
  2  5  1  0
  6  7  1  0
  6  9  1  0
  6 10  1  0
  7 11  1  0
M  RAD  1   6   2
M  END
>  <reaction>  (11) 
rxn_1833

>  <mol_properties>  (11) 
{"0": {"label": "*3", "atom_type": "Cd"}, "1": {"label": "*4", "atom_type": "Cd"}, "5": {"label": "*1", "atom_type": "Cs"}, "6": {"label": "*0", "atom_type": "S2s"}, "7": {"label": "*2", "atom_type": "H0"}}

>  <type>  (11) 
unop_7

>  <geom_source>  (11) 
Heuristics

$$$$

     RDKit          3D

 11  9  0  0  0  0  0  0  0  0999 V2000
    0.1972    1.4135    1.3307 C   0  0  0  0  0  0  0  0  0  0  0  0
   -0.9281    2.0591    1.5833 C   0  0  0  0  0  0  0  0  0  0  0  0
    1.0402    1.4533    2.0103 H   0  0  0  0  0  0  0  0  0  0  0  0
   -1.0529    2.6542    2.4803 H   0  0  0  0  0  0  0  0  0  0  0  0
   -1.7711    2.0193    0.9037 H   0  0  0  0  0  0  0  0  0  0  0  0
    0.1972   -1.0133    0.3810 C   0  0  0  0  0  3  0  0  0  0  0  0
    0.1972   -1.0133   -1.4296 S   0  0  0  0  0  0  0  0  0  0  0  0
    0.1972    0.2025    0.8568 H   0  0  0  0  0  0  0  0  0  0  0  0
   -0.7235   -1.5074    0.6870 H   0  0  0  0  0  0  0  0  0  0  0  0
    1.0416   -1.5733    0.7775 H   0  0  0  0  0  0  0  0  0  0  0  0
    1.3675   -0.3852   -1.5960 H   0  0  0  0  0  0  0  0  0  0  0  0
  1  2  2  3
  1  3  1  0
  1  8  1  0
  2  4  1  0
  2  5  1  0
  6  7  1  0
  6  9  1  0
  6 10  1  0
  7 11  1  0
M  RAD  1   6   2
M  END
>  <reaction>  (12) 
rxn_1833

>  <mol_properties>  (12) 
{"0": {"label": "*3", "atom_type": "Cd"}, "1": {"label": "*4", "atom_type": "Cd"}, "5": {"label": "*1", "atom_type": "Cs"}, "6": {"label": "*0", "atom_type": "S2s"}, "7": {"label": "*2", "atom_type": "H0"}}

>  <type>  (12) 
unop_8

>  <geom_source>  (12) 
Heuristics

$$$$

     RDKit          3D

 11  9  0  0  0  0  0  0  0  0999 V2000
   -0.1232    1.3426    1.5056 C   0  0  0  0  0  0  0  0  0  0  0  0
    0.4394    2.3434    0.8507 C   0  0  0  0  0  0  0  0  0  0  0  0
   -0.3520    1.4122    2.5625 H   0  0  0  0  0  0  0  0  0  0  0  0
    0.6946    3.2736    1.3444 H   0  0  0  0  0  0  0  0  0  0  0  0
    0.6681    2.2738   -0.2062 H   0  0  0  0  0  0  0  0  0  0  0  0
   -0.1232   -1.0841    0.5560 C   0  0  0  0  0  3  0  0  0  0  0  0
   -0.1232   -1.0841   -1.2547 S   0  0  0  0  0  0  0  0  0  0  0  0
   -0.1232    0.1317    1.0318 H   0  0  0  0  0  0  0  0  0  0  0  0
   -1.0439   -1.5783    0.8619 H   0  0  0  0  0  0  0  0  0  0  0  0
    0.7211   -1.6441    0.9525 H   0  0  0  0  0  0  0  0  0  0  0  0
    1.0471   -0.4560   -1.4211 H   0  0  0  0  0  0  0  0  0  0  0  0
  1  2  2  3
  1  3  1  0
  1  8  1  0
  2  4  1  0
  2  5  1  0
  6  7  1  0
  6  9  1  0
  6 10  1  0
  7 11  1  0
M  RAD  1   6   2
M  END
>  <reaction>  (13) 
rxn_1833

>  <mol_properties>  (13) 
{"0": {"label": "*3", "atom_type": "Cd"}, "1": {"label": "*4", "atom_type": "Cd"}, "5": {"label": "*1", "atom_type": "Cs"}, "6": {"label": "*0", "atom_type": "S2s"}, "7": {"label": "*2", "atom_type": "H0"}}

>  <type>  (13) 
unop_9

>  <geom_source>  (13) 
Heuristics

$$$$

     RDKit          3D

 11  9  0  0  0  0  0  0  0  0999 V2000
    0.1715    1.3730    1.4310 C   0  0  0  0  0  0  0  0  0  0  0  0
   -0.8030    2.2237    1.1597 C   0  0  0  0  0  0  0  0  0  0  0  0
    0.6983    1.3953    2.3777 H   0  0  0  0  0  0  0  0  0  0  0  0
   -1.1145    2.9776    1.8731 H   0  0  0  0  0  0  0  0  0  0  0  0
   -1.3297    2.2014    0.2130 H   0  0  0  0  0  0  0  0  0  0  0  0
    0.1715   -1.0537    0.4814 C   0  0  0  0  0  3  0  0  0  0  0  0
    0.1715   -1.0537   -1.3293 S   0  0  0  0  0  0  0  0  0  0  0  0
    0.1715    0.1621    0.9572 H   0  0  0  0  0  0  0  0  0  0  0  0
   -0.7491   -1.5479    0.7873 H   0  0  0  0  0  0  0  0  0  0  0  0
    1.0159   -1.6137    0.8779 H   0  0  0  0  0  0  0  0  0  0  0  0
    1.3418   -0.4256   -1.4957 H   0  0  0  0  0  0  0  0  0  0  0  0
  1  2  2  3
  1  3  1  0
  1  8  1  0
  2  4  1  0
  2  5  1  0
  6  7  1  0
  6  9  1  0
  6 10  1  0
  7 11  1  0
M  RAD  1   6   2
M  END
>  <reaction>  (14) 
rxn_1833

>  <mol_properties>  (14) 
{"0": {"label": "*3", "atom_type": "Cd"}, "1": {"label": "*4", "atom_type": "Cd"}, "5": {"label": "*1", "atom_type": "Cs"}, "6": {"label": "*0", "atom_type": "S2s"}, "7": {"label": "*2", "atom_type": "H0"}}

>  <type>  (14) 
unop_10

>  <geom_source>  (14) 
Heuristics

$$$$

     RDKit          3D

 11  9  0  0  0  0  0  0  0  0999 V2000
   -0.1139    1.4781    1.1641 C   0  0  0  0  0  0  0  0  0  0  0  0
    0.4487    1.7685    2.3243 C   0  0  0  0  0  0  0  0  0  0  0  0
   -1.0338    1.9529    0.8438 H   0  0  0  0  0  0  0  0  0  0  0  0
    0.0128    2.4932    3.0018 H   0  0  0  0  0  0  0  0  0  0  0  0
    1.3686    1.2937    2.6446 H   0  0  0  0  0  0  0  0  0  0  0  0
   -0.1139   -0.9487    0.2144 C   0  0  0  0  0  3  0  0  0  0  0  0
   -0.1139   -0.9487   -1.5962 S   0  0  0  0  0  0  0  0  0  0  0  0
   -0.1139    0.2671    0.6902 H   0  0  0  0  0  0  0  0  0  0  0  0
   -1.0346   -1.4428    0.5204 H   0  0  0  0  0  0  0  0  0  0  0  0
    0.7304   -1.5087    0.6109 H   0  0  0  0  0  0  0  0  0  0  0  0
    1.0564   -0.3206   -1.7626 H   0  0  0  0  0  0  0  0  0  0  0  0
  1  2  2  3
  1  3  1  0
  1  8  1  0
  2  4  1  0
  2  5  1  0
  6  7  1  0
  6  9  1  0
  6 10  1  0
  7 11  1  0
M  RAD  1   6   2
M  END
>  <reaction>  (15) 
rxn_1833

>  <mol_properties>  (15) 
{"0": {"label": "*3", "atom_type": "Cd"}, "1": {"label": "*4", "atom_type": "Cd"}, "5": {"label": "*1", "atom_type": "Cs"}, "6": {"label": "*0", "atom_type": "S2s"}, "7": {"label": "*2", "atom_type": "H0"}}

>  <type>  (15) 
unop_11

>  <geom_source>  (15) 
Heuristics

$$$$

     RDKit          3D

 11  9  0  0  0  0  0  0  0  0999 V2000
   -0.0147    1.3313    1.5332 C   0  0  0  0  0  0  0  0  0  0  0  0
   -0.0147    2.3870    0.7379 C   0  0  0  0  0  0  0  0  0  0  0  0
   -0.0147    1.4324    2.6121 H   0  0  0  0  0  0  0  0  0  0  0  0
   -0.0147    3.3961    1.1328 H   0  0  0  0  0  0  0  0  0  0  0  0
   -0.0147    2.2859   -0.3410 H   0  0  0  0  0  0  0  0  0  0  0  0
   -0.0147   -1.0955    0.5835 C   0  0  0  0  0  3  0  0  0  0  0  0
   -0.0147   -1.0955   -1.2271 S   0  0  0  0  0  0  0  0  0  0  0  0
   -0.0147    0.1204    1.0593 H   0  0  0  0  0  0  0  0  0  0  0  0
   -0.9354   -1.5896    0.8895 H   0  0  0  0  0  0  0  0  0  0  0  0
    0.8297   -1.6555    0.9800 H   0  0  0  0  0  0  0  0  0  0  0  0
    1.1556   -0.4673   -1.3935 H   0  0  0  0  0  0  0  0  0  0  0  0
  1  2  2  3
  1  3  1  0
  1  8  1  0
  2  4  1  0
  2  5  1  0
  6  7  1  0
  6  9  1  0
  6 10  1  0
  7 11  1  0
M  RAD  1   6   2
M  END
>  <reaction>  (16) 
rxn_1833

>  <mol_properties>  (16) 
{"0": {"label": "*3", "atom_type": "Cd"}, "1": {"label": "*4", "atom_type": "Cd"}, "5": {"label": "*1", "atom_type": "Cs"}, "6": {"label": "*0", "atom_type": "S2s"}, "7": {"label": "*2", "atom_type": "H0"}}

>  <type>  (16) 
unop_12

>  <geom_source>  (16) 
Heuristics

$$$$

     RDKit          3D

 11  9  0  0  0  0  0  0  0  0999 V2000
    2.2596    0.8413    0.7125 S   0  0  0  0  0  0  0  0  0  0  0  0
   -2.0279    0.3130    0.1582 C   0  0  0  0  0  0  0  0  0  0  0  0
   -1.0178   -0.5500    0.2307 C   0  0  0  0  0  0  0  0  0  0  0  0
    1.3339    0.0660   -0.6415 C   0  0  0  0  0  3  0  0  0  0  0  0
   -2.8925    0.1991    0.8040 H   0  0  0  0  0  0  0  0  0  0  0  0
   -1.9910    1.1354   -0.5482 H   0  0  0  0  0  0  0  0  0  0  0  0
   -1.0514   -1.3738    0.9363 H   0  0  0  0  0  0  0  0  0  0  0  0
   -0.0264   -0.4160   -0.5126 H   0  0  0  0  0  0  0  0  0  0  0  0
    1.9799   -0.6738   -1.1581 H   0  0  0  0  0  0  0  0  0  0  0  0
    1.0153    0.8449   -1.3643 H   0  0  0  0  0  0  0  0  0  0  0  0
    2.4184   -0.3862    1.3828 H   0  0  0  0  0  0  0  0  0  0  0  0
  1  4  1  0
  1 11  1  0
  2  3  2  3
  2  5  1  0
  2  6  1  0
  3  7  1  0
  3  8  1  0
  4  9  1  0
  4 10  1  0
M  RAD  1   4   2
M  END
>  <reaction>  (17) 
rxn_1833

>  <mol_properties>  (17) 
{"0": {"label": "*3", "atom_type": "Cd"}, "1": {"label": "*4", "atom_type": "Cd"}, "5": {"label": "*1", "atom_type": "Cs"}, "6": {"label": "*0", "atom_type": "S2s"}, "7": {"label": "*2", "atom_type": "H0"}}

>  <type>  (17) 
unop_13

>  <geom_source>  (17) 
AutoTST

$$$$
