
     RDKit          3D

  7  6  0  0  0  0  0  0  0  0999 V2000
   -0.6468   -0.0443   -0.0231 C   0  0  0  0  0  0  0  0  0  0  0  0
    0.8470    0.0371    0.0688 C   0  0  0  0  0  0  0  0  0  0  0  0
    1.4866   -0.2280    1.0479 O   0  0  0  0  0  0  0  0  0  0  0  0
   -1.0466    0.9363   -0.2943 H   0  0  0  0  0  0  0  0  0  0  0  0
   -0.9229   -0.7318   -0.8269 H   0  0  0  0  0  0  0  0  0  0  0  0
   -1.0759   -0.3772    0.9198 H   0  0  0  0  0  0  0  0  0  0  0  0
    1.3584    0.3712   -0.8589 H   0  0  0  0  0  0  0  0  0  0  0  0
  1  2  1  0
  1  4  1  0
  1  5  1  0
  1  6  1  0
  2  3  2  0
  2  7  1  0
M  END
>  <reaction>  (1) 
rxn_235

>  <mol_properties>  (1) 
{"0": {"label": "donator", "atom_type": "Cs"}, "3": {"label": "d_hydrogen", "atom_type": "H0"}}

>  <type>  (1) 
r1h

$$$$

     RDKit          3D

  1  0  0  0  0  0  0  0  0  0999 V2000
    0.0000    0.0000    0.0000 H   0  0  0  0  0 15  0  0  0  0  0  0
M  END
>  <reaction>  (2) 
rxn_235

>  <mol_properties>  (2) 
{"0": {"label": "acceptor", "atom_type": "H0"}}

>  <type>  (2) 
r2

$$$$

     RDKit          3D

  2  1  0  0  0  0  0  0  0  0999 V2000
    0.0000    0.0000    0.3721 H   0  0  0  0  0  0  0  0  0  0  0  0
    0.0000    0.0000   -0.3721 H   0  0  0  0  0  0  0  0  0  0  0  0
  1  2  1  0
M  END
>  <reaction>  (3) 
rxn_235

>  <mol_properties>  (3) 
{"0": {"label": "a_hydrogen", "atom_type": "H0"}, "1": {"label": "acceptor", "atom_type": "H0"}}

>  <type>  (3) 
r2h

$$$$

     RDKit          3D

  8  6  0  0  0  0  0  0  0  0999 V2000
    0.1173    0.7662    0.9210 C   0  0  0  0  0  0  0  0  0  0  0  0
    0.0580   -0.4430    0.0724 C   0  0  0  0  0  0  0  0  0  0  0  0
   -0.2783   -0.4358   -1.0831 O   0  0  0  0  0  0  0  0  0  0  0  0
   -0.9632    0.7707    1.5746 H   0  0  0  0  0  0  0  0  0  0  0  0
    0.8682    0.7358    1.7076 H   0  0  0  0  0  0  0  0  0  0  0  0
    0.0897    1.6989    0.3642 H   0  0  0  0  0  0  0  0  0  0  0  0
    0.3205   -1.3947    0.5763 H   0  0  0  0  0  0  0  0  0  0  0  0
   -1.8096    0.8631    2.1222 H   0  0  0  0  0 15  0  0  0  0  0  0
  1  2  1  0
  1  4  1  0
  1  5  1  0
  1  6  1  0
  2  3  2  0
  2  7  1  0
M  END
>  <reaction>  (4) 
rxn_235

>  <mol_properties>  (4) 
{"0": {"label": "*3", "atom_type": "Cs"}, "1": {"label": "*4", "atom_type": "CO"}, "3": {"label": "*2", "atom_type": "H0"}, "7": {"label": "*1", "atom_type": "H0"}}

>  <type>  (4) 
ts

$$$$

     RDKit          3D

  8  6  0  0  0  0  0  0  0  0999 V2000
    0.0435    0.7958    0.9155 C   0  0  0  0  0  0  0  0  0  0  0  0
    0.0435   -0.4361    0.0618 C   0  0  0  0  0  0  0  0  0  0  0  0
    0.0435   -0.4361   -1.1374 O   0  0  0  0  0  0  0  0  0  0  0  0
   -1.0097    0.7823    1.6973 H   0  0  0  0  0  0  0  0  0  0  0  0
    0.9212    0.7845    1.5671 H   0  0  0  0  0  0  0  0  0  0  0  0
    0.0436    1.6937    0.3009 H   0  0  0  0  0  0  0  0  0  0  0  0
    0.0435   -1.3961    0.6204 H   0  0  0  0  0  0  0  0  0  0  0  0
   -1.7267    0.7731    2.2296 H   0  0  0  0  0 15  0  0  0  0  0  0
  1  2  1  0
  1  4  1  0
  1  5  1  0
  1  6  1  0
  2  3  2  0
  2  7  1  0
M  END
>  <reaction>  (5) 
rxn_235

>  <mol_properties>  (5) 
{"0": {"label": "*3", "atom_type": "Cs"}, "1": {"label": "*4", "atom_type": "CO"}, "3": {"label": "*2", "atom_type": "H0"}, "7": {"label": "*1", "atom_type": "H0"}}

>  <type>  (5) 
unop_1

>  <geom_source>  (5) 
Heuristics

$$$$

     RDKit          3D

  8  6  0  0  0  0  0  0  0  0999 V2000
   -1.3240   -1.1174   -0.6523 O   0  0  0  0  0  0  0  0  0  0  0  0
    0.2990    0.4926   -0.0974 C   0  0  0  0  0  0  0  0  0  0  0  0
   -0.9542   -0.2776    0.1513 C   0  0  0  0  0  0  0  0  0  0  0  0
    0.4956    1.1813    0.7507 H   0  0  0  0  0  0  0  0  0  0  0  0
    0.1993    1.0819   -1.0329 H   0  0  0  0  0  0  0  0  0  0  0  0
   -1.5371   -0.0974    1.0487 H   0  0  0  0  0  0  0  0  0  0  0  0
    1.7856   -1.1450   -0.2118 H   0  0  0  0  0 15  0  0  0  0  0  0
    1.0359   -0.1183    0.0437 H   0  0  0  0  0  0  0  0  0  0  0  0
  1  3  2  0
  2  3  1  0
  2  4  1  0
  2  5  1  0
  2  8  1  0
  3  6  1  0
M  END
>  <reaction>  (6) 
rxn_235

>  <mol_properties>  (6) 
{"0": {"label": "*3", "atom_type": "Cs"}, "1": {"label": "*4", "atom_type": "CO"}, "3": {"label": "*2", "atom_type": "H0"}, "7": {"label": "*1", "atom_type": "H0"}}

>  <type>  (6) 
unop_2

>  <geom_source>  (6) 
AutoTST

$$$$
