
     RDKit          3D

  6  5  0  0  0  0  0  0  0  0999 V2000
   -0.3669    0.0060    0.0609 C   0  0  0  0  0  0  0  0  0  0  0  0
    0.9818   -0.0507    0.4695 O   0  0  0  0  0  0  0  0  0  0  0  0
   -0.6066    0.9462   -0.4488 H   0  0  0  0  0  0  0  0  0  0  0  0
   -0.5221   -0.8115   -0.6420 H   0  0  0  0  0  0  0  0  0  0  0  0
   -1.0602   -0.1268    0.8992 H   0  0  0  0  0  0  0  0  0  0  0  0
    1.1451    0.6595    1.0897 H   0  0  0  0  0  0  0  0  0  0  0  0
  1  2  1  0
  1  3  1  0
  1  4  1  0
  1  5  1  0
  2  6  1  0
M  END
>  <reaction>  (1) 
rxn_3212

>  <mol_properties>  (1) 
{"0": {"label": "donator", "atom_type": "Cs"}, "2": {"label": "d_hydrogen", "atom_type": "H0"}}

>  <type>  (1) 
r1h

$$$$

     RDKit          3D

  7  6  0  0  0  0  0  0  0  0999 V2000
   -1.3059    0.5497   -0.1304 N   0  0  0  0  0  2  0  0  0  0  0  0
   -0.2700   -0.4288    0.0448 C   0  0  0  0  0  0  0  0  0  0  0  0
    1.1109    0.0669    0.0401 C   0  0  0  0  0  0  0  0  0  0  0  0
    2.1758    0.4925    0.0308 N   0  0  0  0  0  0  0  0  0  0  0  0
   -0.8815    1.4733   -0.2339 H   0  0  0  0  0  0  0  0  0  0  0  0
   -0.3767   -1.1909   -0.7373 H   0  0  0  0  0  0  0  0  0  0  0  0
   -0.4527   -0.9628    0.9858 H   0  0  0  0  0  0  0  0  0  0  0  0
  1  2  1  0
  1  5  1  0
  2  3  1  0
  2  6  1  0
  2  7  1  0
  3  4  3  0
M  RAD  1   1   2
M  END
>  <reaction>  (2) 
rxn_3212

>  <mol_properties>  (2) 
{"0": {"label": "acceptor", "atom_type": "N3s"}}

>  <type>  (2) 
r2

$$$$

     RDKit          3D

  8  7  0  0  0  0  0  0  0  0999 V2000
   -1.0805    0.5317    0.0204 N   0  0  0  0  0  0  0  0  0  0  0  0
   -0.1080   -0.5393    0.0956 C   0  0  0  0  0  0  0  0  0  0  0  0
    1.2945   -0.1247   -0.1005 C   0  0  0  0  0  0  0  0  0  0  0  0
    2.3714    0.2386   -0.2580 N   0  0  0  0  0  0  0  0  0  0  0  0
   -1.0516    0.9857   -0.8822 H   0  0  0  0  0  0  0  0  0  0  0  0
   -0.9009    1.2352    0.7235 H   0  0  0  0  0  0  0  0  0  0  0  0
   -0.3427   -1.2965   -0.6542 H   0  0  0  0  0  0  0  0  0  0  0  0
   -0.1810   -1.0288    1.0680 H   0  0  0  0  0  0  0  0  0  0  0  0
  1  2  1  0
  1  5  1  0
  1  6  1  0
  2  3  1  0
  2  7  1  0
  2  8  1  0
  3  4  3  0
M  END
>  <reaction>  (3) 
rxn_3212

>  <mol_properties>  (3) 
{"0": {"label": "acceptor", "atom_type": "N3s"}, "7": {"label": "a_hydrogen", "atom_type": "H0"}}

>  <type>  (3) 
r2h

$$$$

     RDKit          3D

 13 11  0  0  0  0  0  0  0  0999 V2000
   -0.6123    0.5134    1.6091 N   0  0  0  0  0  2  0  0  0  0  0  0
   -0.5236    1.3568    0.4331 C   0  0  0  0  0  0  0  0  0  0  0  0
    0.6548    1.1021   -0.4126 C   0  0  0  0  0  0  0  0  0  0  0  0
    1.5755    0.8223   -1.0394 N   0  0  0  0  0  0  0  0  0  0  0  0
    0.2965    0.5168    2.0730 H   0  0  0  0  0  0  0  0  0  0  0  0
   -0.5052    2.4101    0.7337 H   0  0  0  0  0  0  0  0  0  0  0  0
   -1.4129    1.2146   -0.1836 H   0  0  0  0  0  0  0  0  0  0  0  0
   -0.4387   -1.8457    0.4686 C   0  0  0  0  0  0  0  0  0  0  0  0
   -0.5990   -1.6495   -0.8860 O   0  0  0  0  0  0  0  0  0  0  0  0
   -0.5919   -0.7616    1.0956 H   0  0  0  0  0  0  0  0  0  0  0  0
   -1.2459   -2.4704    0.8468 H   0  0  0  0  0  0  0  0  0  0  0  0
    0.5481   -2.2142    0.7604 H   0  0  0  0  0  0  0  0  0  0  0  0
    0.2029   -1.2642   -1.2517 H   0  0  0  0  0  0  0  0  0  0  0  0
  1  2  1  0
  1  5  1  0
  2  3  1  0
  2  6  1  0
  2  7  1  0
  3  4  3  0
  8  9  1  0
  8 10  1  0
  8 11  1  0
  8 12  1  0
  9 13  1  0
M  RAD  1   1   2
M  END
>  <reaction>  (4) 
rxn_3212

>  <mol_properties>  (4) 
{"0": {"label": "*3", "atom_type": "N3s"}, "1": {"label": "*4", "atom_type": "Cs"}, "7": {"label": "*1", "atom_type": "Cs"}, "8": {"label": "*0", "atom_type": "O2s"}, "9": {"label": "*2", "atom_type": "H0"}}

>  <type>  (4) 
ts

$$$$

     RDKit          3D

 13 11  0  0  0  0  0  0  0  0999 V2000
    0.9760    0.4105    0.5046 N   0  0  0  0  0  0  0  0  0  0  0  0
   -0.1948    0.6363    1.3272 C   0  0  0  0  0  0  0  0  0  0  0  0
   -1.2654    1.4248    0.6872 C   0  0  0  0  0  0  0  0  0  0  0  0
   -2.0733    2.0408    0.1538 N   0  0  0  0  0  0  0  0  0  0  0  0
    1.4034    1.2853    0.2334 H   0  0  0  0  0  0  0  0  0  0  0  0
    0.0988    1.1501    2.2439 H   0  0  0  0  0  0  0  0  0  0  0  0
   -0.6181   -0.3232    1.6281 H   0  0  0  0  0  0  0  0  0  0  0  0
    0.9760   -1.9295   -0.4522 C   0  0  0  0  0  3  0  0  0  0  0  0
    0.9760   -1.9295   -1.8625 O   0  0  0  0  0  0  0  0  0  0  0  0
    0.9760   -0.7122    0.0456 H   0  0  0  0  0  0  0  0  0  0  0  0
    0.0615   -2.4278   -0.1330 H   0  0  0  0  0  0  0  0  0  0  0  0
    1.8284   -2.4795   -0.0374 H   0  0  0  0  0  0  0  0  0  0  0  0
    1.7719   -1.4958   -2.1698 H   0  0  0  0  0  0  0  0  0  0  0  0
  1  2  1  0
  1  5  1  0
  1 10  1  0
  2  3  1  0
  2  6  1  0
  2  7  1  0
  3  4  3  0
  8  9  1  0
  8 11  1  0
  8 12  1  0
  9 13  1  0
M  RAD  1   8   2
M  END
>  <reaction>  (5) 
rxn_3212

>  <mol_properties>  (5) 
{"0": {"label": "*3", "atom_type": "N3s"}, "1": {"label": "*4", "atom_type": "Cs"}, "7": {"label": "*1", "atom_type": "Cs"}, "8": {"label": "*0", "atom_type": "O2s"}, "9": {"label": "*2", "atom_type": "H0"}}

>  <type>  (5) 
unop_1

>  <geom_source>  (5) 
Heuristics

$$$$

     RDKit          3D

 13 11  0  0  0  0  0  0  0  0999 V2000
   -0.0372    0.2294    1.5042 N   0  0  0  0  0  0  0  0  0  0  0  0
   -0.7132    1.1542    0.6174 C   0  0  0  0  0  0  0  0  0  0  0  0
    0.0859    1.6111   -0.5358 C   0  0  0  0  0  0  0  0  0  0  0  0
    0.7403    1.9418   -1.4185 N   0  0  0  0  0  0  0  0  0  0  0  0
    0.7969    0.6453    1.8952 H   0  0  0  0  0  0  0  0  0  0  0  0
   -1.0251    2.0353    1.1804 H   0  0  0  0  0  0  0  0  0  0  0  0
   -1.6229    0.6901    0.2333 H   0  0  0  0  0  0  0  0  0  0  0  0
   -0.0372   -2.1105    0.5475 C   0  0  0  0  0  3  0  0  0  0  0  0
   -0.0372   -2.1105   -0.8629 O   0  0  0  0  0  0  0  0  0  0  0  0
   -0.0372   -0.8932    1.0452 H   0  0  0  0  0  0  0  0  0  0  0  0
   -0.9517   -2.6088    0.8667 H   0  0  0  0  0  0  0  0  0  0  0  0
    0.8152   -2.6605    0.9623 H   0  0  0  0  0  0  0  0  0  0  0  0
    0.7587   -1.6769   -1.1701 H   0  0  0  0  0  0  0  0  0  0  0  0
  1  2  1  0
  1  5  1  0
  1 10  1  0
  2  3  1  0
  2  6  1  0
  2  7  1  0
  3  4  3  0
  8  9  1  0
  8 11  1  0
  8 12  1  0
  9 13  1  0
M  RAD  1   8   2
M  END
>  <reaction>  (6) 
rxn_3212

>  <mol_properties>  (6) 
{"0": {"label": "*3", "atom_type": "N3s"}, "1": {"label": "*4", "atom_type": "Cs"}, "7": {"label": "*1", "atom_type": "Cs"}, "8": {"label": "*0", "atom_type": "O2s"}, "9": {"label": "*2", "atom_type": "H0"}}

>  <type>  (6) 
unop_2

>  <geom_source>  (6) 
Heuristics

$$$$

     RDKit          3D

 13 11  0  0  0  0  0  0  0  0999 V2000
    0.9076    0.7016    0.0546 N   0  0  0  0  0  0  0  0  0  0  0  0
    0.2316    0.7402    1.3352 C   0  0  0  0  0  0  0  0  0  0  0  0
   -1.2122    1.0381    1.2709 C   0  0  0  0  0  0  0  0  0  0  0  0
   -2.3316    1.2724    1.1776 N   0  0  0  0  0  0  0  0  0  0  0  0
    0.8310    1.5889   -0.4233 H   0  0  0  0  0  0  0  0  0  0  0  0
    0.7018    1.4913    1.9718 H   0  0  0  0  0  0  0  0  0  0  0  0
    0.3546   -0.2193    1.8401 H   0  0  0  0  0  0  0  0  0  0  0  0
    0.9076   -1.6384   -0.9022 C   0  0  0  0  0  3  0  0  0  0  0  0
    0.9076   -1.6384   -2.3126 O   0  0  0  0  0  0  0  0  0  0  0  0
    0.9076   -0.4211   -0.4045 H   0  0  0  0  0  0  0  0  0  0  0  0
   -0.0069   -2.1367   -0.5830 H   0  0  0  0  0  0  0  0  0  0  0  0
    1.7600   -2.1884   -0.4874 H   0  0  0  0  0  0  0  0  0  0  0  0
    1.7034   -1.2047   -2.6198 H   0  0  0  0  0  0  0  0  0  0  0  0
  1  2  1  0
  1  5  1  0
  1 10  1  0
  2  3  1  0
  2  6  1  0
  2  7  1  0
  3  4  3  0
  8  9  1  0
  8 11  1  0
  8 12  1  0
  9 13  1  0
M  RAD  1   8   2
M  END
>  <reaction>  (7) 
rxn_3212

>  <mol_properties>  (7) 
{"0": {"label": "*3", "atom_type": "N3s"}, "1": {"label": "*4", "atom_type": "Cs"}, "7": {"label": "*1", "atom_type": "Cs"}, "8": {"label": "*0", "atom_type": "O2s"}, "9": {"label": "*2", "atom_type": "H0"}}

>  <type>  (7) 
unop_3

>  <geom_source>  (7) 
Heuristics

$$$$

     RDKit          3D

 13 11  0  0  0  0  0  0  0  0999 V2000
   -1.0437    0.8633    0.9433 N   0  0  0  0  0  0  0  0  0  0  0  0
    0.1271    1.6008    0.5145 C   0  0  0  0  0  0  0  0  0  0  0  0
    1.3021    0.7712    0.1853 C   0  0  0  0  0  0  0  0  0  0  0  0
    2.1926    0.0907   -0.0608 N   0  0  0  0  0  0  0  0  0  0  0  0
   -0.8478    0.3222    1.7741 H   0  0  0  0  0  0  0  0  0  0  0  0
    0.4202    2.3036    1.2960 H   0  0  0  0  0  0  0  0  0  0  0  0
   -0.1208    2.1967   -0.3653 H   0  0  0  0  0  0  0  0  0  0  0  0
   -1.0437   -1.4767   -0.0135 C   0  0  0  0  0  3  0  0  0  0  0  0
   -1.0437   -1.4767   -1.4238 O   0  0  0  0  0  0  0  0  0  0  0  0
   -1.0437   -0.2593    0.4842 H   0  0  0  0  0  0  0  0  0  0  0  0
   -1.9582   -1.9749    0.3057 H   0  0  0  0  0  0  0  0  0  0  0  0
   -0.1913   -2.0266    0.4013 H   0  0  0  0  0  0  0  0  0  0  0  0
   -0.2478   -1.0430   -1.7311 H   0  0  0  0  0  0  0  0  0  0  0  0
  1  2  1  0
  1  5  1  0
  1 10  1  0
  2  3  1  0
  2  6  1  0
  2  7  1  0
  3  4  3  0
  8  9  1  0
  8 11  1  0
  8 12  1  0
  9 13  1  0
M  RAD  1   8   2
M  END
>  <reaction>  (8) 
rxn_3212

>  <mol_properties>  (8) 
{"0": {"label": "*3", "atom_type": "N3s"}, "1": {"label": "*4", "atom_type": "Cs"}, "7": {"label": "*1", "atom_type": "Cs"}, "8": {"label": "*0", "atom_type": "O2s"}, "9": {"label": "*2", "atom_type": "H0"}}

>  <type>  (8) 
unop_4

>  <geom_source>  (8) 
Heuristics

$$$$

     RDKit          3D

 13 11  0  0  0  0  0  0  0  0999 V2000
    0.4827    1.1469   -0.3059 N   0  0  0  0  0  0  0  0  0  0  0  0
    0.4827    1.1169    1.1424 C   0  0  0  0  0  0  0  0  0  0  0  0
   -0.6738    0.4336    1.7532 C   0  0  0  0  0  0  0  0  0  0  0  0
   -1.5883   -0.1058    2.1882 N   0  0  0  0  0  0  0  0  0  0  0  0
   -0.3360    1.6229   -0.6592 H   0  0  0  0  0  0  0  0  0  0  0  0
    0.5115    2.1376    1.5270 H   0  0  0  0  0  0  0  0  0  0  0  0
    1.3896    0.6237    1.4956 H   0  0  0  0  0  0  0  0  0  0  0  0
    0.4827   -1.1931   -1.2627 C   0  0  0  0  0  3  0  0  0  0  0  0
    0.4827   -1.1931   -2.6730 O   0  0  0  0  0  0  0  0  0  0  0  0
    0.4827    0.0243   -0.7649 H   0  0  0  0  0  0  0  0  0  0  0  0
   -0.4318   -1.6914   -0.9435 H   0  0  0  0  0  0  0  0  0  0  0  0
    1.3351   -1.7431   -0.8479 H   0  0  0  0  0  0  0  0  0  0  0  0
    1.2786   -0.7594   -2.9803 H   0  0  0  0  0  0  0  0  0  0  0  0
  1  2  1  0
  1  5  1  0
  1 10  1  0
  2  3  1  0
  2  6  1  0
  2  7  1  0
  3  4  3  0
  8  9  1  0
  8 11  1  0
  8 12  1  0
  9 13  1  0
M  RAD  1   8   2
M  END
>  <reaction>  (9) 
rxn_3212

>  <mol_properties>  (9) 
{"0": {"label": "*3", "atom_type": "N3s"}, "1": {"label": "*4", "atom_type": "Cs"}, "7": {"label": "*1", "atom_type": "Cs"}, "8": {"label": "*0", "atom_type": "O2s"}, "9": {"label": "*2", "atom_type": "H0"}}

>  <type>  (9) 
unop_5

>  <geom_source>  (9) 
Heuristics

$$$$

     RDKit          3D

 13 11  0  0  0  0  0  0  0  0999 V2000
   -1.0656    1.0740    0.5050 N   0  0  0  0  0  0  0  0  0  0  0  0
    0.2864    1.5557    0.7019 C   0  0  0  0  0  0  0  0  0  0  0  0
    1.3250    0.5079    0.7302 C   0  0  0  0  0  0  0  0  0  0  0  0
    2.1016   -0.3366    0.7460 N   0  0  0  0  0  0  0  0  0  0  0  0
   -1.3358    0.4389    1.2432 H   0  0  0  0  0  0  0  0  0  0  0  0
    0.3418    2.1093    1.6405 H   0  0  0  0  0  0  0  0  0  0  0  0
    0.5406    2.2597   -0.0920 H   0  0  0  0  0  0  0  0  0  0  0  0
   -1.0656   -1.2659   -0.4518 C   0  0  0  0  0  3  0  0  0  0  0  0
   -1.0656   -1.2659   -1.8621 O   0  0  0  0  0  0  0  0  0  0  0  0
   -1.0656   -0.0486    0.0460 H   0  0  0  0  0  0  0  0  0  0  0  0
   -1.9801   -1.7642   -0.1326 H   0  0  0  0  0  0  0  0  0  0  0  0
   -0.2132   -1.8159   -0.0370 H   0  0  0  0  0  0  0  0  0  0  0  0
   -0.2697   -0.8323   -2.1694 H   0  0  0  0  0  0  0  0  0  0  0  0
  1  2  1  0
  1  5  1  0
  1 10  1  0
  2  3  1  0
  2  6  1  0
  2  7  1  0
  3  4  3  0
  8  9  1  0
  8 11  1  0
  8 12  1  0
  9 13  1  0
M  RAD  1   8   2
M  END
>  <reaction>  (10) 
rxn_3212

>  <mol_properties>  (10) 
{"0": {"label": "*3", "atom_type": "N3s"}, "1": {"label": "*4", "atom_type": "Cs"}, "7": {"label": "*1", "atom_type": "Cs"}, "8": {"label": "*0", "atom_type": "O2s"}, "9": {"label": "*2", "atom_type": "H0"}}

>  <type>  (10) 
unop_6

>  <geom_source>  (10) 
Heuristics

$$$$

     RDKit          3D

 13 11  0  0  0  0  0  0  0  0999 V2000
   -0.8352    1.2646    0.0455 N   0  0  0  0  0  0  0  0  0  0  0  0
    0.3356    1.4904    0.8682 C   0  0  0  0  0  0  0  0  0  0  0  0
    1.0347    0.2680    1.3089 C   0  0  0  0  0  0  0  0  0  0  0  0
    1.5488   -0.7062    1.6303 N   0  0  0  0  0  0  0  0  0  0  0  0
   -1.5256    0.7159    0.5394 H   0  0  0  0  0  0  0  0  0  0  0  0
    0.0513    2.0543    1.7579 H   0  0  0  0  0  0  0  0  0  0  0  0
    1.0502    2.1077    0.3215 H   0  0  0  0  0  0  0  0  0  0  0  0
   -0.8352   -1.0754   -0.9112 C   0  0  0  0  0  3  0  0  0  0  0  0
   -0.8352   -1.0754   -2.3216 O   0  0  0  0  0  0  0  0  0  0  0  0
   -0.8352    0.1419   -0.4135 H   0  0  0  0  0  0  0  0  0  0  0  0
   -1.7497   -1.5737   -0.5920 H   0  0  0  0  0  0  0  0  0  0  0  0
    0.0172   -1.6254   -0.4964 H   0  0  0  0  0  0  0  0  0  0  0  0
   -0.0393   -0.6418   -2.6288 H   0  0  0  0  0  0  0  0  0  0  0  0
  1  2  1  0
  1  5  1  0
  1 10  1  0
  2  3  1  0
  2  6  1  0
  2  7  1  0
  3  4  3  0
  8  9  1  0
  8 11  1  0
  8 12  1  0
  9 13  1  0
M  RAD  1   8   2
M  END
>  <reaction>  (11) 
rxn_3212

>  <mol_properties>  (11) 
{"0": {"label": "*3", "atom_type": "N3s"}, "1": {"label": "*4", "atom_type": "Cs"}, "7": {"label": "*1", "atom_type": "Cs"}, "8": {"label": "*0", "atom_type": "O2s"}, "9": {"label": "*2", "atom_type": "H0"}}

>  <type>  (11) 
unop_7

>  <geom_source>  (11) 
Heuristics

$$$$

     RDKit          3D

 13 11  0  0  0  0  0  0  0  0999 V2000
    0.8149    0.2336    0.9567 N   0  0  0  0  0  0  0  0  0  0  0  0
   -0.5370    0.7153    1.1536 C   0  0  0  0  0  0  0  0  0  0  0  0
   -1.0255    1.6463    0.1183 C   0  0  0  0  0  0  0  0  0  0  0  0
   -1.3671    2.3667   -0.7069 N   0  0  0  0  0  0  0  0  0  0  0  0
    1.4746    0.9992    0.9421 H   0  0  0  0  0  0  0  0  0  0  0  0
   -0.6061    1.2195    2.1188 H   0  0  0  0  0  0  0  0  0  0  0  0
   -1.2226   -0.1326    1.1937 H   0  0  0  0  0  0  0  0  0  0  0  0
    0.8149   -2.1064   -0.0000 C   0  0  0  0  0  3  0  0  0  0  0  0
    0.8149   -2.1064   -1.4104 O   0  0  0  0  0  0  0  0  0  0  0  0
    0.8149   -0.8891    0.4977 H   0  0  0  0  0  0  0  0  0  0  0  0
   -0.0995   -2.6047    0.3191 H   0  0  0  0  0  0  0  0  0  0  0  0
    1.6674   -2.6564    0.4147 H   0  0  0  0  0  0  0  0  0  0  0  0
    1.6108   -1.6727   -1.7177 H   0  0  0  0  0  0  0  0  0  0  0  0
  1  2  1  0
  1  5  1  0
  1 10  1  0
  2  3  1  0
  2  6  1  0
  2  7  1  0
  3  4  3  0
  8  9  1  0
  8 11  1  0
  8 12  1  0
  9 13  1  0
M  RAD  1   8   2
M  END
>  <reaction>  (12) 
rxn_3212

>  <mol_properties>  (12) 
{"0": {"label": "*3", "atom_type": "N3s"}, "1": {"label": "*4", "atom_type": "Cs"}, "7": {"label": "*1", "atom_type": "Cs"}, "8": {"label": "*0", "atom_type": "O2s"}, "9": {"label": "*2", "atom_type": "H0"}}

>  <type>  (12) 
unop_8

>  <geom_source>  (12) 
Heuristics

$$$$

     RDKit          3D

 13 11  0  0  0  0  0  0  0  0999 V2000
   -0.8414    0.6451    1.2808 N   0  0  0  0  0  0  0  0  0  0  0  0
   -0.1654    1.5698    0.3941 C   0  0  0  0  0  0  0  0  0  0  0  0
    1.0641    1.0482   -0.2333 C   0  0  0  0  0  0  0  0  0  0  0  0
    2.0140    0.6051   -0.7000 N   0  0  0  0  0  0  0  0  0  0  0  0
   -0.2394    0.3682    2.0441 H   0  0  0  0  0  0  0  0  0  0  0  0
    0.0959    2.4753    0.9439 H   0  0  0  0  0  0  0  0  0  0  0  0
   -0.8466    1.8731   -0.4025 H   0  0  0  0  0  0  0  0  0  0  0  0
   -0.8414   -1.6949    0.3241 C   0  0  0  0  0  3  0  0  0  0  0  0
   -0.8414   -1.6949   -1.0863 O   0  0  0  0  0  0  0  0  0  0  0  0
   -0.8414   -0.4776    0.8218 H   0  0  0  0  0  0  0  0  0  0  0  0
   -1.7559   -2.1932    0.6433 H   0  0  0  0  0  0  0  0  0  0  0  0
    0.0110   -2.2449    0.7389 H   0  0  0  0  0  0  0  0  0  0  0  0
   -0.0455   -1.2613   -1.3935 H   0  0  0  0  0  0  0  0  0  0  0  0
  1  2  1  0
  1  5  1  0
  1 10  1  0
  2  3  1  0
  2  6  1  0
  2  7  1  0
  3  4  3  0
  8  9  1  0
  8 11  1  0
  8 12  1  0
  9 13  1  0
M  RAD  1   8   2
M  END
>  <reaction>  (13) 
rxn_3212

>  <mol_properties>  (13) 
{"0": {"label": "*3", "atom_type": "N3s"}, "1": {"label": "*4", "atom_type": "Cs"}, "7": {"label": "*1", "atom_type": "Cs"}, "8": {"label": "*0", "atom_type": "O2s"}, "9": {"label": "*2", "atom_type": "H0"}}

>  <type>  (13) 
unop_9

>  <geom_source>  (13) 
Heuristics

$$$$

     RDKit          3D

 13 11  0  0  0  0  0  0  0  0999 V2000
    0.4484    0.1639    1.3192 N   0  0  0  0  0  0  0  0  0  0  0  0
   -0.7224    0.9013    0.8905 C   0  0  0  0  0  0  0  0  0  0  0  0
   -0.5359    1.7186   -0.3239 C   0  0  0  0  0  0  0  0  0  0  0  0
   -0.3496    2.3405   -1.2700 N   0  0  0  0  0  0  0  0  0  0  0  0
    1.2163    0.7885    1.5234 H   0  0  0  0  0  0  0  0  0  0  0  0
   -1.0494    1.5631    1.6940 H   0  0  0  0  0  0  0  0  0  0  0  0
   -1.5422    0.2057    0.7048 H   0  0  0  0  0  0  0  0  0  0  0  0
    0.4484   -2.1761    0.3625 C   0  0  0  0  0  3  0  0  0  0  0  0
    0.4484   -2.1761   -1.0479 O   0  0  0  0  0  0  0  0  0  0  0  0
    0.4484   -0.9588    0.8602 H   0  0  0  0  0  0  0  0  0  0  0  0
   -0.4660   -2.6744    0.6816 H   0  0  0  0  0  0  0  0  0  0  0  0
    1.3009   -2.7261    0.7772 H   0  0  0  0  0  0  0  0  0  0  0  0
    1.2443   -1.7425   -1.3552 H   0  0  0  0  0  0  0  0  0  0  0  0
  1  2  1  0
  1  5  1  0
  1 10  1  0
  2  3  1  0
  2  6  1  0
  2  7  1  0
  3  4  3  0
  8  9  1  0
  8 11  1  0
  8 12  1  0
  9 13  1  0
M  RAD  1   8   2
M  END
>  <reaction>  (14) 
rxn_3212

>  <mol_properties>  (14) 
{"0": {"label": "*3", "atom_type": "N3s"}, "1": {"label": "*4", "atom_type": "Cs"}, "7": {"label": "*1", "atom_type": "Cs"}, "8": {"label": "*0", "atom_type": "O2s"}, "9": {"label": "*2", "atom_type": "H0"}}

>  <type>  (14) 
unop_10

>  <geom_source>  (14) 
Heuristics

$$$$

     RDKit          3D

 13 11  0  0  0  0  0  0  0  0999 V2000
   -0.2898    1.3620   -0.3004 N   0  0  0  0  0  0  0  0  0  0  0  0
    0.3862    1.4005    0.9803 C   0  0  0  0  0  0  0  0  0  0  0  0
    0.3354    0.1436    1.7516 C   0  0  0  0  0  0  0  0  0  0  0  0
    0.2729   -0.8516    2.3192 N   0  0  0  0  0  0  0  0  0  0  0  0
   -1.2712    1.1486   -0.1867 H   0  0  0  0  0  0  0  0  0  0  0  0
   -0.0467    2.1905    1.5960 H   0  0  0  0  0  0  0  0  0  0  0  0
    1.4351    1.6604    0.8298 H   0  0  0  0  0  0  0  0  0  0  0  0
   -0.2898   -0.9780   -1.2571 C   0  0  0  0  0  3  0  0  0  0  0  0
   -0.2898   -0.9780   -2.6675 O   0  0  0  0  0  0  0  0  0  0  0  0
   -0.2898    0.2393   -0.7594 H   0  0  0  0  0  0  0  0  0  0  0  0
   -1.2043   -1.4763   -0.9380 H   0  0  0  0  0  0  0  0  0  0  0  0
    0.5626   -1.5280   -0.8424 H   0  0  0  0  0  0  0  0  0  0  0  0
    0.5061   -0.5444   -2.9748 H   0  0  0  0  0  0  0  0  0  0  0  0
  1  2  1  0
  1  5  1  0
  1 10  1  0
  2  3  1  0
  2  6  1  0
  2  7  1  0
  3  4  3  0
  8  9  1  0
  8 11  1  0
  8 12  1  0
  9 13  1  0
M  RAD  1   8   2
M  END
>  <reaction>  (15) 
rxn_3212

>  <mol_properties>  (15) 
{"0": {"label": "*3", "atom_type": "N3s"}, "1": {"label": "*4", "atom_type": "Cs"}, "7": {"label": "*1", "atom_type": "Cs"}, "8": {"label": "*0", "atom_type": "O2s"}, "9": {"label": "*2", "atom_type": "H0"}}

>  <type>  (15) 
unop_11

>  <geom_source>  (15) 
Heuristics

$$$$

     RDKit          3D

 13 11  0  0  0  0  0  0  0  0999 V2000
   -0.4997    0.4166    1.4804 N   0  0  0  0  0  0  0  0  0  0  0  0
   -0.4997    1.4099    0.4259 C   0  0  0  0  0  0  0  0  0  0  0  0
    0.6568    1.3502   -0.4886 C   0  0  0  0  0  0  0  0  0  0  0  0
    1.5713    1.2701   -1.1770 N   0  0  0  0  0  0  0  0  0  0  0  0
    0.3190    0.5087    2.0659 H   0  0  0  0  0  0  0  0  0  0  0  0
   -0.5285    2.4076    0.8666 H   0  0  0  0  0  0  0  0  0  0  0  0
   -1.4066    1.3054   -0.1717 H   0  0  0  0  0  0  0  0  0  0  0  0
   -0.4997   -1.9234    0.5236 C   0  0  0  0  0  3  0  0  0  0  0  0
   -0.4997   -1.9234   -0.8867 O   0  0  0  0  0  0  0  0  0  0  0  0
   -0.4997   -0.7061    1.0214 H   0  0  0  0  0  0  0  0  0  0  0  0
   -1.4142   -2.4217    0.8428 H   0  0  0  0  0  0  0  0  0  0  0  0
    0.3527   -2.4734    0.9384 H   0  0  0  0  0  0  0  0  0  0  0  0
    0.2962   -1.4898   -1.1940 H   0  0  0  0  0  0  0  0  0  0  0  0
  1  2  1  0
  1  5  1  0
  1 10  1  0
  2  3  1  0
  2  6  1  0
  2  7  1  0
  3  4  3  0
  8  9  1  0
  8 11  1  0
  8 12  1  0
  9 13  1  0
M  RAD  1   8   2
M  END
>  <reaction>  (16) 
rxn_3212

>  <mol_properties>  (16) 
{"0": {"label": "*3", "atom_type": "N3s"}, "1": {"label": "*4", "atom_type": "Cs"}, "7": {"label": "*1", "atom_type": "Cs"}, "8": {"label": "*0", "atom_type": "O2s"}, "9": {"label": "*2", "atom_type": "H0"}}

>  <type>  (16) 
unop_12

>  <geom_source>  (16) 
Heuristics

$$$$

     RDKit          3D

 13 11  0  0  0  0  0  0  0  0999 V2000
   -0.0372    0.2294    1.5042 N   0  0  0  0  0  0  0  0  0  0  0  0
   -0.7132    1.1542    0.6174 C   0  0  0  0  0  0  0  0  0  0  0  0
    0.0859    1.6111   -0.5358 C   0  0  0  0  0  0  0  0  0  0  0  0
    0.7403    1.9418   -1.4185 N   0  0  0  0  0  0  0  0  0  0  0  0
    0.7969    0.6453    1.8952 H   0  0  0  0  0  0  0  0  0  0  0  0
   -1.0251    2.0353    1.1804 H   0  0  0  0  0  0  0  0  0  0  0  0
   -1.6229    0.6901    0.2333 H   0  0  0  0  0  0  0  0  0  0  0  0
   -0.0372   -2.1105    0.5475 C   0  0  0  0  0  3  0  0  0  0  0  0
   -0.0372   -2.1105   -0.8629 O   0  0  0  0  0  0  0  0  0  0  0  0
   -0.0372   -0.8932    1.0452 H   0  0  0  0  0  0  0  0  0  0  0  0
   -0.9517   -2.6088    0.8667 H   0  0  0  0  0  0  0  0  0  0  0  0
    0.8152   -2.6605    0.9623 H   0  0  0  0  0  0  0  0  0  0  0  0
    0.7587   -1.6769   -1.1701 H   0  0  0  0  0  0  0  0  0  0  0  0
  1  2  1  0
  1  5  1  0
  1 10  1  0
  2  3  1  0
  2  6  1  0
  2  7  1  0
  3  4  3  0
  8  9  1  0
  8 11  1  0
  8 12  1  0
  9 13  1  0
M  RAD  1   8   2
M  END
>  <reaction>  (17) 
rxn_3212

>  <mol_properties>  (17) 
{"0": {"label": "*3", "atom_type": "N3s"}, "1": {"label": "*4", "atom_type": "Cs"}, "7": {"label": "*1", "atom_type": "Cs"}, "8": {"label": "*0", "atom_type": "O2s"}, "9": {"label": "*2", "atom_type": "H0"}}

>  <type>  (17) 
unop_13

>  <geom_source>  (17) 
gaussian_log

$$$$
