
     RDKit          3D

 15 15  0  0  0  0  0  0  0  0999 V2000
    2.2031   -0.2111   -0.1693 C   0  0  0  0  0  0  0  0  0  0  0  0
    0.7140   -0.0314   -0.0623 C   0  0  0  0  0  0  0  0  0  0  0  0
   -0.0114    0.5491   -1.0982 C   0  0  0  0  0  0  0  0  0  0  0  0
   -1.3882    0.6886   -1.0150 C   0  0  0  0  0  0  0  0  0  0  0  0
   -2.0661    0.2493    0.1118 C   0  0  0  0  0  0  0  0  0  0  0  0
   -1.3551   -0.3278    1.1528 C   0  0  0  0  0  0  0  0  0  0  0  0
    0.0216   -0.4648    1.0642 C   0  0  0  0  0  0  0  0  0  0  0  0
    2.6776   -0.1836    0.8122 H   0  0  0  0  0  0  0  0  0  0  0  0
    2.4446   -1.1749   -0.6249 H   0  0  0  0  0  0  0  0  0  0  0  0
    2.6532    0.5664   -0.7875 H   0  0  0  0  0  0  0  0  0  0  0  0
    0.5104    0.8989   -1.9819 H   0  0  0  0  0  0  0  0  0  0  0  0
   -1.9328    1.1452   -1.8322 H   0  0  0  0  0  0  0  0  0  0  0  0
   -3.1409    0.3597    0.1800 H   0  0  0  0  0  0  0  0  0  0  0  0
   -1.8736   -0.6702    2.0398 H   0  0  0  0  0  0  0  0  0  0  0  0
    0.5695   -0.9141    1.8849 H   0  0  0  0  0  0  0  0  0  0  0  0
  1  2  1  0
  1  8  1  0
  1  9  1  0
  1 10  1  0
  2  3  2  0
  2  7  1  0
  3  4  1  0
  3 11  1  0
  4  5  2  0
  4 12  1  0
  5  6  1  0
  5 13  1  0
  6  7  2  0
  6 14  1  0
  7 15  1  0
M  END
>  <reaction>  (1) 
rxn_182

>  <mol_properties>  (1) 
{"0": {"label": "donator", "atom_type": "Cs"}, "7": {"label": "d_hydrogen", "atom_type": "H0"}}

>  <type>  (1) 
r1h

$$$$

     RDKit          3D

  1  0  0  0  0  0  0  0  0  0999 V2000
    0.0000    0.0000    0.0000 H   0  0  0  0  0 15  0  0  0  0  0  0
M  END
>  <reaction>  (2) 
rxn_182

>  <mol_properties>  (2) 
{"0": {"label": "acceptor", "atom_type": "H0"}}

>  <type>  (2) 
r2

$$$$

     RDKit          3D

  2  1  0  0  0  0  0  0  0  0999 V2000
    0.0000    0.0000    0.3721 H   0  0  0  0  0  0  0  0  0  0  0  0
    0.0000    0.0000   -0.3721 H   0  0  0  0  0  0  0  0  0  0  0  0
  1  2  1  0
M  END
>  <reaction>  (3) 
rxn_182

>  <mol_properties>  (3) 
{"0": {"label": "a_hydrogen", "atom_type": "H0"}, "1": {"label": "acceptor", "atom_type": "H0"}}

>  <type>  (3) 
r2h

$$$$

     RDKit          3D

 16 15  0  0  0  0  0  0  0  0999 V2000
    2.0105    0.0930    0.0747 C   0  0  0  0  0  0  0  0  0  0  0  0
    0.5510   -0.0213   -0.1098 C   0  0  0  0  0  0  0  0  0  0  0  0
   -0.1222   -1.1962    0.2264 C   0  0  0  0  0  0  0  0  0  0  0  0
   -0.1963    1.0575   -0.5833 C   0  0  0  0  0  0  0  0  0  0  0  0
   -1.4965   -1.2923    0.0877 C   0  0  0  0  0  0  0  0  0  0  0  0
   -2.2265   -0.2124   -0.3873 C   0  0  0  0  0  0  0  0  0  0  0  0
   -1.5707    0.9633   -0.7227 C   0  0  0  0  0  0  0  0  0  0  0  0
    2.2350    0.5136    1.2249 H   0  0  0  0  0  0  0  0  0  0  0  0
    2.4909    0.8396   -0.5542 H   0  0  0  0  0  0  0  0  0  0  0  0
    2.5466   -0.8536    0.0541 H   0  0  0  0  0  0  0  0  0  0  0  0
    0.4422   -2.0438    0.5979 H   0  0  0  0  0  0  0  0  0  0  0  0
   -2.0005   -2.2141    0.3501 H   0  0  0  0  0  0  0  0  0  0  0  0
   -3.3008   -0.2872   -0.4972 H   0  0  0  0  0  0  0  0  0  0  0  0
   -2.1328    1.8102   -1.0957 H   0  0  0  0  0  0  0  0  0  0  0  0
    0.3099    1.9789   -0.8474 H   0  0  0  0  0  0  0  0  0  0  0  0
    2.4602    0.8648    2.1818 H   0  0  0  0  0 15  0  0  0  0  0  0
  1  2  1  0
  1  8  1  0
  1  9  1  0
  1 10  1  0
  2  3  2  0
  2  4  1  0
  3  5  1  0
  3 11  1  0
  4  7  2  0
  4 15  1  0
  5  6  2  0
  5 12  1  0
  6  7  1  0
  6 13  1  0
  7 14  1  0
M  END
>  <reaction>  (4) 
rxn_182

>  <mol_properties>  (4) 
{"0": {"label": "*3", "atom_type": "Cs"}, "1": {"label": "*4", "atom_type": "Cd"}, "7": {"label": "*2", "atom_type": "H0"}, "15": {"label": "*1", "atom_type": "H0"}}

>  <type>  (4) 
ts

$$$$

     RDKit          3D

 16 15  0  0  0  0  0  0  0  0999 V2000
   -0.0127    0.0211    2.4119 C   0  0  0  0  0  0  0  0  0  0  0  0
   -0.0127    0.0211    0.9082 C   0  0  0  0  0  0  0  0  0  0  0  0
   -0.0127    1.2154    0.1941 C   0  0  0  0  0  0  0  0  0  0  0  0
    0.0177    1.2188   -1.1919 C   0  0  0  0  0  0  0  0  0  0  0  0
    0.0473    0.0218   -1.8909 C   0  0  0  0  0  0  0  0  0  0  0  0
    0.0441   -1.1756   -1.1919 C   0  0  0  0  0  0  0  0  0  0  0  0
    0.0136   -1.1729    0.1941 C   0  0  0  0  0  0  0  0  0  0  0  0
   -0.6026   -1.0456    2.8880 H   0  0  0  0  0  0  0  0  0  0  0  0
    1.0095    0.0323    2.7987 H   0  0  0  0  0  0  0  0  0  0  0  0
   -0.5237    0.8990    2.8086 H   0  0  0  0  0  0  0  0  0  0  0  0
   -0.0393    2.1565    0.7319 H   0  0  0  0  0  0  0  0  0  0  0  0
    0.0151    2.1600   -1.7276 H   0  0  0  0  0  0  0  0  0  0  0  0
    0.0684    0.0220   -2.9733 H   0  0  0  0  0  0  0  0  0  0  0  0
    0.0623   -2.1167   -1.7276 H   0  0  0  0  0  0  0  0  0  0  0  0
    0.0078   -2.1144    0.7319 H   0  0  0  0  0  0  0  0  0  0  0  0
   -1.0051   -1.7735    3.2128 H   0  0  0  0  0 15  0  0  0  0  0  0
  1  2  1  0
  1  8  1  0
  1  9  1  0
  1 10  1  0
  2  3  2  0
  2  7  1  0
  3  4  1  0
  3 11  1  0
  4  5  2  0
  4 12  1  0
  5  6  1  0
  5 13  1  0
  6  7  2  0
  6 14  1  0
  7 15  1  0
M  END
>  <reaction>  (5) 
rxn_182

>  <mol_properties>  (5) 
{"0": {"label": "*3", "atom_type": "Cs"}, "1": {"label": "*4", "atom_type": "Cd"}, "7": {"label": "*2", "atom_type": "H0"}, "15": {"label": "*1", "atom_type": "H0"}}

>  <type>  (5) 
unop_1

>  <geom_source>  (5) 
Heuristics

$$$$

     RDKit          3D

 16 15  0  0  0  0  0  0  0  0999 V2000
   -0.5886    0.0795   -0.2469 C   0  0  0  0  0  0  0  0  0  0  0  0
    0.0914   -1.1422   -0.3412 C   0  0  0  0  0  0  0  0  0  0  0  0
    0.1260    1.2539    0.0332 C   0  0  0  0  0  0  0  0  0  0  0  0
    1.4773   -1.1891   -0.1566 C   0  0  0  0  0  0  0  0  0  0  0  0
    2.1870   -0.0170    0.1225 C   0  0  0  0  0  0  0  0  0  0  0  0
    1.5117    1.2038    0.2173 C   0  0  0  0  0  0  0  0  0  0  0  0
   -2.0678    0.1228   -0.4449 C   0  0  0  0  0  0  0  0  0  0  0  0
   -0.4499   -2.0552   -0.5569 H   0  0  0  0  0  0  0  0  0  0  0  0
    2.0009   -2.1336   -0.2298 H   0  0  0  0  0  0  0  0  0  0  0  0
    3.2592   -0.0547    0.2651 H   0  0  0  0  0  0  0  0  0  0  0  0
    2.0618    2.1106    0.4333 H   0  0  0  0  0  0  0  0  0  0  0  0
   -0.3891    2.2037    0.1084 H   0  0  0  0  0  0  0  0  0  0  0  0
   -2.3196    0.7743   -1.3080 H   0  0  0  0  0  0  0  0  0  0  0  0
   -2.5661    0.4996    0.4729 H   0  0  0  0  0  0  0  0  0  0  0  0
   -2.0377   -1.1818    1.3436 H   0  0  0  0  0 15  0  0  0  0  0  0
   -2.2966   -0.4749    0.2878 H   0  0  0  0  0  0  0  0  0  0  0  0
  1  7  1  0
  1  2  2  0
  1  3  1  0
  2  4  1  0
  2  8  1  0
  3  6  2  0
  3 12  1  0
  4  5  2  0
  4  9  1  0
  5  6  1  0
  5 10  1  0
  6 11  1  0
  7 13  1  0
  7 14  1  0
  7 16  1  0
M  END
>  <reaction>  (6) 
rxn_182

>  <mol_properties>  (6) 
{"0": {"label": "*3", "atom_type": "Cs"}, "1": {"label": "*4", "atom_type": "Cd"}, "7": {"label": "*2", "atom_type": "H0"}, "15": {"label": "*1", "atom_type": "H0"}}

>  <type>  (6) 
unop_2

>  <geom_source>  (6) 
AutoTST

$$$$
