
     RDKit          3D

 14 13  0  0  0  0  0  0  0  0999 V2000
   -0.7647   -1.2352   -0.0349 C   0  0  0  0  0  0  0  0  0  0  0  0
    0.0570   -0.0126    0.3624 C   0  0  0  0  0  0  0  0  0  0  0  0
    1.4161   -0.0194   -0.3307 C   0  0  0  0  0  0  0  0  0  0  0  0
   -0.7022    1.2765    0.0629 C   0  0  0  0  0  0  0  0  0  0  0  0
   -0.2387   -2.1618    0.2040 H   0  0  0  0  0  0  0  0  0  0  0  0
   -0.9624   -1.2316   -1.1108 H   0  0  0  0  0  0  0  0  0  0  0  0
   -1.7273   -1.2512    0.4806 H   0  0  0  0  0  0  0  0  0  0  0  0
    0.2295   -0.0590    1.4432 H   0  0  0  0  0  0  0  0  0  0  0  0
    1.2932    0.0259   -1.4168 H   0  0  0  0  0  0  0  0  0  0  0  0
    2.0206    0.8382   -0.0279 H   0  0  0  0  0  0  0  0  0  0  0  0
    1.9767   -0.9268   -0.0966 H   0  0  0  0  0  0  0  0  0  0  0  0
   -1.6638    1.3002    0.5799 H   0  0  0  0  0  0  0  0  0  0  0  0
   -0.8978    1.3664   -1.0096 H   0  0  0  0  0  0  0  0  0  0  0  0
   -0.1313    2.1545    0.3721 H   0  0  0  0  0  0  0  0  0  0  0  0
  1  2  1  0
  1  5  1  0
  1  6  1  0
  1  7  1  0
  2  3  1  0
  2  4  1  0
  2  8  1  0
  3  9  1  0
  3 10  1  0
  3 11  1  0
  4 12  1  0
  4 13  1  0
  4 14  1  0
M  END
>  <reaction>  (1) 
rxn_993

>  <mol_properties>  (1) 
{"1": {"label": "donator", "atom_type": "Cs"}, "7": {"label": "d_hydrogen", "atom_type": "H0"}}

>  <type>  (1) 
r1h

$$$$

     RDKit          3D

  7  6  0  0  0  0  0  0  0  0999 V2000
   -0.6904   -0.9066   -0.0346 C   0  0  0  0  0  0  0  0  0  0  0  0
    0.1413    0.0254   -0.6161 C   0  0  0  0  0  0  0  0  0  0  0  0
    0.4603    0.1105   -1.9267 C   0  0  0  0  0  3  0  0  0  0  0  0
    0.8318    0.2180   -3.4201 S   0  0  0  0  0  0  0  0  0  0  0  0
   -0.8731   -0.8770    1.0287 H   0  0  0  0  0  0  0  0  0  0  0  0
   -1.1718   -1.6767   -0.6199 H   0  0  0  0  0  0  0  0  0  0  0  0
    0.6090    0.7866    0.0044 H   0  0  0  0  0  0  0  0  0  0  0  0
  1  2  2  3
  1  5  1  0
  1  6  1  0
  2  3  1  0
  2  7  1  0
  3  4  2  0
M  RAD  1   3   2
M  END
>  <reaction>  (2) 
rxn_993

>  <mol_properties>  (2) 
{"2": {"label": "acceptor", "atom_type": "CS"}}

>  <type>  (2) 
r2

$$$$

     RDKit          3D

  8  7  0  0  0  0  0  0  0  0999 V2000
   -1.1617    0.0338    0.5053 C   0  0  0  0  0  0  0  0  0  0  0  0
   -0.1023    0.4503   -0.1863 C   0  0  0  0  0  0  0  0  0  0  0  0
    1.0978   -0.3557   -0.3104 C   0  0  0  0  0  0  0  0  0  0  0  0
    2.4251    0.0667   -1.1256 S   0  0  0  0  0  0  0  0  0  0  0  0
   -1.1653   -0.9292    1.0039 H   0  0  0  0  0  0  0  0  0  0  0  0
   -2.0546    0.6389    0.5948 H   0  0  0  0  0  0  0  0  0  0  0  0
   -0.0991    1.4132   -0.6847 H   0  0  0  0  0  0  0  0  0  0  0  0
    1.0601   -1.3180    0.2032 H   0  0  0  0  0  0  0  0  0  0  0  0
  1  2  2  3
  1  5  1  0
  1  6  1  0
  2  3  1  0
  2  7  1  0
  3  4  2  0
  3  8  1  0
M  END
>  <reaction>  (3) 
rxn_993

>  <mol_properties>  (3) 
{"2": {"label": "acceptor", "atom_type": "CS"}, "7": {"label": "a_hydrogen", "atom_type": "H0"}}

>  <type>  (3) 
r2h

$$$$

     RDKit          3D

 21 19  0  0  0  0  0  0  0  0999 V2000
    1.9545   -0.4314   -1.7793 C   0  0  0  0  0  0  0  0  0  0  0  0
    2.0331   -0.5499   -0.4548 C   0  0  0  0  0  0  0  0  0  0  0  0
    0.9378   -0.2038    0.4266 C   0  0  0  0  0  3  0  0  0  0  0  0
    0.9007   -0.2977    2.0210 S   0  0  0  0  0  0  0  0  0  0  0  0
    2.7884   -0.6972   -2.4165 H   0  0  0  0  0  0  0  0  0  0  0  0
    1.0564   -0.0663   -2.2603 H   0  0  0  0  0  0  0  0  0  0  0  0
    2.9431   -0.9184    0.0118 H   0  0  0  0  0  0  0  0  0  0  0  0
   -1.4432    0.8453   -2.0531 C   0  0  0  0  0  0  0  0  0  0  0  0
   -1.4088    0.7311   -0.5491 C   0  0  0  0  0  0  0  0  0  0  0  0
   -1.4611    2.0540    0.1735 C   0  0  0  0  0  0  0  0  0  0  0  0
   -2.3384   -0.3150    0.0136 C   0  0  0  0  0  0  0  0  0  0  0  0
   -0.6827    1.5373   -2.4229 H   0  0  0  0  0  0  0  0  0  0  0  0
   -2.4163    1.2281   -2.3850 H   0  0  0  0  0  0  0  0  0  0  0  0
   -1.2981   -0.1245   -2.5350 H   0  0  0  0  0  0  0  0  0  0  0  0
   -0.1925    0.2567   -0.1934 H   0  0  0  0  0  0  0  0  0  0  0  0
   -2.4414    2.5284    0.0418 H   0  0  0  0  0  0  0  0  0  0  0  0
   -1.2970    1.9215    1.2447 H   0  0  0  0  0  0  0  0  0  0  0  0
   -0.7054    2.7457   -0.2050 H   0  0  0  0  0  0  0  0  0  0  0  0
   -2.1964   -1.2805   -0.4767 H   0  0  0  0  0  0  0  0  0  0  0  0
   -3.3851   -0.0201   -0.1301 H   0  0  0  0  0  0  0  0  0  0  0  0
   -2.1746   -0.4485    1.0847 H   0  0  0  0  0  0  0  0  0  0  0  0
  1  2  2  3
  1  5  1  0
  1  6  1  0
  2  3  1  0
  2  7  1  0
  3  4  2  0
  8  9  1  0
  8 12  1  0
  8 13  1  0
  8 14  1  0
  9 10  1  0
  9 11  1  0
  9 15  1  0
 10 16  1  0
 10 17  1  0
 10 18  1  0
 11 19  1  0
 11 20  1  0
 11 21  1  0
M  RAD  1   3   2
M  END
>  <reaction>  (4) 
rxn_993

>  <mol_properties>  (4) 
{"2": {"label": "*3", "atom_type": "CS"}, "3": {"label": "*4", "atom_type": "S2d"}, "7": {"label": "*0", "atom_type": "Cs"}, "8": {"label": "*1", "atom_type": "Cs"}, "14": {"label": "*2", "atom_type": "H0"}}

>  <type>  (4) 
ts

$$$$

     RDKit          3D

 21 19  0  0  0  0  0  0  0  0999 V2000
    2.0958    1.5747    0.7265 C   0  0  0  0  0  0  0  0  0  0  0  0
    1.8686    0.2946    1.0160 C   0  0  0  0  0  0  0  0  0  0  0  0
    0.9983   -0.5331    0.2019 C   0  0  0  0  0  0  0  0  0  0  0  0
    0.6659   -2.0885    0.4757 S   0  0  0  0  0  0  0  0  0  0  0  0
    2.7459    2.1878    1.3371 H   0  0  0  0  0  0  0  0  0  0  0  0
    1.6354    2.0475   -0.1340 H   0  0  0  0  0  0  0  0  0  0  0  0
    2.3291   -0.1778    1.8764 H   0  0  0  0  0  0  0  0  0  0  0  0
   -1.2051    0.6416   -2.1316 C   0  0  0  0  0  0  0  0  0  0  0  0
   -1.2051    0.6416   -0.6059 C   0  0  0  0  0  3  0  0  0  0  0  0
   -1.2051    2.0662   -0.0598 C   0  0  0  0  0  0  0  0  0  0  0  0
   -2.3879   -0.1525   -0.0598 C   0  0  0  0  0  0  0  0  0  0  0  0
   -0.3444    1.1838   -2.5286 H   0  0  0  0  0  0  0  0  0  0  0  0
   -2.1091    1.1235   -2.5154 H   0  0  0  0  0  0  0  0  0  0  0  0
   -1.1756   -0.3753   -2.5286 H   0  0  0  0  0  0  0  0  0  0  0  0
   -0.1014    0.0532   -0.2013 H   0  0  0  0  0  0  0  0  0  0  0  0
   -2.1091    2.5970   -0.3725 H   0  0  0  0  0  0  0  0  0  0  0  0
   -1.1757    2.0730    1.0318 H   0  0  0  0  0  0  0  0  0  0  0  0
   -0.3444    2.6311   -0.4240 H   0  0  0  0  0  0  0  0  0  0  0  0
   -2.3772   -1.1819   -0.4241 H   0  0  0  0  0  0  0  0  0  0  0  0
   -3.3325    0.3022   -0.3724 H   0  0  0  0  0  0  0  0  0  0  0  0
   -2.3771   -0.1809    1.0318 H   0  0  0  0  0  0  0  0  0  0  0  0
  1  2  2  3
  1  5  1  0
  1  6  1  0
  2  3  1  0
  2  7  1  0
  3  4  2  0
  3 15  1  0
  8  9  1  0
  8 12  1  0
  8 13  1  0
  8 14  1  0
  9 10  1  0
  9 11  1  0
 10 16  1  0
 10 17  1  0
 10 18  1  0
 11 19  1  0
 11 20  1  0
 11 21  1  0
M  RAD  1   9   2
M  END
>  <reaction>  (5) 
rxn_993

>  <mol_properties>  (5) 
{"2": {"label": "*3", "atom_type": "CS"}, "3": {"label": "*4", "atom_type": "S2d"}, "7": {"label": "*0", "atom_type": "Cs"}, "8": {"label": "*1", "atom_type": "Cs"}, "14": {"label": "*2", "atom_type": "H0"}}

>  <type>  (5) 
unop_1

>  <geom_source>  (5) 
Heuristics

$$$$

     RDKit          3D

 21 19  0  0  0  0  0  0  0  0999 V2000
    1.8595   -0.0632   -1.8102 C   0  0  0  0  0  0  0  0  0  0  0  0
    2.0109   -0.4223   -0.5366 C   0  0  0  0  0  0  0  0  0  0  0  0
    0.8789   -0.5646    0.3599 C   0  0  0  0  0  0  0  0  0  0  0  0
    0.9671   -0.9939    1.9132 S   0  0  0  0  0  0  0  0  0  0  0  0
    2.7072    0.0416   -2.4748 H   0  0  0  0  0  0  0  0  0  0  0  0
    0.8781    0.1372   -2.2257 H   0  0  0  0  0  0  0  0  0  0  0  0
    2.9923   -0.6225   -0.1214 H   0  0  0  0  0  0  0  0  0  0  0  0
   -1.3245    0.6101   -1.9735 C   0  0  0  0  0  0  0  0  0  0  0  0
   -1.3245    0.6101   -0.4478 C   0  0  0  0  0  3  0  0  0  0  0  0
   -1.3245    2.0348    0.0982 C   0  0  0  0  0  0  0  0  0  0  0  0
   -2.5073   -0.1840    0.0982 C   0  0  0  0  0  0  0  0  0  0  0  0
   -0.4638    1.1524   -2.3706 H   0  0  0  0  0  0  0  0  0  0  0  0
   -2.2285    1.0921   -2.3573 H   0  0  0  0  0  0  0  0  0  0  0  0
   -1.2950   -0.4067   -2.3706 H   0  0  0  0  0  0  0  0  0  0  0  0
   -0.2208    0.0217   -0.0432 H   0  0  0  0  0  0  0  0  0  0  0  0
   -2.2285    2.5656   -0.2145 H   0  0  0  0  0  0  0  0  0  0  0  0
   -1.2951    2.0416    1.1898 H   0  0  0  0  0  0  0  0  0  0  0  0
   -0.4638    2.5996   -0.2660 H   0  0  0  0  0  0  0  0  0  0  0  0
   -2.4966   -1.2134   -0.2661 H   0  0  0  0  0  0  0  0  0  0  0  0
   -3.4519    0.2707   -0.2144 H   0  0  0  0  0  0  0  0  0  0  0  0
   -2.4965   -0.2123    1.1899 H   0  0  0  0  0  0  0  0  0  0  0  0
  1  2  2  3
  1  5  1  0
  1  6  1  0
  2  3  1  0
  2  7  1  0
  3  4  2  0
  3 15  1  0
  8  9  1  0
  8 12  1  0
  8 13  1  0
  8 14  1  0
  9 10  1  0
  9 11  1  0
 10 16  1  0
 10 17  1  0
 10 18  1  0
 11 19  1  0
 11 20  1  0
 11 21  1  0
M  RAD  1   9   2
M  END
>  <reaction>  (6) 
rxn_993

>  <mol_properties>  (6) 
{"2": {"label": "*3", "atom_type": "CS"}, "3": {"label": "*4", "atom_type": "S2d"}, "7": {"label": "*0", "atom_type": "Cs"}, "8": {"label": "*1", "atom_type": "Cs"}, "14": {"label": "*2", "atom_type": "H0"}}

>  <type>  (6) 
unop_2

>  <geom_source>  (6) 
Heuristics

$$$$

     RDKit          3D

 21 19  0  0  0  0  0  0  0  0999 V2000
    1.3415    1.2630    1.9130 C   0  0  0  0  0  0  0  0  0  0  0  0
    1.5099    0.0049    1.5093 C   0  0  0  0  0  0  0  0  0  0  0  0
    0.9971   -0.4675    0.2368 C   0  0  0  0  0  0  0  0  0  0  0  0
    1.1534   -1.9695   -0.3324 S   0  0  0  0  0  0  0  0  0  0  0  0
    1.7260    1.6103    2.8632 H   0  0  0  0  0  0  0  0  0  0  0  0
    0.8114    1.9843    1.3010 H   0  0  0  0  0  0  0  0  0  0  0  0
    2.0400   -0.7161    2.1215 H   0  0  0  0  0  0  0  0  0  0  0  0
   -1.2063    0.7072   -2.0966 C   0  0  0  0  0  0  0  0  0  0  0  0
   -1.2063    0.7072   -0.5709 C   0  0  0  0  0  3  0  0  0  0  0  0
   -1.2063    2.1319   -0.0249 C   0  0  0  0  0  0  0  0  0  0  0  0
   -2.3891   -0.0869   -0.0249 C   0  0  0  0  0  0  0  0  0  0  0  0
   -0.3455    1.2495   -2.4937 H   0  0  0  0  0  0  0  0  0  0  0  0
   -2.1102    1.1892   -2.4804 H   0  0  0  0  0  0  0  0  0  0  0  0
   -1.1768   -0.3096   -2.4937 H   0  0  0  0  0  0  0  0  0  0  0  0
   -0.1026    0.1188   -0.1663 H   0  0  0  0  0  0  0  0  0  0  0  0
   -2.1102    2.6627   -0.3376 H   0  0  0  0  0  0  0  0  0  0  0  0
   -1.1768    2.1387    1.0667 H   0  0  0  0  0  0  0  0  0  0  0  0
   -0.3456    2.6967   -0.3891 H   0  0  0  0  0  0  0  0  0  0  0  0
   -2.3783   -1.1163   -0.3892 H   0  0  0  0  0  0  0  0  0  0  0  0
   -3.3337    0.3678   -0.3375 H   0  0  0  0  0  0  0  0  0  0  0  0
   -2.3783   -0.1152    1.0667 H   0  0  0  0  0  0  0  0  0  0  0  0
  1  2  2  3
  1  5  1  0
  1  6  1  0
  2  3  1  0
  2  7  1  0
  3  4  2  0
  3 15  1  0
  8  9  1  0
  8 12  1  0
  8 13  1  0
  8 14  1  0
  9 10  1  0
  9 11  1  0
 10 16  1  0
 10 17  1  0
 10 18  1  0
 11 19  1  0
 11 20  1  0
 11 21  1  0
M  RAD  1   9   2
M  END
>  <reaction>  (7) 
rxn_993

>  <mol_properties>  (7) 
{"2": {"label": "*3", "atom_type": "CS"}, "3": {"label": "*4", "atom_type": "S2d"}, "7": {"label": "*0", "atom_type": "Cs"}, "8": {"label": "*1", "atom_type": "Cs"}, "14": {"label": "*2", "atom_type": "H0"}}

>  <type>  (7) 
unop_3

>  <geom_source>  (7) 
Heuristics

$$$$

     RDKit          3D

 21 19  0  0  0  0  0  0  0  0999 V2000
    0.6786   -2.2106   -1.3122 C   0  0  0  0  0  0  0  0  0  0  0  0
    1.1652   -1.7834   -0.1483 C   0  0  0  0  0  0  0  0  0  0  0  0
    1.0099   -0.4089    0.2899 C   0  0  0  0  0  0  0  0  0  0  0  0
    1.5646    0.1956    1.6797 S   0  0  0  0  0  0  0  0  0  0  0  0
    0.7972   -3.2370   -1.6344 H   0  0  0  0  0  0  0  0  0  0  0  0
    0.1452   -1.5419   -1.9788 H   0  0  0  0  0  0  0  0  0  0  0  0
    1.6985   -2.4522    0.5179 H   0  0  0  0  0  0  0  0  0  0  0  0
   -1.1935    0.7658   -2.0436 C   0  0  0  0  0  0  0  0  0  0  0  0
   -1.1935    0.7658   -0.5179 C   0  0  0  0  0  3  0  0  0  0  0  0
   -1.1935    2.1904    0.0282 C   0  0  0  0  0  0  0  0  0  0  0  0
   -2.3763   -0.0283    0.0282 C   0  0  0  0  0  0  0  0  0  0  0  0
   -0.3328    1.3080   -2.4406 H   0  0  0  0  0  0  0  0  0  0  0  0
   -2.0974    1.2477   -2.4274 H   0  0  0  0  0  0  0  0  0  0  0  0
   -1.1640   -0.2511   -2.4406 H   0  0  0  0  0  0  0  0  0  0  0  0
   -0.0898    0.1774   -0.1133 H   0  0  0  0  0  0  0  0  0  0  0  0
   -2.0975    2.7213   -0.2845 H   0  0  0  0  0  0  0  0  0  0  0  0
   -1.1640    2.1972    1.1198 H   0  0  0  0  0  0  0  0  0  0  0  0
   -0.3328    2.7553   -0.3360 H   0  0  0  0  0  0  0  0  0  0  0  0
   -2.3655   -1.0577   -0.3361 H   0  0  0  0  0  0  0  0  0  0  0  0
   -3.3209    0.4264   -0.2844 H   0  0  0  0  0  0  0  0  0  0  0  0
   -2.3655   -0.0566    1.1198 H   0  0  0  0  0  0  0  0  0  0  0  0
  1  2  2  3
  1  5  1  0
  1  6  1  0
  2  3  1  0
  2  7  1  0
  3  4  2  0
  3 15  1  0
  8  9  1  0
  8 12  1  0
  8 13  1  0
  8 14  1  0
  9 10  1  0
  9 11  1  0
 10 16  1  0
 10 17  1  0
 10 18  1  0
 11 19  1  0
 11 20  1  0
 11 21  1  0
M  RAD  1   9   2
M  END
>  <reaction>  (8) 
rxn_993

>  <mol_properties>  (8) 
{"2": {"label": "*3", "atom_type": "CS"}, "3": {"label": "*4", "atom_type": "S2d"}, "7": {"label": "*0", "atom_type": "Cs"}, "8": {"label": "*1", "atom_type": "Cs"}, "14": {"label": "*2", "atom_type": "H0"}}

>  <type>  (8) 
unop_4

>  <geom_source>  (8) 
Heuristics

$$$$

     RDKit          3D

 21 19  0  0  0  0  0  0  0  0999 V2000
    0.1732   -0.0923    2.5580 C   0  0  0  0  0  0  0  0  0  0  0  0
    1.0882   -0.5801    1.7220 C   0  0  0  0  0  0  0  0  0  0  0  0
    0.9328   -0.4973    0.2817 C   0  0  0  0  0  0  0  0  0  0  0  0
    1.9864   -1.0590   -0.8041 S   0  0  0  0  0  0  0  0  0  0  0  0
    0.2939   -0.1567    3.6317 H   0  0  0  0  0  0  0  0  0  0  0  0
   -0.7268    0.3875    2.1898 H   0  0  0  0  0  0  0  0  0  0  0  0
    1.9880   -1.0598    2.0905 H   0  0  0  0  0  0  0  0  0  0  0  0
   -1.2706    0.6774   -2.0517 C   0  0  0  0  0  0  0  0  0  0  0  0
   -1.2706    0.6774   -0.5260 C   0  0  0  0  0  3  0  0  0  0  0  0
   -1.2706    2.1020    0.0201 C   0  0  0  0  0  0  0  0  0  0  0  0
   -2.4534   -0.1167    0.0201 C   0  0  0  0  0  0  0  0  0  0  0  0
   -0.4098    1.2196   -2.4487 H   0  0  0  0  0  0  0  0  0  0  0  0
   -2.1745    1.1593   -2.4355 H   0  0  0  0  0  0  0  0  0  0  0  0
   -1.2411   -0.3395   -2.4487 H   0  0  0  0  0  0  0  0  0  0  0  0
   -0.1669    0.0890   -0.1214 H   0  0  0  0  0  0  0  0  0  0  0  0
   -2.1745    2.6328   -0.2926 H   0  0  0  0  0  0  0  0  0  0  0  0
   -1.2411    2.1088    1.1117 H   0  0  0  0  0  0  0  0  0  0  0  0
   -0.4099    2.6669   -0.3442 H   0  0  0  0  0  0  0  0  0  0  0  0
   -2.4426   -1.1461   -0.3442 H   0  0  0  0  0  0  0  0  0  0  0  0
   -3.3980    0.3380   -0.2925 H   0  0  0  0  0  0  0  0  0  0  0  0
   -2.4426   -0.1450    1.1117 H   0  0  0  0  0  0  0  0  0  0  0  0
  1  2  2  3
  1  5  1  0
  1  6  1  0
  2  3  1  0
  2  7  1  0
  3  4  2  0
  3 15  1  0
  8  9  1  0
  8 12  1  0
  8 13  1  0
  8 14  1  0
  9 10  1  0
  9 11  1  0
 10 16  1  0
 10 17  1  0
 10 18  1  0
 11 19  1  0
 11 20  1  0
 11 21  1  0
M  RAD  1   9   2
M  END
>  <reaction>  (9) 
rxn_993

>  <mol_properties>  (9) 
{"2": {"label": "*3", "atom_type": "CS"}, "3": {"label": "*4", "atom_type": "S2d"}, "7": {"label": "*0", "atom_type": "Cs"}, "8": {"label": "*1", "atom_type": "Cs"}, "14": {"label": "*2", "atom_type": "H0"}}

>  <type>  (9) 
unop_5

>  <geom_source>  (9) 
Heuristics

$$$$

     RDKit          3D

 21 19  0  0  0  0  0  0  0  0999 V2000
    0.2353   -2.6656   -0.4301 C   0  0  0  0  0  0  0  0  0  0  0  0
    0.9193   -1.8939    0.4129 C   0  0  0  0  0  0  0  0  0  0  0  0
    1.0257   -0.4591    0.2249 C   0  0  0  0  0  0  0  0  0  0  0  0
    1.8306    0.5515    1.1922 S   0  0  0  0  0  0  0  0  0  0  0  0
    0.1591   -3.7355   -0.2853 H   0  0  0  0  0  0  0  0  0  0  0  0
   -0.2700   -2.2465   -1.2931 H   0  0  0  0  0  0  0  0  0  0  0  0
    1.4245   -2.3133    1.2757 H   0  0  0  0  0  0  0  0  0  0  0  0
   -1.1777    0.7156   -2.1085 C   0  0  0  0  0  0  0  0  0  0  0  0
   -1.1777    0.7156   -0.5828 C   0  0  0  0  0  3  0  0  0  0  0  0
   -1.1777    2.1402   -0.0368 C   0  0  0  0  0  0  0  0  0  0  0  0
   -2.3605   -0.0785   -0.0367 C   0  0  0  0  0  0  0  0  0  0  0  0
   -0.3170    1.2579   -2.5055 H   0  0  0  0  0  0  0  0  0  0  0  0
   -2.0817    1.1976   -2.4923 H   0  0  0  0  0  0  0  0  0  0  0  0
   -1.1483   -0.3013   -2.5056 H   0  0  0  0  0  0  0  0  0  0  0  0
   -0.0740    0.1272   -0.1782 H   0  0  0  0  0  0  0  0  0  0  0  0
   -2.0817    2.6711   -0.3494 H   0  0  0  0  0  0  0  0  0  0  0  0
   -1.1483    2.1471    1.0549 H   0  0  0  0  0  0  0  0  0  0  0  0
   -0.3170    2.7051   -0.4010 H   0  0  0  0  0  0  0  0  0  0  0  0
   -2.3498   -1.1079   -0.4010 H   0  0  0  0  0  0  0  0  0  0  0  0
   -3.3051    0.3762   -0.3493 H   0  0  0  0  0  0  0  0  0  0  0  0
   -2.3497   -0.1068    1.0549 H   0  0  0  0  0  0  0  0  0  0  0  0
  1  2  2  3
  1  5  1  0
  1  6  1  0
  2  3  1  0
  2  7  1  0
  3  4  2  0
  3 15  1  0
  8  9  1  0
  8 12  1  0
  8 13  1  0
  8 14  1  0
  9 10  1  0
  9 11  1  0
 10 16  1  0
 10 17  1  0
 10 18  1  0
 11 19  1  0
 11 20  1  0
 11 21  1  0
M  RAD  1   9   2
M  END
>  <reaction>  (10) 
rxn_993

>  <mol_properties>  (10) 
{"2": {"label": "*3", "atom_type": "CS"}, "3": {"label": "*4", "atom_type": "S2d"}, "7": {"label": "*0", "atom_type": "Cs"}, "8": {"label": "*1", "atom_type": "Cs"}, "14": {"label": "*2", "atom_type": "H0"}}

>  <type>  (10) 
unop_6

>  <geom_source>  (10) 
Heuristics

$$$$

     RDKit          3D

 21 19  0  0  0  0  0  0  0  0999 V2000
   -0.1393   -2.6177    0.7265 C   0  0  0  0  0  0  0  0  0  0  0  0
    0.7969   -1.7156    1.0160 C   0  0  0  0  0  0  0  0  0  0  0  0
    0.9990   -0.5317    0.2019 C   0  0  0  0  0  0  0  0  0  0  0  0
    2.1052    0.6112    0.4757 S   0  0  0  0  0  0  0  0  0  0  0  0
   -0.2860   -3.4992    1.3371 H   0  0  0  0  0  0  0  0  0  0  0  0
   -0.7884   -2.4990   -0.1340 H   0  0  0  0  0  0  0  0  0  0  0  0
    1.4458   -1.8347    1.8764 H   0  0  0  0  0  0  0  0  0  0  0  0
   -1.2043    0.6430   -2.1316 C   0  0  0  0  0  0  0  0  0  0  0  0
   -1.2043    0.6430   -0.6059 C   0  0  0  0  0  3  0  0  0  0  0  0
   -1.2043    2.0676   -0.0598 C   0  0  0  0  0  0  0  0  0  0  0  0
   -2.3872   -0.1511   -0.0598 C   0  0  0  0  0  0  0  0  0  0  0  0
   -0.3436    1.1852   -2.5286 H   0  0  0  0  0  0  0  0  0  0  0  0
   -2.1083    1.1249   -2.5154 H   0  0  0  0  0  0  0  0  0  0  0  0
   -1.1749   -0.3739   -2.5286 H   0  0  0  0  0  0  0  0  0  0  0  0
   -0.1007    0.0546   -0.2013 H   0  0  0  0  0  0  0  0  0  0  0  0
   -2.1083    2.5985   -0.3725 H   0  0  0  0  0  0  0  0  0  0  0  0
   -1.1749    2.0744    1.0318 H   0  0  0  0  0  0  0  0  0  0  0  0
   -0.3436    2.6325   -0.4240 H   0  0  0  0  0  0  0  0  0  0  0  0
   -2.3764   -1.1805   -0.4241 H   0  0  0  0  0  0  0  0  0  0  0  0
   -3.3318    0.3036   -0.3724 H   0  0  0  0  0  0  0  0  0  0  0  0
   -2.3763   -0.1794    1.0318 H   0  0  0  0  0  0  0  0  0  0  0  0
  1  2  2  3
  1  5  1  0
  1  6  1  0
  2  3  1  0
  2  7  1  0
  3  4  2  0
  3 15  1  0
  8  9  1  0
  8 12  1  0
  8 13  1  0
  8 14  1  0
  9 10  1  0
  9 11  1  0
 10 16  1  0
 10 17  1  0
 10 18  1  0
 11 19  1  0
 11 20  1  0
 11 21  1  0
M  RAD  1   9   2
M  END
>  <reaction>  (11) 
rxn_993

>  <mol_properties>  (11) 
{"2": {"label": "*3", "atom_type": "CS"}, "3": {"label": "*4", "atom_type": "S2d"}, "7": {"label": "*0", "atom_type": "Cs"}, "8": {"label": "*1", "atom_type": "Cs"}, "14": {"label": "*2", "atom_type": "H0"}}

>  <type>  (11) 
unop_7

>  <geom_source>  (11) 
Heuristics

$$$$

     RDKit          3D

 21 19  0  0  0  0  0  0  0  0999 V2000
    2.3444    1.2903   -0.4301 C   0  0  0  0  0  0  0  0  0  0  0  0
    2.0848    0.2923    0.4129 C   0  0  0  0  0  0  0  0  0  0  0  0
    0.9528   -0.5957    0.2249 C   0  0  0  0  0  0  0  0  0  0  0  0
    0.5624   -1.8273    1.1922 S   0  0  0  0  0  0  0  0  0  0  0  0
    3.1901    1.9499   -0.2853 H   0  0  0  0  0  0  0  0  0  0  0  0
    1.7147    1.4763   -1.2931 H   0  0  0  0  0  0  0  0  0  0  0  0
    2.7146    0.1066    1.2757 H   0  0  0  0  0  0  0  0  0  0  0  0
   -1.2506    0.5790   -2.1085 C   0  0  0  0  0  0  0  0  0  0  0  0
   -1.2506    0.5790   -0.5828 C   0  0  0  0  0  3  0  0  0  0  0  0
   -1.2506    2.0036   -0.0368 C   0  0  0  0  0  0  0  0  0  0  0  0
   -2.4334   -0.2151   -0.0367 C   0  0  0  0  0  0  0  0  0  0  0  0
   -0.3898    1.1212   -2.5055 H   0  0  0  0  0  0  0  0  0  0  0  0
   -2.1545    1.0609   -2.4923 H   0  0  0  0  0  0  0  0  0  0  0  0
   -1.2211   -0.4379   -2.5056 H   0  0  0  0  0  0  0  0  0  0  0  0
   -0.1469   -0.0094   -0.1782 H   0  0  0  0  0  0  0  0  0  0  0  0
   -2.1545    2.5345   -0.3494 H   0  0  0  0  0  0  0  0  0  0  0  0
   -1.2211    2.0104    1.0549 H   0  0  0  0  0  0  0  0  0  0  0  0
   -0.3898    2.5685   -0.4010 H   0  0  0  0  0  0  0  0  0  0  0  0
   -2.4226   -1.2445   -0.4010 H   0  0  0  0  0  0  0  0  0  0  0  0
   -3.3780    0.2396   -0.3493 H   0  0  0  0  0  0  0  0  0  0  0  0
   -2.4225   -0.2434    1.0549 H   0  0  0  0  0  0  0  0  0  0  0  0
  1  2  2  3
  1  5  1  0
  1  6  1  0
  2  3  1  0
  2  7  1  0
  3  4  2  0
  3 15  1  0
  8  9  1  0
  8 12  1  0
  8 13  1  0
  8 14  1  0
  9 10  1  0
  9 11  1  0
 10 16  1  0
 10 17  1  0
 10 18  1  0
 11 19  1  0
 11 20  1  0
 11 21  1  0
M  RAD  1   9   2
M  END
>  <reaction>  (12) 
rxn_993

>  <mol_properties>  (12) 
{"2": {"label": "*3", "atom_type": "CS"}, "3": {"label": "*4", "atom_type": "S2d"}, "7": {"label": "*0", "atom_type": "Cs"}, "8": {"label": "*1", "atom_type": "Cs"}, "14": {"label": "*2", "atom_type": "H0"}}

>  <type>  (12) 
unop_8

>  <geom_source>  (12) 
Heuristics

$$$$

     RDKit          3D

 21 19  0  0  0  0  0  0  0  0999 V2000
    1.0888   -1.5087   -1.8102 C   0  0  0  0  0  0  0  0  0  0  0  0
    1.4714   -1.4342   -0.5366 C   0  0  0  0  0  0  0  0  0  0  0  0
    0.9586   -0.4150    0.3599 C   0  0  0  0  0  0  0  0  0  0  0  0
    1.3643   -0.2490    1.9132 S   0  0  0  0  0  0  0  0  0  0  0  0
    1.4744   -2.2709   -2.4748 H   0  0  0  0  0  0  0  0  0  0  0  0
    0.3755   -0.8055   -2.2257 H   0  0  0  0  0  0  0  0  0  0  0  0
    2.1846   -2.1374   -0.1214 H   0  0  0  0  0  0  0  0  0  0  0  0
   -1.2448    0.7596   -1.9735 C   0  0  0  0  0  0  0  0  0  0  0  0
   -1.2448    0.7596   -0.4478 C   0  0  0  0  0  3  0  0  0  0  0  0
   -1.2448    2.1843    0.0982 C   0  0  0  0  0  0  0  0  0  0  0  0
   -2.4276   -0.0344    0.0982 C   0  0  0  0  0  0  0  0  0  0  0  0
   -0.3841    1.3019   -2.3706 H   0  0  0  0  0  0  0  0  0  0  0  0
   -2.1488    1.2416   -2.3573 H   0  0  0  0  0  0  0  0  0  0  0  0
   -1.2153   -0.2572   -2.3706 H   0  0  0  0  0  0  0  0  0  0  0  0
   -0.1411    0.1712   -0.0432 H   0  0  0  0  0  0  0  0  0  0  0  0
   -2.1488    2.7151   -0.2145 H   0  0  0  0  0  0  0  0  0  0  0  0
   -1.2153    2.1911    1.1898 H   0  0  0  0  0  0  0  0  0  0  0  0
   -0.3841    2.7491   -0.2660 H   0  0  0  0  0  0  0  0  0  0  0  0
   -2.4169   -1.0638   -0.2661 H   0  0  0  0  0  0  0  0  0  0  0  0
   -3.3722    0.4202   -0.2144 H   0  0  0  0  0  0  0  0  0  0  0  0
   -2.4168   -0.0628    1.1899 H   0  0  0  0  0  0  0  0  0  0  0  0
  1  2  2  3
  1  5  1  0
  1  6  1  0
  2  3  1  0
  2  7  1  0
  3  4  2  0
  3 15  1  0
  8  9  1  0
  8 12  1  0
  8 13  1  0
  8 14  1  0
  9 10  1  0
  9 11  1  0
 10 16  1  0
 10 17  1  0
 10 18  1  0
 11 19  1  0
 11 20  1  0
 11 21  1  0
M  RAD  1   9   2
M  END
>  <reaction>  (13) 
rxn_993

>  <mol_properties>  (13) 
{"2": {"label": "*3", "atom_type": "CS"}, "3": {"label": "*4", "atom_type": "S2d"}, "7": {"label": "*0", "atom_type": "Cs"}, "8": {"label": "*1", "atom_type": "Cs"}, "14": {"label": "*2", "atom_type": "H0"}}

>  <type>  (13) 
unop_9

>  <geom_source>  (13) 
Heuristics

$$$$

     RDKit          3D

 21 19  0  0  0  0  0  0  0  0999 V2000
    2.2136    0.6687   -1.3122 C   0  0  0  0  0  0  0  0  0  0  0  0
    2.1301    0.0265   -0.1483 C   0  0  0  0  0  0  0  0  0  0  0  0
    0.9024   -0.6106    0.2899 C   0  0  0  0  0  0  0  0  0  0  0  0
    0.7096   -1.4081    1.6797 S   0  0  0  0  0  0  0  0  0  0  0  0
    3.1319    1.1423   -1.6344 H   0  0  0  0  0  0  0  0  0  0  0  0
    1.3612    0.7388   -1.9788 H   0  0  0  0  0  0  0  0  0  0  0  0
    2.9827   -0.0434    0.5179 H   0  0  0  0  0  0  0  0  0  0  0  0
   -1.3010    0.5641   -2.0436 C   0  0  0  0  0  0  0  0  0  0  0  0
   -1.3010    0.5641   -0.5179 C   0  0  0  0  0  3  0  0  0  0  0  0
   -1.3010    1.9887    0.0282 C   0  0  0  0  0  0  0  0  0  0  0  0
   -2.4838   -0.2300    0.0282 C   0  0  0  0  0  0  0  0  0  0  0  0
   -0.4403    1.1063   -2.4406 H   0  0  0  0  0  0  0  0  0  0  0  0
   -2.2050    1.0460   -2.4274 H   0  0  0  0  0  0  0  0  0  0  0  0
   -1.2716   -0.4528   -2.4406 H   0  0  0  0  0  0  0  0  0  0  0  0
   -0.1973   -0.0243   -0.1133 H   0  0  0  0  0  0  0  0  0  0  0  0
   -2.2050    2.5196   -0.2845 H   0  0  0  0  0  0  0  0  0  0  0  0
   -1.2716    1.9955    1.1198 H   0  0  0  0  0  0  0  0  0  0  0  0
   -0.4403    2.5536   -0.3360 H   0  0  0  0  0  0  0  0  0  0  0  0
   -2.4731   -1.2594   -0.3361 H   0  0  0  0  0  0  0  0  0  0  0  0
   -3.4284    0.2247   -0.2844 H   0  0  0  0  0  0  0  0  0  0  0  0
   -2.4730   -0.2583    1.1198 H   0  0  0  0  0  0  0  0  0  0  0  0
  1  2  2  3
  1  5  1  0
  1  6  1  0
  2  3  1  0
  2  7  1  0
  3  4  2  0
  3 15  1  0
  8  9  1  0
  8 12  1  0
  8 13  1  0
  8 14  1  0
  9 10  1  0
  9 11  1  0
 10 16  1  0
 10 17  1  0
 10 18  1  0
 11 19  1  0
 11 20  1  0
 11 21  1  0
M  RAD  1   9   2
M  END
>  <reaction>  (14) 
rxn_993

>  <mol_properties>  (14) 
{"2": {"label": "*3", "atom_type": "CS"}, "3": {"label": "*4", "atom_type": "S2d"}, "7": {"label": "*0", "atom_type": "Cs"}, "8": {"label": "*1", "atom_type": "Cs"}, "14": {"label": "*2", "atom_type": "H0"}}

>  <type>  (14) 
unop_10

>  <geom_source>  (14) 
Heuristics

$$$$

     RDKit          3D

 21 19  0  0  0  0  0  0  0  0999 V2000
   -0.3009   -1.8177    1.9130 C   0  0  0  0  0  0  0  0  0  0  0  0
    0.8375   -1.2564    1.5093 C   0  0  0  0  0  0  0  0  0  0  0  0
    0.9439   -0.5673    0.2368 C   0  0  0  0  0  0  0  0  0  0  0  0
    2.2781    0.1401   -0.3324 S   0  0  0  0  0  0  0  0  0  0  0  0
   -0.3749   -2.3306    2.8632 H   0  0  0  0  0  0  0  0  0  0  0  0
   -1.1952   -1.7796    1.3010 H   0  0  0  0  0  0  0  0  0  0  0  0
    1.7316   -1.2946    2.1215 H   0  0  0  0  0  0  0  0  0  0  0  0
   -1.2595    0.6073   -2.0966 C   0  0  0  0  0  0  0  0  0  0  0  0
   -1.2595    0.6073   -0.5709 C   0  0  0  0  0  3  0  0  0  0  0  0
   -1.2595    2.0320   -0.0249 C   0  0  0  0  0  0  0  0  0  0  0  0
   -2.4423   -0.1867   -0.0249 C   0  0  0  0  0  0  0  0  0  0  0  0
   -0.3988    1.1496   -2.4937 H   0  0  0  0  0  0  0  0  0  0  0  0
   -2.1635    1.0893   -2.4804 H   0  0  0  0  0  0  0  0  0  0  0  0
   -1.2301   -0.4095   -2.4937 H   0  0  0  0  0  0  0  0  0  0  0  0
   -0.1558    0.0189   -0.1663 H   0  0  0  0  0  0  0  0  0  0  0  0
   -2.1635    2.5628   -0.3376 H   0  0  0  0  0  0  0  0  0  0  0  0
   -1.2301    2.0388    1.0667 H   0  0  0  0  0  0  0  0  0  0  0  0
   -0.3988    2.5968   -0.3891 H   0  0  0  0  0  0  0  0  0  0  0  0
   -2.4316   -1.2161   -0.3892 H   0  0  0  0  0  0  0  0  0  0  0  0
   -3.3869    0.2680   -0.3375 H   0  0  0  0  0  0  0  0  0  0  0  0
   -2.4315   -0.2151    1.0667 H   0  0  0  0  0  0  0  0  0  0  0  0
  1  2  2  3
  1  5  1  0
  1  6  1  0
  2  3  1  0
  2  7  1  0
  3  4  2  0
  3 15  1  0
  8  9  1  0
  8 12  1  0
  8 13  1  0
  8 14  1  0
  9 10  1  0
  9 11  1  0
 10 16  1  0
 10 17  1  0
 10 18  1  0
 11 19  1  0
 11 20  1  0
 11 21  1  0
M  RAD  1   9   2
M  END
>  <reaction>  (15) 
rxn_993

>  <mol_properties>  (15) 
{"2": {"label": "*3", "atom_type": "CS"}, "3": {"label": "*4", "atom_type": "S2d"}, "7": {"label": "*0", "atom_type": "Cs"}, "8": {"label": "*1", "atom_type": "Cs"}, "14": {"label": "*2", "atom_type": "H0"}}

>  <type>  (15) 
unop_11

>  <geom_source>  (15) 
Heuristics

$$$$

     RDKit          3D

 21 19  0  0  0  0  0  0  0  0999 V2000
    1.4624   -0.7797   -1.9584 C   0  0  0  0  0  0  0  0  0  0  0  0
    1.7720   -0.9447   -0.6735 C   0  0  0  0  0  0  0  0  0  0  0  0
    0.9017   -0.4807    0.3908 C   0  0  0  0  0  0  0  0  0  0  0  0
    1.1945   -0.6368    1.9702 S   0  0  0  0  0  0  0  0  0  0  0  0
    2.1152   -1.1276   -2.7485 H   0  0  0  0  0  0  0  0  0  0  0  0
    0.5426   -0.2893   -2.2573 H   0  0  0  0  0  0  0  0  0  0  0  0
    2.6918   -1.4350   -0.3750 H   0  0  0  0  0  0  0  0  0  0  0  0
   -1.3017    0.6940   -1.9427 C   0  0  0  0  0  0  0  0  0  0  0  0
   -1.3017    0.6940   -0.4170 C   0  0  0  0  0  3  0  0  0  0  0  0
   -1.3017    2.1186    0.1291 C   0  0  0  0  0  0  0  0  0  0  0  0
   -2.4845   -0.1001    0.1291 C   0  0  0  0  0  0  0  0  0  0  0  0
   -0.4410    1.2362   -2.3397 H   0  0  0  0  0  0  0  0  0  0  0  0
   -2.2057    1.1759   -2.3265 H   0  0  0  0  0  0  0  0  0  0  0  0
   -1.2722   -0.3229   -2.3397 H   0  0  0  0  0  0  0  0  0  0  0  0
   -0.1980    0.1056   -0.0124 H   0  0  0  0  0  0  0  0  0  0  0  0
   -2.2057    2.6494   -0.1836 H   0  0  0  0  0  0  0  0  0  0  0  0
   -1.2722    2.1254    1.2207 H   0  0  0  0  0  0  0  0  0  0  0  0
   -0.4410    2.6835   -0.2351 H   0  0  0  0  0  0  0  0  0  0  0  0
   -2.4738   -1.1295   -0.2352 H   0  0  0  0  0  0  0  0  0  0  0  0
   -3.4291    0.3546   -0.1835 H   0  0  0  0  0  0  0  0  0  0  0  0
   -2.4737   -0.1284    1.2207 H   0  0  0  0  0  0  0  0  0  0  0  0
  1  2  2  3
  1  5  1  0
  1  6  1  0
  2  3  1  0
  2  7  1  0
  3  4  2  0
  3 15  1  0
  8  9  1  0
  8 12  1  0
  8 13  1  0
  8 14  1  0
  9 10  1  0
  9 11  1  0
 10 16  1  0
 10 17  1  0
 10 18  1  0
 11 19  1  0
 11 20  1  0
 11 21  1  0
M  RAD  1   9   2
M  END
>  <reaction>  (16) 
rxn_993

>  <mol_properties>  (16) 
{"2": {"label": "*3", "atom_type": "CS"}, "3": {"label": "*4", "atom_type": "S2d"}, "7": {"label": "*0", "atom_type": "Cs"}, "8": {"label": "*1", "atom_type": "Cs"}, "14": {"label": "*2", "atom_type": "H0"}}

>  <type>  (16) 
unop_12

>  <geom_source>  (16) 
Heuristics

$$$$

     RDKit          3D

 21 19  0  0  0  0  0  0  0  0999 V2000
    1.2863    2.5665    0.1782 S   0  0  0  0  0  0  0  0  0  0  0  0
   -1.3409   -1.1486    0.5146 C   0  0  0  0  0  0  0  0  0  0  0  0
   -1.3524    1.3123   -0.0589 C   0  0  0  0  0  0  0  0  0  0  0  0
   -1.1925   -0.4129   -1.8982 C   0  0  0  0  0  0  0  0  0  0  0  0
   -0.8353   -0.0736   -0.4497 C   0  0  0  0  0  3  0  0  0  0  0  0
    2.6339    0.3452    0.8782 C   0  0  0  0  0  0  0  0  0  0  0  0
    2.7190   -0.9622    1.1007 C   0  0  0  0  0  0  0  0  0  0  0  0
    1.3732    0.9572    0.4473 C   0  0  0  0  0  0  0  0  0  0  0  0
   -2.4496   -1.2154    0.4809 H   0  0  0  0  0  0  0  0  0  0  0  0
   -0.9094   -2.1348    0.2424 H   0  0  0  0  0  0  0  0  0  0  0  0
   -1.0231   -0.9075    1.5509 H   0  0  0  0  0  0  0  0  0  0  0  0
   -2.4617    1.3475   -0.1164 H   0  0  0  0  0  0  0  0  0  0  0  0
   -0.9291    2.0804   -0.7400 H   0  0  0  0  0  0  0  0  0  0  0  0
   -1.0347    1.5570    0.9765 H   0  0  0  0  0  0  0  0  0  0  0  0
   -0.7690    0.3527   -2.5820 H   0  0  0  0  0  0  0  0  0  0  0  0
   -0.7607   -1.3980   -2.1739 H   0  0  0  0  0  0  0  0  0  0  0  0
   -2.2951   -0.4493   -2.0320 H   0  0  0  0  0  0  0  0  0  0  0  0
    3.5117    0.9645    1.0186 H   0  0  0  0  0  0  0  0  0  0  0  0
    1.8613   -1.6107    0.9702 H   0  0  0  0  0  0  0  0  0  0  0  0
    3.6580   -1.3965    1.4184 H   0  0  0  0  0  0  0  0  0  0  0  0
    0.3102    0.2262    0.2744 H   0  0  0  0  0  0  0  0  0  0  0  0
  1  8  2  0
  2  5  1  0
  2  9  1  0
  2 10  1  0
  2 11  1  0
  3  5  1  0
  3 12  1  0
  3 13  1  0
  3 14  1  0
  4  5  1  0
  4 15  1  0
  4 16  1  0
  4 17  1  0
  6  7  2  3
  6  8  1  0
  6 18  1  0
  7 19  1  0
  7 20  1  0
  8 21  1  0
M  RAD  1   5   2
M  END
>  <reaction>  (17) 
rxn_993

>  <mol_properties>  (17) 
{"2": {"label": "*3", "atom_type": "CS"}, "3": {"label": "*4", "atom_type": "S2d"}, "7": {"label": "*0", "atom_type": "Cs"}, "8": {"label": "*1", "atom_type": "Cs"}, "14": {"label": "*2", "atom_type": "H0"}}

>  <type>  (17) 
unop_13

>  <geom_source>  (17) 
AutoTST

$$$$
