
     RDKit          3D

 12 11  0  0  0  0  0  0  0  0999 V2000
    1.2394   -0.3763   -0.3020 C   0  0  0  0  0  0  0  0  0  0  0  0
    0.1007    0.3024    0.4464 C   0  0  0  0  0  0  0  0  0  0  0  0
   -0.1187    2.0399   -0.0725 S   0  0  0  0  0  0  0  0  0  0  0  0
   -1.1974   -0.4877    0.3552 C   0  0  0  0  0  0  0  0  0  0  0  0
    2.1681    0.1850   -0.2048 H   0  0  0  0  0  0  0  0  0  0  0  0
    1.0030   -0.4604   -1.3656 H   0  0  0  0  0  0  0  0  0  0  0  0
    1.3993   -1.3856    0.0859 H   0  0  0  0  0  0  0  0  0  0  0  0
    0.3797    0.4050    1.4982 H   0  0  0  0  0  0  0  0  0  0  0  0
   -0.4500    1.7774   -1.3452 H   0  0  0  0  0  0  0  0  0  0  0  0
   -1.0545   -1.4977    0.7478 H   0  0  0  0  0  0  0  0  0  0  0  0
   -1.5206   -0.5758   -0.6849 H   0  0  0  0  0  0  0  0  0  0  0  0
   -1.9957   -0.0054    0.9183 H   0  0  0  0  0  0  0  0  0  0  0  0
  1  2  1  0
  1  5  1  0
  1  6  1  0
  1  7  1  0
  2  4  1  0
  2  3  1  0
  2  8  1  0
  3  9  1  0
  4 10  1  0
  4 11  1  0
  4 12  1  0
M  END
>  <reaction>  (1) 
rxn_1921

>  <mol_properties>  (1) 
{"1": {"label": "donator", "atom_type": "Cs"}, "7": {"label": "d_hydrogen", "atom_type": "H0"}}

>  <type>  (1) 
r1h

$$$$

     RDKit          3D

 11 10  0  0  0  0  0  0  0  0999 V2000
   -0.9580    1.1013   -2.2955 C   0  0  0  0  0  0  0  0  0  0  0  0
   -0.5129    0.5941   -1.2929 C   0  0  0  0  0  0  0  0  0  0  0  0
   -0.0301   -0.0160   -0.1357 C   0  0  0  0  0  3  0  0  0  0  0  0
   -0.6593   -1.2845    0.3661 C   0  0  0  0  0  0  0  0  0  0  0  0
    1.0691    0.5292    0.5269 C   0  0  0  0  0  0  0  0  0  0  0  0
    2.0168    0.9794    1.1266 C   0  0  0  0  0  0  0  0  0  0  0  0
   -1.3415    1.5561   -3.1769 H   0  0  0  0  0  0  0  0  0  0  0  0
   -1.7166   -1.3186    0.1054 H   0  0  0  0  0  0  0  0  0  0  0  0
   -0.1742   -2.1550   -0.0865 H   0  0  0  0  0  0  0  0  0  0  0  0
   -0.5505   -1.3663    1.4470 H   0  0  0  0  0  0  0  0  0  0  0  0
    2.8514    1.3842    1.6465 H   0  0  0  0  0  0  0  0  0  0  0  0
  1  2  3  0
  1  7  1  0
  2  3  1  0
  3  4  1  0
  3  5  1  0
  4  8  1  0
  4  9  1  0
  4 10  1  0
  5  6  3  0
  6 11  1  0
M  RAD  1   3   2
M  END
>  <reaction>  (2) 
rxn_1921

>  <mol_properties>  (2) 
{"2": {"label": "acceptor", "atom_type": "Cs"}}

>  <type>  (2) 
r2

$$$$

     RDKit          3D

 12 11  0  0  0  0  0  0  0  0999 V2000
    2.1696    0.6854    1.1310 C   0  0  0  0  0  0  0  0  0  0  0  0
    1.2518    0.4145    0.4134 C   0  0  0  0  0  0  0  0  0  0  0  0
    0.1391    0.0443   -0.4683 C   0  0  0  0  0  0  0  0  0  0  0  0
   -0.2054   -1.4492   -0.3339 C   0  0  0  0  0  0  0  0  0  0  0  0
   -1.0375    0.8853   -0.2222 C   0  0  0  0  0  0  0  0  0  0  0  0
   -2.0160    1.5463   -0.0311 C   0  0  0  0  0  0  0  0  0  0  0  0
    2.9819    0.9356    1.7702 H   0  0  0  0  0  0  0  0  0  0  0  0
    0.4629    0.2285   -1.4981 H   0  0  0  0  0  0  0  0  0  0  0  0
   -0.5327   -1.6703    0.6812 H   0  0  0  0  0  0  0  0  0  0  0  0
    0.6727   -2.0535   -0.5593 H   0  0  0  0  0  0  0  0  0  0  0  0
   -1.0064   -1.7081   -1.0256 H   0  0  0  0  0  0  0  0  0  0  0  0
   -2.8802    2.1413    0.1426 H   0  0  0  0  0  0  0  0  0  0  0  0
  1  2  3  0
  1  7  1  0
  2  3  1  0
  3  4  1  0
  3  5  1  0
  3  8  1  0
  4  9  1  0
  4 10  1  0
  4 11  1  0
  5  6  3  0
  6 12  1  0
M  END
>  <reaction>  (3) 
rxn_1921

>  <mol_properties>  (3) 
{"2": {"label": "acceptor", "atom_type": "Cs"}, "11": {"label": "a_hydrogen", "atom_type": "H0"}}

>  <type>  (3) 
r2h

$$$$

     RDKit          3D

 23 21  0  0  0  0  0  0  0  0999 V2000
   -2.9298    0.6378   -1.2893 C   0  0  0  0  0  0  0  0  0  0  0  0
   -2.1379    0.2455   -0.4770 C   0  0  0  0  0  0  0  0  0  0  0  0
   -1.1461   -0.1553    0.4871 C   0  0  0  0  0  0  0  0  0  0  0  0
   -1.3384    0.4111    1.8888 C   0  0  0  0  0  0  0  0  0  0  0  0
   -0.7841   -1.5481    0.4399 C   0  0  0  0  0  0  0  0  0  0  0  0
   -0.4136   -2.6897    0.4091 C   0  0  0  0  0  0  0  0  0  0  0  0
   -3.6474    0.9644   -2.0027 H   0  0  0  0  0  0  0  0  0  0  0  0
   -1.5042    1.4871    1.8337 H   0  0  0  0  0  0  0  0  0  0  0  0
   -2.1977   -0.0472    2.3812 H   0  0  0  0  0  0  0  0  0  0  0  0
   -0.4475    0.2206    2.4875 H   0  0  0  0  0  0  0  0  0  0  0  0
   -0.1168   -3.7105    0.3844 H   0  0  0  0  0  0  0  0  0  0  0  0
    1.2017    0.4403   -1.7675 C   0  0  0  0  0  0  0  0  0  0  0  0
    1.1058    1.0426   -0.3917 C   0  0  0  0  0  3  0  0  0  0  0  0
    2.3670    0.5858    0.7707 S   0  0  0  0  0  0  0  0  0  0  0  0
    0.7826    2.5124   -0.3353 C   0  0  0  0  0  0  0  0  0  0  0  0
    1.2835   -0.6468   -1.7210 H   0  0  0  0  0  0  0  0  0  0  0  0
    2.0731    0.8280   -2.3048 H   0  0  0  0  0  0  0  0  0  0  0  0
    0.3049    0.6860   -2.3407 H   0  0  0  0  0  0  0  0  0  0  0  0
   -0.0578    0.4339    0.0858 H   0  0  0  0  0  0  0  0  0  0  0  0
    2.3804   -0.7238    0.4854 H   0  0  0  0  0  0  0  0  0  0  0  0
   -0.1548    2.6996   -0.8633 H   0  0  0  0  0  0  0  0  0  0  0  0
    1.5643    3.1094   -0.8172 H   0  0  0  0  0  0  0  0  0  0  0  0
    0.6735    2.8628    0.6920 H   0  0  0  0  0  0  0  0  0  0  0  0
  1  2  3  0
  1  7  1  0
  2  3  1  0
  3  4  1  0
  3  5  1  0
  3 19  1  0
  4  8  1  0
  4  9  1  0
  4 10  1  0
  5  6  3  0
  6 11  1  0
 12 13  1  0
 12 16  1  0
 12 17  1  0
 12 18  1  0
 13 15  1  0
 13 14  1  0
 14 20  1  0
 15 21  1  0
 15 22  1  0
 15 23  1  0
M  RAD  1  13   2
M  END
>  <reaction>  (4) 
rxn_1921

>  <mol_properties>  (4) 
{"1": {"label": "*0", "atom_type": "Ct"}, "2": {"label": "*1", "atom_type": "Cs"}, "12": {"label": "*3", "atom_type": "Cs"}, "13": {"label": "*4", "atom_type": "S2s"}, "18": {"label": "*2", "atom_type": "H0"}}

>  <type>  (4) 
ts

$$$$

     RDKit          3D

 23 21  0  0  0  0  0  0  0  0999 V2000
   -0.5185   -2.6438    1.5045 C   0  0  0  0  0  0  0  0  0  0  0  0
   -0.8708   -1.6955    0.8661 C   0  0  0  0  0  0  0  0  0  0  0  0
   -1.3270   -0.5565    0.0619 C   0  0  0  0  0  3  0  0  0  0  0  0
   -2.7402   -0.7989   -0.4965 C   0  0  0  0  0  0  0  0  0  0  0  0
   -1.2651    0.6939    0.8267 C   0  0  0  0  0  0  0  0  0  0  0  0
   -1.2395    1.7250    1.4325 C   0  0  0  0  0  0  0  0  0  0  0  0
   -0.2054   -3.4868    2.0721 H   0  0  0  0  0  0  0  0  0  0  0  0
   -2.7514   -1.7109   -1.0924 H   0  0  0  0  0  0  0  0  0  0  0  0
   -3.4545   -0.9033    0.3192 H   0  0  0  0  0  0  0  0  0  0  0  0
   -3.0406    0.0416   -1.1212 H   0  0  0  0  0  0  0  0  0  0  0  0
   -1.2167    2.6417    1.9711 H   0  0  0  0  0  0  0  0  0  0  0  0
    0.8108    0.7085   -2.3113 C   0  0  0  0  0  0  0  0  0  0  0  0
    0.8108    0.7085   -0.7889 C   0  0  0  0  0  0  0  0  0  0  0  0
    2.1659   -0.3078   -0.1054 S   0  0  0  0  0  0  0  0  0  0  0  0
    0.8108    2.1185   -0.2149 C   0  0  0  0  0  0  0  0  0  0  0  0
    0.7823   -0.3058   -2.7079 H   0  0  0  0  0  0  0  0  0  0  0  0
    1.7092    1.1982   -2.6948 H   0  0  0  0  0  0  0  0  0  0  0  0
   -0.0561    1.2559   -2.6901 H   0  0  0  0  0  0  0  0  0  0  0  0
   -0.2571    0.0766   -0.3639 H   0  0  0  0  0  0  0  0  0  0  0  0
    3.1718    0.4280   -0.6003 H   0  0  0  0  0  0  0  0  0  0  0  0
   -0.0561    2.6758   -0.5791 H   0  0  0  0  0  0  0  0  0  0  0  0
    1.7092    2.6584   -0.5239 H   0  0  0  0  0  0  0  0  0  0  0  0
    0.7823    2.1035    0.8740 H   0  0  0  0  0  0  0  0  0  0  0  0
  1  2  3  0
  1  7  1  0
  2  3  1  0
  3  4  1  0
  3  5  1  0
  4  8  1  0
  4  9  1  0
  4 10  1  0
  5  6  3  0
  6 11  1  0
 12 13  1  0
 12 16  1  0
 12 17  1  0
 12 18  1  0
 13 15  1  0
 13 14  1  0
 13 19  1  0
 14 20  1  0
 15 21  1  0
 15 22  1  0
 15 23  1  0
M  RAD  1   3   2
M  END
>  <reaction>  (5) 
rxn_1921

>  <mol_properties>  (5) 
{"1": {"label": "*0", "atom_type": "Ct"}, "2": {"label": "*1", "atom_type": "Cs"}, "12": {"label": "*3", "atom_type": "Cs"}, "13": {"label": "*4", "atom_type": "S2s"}, "18": {"label": "*2", "atom_type": "H0"}}

>  <type>  (5) 
unop_1

>  <geom_source>  (5) 
Heuristics

$$$$

     RDKit          3D

 23 21  0  0  0  0  0  0  0  0999 V2000
   -1.9566   -2.0777   -1.5382 C   0  0  0  0  0  0  0  0  0  0  0  0
   -1.6544   -1.2687   -0.7105 C   0  0  0  0  0  0  0  0  0  0  0  0
   -1.3162   -0.2551    0.2948 C   0  0  0  0  0  3  0  0  0  0  0  0
   -2.5731    0.4849    0.7847 C   0  0  0  0  0  0  0  0  0  0  0  0
   -0.5753   -0.8438    1.4159 C   0  0  0  0  0  0  0  0  0  0  0  0
    0.0164   -1.3008    2.3496 C   0  0  0  0  0  0  0  0  0  0  0  0
   -2.2253   -2.7970   -2.2740 H   0  0  0  0  0  0  0  0  0  0  0  0
   -3.0841    0.9460   -0.0598 H   0  0  0  0  0  0  0  0  0  0  0  0
   -3.2551   -0.2119    1.2701 H   0  0  0  0  0  0  0  0  0  0  0  0
   -2.2926    1.2577    1.4998 H   0  0  0  0  0  0  0  0  0  0  0  0
    0.5425   -1.7071    3.1798 H   0  0  0  0  0  0  0  0  0  0  0  0
    0.8216    1.0098   -2.0784 C   0  0  0  0  0  0  0  0  0  0  0  0
    0.8216    1.0098   -0.5560 C   0  0  0  0  0  0  0  0  0  0  0  0
    2.1767   -0.0065    0.1275 S   0  0  0  0  0  0  0  0  0  0  0  0
    0.8216    2.4198    0.0180 C   0  0  0  0  0  0  0  0  0  0  0  0
    0.7931   -0.0044   -2.4750 H   0  0  0  0  0  0  0  0  0  0  0  0
    1.7200    1.4996   -2.4619 H   0  0  0  0  0  0  0  0  0  0  0  0
   -0.0453    1.5573   -2.4572 H   0  0  0  0  0  0  0  0  0  0  0  0
   -0.2463    0.3779   -0.1310 H   0  0  0  0  0  0  0  0  0  0  0  0
    3.1826    0.7294   -0.3674 H   0  0  0  0  0  0  0  0  0  0  0  0
   -0.0453    2.9771   -0.3462 H   0  0  0  0  0  0  0  0  0  0  0  0
    1.7200    2.9597   -0.2910 H   0  0  0  0  0  0  0  0  0  0  0  0
    0.7931    2.4048    1.1069 H   0  0  0  0  0  0  0  0  0  0  0  0
  1  2  3  0
  1  7  1  0
  2  3  1  0
  3  4  1  0
  3  5  1  0
  4  8  1  0
  4  9  1  0
  4 10  1  0
  5  6  3  0
  6 11  1  0
 12 13  1  0
 12 16  1  0
 12 17  1  0
 12 18  1  0
 13 15  1  0
 13 14  1  0
 13 19  1  0
 14 20  1  0
 15 21  1  0
 15 22  1  0
 15 23  1  0
M  RAD  1   3   2
M  END
>  <reaction>  (6) 
rxn_1921

>  <mol_properties>  (6) 
{"1": {"label": "*0", "atom_type": "Ct"}, "2": {"label": "*1", "atom_type": "Cs"}, "12": {"label": "*3", "atom_type": "Cs"}, "13": {"label": "*4", "atom_type": "S2s"}, "18": {"label": "*2", "atom_type": "H0"}}

>  <type>  (6) 
unop_2

>  <geom_source>  (6) 
Heuristics

$$$$

     RDKit          3D

 23 21  0  0  0  0  0  0  0  0999 V2000
   -0.5945   -1.7788    2.4387 C   0  0  0  0  0  0  0  0  0  0  0  0
   -0.8644   -1.2493    1.4006 C   0  0  0  0  0  0  0  0  0  0  0  0
   -1.2025   -0.6359    0.1115 C   0  0  0  0  0  3  0  0  0  0  0  0
   -2.1662   -1.5254   -0.6932 C   0  0  0  0  0  0  0  0  0  0  0  0
   -1.7498    0.7134    0.2913 C   0  0  0  0  0  0  0  0  0  0  0  0
   -2.2133    1.8097    0.4104 C   0  0  0  0  0  0  0  0  0  0  0  0
   -0.3546   -2.2496    3.3615 H   0  0  0  0  0  0  0  0  0  0  0  0
   -1.7216   -2.5081   -0.8473 H   0  0  0  0  0  0  0  0  0  0  0  0
   -3.1058   -1.6453   -0.1555 H   0  0  0  0  0  0  0  0  0  0  0  0
   -2.3710   -1.0685   -1.6609 H   0  0  0  0  0  0  0  0  0  0  0  0
   -2.6253    2.7843    0.5164 H   0  0  0  0  0  0  0  0  0  0  0  0
    0.9352    0.6291   -2.2616 C   0  0  0  0  0  0  0  0  0  0  0  0
    0.9352    0.6291   -0.7393 C   0  0  0  0  0  0  0  0  0  0  0  0
    2.2904   -0.3872   -0.0557 S   0  0  0  0  0  0  0  0  0  0  0  0
    0.9352    2.0391   -0.1653 C   0  0  0  0  0  0  0  0  0  0  0  0
    0.9067   -0.3852   -2.6583 H   0  0  0  0  0  0  0  0  0  0  0  0
    1.8337    1.1188   -2.6452 H   0  0  0  0  0  0  0  0  0  0  0  0
    0.0683    1.1765   -2.6405 H   0  0  0  0  0  0  0  0  0  0  0  0
   -0.1326   -0.0028   -0.3143 H   0  0  0  0  0  0  0  0  0  0  0  0
    3.2963    0.3486   -0.5506 H   0  0  0  0  0  0  0  0  0  0  0  0
    0.0683    2.5964   -0.5295 H   0  0  0  0  0  0  0  0  0  0  0  0
    1.8337    2.5790   -0.4743 H   0  0  0  0  0  0  0  0  0  0  0  0
    0.9067    2.0241    0.9236 H   0  0  0  0  0  0  0  0  0  0  0  0
  1  2  3  0
  1  7  1  0
  2  3  1  0
  3  4  1  0
  3  5  1  0
  4  8  1  0
  4  9  1  0
  4 10  1  0
  5  6  3  0
  6 11  1  0
 12 13  1  0
 12 16  1  0
 12 17  1  0
 12 18  1  0
 13 15  1  0
 13 14  1  0
 13 19  1  0
 14 20  1  0
 15 21  1  0
 15 22  1  0
 15 23  1  0
M  RAD  1   3   2
M  END
>  <reaction>  (7) 
rxn_1921

>  <mol_properties>  (7) 
{"1": {"label": "*0", "atom_type": "Ct"}, "2": {"label": "*1", "atom_type": "Cs"}, "12": {"label": "*3", "atom_type": "Cs"}, "13": {"label": "*4", "atom_type": "S2s"}, "18": {"label": "*2", "atom_type": "H0"}}

>  <type>  (7) 
unop_3

>  <geom_source>  (7) 
Heuristics

$$$$

     RDKit          3D

 23 21  0  0  0  0  0  0  0  0999 V2000
   -3.1759    0.8785   -0.6047 C   0  0  0  0  0  0  0  0  0  0  0  0
   -2.2324    0.2671   -0.1964 C   0  0  0  0  0  0  0  0  0  0  0  0
   -1.0631   -0.4500    0.3240 C   0  0  0  0  0  3  0  0  0  0  0  0
   -0.5844    0.1562    1.6548 C   0  0  0  0  0  0  0  0  0  0  0  0
   -1.3364   -1.8848    0.4616 C   0  0  0  0  0  0  0  0  0  0  0  0
   -1.5377   -3.0560    0.5983 C   0  0  0  0  0  0  0  0  0  0  0  0
   -4.0148    1.4221   -0.9677 H   0  0  0  0  0  0  0  0  0  0  0  0
   -0.3506    1.2115    1.5180 H   0  0  0  0  0  0  0  0  0  0  0  0
   -1.3620    0.0639    2.4119 H   0  0  0  0  0  0  0  0  0  0  0  0
    0.3066   -0.3668    2.0006 H   0  0  0  0  0  0  0  0  0  0  0  0
   -1.7167   -4.0972    0.7198 H   0  0  0  0  0  0  0  0  0  0  0  0
    1.0747    0.8149   -2.0491 C   0  0  0  0  0  0  0  0  0  0  0  0
    1.0747    0.8149   -0.5268 C   0  0  0  0  0  0  0  0  0  0  0  0
    2.4298   -0.2013    0.1568 S   0  0  0  0  0  0  0  0  0  0  0  0
    1.0747    2.2249    0.0472 C   0  0  0  0  0  0  0  0  0  0  0  0
    1.0462   -0.1993   -2.4458 H   0  0  0  0  0  0  0  0  0  0  0  0
    1.9731    1.3047   -2.4327 H   0  0  0  0  0  0  0  0  0  0  0  0
    0.2078    1.3624   -2.4280 H   0  0  0  0  0  0  0  0  0  0  0  0
    0.0068    0.1831   -0.1018 H   0  0  0  0  0  0  0  0  0  0  0  0
    3.4357    0.5345   -0.3381 H   0  0  0  0  0  0  0  0  0  0  0  0
    0.2078    2.7822   -0.3170 H   0  0  0  0  0  0  0  0  0  0  0  0
    1.9731    2.7649   -0.2618 H   0  0  0  0  0  0  0  0  0  0  0  0
    1.0462    2.2099    1.1362 H   0  0  0  0  0  0  0  0  0  0  0  0
  1  2  3  0
  1  7  1  0
  2  3  1  0
  3  4  1  0
  3  5  1  0
  4  8  1  0
  4  9  1  0
  4 10  1  0
  5  6  3  0
  6 11  1  0
 12 13  1  0
 12 16  1  0
 12 17  1  0
 12 18  1  0
 13 15  1  0
 13 14  1  0
 13 19  1  0
 14 20  1  0
 15 21  1  0
 15 22  1  0
 15 23  1  0
M  RAD  1   3   2
M  END
>  <reaction>  (8) 
rxn_1921

>  <mol_properties>  (8) 
{"1": {"label": "*0", "atom_type": "Ct"}, "2": {"label": "*1", "atom_type": "Cs"}, "12": {"label": "*3", "atom_type": "Cs"}, "13": {"label": "*4", "atom_type": "S2s"}, "18": {"label": "*2", "atom_type": "H0"}}

>  <type>  (8) 
unop_4

>  <geom_source>  (8) 
Heuristics

$$$$

     RDKit          3D

 23 21  0  0  0  0  0  0  0  0999 V2000
   -1.0130   -0.5711    2.8677 C   0  0  0  0  0  0  0  0  0  0  0  0
   -1.0564   -0.5589    1.6724 C   0  0  0  0  0  0  0  0  0  0  0  0
   -1.0904   -0.5790    0.2058 C   0  0  0  0  0  3  0  0  0  0  0  0
   -1.0414   -2.0194   -0.3331 C   0  0  0  0  0  0  0  0  0  0  0  0
   -2.2597    0.1417   -0.3095 C   0  0  0  0  0  0  0  0  0  0  0  0
   -3.2131    0.7098   -0.7559 C   0  0  0  0  0  0  0  0  0  0  0  0
   -0.9744   -0.5820    3.9304 H   0  0  0  0  0  0  0  0  0  0  0  0
   -0.1453   -2.5207    0.0311 H   0  0  0  0  0  0  0  0  0  0  0  0
   -1.9158   -2.5763    0.0009 H   0  0  0  0  0  0  0  0  0  0  0  0
   -1.0278   -2.0068   -1.4225 H   0  0  0  0  0  0  0  0  0  0  0  0
   -4.0606    1.2149   -1.1527 H   0  0  0  0  0  0  0  0  0  0  0  0
    1.0474    0.6860   -2.1673 C   0  0  0  0  0  0  0  0  0  0  0  0
    1.0474    0.6860   -0.6450 C   0  0  0  0  0  0  0  0  0  0  0  0
    2.4026   -0.3303    0.0386 S   0  0  0  0  0  0  0  0  0  0  0  0
    1.0474    2.0960   -0.0710 C   0  0  0  0  0  0  0  0  0  0  0  0
    1.0189   -0.3283   -2.5640 H   0  0  0  0  0  0  0  0  0  0  0  0
    1.9458    1.1757   -2.5509 H   0  0  0  0  0  0  0  0  0  0  0  0
    0.1805    1.2334   -2.5462 H   0  0  0  0  0  0  0  0  0  0  0  0
   -0.0205    0.0541   -0.2200 H   0  0  0  0  0  0  0  0  0  0  0  0
    3.4085    0.4055   -0.4564 H   0  0  0  0  0  0  0  0  0  0  0  0
    0.1805    2.6533   -0.4352 H   0  0  0  0  0  0  0  0  0  0  0  0
    1.9458    2.6359   -0.3800 H   0  0  0  0  0  0  0  0  0  0  0  0
    1.0189    2.0810    1.0179 H   0  0  0  0  0  0  0  0  0  0  0  0
  1  2  3  0
  1  7  1  0
  2  3  1  0
  3  4  1  0
  3  5  1  0
  4  8  1  0
  4  9  1  0
  4 10  1  0
  5  6  3  0
  6 11  1  0
 12 13  1  0
 12 16  1  0
 12 17  1  0
 12 18  1  0
 13 15  1  0
 13 14  1  0
 13 19  1  0
 14 20  1  0
 15 21  1  0
 15 22  1  0
 15 23  1  0
M  RAD  1   3   2
M  END
>  <reaction>  (9) 
rxn_1921

>  <mol_properties>  (9) 
{"1": {"label": "*0", "atom_type": "Ct"}, "2": {"label": "*1", "atom_type": "Cs"}, "12": {"label": "*3", "atom_type": "Cs"}, "13": {"label": "*4", "atom_type": "S2s"}, "18": {"label": "*2", "atom_type": "H0"}}

>  <type>  (9) 
unop_5

>  <geom_source>  (9) 
Heuristics

$$$$

     RDKit          3D

 23 21  0  0  0  0  0  0  0  0999 V2000
   -2.9945    1.3459    0.5364 C   0  0  0  0  0  0  0  0  0  0  0  0
   -2.1423    0.5174    0.4021 C   0  0  0  0  0  0  0  0  0  0  0  0
   -1.0727   -0.4767    0.2602 C   0  0  0  0  0  3  0  0  0  0  0  0
   -0.1110   -0.4357    1.4605 C   0  0  0  0  0  0  0  0  0  0  0  0
   -1.6204   -1.8235    0.0638 C   0  0  0  0  0  0  0  0  0  0  0  0
   -2.0402   -2.9340   -0.0820 C   0  0  0  0  0  0  0  0  0  0  0  0
   -3.7522    2.0826    0.6558 H   0  0  0  0  0  0  0  0  0  0  0  0
    0.3123    0.5631    1.5619 H   0  0  0  0  0  0  0  0  0  0  0  0
   -0.6424   -0.6867    2.3776 H   0  0  0  0  0  0  0  0  0  0  0  0
    0.6952   -1.1538    1.3138 H   0  0  0  0  0  0  0  0  0  0  0  0
   -2.4135   -3.9213   -0.2117 H   0  0  0  0  0  0  0  0  0  0  0  0
    1.0651    0.7883   -2.1130 C   0  0  0  0  0  0  0  0  0  0  0  0
    1.0651    0.7883   -0.5906 C   0  0  0  0  0  0  0  0  0  0  0  0
    2.4202   -0.2280    0.0929 S   0  0  0  0  0  0  0  0  0  0  0  0
    1.0651    2.1983   -0.0167 C   0  0  0  0  0  0  0  0  0  0  0  0
    1.0365   -0.2260   -2.5097 H   0  0  0  0  0  0  0  0  0  0  0  0
    1.9635    1.2780   -2.4966 H   0  0  0  0  0  0  0  0  0  0  0  0
    0.1981    1.3357   -2.4918 H   0  0  0  0  0  0  0  0  0  0  0  0
   -0.0028    0.1564   -0.1656 H   0  0  0  0  0  0  0  0  0  0  0  0
    3.4261    0.5078   -0.4020 H   0  0  0  0  0  0  0  0  0  0  0  0
    0.1981    2.7556   -0.3809 H   0  0  0  0  0  0  0  0  0  0  0  0
    1.9635    2.7382   -0.3256 H   0  0  0  0  0  0  0  0  0  0  0  0
    1.0365    2.1832    1.0723 H   0  0  0  0  0  0  0  0  0  0  0  0
  1  2  3  0
  1  7  1  0
  2  3  1  0
  3  4  1  0
  3  5  1  0
  4  8  1  0
  4  9  1  0
  4 10  1  0
  5  6  3  0
  6 11  1  0
 12 13  1  0
 12 16  1  0
 12 17  1  0
 12 18  1  0
 13 15  1  0
 13 14  1  0
 13 19  1  0
 14 20  1  0
 15 21  1  0
 15 22  1  0
 15 23  1  0
M  RAD  1   3   2
M  END
>  <reaction>  (10) 
rxn_1921

>  <mol_properties>  (10) 
{"1": {"label": "*0", "atom_type": "Ct"}, "2": {"label": "*1", "atom_type": "Cs"}, "12": {"label": "*3", "atom_type": "Cs"}, "13": {"label": "*4", "atom_type": "S2s"}, "18": {"label": "*2", "atom_type": "H0"}}

>  <type>  (10) 
unop_6

>  <geom_source>  (10) 
Heuristics

$$$$

     RDKit          3D

 23 21  0  0  0  0  0  0  0  0999 V2000
   -2.4778    1.2596    1.7066 C   0  0  0  0  0  0  0  0  0  0  0  0
   -1.8694    0.4807    1.0328 C   0  0  0  0  0  0  0  0  0  0  0  0
   -1.0906   -0.4675    0.2285 C   0  0  0  0  0  3  0  0  0  0  0  0
    0.0762   -1.0587    1.0389 C   0  0  0  0  0  0  0  0  0  0  0  0
   -1.9448   -1.5254   -0.3224 C   0  0  0  0  0  0  0  0  0  0  0  0
   -2.6155   -2.4083   -0.7712 C   0  0  0  0  0  0  0  0  0  0  0  0
   -3.0187    1.9521    2.3056 H   0  0  0  0  0  0  0  0  0  0  0  0
    0.7172   -0.2569    1.4038 H   0  0  0  0  0  0  0  0  0  0  0  0
   -0.3038   -1.6202    1.8913 H   0  0  0  0  0  0  0  0  0  0  0  0
    0.6620   -1.7282    0.4099 H   0  0  0  0  0  0  0  0  0  0  0  0
   -3.2119   -3.1932   -1.1701 H   0  0  0  0  0  0  0  0  0  0  0  0
    1.0472    0.7975   -2.1446 C   0  0  0  0  0  0  0  0  0  0  0  0
    1.0472    0.7975   -0.6223 C   0  0  0  0  0  0  0  0  0  0  0  0
    2.4023   -0.2188    0.0613 S   0  0  0  0  0  0  0  0  0  0  0  0
    1.0472    2.2075   -0.0483 C   0  0  0  0  0  0  0  0  0  0  0  0
    1.0187   -0.2168   -2.5413 H   0  0  0  0  0  0  0  0  0  0  0  0
    1.9456    1.2872   -2.5282 H   0  0  0  0  0  0  0  0  0  0  0  0
    0.1803    1.3449   -2.5235 H   0  0  0  0  0  0  0  0  0  0  0  0
   -0.0207    0.1656   -0.1973 H   0  0  0  0  0  0  0  0  0  0  0  0
    3.4082    0.5170   -0.4336 H   0  0  0  0  0  0  0  0  0  0  0  0
    0.1803    2.7648   -0.4125 H   0  0  0  0  0  0  0  0  0  0  0  0
    1.9456    2.7474   -0.3573 H   0  0  0  0  0  0  0  0  0  0  0  0
    1.0187    2.1924    1.0407 H   0  0  0  0  0  0  0  0  0  0  0  0
  1  2  3  0
  1  7  1  0
  2  3  1  0
  3  4  1  0
  3  5  1  0
  4  8  1  0
  4  9  1  0
  4 10  1  0
  5  6  3  0
  6 11  1  0
 12 13  1  0
 12 16  1  0
 12 17  1  0
 12 18  1  0
 13 15  1  0
 13 14  1  0
 13 19  1  0
 14 20  1  0
 15 21  1  0
 15 22  1  0
 15 23  1  0
M  RAD  1   3   2
M  END
>  <reaction>  (11) 
rxn_1921

>  <mol_properties>  (11) 
{"1": {"label": "*0", "atom_type": "Ct"}, "2": {"label": "*1", "atom_type": "Cs"}, "12": {"label": "*3", "atom_type": "Cs"}, "13": {"label": "*4", "atom_type": "S2s"}, "18": {"label": "*2", "atom_type": "H0"}}

>  <type>  (11) 
unop_7

>  <geom_source>  (11) 
Heuristics

$$$$

     RDKit          3D

 23 21  0  0  0  0  0  0  0  0999 V2000
   -0.7742   -3.0049    0.3322 C   0  0  0  0  0  0  0  0  0  0  0  0
   -1.0381   -1.8424    0.2336 C   0  0  0  0  0  0  0  0  0  0  0  0
   -1.3946   -0.4263    0.0917 C   0  0  0  0  0  3  0  0  0  0  0  0
   -2.9121   -0.2493   -0.0911 C   0  0  0  0  0  0  0  0  0  0  0  0
   -0.9003    0.3632    1.2251 C   0  0  0  0  0  0  0  0  0  0  0  0
   -0.5221    1.0277    2.1450 C   0  0  0  0  0  0  0  0  0  0  0  0
   -0.5395   -4.0384    0.4199 H   0  0  0  0  0  0  0  0  0  0  0  0
   -3.2485   -0.8128   -0.9608 H   0  0  0  0  0  0  0  0  0  0  0  0
   -3.4422   -0.6117    0.7887 H   0  0  0  0  0  0  0  0  0  0  0  0
   -3.1474    0.8049   -0.2336 H   0  0  0  0  0  0  0  0  0  0  0  0
   -0.1859    1.6184    2.9629 H   0  0  0  0  0  0  0  0  0  0  0  0
    0.7432    0.8386   -2.2814 C   0  0  0  0  0  0  0  0  0  0  0  0
    0.7432    0.8386   -0.7591 C   0  0  0  0  0  0  0  0  0  0  0  0
    2.0983   -0.1777   -0.0755 S   0  0  0  0  0  0  0  0  0  0  0  0
    0.7432    2.2486   -0.1851 C   0  0  0  0  0  0  0  0  0  0  0  0
    0.7146   -0.1756   -2.6781 H   0  0  0  0  0  0  0  0  0  0  0  0
    1.6416    1.3283   -2.6650 H   0  0  0  0  0  0  0  0  0  0  0  0
   -0.1238    1.3860   -2.6603 H   0  0  0  0  0  0  0  0  0  0  0  0
   -0.3247    0.2067   -0.3341 H   0  0  0  0  0  0  0  0  0  0  0  0
    3.1042    0.5581   -0.5704 H   0  0  0  0  0  0  0  0  0  0  0  0
   -0.1238    2.8059   -0.5493 H   0  0  0  0  0  0  0  0  0  0  0  0
    1.6416    2.7885   -0.4941 H   0  0  0  0  0  0  0  0  0  0  0  0
    0.7146    2.2336    0.9039 H   0  0  0  0  0  0  0  0  0  0  0  0
  1  2  3  0
  1  7  1  0
  2  3  1  0
  3  4  1  0
  3  5  1  0
  4  8  1  0
  4  9  1  0
  4 10  1  0
  5  6  3  0
  6 11  1  0
 12 13  1  0
 12 16  1  0
 12 17  1  0
 12 18  1  0
 13 15  1  0
 13 14  1  0
 13 19  1  0
 14 20  1  0
 15 21  1  0
 15 22  1  0
 15 23  1  0
M  RAD  1   3   2
M  END
>  <reaction>  (12) 
rxn_1921

>  <mol_properties>  (12) 
{"1": {"label": "*0", "atom_type": "Ct"}, "2": {"label": "*1", "atom_type": "Cs"}, "12": {"label": "*3", "atom_type": "Cs"}, "13": {"label": "*4", "atom_type": "S2s"}, "18": {"label": "*2", "atom_type": "H0"}}

>  <type>  (12) 
unop_8

>  <geom_source>  (12) 
Heuristics

$$$$

     RDKit          3D

 23 21  0  0  0  0  0  0  0  0999 V2000
   -3.0111    0.0056   -1.4354 C   0  0  0  0  0  0  0  0  0  0  0  0
   -2.1507   -0.1814   -0.6257 C   0  0  0  0  0  0  0  0  0  0  0  0
   -1.0995   -0.3729    0.3796 C   0  0  0  0  0  3  0  0  0  0  0  0
   -1.2807    0.5901    1.5658 C   0  0  0  0  0  0  0  0  0  0  0  0
   -1.0425   -1.7676    0.8313 C   0  0  0  0  0  0  0  0  0  0  0  0
   -0.9850   -2.8944    1.2285 C   0  0  0  0  0  0  0  0  0  0  0  0
   -3.7760    0.1719   -2.1552 H   0  0  0  0  0  0  0  0  0  0  0  0
   -1.2805    1.6199    1.2101 H   0  0  0  0  0  0  0  0  0  0  0  0
   -2.2259    0.3929    2.0700 H   0  0  0  0  0  0  0  0  0  0  0  0
   -0.4677    0.4566    2.2787 H   0  0  0  0  0  0  0  0  0  0  0  0
   -0.9338   -3.8962    1.5816 H   0  0  0  0  0  0  0  0  0  0  0  0
    1.0383    0.8921   -1.9936 C   0  0  0  0  0  0  0  0  0  0  0  0
    1.0383    0.8921   -0.4712 C   0  0  0  0  0  0  0  0  0  0  0  0
    2.3935   -0.1242    0.2123 S   0  0  0  0  0  0  0  0  0  0  0  0
    1.0383    2.3020    0.1028 C   0  0  0  0  0  0  0  0  0  0  0  0
    1.0098   -0.1222   -2.3902 H   0  0  0  0  0  0  0  0  0  0  0  0
    1.9368    1.3818   -2.3771 H   0  0  0  0  0  0  0  0  0  0  0  0
    0.1714    1.4395   -2.3724 H   0  0  0  0  0  0  0  0  0  0  0  0
   -0.0295    0.2602   -0.0462 H   0  0  0  0  0  0  0  0  0  0  0  0
    3.3994    0.6116   -0.2826 H   0  0  0  0  0  0  0  0  0  0  0  0
    0.1714    2.8593   -0.2614 H   0  0  0  0  0  0  0  0  0  0  0  0
    1.9368    2.8420   -0.2062 H   0  0  0  0  0  0  0  0  0  0  0  0
    1.0098    2.2870    1.1917 H   0  0  0  0  0  0  0  0  0  0  0  0
  1  2  3  0
  1  7  1  0
  2  3  1  0
  3  4  1  0
  3  5  1  0
  4  8  1  0
  4  9  1  0
  4 10  1  0
  5  6  3  0
  6 11  1  0
 12 13  1  0
 12 16  1  0
 12 17  1  0
 12 18  1  0
 13 15  1  0
 13 14  1  0
 13 19  1  0
 14 20  1  0
 15 21  1  0
 15 22  1  0
 15 23  1  0
M  RAD  1   3   2
M  END
>  <reaction>  (13) 
rxn_1921

>  <mol_properties>  (13) 
{"1": {"label": "*0", "atom_type": "Ct"}, "2": {"label": "*1", "atom_type": "Cs"}, "12": {"label": "*3", "atom_type": "Cs"}, "13": {"label": "*4", "atom_type": "S2s"}, "18": {"label": "*2", "atom_type": "H0"}}

>  <type>  (13) 
unop_9

>  <geom_source>  (13) 
Heuristics

$$$$

     RDKit          3D

 23 21  0  0  0  0  0  0  0  0999 V2000
   -1.3012   -2.7939   -0.7767 C   0  0  0  0  0  0  0  0  0  0  0  0
   -1.3256   -1.6812   -0.3383 C   0  0  0  0  0  0  0  0  0  0  0  0
   -1.3913   -0.3111    0.1821 C   0  0  0  0  0  3  0  0  0  0  0  0
   -2.8490    0.1528    0.3478 C   0  0  0  0  0  0  0  0  0  0  0  0
   -0.6468   -0.1831    1.4398 C   0  0  0  0  0  0  0  0  0  0  0  0
   -0.0601   -0.0548    2.4743 C   0  0  0  0  0  0  0  0  0  0  0  0
   -1.2795   -3.7831   -1.1665 H   0  0  0  0  0  0  0  0  0  0  0  0
   -3.3697    0.0857   -0.6069 H   0  0  0  0  0  0  0  0  0  0  0  0
   -3.3639   -0.4753    1.0736 H   0  0  0  0  0  0  0  0  0  0  0  0
   -2.8718    1.1845    0.6972 H   0  0  0  0  0  0  0  0  0  0  0  0
    0.4615    0.0592    3.3939 H   0  0  0  0  0  0  0  0  0  0  0  0
    0.7465    0.9538   -2.1910 C   0  0  0  0  0  0  0  0  0  0  0  0
    0.7465    0.9538   -0.6687 C   0  0  0  0  0  0  0  0  0  0  0  0
    2.1016   -0.0625    0.0149 S   0  0  0  0  0  0  0  0  0  0  0  0
    0.7465    2.3638   -0.0947 C   0  0  0  0  0  0  0  0  0  0  0  0
    0.7179   -0.0604   -2.5877 H   0  0  0  0  0  0  0  0  0  0  0  0
    1.6449    1.4436   -2.5746 H   0  0  0  0  0  0  0  0  0  0  0  0
   -0.1205    1.5013   -2.5699 H   0  0  0  0  0  0  0  0  0  0  0  0
   -0.3214    0.3220   -0.2437 H   0  0  0  0  0  0  0  0  0  0  0  0
    3.1075    0.6734   -0.4800 H   0  0  0  0  0  0  0  0  0  0  0  0
   -0.1205    2.9211   -0.4589 H   0  0  0  0  0  0  0  0  0  0  0  0
    1.6449    2.9037   -0.4037 H   0  0  0  0  0  0  0  0  0  0  0  0
    0.7179    2.3488    0.9943 H   0  0  0  0  0  0  0  0  0  0  0  0
  1  2  3  0
  1  7  1  0
  2  3  1  0
  3  4  1  0
  3  5  1  0
  4  8  1  0
  4  9  1  0
  4 10  1  0
  5  6  3  0
  6 11  1  0
 12 13  1  0
 12 16  1  0
 12 17  1  0
 12 18  1  0
 13 15  1  0
 13 14  1  0
 13 19  1  0
 14 20  1  0
 15 21  1  0
 15 22  1  0
 15 23  1  0
M  RAD  1   3   2
M  END
>  <reaction>  (14) 
rxn_1921

>  <mol_properties>  (14) 
{"1": {"label": "*0", "atom_type": "Ct"}, "2": {"label": "*1", "atom_type": "Cs"}, "12": {"label": "*3", "atom_type": "Cs"}, "13": {"label": "*4", "atom_type": "S2s"}, "18": {"label": "*2", "atom_type": "H0"}}

>  <type>  (14) 
unop_10

>  <geom_source>  (14) 
Heuristics

$$$$

     RDKit          3D

 23 21  0  0  0  0  0  0  0  0999 V2000
   -1.7371    0.5828    2.5856 C   0  0  0  0  0  0  0  0  0  0  0  0
   -1.4594    0.1116    1.5219 C   0  0  0  0  0  0  0  0  0  0  0  0
   -1.0845   -0.4801    0.2328 C   0  0  0  0  0  3  0  0  0  0  0  0
   -0.1386   -1.6786    0.4237 C   0  0  0  0  0  0  0  0  0  0  0  0
   -2.2700   -0.8574   -0.5447 C   0  0  0  0  0  0  0  0  0  0  0  0
   -3.2192   -1.1888   -1.1927 C   0  0  0  0  0  0  0  0  0  0  0  0
   -1.9840    1.0018    3.5314 H   0  0  0  0  0  0  0  0  0  0  0  0
    0.7512   -1.3649    0.9686 H   0  0  0  0  0  0  0  0  0  0  0  0
   -0.6371   -2.4655    0.9882 H   0  0  0  0  0  0  0  0  0  0  0  0
    0.1566   -2.0756   -0.5470 H   0  0  0  0  0  0  0  0  0  0  0  0
   -4.0632   -1.4834   -1.7688 H   0  0  0  0  0  0  0  0  0  0  0  0
    1.0533    0.7849   -2.1404 C   0  0  0  0  0  0  0  0  0  0  0  0
    1.0533    0.7849   -0.6180 C   0  0  0  0  0  0  0  0  0  0  0  0
    2.4085   -0.2314    0.0655 S   0  0  0  0  0  0  0  0  0  0  0  0
    1.0533    2.1949   -0.0441 C   0  0  0  0  0  0  0  0  0  0  0  0
    1.0248   -0.2294   -2.5371 H   0  0  0  0  0  0  0  0  0  0  0  0
    1.9518    1.2746   -2.5240 H   0  0  0  0  0  0  0  0  0  0  0  0
    0.1864    1.3323   -2.5192 H   0  0  0  0  0  0  0  0  0  0  0  0
   -0.0145    0.1530   -0.1930 H   0  0  0  0  0  0  0  0  0  0  0  0
    3.4144    0.5044   -0.4294 H   0  0  0  0  0  0  0  0  0  0  0  0
    0.1864    2.7522   -0.4083 H   0  0  0  0  0  0  0  0  0  0  0  0
    1.9518    2.7348   -0.3530 H   0  0  0  0  0  0  0  0  0  0  0  0
    1.0248    2.1799    1.0449 H   0  0  0  0  0  0  0  0  0  0  0  0
  1  2  3  0
  1  7  1  0
  2  3  1  0
  3  4  1  0
  3  5  1  0
  4  8  1  0
  4  9  1  0
  4 10  1  0
  5  6  3  0
  6 11  1  0
 12 13  1  0
 12 16  1  0
 12 17  1  0
 12 18  1  0
 13 15  1  0
 13 14  1  0
 13 19  1  0
 14 20  1  0
 15 21  1  0
 15 22  1  0
 15 23  1  0
M  RAD  1   3   2
M  END
>  <reaction>  (15) 
rxn_1921

>  <mol_properties>  (15) 
{"1": {"label": "*0", "atom_type": "Ct"}, "2": {"label": "*1", "atom_type": "Cs"}, "12": {"label": "*3", "atom_type": "Cs"}, "13": {"label": "*4", "atom_type": "S2s"}, "18": {"label": "*2", "atom_type": "H0"}}

>  <type>  (15) 
unop_11

>  <geom_source>  (15) 
Heuristics

$$$$

     RDKit          3D

 23 21  0  0  0  0  0  0  0  0999 V2000
   -2.5706   -1.0590   -1.7713 C   0  0  0  0  0  0  0  0  0  0  0  0
   -1.9444   -0.7264   -0.8079 C   0  0  0  0  0  0  0  0  0  0  0  0
   -1.1974   -0.2844    0.3749 C   0  0  0  0  0  3  0  0  0  0  0  0
   -2.0270    0.6940    1.2245 C   0  0  0  0  0  0  0  0  0  0  0  0
   -0.7411   -1.4270    1.1740 C   0  0  0  0  0  0  0  0  0  0  0  0
   -0.3705   -2.3399    1.8523 C   0  0  0  0  0  0  0  0  0  0  0  0
   -3.1273   -1.3547   -2.6278 H   0  0  0  0  0  0  0  0  0  0  0  0
   -2.3205    1.5519    0.6204 H   0  0  0  0  0  0  0  0  0  0  0  0
   -2.9251    0.2022    1.5959 H   0  0  0  0  0  0  0  0  0  0  0  0
   -1.4380    1.0381    2.0740 H   0  0  0  0  0  0  0  0  0  0  0  0
   -0.0410   -3.1515    2.4554 H   0  0  0  0  0  0  0  0  0  0  0  0
    0.9404    0.9806   -1.9983 C   0  0  0  0  0  0  0  0  0  0  0  0
    0.9404    0.9806   -0.4759 C   0  0  0  0  0  0  0  0  0  0  0  0
    2.2956   -0.0357    0.2076 S   0  0  0  0  0  0  0  0  0  0  0  0
    0.9404    2.3905    0.0981 C   0  0  0  0  0  0  0  0  0  0  0  0
    0.9119   -0.0337   -2.3949 H   0  0  0  0  0  0  0  0  0  0  0  0
    1.8389    1.4703   -2.3818 H   0  0  0  0  0  0  0  0  0  0  0  0
    0.0735    1.5280   -2.3771 H   0  0  0  0  0  0  0  0  0  0  0  0
   -0.1275    0.3487   -0.0509 H   0  0  0  0  0  0  0  0  0  0  0  0
    3.3015    0.7001   -0.2873 H   0  0  0  0  0  0  0  0  0  0  0  0
    0.0735    2.9478   -0.2661 H   0  0  0  0  0  0  0  0  0  0  0  0
    1.8389    2.9305   -0.2109 H   0  0  0  0  0  0  0  0  0  0  0  0
    0.9119    2.3755    1.1870 H   0  0  0  0  0  0  0  0  0  0  0  0
  1  2  3  0
  1  7  1  0
  2  3  1  0
  3  4  1  0
  3  5  1  0
  4  8  1  0
  4  9  1  0
  4 10  1  0
  5  6  3  0
  6 11  1  0
 12 13  1  0
 12 16  1  0
 12 17  1  0
 12 18  1  0
 13 15  1  0
 13 14  1  0
 13 19  1  0
 14 20  1  0
 15 21  1  0
 15 22  1  0
 15 23  1  0
M  RAD  1   3   2
M  END
>  <reaction>  (16) 
rxn_1921

>  <mol_properties>  (16) 
{"1": {"label": "*0", "atom_type": "Ct"}, "2": {"label": "*1", "atom_type": "Cs"}, "12": {"label": "*3", "atom_type": "Cs"}, "13": {"label": "*4", "atom_type": "S2s"}, "18": {"label": "*2", "atom_type": "H0"}}

>  <type>  (16) 
unop_12

>  <geom_source>  (16) 
Heuristics

$$$$

     RDKit          3D

 23 21  0  0  0  0  0  0  0  0999 V2000
   -2.1174   -1.5682   -0.6606 S   0  0  0  0  0  0  0  0  0  0  0  0
    1.1557   -0.0465   -0.2516 C   0  0  0  0  0  0  0  0  0  0  0  0
    1.1387   -1.2305   -1.2158 C   0  0  0  0  0  0  0  0  0  0  0  0
   -1.8884    1.1640   -0.4477 C   0  0  0  0  0  0  0  0  0  0  0  0
   -1.6985   -0.1759    1.6810 C   0  0  0  0  0  0  0  0  0  0  0  0
   -1.3874   -0.1298    0.1870 C   0  0  0  0  0  3  0  0  0  0  0  0
    1.5234    1.1853   -0.9606 C   0  0  0  0  0  0  0  0  0  0  0  0
    2.1122   -0.2861    0.8359 C   0  0  0  0  0  0  0  0  0  0  0  0
    1.8236    2.1975   -1.5433 C   0  0  0  0  0  0  0  0  0  0  0  0
    2.8966   -0.4837    1.7303 C   0  0  0  0  0  0  0  0  0  0  0  0
   -0.0597    0.1056    0.2712 H   0  0  0  0  0  0  0  0  0  0  0  0
    0.3991   -1.0503   -2.0251 H   0  0  0  0  0  0  0  0  0  0  0  0
    0.8412   -2.1550   -0.6762 H   0  0  0  0  0  0  0  0  0  0  0  0
    2.1413   -1.3858   -1.6716 H   0  0  0  0  0  0  0  0  0  0  0  0
   -1.6193    1.1805   -1.5246 H   0  0  0  0  0  0  0  0  0  0  0  0
   -1.4105    2.0375    0.0437 H   0  0  0  0  0  0  0  0  0  0  0  0
   -2.9919    1.2472   -0.3479 H   0  0  0  0  0  0  0  0  0  0  0  0
   -1.2865   -1.1075    2.1221 H   0  0  0  0  0  0  0  0  0  0  0  0
   -2.7959   -0.1474    1.8527 H   0  0  0  0  0  0  0  0  0  0  0  0
   -1.2264    0.6887    2.1935 H   0  0  0  0  0  0  0  0  0  0  0  0
   -1.2220   -2.4682   -0.0524 H   0  0  0  0  0  0  0  0  0  0  0  0
    2.0873    3.0856   -2.0548 H   0  0  0  0  0  0  0  0  0  0  0  0
    3.5850   -0.6572    2.5150 H   0  0  0  0  0  0  0  0  0  0  0  0
  1  6  1  0
  1 21  1  0
  2  3  1  0
  2  7  1  0
  2  8  1  0
  2 11  1  0
  3 12  1  0
  3 13  1  0
  3 14  1  0
  4  6  1  0
  4 15  1  0
  4 16  1  0
  4 17  1  0
  5  6  1  0
  5 18  1  0
  5 19  1  0
  5 20  1  0
  7  9  3  0
  8 10  3  0
  9 22  1  0
 10 23  1  0
M  RAD  1   6   2
M  END
>  <reaction>  (17) 
rxn_1921

>  <mol_properties>  (17) 
{"1": {"label": "*0", "atom_type": "Ct"}, "2": {"label": "*1", "atom_type": "Cs"}, "12": {"label": "*3", "atom_type": "Cs"}, "13": {"label": "*4", "atom_type": "S2s"}, "18": {"label": "*2", "atom_type": "H0"}}

>  <type>  (17) 
unop_13

>  <geom_source>  (17) 
AutoTST

$$$$
