
     RDKit          3D

  7  6  0  0  0  0  0  0  0  0999 V2000
    1.2985   -0.0065   -0.2721 C   0  0  0  0  0  0  0  0  0  0  0  0
    0.0000    0.0000   -0.2926 C   0  0  0  0  0  0  0  0  0  0  0  0
   -1.2985    0.0065   -0.3130 C   0  0  0  0  0  0  0  0  0  0  0  0
    1.8444   -0.7551    0.2895 H   0  0  0  0  0  0  0  0  0  0  0  0
    1.8693    0.7364   -0.8162 H   0  0  0  0  0  0  0  0  0  0  0  0
   -1.8658    0.5623    0.4239 H   0  0  0  0  0  0  0  0  0  0  0  0
   -1.8479   -0.5437   -1.0675 H   0  0  0  0  0  0  0  0  0  0  0  0
  1  2  2  0
  1  4  1  0
  1  5  1  0
  2  3  2  0
  3  6  1  0
  3  7  1  0
M  END
>  <reaction>  (1) 
rxn_1824

>  <mol_properties>  (1) 
{"0": {"label": "donator", "atom_type": "Cd"}, "3": {"label": "d_hydrogen", "atom_type": "H0"}}

>  <type>  (1) 
r1h

$$$$

     RDKit          3D

  7  6  0  0  0  0  0  0  0  0999 V2000
   -2.0652    0.3855   -0.2963 S   0  0  0  0  0  0  0  0  0  0  0  0
   -0.7169   -0.5853    0.1792 C   0  0  0  0  0  3  0  0  0  0  0  0
    0.5987   -0.2168    0.0254 C   0  0  0  0  0  0  0  0  0  0  0  0
    1.7547    0.1211   -0.1163 C   0  0  0  0  0  0  0  0  0  0  0  0
   -1.3643    1.4227   -0.7731 H   0  0  0  0  0  0  0  0  0  0  0  0
   -0.9781   -1.5363    0.6220 H   0  0  0  0  0  0  0  0  0  0  0  0
    2.7711    0.4089   -0.2366 H   0  0  0  0  0  0  0  0  0  0  0  0
  1  2  1  0
  1  5  1  0
  2  3  1  0
  2  6  1  0
  3  4  3  0
  4  7  1  0
M  RAD  1   2   2
M  END
>  <reaction>  (2) 
rxn_1824

>  <mol_properties>  (2) 
{"1": {"label": "acceptor", "atom_type": "Cs"}}

>  <type>  (2) 
r2

$$$$

     RDKit          3D

  8  7  0  0  0  0  0  0  0  0999 V2000
   -0.7014    1.0753    1.5530 S   0  0  0  0  0  0  0  0  0  0  0  0
   -0.3105   -0.4583    0.6462 C   0  0  0  0  0  0  0  0  0  0  0  0
    0.0935   -0.2424   -0.7319 C   0  0  0  0  0  0  0  0  0  0  0  0
    0.4431   -0.0604   -1.8621 C   0  0  0  0  0  0  0  0  0  0  0  0
    0.4994    1.6466    1.3970 H   0  0  0  0  0  0  0  0  0  0  0  0
   -1.2277   -1.0477    0.6819 H   0  0  0  0  0  0  0  0  0  0  0  0
    0.4563   -1.0151    1.1841 H   0  0  0  0  0  0  0  0  0  0  0  0
    0.7474    0.1020   -2.8681 H   0  0  0  0  0  0  0  0  0  0  0  0
  1  2  1  0
  1  5  1  0
  2  3  1  0
  2  6  1  0
  2  7  1  0
  3  4  3  0
  4  8  1  0
M  END
>  <reaction>  (3) 
rxn_1824

>  <mol_properties>  (3) 
{"1": {"label": "acceptor", "atom_type": "Cs"}, "7": {"label": "a_hydrogen", "atom_type": "H0"}}

>  <type>  (3) 
r2h

$$$$

     RDKit          3D

 14 12  0  0  0  0  0  0  0  0999 V2000
   -0.2362   -1.7454   -0.1472 S   0  0  0  0  0  0  0  0  0  0  0  0
    0.2773   -0.5939    1.1112 C   0  0  0  0  0  0  0  0  0  0  0  0
   -0.7265   -0.0771    1.9855 C   0  0  0  0  0  0  0  0  0  0  0  0
   -1.5686    0.4177    2.6832 C   0  0  0  0  0  0  0  0  0  0  0  0
   -1.3018   -1.0472   -0.5610 H   0  0  0  0  0  0  0  0  0  0  0  0
    1.1426   -1.0053    1.6276 H   0  0  0  0  0  0  0  0  0  0  0  0
   -2.3147    0.8402    3.3123 H   0  0  0  0  0  0  0  0  0  0  0  0
    1.2712    1.4830   -0.2628 C   0  0  0  0  0  0  0  0  0  0  0  0
    1.2349    1.2804   -1.5128 C   0  0  0  0  0  0  0  0  0  0  0  0
    1.1509    0.9651   -2.7922 C   0  0  0  0  0  3  0  0  0  0  0  0
    0.7782    0.4294    0.4754 H   0  0  0  0  0  0  0  0  0  0  0  0
    1.5839    2.2982    0.3681 H   0  0  0  0  0  0  0  0  0  0  0  0
    0.2661    1.2068   -3.3674 H   0  0  0  0  0  0  0  0  0  0  0  0
    1.9725    0.4752   -3.2990 H   0  0  0  0  0  0  0  0  0  0  0  0
  1  2  1  0
  1  5  1  0
  2  3  1  0
  2  6  1  0
  2 11  1  0
  3  4  3  0
  4  7  1  0
  8  9  3  0
  8 12  1  0
  9 10  1  0
 10 13  1  0
 10 14  1  0
M  RAD  1  10   2
M  END
>  <reaction>  (4) 
rxn_1824

>  <mol_properties>  (4) 
{"0": {"label": "*0", "atom_type": "S2s"}, "1": {"label": "*1", "atom_type": "Cs"}, "7": {"label": "*3", "atom_type": "Ct"}, "8": {"label": "*4", "atom_type": "Ct"}, "10": {"label": "*2", "atom_type": "H0"}}

>  <type>  (4) 
ts

$$$$

     RDKit          3D

 14 12  0  0  0  0  0  0  0  0999 V2000
    0.8122   -1.0119    1.7101 S   0  0  0  0  0  0  0  0  0  0  0  0
   -0.4442   -0.1439    0.7126 C   0  0  0  0  0  3  0  0  0  0  0  0
   -1.6591   -0.9098    0.4970 C   0  0  0  0  0  0  0  0  0  0  0  0
   -2.6605   -1.5411    0.3194 C   0  0  0  0  0  0  0  0  0  0  0  0
    0.0434   -1.1865    2.7922 H   0  0  0  0  0  0  0  0  0  0  0  0
   -0.6824    0.8125    1.1771 H   0  0  0  0  0  0  0  0  0  0  0  0
   -3.5501   -2.1019    0.1616 H   0  0  0  0  0  0  0  0  0  0  0  0
    0.8876    1.6521   -0.6323 C   0  0  0  0  0  0  0  0  0  0  0  0
    0.8876    1.6521   -1.9309 C   0  0  0  0  0  0  0  0  0  0  0  0
    0.8876    1.6521   -3.2296 C   0  0  0  0  0  0  0  0  0  0  0  0
    0.2240    0.7572    0.0378 H   0  0  0  0  0  0  0  0  0  0  0  0
    1.4406    2.3979   -0.0738 H   0  0  0  0  0  0  0  0  0  0  0  0
    0.1418    2.2051   -3.7880 H   0  0  0  0  0  0  0  0  0  0  0  0
    1.6333    1.0991   -3.7880 H   0  0  0  0  0  0  0  0  0  0  0  0
  1  2  1  0
  1  5  1  0
  2  3  1  0
  2  6  1  0
  3  4  3  0
  4  7  1  0
  8  9  2  0
  8 11  1  0
  8 12  1  0
  9 10  2  0
 10 13  1  0
 10 14  1  0
M  RAD  1   2   2
M  END
>  <reaction>  (5) 
rxn_1824

>  <mol_properties>  (5) 
{"0": {"label": "*0", "atom_type": "S2s"}, "1": {"label": "*1", "atom_type": "Cs"}, "7": {"label": "*3", "atom_type": "Ct"}, "8": {"label": "*4", "atom_type": "Ct"}, "10": {"label": "*2", "atom_type": "H0"}}

>  <type>  (5) 
unop_1

>  <geom_source>  (5) 
Heuristics

$$$$

     RDKit          3D

 14 12  0  0  0  0  0  0  0  0999 V2000
   -0.0681   -1.7599   -0.0311 S   0  0  0  0  0  0  0  0  0  0  0  0
   -0.0673   -0.2794    1.0344 C   0  0  0  0  0  3  0  0  0  0  0  0
   -1.3337   -0.0309    1.7005 C   0  0  0  0  0  0  0  0  0  0  0  0
   -2.3774    0.1740    2.2494 C   0  0  0  0  0  0  0  0  0  0  0  0
   -0.3918   -2.6319    0.9320 H   0  0  0  0  0  0  0  0  0  0  0  0
    0.7328   -0.3592    1.7697 H   0  0  0  0  0  0  0  0  0  0  0  0
   -3.3048    0.3560    2.7372 H   0  0  0  0  0  0  0  0  0  0  0  0
    1.2645    1.5166   -0.3104 C   0  0  0  0  0  0  0  0  0  0  0  0
    1.2645    1.5166   -1.6091 C   0  0  0  0  0  0  0  0  0  0  0  0
    1.2645    1.5166   -2.9077 C   0  0  0  0  0  0  0  0  0  0  0  0
    0.6008    0.6216    0.3597 H   0  0  0  0  0  0  0  0  0  0  0  0
    1.8175    2.2623    0.2480 H   0  0  0  0  0  0  0  0  0  0  0  0
    0.5187    2.0696   -3.4662 H   0  0  0  0  0  0  0  0  0  0  0  0
    2.0102    0.9635   -3.4662 H   0  0  0  0  0  0  0  0  0  0  0  0
  1  2  1  0
  1  5  1  0
  2  3  1  0
  2  6  1  0
  3  4  3  0
  4  7  1  0
  8  9  2  0
  8 11  1  0
  8 12  1  0
  9 10  2  0
 10 13  1  0
 10 14  1  0
M  RAD  1   2   2
M  END
>  <reaction>  (6) 
rxn_1824

>  <mol_properties>  (6) 
{"0": {"label": "*0", "atom_type": "S2s"}, "1": {"label": "*1", "atom_type": "Cs"}, "7": {"label": "*3", "atom_type": "Ct"}, "8": {"label": "*4", "atom_type": "Ct"}, "10": {"label": "*2", "atom_type": "H0"}}

>  <type>  (6) 
unop_2

>  <geom_source>  (6) 
Heuristics

$$$$

     RDKit          3D

 14 12  0  0  0  0  0  0  0  0999 V2000
    0.4047   -0.4031    2.1913 S   0  0  0  0  0  0  0  0  0  0  0  0
   -0.5316   -0.1865    0.6410 C   0  0  0  0  0  3  0  0  0  0  0  0
   -1.1697   -1.4000    0.1623 C   0  0  0  0  0  0  0  0  0  0  0  0
   -1.6956   -2.4002   -0.2323 C   0  0  0  0  0  0  0  0  0  0  0  0
   -0.6276   -0.8375    2.9250 H   0  0  0  0  0  0  0  0  0  0  0  0
   -1.2739    0.6008    0.7698 H   0  0  0  0  0  0  0  0  0  0  0  0
   -2.1629   -3.2889   -0.5828 H   0  0  0  0  0  0  0  0  0  0  0  0
    0.8002    1.6096   -0.7038 C   0  0  0  0  0  0  0  0  0  0  0  0
    0.8002    1.6096   -2.0025 C   0  0  0  0  0  0  0  0  0  0  0  0
    0.8002    1.6096   -3.3011 C   0  0  0  0  0  0  0  0  0  0  0  0
    0.1366    0.7146   -0.0337 H   0  0  0  0  0  0  0  0  0  0  0  0
    1.3532    2.3553   -0.1454 H   0  0  0  0  0  0  0  0  0  0  0  0
    0.0544    2.1626   -3.8596 H   0  0  0  0  0  0  0  0  0  0  0  0
    1.5459    1.0565   -3.8596 H   0  0  0  0  0  0  0  0  0  0  0  0
  1  2  1  0
  1  5  1  0
  2  3  1  0
  2  6  1  0
  3  4  3  0
  4  7  1  0
  8  9  2  0
  8 11  1  0
  8 12  1  0
  9 10  2  0
 10 13  1  0
 10 14  1  0
M  RAD  1   2   2
M  END
>  <reaction>  (7) 
rxn_1824

>  <mol_properties>  (7) 
{"0": {"label": "*0", "atom_type": "S2s"}, "1": {"label": "*1", "atom_type": "Cs"}, "7": {"label": "*3", "atom_type": "Ct"}, "8": {"label": "*4", "atom_type": "Ct"}, "10": {"label": "*2", "atom_type": "H0"}}

>  <type>  (7) 
unop_3

>  <geom_source>  (7) 
Heuristics

$$$$

     RDKit          3D

 14 12  0  0  0  0  0  0  0  0999 V2000
   -1.8246   -0.7479    0.2068 S   0  0  0  0  0  0  0  0  0  0  0  0
   -0.0881   -0.9684    0.7195 C   0  0  0  0  0  3  0  0  0  0  0  0
    0.3015   -0.1482    1.8529 C   0  0  0  0  0  0  0  0  0  0  0  0
    0.6225    0.5278    2.7870 C   0  0  0  0  0  0  0  0  0  0  0  0
   -2.3678   -1.0942    1.3805 H   0  0  0  0  0  0  0  0  0  0  0  0
    0.0977   -2.0198    0.9372 H   0  0  0  0  0  0  0  0  0  0  0  0
    0.9078    1.1284    3.6170 H   0  0  0  0  0  0  0  0  0  0  0  0
    1.2437    0.8276   -0.6253 C   0  0  0  0  0  0  0  0  0  0  0  0
    1.2437    0.8276   -1.9240 C   0  0  0  0  0  0  0  0  0  0  0  0
    1.2437    0.8276   -3.2226 C   0  0  0  0  0  0  0  0  0  0  0  0
    0.5801   -0.0673    0.0448 H   0  0  0  0  0  0  0  0  0  0  0  0
    1.7967    1.5733   -0.0669 H   0  0  0  0  0  0  0  0  0  0  0  0
    0.4980    1.3806   -3.7811 H   0  0  0  0  0  0  0  0  0  0  0  0
    1.9895    0.2746   -3.7811 H   0  0  0  0  0  0  0  0  0  0  0  0
  1  2  1  0
  1  5  1  0
  2  3  1  0
  2  6  1  0
  3  4  3  0
  4  7  1  0
  8  9  2  0
  8 11  1  0
  8 12  1  0
  9 10  2  0
 10 13  1  0
 10 14  1  0
M  RAD  1   2   2
M  END
>  <reaction>  (8) 
rxn_1824

>  <mol_properties>  (8) 
{"0": {"label": "*0", "atom_type": "S2s"}, "1": {"label": "*1", "atom_type": "Cs"}, "7": {"label": "*3", "atom_type": "Ct"}, "8": {"label": "*4", "atom_type": "Ct"}, "10": {"label": "*2", "atom_type": "H0"}}

>  <type>  (8) 
unop_4

>  <geom_source>  (8) 
Heuristics

$$$$

     RDKit          3D

 14 12  0  0  0  0  0  0  0  0999 V2000
   -0.3935    0.0850    2.3063 S   0  0  0  0  0  0  0  0  0  0  0  0
   -0.6945   -0.3209    0.5537 C   0  0  0  0  0  3  0  0  0  0  0  0
   -0.2620   -1.6542    0.1739 C   0  0  0  0  0  0  0  0  0  0  0  0
    0.0944   -2.7532   -0.1391 C   0  0  0  0  0  0  0  0  0  0  0  0
   -1.1169   -0.9203    2.8147 H   0  0  0  0  0  0  0  0  0  0  0  0
   -1.7520   -0.1913    0.3253 H   0  0  0  0  0  0  0  0  0  0  0  0
    0.4111   -3.7296   -0.4172 H   0  0  0  0  0  0  0  0  0  0  0  0
    0.6373    1.4751   -0.7911 C   0  0  0  0  0  0  0  0  0  0  0  0
    0.6373    1.4751   -2.0898 C   0  0  0  0  0  0  0  0  0  0  0  0
    0.6373    1.4751   -3.3885 C   0  0  0  0  0  0  0  0  0  0  0  0
   -0.0263    0.5802   -0.1210 H   0  0  0  0  0  0  0  0  0  0  0  0
    1.1903    2.2209   -0.2327 H   0  0  0  0  0  0  0  0  0  0  0  0
   -0.1084    2.0281   -3.9469 H   0  0  0  0  0  0  0  0  0  0  0  0
    1.3831    0.9221   -3.9469 H   0  0  0  0  0  0  0  0  0  0  0  0
  1  2  1  0
  1  5  1  0
  2  3  1  0
  2  6  1  0
  3  4  3  0
  4  7  1  0
  8  9  2  0
  8 11  1  0
  8 12  1  0
  9 10  2  0
 10 13  1  0
 10 14  1  0
M  RAD  1   2   2
M  END
>  <reaction>  (9) 
rxn_1824

>  <mol_properties>  (9) 
{"0": {"label": "*0", "atom_type": "S2s"}, "1": {"label": "*1", "atom_type": "Cs"}, "7": {"label": "*3", "atom_type": "Ct"}, "8": {"label": "*4", "atom_type": "Ct"}, "10": {"label": "*2", "atom_type": "H0"}}

>  <type>  (9) 
unop_5

>  <geom_source>  (9) 
Heuristics

$$$$

     RDKit          3D

 14 12  0  0  0  0  0  0  0  0999 V2000
   -1.9661   -0.2713    0.7956 S   0  0  0  0  0  0  0  0  0  0  0  0
   -0.3104   -0.9973    0.5532 C   0  0  0  0  0  3  0  0  0  0  0  0
    0.6798   -0.5426    1.5133 C   0  0  0  0  0  0  0  0  0  0  0  0
    1.4960   -0.1679    2.3045 C   0  0  0  0  0  0  0  0  0  0  0  0
   -2.1359   -0.7117    2.0485 H   0  0  0  0  0  0  0  0  0  0  0  0
   -0.3816   -2.0844    0.5755 H   0  0  0  0  0  0  0  0  0  0  0  0
    2.2211    0.1651    3.0076 H   0  0  0  0  0  0  0  0  0  0  0  0
    1.0214    0.7987   -0.7916 C   0  0  0  0  0  0  0  0  0  0  0  0
    1.0214    0.7987   -2.0903 C   0  0  0  0  0  0  0  0  0  0  0  0
    1.0214    0.7987   -3.3890 C   0  0  0  0  0  0  0  0  0  0  0  0
    0.3577   -0.0963   -0.1215 H   0  0  0  0  0  0  0  0  0  0  0  0
    1.5744    1.5444   -0.2332 H   0  0  0  0  0  0  0  0  0  0  0  0
    0.2756    1.3517   -3.9474 H   0  0  0  0  0  0  0  0  0  0  0  0
    1.7671    0.2456   -3.9474 H   0  0  0  0  0  0  0  0  0  0  0  0
  1  2  1  0
  1  5  1  0
  2  3  1  0
  2  6  1  0
  3  4  3  0
  4  7  1  0
  8  9  2  0
  8 11  1  0
  8 12  1  0
  9 10  2  0
 10 13  1  0
 10 14  1  0
M  RAD  1   2   2
M  END
>  <reaction>  (10) 
rxn_1824

>  <mol_properties>  (10) 
{"0": {"label": "*0", "atom_type": "S2s"}, "1": {"label": "*1", "atom_type": "Cs"}, "7": {"label": "*3", "atom_type": "Ct"}, "8": {"label": "*4", "atom_type": "Ct"}, "10": {"label": "*2", "atom_type": "H0"}}

>  <type>  (10) 
unop_6

>  <geom_source>  (10) 
Heuristics

$$$$

     RDKit          3D

 14 12  0  0  0  0  0  0  0  0999 V2000
   -1.7506    0.0693    1.4496 S   0  0  0  0  0  0  0  0  0  0  0  0
   -0.5551   -0.8809    0.4521 C   0  0  0  0  0  3  0  0  0  0  0  0
    0.7659   -0.9770    1.0475 C   0  0  0  0  0  0  0  0  0  0  0  0
    1.8548   -1.0563    1.5383 C   0  0  0  0  0  0  0  0  0  0  0  0
   -1.6681   -0.6971    2.5442 H   0  0  0  0  0  0  0  0  0  0  0  0
   -0.9516   -1.8772    0.2583 H   0  0  0  0  0  0  0  0  0  0  0  0
    2.8222   -1.1267    1.9744 H   0  0  0  0  0  0  0  0  0  0  0  0
    0.7767    0.9151   -0.8928 C   0  0  0  0  0  0  0  0  0  0  0  0
    0.7767    0.9151   -2.1914 C   0  0  0  0  0  0  0  0  0  0  0  0
    0.7767    0.9151   -3.4901 C   0  0  0  0  0  0  0  0  0  0  0  0
    0.1131    0.0202   -0.2227 H   0  0  0  0  0  0  0  0  0  0  0  0
    1.3297    1.6609   -0.3344 H   0  0  0  0  0  0  0  0  0  0  0  0
    0.0309    1.4681   -4.0485 H   0  0  0  0  0  0  0  0  0  0  0  0
    1.5224    0.3621   -4.0485 H   0  0  0  0  0  0  0  0  0  0  0  0
  1  2  1  0
  1  5  1  0
  2  3  1  0
  2  6  1  0
  3  4  3  0
  4  7  1  0
  8  9  2  0
  8 11  1  0
  8 12  1  0
  9 10  2  0
 10 13  1  0
 10 14  1  0
M  RAD  1   2   2
M  END
>  <reaction>  (11) 
rxn_1824

>  <mol_properties>  (11) 
{"0": {"label": "*0", "atom_type": "S2s"}, "1": {"label": "*1", "atom_type": "Cs"}, "7": {"label": "*3", "atom_type": "Ct"}, "8": {"label": "*4", "atom_type": "Ct"}, "10": {"label": "*2", "atom_type": "H0"}}

>  <type>  (11) 
unop_7

>  <geom_source>  (11) 
Heuristics

$$$$

     RDKit          3D

 14 12  0  0  0  0  0  0  0  0999 V2000
    0.8065   -1.4893    1.0621 S   0  0  0  0  0  0  0  0  0  0  0  0
   -0.3691   -0.1159    0.8197 C   0  0  0  0  0  3  0  0  0  0  0  0
   -1.7629   -0.5020    0.9501 C   0  0  0  0  0  0  0  0  0  0  0  0
   -2.9118   -0.8203    1.0577 C   0  0  0  0  0  0  0  0  0  0  0  0
    0.4106   -1.8023    2.3022 H   0  0  0  0  0  0  0  0  0  0  0  0
   -0.1374    0.6901    1.5154 H   0  0  0  0  0  0  0  0  0  0  0  0
   -3.9325   -1.1030    1.1532 H   0  0  0  0  0  0  0  0  0  0  0  0
    0.9627    1.6801   -0.5251 C   0  0  0  0  0  0  0  0  0  0  0  0
    0.9627    1.6801   -1.8238 C   0  0  0  0  0  0  0  0  0  0  0  0
    0.9627    1.6801   -3.1225 C   0  0  0  0  0  0  0  0  0  0  0  0
    0.2991    0.7852    0.1450 H   0  0  0  0  0  0  0  0  0  0  0  0
    1.5157    2.4259    0.0333 H   0  0  0  0  0  0  0  0  0  0  0  0
    0.2170    2.2331   -3.6809 H   0  0  0  0  0  0  0  0  0  0  0  0
    1.7085    1.1271   -3.6809 H   0  0  0  0  0  0  0  0  0  0  0  0
  1  2  1  0
  1  5  1  0
  2  3  1  0
  2  6  1  0
  3  4  3  0
  4  7  1  0
  8  9  2  0
  8 11  1  0
  8 12  1  0
  9 10  2  0
 10 13  1  0
 10 14  1  0
M  RAD  1   2   2
M  END
>  <reaction>  (12) 
rxn_1824

>  <mol_properties>  (12) 
{"0": {"label": "*0", "atom_type": "S2s"}, "1": {"label": "*1", "atom_type": "Cs"}, "7": {"label": "*3", "atom_type": "Ct"}, "8": {"label": "*4", "atom_type": "Ct"}, "10": {"label": "*2", "atom_type": "H0"}}

>  <type>  (12) 
unop_8

>  <geom_source>  (12) 
Heuristics

$$$$

     RDKit          3D

 14 12  0  0  0  0  0  0  0  0999 V2000
   -1.3624   -1.2305   -0.1679 S   0  0  0  0  0  0  0  0  0  0  0  0
    0.0540   -0.7998    0.8976 C   0  0  0  0  0  3  0  0  0  0  0  0
   -0.2801    0.0972    1.9897 C   0  0  0  0  0  0  0  0  0  0  0  0
   -0.5556    0.8366    2.8898 C   0  0  0  0  0  0  0  0  0  0  0  0
   -2.1173   -1.7619    0.8017 H   0  0  0  0  0  0  0  0  0  0  0  0
    0.5082   -1.7105    1.2871 H   0  0  0  0  0  0  0  0  0  0  0  0
   -0.8003    1.4935    3.6895 H   0  0  0  0  0  0  0  0  0  0  0  0
    1.3858    0.9962   -0.4473 C   0  0  0  0  0  0  0  0  0  0  0  0
    1.3858    0.9962   -1.7459 C   0  0  0  0  0  0  0  0  0  0  0  0
    1.3858    0.9962   -3.0446 C   0  0  0  0  0  0  0  0  0  0  0  0
    0.7222    0.1013    0.2229 H   0  0  0  0  0  0  0  0  0  0  0  0
    1.9389    1.7420    0.1112 H   0  0  0  0  0  0  0  0  0  0  0  0
    0.6401    1.5492   -3.6030 H   0  0  0  0  0  0  0  0  0  0  0  0
    2.1316    0.4432   -3.6030 H   0  0  0  0  0  0  0  0  0  0  0  0
  1  2  1  0
  1  5  1  0
  2  3  1  0
  2  6  1  0
  3  4  3  0
  4  7  1  0
  8  9  2  0
  8 11  1  0
  8 12  1  0
  9 10  2  0
 10 13  1  0
 10 14  1  0
M  RAD  1   2   2
M  END
>  <reaction>  (13) 
rxn_1824

>  <mol_properties>  (13) 
{"0": {"label": "*0", "atom_type": "S2s"}, "1": {"label": "*1", "atom_type": "Cs"}, "7": {"label": "*3", "atom_type": "Ct"}, "8": {"label": "*4", "atom_type": "Ct"}, "10": {"label": "*2", "atom_type": "H0"}}

>  <type>  (13) 
unop_9

>  <geom_source>  (13) 
Heuristics

$$$$

     RDKit          3D

 14 12  0  0  0  0  0  0  0  0999 V2000
    0.4751   -1.7400    0.4336 S   0  0  0  0  0  0  0  0  0  0  0  0
   -0.2403   -0.1424    0.9463 C   0  0  0  0  0  3  0  0  0  0  0  0
   -1.6257   -0.2260    1.3737 C   0  0  0  0  0  0  0  0  0  0  0  0
   -2.7676   -0.2949    1.7260 C   0  0  0  0  0  0  0  0  0  0  0  0
    0.2695   -2.3711    1.5963 H   0  0  0  0  0  0  0  0  0  0  0  0
    0.3695    0.2938    1.7370 H   0  0  0  0  0  0  0  0  0  0  0  0
   -3.7821   -0.3562    2.0390 H   0  0  0  0  0  0  0  0  0  0  0  0
    1.0915    1.6536   -0.3985 C   0  0  0  0  0  0  0  0  0  0  0  0
    1.0915    1.6536   -1.6972 C   0  0  0  0  0  0  0  0  0  0  0  0
    1.0915    1.6536   -2.9959 C   0  0  0  0  0  0  0  0  0  0  0  0
    0.4279    0.7587    0.2716 H   0  0  0  0  0  0  0  0  0  0  0  0
    1.6445    2.3994    0.1599 H   0  0  0  0  0  0  0  0  0  0  0  0
    0.3457    2.2066   -3.5543 H   0  0  0  0  0  0  0  0  0  0  0  0
    1.8373    1.1006   -3.5543 H   0  0  0  0  0  0  0  0  0  0  0  0
  1  2  1  0
  1  5  1  0
  2  3  1  0
  2  6  1  0
  3  4  3  0
  4  7  1  0
  8  9  2  0
  8 11  1  0
  8 12  1  0
  9 10  2  0
 10 13  1  0
 10 14  1  0
M  RAD  1   2   2
M  END
>  <reaction>  (14) 
rxn_1824

>  <mol_properties>  (14) 
{"0": {"label": "*0", "atom_type": "S2s"}, "1": {"label": "*1", "atom_type": "Cs"}, "7": {"label": "*3", "atom_type": "Ct"}, "8": {"label": "*4", "atom_type": "Ct"}, "10": {"label": "*2", "atom_type": "H0"}}

>  <type>  (14) 
unop_10

>  <geom_source>  (14) 
Heuristics

$$$$

     RDKit          3D

 14 12  0  0  0  0  0  0  0  0999 V2000
   -1.2101    0.2096    2.0053 S   0  0  0  0  0  0  0  0  0  0  0  0
   -0.7308   -0.6235    0.4551 C   0  0  0  0  0  3  0  0  0  0  0  0
    0.4937   -1.3978    0.5552 C   0  0  0  0  0  0  0  0  0  0  0  0
    1.5029   -2.0360    0.6378 C   0  0  0  0  0  0  0  0  0  0  0  0
   -1.2919   -0.9014    2.7480 H   0  0  0  0  0  0  0  0  0  0  0  0
   -1.5481   -1.2583    0.1139 H   0  0  0  0  0  0  0  0  0  0  0  0
    2.3996   -2.6031    0.7111 H   0  0  0  0  0  0  0  0  0  0  0  0
    0.6010    1.1725   -0.8898 C   0  0  0  0  0  0  0  0  0  0  0  0
    0.6010    1.1725   -2.1884 C   0  0  0  0  0  0  0  0  0  0  0  0
    0.6010    1.1725   -3.4871 C   0  0  0  0  0  0  0  0  0  0  0  0
   -0.0627    0.2776   -0.2197 H   0  0  0  0  0  0  0  0  0  0  0  0
    1.1540    1.9183   -0.3313 H   0  0  0  0  0  0  0  0  0  0  0  0
   -0.1448    1.7255   -4.0455 H   0  0  0  0  0  0  0  0  0  0  0  0
    1.3467    0.6195   -4.0455 H   0  0  0  0  0  0  0  0  0  0  0  0
  1  2  1  0
  1  5  1  0
  2  3  1  0
  2  6  1  0
  3  4  3  0
  4  7  1  0
  8  9  2  0
  8 11  1  0
  8 12  1  0
  9 10  2  0
 10 13  1  0
 10 14  1  0
M  RAD  1   2   2
M  END
>  <reaction>  (15) 
rxn_1824

>  <mol_properties>  (15) 
{"0": {"label": "*0", "atom_type": "S2s"}, "1": {"label": "*1", "atom_type": "Cs"}, "7": {"label": "*3", "atom_type": "Ct"}, "8": {"label": "*4", "atom_type": "Ct"}, "10": {"label": "*2", "atom_type": "H0"}}

>  <type>  (15) 
unop_11

>  <geom_source>  (15) 
Heuristics

$$$$

     RDKit          3D

 14 12  0  0  0  0  0  0  0  0999 V2000
   -0.7189   -1.5852   -0.2465 S   0  0  0  0  0  0  0  0  0  0  0  0
    0.0621   -0.5318    1.0213 C   0  0  0  0  0  3  0  0  0  0  0  0
   -0.8821    0.1114    1.9178 C   0  0  0  0  0  0  0  0  0  0  0  0
   -1.6603    0.6415    2.6568 C   0  0  0  0  0  0  0  0  0  0  0  0
   -1.3464   -2.4016    0.6092 H   0  0  0  0  0  0  0  0  0  0  0  0
    0.7798   -1.1197    1.5928 H   0  0  0  0  0  0  0  0  0  0  0  0
   -2.3517    1.1125    3.3133 H   0  0  0  0  0  0  0  0  0  0  0  0
    1.3939    1.2642   -0.3235 C   0  0  0  0  0  0  0  0  0  0  0  0
    1.3939    1.2642   -1.6222 C   0  0  0  0  0  0  0  0  0  0  0  0
    1.3939    1.2642   -2.9209 C   0  0  0  0  0  0  0  0  0  0  0  0
    0.7303    0.3693    0.3466 H   0  0  0  0  0  0  0  0  0  0  0  0
    1.9470    2.0099    0.2349 H   0  0  0  0  0  0  0  0  0  0  0  0
    0.6482    1.8172   -3.4793 H   0  0  0  0  0  0  0  0  0  0  0  0
    2.1397    0.7112   -3.4793 H   0  0  0  0  0  0  0  0  0  0  0  0
  1  2  1  0
  1  5  1  0
  2  3  1  0
  2  6  1  0
  3  4  3  0
  4  7  1  0
  8  9  2  0
  8 11  1  0
  8 12  1  0
  9 10  2  0
 10 13  1  0
 10 14  1  0
M  RAD  1   2   2
M  END
>  <reaction>  (16) 
rxn_1824

>  <mol_properties>  (16) 
{"0": {"label": "*0", "atom_type": "S2s"}, "1": {"label": "*1", "atom_type": "Cs"}, "7": {"label": "*3", "atom_type": "Ct"}, "8": {"label": "*4", "atom_type": "Ct"}, "10": {"label": "*2", "atom_type": "H0"}}

>  <type>  (16) 
unop_12

>  <geom_source>  (16) 
Heuristics

$$$$

     RDKit          3D

 14 12  0  0  0  0  0  0  0  0999 V2000
   -0.8793   -2.0836    0.1582 S   0  0  0  0  0  0  0  0  0  0  0  0
   -1.3225   -0.5258   -0.6633 C   0  0  0  0  0  3  0  0  0  0  0  0
    2.9996    0.3448    0.7093 C   0  0  0  0  0  0  0  0  0  0  0  0
   -2.3936    0.1400    0.0804 C   0  0  0  0  0  0  0  0  0  0  0  0
    2.0206    0.3868   -0.1487 C   0  0  0  0  0  0  0  0  0  0  0  0
   -3.2751    0.6895    0.6924 C   0  0  0  0  0  0  0  0  0  0  0  0
    1.0415    0.4289   -1.0069 C   0  0  0  0  0  0  0  0  0  0  0  0
   -1.6711   -0.7412   -1.6943 H   0  0  0  0  0  0  0  0  0  0  0  0
   -0.1844    0.3233   -0.7196 H   0  0  0  0  0  0  0  0  0  0  0  0
    3.4202    1.2633    1.0952 H   0  0  0  0  0  0  0  0  0  0  0  0
    3.3925   -0.6086    1.0352 H   0  0  0  0  0  0  0  0  0  0  0  0
   -0.3440   -1.4238    1.2813 H   0  0  0  0  0  0  0  0  0  0  0  0
   -4.0489    1.1717    1.2297 H   0  0  0  0  0  0  0  0  0  0  0  0
    1.2445    0.6346   -2.0490 H   0  0  0  0  0  0  0  0  0  0  0  0
  1  2  1  0
  1 12  1  0
  2  4  1  0
  2  8  1  0
  3  5  2  0
  3 10  1  0
  3 11  1  0
  4  6  3  0
  5  7  2  0
  6 13  1  0
  7  9  1  0
  7 14  1  0
M  RAD  1   2   2
M  END
>  <reaction>  (17) 
rxn_1824

>  <mol_properties>  (17) 
{"0": {"label": "*0", "atom_type": "S2s"}, "1": {"label": "*1", "atom_type": "Cs"}, "7": {"label": "*3", "atom_type": "Ct"}, "8": {"label": "*4", "atom_type": "Ct"}, "10": {"label": "*2", "atom_type": "H0"}}

>  <type>  (17) 
unop_13

>  <geom_source>  (17) 
AutoTST

$$$$
