
     RDKit          3D

  7  6  0  0  0  0  0  0  0  0999 V2000
   -0.8134   -0.1164    0.3300 C   0  0  0  0  0  0  0  0  0  0  0  0
    0.2313    0.4515   -0.2553 C   0  0  0  0  0  0  0  0  0  0  0  0
    1.4449   -0.1043   -0.4662 O   0  0  0  0  0  0  0  0  0  0  0  0
   -1.7342    0.4365    0.4394 H   0  0  0  0  0  0  0  0  0  0  0  0
   -0.7819   -1.1311    0.7105 H   0  0  0  0  0  0  0  0  0  0  0  0
    0.2022    1.4650   -0.6362 H   0  0  0  0  0  0  0  0  0  0  0  0
    1.4512   -1.0012   -0.1223 H   0  0  0  0  0  0  0  0  0  0  0  0
  1  2  2  3
  1  4  1  0
  1  5  1  0
  2  3  1  0
  2  6  1  0
  3  7  1  0
M  END
>  <reaction>  (1) 
rxn_481

>  <mol_properties>  (1) 
{"2": {"label": "donator", "atom_type": "O2s"}, "6": {"label": "d_hydrogen", "atom_type": "H0"}}

>  <type>  (1) 
r1h

$$$$

     RDKit          3D

  5  4  0  0  0  0  0  0  0  0999 V2000
   -0.1322   -0.0293    0.0034 C   0  0  0  0  0  0  0  0  0  0  0  0
    1.6514    0.0533   -0.0278 S   0  0  0  0  0  1  0  0  0  0  0  0
   -0.5276   -0.5578   -0.8632 H   0  0  0  0  0  0  0  0  0  0  0  0
   -0.5002   -0.4706    0.9289 H   0  0  0  0  0  0  0  0  0  0  0  0
   -0.4913    1.0044   -0.0413 H   0  0  0  0  0  0  0  0  0  0  0  0
  1  2  1  0
  1  3  1  0
  1  4  1  0
  1  5  1  0
M  RAD  1   2   2
M  END
>  <reaction>  (2) 
rxn_481

>  <mol_properties>  (2) 
{"1": {"label": "acceptor", "atom_type": "S2s"}}

>  <type>  (2) 
r2

$$$$

     RDKit          3D

  6  5  0  0  0  0  0  0  0  0999 V2000
   -0.5072   -0.0291   -0.0097 C   0  0  0  0  0  0  0  0  0  0  0  0
    1.1321   -0.1527   -0.7687 S   0  0  0  0  0  0  0  0  0  0  0  0
   -0.6174   -0.7330    0.8127 H   0  0  0  0  0  0  0  0  0  0  0  0
   -0.5863    0.9827    0.3845 H   0  0  0  0  0  0  0  0  0  0  0  0
   -1.2962   -0.1800   -0.7434 H   0  0  0  0  0  0  0  0  0  0  0  0
    1.0312   -1.4237   -1.1764 H   0  0  0  0  0  0  0  0  0  0  0  0
  1  2  1  0
  1  3  1  0
  1  4  1  0
  1  5  1  0
  2  6  1  0
M  END
>  <reaction>  (3) 
rxn_481

>  <mol_properties>  (3) 
{"0": {"label": "a_hydrogen", "atom_type": "H0"}, "2": {"label": "acceptor", "atom_type": "S2s"}}

>  <type>  (3) 
r2h

$$$$

     RDKit          3D

 12 10  0  0  0  0  0  0  0  0999 V2000
    0.3250   -1.2947   -1.1670 C   0  0  0  0  0  0  0  0  0  0  0  0
   -0.0618   -1.7570    0.0846 C   0  0  0  0  0  0  0  0  0  0  0  0
    0.4653   -1.3584    1.1685 O   0  0  0  0  0  0  0  0  0  0  0  0
   -0.2840   -1.5181   -2.0326 H   0  0  0  0  0  0  0  0  0  0  0  0
    1.3324   -0.9508   -1.3434 H   0  0  0  0  0  0  0  0  0  0  0  0
   -0.9039   -2.4528    0.1620 H   0  0  0  0  0  0  0  0  0  0  0  0
    0.7076   -0.1378    0.8529 H   0  0  0  0  0  0  0  0  0  0  0  0
   -1.2389    1.4156    0.4245 C   0  0  0  0  0  0  0  0  0  0  0  0
    0.4957    1.1656   -0.0021 S   0  0  0  0  0  1  0  0  0  0  0  0
   -1.7534    1.8865   -0.4107 H   0  0  0  0  0  0  0  0  0  0  0  0
   -1.7171    0.4652    0.6587 H   0  0  0  0  0  0  0  0  0  0  0  0
   -1.3021    2.0693    1.2940 H   0  0  0  0  0  0  0  0  0  0  0  0
  1  2  2  3
  1  4  1  0
  1  5  1  0
  2  3  1  0
  2  6  1  0
  3  7  1  0
  8  9  1  0
  8 10  1  0
  8 11  1  0
  8 12  1  0
M  RAD  1   9   2
M  END
>  <reaction>  (4) 
rxn_481

>  <mol_properties>  (4) 
{"1": {"label": "*0", "atom_type": "Cd"}, "2": {"label": "*1", "atom_type": "O2s"}, "6": {"label": "*2", "atom_type": "H0"}, "7": {"label": "*4", "atom_type": "Cs"}, "8": {"label": "*3", "atom_type": "S2s"}}

>  <type>  (4) 
ts

$$$$

     RDKit          3D

 12 10  0  0  0  0  0  0  0  0999 V2000
    0.2669   -2.0653   -0.9982 C   0  0  0  0  0  0  0  0  0  0  0  0
    0.2669   -2.0653    0.3271 C   0  0  0  0  0  0  0  0  0  0  0  0
    0.2669   -0.9848    1.1388 O   0  0  0  0  0  0  0  0  0  0  0  0
    0.2669   -3.0016   -1.5354 H   0  0  0  0  0  0  0  0  0  0  0  0
    0.2669   -1.1481   -1.5761 H   0  0  0  0  0  0  0  0  0  0  0  0
    0.2669   -2.9803    0.9067 H   0  0  0  0  0  0  0  0  0  0  0  0
    0.2669   -0.0244    0.5013 H   0  0  0  0  0  0  0  0  0  0  0  0
   -1.2890    1.9982    0.2370 C   0  0  0  0  0  0  0  0  0  0  0  0
    0.2669    1.3139   -0.3870 S   0  0  0  0  0  1  0  0  0  0  0  0
   -1.4512    1.7287    1.2785 H   0  0  0  0  0  0  0  0  0  0  0  0
   -1.1968    3.0809    0.1672 H   0  0  0  0  0  0  0  0  0  0  0  0
   -2.1337    1.6806   -0.3707 H   0  0  0  0  0  0  0  0  0  0  0  0
  1  2  2  3
  1  4  1  0
  1  5  1  0
  2  3  1  0
  2  6  1  0
  3  7  1  0
  8  9  1  0
  8 10  1  0
  8 11  1  0
  8 12  1  0
M  RAD  1   9   2
M  END
>  <reaction>  (5) 
rxn_481

>  <mol_properties>  (5) 
{"1": {"label": "*0", "atom_type": "Cd"}, "2": {"label": "*1", "atom_type": "O2s"}, "6": {"label": "*2", "atom_type": "H0"}, "7": {"label": "*4", "atom_type": "Cs"}, "8": {"label": "*3", "atom_type": "S2s"}}

>  <type>  (5) 
unop_1

>  <geom_source>  (5) 
Heuristics

$$$$

     RDKit          3D

 12 10  0  0  0  0  0  0  0  0999 V2000
    0.1545   -1.8321   -0.6468 C   0  0  0  0  0  0  0  0  0  0  0  0
    0.1545   -1.8321    0.6785 C   0  0  0  0  0  0  0  0  0  0  0  0
    0.1545   -0.7517    1.4902 O   0  0  0  0  0  0  0  0  0  0  0  0
    0.1545   -2.7685   -1.1840 H   0  0  0  0  0  0  0  0  0  0  0  0
    0.1545   -0.9149   -1.2247 H   0  0  0  0  0  0  0  0  0  0  0  0
    0.1545   -2.7472    1.2581 H   0  0  0  0  0  0  0  0  0  0  0  0
    0.1545    0.2087    0.8527 H   0  0  0  0  0  0  0  0  0  0  0  0
   -0.7438    0.8741   -1.4564 C   0  0  0  0  0  0  0  0  0  0  0  0
    0.1545    1.5471   -0.0356 S   0  0  0  0  0  1  0  0  0  0  0  0
   -1.6095    0.2958   -1.1404 H   0  0  0  0  0  0  0  0  0  0  0  0
   -1.0884    1.7303   -2.0340 H   0  0  0  0  0  0  0  0  0  0  0  0
   -0.0947    0.2682   -2.0851 H   0  0  0  0  0  0  0  0  0  0  0  0
  1  2  2  3
  1  4  1  0
  1  5  1  0
  2  3  1  0
  2  6  1  0
  3  7  1  0
  8  9  1  0
  8 10  1  0
  8 11  1  0
  8 12  1  0
M  RAD  1   9   2
M  END
>  <reaction>  (6) 
rxn_481

>  <mol_properties>  (6) 
{"1": {"label": "*0", "atom_type": "Cd"}, "2": {"label": "*1", "atom_type": "O2s"}, "6": {"label": "*2", "atom_type": "H0"}, "7": {"label": "*4", "atom_type": "Cs"}, "8": {"label": "*3", "atom_type": "S2s"}}

>  <type>  (6) 
unop_2

>  <geom_source>  (6) 
Heuristics

$$$$

     RDKit          3D

 12 10  0  0  0  0  0  0  0  0999 V2000
    0.1540   -2.1276   -1.0920 C   0  0  0  0  0  0  0  0  0  0  0  0
    0.1540   -2.1276    0.2333 C   0  0  0  0  0  0  0  0  0  0  0  0
    0.1540   -1.0472    1.0450 O   0  0  0  0  0  0  0  0  0  0  0  0
    0.1540   -3.0640   -1.6292 H   0  0  0  0  0  0  0  0  0  0  0  0
    0.1540   -1.2104   -1.6699 H   0  0  0  0  0  0  0  0  0  0  0  0
    0.1540   -3.0427    0.8129 H   0  0  0  0  0  0  0  0  0  0  0  0
    0.1540   -0.0868    0.4075 H   0  0  0  0  0  0  0  0  0  0  0  0
   -0.7443    2.2995    0.6910 C   0  0  0  0  0  0  0  0  0  0  0  0
    0.1540    1.2516   -0.4808 S   0  0  0  0  0  1  0  0  0  0  0  0
   -0.3865    2.1540    1.7081 H   0  0  0  0  0  0  0  0  0  0  0  0
   -0.5460    3.3285    0.3955 H   0  0  0  0  0  0  0  0  0  0  0  0
   -1.8166    2.1228    0.6397 H   0  0  0  0  0  0  0  0  0  0  0  0
  1  2  2  3
  1  4  1  0
  1  5  1  0
  2  3  1  0
  2  6  1  0
  3  7  1  0
  8  9  1  0
  8 10  1  0
  8 11  1  0
  8 12  1  0
M  RAD  1   9   2
M  END
>  <reaction>  (7) 
rxn_481

>  <mol_properties>  (7) 
{"1": {"label": "*0", "atom_type": "Cd"}, "2": {"label": "*1", "atom_type": "O2s"}, "6": {"label": "*2", "atom_type": "H0"}, "7": {"label": "*4", "atom_type": "Cs"}, "8": {"label": "*3", "atom_type": "S2s"}}

>  <type>  (7) 
unop_3

>  <geom_source>  (7) 
Heuristics

$$$$

     RDKit          3D

 12 10  0  0  0  0  0  0  0  0999 V2000
   -0.2674   -1.8947   -0.7411 C   0  0  0  0  0  0  0  0  0  0  0  0
   -0.2674   -1.8947    0.5842 C   0  0  0  0  0  0  0  0  0  0  0  0
   -0.2674   -0.8142    1.3959 O   0  0  0  0  0  0  0  0  0  0  0  0
   -0.2674   -2.8310   -1.2783 H   0  0  0  0  0  0  0  0  0  0  0  0
   -0.2674   -0.9775   -1.3191 H   0  0  0  0  0  0  0  0  0  0  0  0
   -0.2674   -2.8097    1.1638 H   0  0  0  0  0  0  0  0  0  0  0  0
   -0.2674    0.1462    0.7584 H   0  0  0  0  0  0  0  0  0  0  0  0
    1.2885    1.1753   -1.0028 C   0  0  0  0  0  0  0  0  0  0  0  0
   -0.2674    1.4845   -0.1299 S   0  0  0  0  0  1  0  0  0  0  0  0
    1.1238    0.6130   -1.9196 H   0  0  0  0  0  0  0  0  0  0  0  0
    1.6938    2.1522   -1.2611 H   0  0  0  0  0  0  0  0  0  0  0  0
    2.0040    0.6583   -0.3668 H   0  0  0  0  0  0  0  0  0  0  0  0
  1  2  2  3
  1  4  1  0
  1  5  1  0
  2  3  1  0
  2  6  1  0
  3  7  1  0
  8  9  1  0
  8 10  1  0
  8 11  1  0
  8 12  1  0
M  RAD  1   9   2
M  END
>  <reaction>  (8) 
rxn_481

>  <mol_properties>  (8) 
{"1": {"label": "*0", "atom_type": "Cd"}, "2": {"label": "*1", "atom_type": "O2s"}, "6": {"label": "*2", "atom_type": "H0"}, "7": {"label": "*4", "atom_type": "Cs"}, "8": {"label": "*3", "atom_type": "S2s"}}

>  <type>  (8) 
unop_4

>  <geom_source>  (8) 
Heuristics

$$$$

     RDKit          3D

 12 10  0  0  0  0  0  0  0  0999 V2000
   -0.0000   -2.1505   -1.1263 C   0  0  0  0  0  0  0  0  0  0  0  0
   -0.0000   -2.1505    0.1990 C   0  0  0  0  0  0  0  0  0  0  0  0
   -0.0000   -1.0700    1.0107 O   0  0  0  0  0  0  0  0  0  0  0  0
   -0.0000   -3.0868   -1.6635 H   0  0  0  0  0  0  0  0  0  0  0  0
   -0.0000   -1.2332   -1.7042 H   0  0  0  0  0  0  0  0  0  0  0  0
   -0.0000   -3.0655    0.7786 H   0  0  0  0  0  0  0  0  0  0  0  0
   -0.0000   -0.1096    0.3732 H   0  0  0  0  0  0  0  0  0  0  0  0
    0.0000    2.4099    0.8573 C   0  0  0  0  0  0  0  0  0  0  0  0
    0.0000    1.2288   -0.5151 S   0  0  0  0  0  1  0  0  0  0  0  0
    0.8927    2.3053    1.4704 H   0  0  0  0  0  0  0  0  0  0  0  0
    0.0000    3.4014    0.4076 H   0  0  0  0  0  0  0  0  0  0  0  0
   -0.8927    2.3053    1.4704 H   0  0  0  0  0  0  0  0  0  0  0  0
  1  2  2  3
  1  4  1  0
  1  5  1  0
  2  3  1  0
  2  6  1  0
  3  7  1  0
  8  9  1  0
  8 10  1  0
  8 11  1  0
  8 12  1  0
M  RAD  1   9   2
M  END
>  <reaction>  (9) 
rxn_481

>  <mol_properties>  (9) 
{"1": {"label": "*0", "atom_type": "Cd"}, "2": {"label": "*1", "atom_type": "O2s"}, "6": {"label": "*2", "atom_type": "H0"}, "7": {"label": "*4", "atom_type": "Cs"}, "8": {"label": "*3", "atom_type": "S2s"}}

>  <type>  (9) 
unop_5

>  <geom_source>  (9) 
Heuristics

$$$$

     RDKit          3D

 12 10  0  0  0  0  0  0  0  0999 V2000
   -0.3085   -1.9800   -0.8697 C   0  0  0  0  0  0  0  0  0  0  0  0
   -0.3085   -1.9800    0.4555 C   0  0  0  0  0  0  0  0  0  0  0  0
   -0.3085   -0.8995    1.2673 O   0  0  0  0  0  0  0  0  0  0  0  0
   -0.3085   -2.9164   -1.4069 H   0  0  0  0  0  0  0  0  0  0  0  0
   -0.3085   -1.0628   -1.4477 H   0  0  0  0  0  0  0  0  0  0  0  0
   -0.3085   -2.8951    1.0351 H   0  0  0  0  0  0  0  0  0  0  0  0
   -0.3085    0.0609    0.6298 H   0  0  0  0  0  0  0  0  0  0  0  0
    1.4881    1.5867   -0.3831 C   0  0  0  0  0  0  0  0  0  0  0  0
   -0.3085    1.3992   -0.2586 S   0  0  0  0  0  1  0  0  0  0  0  0
    1.8730    1.1254   -1.2902 H   0  0  0  0  0  0  0  0  0  0  0  0
    1.6816    2.6573   -0.4271 H   0  0  0  0  0  0  0  0  0  0  0  0
    1.9909    1.1774    0.4907 H   0  0  0  0  0  0  0  0  0  0  0  0
  1  2  2  3
  1  4  1  0
  1  5  1  0
  2  3  1  0
  2  6  1  0
  3  7  1  0
  8  9  1  0
  8 10  1  0
  8 11  1  0
  8 12  1  0
M  RAD  1   9   2
M  END
>  <reaction>  (10) 
rxn_481

>  <mol_properties>  (10) 
{"1": {"label": "*0", "atom_type": "Cd"}, "2": {"label": "*1", "atom_type": "O2s"}, "6": {"label": "*2", "atom_type": "H0"}, "7": {"label": "*4", "atom_type": "Cs"}, "8": {"label": "*3", "atom_type": "S2s"}}

>  <type>  (10) 
unop_6

>  <geom_source>  (10) 
Heuristics

$$$$

     RDKit          3D

 12 10  0  0  0  0  0  0  0  0999 V2000
   -0.2669   -2.0653   -0.9982 C   0  0  0  0  0  0  0  0  0  0  0  0
   -0.2669   -2.0653    0.3271 C   0  0  0  0  0  0  0  0  0  0  0  0
   -0.2669   -0.9848    1.1388 O   0  0  0  0  0  0  0  0  0  0  0  0
   -0.2669   -3.0016   -1.5354 H   0  0  0  0  0  0  0  0  0  0  0  0
   -0.2669   -1.1481   -1.5761 H   0  0  0  0  0  0  0  0  0  0  0  0
   -0.2669   -2.9803    0.9067 H   0  0  0  0  0  0  0  0  0  0  0  0
   -0.2669   -0.0244    0.5013 H   0  0  0  0  0  0  0  0  0  0  0  0
    1.2890    1.9982    0.2370 C   0  0  0  0  0  0  0  0  0  0  0  0
   -0.2669    1.3139   -0.3870 S   0  0  0  0  0  1  0  0  0  0  0  0
    2.1337    1.6806   -0.3707 H   0  0  0  0  0  0  0  0  0  0  0  0
    1.1968    3.0809    0.1672 H   0  0  0  0  0  0  0  0  0  0  0  0
    1.4512    1.7287    1.2785 H   0  0  0  0  0  0  0  0  0  0  0  0
  1  2  2  3
  1  4  1  0
  1  5  1  0
  2  3  1  0
  2  6  1  0
  3  7  1  0
  8  9  1  0
  8 10  1  0
  8 11  1  0
  8 12  1  0
M  RAD  1   9   2
M  END
>  <reaction>  (11) 
rxn_481

>  <mol_properties>  (11) 
{"1": {"label": "*0", "atom_type": "Cd"}, "2": {"label": "*1", "atom_type": "O2s"}, "6": {"label": "*2", "atom_type": "H0"}, "7": {"label": "*4", "atom_type": "Cs"}, "8": {"label": "*3", "atom_type": "S2s"}}

>  <type>  (11) 
unop_7

>  <geom_source>  (11) 
Heuristics

$$$$

     RDKit          3D

 12 10  0  0  0  0  0  0  0  0999 V2000
    0.3085   -1.9800   -0.8697 C   0  0  0  0  0  0  0  0  0  0  0  0
    0.3085   -1.9800    0.4556 C   0  0  0  0  0  0  0  0  0  0  0  0
    0.3085   -0.8995    1.2673 O   0  0  0  0  0  0  0  0  0  0  0  0
    0.3085   -2.9164   -1.4069 H   0  0  0  0  0  0  0  0  0  0  0  0
    0.3085   -1.0628   -1.4477 H   0  0  0  0  0  0  0  0  0  0  0  0
    0.3085   -2.8951    1.0351 H   0  0  0  0  0  0  0  0  0  0  0  0
    0.3085    0.0609    0.6298 H   0  0  0  0  0  0  0  0  0  0  0  0
   -1.4881    1.5867   -0.3831 C   0  0  0  0  0  0  0  0  0  0  0  0
    0.3085    1.3992   -0.2586 S   0  0  0  0  0  1  0  0  0  0  0  0
   -1.9909    1.1774    0.4906 H   0  0  0  0  0  0  0  0  0  0  0  0
   -1.6816    2.6573   -0.4271 H   0  0  0  0  0  0  0  0  0  0  0  0
   -1.8730    1.1254   -1.2902 H   0  0  0  0  0  0  0  0  0  0  0  0
  1  2  2  3
  1  4  1  0
  1  5  1  0
  2  3  1  0
  2  6  1  0
  3  7  1  0
  8  9  1  0
  8 10  1  0
  8 11  1  0
  8 12  1  0
M  RAD  1   9   2
M  END
>  <reaction>  (12) 
rxn_481

>  <mol_properties>  (12) 
{"1": {"label": "*0", "atom_type": "Cd"}, "2": {"label": "*1", "atom_type": "O2s"}, "6": {"label": "*2", "atom_type": "H0"}, "7": {"label": "*4", "atom_type": "Cs"}, "8": {"label": "*3", "atom_type": "S2s"}}

>  <type>  (12) 
unop_8

>  <geom_source>  (12) 
Heuristics

$$$$

     RDKit          3D

 12 10  0  0  0  0  0  0  0  0999 V2000
   -0.1545   -1.8321   -0.6468 C   0  0  0  0  0  0  0  0  0  0  0  0
   -0.1545   -1.8321    0.6785 C   0  0  0  0  0  0  0  0  0  0  0  0
   -0.1545   -0.7517    1.4902 O   0  0  0  0  0  0  0  0  0  0  0  0
   -0.1545   -2.7685   -1.1840 H   0  0  0  0  0  0  0  0  0  0  0  0
   -0.1545   -0.9149   -1.2247 H   0  0  0  0  0  0  0  0  0  0  0  0
   -0.1545   -2.7472    1.2581 H   0  0  0  0  0  0  0  0  0  0  0  0
   -0.1545    0.2087    0.8527 H   0  0  0  0  0  0  0  0  0  0  0  0
    0.7438    0.8741   -1.4564 C   0  0  0  0  0  0  0  0  0  0  0  0
   -0.1545    1.5471   -0.0356 S   0  0  0  0  0  1  0  0  0  0  0  0
    0.0947    0.2682   -2.0851 H   0  0  0  0  0  0  0  0  0  0  0  0
    1.0884    1.7303   -2.0340 H   0  0  0  0  0  0  0  0  0  0  0  0
    1.6095    0.2958   -1.1404 H   0  0  0  0  0  0  0  0  0  0  0  0
  1  2  2  3
  1  4  1  0
  1  5  1  0
  2  3  1  0
  2  6  1  0
  3  7  1  0
  8  9  1  0
  8 10  1  0
  8 11  1  0
  8 12  1  0
M  RAD  1   9   2
M  END
>  <reaction>  (13) 
rxn_481

>  <mol_properties>  (13) 
{"1": {"label": "*0", "atom_type": "Cd"}, "2": {"label": "*1", "atom_type": "O2s"}, "6": {"label": "*2", "atom_type": "H0"}, "7": {"label": "*4", "atom_type": "Cs"}, "8": {"label": "*3", "atom_type": "S2s"}}

>  <type>  (13) 
unop_9

>  <geom_source>  (13) 
Heuristics

$$$$

     RDKit          3D

 12 10  0  0  0  0  0  0  0  0999 V2000
    0.2674   -1.8947   -0.7411 C   0  0  0  0  0  0  0  0  0  0  0  0
    0.2674   -1.8947    0.5842 C   0  0  0  0  0  0  0  0  0  0  0  0
    0.2674   -0.8142    1.3959 O   0  0  0  0  0  0  0  0  0  0  0  0
    0.2674   -2.8310   -1.2783 H   0  0  0  0  0  0  0  0  0  0  0  0
    0.2674   -0.9775   -1.3191 H   0  0  0  0  0  0  0  0  0  0  0  0
    0.2674   -2.8097    1.1638 H   0  0  0  0  0  0  0  0  0  0  0  0
    0.2674    0.1462    0.7584 H   0  0  0  0  0  0  0  0  0  0  0  0
   -1.2885    1.1753   -1.0028 C   0  0  0  0  0  0  0  0  0  0  0  0
    0.2674    1.4845   -0.1299 S   0  0  0  0  0  1  0  0  0  0  0  0
   -2.0040    0.6583   -0.3668 H   0  0  0  0  0  0  0  0  0  0  0  0
   -1.6938    2.1522   -1.2611 H   0  0  0  0  0  0  0  0  0  0  0  0
   -1.1238    0.6130   -1.9196 H   0  0  0  0  0  0  0  0  0  0  0  0
  1  2  2  3
  1  4  1  0
  1  5  1  0
  2  3  1  0
  2  6  1  0
  3  7  1  0
  8  9  1  0
  8 10  1  0
  8 11  1  0
  8 12  1  0
M  RAD  1   9   2
M  END
>  <reaction>  (14) 
rxn_481

>  <mol_properties>  (14) 
{"1": {"label": "*0", "atom_type": "Cd"}, "2": {"label": "*1", "atom_type": "O2s"}, "6": {"label": "*2", "atom_type": "H0"}, "7": {"label": "*4", "atom_type": "Cs"}, "8": {"label": "*3", "atom_type": "S2s"}}

>  <type>  (14) 
unop_10

>  <geom_source>  (14) 
Heuristics

$$$$

     RDKit          3D

 12 10  0  0  0  0  0  0  0  0999 V2000
   -0.1540   -2.1276   -1.0920 C   0  0  0  0  0  0  0  0  0  0  0  0
   -0.1540   -2.1276    0.2333 C   0  0  0  0  0  0  0  0  0  0  0  0
   -0.1540   -1.0472    1.0450 O   0  0  0  0  0  0  0  0  0  0  0  0
   -0.1540   -3.0640   -1.6292 H   0  0  0  0  0  0  0  0  0  0  0  0
   -0.1540   -1.2104   -1.6699 H   0  0  0  0  0  0  0  0  0  0  0  0
   -0.1540   -3.0427    0.8129 H   0  0  0  0  0  0  0  0  0  0  0  0
   -0.1540   -0.0868    0.4075 H   0  0  0  0  0  0  0  0  0  0  0  0
    0.7443    2.2995    0.6910 C   0  0  0  0  0  0  0  0  0  0  0  0
   -0.1540    1.2516   -0.4808 S   0  0  0  0  0  1  0  0  0  0  0  0
    1.8166    2.1228    0.6397 H   0  0  0  0  0  0  0  0  0  0  0  0
    0.5460    3.3285    0.3955 H   0  0  0  0  0  0  0  0  0  0  0  0
    0.3865    2.1540    1.7081 H   0  0  0  0  0  0  0  0  0  0  0  0
  1  2  2  3
  1  4  1  0
  1  5  1  0
  2  3  1  0
  2  6  1  0
  3  7  1  0
  8  9  1  0
  8 10  1  0
  8 11  1  0
  8 12  1  0
M  RAD  1   9   2
M  END
>  <reaction>  (15) 
rxn_481

>  <mol_properties>  (15) 
{"1": {"label": "*0", "atom_type": "Cd"}, "2": {"label": "*1", "atom_type": "O2s"}, "6": {"label": "*2", "atom_type": "H0"}, "7": {"label": "*4", "atom_type": "Cs"}, "8": {"label": "*3", "atom_type": "S2s"}}

>  <type>  (15) 
unop_11

>  <geom_source>  (15) 
Heuristics

$$$$

     RDKit          3D

 12 10  0  0  0  0  0  0  0  0999 V2000
   -0.0000   -1.8092   -0.6122 C   0  0  0  0  0  0  0  0  0  0  0  0
   -0.0000   -1.8092    0.7131 C   0  0  0  0  0  0  0  0  0  0  0  0
   -0.0000   -0.7288    1.5248 O   0  0  0  0  0  0  0  0  0  0  0  0
   -0.0000   -2.7456   -1.1494 H   0  0  0  0  0  0  0  0  0  0  0  0
   -0.0000   -0.8920   -1.1902 H   0  0  0  0  0  0  0  0  0  0  0  0
   -0.0000   -2.7243    1.2927 H   0  0  0  0  0  0  0  0  0  0  0  0
   -0.0000    0.2316    0.8873 H   0  0  0  0  0  0  0  0  0  0  0  0
    0.0000    0.7639   -1.6224 C   0  0  0  0  0  0  0  0  0  0  0  0
    0.0000    1.5700   -0.0011 S   0  0  0  0  0  1  0  0  0  0  0  0
   -0.8927    0.1584   -1.7641 H   0  0  0  0  0  0  0  0  0  0  0  0
    0.0000    1.5634   -2.3615 H   0  0  0  0  0  0  0  0  0  0  0  0
    0.8927    0.1584   -1.7641 H   0  0  0  0  0  0  0  0  0  0  0  0
  1  2  2  3
  1  4  1  0
  1  5  1  0
  2  3  1  0
  2  6  1  0
  3  7  1  0
  8  9  1  0
  8 10  1  0
  8 11  1  0
  8 12  1  0
M  RAD  1   9   2
M  END
>  <reaction>  (16) 
rxn_481

>  <mol_properties>  (16) 
{"1": {"label": "*0", "atom_type": "Cd"}, "2": {"label": "*1", "atom_type": "O2s"}, "6": {"label": "*2", "atom_type": "H0"}, "7": {"label": "*4", "atom_type": "Cs"}, "8": {"label": "*3", "atom_type": "S2s"}}

>  <type>  (16) 
unop_12

>  <geom_source>  (16) 
Heuristics

$$$$
