
     RDKit          3D

 12 11  0  0  0  0  0  0  0  0999 V2000
    1.2394   -0.3763   -0.3020 C   0  0  0  0  0  0  0  0  0  0  0  0
    0.1007    0.3024    0.4464 C   0  0  0  0  0  0  0  0  0  0  0  0
   -0.1187    2.0399   -0.0725 S   0  0  0  0  0  0  0  0  0  0  0  0
   -1.1974   -0.4877    0.3552 C   0  0  0  0  0  0  0  0  0  0  0  0
    2.1681    0.1850   -0.2048 H   0  0  0  0  0  0  0  0  0  0  0  0
    1.0030   -0.4604   -1.3656 H   0  0  0  0  0  0  0  0  0  0  0  0
    1.3993   -1.3856    0.0859 H   0  0  0  0  0  0  0  0  0  0  0  0
    0.3797    0.4050    1.4982 H   0  0  0  0  0  0  0  0  0  0  0  0
   -0.4500    1.7774   -1.3452 H   0  0  0  0  0  0  0  0  0  0  0  0
   -1.0545   -1.4977    0.7478 H   0  0  0  0  0  0  0  0  0  0  0  0
   -1.5206   -0.5758   -0.6849 H   0  0  0  0  0  0  0  0  0  0  0  0
   -1.9957   -0.0054    0.9183 H   0  0  0  0  0  0  0  0  0  0  0  0
  1  2  1  0
  1  5  1  0
  1  6  1  0
  1  7  1  0
  2  4  1  0
  2  3  1  0
  2  8  1  0
  3  9  1  0
  4 10  1  0
  4 11  1  0
  4 12  1  0
M  END
>  <reaction>  (1) 
rxn_1937

>  <mol_properties>  (1) 
{"1": {"label": "donator", "atom_type": "Cs"}, "7": {"label": "d_hydrogen", "atom_type": "H0"}}

>  <type>  (1) 
r1h

$$$$

     RDKit          3D

  9  8  0  0  0  0  0  0  0  0999 V2000
    2.3991   -0.1292   -0.2384 S   0  0  0  0  0  0  0  0  0  0  0  0
    0.7460    0.2807    0.0931 C   0  0  0  0  0  3  0  0  0  0  0  0
   -0.3131   -0.5719   -0.2043 C   0  0  0  0  0  0  0  0  0  0  0  0
   -0.2286   -1.8095   -0.7775 C   0  0  0  0  0  0  0  0  0  0  0  0
    2.9373    1.0009    0.2312 H   0  0  0  0  0  0  0  0  0  0  0  0
    0.5618    1.2421    0.5487 H   0  0  0  0  0  0  0  0  0  0  0  0
   -1.2978   -0.1954    0.0537 H   0  0  0  0  0  0  0  0  0  0  0  0
    0.7207   -2.2479   -1.0607 H   0  0  0  0  0  0  0  0  0  0  0  0
   -1.1177   -2.3938   -0.9670 H   0  0  0  0  0  0  0  0  0  0  0  0
  1  2  1  0
  1  5  1  0
  2  3  1  0
  2  6  1  0
  3  4  2  3
  3  7  1  0
  4  8  1  0
  4  9  1  0
M  RAD  1   2   2
M  END
>  <reaction>  (2) 
rxn_1937

>  <mol_properties>  (2) 
{"1": {"label": "acceptor", "atom_type": "Cs"}}

>  <type>  (2) 
r2

$$$$

     RDKit          3D

 10  9  0  0  0  0  0  0  0  0999 V2000
    2.2097   -0.5315    0.2575 S   0  0  0  0  0  0  0  0  0  0  0  0
    0.5401   -0.7188   -0.4494 C   0  0  0  0  0  0  0  0  0  0  0  0
   -0.5263   -0.1678    0.4365 C   0  0  0  0  0  0  0  0  0  0  0  0
   -1.3394    0.8185    0.0912 C   0  0  0  0  0  0  0  0  0  0  0  0
    2.1701    0.8016    0.3806 H   0  0  0  0  0  0  0  0  0  0  0  0
    0.4238   -1.7978   -0.5701 H   0  0  0  0  0  0  0  0  0  0  0  0
    0.5053   -0.2663   -1.4400 H   0  0  0  0  0  0  0  0  0  0  0  0
   -0.6005   -0.6141    1.4236 H   0  0  0  0  0  0  0  0  0  0  0  0
   -2.0960    1.1907    0.7700 H   0  0  0  0  0  0  0  0  0  0  0  0
   -1.2784    1.2877   -0.8850 H   0  0  0  0  0  0  0  0  0  0  0  0
  1  2  1  0
  1  5  1  0
  2  3  1  0
  2  6  1  0
  2  7  1  0
  3  4  2  3
  3  8  1  0
  4  9  1  0
  4 10  1  0
M  END
>  <reaction>  (3) 
rxn_1937

>  <mol_properties>  (3) 
{"1": {"label": "acceptor", "atom_type": "Cs"}, "9": {"label": "a_hydrogen", "atom_type": "H0"}}

>  <type>  (3) 
r2h

$$$$

     RDKit          3D

 21 19  0  0  0  0  0  0  0  0999 V2000
   -0.4331   -2.1127    0.3758 S   0  0  0  0  0  0  0  0  0  0  0  0
   -0.8851   -0.4289    0.7701 C   0  0  0  0  0  0  0  0  0  0  0  0
   -2.2080    0.0501    0.3646 C   0  0  0  0  0  0  0  0  0  0  0  0
   -2.9148    0.9659    1.0247 C   0  0  0  0  0  0  0  0  0  0  0  0
   -0.7796   -2.0725   -0.9186 H   0  0  0  0  0  0  0  0  0  0  0  0
   -0.6460   -0.2512    1.8179 H   0  0  0  0  0  0  0  0  0  0  0  0
   -2.5974   -0.3413   -0.5717 H   0  0  0  0  0  0  0  0  0  0  0  0
   -2.5680    1.3798    1.9650 H   0  0  0  0  0  0  0  0  0  0  0  0
   -3.8636    1.3235    0.6470 H   0  0  0  0  0  0  0  0  0  0  0  0
    0.7740    0.7163   -1.8952 C   0  0  0  0  0  0  0  0  0  0  0  0
    0.9546    1.1055   -0.4515 C   0  0  0  0  0  3  0  0  0  0  0  0
    2.5108    0.6667    0.2950 S   0  0  0  0  0  0  0  0  0  0  0  0
    0.5494    2.5162   -0.1084 C   0  0  0  0  0  0  0  0  0  0  0  0
    1.0008   -0.3391   -2.0558 H   0  0  0  0  0  0  0  0  0  0  0  0
    1.4271    1.3035   -2.5486 H   0  0  0  0  0  0  0  0  0  0  0  0
   -0.2603    0.8964   -2.2017 H   0  0  0  0  0  0  0  0  0  0  0  0
    0.0136    0.3271    0.1863 H   0  0  0  0  0  0  0  0  0  0  0  0
    2.5118   -0.6189   -0.0850 H   0  0  0  0  0  0  0  0  0  0  0  0
   -0.4857    2.6845   -0.4125 H   0  0  0  0  0  0  0  0  0  0  0  0
    1.1759    3.2502   -0.6269 H   0  0  0  0  0  0  0  0  0  0  0  0
    0.6237    2.7047    0.9637 H   0  0  0  0  0  0  0  0  0  0  0  0
  1  2  1  0
  1  5  1  0
  2  3  1  0
  2  6  1  0
  2 17  1  0
  3  4  2  3
  3  7  1  0
  4  8  1  0
  4  9  1  0
 10 11  1  0
 10 14  1  0
 10 15  1  0
 10 16  1  0
 11 13  1  0
 11 12  1  0
 12 18  1  0
 13 19  1  0
 13 20  1  0
 13 21  1  0
M  RAD  1  11   2
M  END
>  <reaction>  (4) 
rxn_1937

>  <mol_properties>  (4) 
{"0": {"label": "*0", "atom_type": "S2s"}, "1": {"label": "*1", "atom_type": "Cs"}, "10": {"label": "*3", "atom_type": "Cs"}, "11": {"label": "*4", "atom_type": "S2s"}, "16": {"label": "*2", "atom_type": "H0"}}

>  <type>  (4) 
ts

$$$$

     RDKit          3D

 21 19  0  0  0  0  0  0  0  0999 V2000
   -0.5060   -1.6754    1.1987 S   0  0  0  0  0  0  0  0  0  0  0  0
   -1.1735   -0.2906    0.2192 C   0  0  0  0  0  0  0  0  0  0  0  0
   -2.5562   -0.5496   -0.2776 C   0  0  0  0  0  0  0  0  0  0  0  0
   -3.6075    0.1907    0.0387 C   0  0  0  0  0  0  0  0  0  0  0  0
   -1.4764   -1.6856    2.1218 H   0  0  0  0  0  0  0  0  0  0  0  0
   -1.1274    0.6295    0.8008 H   0  0  0  0  0  0  0  0  0  0  0  0
   -2.6745   -1.4160   -0.9212 H   0  0  0  0  0  0  0  0  0  0  0  0
   -3.5171    1.0549    0.6881 H   0  0  0  0  0  0  0  0  0  0  0  0
   -4.5947   -0.0387   -0.3412 H   0  0  0  0  0  0  0  0  0  0  0  0
    0.9612    0.9725   -2.1527 C   0  0  0  0  0  0  0  0  0  0  0  0
    0.9612    0.9725   -0.6304 C   0  0  0  0  0  3  0  0  0  0  0  0
    2.3163   -0.0438    0.0532 S   0  0  0  0  0  0  0  0  0  0  0  0
    0.9612    2.3825   -0.0564 C   0  0  0  0  0  0  0  0  0  0  0  0
    0.9326   -0.0418   -2.5494 H   0  0  0  0  0  0  0  0  0  0  0  0
    1.8596    1.4622   -2.5363 H   0  0  0  0  0  0  0  0  0  0  0  0
    0.0942    1.5199   -2.5316 H   0  0  0  0  0  0  0  0  0  0  0  0
   -0.1067    0.3406   -0.2054 H   0  0  0  0  0  0  0  0  0  0  0  0
    3.3222    0.6920   -0.4417 H   0  0  0  0  0  0  0  0  0  0  0  0
    0.0942    2.9398   -0.4206 H   0  0  0  0  0  0  0  0  0  0  0  0
    1.8596    2.9224   -0.3654 H   0  0  0  0  0  0  0  0  0  0  0  0
    0.9326    2.3675    1.0326 H   0  0  0  0  0  0  0  0  0  0  0  0
  1  2  1  0
  1  5  1  0
  2  3  1  0
  2  6  1  0
  2 17  1  0
  3  4  2  3
  3  7  1  0
  4  8  1  0
  4  9  1  0
 10 11  1  0
 10 14  1  0
 10 15  1  0
 10 16  1  0
 11 13  1  0
 11 12  1  0
 12 18  1  0
 13 19  1  0
 13 20  1  0
 13 21  1  0
M  RAD  1  11   2
M  END
>  <reaction>  (5) 
rxn_1937

>  <mol_properties>  (5) 
{"0": {"label": "*0", "atom_type": "S2s"}, "1": {"label": "*1", "atom_type": "Cs"}, "10": {"label": "*3", "atom_type": "Cs"}, "11": {"label": "*4", "atom_type": "S2s"}, "16": {"label": "*2", "atom_type": "H0"}}

>  <type>  (5) 
unop_1

>  <geom_source>  (5) 
Heuristics

$$$$

     RDKit          3D

 21 19  0  0  0  0  0  0  0  0999 V2000
   -1.3787   -1.6306   -0.8579 S   0  0  0  0  0  0  0  0  0  0  0  0
   -1.0428   -0.4044    0.4482 C   0  0  0  0  0  0  0  0  0  0  0  0
   -2.2836    0.2456    0.9616 C   0  0  0  0  0  0  0  0  0  0  0  0
   -2.6914    0.1733    2.2193 C   0  0  0  0  0  0  0  0  0  0  0  0
   -2.1959   -2.4028   -0.1300 H   0  0  0  0  0  0  0  0  0  0  0  0
   -0.4762   -0.8691    1.2546 H   0  0  0  0  0  0  0  0  0  0  0  0
   -2.8732    0.7879    0.2287 H   0  0  0  0  0  0  0  0  0  0  0  0
   -2.1257   -0.3710    2.9680 H   0  0  0  0  0  0  0  0  0  0  0  0
   -3.6030    0.6567    2.5461 H   0  0  0  0  0  0  0  0  0  0  0  0
    1.0919    0.8587   -1.9237 C   0  0  0  0  0  0  0  0  0  0  0  0
    1.0919    0.8587   -0.4014 C   0  0  0  0  0  3  0  0  0  0  0  0
    2.4470   -0.1576    0.2822 S   0  0  0  0  0  0  0  0  0  0  0  0
    1.0919    2.2687    0.1726 C   0  0  0  0  0  0  0  0  0  0  0  0
    1.0633   -0.1555   -2.3204 H   0  0  0  0  0  0  0  0  0  0  0  0
    1.9903    1.3485   -2.3073 H   0  0  0  0  0  0  0  0  0  0  0  0
    0.2249    1.4062   -2.3026 H   0  0  0  0  0  0  0  0  0  0  0  0
    0.0240    0.2268    0.0236 H   0  0  0  0  0  0  0  0  0  0  0  0
    3.4529    0.5782   -0.2127 H   0  0  0  0  0  0  0  0  0  0  0  0
    0.2249    2.8260   -0.1916 H   0  0  0  0  0  0  0  0  0  0  0  0
    1.9903    2.8086   -0.1364 H   0  0  0  0  0  0  0  0  0  0  0  0
    1.0633    2.2537    1.2616 H   0  0  0  0  0  0  0  0  0  0  0  0
  1  2  1  0
  1  5  1  0
  2  3  1  0
  2  6  1  0
  2 17  1  0
  3  4  2  3
  3  7  1  0
  4  8  1  0
  4  9  1  0
 10 11  1  0
 10 14  1  0
 10 15  1  0
 10 16  1  0
 11 13  1  0
 11 12  1  0
 12 18  1  0
 13 19  1  0
 13 20  1  0
 13 21  1  0
M  RAD  1  11   2
M  END
>  <reaction>  (6) 
rxn_1937

>  <mol_properties>  (6) 
{"0": {"label": "*0", "atom_type": "S2s"}, "1": {"label": "*1", "atom_type": "Cs"}, "10": {"label": "*3", "atom_type": "Cs"}, "11": {"label": "*4", "atom_type": "S2s"}, "16": {"label": "*2", "atom_type": "H0"}}

>  <type>  (6) 
unop_2

>  <geom_source>  (6) 
Heuristics

$$$$

     RDKit          3D

 21 19  0  0  0  0  0  0  0  0999 V2000
   -0.6798   -1.0085    1.7873 S   0  0  0  0  0  0  0  0  0  0  0  0
   -1.1982   -0.2878    0.1954 C   0  0  0  0  0  0  0  0  0  0  0  0
   -2.1546   -1.1588   -0.5478 C   0  0  0  0  0  0  0  0  0  0  0  0
   -3.3861   -0.7973   -0.8732 C   0  0  0  0  0  0  0  0  0  0  0  0
   -1.9091   -1.1194    2.3073 H   0  0  0  0  0  0  0  0  0  0  0  0
   -1.6121    0.7070    0.3574 H   0  0  0  0  0  0  0  0  0  0  0  0
   -1.7919   -2.1491   -0.8062 H   0  0  0  0  0  0  0  0  0  0  0  0
   -3.7754    0.1824   -0.6172 H   0  0  0  0  0  0  0  0  0  0  0  0
   -4.0482   -1.4657   -1.4084 H   0  0  0  0  0  0  0  0  0  0  0  0
    0.9365    0.9754   -2.1766 C   0  0  0  0  0  0  0  0  0  0  0  0
    0.9365    0.9754   -0.6542 C   0  0  0  0  0  3  0  0  0  0  0  0
    2.2916   -0.0409    0.0293 S   0  0  0  0  0  0  0  0  0  0  0  0
    0.9365    2.3854   -0.0802 C   0  0  0  0  0  0  0  0  0  0  0  0
    0.9079   -0.0389   -2.5732 H   0  0  0  0  0  0  0  0  0  0  0  0
    1.8349    1.4651   -2.5601 H   0  0  0  0  0  0  0  0  0  0  0  0
    0.0696    1.5228   -2.5554 H   0  0  0  0  0  0  0  0  0  0  0  0
   -0.1314    0.3435   -0.2292 H   0  0  0  0  0  0  0  0  0  0  0  0
    3.2975    0.6949   -0.4656 H   0  0  0  0  0  0  0  0  0  0  0  0
    0.0696    2.9427   -0.4444 H   0  0  0  0  0  0  0  0  0  0  0  0
    1.8349    2.9253   -0.3892 H   0  0  0  0  0  0  0  0  0  0  0  0
    0.9079    2.3703    1.0087 H   0  0  0  0  0  0  0  0  0  0  0  0
  1  2  1  0
  1  5  1  0
  2  3  1  0
  2  6  1  0
  2 17  1  0
  3  4  2  3
  3  7  1  0
  4  8  1  0
  4  9  1  0
 10 11  1  0
 10 14  1  0
 10 15  1  0
 10 16  1  0
 11 13  1  0
 11 12  1  0
 12 18  1  0
 13 19  1  0
 13 20  1  0
 13 21  1  0
M  RAD  1  11   2
M  END
>  <reaction>  (7) 
rxn_1937

>  <mol_properties>  (7) 
{"0": {"label": "*0", "atom_type": "S2s"}, "1": {"label": "*1", "atom_type": "Cs"}, "10": {"label": "*3", "atom_type": "Cs"}, "11": {"label": "*4", "atom_type": "S2s"}, "16": {"label": "*2", "atom_type": "H0"}}

>  <type>  (7) 
unop_3

>  <geom_source>  (7) 
Heuristics

$$$$

     RDKit          3D

 21 19  0  0  0  0  0  0  0  0999 V2000
   -2.5409    0.1572   -0.5164 S   0  0  0  0  0  0  0  0  0  0  0  0
   -1.1553   -0.8026    0.1772 C   0  0  0  0  0  0  0  0  0  0  0  0
   -0.7062   -0.2902    1.5044 C   0  0  0  0  0  0  0  0  0  0  0  0
   -0.7351   -1.0012    2.6211 C   0  0  0  0  0  0  0  0  0  0  0  0
   -3.3814   -0.0333    0.5088 H   0  0  0  0  0  0  0  0  0  0  0  0
   -1.4259   -1.8567    0.2304 H   0  0  0  0  0  0  0  0  0  0  0  0
   -0.3572    0.7378    1.5226 H   0  0  0  0  0  0  0  0  0  0  0  0
   -1.0892   -2.0265    2.6309 H   0  0  0  0  0  0  0  0  0  0  0  0
   -0.4043   -0.5854    3.5641 H   0  0  0  0  0  0  0  0  0  0  0  0
    0.9794    0.4605   -2.1947 C   0  0  0  0  0  0  0  0  0  0  0  0
    0.9794    0.4605   -0.6723 C   0  0  0  0  0  3  0  0  0  0  0  0
    2.3346   -0.5558    0.0112 S   0  0  0  0  0  0  0  0  0  0  0  0
    0.9794    1.8705   -0.0983 C   0  0  0  0  0  0  0  0  0  0  0  0
    0.9509   -0.5538   -2.5913 H   0  0  0  0  0  0  0  0  0  0  0  0
    1.8779    0.9502   -2.5782 H   0  0  0  0  0  0  0  0  0  0  0  0
    0.1125    1.0079   -2.5735 H   0  0  0  0  0  0  0  0  0  0  0  0
   -0.0884   -0.1714   -0.2473 H   0  0  0  0  0  0  0  0  0  0  0  0
    3.3405    0.1800   -0.4837 H   0  0  0  0  0  0  0  0  0  0  0  0
    0.1125    2.4278   -0.4625 H   0  0  0  0  0  0  0  0  0  0  0  0
    1.8779    2.4104   -0.4073 H   0  0  0  0  0  0  0  0  0  0  0  0
    0.9509    1.8555    0.9906 H   0  0  0  0  0  0  0  0  0  0  0  0
  1  2  1  0
  1  5  1  0
  2  3  1  0
  2  6  1  0
  2 17  1  0
  3  4  2  3
  3  7  1  0
  4  8  1  0
  4  9  1  0
 10 11  1  0
 10 14  1  0
 10 15  1  0
 10 16  1  0
 11 13  1  0
 11 12  1  0
 12 18  1  0
 13 19  1  0
 13 20  1  0
 13 21  1  0
M  RAD  1  11   2
M  END
>  <reaction>  (8) 
rxn_1937

>  <mol_properties>  (8) 
{"0": {"label": "*0", "atom_type": "S2s"}, "1": {"label": "*1", "atom_type": "Cs"}, "10": {"label": "*3", "atom_type": "Cs"}, "11": {"label": "*4", "atom_type": "S2s"}, "16": {"label": "*2", "atom_type": "H0"}}

>  <type>  (8) 
unop_4

>  <geom_source>  (8) 
Heuristics

$$$$

     RDKit          3D

 21 19  0  0  0  0  0  0  0  0999 V2000
   -1.1710   -0.1973    1.9580 S   0  0  0  0  0  0  0  0  0  0  0  0
   -1.3052   -0.2767    0.1420 C   0  0  0  0  0  0  0  0  0  0  0  0
   -1.3316   -1.6764   -0.3736 C   0  0  0  0  0  0  0  0  0  0  0  0
   -2.3405   -2.1949   -1.0567 C   0  0  0  0  0  0  0  0  0  0  0  0
   -2.2772   -0.9056    2.2197 H   0  0  0  0  0  0  0  0  0  0  0  0
   -2.1788    0.2840   -0.1890 H   0  0  0  0  0  0  0  0  0  0  0  0
   -0.4623   -2.2841   -0.1412 H   0  0  0  0  0  0  0  0  0  0  0  0
   -3.2243   -1.6118   -1.2924 H   0  0  0  0  0  0  0  0  0  0  0  0
   -2.3186   -3.2191   -1.4064 H   0  0  0  0  0  0  0  0  0  0  0  0
    0.8295    0.9864   -2.2300 C   0  0  0  0  0  0  0  0  0  0  0  0
    0.8295    0.9864   -0.7076 C   0  0  0  0  0  3  0  0  0  0  0  0
    2.1847   -0.0299   -0.0241 S   0  0  0  0  0  0  0  0  0  0  0  0
    0.8295    2.3964   -0.1336 C   0  0  0  0  0  0  0  0  0  0  0  0
    0.8010   -0.0279   -2.6266 H   0  0  0  0  0  0  0  0  0  0  0  0
    1.7280    1.4761   -2.6135 H   0  0  0  0  0  0  0  0  0  0  0  0
   -0.0374    1.5338   -2.6088 H   0  0  0  0  0  0  0  0  0  0  0  0
   -0.2383    0.3545   -0.2826 H   0  0  0  0  0  0  0  0  0  0  0  0
    3.1906    0.7059   -0.5190 H   0  0  0  0  0  0  0  0  0  0  0  0
   -0.0374    2.9537   -0.4978 H   0  0  0  0  0  0  0  0  0  0  0  0
    1.7280    2.9363   -0.4426 H   0  0  0  0  0  0  0  0  0  0  0  0
    0.8010    2.3814    0.9553 H   0  0  0  0  0  0  0  0  0  0  0  0
  1  2  1  0
  1  5  1  0
  2  3  1  0
  2  6  1  0
  2 17  1  0
  3  4  2  3
  3  7  1  0
  4  8  1  0
  4  9  1  0
 10 11  1  0
 10 14  1  0
 10 15  1  0
 10 16  1  0
 11 13  1  0
 11 12  1  0
 12 18  1  0
 13 19  1  0
 13 20  1  0
 13 21  1  0
M  RAD  1  11   2
M  END
>  <reaction>  (9) 
rxn_1937

>  <mol_properties>  (9) 
{"0": {"label": "*0", "atom_type": "S2s"}, "1": {"label": "*1", "atom_type": "Cs"}, "10": {"label": "*3", "atom_type": "Cs"}, "11": {"label": "*4", "atom_type": "S2s"}, "16": {"label": "*2", "atom_type": "H0"}}

>  <type>  (9) 
unop_5

>  <geom_source>  (9) 
Heuristics

$$$$

     RDKit          3D

 21 19  0  0  0  0  0  0  0  0999 V2000
   -2.5429    0.5692    0.1932 S   0  0  0  0  0  0  0  0  0  0  0  0
   -1.2832   -0.7405    0.0503 C   0  0  0  0  0  0  0  0  0  0  0  0
   -0.3748   -0.7982    1.2324 C   0  0  0  0  0  0  0  0  0  0  0  0
   -0.2564   -1.8528    2.0244 C   0  0  0  0  0  0  0  0  0  0  0  0
   -3.0842    0.1304    1.3371 H   0  0  0  0  0  0  0  0  0  0  0  0
   -1.7669   -1.7010   -0.1250 H   0  0  0  0  0  0  0  0  0  0  0  0
    0.1957    0.1027    1.4367 H   0  0  0  0  0  0  0  0  0  0  0  0
   -0.8232   -2.7607    1.8476 H   0  0  0  0  0  0  0  0  0  0  0  0
    0.4121   -1.8475    2.8757 H   0  0  0  0  0  0  0  0  0  0  0  0
    0.8515    0.5226   -2.3216 C   0  0  0  0  0  0  0  0  0  0  0  0
    0.8515    0.5226   -0.7992 C   0  0  0  0  0  3  0  0  0  0  0  0
    2.2067   -0.4936   -0.1157 S   0  0  0  0  0  0  0  0  0  0  0  0
    0.8515    1.9326   -0.2253 C   0  0  0  0  0  0  0  0  0  0  0  0
    0.8230   -0.4916   -2.7183 H   0  0  0  0  0  0  0  0  0  0  0  0
    1.7499    1.0124   -2.7052 H   0  0  0  0  0  0  0  0  0  0  0  0
   -0.0154    1.0701   -2.7004 H   0  0  0  0  0  0  0  0  0  0  0  0
   -0.2164   -0.1092   -0.3742 H   0  0  0  0  0  0  0  0  0  0  0  0
    3.2125    0.2422   -0.6106 H   0  0  0  0  0  0  0  0  0  0  0  0
   -0.0154    2.4899   -0.5894 H   0  0  0  0  0  0  0  0  0  0  0  0
    1.7499    2.4726   -0.5342 H   0  0  0  0  0  0  0  0  0  0  0  0
    0.8230    1.9176    0.8637 H   0  0  0  0  0  0  0  0  0  0  0  0
  1  2  1  0
  1  5  1  0
  2  3  1  0
  2  6  1  0
  2 17  1  0
  3  4  2  3
  3  7  1  0
  4  8  1  0
  4  9  1  0
 10 11  1  0
 10 14  1  0
 10 15  1  0
 10 16  1  0
 11 13  1  0
 11 12  1  0
 12 18  1  0
 13 19  1  0
 13 20  1  0
 13 21  1  0
M  RAD  1  11   2
M  END
>  <reaction>  (10) 
rxn_1937

>  <mol_properties>  (10) 
{"0": {"label": "*0", "atom_type": "S2s"}, "1": {"label": "*1", "atom_type": "Cs"}, "10": {"label": "*3", "atom_type": "Cs"}, "11": {"label": "*4", "atom_type": "S2s"}, "16": {"label": "*2", "atom_type": "H0"}}

>  <type>  (10) 
unop_6

>  <geom_source>  (10) 
Heuristics

$$$$

     RDKit          3D

 21 19  0  0  0  0  0  0  0  0999 V2000
   -2.2800    0.6637    0.9745 S   0  0  0  0  0  0  0  0  0  0  0  0
   -1.3876   -0.5879   -0.0050 C   0  0  0  0  0  0  0  0  0  0  0  0
   -0.3085   -1.2655    0.7710 C   0  0  0  0  0  0  0  0  0  0  0  0
   -0.2774   -2.5665    1.0152 C   0  0  0  0  0  0  0  0  0  0  0  0
   -2.6796   -0.1660    1.9470 H   0  0  0  0  0  0  0  0  0  0  0  0
   -2.0940   -1.3094   -0.4144 H   0  0  0  0  0  0  0  0  0  0  0  0
    0.4735   -0.6200    1.1593 H   0  0  0  0  0  0  0  0  0  0  0  0
   -1.0521   -3.2308    0.6474 H   0  0  0  0  0  0  0  0  0  0  0  0
    0.5237   -3.0144    1.5890 H   0  0  0  0  0  0  0  0  0  0  0  0
    0.7471    0.6752   -2.3769 C   0  0  0  0  0  0  0  0  0  0  0  0
    0.7471    0.6752   -0.8546 C   0  0  0  0  0  3  0  0  0  0  0  0
    2.1023   -0.3411   -0.1710 S   0  0  0  0  0  0  0  0  0  0  0  0
    0.7471    2.0852   -0.2806 C   0  0  0  0  0  0  0  0  0  0  0  0
    0.7186   -0.3390   -2.7736 H   0  0  0  0  0  0  0  0  0  0  0  0
    1.6456    1.1650   -2.7605 H   0  0  0  0  0  0  0  0  0  0  0  0
   -0.1198    1.2226   -2.7558 H   0  0  0  0  0  0  0  0  0  0  0  0
   -0.3208    0.0433   -0.4296 H   0  0  0  0  0  0  0  0  0  0  0  0
    3.1082    0.3947   -0.6659 H   0  0  0  0  0  0  0  0  0  0  0  0
   -0.1198    2.6425   -0.6448 H   0  0  0  0  0  0  0  0  0  0  0  0
    1.6456    2.6251   -0.5895 H   0  0  0  0  0  0  0  0  0  0  0  0
    0.7186    2.0702    0.8084 H   0  0  0  0  0  0  0  0  0  0  0  0
  1  2  1  0
  1  5  1  0
  2  3  1  0
  2  6  1  0
  2 17  1  0
  3  4  2  3
  3  7  1  0
  4  8  1  0
  4  9  1  0
 10 11  1  0
 10 14  1  0
 10 15  1  0
 10 16  1  0
 11 13  1  0
 11 12  1  0
 12 18  1  0
 13 19  1  0
 13 20  1  0
 13 21  1  0
M  RAD  1  11   2
M  END
>  <reaction>  (11) 
rxn_1937

>  <mol_properties>  (11) 
{"0": {"label": "*0", "atom_type": "S2s"}, "1": {"label": "*1", "atom_type": "Cs"}, "10": {"label": "*3", "atom_type": "Cs"}, "11": {"label": "*4", "atom_type": "S2s"}, "16": {"label": "*2", "atom_type": "H0"}}

>  <type>  (11) 
unop_7

>  <geom_source>  (11) 
Heuristics

$$$$

     RDKit          3D

 21 19  0  0  0  0  0  0  0  0999 V2000
   -0.6170   -2.0082    0.4237 S   0  0  0  0  0  0  0  0  0  0  0  0
   -1.1586   -0.2737    0.2808 C   0  0  0  0  0  0  0  0  0  0  0  0
   -2.6391   -0.1405    0.1544 C   0  0  0  0  0  0  0  0  0  0  0  0
   -3.4006    0.5101    1.0206 C   0  0  0  0  0  0  0  0  0  0  0  0
   -1.3346   -2.2983    1.5167 H   0  0  0  0  0  0  0  0  0  0  0  0
   -0.7794    0.3026    1.1242 H   0  0  0  0  0  0  0  0  0  0  0  0
   -3.0885   -0.6340   -0.7019 H   0  0  0  0  0  0  0  0  0  0  0  0
   -2.9770    1.0024    1.8895 H   0  0  0  0  0  0  0  0  0  0  0  0
   -4.4732    0.5759    0.8915 H   0  0  0  0  0  0  0  0  0  0  0  0
    0.9761    0.9894   -2.0912 C   0  0  0  0  0  0  0  0  0  0  0  0
    0.9761    0.9894   -0.5688 C   0  0  0  0  0  3  0  0  0  0  0  0
    2.3313   -0.0268    0.1148 S   0  0  0  0  0  0  0  0  0  0  0  0
    0.9761    2.3994    0.0052 C   0  0  0  0  0  0  0  0  0  0  0  0
    0.9476   -0.0248   -2.4878 H   0  0  0  0  0  0  0  0  0  0  0  0
    1.8746    1.4792   -2.4747 H   0  0  0  0  0  0  0  0  0  0  0  0
    0.1092    1.5369   -2.4700 H   0  0  0  0  0  0  0  0  0  0  0  0
   -0.0917    0.3576   -0.1438 H   0  0  0  0  0  0  0  0  0  0  0  0
    3.3372    0.7090   -0.3802 H   0  0  0  0  0  0  0  0  0  0  0  0
    0.1092    2.9567   -0.3590 H   0  0  0  0  0  0  0  0  0  0  0  0
    1.8746    2.9393   -0.3038 H   0  0  0  0  0  0  0  0  0  0  0  0
    0.9476    2.3844    1.0941 H   0  0  0  0  0  0  0  0  0  0  0  0
  1  2  1  0
  1  5  1  0
  2  3  1  0
  2  6  1  0
  2 17  1  0
  3  4  2  3
  3  7  1  0
  4  8  1  0
  4  9  1  0
 10 11  1  0
 10 14  1  0
 10 15  1  0
 10 16  1  0
 11 13  1  0
 11 12  1  0
 12 18  1  0
 13 19  1  0
 13 20  1  0
 13 21  1  0
M  RAD  1  11   2
M  END
>  <reaction>  (12) 
rxn_1937

>  <mol_properties>  (12) 
{"0": {"label": "*0", "atom_type": "S2s"}, "1": {"label": "*1", "atom_type": "Cs"}, "10": {"label": "*3", "atom_type": "Cs"}, "11": {"label": "*4", "atom_type": "S2s"}, "16": {"label": "*2", "atom_type": "H0"}}

>  <type>  (12) 
unop_8

>  <geom_source>  (12) 
Heuristics

$$$$

     RDKit          3D

 21 19  0  0  0  0  0  0  0  0999 V2000
   -2.2837   -0.4517   -0.9771 S   0  0  0  0  0  0  0  0  0  0  0  0
   -1.0472   -0.7476    0.3290 C   0  0  0  0  0  0  0  0  0  0  0  0
   -1.2448    0.1297    1.5194 C   0  0  0  0  0  0  0  0  0  0  0  0
   -1.4948   -0.3221    2.7387 C   0  0  0  0  0  0  0  0  0  0  0  0
   -3.3605   -0.7080   -0.2230 H   0  0  0  0  0  0  0  0  0  0  0  0
   -1.0493   -1.8008    0.6082 H   0  0  0  0  0  0  0  0  0  0  0  0
   -1.1911    1.1984    1.3353 H   0  0  0  0  0  0  0  0  0  0  0  0
   -1.5637   -1.3846    2.9463 H   0  0  0  0  0  0  0  0  0  0  0  0
   -1.6373    0.3529    3.5728 H   0  0  0  0  0  0  0  0  0  0  0  0
    1.0875    0.5155   -2.0429 C   0  0  0  0  0  0  0  0  0  0  0  0
    1.0875    0.5155   -0.5206 C   0  0  0  0  0  3  0  0  0  0  0  0
    2.4427   -0.5008    0.1630 S   0  0  0  0  0  0  0  0  0  0  0  0
    1.0875    1.9255    0.0534 C   0  0  0  0  0  0  0  0  0  0  0  0
    1.0590   -0.4987   -2.4396 H   0  0  0  0  0  0  0  0  0  0  0  0
    1.9860    1.0053   -2.4265 H   0  0  0  0  0  0  0  0  0  0  0  0
    0.2206    1.0630   -2.4218 H   0  0  0  0  0  0  0  0  0  0  0  0
    0.0196   -0.1163   -0.0956 H   0  0  0  0  0  0  0  0  0  0  0  0
    3.4486    0.2351   -0.3320 H   0  0  0  0  0  0  0  0  0  0  0  0
    0.2206    2.4828   -0.3108 H   0  0  0  0  0  0  0  0  0  0  0  0
    1.9860    2.4654   -0.2556 H   0  0  0  0  0  0  0  0  0  0  0  0
    1.0590    1.9105    1.1423 H   0  0  0  0  0  0  0  0  0  0  0  0
  1  2  1  0
  1  5  1  0
  2  3  1  0
  2  6  1  0
  2 17  1  0
  3  4  2  3
  3  7  1  0
  4  8  1  0
  4  9  1  0
 10 11  1  0
 10 14  1  0
 10 15  1  0
 10 16  1  0
 11 13  1  0
 11 12  1  0
 12 18  1  0
 13 19  1  0
 13 20  1  0
 13 21  1  0
M  RAD  1  11   2
M  END
>  <reaction>  (13) 
rxn_1937

>  <mol_properties>  (13) 
{"0": {"label": "*0", "atom_type": "S2s"}, "1": {"label": "*1", "atom_type": "Cs"}, "10": {"label": "*3", "atom_type": "Cs"}, "11": {"label": "*4", "atom_type": "S2s"}, "16": {"label": "*2", "atom_type": "H0"}}

>  <type>  (13) 
unop_9

>  <geom_source>  (13) 
Heuristics

$$$$

     RDKit          3D

 21 19  0  0  0  0  0  0  0  0999 V2000
   -0.9380   -1.9730   -0.3196 S   0  0  0  0  0  0  0  0  0  0  0  0
   -1.1123   -0.2965    0.3741 C   0  0  0  0  0  0  0  0  0  0  0  0
   -2.5364    0.0957    0.5835 C   0  0  0  0  0  0  0  0  0  0  0  0
   -3.0551    0.3987    1.7635 C   0  0  0  0  0  0  0  0  0  0  0  0
   -1.5906   -2.6086    0.6623 H   0  0  0  0  0  0  0  0  0  0  0  0
   -0.5396   -0.2172    1.2976 H   0  0  0  0  0  0  0  0  0  0  0  0
   -3.1612    0.1056   -0.3044 H   0  0  0  0  0  0  0  0  0  0  0  0
   -2.4544    0.3859    2.6667 H   0  0  0  0  0  0  0  0  0  0  0  0
   -4.0971    0.6723    1.8690 H   0  0  0  0  0  0  0  0  0  0  0  0
    1.0224    0.9666   -1.9978 C   0  0  0  0  0  0  0  0  0  0  0  0
    1.0224    0.9666   -0.4755 C   0  0  0  0  0  3  0  0  0  0  0  0
    2.3775   -0.0496    0.2081 S   0  0  0  0  0  0  0  0  0  0  0  0
    1.0224    2.3766    0.0985 C   0  0  0  0  0  0  0  0  0  0  0  0
    0.9938   -0.0476   -2.3945 H   0  0  0  0  0  0  0  0  0  0  0  0
    1.9208    1.4564   -2.3814 H   0  0  0  0  0  0  0  0  0  0  0  0
    0.1554    1.5141   -2.3767 H   0  0  0  0  0  0  0  0  0  0  0  0
   -0.0455    0.3348   -0.0505 H   0  0  0  0  0  0  0  0  0  0  0  0
    3.3834    0.6862   -0.2868 H   0  0  0  0  0  0  0  0  0  0  0  0
    0.1554    2.9339   -0.2657 H   0  0  0  0  0  0  0  0  0  0  0  0
    1.9208    2.9165   -0.2105 H   0  0  0  0  0  0  0  0  0  0  0  0
    0.9938    2.3616    1.1875 H   0  0  0  0  0  0  0  0  0  0  0  0
  1  2  1  0
  1  5  1  0
  2  3  1  0
  2  6  1  0
  2 17  1  0
  3  4  2  3
  3  7  1  0
  4  8  1  0
  4  9  1  0
 10 11  1  0
 10 14  1  0
 10 15  1  0
 10 16  1  0
 11 13  1  0
 11 12  1  0
 12 18  1  0
 13 19  1  0
 13 20  1  0
 13 21  1  0
M  RAD  1  11   2
M  END
>  <reaction>  (14) 
rxn_1937

>  <mol_properties>  (14) 
{"0": {"label": "*0", "atom_type": "S2s"}, "1": {"label": "*1", "atom_type": "Cs"}, "10": {"label": "*3", "atom_type": "Cs"}, "11": {"label": "*4", "atom_type": "S2s"}, "16": {"label": "*2", "atom_type": "H0"}}

>  <type>  (14) 
unop_10

>  <geom_source>  (14) 
Heuristics

$$$$

     RDKit          3D

 21 19  0  0  0  0  0  0  0  0999 V2000
   -1.7929    0.4058    1.6285 S   0  0  0  0  0  0  0  0  0  0  0  0
   -1.4107   -0.3955    0.0366 C   0  0  0  0  0  0  0  0  0  0  0  0
   -0.5849   -1.6279    0.1950 C   0  0  0  0  0  0  0  0  0  0  0  0
   -0.9770   -2.8353   -0.1815 C   0  0  0  0  0  0  0  0  0  0  0  0
   -2.4023   -0.6498    2.1835 H   0  0  0  0  0  0  0  0  0  0  0  0
   -2.3338   -0.6038   -0.5034 H   0  0  0  0  0  0  0  0  0  0  0  0
    0.3832   -1.4927    0.6675 H   0  0  0  0  0  0  0  0  0  0  0  0
   -1.9437   -2.9980   -0.6460 H   0  0  0  0  0  0  0  0  0  0  0  0
   -0.3458   -3.7034   -0.0412 H   0  0  0  0  0  0  0  0  0  0  0  0
    0.7240    0.8676   -2.3354 C   0  0  0  0  0  0  0  0  0  0  0  0
    0.7240    0.8676   -0.8130 C   0  0  0  0  0  3  0  0  0  0  0  0
    2.0792   -0.1487   -0.1294 S   0  0  0  0  0  0  0  0  0  0  0  0
    0.7240    2.2776   -0.2390 C   0  0  0  0  0  0  0  0  0  0  0  0
    0.6955   -0.1467   -2.7320 H   0  0  0  0  0  0  0  0  0  0  0  0
    1.6225    1.3573   -2.7189 H   0  0  0  0  0  0  0  0  0  0  0  0
   -0.1429    1.4150   -2.7142 H   0  0  0  0  0  0  0  0  0  0  0  0
   -0.3438    0.2357   -0.3880 H   0  0  0  0  0  0  0  0  0  0  0  0
    3.0851    0.5871   -0.6244 H   0  0  0  0  0  0  0  0  0  0  0  0
   -0.1429    2.8349   -0.6032 H   0  0  0  0  0  0  0  0  0  0  0  0
    1.6225    2.8175   -0.5480 H   0  0  0  0  0  0  0  0  0  0  0  0
    0.6955    2.2626    0.8499 H   0  0  0  0  0  0  0  0  0  0  0  0
  1  2  1  0
  1  5  1  0
  2  3  1  0
  2  6  1  0
  2 17  1  0
  3  4  2  3
  3  7  1  0
  4  8  1  0
  4  9  1  0
 10 11  1  0
 10 14  1  0
 10 15  1  0
 10 16  1  0
 11 13  1  0
 11 12  1  0
 12 18  1  0
 13 19  1  0
 13 20  1  0
 13 21  1  0
M  RAD  1  11   2
M  END
>  <reaction>  (15) 
rxn_1937

>  <mol_properties>  (15) 
{"0": {"label": "*0", "atom_type": "S2s"}, "1": {"label": "*1", "atom_type": "Cs"}, "10": {"label": "*3", "atom_type": "Cs"}, "11": {"label": "*4", "atom_type": "S2s"}, "16": {"label": "*2", "atom_type": "H0"}}

>  <type>  (15) 
unop_11

>  <geom_source>  (15) 
Heuristics

$$$$

     RDKit          3D

 21 19  0  0  0  0  0  0  0  0999 V2000
   -1.8564   -1.0904   -1.0919 S   0  0  0  0  0  0  0  0  0  0  0  0
   -1.0041   -0.5861    0.4384 C   0  0  0  0  0  0  0  0  0  0  0  0
   -1.8388    0.3041    1.2967 C   0  0  0  0  0  0  0  0  0  0  0  0
   -2.2138    0.0037    2.5305 C   0  0  0  0  0  0  0  0  0  0  0  0
   -2.9105   -1.6605   -0.4938 H   0  0  0  0  0  0  0  0  0  0  0  0
   -0.6743   -1.4686    0.9857 H   0  0  0  0  0  0  0  0  0  0  0  0
   -2.1548    1.2390    0.8441 H   0  0  0  0  0  0  0  0  0  0  0  0
   -1.9199   -0.9285    3.0010 H   0  0  0  0  0  0  0  0  0  0  0  0
   -2.8255    0.6788    3.1150 H   0  0  0  0  0  0  0  0  0  0  0  0
    1.1306    0.6770   -1.9335 C   0  0  0  0  0  0  0  0  0  0  0  0
    1.1306    0.6770   -0.4112 C   0  0  0  0  0  3  0  0  0  0  0  0
    2.4857   -0.3393    0.2724 S   0  0  0  0  0  0  0  0  0  0  0  0
    1.1306    2.0870    0.1628 C   0  0  0  0  0  0  0  0  0  0  0  0
    1.1020   -0.3372   -2.3302 H   0  0  0  0  0  0  0  0  0  0  0  0
    2.0290    1.1667   -2.3171 H   0  0  0  0  0  0  0  0  0  0  0  0
    0.2637    1.2244   -2.3124 H   0  0  0  0  0  0  0  0  0  0  0  0
    0.0627    0.0451    0.0138 H   0  0  0  0  0  0  0  0  0  0  0  0
    3.4916    0.3965   -0.2225 H   0  0  0  0  0  0  0  0  0  0  0  0
    0.2637    2.6443   -0.2014 H   0  0  0  0  0  0  0  0  0  0  0  0
    2.0290    2.6269   -0.1462 H   0  0  0  0  0  0  0  0  0  0  0  0
    1.1020    2.0720    1.2518 H   0  0  0  0  0  0  0  0  0  0  0  0
  1  2  1  0
  1  5  1  0
  2  3  1  0
  2  6  1  0
  2 17  1  0
  3  4  2  3
  3  7  1  0
  4  8  1  0
  4  9  1  0
 10 11  1  0
 10 14  1  0
 10 15  1  0
 10 16  1  0
 11 13  1  0
 11 12  1  0
 12 18  1  0
 13 19  1  0
 13 20  1  0
 13 21  1  0
M  RAD  1  11   2
M  END
>  <reaction>  (16) 
rxn_1937

>  <mol_properties>  (16) 
{"0": {"label": "*0", "atom_type": "S2s"}, "1": {"label": "*1", "atom_type": "Cs"}, "10": {"label": "*3", "atom_type": "Cs"}, "11": {"label": "*4", "atom_type": "S2s"}, "16": {"label": "*2", "atom_type": "H0"}}

>  <type>  (16) 
unop_12

>  <geom_source>  (16) 
Heuristics

$$$$

     RDKit          3D

 21 19  0  0  0  0  0  0  0  0999 V2000
    1.5029    1.5037    1.2192 S   0  0  0  0  0  0  0  0  0  0  0  0
   -1.9573   -1.6757    1.0118 S   0  0  0  0  0  0  0  0  0  0  0  0
    1.1016    0.2347   -0.0228 C   0  0  0  0  0  3  0  0  0  0  0  0
   -2.0310    1.0683    0.7630 C   0  0  0  0  0  0  0  0  0  0  0  0
   -1.9111   -0.2868   -1.3612 C   0  0  0  0  0  0  0  0  0  0  0  0
   -1.4638   -0.1812    0.0936 C   0  0  0  0  0  0  0  0  0  0  0  0
    2.0861   -0.8954    0.0367 C   0  0  0  0  0  0  0  0  0  0  0  0
    3.3393   -0.7627   -0.4068 C   0  0  0  0  0  0  0  0  0  0  0  0
    1.0866    0.6852   -1.0383 H   0  0  0  0  0  0  0  0  0  0  0  0
   -0.1412   -0.2510    0.2502 H   0  0  0  0  0  0  0  0  0  0  0  0
   -3.1414    1.0334    0.7786 H   0  0  0  0  0  0  0  0  0  0  0  0
   -1.7022    1.9754    0.2134 H   0  0  0  0  0  0  0  0  0  0  0  0
   -1.6557    1.1395    1.8052 H   0  0  0  0  0  0  0  0  0  0  0  0
   -1.5733    0.6065   -1.9278 H   0  0  0  0  0  0  0  0  0  0  0  0
   -3.0177   -0.3634   -1.4259 H   0  0  0  0  0  0  0  0  0  0  0  0
   -1.4572   -1.1864   -1.8273 H   0  0  0  0  0  0  0  0  0  0  0  0
    1.7577   -1.8563    0.4202 H   0  0  0  0  0  0  0  0  0  0  0  0
    4.0220   -1.6051   -0.3636 H   0  0  0  0  0  0  0  0  0  0  0  0
    3.6910    0.1776   -0.8198 H   0  0  0  0  0  0  0  0  0  0  0  0
    2.6027    1.9949    0.4909 H   0  0  0  0  0  0  0  0  0  0  0  0
   -1.1380   -1.3551    2.1107 H   0  0  0  0  0  0  0  0  0  0  0  0
  1  3  1  0
  1 20  1  0
  2  6  1  0
  2 21  1  0
  3  7  1  0
  3  9  1  0
  4  6  1  0
  4 11  1  0
  4 12  1  0
  4 13  1  0
  5  6  1  0
  5 14  1  0
  5 15  1  0
  5 16  1  0
  6 10  1  0
  7  8  2  3
  7 17  1  0
  8 18  1  0
  8 19  1  0
M  RAD  1   3   2
M  END
>  <reaction>  (17) 
rxn_1937

>  <mol_properties>  (17) 
{"0": {"label": "*0", "atom_type": "S2s"}, "1": {"label": "*1", "atom_type": "Cs"}, "10": {"label": "*3", "atom_type": "Cs"}, "11": {"label": "*4", "atom_type": "S2s"}, "16": {"label": "*2", "atom_type": "H0"}}

>  <type>  (17) 
unop_13

>  <geom_source>  (17) 
AutoTST

$$$$
