
     RDKit          3D

  7  6  0  0  0  0  0  0  0  0999 V2000
    1.2985   -0.0065   -0.2721 C   0  0  0  0  0  0  0  0  0  0  0  0
    0.0000    0.0000   -0.2926 C   0  0  0  0  0  0  0  0  0  0  0  0
   -1.2985    0.0065   -0.3130 C   0  0  0  0  0  0  0  0  0  0  0  0
    1.8444   -0.7551    0.2895 H   0  0  0  0  0  0  0  0  0  0  0  0
    1.8693    0.7364   -0.8162 H   0  0  0  0  0  0  0  0  0  0  0  0
   -1.8658    0.5623    0.4239 H   0  0  0  0  0  0  0  0  0  0  0  0
   -1.8479   -0.5437   -1.0675 H   0  0  0  0  0  0  0  0  0  0  0  0
  1  2  2  0
  1  4  1  0
  1  5  1  0
  2  3  2  0
  3  6  1  0
  3  7  1  0
M  END
>  <reaction>  (1) 
rxn_1804

>  <mol_properties>  (1) 
{"0": {"label": "donator", "atom_type": "Cd"}, "3": {"label": "d_hydrogen", "atom_type": "H0"}}

>  <type>  (1) 
r1h

$$$$

     RDKit          3D

 11 10  0  0  0  0  0  0  0  0999 V2000
    1.0781   -1.0166   -0.1159 C   0  0  0  0  0  0  0  0  0  0  0  0
    0.2180    0.1942   -0.2297 C   0  0  0  0  0  3  0  0  0  0  0  0
    0.9343    1.7769   -0.3011 S   0  0  0  0  0  0  0  0  0  0  0  0
   -1.1949    0.1490    0.2439 C   0  0  0  0  0  0  0  0  0  0  0  0
    1.4718   -1.1461    0.9024 H   0  0  0  0  0  0  0  0  0  0  0  0
    1.9367   -0.9751   -0.7902 H   0  0  0  0  0  0  0  0  0  0  0  0
    0.5033   -1.9136   -0.3576 H   0  0  0  0  0  0  0  0  0  0  0  0
    2.1166    1.4195   -0.8209 H   0  0  0  0  0  0  0  0  0  0  0  0
   -1.2620    0.0939    1.3399 H   0  0  0  0  0  0  0  0  0  0  0  0
   -1.7600    1.0270   -0.0739 H   0  0  0  0  0  0  0  0  0  0  0  0
   -1.6972   -0.7380   -0.1506 H   0  0  0  0  0  0  0  0  0  0  0  0
  1  2  1  0
  1  5  1  0
  1  6  1  0
  1  7  1  0
  2  4  1  0
  2  3  1  0
  3  8  1  0
  4  9  1  0
  4 10  1  0
  4 11  1  0
M  RAD  1   2   2
M  END
>  <reaction>  (2) 
rxn_1804

>  <mol_properties>  (2) 
{"1": {"label": "acceptor", "atom_type": "Cs"}}

>  <type>  (2) 
r2

$$$$

     RDKit          3D

 12 11  0  0  0  0  0  0  0  0999 V2000
    1.2394   -0.3763   -0.3020 C   0  0  0  0  0  0  0  0  0  0  0  0
    0.1007    0.3023    0.4464 C   0  0  0  0  0  0  0  0  0  0  0  0
   -0.1187    2.0399   -0.0725 S   0  0  0  0  0  0  0  0  0  0  0  0
   -1.1974   -0.4877    0.3552 C   0  0  0  0  0  0  0  0  0  0  0  0
    2.1681    0.1849   -0.2048 H   0  0  0  0  0  0  0  0  0  0  0  0
    1.0031   -0.4606   -1.3656 H   0  0  0  0  0  0  0  0  0  0  0  0
    1.3994   -1.3856    0.0860 H   0  0  0  0  0  0  0  0  0  0  0  0
    0.3796    0.4050    1.4981 H   0  0  0  0  0  0  0  0  0  0  0  0
   -0.4500    1.7779   -1.3452 H   0  0  0  0  0  0  0  0  0  0  0  0
   -1.0545   -1.4978    0.7479 H   0  0  0  0  0  0  0  0  0  0  0  0
   -1.5206   -0.5759   -0.6849 H   0  0  0  0  0  0  0  0  0  0  0  0
   -1.9957   -0.0054    0.9183 H   0  0  0  0  0  0  0  0  0  0  0  0
  1  2  1  0
  1  5  1  0
  1  6  1  0
  1  7  1  0
  2  4  1  0
  2  3  1  0
  2  8  1  0
  3  9  1  0
  4 10  1  0
  4 11  1  0
  4 12  1  0
M  END
>  <reaction>  (3) 
rxn_1804

>  <mol_properties>  (3) 
{"1": {"label": "acceptor", "atom_type": "Cs"}, "11": {"label": "a_hydrogen", "atom_type": "H0"}}

>  <type>  (3) 
r2h

$$$$

     RDKit          3D

 18 16  0  0  0  0  0  0  0  0999 V2000
    1.2004   -2.0392    0.8032 C   0  0  0  0  0  0  0  0  0  0  0  0
    0.3479   -0.7971    0.6936 C   0  0  0  0  0  0  0  0  0  0  0  0
   -1.1770   -1.1464   -0.1633 S   0  0  0  0  0  0  0  0  0  0  0  0
    0.2126   -0.0001    1.9681 C   0  0  0  0  0  0  0  0  0  0  0  0
    1.3253   -2.5244   -0.1656 H   0  0  0  0  0  0  0  0  0  0  0  0
    0.7590   -2.7622    1.4959 H   0  0  0  0  0  0  0  0  0  0  0  0
    2.1892   -1.7746    1.1828 H   0  0  0  0  0  0  0  0  0  0  0  0
   -1.6804    0.0942   -0.1117 H   0  0  0  0  0  0  0  0  0  0  0  0
    1.2022    0.2425    2.3626 H   0  0  0  0  0  0  0  0  0  0  0  0
   -0.3203    0.9363    1.7965 H   0  0  0  0  0  0  0  0  0  0  0  0
   -0.3300   -0.5682    2.7291 H   0  0  0  0  0  0  0  0  0  0  0  0
    1.6561    0.8715   -0.9326 C   0  0  0  0  0  0  0  0  0  0  0  0
    0.9284    1.3738   -1.8460 C   0  0  0  0  0  0  0  0  0  0  0  0
    0.0873    1.8304   -2.7518 C   0  0  0  0  0  3  0  0  0  0  0  0
    0.9998   -0.0054   -0.1155 H   0  0  0  0  0  0  0  0  0  0  0  0
    2.6962    0.9983   -0.6782 H   0  0  0  0  0  0  0  0  0  0  0  0
   -0.4780    2.7380   -2.5806 H   0  0  0  0  0  0  0  0  0  0  0  0
   -0.0400    1.3206   -3.6984 H   0  0  0  0  0  0  0  0  0  0  0  0
  1  2  1  0
  1  5  1  0
  1  6  1  0
  1  7  1  0
  2  4  1  0
  2  3  1  0
  2 15  1  0
  3  8  1  0
  4  9  1  0
  4 10  1  0
  4 11  1  0
 12 13  3  0
 12 16  1  0
 13 14  1  0
 14 17  1  0
 14 18  1  0
M  RAD  1  14   2
M  END
>  <reaction>  (4) 
rxn_1804

>  <mol_properties>  (4) 
{"1": {"label": "*1", "atom_type": "Cs"}, "2": {"label": "*0", "atom_type": "S2s"}, "11": {"label": "*3", "atom_type": "Ct"}, "12": {"label": "*4", "atom_type": "Ct"}, "14": {"label": "*2", "atom_type": "H0"}}

>  <type>  (4) 
ts

$$$$

     RDKit          3D

 18 16  0  0  0  0  0  0  0  0999 V2000
    0.8507   -1.1939    1.7091 C   0  0  0  0  0  0  0  0  0  0  0  0
   -0.1205   -0.4096    0.8378 C   0  0  0  0  0  3  0  0  0  0  0  0
   -1.5720   -1.4105    0.3603 S   0  0  0  0  0  0  0  0  0  0  0  0
   -0.5248    0.9123    1.4754 C   0  0  0  0  0  0  0  0  0  0  0  0
    1.1531   -2.1235    1.2283 H   0  0  0  0  0  0  0  0  0  0  0  0
    0.3907   -1.4418    2.6689 H   0  0  0  0  0  0  0  0  0  0  0  0
    1.7448   -0.5983    1.9106 H   0  0  0  0  0  0  0  0  0  0  0  0
   -2.0507   -1.5855    1.6006 H   0  0  0  0  0  0  0  0  0  0  0  0
    0.3597    1.5227    1.6753 H   0  0  0  0  0  0  0  0  0  0  0  0
   -1.1970    1.4753    0.8289 H   0  0  0  0  0  0  0  0  0  0  0  0
   -1.0337    0.7395    2.4269 H   0  0  0  0  0  0  0  0  0  0  0  0
    1.2126    1.3881   -0.5083 C   0  0  0  0  0  0  0  0  0  0  0  0
    1.2126    1.3881   -1.8070 C   0  0  0  0  0  0  0  0  0  0  0  0
    1.2126    1.3881   -3.1057 C   0  0  0  0  0  0  0  0  0  0  0  0
    0.5490    0.4932    0.1618 H   0  0  0  0  0  0  0  0  0  0  0  0
    1.7656    2.1339    0.0501 H   0  0  0  0  0  0  0  0  0  0  0  0
    0.4669    1.9411   -3.6641 H   0  0  0  0  0  0  0  0  0  0  0  0
    1.9584    0.8351   -3.6641 H   0  0  0  0  0  0  0  0  0  0  0  0
  1  2  1  0
  1  5  1  0
  1  6  1  0
  1  7  1  0
  2  4  1  0
  2  3  1  0
  3  8  1  0
  4  9  1  0
  4 10  1  0
  4 11  1  0
 12 13  2  0
 12 15  1  0
 12 16  1  0
 13 14  2  0
 14 17  1  0
 14 18  1  0
M  RAD  1   2   2
M  END
>  <reaction>  (5) 
rxn_1804

>  <mol_properties>  (5) 
{"1": {"label": "*1", "atom_type": "Cs"}, "2": {"label": "*0", "atom_type": "S2s"}, "11": {"label": "*3", "atom_type": "Ct"}, "12": {"label": "*4", "atom_type": "Ct"}, "14": {"label": "*2", "atom_type": "H0"}}

>  <type>  (5) 
unop_1

>  <geom_source>  (5) 
Heuristics

$$$$

     RDKit          3D

 18 16  0  0  0  0  0  0  0  0999 V2000
   -0.1792   -1.8531   -0.1216 C   0  0  0  0  0  0  0  0  0  0  0  0
   -0.1229   -0.5682    0.6930 C   0  0  0  0  0  3  0  0  0  0  0  0
   -1.7700   -0.0791    1.3128 S   0  0  0  0  0  0  0  0  0  0  0  0
    0.9078   -0.6420    1.8109 C   0  0  0  0  0  0  0  0  0  0  0  0
   -0.9000   -1.7759   -0.9348 H   0  0  0  0  0  0  0  0  0  0  0  0
   -0.4691   -2.6958    0.5107 H   0  0  0  0  0  0  0  0  0  0  0  0
    0.8032   -2.0758   -0.5461 H   0  0  0  0  0  0  0  0  0  0  0  0
   -1.9633   -1.1519    2.0939 H   0  0  0  0  0  0  0  0  0  0  0  0
    1.8977   -0.8563    1.3999 H   0  0  0  0  0  0  0  0  0  0  0  0
    0.9571    0.2934    2.3672 H   0  0  0  0  0  0  0  0  0  0  0  0
    0.6565   -1.4416    2.5121 H   0  0  0  0  0  0  0  0  0  0  0  0
    1.2102    1.2295   -0.6532 C   0  0  0  0  0  0  0  0  0  0  0  0
    1.2102    1.2295   -1.9518 C   0  0  0  0  0  0  0  0  0  0  0  0
    1.2102    1.2295   -3.2505 C   0  0  0  0  0  0  0  0  0  0  0  0
    0.5466    0.3346    0.0169 H   0  0  0  0  0  0  0  0  0  0  0  0
    1.7632    1.9753   -0.0948 H   0  0  0  0  0  0  0  0  0  0  0  0
    0.4644    1.7825   -3.8089 H   0  0  0  0  0  0  0  0  0  0  0  0
    1.9559    0.6765   -3.8089 H   0  0  0  0  0  0  0  0  0  0  0  0
  1  2  1  0
  1  5  1  0
  1  6  1  0
  1  7  1  0
  2  4  1  0
  2  3  1  0
  3  8  1  0
  4  9  1  0
  4 10  1  0
  4 11  1  0
 12 13  2  0
 12 15  1  0
 12 16  1  0
 13 14  2  0
 14 17  1  0
 14 18  1  0
M  RAD  1   2   2
M  END
>  <reaction>  (6) 
rxn_1804

>  <mol_properties>  (6) 
{"1": {"label": "*1", "atom_type": "Cs"}, "2": {"label": "*0", "atom_type": "S2s"}, "11": {"label": "*3", "atom_type": "Ct"}, "12": {"label": "*4", "atom_type": "Ct"}, "14": {"label": "*2", "atom_type": "H0"}}

>  <type>  (6) 
unop_2

>  <geom_source>  (6) 
Heuristics

$$$$

     RDKit          3D

 18 16  0  0  0  0  0  0  0  0999 V2000
    0.4882   -0.5423    2.2469 C   0  0  0  0  0  0  0  0  0  0  0  0
   -0.2214   -0.2902    0.9239 C   0  0  0  0  0  3  0  0  0  0  0  0
   -0.8575   -1.8345    0.1842 S   0  0  0  0  0  0  0  0  0  0  0  0
   -1.3056    0.7713    1.0471 C   0  0  0  0  0  0  0  0  0  0  0  0
    1.2797   -1.2829    2.1377 H   0  0  0  0  0  0  0  0  0  0  0  0
   -0.2175   -0.9071    2.9972 H   0  0  0  0  0  0  0  0  0  0  0  0
    0.9275    0.3850    2.6239 H   0  0  0  0  0  0  0  0  0  0  0  0
   -1.7259   -2.1257    1.1636 H   0  0  0  0  0  0  0  0  0  0  0  0
   -0.8789    1.7077    1.4156 H   0  0  0  0  0  0  0  0  0  0  0  0
   -1.7853    0.9616    0.0876 H   0  0  0  0  0  0  0  0  0  0  0  0
   -2.0752    0.4532    1.7547 H   0  0  0  0  0  0  0  0  0  0  0  0
    1.1117    1.5076   -0.4223 C   0  0  0  0  0  0  0  0  0  0  0  0
    1.1117    1.5076   -1.7209 C   0  0  0  0  0  0  0  0  0  0  0  0
    1.1117    1.5076   -3.0196 C   0  0  0  0  0  0  0  0  0  0  0  0
    0.4481    0.6126    0.2478 H   0  0  0  0  0  0  0  0  0  0  0  0
    1.6647    2.2533    0.1362 H   0  0  0  0  0  0  0  0  0  0  0  0
    0.3659    2.0606   -3.5780 H   0  0  0  0  0  0  0  0  0  0  0  0
    1.8575    0.9546   -3.5780 H   0  0  0  0  0  0  0  0  0  0  0  0
  1  2  1  0
  1  5  1  0
  1  6  1  0
  1  7  1  0
  2  4  1  0
  2  3  1  0
  3  8  1  0
  4  9  1  0
  4 10  1  0
  4 11  1  0
 12 13  2  0
 12 15  1  0
 12 16  1  0
 13 14  2  0
 14 17  1  0
 14 18  1  0
M  RAD  1   2   2
M  END
>  <reaction>  (7) 
rxn_1804

>  <mol_properties>  (7) 
{"1": {"label": "*1", "atom_type": "Cs"}, "2": {"label": "*0", "atom_type": "S2s"}, "11": {"label": "*3", "atom_type": "Ct"}, "12": {"label": "*4", "atom_type": "Ct"}, "14": {"label": "*2", "atom_type": "H0"}}

>  <type>  (7) 
unop_3

>  <geom_source>  (7) 
Heuristics

$$$$

     RDKit          3D

 18 16  0  0  0  0  0  0  0  0999 V2000
   -1.9218   -0.6952    0.1842 C   0  0  0  0  0  0  0  0  0  0  0  0
   -0.4471   -0.8005    0.5470 C   0  0  0  0  0  3  0  0  0  0  0  0
    0.0442    0.4528    1.7817 S   0  0  0  0  0  0  0  0  0  0  0  0
   -0.0614   -2.2082    0.9795 C   0  0  0  0  0  0  0  0  0  0  0  0
   -2.1773    0.3097   -0.1502 H   0  0  0  0  0  0  0  0  0  0  0  0
   -2.5473   -0.9355    1.0474 H   0  0  0  0  0  0  0  0  0  0  0  0
   -2.1670   -1.4013   -0.6135 H   0  0  0  0  0  0  0  0  0  0  0  0
   -0.7420    0.0067    2.7722 H   0  0  0  0  0  0  0  0  0  0  0  0
   -0.2936   -2.9248    0.1874 H   0  0  0  0  0  0  0  0  0  0  0  0
    1.0015   -2.2755    1.2088 H   0  0  0  0  0  0  0  0  0  0  0  0
   -0.6207   -2.5024    1.8710 H   0  0  0  0  0  0  0  0  0  0  0  0
    0.8860    0.9972   -0.7991 C   0  0  0  0  0  0  0  0  0  0  0  0
    0.8860    0.9972   -2.0978 C   0  0  0  0  0  0  0  0  0  0  0  0
    0.8860    0.9972   -3.3965 C   0  0  0  0  0  0  0  0  0  0  0  0
    0.2224    0.1023   -0.1290 H   0  0  0  0  0  0  0  0  0  0  0  0
    1.4390    1.7430   -0.2407 H   0  0  0  0  0  0  0  0  0  0  0  0
    0.1402    1.5503   -3.9549 H   0  0  0  0  0  0  0  0  0  0  0  0
    1.6317    0.4442   -3.9549 H   0  0  0  0  0  0  0  0  0  0  0  0
  1  2  1  0
  1  5  1  0
  1  6  1  0
  1  7  1  0
  2  4  1  0
  2  3  1  0
  3  8  1  0
  4  9  1  0
  4 10  1  0
  4 11  1  0
 12 13  2  0
 12 15  1  0
 12 16  1  0
 13 14  2  0
 14 17  1  0
 14 18  1  0
M  RAD  1   2   2
M  END
>  <reaction>  (8) 
rxn_1804

>  <mol_properties>  (8) 
{"1": {"label": "*1", "atom_type": "Cs"}, "2": {"label": "*0", "atom_type": "S2s"}, "11": {"label": "*3", "atom_type": "Ct"}, "12": {"label": "*4", "atom_type": "Ct"}, "14": {"label": "*2", "atom_type": "H0"}}

>  <type>  (8) 
unop_4

>  <geom_source>  (8) 
Heuristics

$$$$

     RDKit          3D

 18 16  0  0  0  0  0  0  0  0999 V2000
   -0.3182    0.0422    2.4055 C   0  0  0  0  0  0  0  0  0  0  0  0
   -0.5086   -0.2146    0.9171 C   0  0  0  0  0  3  0  0  0  0  0  0
    0.2852   -1.7712    0.3849 S   0  0  0  0  0  0  0  0  0  0  0  0
   -1.9732   -0.1525    0.5066 C   0  0  0  0  0  0  0  0  0  0  0  0
    0.7360    0.0228    2.6797 H   0  0  0  0  0  0  0  0  0  0  0  0
   -0.8368   -0.7177    2.9952 H   0  0  0  0  0  0  0  0  0  0  0  0
   -0.7317    1.0167    2.6777 H   0  0  0  0  0  0  0  0  0  0  0  0
   -0.4723   -2.5903    1.1290 H   0  0  0  0  0  0  0  0  0  0  0  0
   -2.3983    0.8207    0.7656 H   0  0  0  0  0  0  0  0  0  0  0  0
   -2.0919   -0.3098   -0.5649 H   0  0  0  0  0  0  0  0  0  0  0  0
   -2.5508   -0.9193    1.0287 H   0  0  0  0  0  0  0  0  0  0  0  0
    0.8245    1.5832   -0.4290 C   0  0  0  0  0  0  0  0  0  0  0  0
    0.8245    1.5832   -1.7277 C   0  0  0  0  0  0  0  0  0  0  0  0
    0.8245    1.5832   -3.0264 C   0  0  0  0  0  0  0  0  0  0  0  0
    0.1609    0.6883    0.2411 H   0  0  0  0  0  0  0  0  0  0  0  0
    1.3775    2.3289    0.1294 H   0  0  0  0  0  0  0  0  0  0  0  0
    0.0787    2.1362   -3.5848 H   0  0  0  0  0  0  0  0  0  0  0  0
    1.5703    1.0302   -3.5848 H   0  0  0  0  0  0  0  0  0  0  0  0
  1  2  1  0
  1  5  1  0
  1  6  1  0
  1  7  1  0
  2  4  1  0
  2  3  1  0
  3  8  1  0
  4  9  1  0
  4 10  1  0
  4 11  1  0
 12 13  2  0
 12 15  1  0
 12 16  1  0
 13 14  2  0
 14 17  1  0
 14 18  1  0
M  RAD  1   2   2
M  END
>  <reaction>  (9) 
rxn_1804

>  <mol_properties>  (9) 
{"1": {"label": "*1", "atom_type": "Cs"}, "2": {"label": "*0", "atom_type": "S2s"}, "11": {"label": "*3", "atom_type": "Ct"}, "12": {"label": "*4", "atom_type": "Ct"}, "14": {"label": "*2", "atom_type": "H0"}}

>  <type>  (9) 
unop_5

>  <geom_source>  (9) 
Heuristics

$$$$

     RDKit          3D

 18 16  0  0  0  0  0  0  0  0999 V2000
   -2.0402   -0.2067    0.8112 C   0  0  0  0  0  0  0  0  0  0  0  0
   -0.6316   -0.7250    0.5570 C   0  0  0  0  0  3  0  0  0  0  0  0
    0.6061    0.1177    1.6030 S   0  0  0  0  0  0  0  0  0  0  0  0
   -0.5461   -2.2399    0.6814 C   0  0  0  0  0  0  0  0  0  0  0  0
   -2.0926    0.8748    0.6911 H   0  0  0  0  0  0  0  0  0  0  0  0
   -2.3618   -0.4519    1.8264 H   0  0  0  0  0  0  0  0  0  0  0  0
   -2.7454   -0.6696    0.1160 H   0  0  0  0  0  0  0  0  0  0  0  0
    0.1267   -0.3097    2.7802 H   0  0  0  0  0  0  0  0  0  0  0  0
   -1.2409   -2.7169   -0.0147 H   0  0  0  0  0  0  0  0  0  0  0  0
    0.4603   -2.5991    0.4694 H   0  0  0  0  0  0  0  0  0  0  0  0
   -0.8144   -2.5575    1.6920 H   0  0  0  0  0  0  0  0  0  0  0  0
    0.7015    1.0727   -0.7892 C   0  0  0  0  0  0  0  0  0  0  0  0
    0.7015    1.0727   -2.0878 C   0  0  0  0  0  0  0  0  0  0  0  0
    0.7015    1.0727   -3.3865 C   0  0  0  0  0  0  0  0  0  0  0  0
    0.0379    0.1778   -0.1191 H   0  0  0  0  0  0  0  0  0  0  0  0
    1.2545    1.8185   -0.2308 H   0  0  0  0  0  0  0  0  0  0  0  0
   -0.0443    1.6257   -3.9449 H   0  0  0  0  0  0  0  0  0  0  0  0
    1.4473    0.5197   -3.9449 H   0  0  0  0  0  0  0  0  0  0  0  0
  1  2  1  0
  1  5  1  0
  1  6  1  0
  1  7  1  0
  2  4  1  0
  2  3  1  0
  3  8  1  0
  4  9  1  0
  4 10  1  0
  4 11  1  0
 12 13  2  0
 12 15  1  0
 12 16  1  0
 13 14  2  0
 14 17  1  0
 14 18  1  0
M  RAD  1   2   2
M  END
>  <reaction>  (10) 
rxn_1804

>  <mol_properties>  (10) 
{"1": {"label": "*1", "atom_type": "Cs"}, "2": {"label": "*0", "atom_type": "S2s"}, "11": {"label": "*3", "atom_type": "Ct"}, "12": {"label": "*4", "atom_type": "Ct"}, "14": {"label": "*2", "atom_type": "H0"}}

>  <type>  (10) 
unop_6

>  <geom_source>  (10) 
Heuristics

$$$$

     RDKit          3D

 18 16  0  0  0  0  0  0  0  0999 V2000
   -1.7898    0.1295    1.5068 C   0  0  0  0  0  0  0  0  0  0  0  0
   -0.7572   -0.5720    0.6355 C   0  0  0  0  0  3  0  0  0  0  0  0
    0.9376   -0.3688    1.2858 S   0  0  0  0  0  0  0  0  0  0  0  0
   -1.1049   -2.0351    0.3985 C   0  0  0  0  0  0  0  0  0  0  0  0
   -1.5434    1.1817    1.6446 H   0  0  0  0  0  0  0  0  0  0  0  0
   -1.8420   -0.3392    2.4925 H   0  0  0  0  0  0  0  0  0  0  0  0
   -2.7806    0.0599    1.0505 H   0  0  0  0  0  0  0  0  0  0  0  0
    0.7373   -1.0228    2.4393 H   0  0  0  0  0  0  0  0  0  0  0  0
   -2.0909   -2.1197   -0.0656 H   0  0  0  0  0  0  0  0  0  0  0  0
   -0.3731   -2.5167   -0.2492 H   0  0  0  0  0  0  0  0  0  0  0  0
   -1.1326   -2.5809    1.3447 H   0  0  0  0  0  0  0  0  0  0  0  0
    0.5759    1.2257   -0.7107 C   0  0  0  0  0  0  0  0  0  0  0  0
    0.5759    1.2257   -2.0093 C   0  0  0  0  0  0  0  0  0  0  0  0
    0.5759    1.2257   -3.3080 C   0  0  0  0  0  0  0  0  0  0  0  0
   -0.0877    0.3308   -0.0406 H   0  0  0  0  0  0  0  0  0  0  0  0
    1.1289    1.9715   -0.1522 H   0  0  0  0  0  0  0  0  0  0  0  0
   -0.1699    1.7787   -3.8664 H   0  0  0  0  0  0  0  0  0  0  0  0
    1.3216    0.6727   -3.8664 H   0  0  0  0  0  0  0  0  0  0  0  0
  1  2  1  0
  1  5  1  0
  1  6  1  0
  1  7  1  0
  2  4  1  0
  2  3  1  0
  3  8  1  0
  4  9  1  0
  4 10  1  0
  4 11  1  0
 12 13  2  0
 12 15  1  0
 12 16  1  0
 13 14  2  0
 14 17  1  0
 14 18  1  0
M  RAD  1   2   2
M  END
>  <reaction>  (11) 
rxn_1804

>  <mol_properties>  (11) 
{"1": {"label": "*1", "atom_type": "Cs"}, "2": {"label": "*0", "atom_type": "S2s"}, "11": {"label": "*3", "atom_type": "Ct"}, "12": {"label": "*4", "atom_type": "Ct"}, "14": {"label": "*2", "atom_type": "H0"}}

>  <type>  (11) 
unop_7

>  <geom_source>  (11) 
Heuristics

$$$$

     RDKit          3D

 18 16  0  0  0  0  0  0  0  0999 V2000
    0.7907   -1.6699    1.0140 C   0  0  0  0  0  0  0  0  0  0  0  0
   -0.1143   -0.4725    0.7598 C   0  0  0  0  0  3  0  0  0  0  0  0
   -1.8749   -0.9520    0.6753 S   0  0  0  0  0  0  0  0  0  0  0  0
    0.1232    0.6494    1.7610 C   0  0  0  0  0  0  0  0  0  0  0  0
    0.6300   -2.4529    0.2738 H   0  0  0  0  0  0  0  0  0  0  0  0
    0.5987   -2.0928    2.0032 H   0  0  0  0  0  0  0  0  0  0  0  0
    1.8401   -1.3659    0.9782 H   0  0  0  0  0  0  0  0  0  0  0  0
   -1.9746   -1.3879    1.9395 H   0  0  0  0  0  0  0  0  0  0  0  0
    1.1679    0.9696    1.7304 H   0  0  0  0  0  0  0  0  0  0  0  0
   -0.5107    1.5100    1.5500 H   0  0  0  0  0  0  0  0  0  0  0  0
   -0.0927    0.3092    2.7767 H   0  0  0  0  0  0  0  0  0  0  0  0
    1.2188    1.3252   -0.5864 C   0  0  0  0  0  0  0  0  0  0  0  0
    1.2188    1.3252   -1.8850 C   0  0  0  0  0  0  0  0  0  0  0  0
    1.2188    1.3252   -3.1837 C   0  0  0  0  0  0  0  0  0  0  0  0
    0.5551    0.4303    0.0838 H   0  0  0  0  0  0  0  0  0  0  0  0
    1.7718    2.0710   -0.0279 H   0  0  0  0  0  0  0  0  0  0  0  0
    0.4730    1.8782   -3.7421 H   0  0  0  0  0  0  0  0  0  0  0  0
    1.9645    0.7722   -3.7421 H   0  0  0  0  0  0  0  0  0  0  0  0
  1  2  1  0
  1  5  1  0
  1  6  1  0
  1  7  1  0
  2  4  1  0
  2  3  1  0
  3  8  1  0
  4  9  1  0
  4 10  1  0
  4 11  1  0
 12 13  2  0
 12 15  1  0
 12 16  1  0
 13 14  2  0
 14 17  1  0
 14 18  1  0
M  RAD  1   2   2
M  END
>  <reaction>  (12) 
rxn_1804

>  <mol_properties>  (12) 
{"1": {"label": "*1", "atom_type": "Cs"}, "2": {"label": "*0", "atom_type": "S2s"}, "11": {"label": "*3", "atom_type": "Ct"}, "12": {"label": "*4", "atom_type": "Ct"}, "14": {"label": "*2", "atom_type": "H0"}}

>  <type>  (12) 
unop_8

>  <geom_source>  (12) 
Heuristics

$$$$

     RDKit          3D

 18 16  0  0  0  0  0  0  0  0999 V2000
   -1.4787   -1.2059   -0.2225 C   0  0  0  0  0  0  0  0  0  0  0  0
   -0.2656   -0.7789    0.5920 C   0  0  0  0  0  3  0  0  0  0  0  0
   -0.6706    0.5532    1.7744 S   0  0  0  0  0  0  0  0  0  0  0  0
    0.4124   -1.9592    1.2738 C   0  0  0  0  0  0  0  0  0  0  0  0
   -1.9368   -0.3559   -0.7272 H   0  0  0  0  0  0  0  0  0  0  0  0
   -2.2321   -1.6643    0.4228 H   0  0  0  0  0  0  0  0  0  0  0  0
   -1.1890   -1.9438   -0.9751 H   0  0  0  0  0  0  0  0  0  0  0  0
   -1.5369   -0.1564    2.5121 H   0  0  0  0  0  0  0  0  0  0  0  0
    0.7153   -2.7024    0.5317 H   0  0  0  0  0  0  0  0  0  0  0  0
    1.2945   -1.6430    1.8295 H   0  0  0  0  0  0  0  0  0  0  0  0
   -0.2735   -2.4445    1.9724 H   0  0  0  0  0  0  0  0  0  0  0  0
    1.0675    1.0188   -0.7541 C   0  0  0  0  0  0  0  0  0  0  0  0
    1.0675    1.0188   -2.0528 C   0  0  0  0  0  0  0  0  0  0  0  0
    1.0675    1.0188   -3.3514 C   0  0  0  0  0  0  0  0  0  0  0  0
    0.4039    0.1239   -0.0840 H   0  0  0  0  0  0  0  0  0  0  0  0
    1.6205    1.7646   -0.1957 H   0  0  0  0  0  0  0  0  0  0  0  0
    0.3217    1.5719   -3.9098 H   0  0  0  0  0  0  0  0  0  0  0  0
    1.8132    0.4658   -3.9098 H   0  0  0  0  0  0  0  0  0  0  0  0
  1  2  1  0
  1  5  1  0
  1  6  1  0
  1  7  1  0
  2  4  1  0
  2  3  1  0
  3  8  1  0
  4  9  1  0
  4 10  1  0
  4 11  1  0
 12 13  2  0
 12 15  1  0
 12 16  1  0
 13 14  2  0
 14 17  1  0
 14 18  1  0
M  RAD  1   2   2
M  END
>  <reaction>  (13) 
rxn_1804

>  <mol_properties>  (13) 
{"1": {"label": "*1", "atom_type": "Cs"}, "2": {"label": "*0", "atom_type": "S2s"}, "11": {"label": "*3", "atom_type": "Ct"}, "12": {"label": "*4", "atom_type": "Ct"}, "14": {"label": "*2", "atom_type": "H0"}}

>  <type>  (13) 
unop_9

>  <geom_source>  (13) 
Heuristics

$$$$

     RDKit          3D

 18 16  0  0  0  0  0  0  0  0999 V2000
    0.4060   -1.8889    0.3539 C   0  0  0  0  0  0  0  0  0  0  0  0
   -0.1230   -0.5083    0.7168 C   0  0  0  0  0  3  0  0  0  0  0  0
   -1.9267   -0.5214    1.0050 S   0  0  0  0  0  0  0  0  0  0  0  0
    0.6359    0.1089    1.8832 C   0  0  0  0  0  0  0  0  0  0  0  0
   -0.1271   -2.3063   -0.4996 H   0  0  0  0  0  0  0  0  0  0  0  0
    0.2919   -2.5768    1.1954 H   0  0  0  0  0  0  0  0  0  0  0  0
    1.4697   -1.8345    0.1083 H   0  0  0  0  0  0  0  0  0  0  0  0
   -1.9048   -1.3380    2.0685 H   0  0  0  0  0  0  0  0  0  0  0  0
    1.7012    0.1773    1.6483 H   0  0  0  0  0  0  0  0  0  0  0  0
    0.2657    1.1073    2.1134 H   0  0  0  0  0  0  0  0  0  0  0  0
    0.5300   -0.5078    2.7791 H   0  0  0  0  0  0  0  0  0  0  0  0
    1.2101    1.2894   -0.6293 C   0  0  0  0  0  0  0  0  0  0  0  0
    1.2101    1.2894   -1.9280 C   0  0  0  0  0  0  0  0  0  0  0  0
    1.2101    1.2894   -3.2267 C   0  0  0  0  0  0  0  0  0  0  0  0
    0.5465    0.3945    0.0408 H   0  0  0  0  0  0  0  0  0  0  0  0
    1.7631    2.0352   -0.0709 H   0  0  0  0  0  0  0  0  0  0  0  0
    0.4643    1.8424   -3.7851 H   0  0  0  0  0  0  0  0  0  0  0  0
    1.9558    0.7364   -3.7851 H   0  0  0  0  0  0  0  0  0  0  0  0
  1  2  1  0
  1  5  1  0
  1  6  1  0
  1  7  1  0
  2  4  1  0
  2  3  1  0
  3  8  1  0
  4  9  1  0
  4 10  1  0
  4 11  1  0
 12 13  2  0
 12 15  1  0
 12 16  1  0
 13 14  2  0
 14 17  1  0
 14 18  1  0
M  RAD  1   2   2
M  END
>  <reaction>  (14) 
rxn_1804

>  <mol_properties>  (14) 
{"1": {"label": "*1", "atom_type": "Cs"}, "2": {"label": "*0", "atom_type": "S2s"}, "11": {"label": "*3", "atom_type": "Ct"}, "12": {"label": "*4", "atom_type": "Ct"}, "14": {"label": "*2", "atom_type": "H0"}}

>  <type>  (14) 
unop_10

>  <geom_source>  (14) 
Heuristics

$$$$

     RDKit          3D

 18 16  0  0  0  0  0  0  0  0999 V2000
   -1.1973    0.2394    2.0976 C   0  0  0  0  0  0  0  0  0  0  0  0
   -0.7500   -0.3663    0.7746 C   0  0  0  0  0  3  0  0  0  0  0  0
    0.9484   -1.0321    0.8670 S   0  0  0  0  0  0  0  0  0  0  0  0
   -1.7392   -1.3991    0.2525 C   0  0  0  0  0  0  0  0  0  0  0  0
   -0.4950    0.9964    2.4449 H   0  0  0  0  0  0  0  0  0  0  0  0
   -1.2726   -0.5328    2.8671 H   0  0  0  0  0  0  0  0  0  0  0  0
   -2.1823    0.7008    1.9893 H   0  0  0  0  0  0  0  0  0  0  0  0
    0.6914   -1.9778    1.7823 H   0  0  0  0  0  0  0  0  0  0  0  0
   -2.7279   -0.9491    0.1313 H   0  0  0  0  0  0  0  0  0  0  0  0
   -1.4208   -1.8032   -0.7078 H   0  0  0  0  0  0  0  0  0  0  0  0
   -1.8338   -2.2297    0.9563 H   0  0  0  0  0  0  0  0  0  0  0  0
    0.5831    1.4314   -0.5715 C   0  0  0  0  0  0  0  0  0  0  0  0
    0.5831    1.4314   -1.8702 C   0  0  0  0  0  0  0  0  0  0  0  0
    0.5831    1.4314   -3.1689 C   0  0  0  0  0  0  0  0  0  0  0  0
   -0.0806    0.5365    0.0986 H   0  0  0  0  0  0  0  0  0  0  0  0
    1.1361    2.1772   -0.0131 H   0  0  0  0  0  0  0  0  0  0  0  0
   -0.1627    1.9844   -3.7273 H   0  0  0  0  0  0  0  0  0  0  0  0
    1.3288    0.8784   -3.7273 H   0  0  0  0  0  0  0  0  0  0  0  0
  1  2  1  0
  1  5  1  0
  1  6  1  0
  1  7  1  0
  2  4  1  0
  2  3  1  0
  3  8  1  0
  4  9  1  0
  4 10  1  0
  4 11  1  0
 12 13  2  0
 12 15  1  0
 12 16  1  0
 13 14  2  0
 14 17  1  0
 14 18  1  0
M  RAD  1   2   2
M  END
>  <reaction>  (15) 
rxn_1804

>  <mol_properties>  (15) 
{"1": {"label": "*1", "atom_type": "Cs"}, "2": {"label": "*0", "atom_type": "S2s"}, "11": {"label": "*3", "atom_type": "Ct"}, "12": {"label": "*4", "atom_type": "Ct"}, "14": {"label": "*2", "atom_type": "H0"}}

>  <type>  (15) 
unop_11

>  <geom_source>  (15) 
Heuristics

$$$$

     RDKit          3D

 18 16  0  0  0  0  0  0  0  0999 V2000
   -0.8459   -1.6121   -0.3263 C   0  0  0  0  0  0  0  0  0  0  0  0
   -0.1520   -0.6763    0.6536 C   0  0  0  0  0  3  0  0  0  0  0  0
   -1.3460    0.3407    1.5900 S   0  0  0  0  0  0  0  0  0  0  0  0
    0.8091   -1.4174    1.5726 C   0  0  0  0  0  0  0  0  0  0  0  0
   -1.5087   -1.0649   -0.9957 H   0  0  0  0  0  0  0  0  0  0  0  0
   -1.4418   -2.3551    0.2093 H   0  0  0  0  0  0  0  0  0  0  0  0
   -0.1063   -2.1469   -0.9278 H   0  0  0  0  0  0  0  0  0  0  0  0
   -1.9503   -0.6766    2.2210 H   0  0  0  0  0  0  0  0  0  0  0  0
    1.5602   -1.9509    0.9844 H   0  0  0  0  0  0  0  0  0  0  0  0
    1.3191   -0.7323    2.2489 H   0  0  0  0  0  0  0  0  0  0  0  0
    0.2722   -2.1535    2.1759 H   0  0  0  0  0  0  0  0  0  0  0  0
    1.1811    1.1215   -0.6925 C   0  0  0  0  0  0  0  0  0  0  0  0
    1.1811    1.1215   -1.9912 C   0  0  0  0  0  0  0  0  0  0  0  0
    1.1811    1.1215   -3.2898 C   0  0  0  0  0  0  0  0  0  0  0  0
    0.5175    0.2265   -0.0224 H   0  0  0  0  0  0  0  0  0  0  0  0
    1.7341    1.8672   -0.1341 H   0  0  0  0  0  0  0  0  0  0  0  0
    0.4353    1.6745   -3.8483 H   0  0  0  0  0  0  0  0  0  0  0  0
    1.9269    0.5685   -3.8483 H   0  0  0  0  0  0  0  0  0  0  0  0
  1  2  1  0
  1  5  1  0
  1  6  1  0
  1  7  1  0
  2  4  1  0
  2  3  1  0
  3  8  1  0
  4  9  1  0
  4 10  1  0
  4 11  1  0
 12 13  2  0
 12 15  1  0
 12 16  1  0
 13 14  2  0
 14 17  1  0
 14 18  1  0
M  RAD  1   2   2
M  END
>  <reaction>  (16) 
rxn_1804

>  <mol_properties>  (16) 
{"1": {"label": "*1", "atom_type": "Cs"}, "2": {"label": "*0", "atom_type": "S2s"}, "11": {"label": "*3", "atom_type": "Ct"}, "12": {"label": "*4", "atom_type": "Ct"}, "14": {"label": "*2", "atom_type": "H0"}}

>  <type>  (16) 
unop_12

>  <geom_source>  (16) 
Heuristics

$$$$

     RDKit          3D

 18 16  0  0  0  0  0  0  0  0999 V2000
   -0.5108   -1.8340   -0.6346 S   0  0  0  0  0  0  0  0  0  0  0  0
   -0.9669   -0.1198   -0.2144 C   0  0  0  0  0  3  0  0  0  0  0  0
   -1.4881   -0.0521    1.2201 C   0  0  0  0  0  0  0  0  0  0  0  0
   -2.0138    0.3905   -1.2017 C   0  0  0  0  0  0  0  0  0  0  0  0
    3.3585   -0.3803    0.4745 C   0  0  0  0  0  0  0  0  0  0  0  0
    2.3665    0.2239   -0.1150 C   0  0  0  0  0  0  0  0  0  0  0  0
    1.3745    0.8282   -0.7044 C   0  0  0  0  0  0  0  0  0  0  0  0
    0.1672    0.6800   -0.3179 H   0  0  0  0  0  0  0  0  0  0  0  0
   -0.7021   -0.3976    1.9239 H   0  0  0  0  0  0  0  0  0  0  0  0
   -1.7505    0.9951    1.4807 H   0  0  0  0  0  0  0  0  0  0  0  0
   -2.3878   -0.6930    1.3405 H   0  0  0  0  0  0  0  0  0  0  0  0
   -2.9345   -0.2297   -1.1524 H   0  0  0  0  0  0  0  0  0  0  0  0
   -2.2731    1.4453   -0.9702 H   0  0  0  0  0  0  0  0  0  0  0  0
   -1.6066    0.3510   -2.2340 H   0  0  0  0  0  0  0  0  0  0  0  0
    3.4906   -1.4468    0.3538 H   0  0  0  0  0  0  0  0  0  0  0  0
    4.0500    0.1846    1.0846 H   0  0  0  0  0  0  0  0  0  0  0  0
    0.5831   -1.8403    0.2518 H   0  0  0  0  0  0  0  0  0  0  0  0
    1.2438    1.8951   -0.5852 H   0  0  0  0  0  0  0  0  0  0  0  0
  1  2  1  0
  1 17  1  0
  2  3  1  0
  2  4  1  0
  3  9  1  0
  3 10  1  0
  3 11  1  0
  4 12  1  0
  4 13  1  0
  4 14  1  0
  5  6  2  0
  5 15  1  0
  5 16  1  0
  6  7  2  0
  7  8  1  0
  7 18  1  0
M  RAD  1   2   2
M  END
>  <reaction>  (17) 
rxn_1804

>  <mol_properties>  (17) 
{"1": {"label": "*1", "atom_type": "Cs"}, "2": {"label": "*0", "atom_type": "S2s"}, "11": {"label": "*3", "atom_type": "Ct"}, "12": {"label": "*4", "atom_type": "Ct"}, "14": {"label": "*2", "atom_type": "H0"}}

>  <type>  (17) 
unop_13

>  <geom_source>  (17) 
AutoTST

$$$$
