
     RDKit          3D

 12 12  0  0  0  0  0  0  0  0999 V2000
    1.0263    0.3220    0.1403 C   0  0  0  0  0  0  0  0  0  0  0  0
    0.3367   -0.9245   -0.4566 C   0  0  0  0  0  0  0  0  0  0  0  0
   -1.0039   -0.3982    0.1015 C   0  0  0  0  0  0  0  0  0  0  0  0
   -0.3591    1.0008    0.2148 C   0  0  0  0  0  0  0  0  0  0  0  0
    1.8001    0.8085   -0.4529 H   0  0  0  0  0  0  0  0  0  0  0  0
    1.4249    0.1191    1.1354 H   0  0  0  0  0  0  0  0  0  0  0  0
    0.6778   -1.9039   -0.1222 H   0  0  0  0  0  0  0  0  0  0  0  0
    0.3502   -0.9038   -1.5473 H   0  0  0  0  0  0  0  0  0  0  0  0
   -1.2191   -0.8189    1.0849 H   0  0  0  0  0  0  0  0  0  0  0  0
   -1.8907   -0.5008   -0.5234 H   0  0  0  0  0  0  0  0  0  0  0  0
   -0.5561    1.6037   -0.6729 H   0  0  0  0  0  0  0  0  0  0  0  0
   -0.5872    1.5962    1.0984 H   0  0  0  0  0  0  0  0  0  0  0  0
  1  2  1  0
  1  4  1  0
  1  5  1  0
  1  6  1  0
  2  3  1  0
  2  7  1  0
  2  8  1  0
  3  4  1  0
  3  9  1  0
  3 10  1  0
  4 11  1  0
  4 12  1  0
M  END
>  <reaction>  (1) 
rxn_153

>  <mol_properties>  (1) 
{"1": {"label": "donator", "atom_type": "Cs"}, "6": {"label": "d_hydrogen", "atom_type": "H0"}}

>  <type>  (1) 
r1h

$$$$

     RDKit          3D

  1  0  0  0  0  0  0  0  0  0999 V2000
    0.0000    0.0000    0.0000 Cl  0  0  0  0  0 15  0  0  0  0  0  0
M  END
>  <reaction>  (2) 
rxn_153

>  <mol_properties>  (2) 
{"0": {"label": "acceptor", "atom_type": "Cl1s"}}

>  <type>  (2) 
r2

$$$$

     RDKit          3D

  2  1  0  0  0  0  0  0  0  0999 V2000
    0.0000    0.0000    0.6391 Cl  0  0  0  0  0  0  0  0  0  0  0  0
    0.0000    0.0000   -0.6391 H   0  0  0  0  0  0  0  0  0  0  0  0
  1  2  1  0
M  END
>  <reaction>  (3) 
rxn_153

>  <mol_properties>  (3) 
{"0": {"label": "acceptor", "atom_type": "Cl1s"}, "1": {"label": "a_hydrogen", "atom_type": "H0"}}

>  <type>  (3) 
r2h

$$$$

     RDKit          3D

 13 12  0  0  0  0  0  0  0  0999 V2000
    1.1366   -1.4393    1.0257 Cl  0  0  0  0  0 15  0  0  0  0  0  0
   -0.7863    0.2578   -1.5596 C   0  0  0  0  0  0  0  0  0  0  0  0
   -0.8330    0.3292   -0.0466 C   0  0  0  0  0  0  0  0  0  0  0  0
   -0.2847    1.7419   -0.0332 C   0  0  0  0  0  0  0  0  0  0  0  0
   -0.5978    1.7988   -1.5527 C   0  0  0  0  0  0  0  0  0  0  0  0
   -1.6640   -0.1498   -2.0589 H   0  0  0  0  0  0  0  0  0  0  0  0
    0.0998   -0.2636   -1.9256 H   0  0  0  0  0  0  0  0  0  0  0  0
    0.0994   -0.5510    0.5028 H   0  0  0  0  0  0  0  0  0  0  0  0
   -1.7232    0.0542    0.5132 H   0  0  0  0  0  0  0  0  0  0  0  0
    0.7875    1.7715    0.1674 H   0  0  0  0  0  0  0  0  0  0  0  0
   -0.7835    2.4556    0.6208 H   0  0  0  0  0  0  0  0  0  0  0  0
   -1.5316    2.3213   -1.7540 H   0  0  0  0  0  0  0  0  0  0  0  0
    0.1845    2.1966   -2.1966 H   0  0  0  0  0  0  0  0  0  0  0  0
  2  3  1  0
  2  5  1  0
  2  6  1  0
  2  7  1  0
  3  4  1  0
  3  8  1  0
  3  9  1  0
  4  5  1  0
  4 10  1  0
  4 11  1  0
  5 12  1  0
  5 13  1  0
M  END
>  <reaction>  (4) 
rxn_153

>  <mol_properties>  (4) 
{"0": {"label": "*3", "atom_type": "Cl1s"}, "1": {"label": "*0", "atom_type": "Cs"}, "2": {"label": "*1", "atom_type": "Cs"}, "7": {"label": "*2", "atom_type": "H0"}}

>  <type>  (4) 
ts

$$$$

     RDKit          3D

 13 12  0  0  0  0  0  0  0  0999 V2000
    0.9243   -1.6405    1.2918 Cl  0  0  0  0  0 15  0  0  0  0  0  0
   -0.7026    0.2743   -1.5799 C   0  0  0  0  0  0  0  0  0  0  0  0
   -0.7026    0.2743   -0.0353 C   0  0  0  0  0  0  0  0  0  0  0  0
   -0.2072    1.7367   -0.0772 C   0  0  0  0  0  0  0  0  0  0  0  0
   -0.7026    1.8183   -1.5379 C   0  0  0  0  0  0  0  0  0  0  0  0
   -1.5291   -0.2210   -2.0888 H   0  0  0  0  0  0  0  0  0  0  0  0
    0.2358   -0.1138   -1.9786 H   0  0  0  0  0  0  0  0  0  0  0  0
    0.0460   -0.6068    0.5754 H   0  0  0  0  0  0  0  0  0  0  0  0
   -1.7160    0.2078    0.3635 H   0  0  0  0  0  0  0  0  0  0  0  0
    0.8810    1.7908   -0.0216 H   0  0  0  0  0  0  0  0  0  0  0  0
   -0.6285    2.4375    0.6429 H   0  0  0  0  0  0  0  0  0  0  0  0
   -1.7160    2.2187   -1.5935 H   0  0  0  0  0  0  0  0  0  0  0  0
   -0.0787    2.3469   -2.2581 H   0  0  0  0  0  0  0  0  0  0  0  0
  2  3  1  0
  2  5  1  0
  2  6  1  0
  2  7  1  0
  3  4  1  0
  3  8  1  0
  3  9  1  0
  4  5  1  0
  4 10  1  0
  4 11  1  0
  5 12  1  0
  5 13  1  0
M  END
>  <reaction>  (5) 
rxn_153

>  <mol_properties>  (5) 
{"0": {"label": "*3", "atom_type": "Cl1s"}, "1": {"label": "*0", "atom_type": "Cs"}, "2": {"label": "*1", "atom_type": "Cs"}, "7": {"label": "*2", "atom_type": "H0"}}

>  <type>  (5) 
unop_1

>  <geom_source>  (5) 
Heuristics

$$$$
