
     RDKit          3D

 15 14  0  0  0  0  0  0  0  0999 V2000
    2.1256    0.4849   -0.6284 C   0  0  0  0  0  0  0  0  0  0  0  0
    1.1128    0.2141    0.1794 C   0  0  0  0  0  0  0  0  0  0  0  0
   -0.3017   -0.0425   -0.2513 C   0  0  0  0  0  0  0  0  0  0  0  0
   -1.2427    1.0075    0.3423 C   0  0  0  0  0  0  0  0  0  0  0  0
   -0.7381   -1.4526    0.1504 C   0  0  0  0  0  0  0  0  0  0  0  0
    3.1243    0.6602   -0.2486 H   0  0  0  0  0  0  0  0  0  0  0  0
    1.9908    0.5411   -1.7036 H   0  0  0  0  0  0  0  0  0  0  0  0
    1.2888    0.1665    1.2533 H   0  0  0  0  0  0  0  0  0  0  0  0
   -0.3426    0.0343   -1.3424 H   0  0  0  0  0  0  0  0  0  0  0  0
   -0.9570    2.0133    0.0315 H   0  0  0  0  0  0  0  0  0  0  0  0
   -1.2189    0.9728    1.4350 H   0  0  0  0  0  0  0  0  0  0  0  0
   -2.2723    0.8287    0.0254 H   0  0  0  0  0  0  0  0  0  0  0  0
   -0.6964   -1.5744    1.2363 H   0  0  0  0  0  0  0  0  0  0  0  0
   -0.0911   -2.2079   -0.2978 H   0  0  0  0  0  0  0  0  0  0  0  0
   -1.7646   -1.6461   -0.1677 H   0  0  0  0  0  0  0  0  0  0  0  0
  1  2  2  3
  1  6  1  0
  1  7  1  0
  2  3  1  0
  2  8  1  0
  3  4  1  0
  3  5  1  0
  3  9  1  0
  4 10  1  0
  4 11  1  0
  4 12  1  0
  5 13  1  0
  5 14  1  0
  5 15  1  0
M  END
>  <reaction>  (1) 
rxn_1093

>  <mol_properties>  (1) 
{"2": {"label": "donator", "atom_type": "Cs"}, "8": {"label": "d_hydrogen", "atom_type": "H0"}}

>  <type>  (1) 
r1h

$$$$

     RDKit          3D

  8  7  0  0  0  0  0  0  0  0999 V2000
   -2.2129    0.4855    0.7390 C   0  0  0  0  0  0  0  0  0  0  0  0
   -1.2226    0.0526    0.1974 C   0  0  0  0  0  0  0  0  0  0  0  0
   -0.1006   -0.4575   -0.4419 C   0  0  0  0  0  3  0  0  0  0  0  0
    1.1960   -0.1737   -0.0342 C   0  0  0  0  0  0  0  0  0  0  0  0
    2.3329    0.0603    0.3036 C   0  0  0  0  0  0  0  0  0  0  0  0
   -3.0803    0.8696    1.2198 H   0  0  0  0  0  0  0  0  0  0  0  0
   -0.2433   -1.1067   -1.2980 H   0  0  0  0  0  0  0  0  0  0  0  0
    3.3308    0.2700    0.6058 H   0  0  0  0  0  0  0  0  0  0  0  0
  1  2  3  0
  1  6  1  0
  2  3  1  0
  3  4  1  0
  3  7  1  0
  4  5  3  0
  5  8  1  0
M  RAD  1   3   2
M  END
>  <reaction>  (2) 
rxn_1093

>  <mol_properties>  (2) 
{"2": {"label": "acceptor", "atom_type": "Cs"}}

>  <type>  (2) 
r2

$$$$

     RDKit          3D

  9  8  0  0  0  0  0  0  0  0999 V2000
   -2.1022   -0.6873    0.3932 C   0  0  0  0  0  0  0  0  0  0  0  0
   -1.2072   -0.1086   -0.1482 C   0  0  0  0  0  0  0  0  0  0  0  0
   -0.1242    0.6105   -0.8193 C   0  0  0  0  0  0  0  0  0  0  0  0
    1.2067    0.1106   -0.4741 C   0  0  0  0  0  0  0  0  0  0  0  0
    2.3005   -0.2875   -0.2012 C   0  0  0  0  0  0  0  0  0  0  0  0
   -2.8942   -1.2059    0.8778 H   0  0  0  0  0  0  0  0  0  0  0  0
   -0.1862    1.6723   -0.5649 H   0  0  0  0  0  0  0  0  0  0  0  0
   -0.2641    0.5418   -1.9017 H   0  0  0  0  0  0  0  0  0  0  0  0
    3.2709   -0.6459    0.0455 H   0  0  0  0  0  0  0  0  0  0  0  0
  1  2  3  0
  1  6  1  0
  2  3  1  0
  3  4  1  0
  3  7  1  0
  3  8  1  0
  4  5  3  0
  5  9  1  0
M  END
>  <reaction>  (3) 
rxn_1093

>  <mol_properties>  (3) 
{"2": {"label": "acceptor", "atom_type": "Cs"}, "8": {"label": "a_hydrogen", "atom_type": "H0"}}

>  <type>  (3) 
r2h

$$$$

     RDKit          3D

 23 21  0  0  0  0  0  0  0  0999 V2000
    2.1915    2.3611    0.4538 C   0  0  0  0  0  0  0  0  0  0  0  0
    1.2906    1.8288   -0.1348 C   0  0  0  0  0  0  0  0  0  0  0  0
    0.2356    1.1194   -0.7883 C   0  0  0  0  0  3  0  0  0  0  0  0
   -1.0727    1.6939   -0.7656 C   0  0  0  0  0  0  0  0  0  0  0  0
   -2.1945    2.1207   -0.7217 C   0  0  0  0  0  0  0  0  0  0  0  0
    2.9861    2.8571    0.9570 H   0  0  0  0  0  0  0  0  0  0  0  0
    0.5182    0.6941   -1.7503 H   0  0  0  0  0  0  0  0  0  0  0  0
   -3.1791    2.5212   -0.6949 H   0  0  0  0  0  0  0  0  0  0  0  0
    1.6149   -2.8035   -0.0694 C   0  0  0  0  0  0  0  0  0  0  0  0
    1.2619   -1.7456    0.6640 C   0  0  0  0  0  0  0  0  0  0  0  0
   -0.0551   -1.1105    0.7001 C   0  0  0  0  0  0  0  0  0  0  0  0
   -0.4223   -0.4507    2.0087 C   0  0  0  0  0  0  0  0  0  0  0  0
   -1.1961   -1.7978   -0.0066 C   0  0  0  0  0  0  0  0  0  0  0  0
    2.6289   -3.1808   -0.0475 H   0  0  0  0  0  0  0  0  0  0  0  0
    0.9104   -3.3325   -0.6994 H   0  0  0  0  0  0  0  0  0  0  0  0
    2.0201   -1.2686    1.2799 H   0  0  0  0  0  0  0  0  0  0  0  0
    0.1338   -0.0324   -0.0634 H   0  0  0  0  0  0  0  0  0  0  0  0
    0.4164    0.1194    2.4118 H   0  0  0  0  0  0  0  0  0  0  0  0
   -0.7103   -1.2022    2.7509 H   0  0  0  0  0  0  0  0  0  0  0  0
   -1.2652    0.2303    1.8761 H   0  0  0  0  0  0  0  0  0  0  0  0
   -1.4781   -2.7167    0.5173 H   0  0  0  0  0  0  0  0  0  0  0  0
   -0.9384   -2.0639   -1.0329 H   0  0  0  0  0  0  0  0  0  0  0  0
   -2.0696   -1.1451   -0.0386 H   0  0  0  0  0  0  0  0  0  0  0  0
  1  2  3  0
  1  6  1  0
  2  3  1  0
  3  4  1  0
  3  7  1  0
  4  5  3  0
  5  8  1  0
  9 10  2  3
  9 14  1  0
  9 15  1  0
 10 11  1  0
 10 16  1  0
 11 12  1  0
 11 13  1  0
 11 17  1  0
 12 18  1  0
 12 19  1  0
 12 20  1  0
 13 21  1  0
 13 22  1  0
 13 23  1  0
M  RAD  1   3   2
M  END
>  <reaction>  (4) 
rxn_1093

>  <mol_properties>  (4) 
{"1": {"label": "*4", "atom_type": "Ct"}, "2": {"label": "*3", "atom_type": "Cs"}, "9": {"label": "*0", "atom_type": "Cd"}, "10": {"label": "*1", "atom_type": "Cs"}, "16": {"label": "*2", "atom_type": "H0"}}

>  <type>  (4) 
ts

$$$$

     RDKit          3D

 23 21  0  0  0  0  0  0  0  0999 V2000
   -2.0213    2.4980    0.0640 C   0  0  0  0  0  0  0  0  0  0  0  0
   -1.0434    1.8467   -0.1567 C   0  0  0  0  0  0  0  0  0  0  0  0
    0.1533    1.0496   -0.4269 C   0  0  0  0  0  0  0  0  0  0  0  0
    0.7688    1.3456   -1.7207 C   0  0  0  0  0  0  0  0  0  0  0  0
    1.2717    1.5874   -2.7780 C   0  0  0  0  0  0  0  0  0  0  0  0
   -2.8912    3.0774    0.2604 H   0  0  0  0  0  0  0  0  0  0  0  0
    0.8857    1.2209    0.3669 H   0  0  0  0  0  0  0  0  0  0  0  0
    1.7192    1.8026   -3.7185 H   0  0  0  0  0  0  0  0  0  0  0  0
    0.1533   -2.2837   -1.0623 C   0  0  0  0  0  0  0  0  0  0  0  0
    0.1533   -2.2837    0.2612 C   0  0  0  0  0  0  0  0  0  0  0  0
    0.1533   -1.0623    1.1333 C   0  0  0  0  0  3  0  0  0  0  0  0
    1.4126   -1.0218    2.0009 C   0  0  0  0  0  0  0  0  0  0  0  0
   -1.1060   -1.0218    2.0009 C   0  0  0  0  0  0  0  0  0  0  0  0
    0.1533   -3.2054   -1.6305 H   0  0  0  0  0  0  0  0  0  0  0  0
    0.1533   -1.3571   -1.6268 H   0  0  0  0  0  0  0  0  0  0  0  0
    0.1533   -3.2350    0.7918 H   0  0  0  0  0  0  0  0  0  0  0  0
    0.1533   -0.0059    0.3528 H   0  0  0  0  0  0  0  0  0  0  0  0
    2.3141   -1.0159    1.3868 H   0  0  0  0  0  0  0  0  0  0  0  0
    1.4572   -1.8957    2.6567 H   0  0  0  0  0  0  0  0  0  0  0  0
    1.4201   -0.1306    2.6319 H   0  0  0  0  0  0  0  0  0  0  0  0
   -1.1506   -1.8957    2.6567 H   0  0  0  0  0  0  0  0  0  0  0  0
   -2.0076   -1.0159    1.3868 H   0  0  0  0  0  0  0  0  0  0  0  0
   -1.1136   -0.1306    2.6319 H   0  0  0  0  0  0  0  0  0  0  0  0
  1  2  3  0
  1  6  1  0
  2  3  1  0
  3  4  1  0
  3  7  1  0
  3 17  1  0
  4  5  3  0
  5  8  1  0
  9 10  2  3
  9 14  1  0
  9 15  1  0
 10 11  1  0
 10 16  1  0
 11 12  1  0
 11 13  1  0
 12 18  1  0
 12 19  1  0
 12 20  1  0
 13 21  1  0
 13 22  1  0
 13 23  1  0
M  RAD  1  11   2
M  END
>  <reaction>  (5) 
rxn_1093

>  <mol_properties>  (5) 
{"1": {"label": "*4", "atom_type": "Ct"}, "2": {"label": "*3", "atom_type": "Cs"}, "9": {"label": "*0", "atom_type": "Cd"}, "10": {"label": "*1", "atom_type": "Cs"}, "16": {"label": "*2", "atom_type": "H0"}}

>  <type>  (5) 
unop_1

>  <geom_source>  (5) 
Heuristics

$$$$

     RDKit          3D

 23 21  0  0  0  0  0  0  0  0999 V2000
   -1.3864    0.6177   -2.5799 C   0  0  0  0  0  0  0  0  0  0  0  0
   -0.8218    0.8829   -1.5600 C   0  0  0  0  0  0  0  0  0  0  0  0
   -0.1309    1.2075   -0.3120 C   0  0  0  0  0  0  0  0  0  0  0  0
    1.0582    2.0378   -0.5049 C   0  0  0  0  0  0  0  0  0  0  0  0
    2.0298    2.7163   -0.6625 C   0  0  0  0  0  0  0  0  0  0  0  0
   -1.8886    0.3817   -3.4871 H   0  0  0  0  0  0  0  0  0  0  0  0
   -0.8240    1.7230    0.3587 H   0  0  0  0  0  0  0  0  0  0  0  0
    2.8941    3.3198   -0.8027 H   0  0  0  0  0  0  0  0  0  0  0  0
   -0.1309   -2.1258   -0.9473 C   0  0  0  0  0  0  0  0  0  0  0  0
   -0.1309   -2.1258    0.3762 C   0  0  0  0  0  0  0  0  0  0  0  0
   -0.1309   -0.9044    1.2482 C   0  0  0  0  0  3  0  0  0  0  0  0
    1.1284   -0.8640    2.1159 C   0  0  0  0  0  0  0  0  0  0  0  0
   -1.3902   -0.8640    2.1159 C   0  0  0  0  0  0  0  0  0  0  0  0
   -0.1309   -3.0475   -1.5156 H   0  0  0  0  0  0  0  0  0  0  0  0
   -0.1309   -1.1992   -1.5119 H   0  0  0  0  0  0  0  0  0  0  0  0
   -0.1309   -3.0771    0.9067 H   0  0  0  0  0  0  0  0  0  0  0  0
   -0.1309    0.1520    0.4678 H   0  0  0  0  0  0  0  0  0  0  0  0
    2.0300   -0.8581    1.5017 H   0  0  0  0  0  0  0  0  0  0  0  0
    1.1730   -1.7378    2.7717 H   0  0  0  0  0  0  0  0  0  0  0  0
    1.1360    0.0272    2.7469 H   0  0  0  0  0  0  0  0  0  0  0  0
   -1.4347   -1.7378    2.7717 H   0  0  0  0  0  0  0  0  0  0  0  0
   -2.2917   -0.8581    1.5017 H   0  0  0  0  0  0  0  0  0  0  0  0
   -1.3977    0.0272    2.7469 H   0  0  0  0  0  0  0  0  0  0  0  0
  1  2  3  0
  1  6  1  0
  2  3  1  0
  3  4  1  0
  3  7  1  0
  3 17  1  0
  4  5  3  0
  5  8  1  0
  9 10  2  3
  9 14  1  0
  9 15  1  0
 10 11  1  0
 10 16  1  0
 11 12  1  0
 11 13  1  0
 12 18  1  0
 12 19  1  0
 12 20  1  0
 13 21  1  0
 13 22  1  0
 13 23  1  0
M  RAD  1  11   2
M  END
>  <reaction>  (6) 
rxn_1093

>  <mol_properties>  (6) 
{"1": {"label": "*4", "atom_type": "Ct"}, "2": {"label": "*3", "atom_type": "Cs"}, "9": {"label": "*0", "atom_type": "Cd"}, "10": {"label": "*1", "atom_type": "Cs"}, "16": {"label": "*2", "atom_type": "H0"}}

>  <type>  (6) 
unop_2

>  <geom_source>  (6) 
Heuristics

$$$$

     RDKit          3D

 23 21  0  0  0  0  0  0  0  0999 V2000
   -1.0409    3.0314    0.7407 C   0  0  0  0  0  0  0  0  0  0  0  0
   -0.4763    2.1345    0.1875 C   0  0  0  0  0  0  0  0  0  0  0  0
    0.2146    1.0369   -0.4895 C   0  0  0  0  0  0  0  0  0  0  0  0
    0.0909    1.0831   -1.9466 C   0  0  0  0  0  0  0  0  0  0  0  0
   -0.0102    1.1208   -3.1372 C   0  0  0  0  0  0  0  0  0  0  0  0
   -1.5432    3.8292    1.2328 H   0  0  0  0  0  0  0  0  0  0  0  0
    1.2737    1.0574   -0.2181 H   0  0  0  0  0  0  0  0  0  0  0  0
   -0.1001    1.1544   -4.1963 H   0  0  0  0  0  0  0  0  0  0  0  0
    0.2146   -2.2964   -1.1249 C   0  0  0  0  0  0  0  0  0  0  0  0
    0.2146   -2.2964    0.1986 C   0  0  0  0  0  0  0  0  0  0  0  0
    0.2146   -1.0750    1.0707 C   0  0  0  0  0  3  0  0  0  0  0  0
    1.4739   -1.0346    1.9383 C   0  0  0  0  0  0  0  0  0  0  0  0
   -1.0447   -1.0346    1.9383 C   0  0  0  0  0  0  0  0  0  0  0  0
    0.2146   -3.2181   -1.6931 H   0  0  0  0  0  0  0  0  0  0  0  0
    0.2146   -1.3698   -1.6894 H   0  0  0  0  0  0  0  0  0  0  0  0
    0.2146   -3.2477    0.7292 H   0  0  0  0  0  0  0  0  0  0  0  0
    0.2146   -0.0186    0.2902 H   0  0  0  0  0  0  0  0  0  0  0  0
    2.3754   -1.0287    1.3242 H   0  0  0  0  0  0  0  0  0  0  0  0
    1.5185   -1.9084    2.5941 H   0  0  0  0  0  0  0  0  0  0  0  0
    1.4814   -0.1434    2.5693 H   0  0  0  0  0  0  0  0  0  0  0  0
   -1.0893   -1.9084    2.5941 H   0  0  0  0  0  0  0  0  0  0  0  0
   -1.9463   -1.0287    1.3242 H   0  0  0  0  0  0  0  0  0  0  0  0
   -1.0523   -0.1434    2.5693 H   0  0  0  0  0  0  0  0  0  0  0  0
  1  2  3  0
  1  6  1  0
  2  3  1  0
  3  4  1  0
  3  7  1  0
  3 17  1  0
  4  5  3  0
  5  8  1  0
  9 10  2  3
  9 14  1  0
  9 15  1  0
 10 11  1  0
 10 16  1  0
 11 12  1  0
 11 13  1  0
 12 18  1  0
 12 19  1  0
 12 20  1  0
 13 21  1  0
 13 22  1  0
 13 23  1  0
M  RAD  1  11   2
M  END
>  <reaction>  (7) 
rxn_1093

>  <mol_properties>  (7) 
{"1": {"label": "*4", "atom_type": "Ct"}, "2": {"label": "*3", "atom_type": "Cs"}, "9": {"label": "*0", "atom_type": "Cd"}, "10": {"label": "*1", "atom_type": "Cs"}, "16": {"label": "*2", "atom_type": "H0"}}

>  <type>  (7) 
unop_3

>  <geom_source>  (7) 
Heuristics

$$$$

     RDKit          3D

 23 21  0  0  0  0  0  0  0  0999 V2000
    1.8008    1.1159   -2.3413 C   0  0  0  0  0  0  0  0  0  0  0  0
    0.8229    1.1355   -1.6539 C   0  0  0  0  0  0  0  0  0  0  0  0
   -0.3738    1.1596   -0.8126 C   0  0  0  0  0  0  0  0  0  0  0  0
   -0.1798    1.8660    0.4538 C   0  0  0  0  0  0  0  0  0  0  0  0
   -0.0214    2.4432    1.4886 C   0  0  0  0  0  0  0  0  0  0  0  0
    2.6707    1.0984   -2.9528 H   0  0  0  0  0  0  0  0  0  0  0  0
   -1.1918    1.6305   -1.3650 H   0  0  0  0  0  0  0  0  0  0  0  0
    0.1196    2.9567    2.4092 H   0  0  0  0  0  0  0  0  0  0  0  0
   -0.3738   -2.1737   -1.4479 C   0  0  0  0  0  0  0  0  0  0  0  0
   -0.3738   -2.1737   -0.1244 C   0  0  0  0  0  0  0  0  0  0  0  0
   -0.3738   -0.9523    0.7476 C   0  0  0  0  0  3  0  0  0  0  0  0
    0.8855   -0.9119    1.6153 C   0  0  0  0  0  0  0  0  0  0  0  0
   -1.6331   -0.9119    1.6153 C   0  0  0  0  0  0  0  0  0  0  0  0
   -0.3738   -3.0954   -2.0162 H   0  0  0  0  0  0  0  0  0  0  0  0
   -0.3738   -1.2472   -2.0125 H   0  0  0  0  0  0  0  0  0  0  0  0
   -0.3738   -3.1250    0.4061 H   0  0  0  0  0  0  0  0  0  0  0  0
   -0.3738    0.1041   -0.0328 H   0  0  0  0  0  0  0  0  0  0  0  0
    1.7871   -0.9060    1.0011 H   0  0  0  0  0  0  0  0  0  0  0  0
    0.9301   -1.7857    2.2711 H   0  0  0  0  0  0  0  0  0  0  0  0
    0.8930   -0.0207    2.2462 H   0  0  0  0  0  0  0  0  0  0  0  0
   -1.6777   -1.7857    2.2710 H   0  0  0  0  0  0  0  0  0  0  0  0
   -2.5347   -0.9060    1.0011 H   0  0  0  0  0  0  0  0  0  0  0  0
   -1.6406   -0.0207    2.2462 H   0  0  0  0  0  0  0  0  0  0  0  0
  1  2  3  0
  1  6  1  0
  2  3  1  0
  3  4  1  0
  3  7  1  0
  3 17  1  0
  4  5  3  0
  5  8  1  0
  9 10  2  3
  9 14  1  0
  9 15  1  0
 10 11  1  0
 10 16  1  0
 11 12  1  0
 11 13  1  0
 12 18  1  0
 12 19  1  0
 12 20  1  0
 13 21  1  0
 13 22  1  0
 13 23  1  0
M  RAD  1  11   2
M  END
>  <reaction>  (8) 
rxn_1093

>  <mol_properties>  (8) 
{"1": {"label": "*4", "atom_type": "Ct"}, "2": {"label": "*3", "atom_type": "Cs"}, "9": {"label": "*0", "atom_type": "Cd"}, "10": {"label": "*1", "atom_type": "Cs"}, "16": {"label": "*2", "atom_type": "H0"}}

>  <type>  (8) 
unop_4

>  <geom_source>  (8) 
Heuristics

$$$$

     RDKit          3D

 23 21  0  0  0  0  0  0  0  0999 V2000
    0.3042    3.2357    0.8288 C   0  0  0  0  0  0  0  0  0  0  0  0
    0.3042    2.2489    0.1539 C   0  0  0  0  0  0  0  0  0  0  0  0
    0.3042    1.0413   -0.6719 C   0  0  0  0  0  0  0  0  0  0  0  0
   -0.8348    0.9629   -1.5868 C   0  0  0  0  0  0  0  0  0  0  0  0
   -1.7655    0.8989   -2.3343 C   0  0  0  0  0  0  0  0  0  0  0  0
    0.3042    4.1135    1.4292 H   0  0  0  0  0  0  0  0  0  0  0  0
    1.2321    1.0010   -1.2493 H   0  0  0  0  0  0  0  0  0  0  0  0
   -2.5935    0.8419   -2.9994 H   0  0  0  0  0  0  0  0  0  0  0  0
    0.3042   -2.2919   -1.3073 C   0  0  0  0  0  0  0  0  0  0  0  0
    0.3042   -2.2919    0.0162 C   0  0  0  0  0  0  0  0  0  0  0  0
    0.3042   -1.0706    0.8882 C   0  0  0  0  0  3  0  0  0  0  0  0
    1.5635   -1.0301    1.7559 C   0  0  0  0  0  0  0  0  0  0  0  0
   -0.9551   -1.0301    1.7559 C   0  0  0  0  0  0  0  0  0  0  0  0
    0.3042   -3.2137   -1.8756 H   0  0  0  0  0  0  0  0  0  0  0  0
    0.3042   -1.3654   -1.8719 H   0  0  0  0  0  0  0  0  0  0  0  0
    0.3042   -3.2432    0.5468 H   0  0  0  0  0  0  0  0  0  0  0  0
    0.3042   -0.0142    0.1078 H   0  0  0  0  0  0  0  0  0  0  0  0
    2.4651   -1.0242    1.1417 H   0  0  0  0  0  0  0  0  0  0  0  0
    1.6081   -1.9040    2.4117 H   0  0  0  0  0  0  0  0  0  0  0  0
    1.5710   -0.1389    2.3869 H   0  0  0  0  0  0  0  0  0  0  0  0
   -0.9997   -1.9040    2.4117 H   0  0  0  0  0  0  0  0  0  0  0  0
   -1.8567   -1.0242    1.1417 H   0  0  0  0  0  0  0  0  0  0  0  0
   -0.9626   -0.1389    2.3869 H   0  0  0  0  0  0  0  0  0  0  0  0
  1  2  3  0
  1  6  1  0
  2  3  1  0
  3  4  1  0
  3  7  1  0
  3 17  1  0
  4  5  3  0
  5  8  1  0
  9 10  2  3
  9 14  1  0
  9 15  1  0
 10 11  1  0
 10 16  1  0
 11 12  1  0
 11 13  1  0
 12 18  1  0
 12 19  1  0
 12 20  1  0
 13 21  1  0
 13 22  1  0
 13 23  1  0
M  RAD  1  11   2
M  END
>  <reaction>  (9) 
rxn_1093

>  <mol_properties>  (9) 
{"1": {"label": "*4", "atom_type": "Ct"}, "2": {"label": "*3", "atom_type": "Cs"}, "9": {"label": "*0", "atom_type": "Cd"}, "10": {"label": "*1", "atom_type": "Cs"}, "16": {"label": "*2", "atom_type": "H0"}}

>  <type>  (9) 
unop_5

>  <geom_source>  (9) 
Heuristics

$$$$

     RDKit          3D

 23 21  0  0  0  0  0  0  0  0999 V2000
    2.2738    1.8028   -1.4841 C   0  0  0  0  0  0  0  0  0  0  0  0
    1.1446    1.4869   -1.2508 C   0  0  0  0  0  0  0  0  0  0  0  0
   -0.2372    1.1004   -0.9652 C   0  0  0  0  0  0  0  0  0  0  0  0
   -0.7330    1.6158    0.3111 C   0  0  0  0  0  0  0  0  0  0  0  0
   -1.1380    2.0370    1.3540 C   0  0  0  0  0  0  0  0  0  0  0  0
    3.2783    2.0837   -1.6917 H   0  0  0  0  0  0  0  0  0  0  0  0
   -0.8839    1.4567   -1.7720 H   0  0  0  0  0  0  0  0  0  0  0  0
   -1.4984    2.4117    2.2818 H   0  0  0  0  0  0  0  0  0  0  0  0
   -0.2372   -2.2328   -1.6006 C   0  0  0  0  0  0  0  0  0  0  0  0
   -0.2372   -2.2328   -0.2771 C   0  0  0  0  0  0  0  0  0  0  0  0
   -0.2372   -1.0115    0.5949 C   0  0  0  0  0  3  0  0  0  0  0  0
    1.0221   -0.9710    1.4626 C   0  0  0  0  0  0  0  0  0  0  0  0
   -1.4965   -0.9710    1.4626 C   0  0  0  0  0  0  0  0  0  0  0  0
   -0.2372   -3.1546   -2.1688 H   0  0  0  0  0  0  0  0  0  0  0  0
   -0.2372   -1.3063   -2.1651 H   0  0  0  0  0  0  0  0  0  0  0  0
   -0.2372   -3.1841    0.2535 H   0  0  0  0  0  0  0  0  0  0  0  0
   -0.2372    0.0449   -0.1855 H   0  0  0  0  0  0  0  0  0  0  0  0
    1.9236   -0.9651    0.8484 H   0  0  0  0  0  0  0  0  0  0  0  0
    1.0667   -1.8449    2.1184 H   0  0  0  0  0  0  0  0  0  0  0  0
    1.0296   -0.0798    2.0936 H   0  0  0  0  0  0  0  0  0  0  0  0
   -1.5411   -1.8449    2.1184 H   0  0  0  0  0  0  0  0  0  0  0  0
   -2.3981   -0.9651    0.8484 H   0  0  0  0  0  0  0  0  0  0  0  0
   -1.5041   -0.0798    2.0936 H   0  0  0  0  0  0  0  0  0  0  0  0
  1  2  3  0
  1  6  1  0
  2  3  1  0
  3  4  1  0
  3  7  1  0
  3 17  1  0
  4  5  3  0
  5  8  1  0
  9 10  2  3
  9 14  1  0
  9 15  1  0
 10 11  1  0
 10 16  1  0
 11 12  1  0
 11 13  1  0
 12 18  1  0
 12 19  1  0
 12 20  1  0
 13 21  1  0
 13 22  1  0
 13 23  1  0
M  RAD  1  11   2
M  END
>  <reaction>  (10) 
rxn_1093

>  <mol_properties>  (10) 
{"1": {"label": "*4", "atom_type": "Ct"}, "2": {"label": "*3", "atom_type": "Cs"}, "9": {"label": "*0", "atom_type": "Cd"}, "10": {"label": "*1", "atom_type": "Cs"}, "16": {"label": "*2", "atom_type": "H0"}}

>  <type>  (10) 
unop_6

>  <geom_source>  (10) 
Heuristics

$$$$

     RDKit          3D

 23 21  0  0  0  0  0  0  0  0999 V2000
    2.1497    2.5068   -0.5306 C   0  0  0  0  0  0  0  0  0  0  0  0
    1.1718    1.8555   -0.7514 C   0  0  0  0  0  0  0  0  0  0  0  0
   -0.0249    1.0585   -1.0216 C   0  0  0  0  0  0  0  0  0  0  0  0
   -1.1210    1.3213   -0.0889 C   0  0  0  0  0  0  0  0  0  0  0  0
   -2.0167    1.5361    0.6732 C   0  0  0  0  0  0  0  0  0  0  0  0
    3.0196    3.0862   -0.3342 H   0  0  0  0  0  0  0  0  0  0  0  0
   -0.3658    1.2568   -2.0416 H   0  0  0  0  0  0  0  0  0  0  0  0
   -2.8135    1.7271    1.3512 H   0  0  0  0  0  0  0  0  0  0  0  0
   -0.0249   -2.2748   -1.6569 C   0  0  0  0  0  0  0  0  0  0  0  0
   -0.0249   -2.2748   -0.3334 C   0  0  0  0  0  0  0  0  0  0  0  0
   -0.0249   -1.0534    0.5386 C   0  0  0  0  0  3  0  0  0  0  0  0
    1.2344   -1.0130    1.4063 C   0  0  0  0  0  0  0  0  0  0  0  0
   -1.2842   -1.0130    1.4063 C   0  0  0  0  0  0  0  0  0  0  0  0
   -0.0249   -3.1965   -2.2252 H   0  0  0  0  0  0  0  0  0  0  0  0
   -0.0249   -1.3483   -2.2215 H   0  0  0  0  0  0  0  0  0  0  0  0
   -0.0249   -3.2261    0.1971 H   0  0  0  0  0  0  0  0  0  0  0  0
   -0.0249    0.0030   -0.2418 H   0  0  0  0  0  0  0  0  0  0  0  0
    2.1360   -1.0071    0.7921 H   0  0  0  0  0  0  0  0  0  0  0  0
    1.2790   -1.8868    2.0621 H   0  0  0  0  0  0  0  0  0  0  0  0
    1.2419   -0.1218    2.0373 H   0  0  0  0  0  0  0  0  0  0  0  0
   -1.3288   -1.8868    2.0621 H   0  0  0  0  0  0  0  0  0  0  0  0
   -2.1858   -1.0071    0.7921 H   0  0  0  0  0  0  0  0  0  0  0  0
   -1.2917   -0.1218    2.0373 H   0  0  0  0  0  0  0  0  0  0  0  0
  1  2  3  0
  1  6  1  0
  2  3  1  0
  3  4  1  0
  3  7  1  0
  3 17  1  0
  4  5  3  0
  5  8  1  0
  9 10  2  3
  9 14  1  0
  9 15  1  0
 10 11  1  0
 10 16  1  0
 11 12  1  0
 11 13  1  0
 12 18  1  0
 12 19  1  0
 12 20  1  0
 13 21  1  0
 13 22  1  0
 13 23  1  0
M  RAD  1  11   2
M  END
>  <reaction>  (11) 
rxn_1093

>  <mol_properties>  (11) 
{"1": {"label": "*4", "atom_type": "Ct"}, "2": {"label": "*3", "atom_type": "Cs"}, "9": {"label": "*0", "atom_type": "Cd"}, "10": {"label": "*1", "atom_type": "Cs"}, "16": {"label": "*2", "atom_type": "H0"}}

>  <type>  (11) 
unop_7

>  <geom_source>  (11) 
Heuristics

$$$$

     RDKit          3D

 23 21  0  0  0  0  0  0  0  0999 V2000
   -2.3992    1.7939   -0.8888 C   0  0  0  0  0  0  0  0  0  0  0  0
   -1.2701    1.4781   -0.6555 C   0  0  0  0  0  0  0  0  0  0  0  0
    0.1118    1.0916   -0.3700 C   0  0  0  0  0  0  0  0  0  0  0  0
    1.0773    1.6402   -1.3224 C   0  0  0  0  0  0  0  0  0  0  0  0
    1.8663    2.0884   -2.1007 C   0  0  0  0  0  0  0  0  0  0  0  0
   -3.4037    2.0749   -1.0964 H   0  0  0  0  0  0  0  0  0  0  0  0
    0.3757    1.4208    0.6389 H   0  0  0  0  0  0  0  0  0  0  0  0
    2.5682    2.4872   -2.7931 H   0  0  0  0  0  0  0  0  0  0  0  0
    0.1117   -2.2417   -1.0053 C   0  0  0  0  0  0  0  0  0  0  0  0
    0.1117   -2.2417    0.3182 C   0  0  0  0  0  0  0  0  0  0  0  0
    0.1117   -1.0203    1.1902 C   0  0  0  0  0  3  0  0  0  0  0  0
    1.3711   -0.9799    2.0579 C   0  0  0  0  0  0  0  0  0  0  0  0
   -1.1476   -0.9799    2.0579 C   0  0  0  0  0  0  0  0  0  0  0  0
    0.1118   -3.1634   -1.5736 H   0  0  0  0  0  0  0  0  0  0  0  0
    0.1118   -1.3151   -1.5699 H   0  0  0  0  0  0  0  0  0  0  0  0
    0.1117   -3.1930    0.8487 H   0  0  0  0  0  0  0  0  0  0  0  0
    0.1118    0.0361    0.4098 H   0  0  0  0  0  0  0  0  0  0  0  0
    2.2726   -0.9740    1.4437 H   0  0  0  0  0  0  0  0  0  0  0  0
    1.4156   -1.8537    2.7137 H   0  0  0  0  0  0  0  0  0  0  0  0
    1.3786   -0.0887    2.6889 H   0  0  0  0  0  0  0  0  0  0  0  0
   -1.1921   -1.8537    2.7137 H   0  0  0  0  0  0  0  0  0  0  0  0
   -2.0491   -0.9740    1.4437 H   0  0  0  0  0  0  0  0  0  0  0  0
   -1.1551   -0.0887    2.6889 H   0  0  0  0  0  0  0  0  0  0  0  0
  1  2  3  0
  1  6  1  0
  2  3  1  0
  3  4  1  0
  3  7  1  0
  3 17  1  0
  4  5  3  0
  5  8  1  0
  9 10  2  3
  9 14  1  0
  9 15  1  0
 10 11  1  0
 10 16  1  0
 11 12  1  0
 11 13  1  0
 12 18  1  0
 12 19  1  0
 12 20  1  0
 13 21  1  0
 13 22  1  0
 13 23  1  0
M  RAD  1  11   2
M  END
>  <reaction>  (12) 
rxn_1093

>  <mol_properties>  (12) 
{"1": {"label": "*4", "atom_type": "Ct"}, "2": {"label": "*3", "atom_type": "Cs"}, "9": {"label": "*0", "atom_type": "Cd"}, "10": {"label": "*1", "atom_type": "Cs"}, "16": {"label": "*2", "atom_type": "H0"}}

>  <type>  (12) 
unop_8

>  <geom_source>  (12) 
Heuristics

$$$$

     RDKit          3D

 23 21  0  0  0  0  0  0  0  0999 V2000
    0.8546    0.6221   -2.8754 C   0  0  0  0  0  0  0  0  0  0  0  0
    0.2900    0.8873   -1.8555 C   0  0  0  0  0  0  0  0  0  0  0  0
   -0.4009    1.2119   -0.6075 C   0  0  0  0  0  0  0  0  0  0  0  0
    0.4012    2.0257    0.3061 C   0  0  0  0  0  0  0  0  0  0  0  0
    1.0566    2.6907    1.0527 C   0  0  0  0  0  0  0  0  0  0  0  0
    1.3568    0.3861   -3.7826 H   0  0  0  0  0  0  0  0  0  0  0  0
   -1.3299    1.7408   -0.8382 H   0  0  0  0  0  0  0  0  0  0  0  0
    1.6396    3.2823    1.7168 H   0  0  0  0  0  0  0  0  0  0  0  0
   -0.4009   -2.1214   -1.2428 C   0  0  0  0  0  0  0  0  0  0  0  0
   -0.4009   -2.1214    0.0807 C   0  0  0  0  0  0  0  0  0  0  0  0
   -0.4009   -0.9000    0.9527 C   0  0  0  0  0  3  0  0  0  0  0  0
    0.8584   -0.8596    1.8204 C   0  0  0  0  0  0  0  0  0  0  0  0
   -1.6602   -0.8596    1.8204 C   0  0  0  0  0  0  0  0  0  0  0  0
   -0.4009   -3.0431   -1.8111 H   0  0  0  0  0  0  0  0  0  0  0  0
   -0.4009   -1.1948   -1.8074 H   0  0  0  0  0  0  0  0  0  0  0  0
   -0.4009   -3.0727    0.6112 H   0  0  0  0  0  0  0  0  0  0  0  0
   -0.4009    0.1564    0.1723 H   0  0  0  0  0  0  0  0  0  0  0  0
    1.7599   -0.8537    1.2062 H   0  0  0  0  0  0  0  0  0  0  0  0
    0.9030   -1.7334    2.4762 H   0  0  0  0  0  0  0  0  0  0  0  0
    0.8659    0.0316    2.4514 H   0  0  0  0  0  0  0  0  0  0  0  0
   -1.7048   -1.7334    2.4762 H   0  0  0  0  0  0  0  0  0  0  0  0
   -2.5618   -0.8537    1.2062 H   0  0  0  0  0  0  0  0  0  0  0  0
   -1.6678    0.0316    2.4514 H   0  0  0  0  0  0  0  0  0  0  0  0
  1  2  3  0
  1  6  1  0
  2  3  1  0
  3  4  1  0
  3  7  1  0
  3 17  1  0
  4  5  3  0
  5  8  1  0
  9 10  2  3
  9 14  1  0
  9 15  1  0
 10 11  1  0
 10 16  1  0
 11 12  1  0
 11 13  1  0
 12 18  1  0
 12 19  1  0
 12 20  1  0
 13 21  1  0
 13 22  1  0
 13 23  1  0
M  RAD  1  11   2
M  END
>  <reaction>  (13) 
rxn_1093

>  <mol_properties>  (13) 
{"1": {"label": "*4", "atom_type": "Ct"}, "2": {"label": "*3", "atom_type": "Cs"}, "9": {"label": "*0", "atom_type": "Cd"}, "10": {"label": "*1", "atom_type": "Cs"}, "16": {"label": "*2", "atom_type": "H0"}}

>  <type>  (13) 
unop_9

>  <geom_source>  (13) 
Heuristics

$$$$

     RDKit          3D

 23 21  0  0  0  0  0  0  0  0999 V2000
   -2.1505    1.1085   -1.8435 C   0  0  0  0  0  0  0  0  0  0  0  0
   -1.1727    1.1281   -1.1561 C   0  0  0  0  0  0  0  0  0  0  0  0
    0.0240    1.1522   -0.3149 C   0  0  0  0  0  0  0  0  0  0  0  0
    1.1397    1.8863   -0.9122 C   0  0  0  0  0  0  0  0  0  0  0  0
    2.0513    2.4862   -1.4003 C   0  0  0  0  0  0  0  0  0  0  0  0
   -3.0205    1.0910   -2.4551 H   0  0  0  0  0  0  0  0  0  0  0  0
   -0.2249    1.6005    0.6511 H   0  0  0  0  0  0  0  0  0  0  0  0
    2.8623    3.0198   -1.8345 H   0  0  0  0  0  0  0  0  0  0  0  0
    0.0240   -2.1811   -0.9502 C   0  0  0  0  0  0  0  0  0  0  0  0
    0.0240   -2.1811    0.3733 C   0  0  0  0  0  0  0  0  0  0  0  0
    0.0240   -0.9597    1.2453 C   0  0  0  0  0  3  0  0  0  0  0  0
    1.2833   -0.9193    2.1130 C   0  0  0  0  0  0  0  0  0  0  0  0
   -1.2353   -0.9193    2.1130 C   0  0  0  0  0  0  0  0  0  0  0  0
    0.0240   -3.1028   -1.5185 H   0  0  0  0  0  0  0  0  0  0  0  0
    0.0240   -1.2546   -1.5148 H   0  0  0  0  0  0  0  0  0  0  0  0
    0.0240   -3.1324    0.9038 H   0  0  0  0  0  0  0  0  0  0  0  0
    0.0240    0.0967    0.4649 H   0  0  0  0  0  0  0  0  0  0  0  0
    2.1849   -0.9134    1.4988 H   0  0  0  0  0  0  0  0  0  0  0  0
    1.3279   -1.7931    2.7688 H   0  0  0  0  0  0  0  0  0  0  0  0
    1.2909   -0.0281    2.7440 H   0  0  0  0  0  0  0  0  0  0  0  0
   -1.2799   -1.7931    2.7688 H   0  0  0  0  0  0  0  0  0  0  0  0
   -2.1368   -0.9134    1.4988 H   0  0  0  0  0  0  0  0  0  0  0  0
   -1.2428   -0.0281    2.7440 H   0  0  0  0  0  0  0  0  0  0  0  0
  1  2  3  0
  1  6  1  0
  2  3  1  0
  3  4  1  0
  3  7  1  0
  3 17  1  0
  4  5  3  0
  5  8  1  0
  9 10  2  3
  9 14  1  0
  9 15  1  0
 10 11  1  0
 10 16  1  0
 11 12  1  0
 11 13  1  0
 12 18  1  0
 12 19  1  0
 12 20  1  0
 13 21  1  0
 13 22  1  0
 13 23  1  0
M  RAD  1  11   2
M  END
>  <reaction>  (14) 
rxn_1093

>  <mol_properties>  (14) 
{"1": {"label": "*4", "atom_type": "Ct"}, "2": {"label": "*3", "atom_type": "Cs"}, "9": {"label": "*0", "atom_type": "Cd"}, "10": {"label": "*1", "atom_type": "Cs"}, "16": {"label": "*2", "atom_type": "H0"}}

>  <type>  (14) 
unop_10

>  <geom_source>  (14) 
Heuristics

$$$$

     RDKit          3D

 23 21  0  0  0  0  0  0  0  0999 V2000
    1.4614    3.0379    0.3010 C   0  0  0  0  0  0  0  0  0  0  0  0
    0.8968    2.1410   -0.2522 C   0  0  0  0  0  0  0  0  0  0  0  0
    0.2059    1.0434   -0.9292 C   0  0  0  0  0  0  0  0  0  0  0  0
   -1.2447    1.0651   -0.7399 C   0  0  0  0  0  0  0  0  0  0  0  0
   -2.4300    1.0828   -0.5852 C   0  0  0  0  0  0  0  0  0  0  0  0
    1.9636    3.8358    0.7931 H   0  0  0  0  0  0  0  0  0  0  0  0
    0.4292    1.0839   -1.9990 H   0  0  0  0  0  0  0  0  0  0  0  0
   -3.4844    1.0986   -0.4476 H   0  0  0  0  0  0  0  0  0  0  0  0
    0.2059   -2.2898   -1.5646 C   0  0  0  0  0  0  0  0  0  0  0  0
    0.2059   -2.2898   -0.2411 C   0  0  0  0  0  0  0  0  0  0  0  0
    0.2059   -1.0685    0.6310 C   0  0  0  0  0  3  0  0  0  0  0  0
    1.4652   -1.0280    1.4986 C   0  0  0  0  0  0  0  0  0  0  0  0
   -1.0534   -1.0280    1.4986 C   0  0  0  0  0  0  0  0  0  0  0  0
    0.2059   -3.2116   -2.1328 H   0  0  0  0  0  0  0  0  0  0  0  0
    0.2059   -1.3633   -2.1291 H   0  0  0  0  0  0  0  0  0  0  0  0
    0.2059   -3.2412    0.2895 H   0  0  0  0  0  0  0  0  0  0  0  0
    0.2059   -0.0121   -0.1495 H   0  0  0  0  0  0  0  0  0  0  0  0
    2.3667   -1.0221    0.8845 H   0  0  0  0  0  0  0  0  0  0  0  0
    1.5098   -1.9019    2.1544 H   0  0  0  0  0  0  0  0  0  0  0  0
    1.4727   -0.1368    2.1296 H   0  0  0  0  0  0  0  0  0  0  0  0
   -1.0980   -1.9019    2.1544 H   0  0  0  0  0  0  0  0  0  0  0  0
   -1.9550   -1.0221    0.8845 H   0  0  0  0  0  0  0  0  0  0  0  0
   -1.0610   -0.1368    2.1296 H   0  0  0  0  0  0  0  0  0  0  0  0
  1  2  3  0
  1  6  1  0
  2  3  1  0
  3  4  1  0
  3  7  1  0
  3 17  1  0
  4  5  3  0
  5  8  1  0
  9 10  2  3
  9 14  1  0
  9 15  1  0
 10 11  1  0
 10 16  1  0
 11 12  1  0
 11 13  1  0
 12 18  1  0
 12 19  1  0
 12 20  1  0
 13 21  1  0
 13 22  1  0
 13 23  1  0
M  RAD  1  11   2
M  END
>  <reaction>  (15) 
rxn_1093

>  <mol_properties>  (15) 
{"1": {"label": "*4", "atom_type": "Ct"}, "2": {"label": "*3", "atom_type": "Cs"}, "9": {"label": "*0", "atom_type": "Cd"}, "10": {"label": "*1", "atom_type": "Cs"}, "16": {"label": "*2", "atom_type": "H0"}}

>  <type>  (15) 
unop_11

>  <geom_source>  (15) 
Heuristics

$$$$

     RDKit          3D

 23 21  0  0  0  0  0  0  0  0999 V2000
   -0.3042    0.4419   -2.9529 C   0  0  0  0  0  0  0  0  0  0  0  0
   -0.3042    0.7970   -1.8114 C   0  0  0  0  0  0  0  0  0  0  0  0
   -0.3042    1.2316   -0.4144 C   0  0  0  0  0  0  0  0  0  0  0  0
    0.8348    2.0830   -0.0706 C   0  0  0  0  0  0  0  0  0  0  0  0
    1.7655    2.7787    0.2103 C   0  0  0  0  0  0  0  0  0  0  0  0
   -0.3042    0.1260   -3.9684 H   0  0  0  0  0  0  0  0  0  0  0  0
   -1.2321    1.7716   -0.2062 H   0  0  0  0  0  0  0  0  0  0  0  0
    2.5935    3.3976    0.4602 H   0  0  0  0  0  0  0  0  0  0  0  0
   -0.3042   -2.1017   -1.0497 C   0  0  0  0  0  0  0  0  0  0  0  0
   -0.3042   -2.1017    0.2738 C   0  0  0  0  0  0  0  0  0  0  0  0
   -0.3042   -0.8803    1.1458 C   0  0  0  0  0  3  0  0  0  0  0  0
    0.9551   -0.8399    2.0135 C   0  0  0  0  0  0  0  0  0  0  0  0
   -1.5635   -0.8399    2.0135 C   0  0  0  0  0  0  0  0  0  0  0  0
   -0.3042   -3.0234   -1.6180 H   0  0  0  0  0  0  0  0  0  0  0  0
   -0.3042   -1.1751   -1.6143 H   0  0  0  0  0  0  0  0  0  0  0  0
   -0.3042   -3.0530    0.8043 H   0  0  0  0  0  0  0  0  0  0  0  0
   -0.3042    0.1761    0.3653 H   0  0  0  0  0  0  0  0  0  0  0  0
    1.8567   -0.8340    1.3993 H   0  0  0  0  0  0  0  0  0  0  0  0
    0.9997   -1.7137    2.6692 H   0  0  0  0  0  0  0  0  0  0  0  0
    0.9626    0.0513    2.6444 H   0  0  0  0  0  0  0  0  0  0  0  0
   -1.6081   -1.7137    2.6692 H   0  0  0  0  0  0  0  0  0  0  0  0
   -2.4651   -0.8340    1.3993 H   0  0  0  0  0  0  0  0  0  0  0  0
   -1.5710    0.0513    2.6444 H   0  0  0  0  0  0  0  0  0  0  0  0
  1  2  3  0
  1  6  1  0
  2  3  1  0
  3  4  1  0
  3  7  1  0
  3 17  1  0
  4  5  3  0
  5  8  1  0
  9 10  2  3
  9 14  1  0
  9 15  1  0
 10 11  1  0
 10 16  1  0
 11 12  1  0
 11 13  1  0
 12 18  1  0
 12 19  1  0
 12 20  1  0
 13 21  1  0
 13 22  1  0
 13 23  1  0
M  RAD  1  11   2
M  END
>  <reaction>  (16) 
rxn_1093

>  <mol_properties>  (16) 
{"1": {"label": "*4", "atom_type": "Ct"}, "2": {"label": "*3", "atom_type": "Cs"}, "9": {"label": "*0", "atom_type": "Cd"}, "10": {"label": "*1", "atom_type": "Cs"}, "16": {"label": "*2", "atom_type": "H0"}}

>  <type>  (16) 
unop_12

>  <geom_source>  (16) 
Heuristics

$$$$

     RDKit          3D

 23 21  0  0  0  0  0  0  0  0999 V2000
   -0.4445    1.5187   -1.2671 C   0  0  0  0  0  0  0  0  0  0  0  0
   -1.8100   -0.6059   -1.2512 C   0  0  0  0  0  0  0  0  0  0  0  0
    1.6062   -0.3113   -0.1865 C   0  0  0  0  0  3  0  0  0  0  0  0
   -0.9132    0.3256   -0.4330 C   0  0  0  0  0  0  0  0  0  0  0  0
   -1.6047    0.7776    0.8261 C   0  0  0  0  0  0  0  0  0  0  0  0
   -1.7137   -0.0369    1.8778 C   0  0  0  0  0  0  0  0  0  0  0  0
    2.3398    0.4258    0.8442 C   0  0  0  0  0  0  0  0  0  0  0  0
    1.9266   -1.7372   -0.0970 C   0  0  0  0  0  0  0  0  0  0  0  0
    2.9428    1.0345    1.6925 C   0  0  0  0  0  0  0  0  0  0  0  0
    2.1888   -2.9118   -0.0246 C   0  0  0  0  0  0  0  0  0  0  0  0
    1.8936    0.0696   -1.1882 H   0  0  0  0  0  0  0  0  0  0  0  0
    0.2654   -0.1353   -0.0024 H   0  0  0  0  0  0  0  0  0  0  0  0
    0.1200    1.1616   -2.1541 H   0  0  0  0  0  0  0  0  0  0  0  0
   -1.3113    2.1249   -1.6083 H   0  0  0  0  0  0  0  0  0  0  0  0
    0.2315    2.1595   -0.6621 H   0  0  0  0  0  0  0  0  0  0  0  0
   -2.7376   -0.0801   -1.5646 H   0  0  0  0  0  0  0  0  0  0  0  0
   -2.0846   -1.4976   -0.6492 H   0  0  0  0  0  0  0  0  0  0  0  0
   -1.2682   -0.9557   -2.1552 H   0  0  0  0  0  0  0  0  0  0  0  0
   -1.9993    1.7877    0.8983 H   0  0  0  0  0  0  0  0  0  0  0  0
   -1.3152   -1.0466    1.8456 H   0  0  0  0  0  0  0  0  0  0  0  0
   -2.2037    0.3071    2.7829 H   0  0  0  0  0  0  0  0  0  0  0  0
    3.4721    1.5686    2.4372 H   0  0  0  0  0  0  0  0  0  0  0  0
    2.4191   -3.9428    0.0390 H   0  0  0  0  0  0  0  0  0  0  0  0
  1  4  1  0
  1 13  1  0
  1 14  1  0
  1 15  1  0
  2  4  1  0
  2 16  1  0
  2 17  1  0
  2 18  1  0
  3  7  1  0
  3  8  1  0
  3 11  1  0
  4  5  1  0
  4 12  1  0
  5  6  2  3
  5 19  1  0
  6 20  1  0
  6 21  1  0
  7  9  3  0
  8 10  3  0
  9 22  1  0
 10 23  1  0
M  RAD  1   3   2
M  END
>  <reaction>  (17) 
rxn_1093

>  <mol_properties>  (17) 
{"1": {"label": "*4", "atom_type": "Ct"}, "2": {"label": "*3", "atom_type": "Cs"}, "9": {"label": "*0", "atom_type": "Cd"}, "10": {"label": "*1", "atom_type": "Cs"}, "16": {"label": "*2", "atom_type": "H0"}}

>  <type>  (17) 
unop_13

>  <geom_source>  (17) 
AutoTST

$$$$

     RDKit          3D

 23 21  0  0  0  0  0  0  0  0999 V2000
   -1.3863    0.6177   -2.5799 C   0  0  0  0  0  0  0  0  0  0  0  0
   -0.8218    0.8829   -1.5600 C   0  0  0  0  0  0  0  0  0  0  0  0
   -0.1309    1.2075   -0.3120 C   0  0  0  0  0  0  0  0  0  0  0  0
    1.0582    2.0378   -0.5049 C   0  0  0  0  0  0  0  0  0  0  0  0
    2.0298    2.7163   -0.6625 C   0  0  0  0  0  0  0  0  0  0  0  0
   -1.8886    0.3817   -3.4871 H   0  0  0  0  0  0  0  0  0  0  0  0
   -0.8239    1.7230    0.3587 H   0  0  0  0  0  0  0  0  0  0  0  0
    2.8941    3.3198   -0.8027 H   0  0  0  0  0  0  0  0  0  0  0  0
   -0.1309   -2.1258   -0.9473 C   0  0  0  0  0  0  0  0  0  0  0  0
   -0.1309   -2.1258    0.3762 C   0  0  0  0  0  0  0  0  0  0  0  0
   -0.1309   -0.9044    1.2482 C   0  0  0  0  0  3  0  0  0  0  0  0
    1.1284   -0.8640    2.1159 C   0  0  0  0  0  0  0  0  0  0  0  0
   -1.3902   -0.8640    2.1159 C   0  0  0  0  0  0  0  0  0  0  0  0
   -0.1309   -3.0475   -1.5156 H   0  0  0  0  0  0  0  0  0  0  0  0
   -0.1309   -1.1992   -1.5119 H   0  0  0  0  0  0  0  0  0  0  0  0
   -0.1309   -3.0771    0.9067 H   0  0  0  0  0  0  0  0  0  0  0  0
   -0.1309    0.1520    0.4678 H   0  0  0  0  0  0  0  0  0  0  0  0
    2.0300   -0.8581    1.5017 H   0  0  0  0  0  0  0  0  0  0  0  0
    1.1730   -1.7378    2.7717 H   0  0  0  0  0  0  0  0  0  0  0  0
    1.1360    0.0272    2.7469 H   0  0  0  0  0  0  0  0  0  0  0  0
   -1.4347   -1.7378    2.7717 H   0  0  0  0  0  0  0  0  0  0  0  0
   -2.2917   -0.8581    1.5017 H   0  0  0  0  0  0  0  0  0  0  0  0
   -1.3977    0.0272    2.7469 H   0  0  0  0  0  0  0  0  0  0  0  0
  1  2  3  0
  1  6  1  0
  2  3  1  0
  3  4  1  0
  3  7  1  0
  3 17  1  0
  4  5  3  0
  5  8  1  0
  9 10  2  3
  9 14  1  0
  9 15  1  0
 10 11  1  0
 10 16  1  0
 11 12  1  0
 11 13  1  0
 12 18  1  0
 12 19  1  0
 12 20  1  0
 13 21  1  0
 13 22  1  0
 13 23  1  0
M  RAD  1  11   2
M  END
>  <reaction>  (18) 
rxn_1093

>  <mol_properties>  (18) 
{"1": {"label": "*4", "atom_type": "Ct"}, "2": {"label": "*3", "atom_type": "Cs"}, "9": {"label": "*0", "atom_type": "Cd"}, "10": {"label": "*1", "atom_type": "Cs"}, "16": {"label": "*2", "atom_type": "H0"}}

>  <type>  (18) 
unop_14

>  <geom_source>  (18) 
gaussian_log

$$$$
