
     RDKit          3D

  8  7  0  0  0  0  0  0  0  0999 V2000
    0.7610    0.0250    0.0051 C   0  0  0  0  0  0  0  0  0  0  0  0
   -0.7610   -0.0250   -0.0051 C   0  0  0  0  0  0  0  0  0  0  0  0
    1.1904   -0.9237   -0.3217 H   0  0  0  0  0  0  0  0  0  0  0  0
    1.1359    0.8041   -0.6609 H   0  0  0  0  0  0  0  0  0  0  0  0
    1.1435    0.2336    1.0058 H   0  0  0  0  0  0  0  0  0  0  0  0
   -1.1435   -0.2336   -1.0058 H   0  0  0  0  0  0  0  0  0  0  0  0
   -1.1904    0.9237    0.3216 H   0  0  0  0  0  0  0  0  0  0  0  0
   -1.1359   -0.8041    0.6609 H   0  0  0  0  0  0  0  0  0  0  0  0
  1  2  1  0
  1  3  1  0
  1  4  1  0
  1  5  1  0
  2  6  1  0
  2  7  1  0
  2  8  1  0
M  END
>  <reaction>  (1) 
rxn_871

>  <mol_properties>  (1) 
{"1": {"label": "donator", "atom_type": "Cs"}, "5": {"label": "d_hydrogen", "atom_type": "H0"}}

>  <type>  (1) 
r1h

$$$$

     RDKit          3D

 11 10  0  0  0  0  0  0  0  0999 V2000
    2.0591    0.2533   -0.1061 C   0  0  0  0  0  0  0  0  0  0  0  0
    0.8045   -0.3111   -0.1535 C   0  0  0  0  0  0  0  0  0  0  0  0
   -0.3816    0.3942   -0.1885 C   0  0  0  0  0  3  0  0  0  0  0  0
   -1.7316   -0.2294   -0.2396 C   0  0  0  0  0  0  0  0  0  0  0  0
    2.9505   -0.3576   -0.0805 H   0  0  0  0  0  0  0  0  0  0  0  0
    2.1872    1.3290   -0.0933 H   0  0  0  0  0  0  0  0  0  0  0  0
    0.7385   -1.3970   -0.1643 H   0  0  0  0  0  0  0  0  0  0  0  0
   -0.3340    1.4795   -0.1783 H   0  0  0  0  0  0  0  0  0  0  0  0
   -1.6704   -1.3186   -0.2461 H   0  0  0  0  0  0  0  0  0  0  0  0
   -2.3404    0.0713    0.6191 H   0  0  0  0  0  0  0  0  0  0  0  0
   -2.2805    0.0851   -1.1331 H   0  0  0  0  0  0  0  0  0  0  0  0
  1  2  2  3
  1  5  1  0
  1  6  1  0
  2  3  1  0
  2  7  1  0
  3  4  1  0
  3  8  1  0
  4  9  1  0
  4 10  1  0
  4 11  1  0
M  RAD  1   3   2
M  END
>  <reaction>  (2) 
rxn_871

>  <mol_properties>  (2) 
{"2": {"label": "acceptor", "atom_type": "Cs"}}

>  <type>  (2) 
r2

$$$$

     RDKit          3D

 12 11  0  0  0  0  0  0  0  0999 V2000
    1.9877    0.1011    0.4814 C   0  0  0  0  0  0  0  0  0  0  0  0
    0.8179    0.5502    0.0525 C   0  0  0  0  0  0  0  0  0  0  0  0
   -0.2939   -0.2692   -0.5320 C   0  0  0  0  0  0  0  0  0  0  0  0
   -0.0292   -1.7631   -0.6328 C   0  0  0  0  0  0  0  0  0  0  0  0
    2.2522   -0.9490    0.4436 H   0  0  0  0  0  0  0  0  0  0  0  0
    2.7295    0.7757    0.8896 H   0  0  0  0  0  0  0  0  0  0  0  0
    0.6162    1.6164    0.1190 H   0  0  0  0  0  0  0  0  0  0  0  0
   -0.5268    0.1319   -1.5245 H   0  0  0  0  0  0  0  0  0  0  0  0
   -1.1959   -0.0938    0.0644 H   0  0  0  0  0  0  0  0  0  0  0  0
    0.1590   -2.1992    0.3502 H   0  0  0  0  0  0  0  0  0  0  0  0
    0.8382   -1.9701   -1.2626 H   0  0  0  0  0  0  0  0  0  0  0  0
   -0.8879   -2.2759   -1.0672 H   0  0  0  0  0  0  0  0  0  0  0  0
  1  2  2  3
  1  5  1  0
  1  6  1  0
  2  3  1  0
  2  7  1  0
  3  4  1  0
  3  8  1  0
  3  9  1  0
  4 10  1  0
  4 11  1  0
  4 12  1  0
M  END
>  <reaction>  (3) 
rxn_871

>  <mol_properties>  (3) 
{"2": {"label": "acceptor", "atom_type": "Cs"}, "11": {"label": "a_hydrogen", "atom_type": "H0"}}

>  <type>  (3) 
r2h

$$$$

     RDKit          3D

 19 17  0  0  0  0  0  0  0  0999 V2000
   -1.4302    1.6681    0.1490 C   0  0  0  0  0  0  0  0  0  0  0  0
   -1.0468    0.6523    0.9219 C   0  0  0  0  0  0  0  0  0  0  0  0
    0.3230    0.1489    1.0840 C   0  0  0  0  0  0  0  0  0  0  0  0
    1.4577    0.9789    0.5338 C   0  0  0  0  0  0  0  0  0  0  0  0
   -2.4730    1.9468    0.0693 H   0  0  0  0  0  0  0  0  0  0  0  0
   -0.7214    2.2596   -0.4182 H   0  0  0  0  0  0  0  0  0  0  0  0
   -1.8118    0.1063    1.4681 H   0  0  0  0  0  0  0  0  0  0  0  0
    0.5101   -0.2105    2.0968 H   0  0  0  0  0  0  0  0  0  0  0  0
    1.5115    1.9563    1.0213 H   0  0  0  0  0  0  0  0  0  0  0  0
    2.4126    0.4735    0.6838 H   0  0  0  0  0  0  0  0  0  0  0  0
    1.3389    1.1517   -0.5380 H   0  0  0  0  0  0  0  0  0  0  0  0
    0.0930   -1.4971   -1.8097 C   0  0  0  0  0  0  0  0  0  0  0  0
    0.4423   -2.0660   -0.4664 C   0  0  0  0  0  3  0  0  0  0  0  0
   -0.8596   -0.9640   -1.7741 H   0  0  0  0  0  0  0  0  0  0  0  0
    0.8553   -0.7960   -2.1544 H   0  0  0  0  0  0  0  0  0  0  0  0
    0.0027   -2.2807   -2.5700 H   0  0  0  0  0  0  0  0  0  0  0  0
    0.3667   -0.9464    0.4257 H   0  0  0  0  0  0  0  0  0  0  0  0
    1.4630   -2.4193   -0.3420 H   0  0  0  0  0  0  0  0  0  0  0  0
   -0.2925   -2.7382   -0.0292 H   0  0  0  0  0  0  0  0  0  0  0  0
  1  2  2  3
  1  5  1  0
  1  6  1  0
  2  3  1  0
  2  7  1  0
  3  4  1  0
  3  8  1  0
  3 17  1  0
  4  9  1  0
  4 10  1  0
  4 11  1  0
 12 13  1  0
 12 14  1  0
 12 15  1  0
 12 16  1  0
 13 18  1  0
 13 19  1  0
M  RAD  1  13   2
M  END
>  <reaction>  (4) 
rxn_871

>  <mol_properties>  (4) 
{"1": {"label": "*0", "atom_type": "Cd"}, "2": {"label": "*1", "atom_type": "Cs"}, "11": {"label": "*4", "atom_type": "Cs"}, "12": {"label": "*3", "atom_type": "Cs"}, "16": {"label": "*2", "atom_type": "H0"}}

>  <type>  (4) 
ts

$$$$

     RDKit          3D

 19 17  0  0  0  0  0  0  0  0999 V2000
   -1.4201    1.7091    1.5527 C   0  0  0  0  0  0  0  0  0  0  0  0
   -0.8761    0.5602    1.1811 C   0  0  0  0  0  0  0  0  0  0  0  0
    0.3584    0.3844    0.3479 C   0  0  0  0  0  3  0  0  0  0  0  0
    1.0368    1.6678   -0.1044 C   0  0  0  0  0  0  0  0  0  0  0  0
   -2.3175    1.7324    2.1579 H   0  0  0  0  0  0  0  0  0  0  0  0
   -0.9971    2.6661    1.2712 H   0  0  0  0  0  0  0  0  0  0  0  0
   -1.3514   -0.3647    1.4980 H   0  0  0  0  0  0  0  0  0  0  0  0
    1.0680   -0.2276    0.9155 H   0  0  0  0  0  0  0  0  0  0  0  0
    1.3532    2.2706    0.7490 H   0  0  0  0  0  0  0  0  0  0  0  0
    1.9212    1.4437   -0.7018 H   0  0  0  0  0  0  0  0  0  0  0  0
    0.3664    2.2765   -0.7142 H   0  0  0  0  0  0  0  0  0  0  0  0
    0.3584   -2.0613   -2.1267 C   0  0  0  0  0  0  0  0  0  0  0  0
    0.3584   -2.0613   -0.6039 C   0  0  0  0  0  0  0  0  0  0  0  0
   -0.5224   -1.5527   -2.5226 H   0  0  0  0  0  0  0  0  0  0  0  0
    1.2393   -1.5527   -2.5225 H   0  0  0  0  0  0  0  0  0  0  0  0
    0.3584   -3.0784   -2.5226 H   0  0  0  0  0  0  0  0  0  0  0  0
    0.3584   -0.8408   -0.1289 H   0  0  0  0  0  0  0  0  0  0  0  0
    1.2392   -2.5698   -0.2081 H   0  0  0  0  0  0  0  0  0  0  0  0
   -0.5224   -2.5698   -0.2081 H   0  0  0  0  0  0  0  0  0  0  0  0
  1  2  2  3
  1  5  1  0
  1  6  1  0
  2  3  1  0
  2  7  1  0
  3  4  1  0
  3  8  1  0
  4  9  1  0
  4 10  1  0
  4 11  1  0
 12 13  1  0
 12 14  1  0
 12 15  1  0
 12 16  1  0
 13 17  1  0
 13 18  1  0
 13 19  1  0
M  RAD  1   3   2
M  END
>  <reaction>  (5) 
rxn_871

>  <mol_properties>  (5) 
{"1": {"label": "*0", "atom_type": "Cd"}, "2": {"label": "*1", "atom_type": "Cs"}, "11": {"label": "*4", "atom_type": "Cs"}, "12": {"label": "*3", "atom_type": "Cs"}, "16": {"label": "*2", "atom_type": "H0"}}

>  <type>  (5) 
unop_1

>  <geom_source>  (5) 
Heuristics

$$$$

     RDKit          3D

 19 17  0  0  0  0  0  0  0  0999 V2000
   -0.4240    2.3824   -0.4646 C   0  0  0  0  0  0  0  0  0  0  0  0
   -0.7506    1.1414   -0.1371 C   0  0  0  0  0  0  0  0  0  0  0  0
   -0.0378    0.2593    0.8442 C   0  0  0  0  0  3  0  0  0  0  0  0
    1.1791    0.8724    1.5188 C   0  0  0  0  0  0  0  0  0  0  0  0
   -1.0046    2.9404   -1.1882 H   0  0  0  0  0  0  0  0  0  0  0  0
    0.4287    2.8893   -0.0286 H   0  0  0  0  0  0  0  0  0  0  0  0
   -1.6187    0.6914   -0.6124 H   0  0  0  0  0  0  0  0  0  0  0  0
   -0.7603   -0.0576    1.6043 H   0  0  0  0  0  0  0  0  0  0  0  0
    0.9103    1.7671    2.0837 H   0  0  0  0  0  0  0  0  0  0  0  0
    1.6311    0.1624    2.2123 H   0  0  0  0  0  0  0  0  0  0  0  0
    1.9381    1.1543    0.7864 H   0  0  0  0  0  0  0  0  0  0  0  0
   -0.0378   -2.1863   -1.6304 C   0  0  0  0  0  0  0  0  0  0  0  0
   -0.0378   -2.1863   -0.1076 C   0  0  0  0  0  0  0  0  0  0  0  0
   -0.9187   -1.6778   -2.0262 H   0  0  0  0  0  0  0  0  0  0  0  0
    0.8430   -1.6778   -2.0262 H   0  0  0  0  0  0  0  0  0  0  0  0
   -0.0379   -3.2034   -2.0262 H   0  0  0  0  0  0  0  0  0  0  0  0
   -0.0378   -0.9658    0.3674 H   0  0  0  0  0  0  0  0  0  0  0  0
    0.8430   -2.6949    0.2883 H   0  0  0  0  0  0  0  0  0  0  0  0
   -0.9187   -2.6949    0.2883 H   0  0  0  0  0  0  0  0  0  0  0  0
  1  2  2  3
  1  5  1  0
  1  6  1  0
  2  3  1  0
  2  7  1  0
  3  4  1  0
  3  8  1  0
  4  9  1  0
  4 10  1  0
  4 11  1  0
 12 13  1  0
 12 14  1  0
 12 15  1  0
 12 16  1  0
 13 17  1  0
 13 18  1  0
 13 19  1  0
M  RAD  1   3   2
M  END
>  <reaction>  (6) 
rxn_871

>  <mol_properties>  (6) 
{"1": {"label": "*0", "atom_type": "Cd"}, "2": {"label": "*1", "atom_type": "Cs"}, "11": {"label": "*4", "atom_type": "Cs"}, "12": {"label": "*3", "atom_type": "Cs"}, "16": {"label": "*2", "atom_type": "H0"}}

>  <type>  (6) 
unop_2

>  <geom_source>  (6) 
Heuristics

$$$$

     RDKit          3D

 19 17  0  0  0  0  0  0  0  0999 V2000
   -1.0496    1.4480    2.0838 C   0  0  0  0  0  0  0  0  0  0  0  0
   -0.3635    0.4502    1.5474 C   0  0  0  0  0  0  0  0  0  0  0  0
    0.3492    0.4636    0.2280 C   0  0  0  0  0  3  0  0  0  0  0  0
    0.2618    1.7639   -0.5553 C   0  0  0  0  0  0  0  0  0  0  0  0
   -1.5314    1.3404    3.0473 H   0  0  0  0  0  0  0  0  0  0  0  0
   -1.1585    2.4057    1.5886 H   0  0  0  0  0  0  0  0  0  0  0  0
   -0.2934   -0.4849    2.0974 H   0  0  0  0  0  0  0  0  0  0  0  0
    1.4001    0.2103    0.4061 H   0  0  0  0  0  0  0  0  0  0  0  0
    0.6903    2.5952    0.0078 H   0  0  0  0  0  0  0  0  0  0  0  0
    0.8065    1.6816   -1.4965 H   0  0  0  0  0  0  0  0  0  0  0  0
   -0.7742    2.0166   -0.7891 H   0  0  0  0  0  0  0  0  0  0  0  0
    0.3492   -1.9821   -2.2466 C   0  0  0  0  0  0  0  0  0  0  0  0
    0.3492   -1.9821   -0.7238 C   0  0  0  0  0  0  0  0  0  0  0  0
   -0.5316   -1.4735   -2.6425 H   0  0  0  0  0  0  0  0  0  0  0  0
    1.2300   -1.4735   -2.6425 H   0  0  0  0  0  0  0  0  0  0  0  0
    0.3492   -2.9992   -2.6425 H   0  0  0  0  0  0  0  0  0  0  0  0
    0.3492   -0.7615   -0.2488 H   0  0  0  0  0  0  0  0  0  0  0  0
    1.2300   -2.4906   -0.3280 H   0  0  0  0  0  0  0  0  0  0  0  0
   -0.5316   -2.4906   -0.3280 H   0  0  0  0  0  0  0  0  0  0  0  0
  1  2  2  3
  1  5  1  0
  1  6  1  0
  2  3  1  0
  2  7  1  0
  3  4  1  0
  3  8  1  0
  4  9  1  0
  4 10  1  0
  4 11  1  0
 12 13  1  0
 12 14  1  0
 12 15  1  0
 12 16  1  0
 13 17  1  0
 13 18  1  0
 13 19  1  0
M  RAD  1   3   2
M  END
>  <reaction>  (7) 
rxn_871

>  <mol_properties>  (7) 
{"1": {"label": "*0", "atom_type": "Cd"}, "2": {"label": "*1", "atom_type": "Cs"}, "11": {"label": "*4", "atom_type": "Cs"}, "12": {"label": "*3", "atom_type": "Cs"}, "16": {"label": "*2", "atom_type": "H0"}}

>  <type>  (7) 
unop_3

>  <geom_source>  (7) 
Heuristics

$$$$

     RDKit          3D

 19 17  0  0  0  0  0  0  0  0999 V2000
    1.7964    1.4966    0.5337 C   0  0  0  0  0  0  0  0  0  0  0  0
    0.6241    1.4392   -0.0797 C   0  0  0  0  0  0  0  0  0  0  0  0
   -0.6104    0.7464    0.4154 C   0  0  0  0  0  3  0  0  0  0  0  0
   -0.4795    0.0462    1.7588 C   0  0  0  0  0  0  0  0  0  0  0  0
    2.6325    2.0244    0.0926 H   0  0  0  0  0  0  0  0  0  0  0  0
    1.9699    1.0237    1.4930 H   0  0  0  0  0  0  0  0  0  0  0  0
    0.5173    1.9358   -1.0409 H   0  0  0  0  0  0  0  0  0  0  0  0
   -1.4195    1.4836    0.4611 H   0  0  0  0  0  0  0  0  0  0  0  0
   -0.2128    0.7512    2.5486 H   0  0  0  0  0  0  0  0  0  0  0  0
   -1.4214   -0.4274    2.0374 H   0  0  0  0  0  0  0  0  0  0  0  0
    0.2888   -0.7288    1.7283 H   0  0  0  0  0  0  0  0  0  0  0  0
   -0.6104   -1.6993   -2.0592 C   0  0  0  0  0  0  0  0  0  0  0  0
   -0.6104   -1.6993   -0.5364 C   0  0  0  0  0  0  0  0  0  0  0  0
   -1.4912   -1.1907   -2.4550 H   0  0  0  0  0  0  0  0  0  0  0  0
    0.2705   -1.1907   -2.4550 H   0  0  0  0  0  0  0  0  0  0  0  0
   -0.6104   -2.7164   -2.4550 H   0  0  0  0  0  0  0  0  0  0  0  0
   -0.6104   -0.4787   -0.0614 H   0  0  0  0  0  0  0  0  0  0  0  0
    0.2705   -2.2078   -0.1405 H   0  0  0  0  0  0  0  0  0  0  0  0
   -1.4912   -2.2078   -0.1405 H   0  0  0  0  0  0  0  0  0  0  0  0
  1  2  2  3
  1  5  1  0
  1  6  1  0
  2  3  1  0
  2  7  1  0
  3  4  1  0
  3  8  1  0
  4  9  1  0
  4 10  1  0
  4 11  1  0
 12 13  1  0
 12 14  1  0
 12 15  1  0
 12 16  1  0
 13 17  1  0
 13 18  1  0
 13 19  1  0
M  RAD  1   3   2
M  END
>  <reaction>  (8) 
rxn_871

>  <mol_properties>  (8) 
{"1": {"label": "*0", "atom_type": "Cd"}, "2": {"label": "*1", "atom_type": "Cs"}, "11": {"label": "*4", "atom_type": "Cs"}, "12": {"label": "*3", "atom_type": "Cs"}, "16": {"label": "*2", "atom_type": "H0"}}

>  <type>  (8) 
unop_4

>  <geom_source>  (8) 
Heuristics

$$$$

     RDKit          3D

 19 17  0  0  0  0  0  0  0  0999 V2000
   -0.5415    1.1063    2.4157 C   0  0  0  0  0  0  0  0  0  0  0  0
    0.3465    0.5652    1.5957 C   0  0  0  0  0  0  0  0  0  0  0  0
    0.3465    0.6479    0.0983 C   0  0  0  0  0  3  0  0  0  0  0  0
   -0.7974    1.4371   -0.5184 C   0  0  0  0  0  0  0  0  0  0  0  0
   -0.4549    0.9899    3.4886 H   0  0  0  0  0  0  0  0  0  0  0  0
   -1.3848    1.6829    2.0546 H   0  0  0  0  0  0  0  0  0  0  0  0
    1.1694   -0.0017    2.0240 H   0  0  0  0  0  0  0  0  0  0  0  0
    1.3035    1.0765   -0.2191 H   0  0  0  0  0  0  0  0  0  0  0  0
   -0.7931    2.4739   -0.1764 H   0  0  0  0  0  0  0  0  0  0  0  0
   -0.7161    1.4435   -1.6059 H   0  0  0  0  0  0  0  0  0  0  0  0
   -1.7644    1.0026   -0.2576 H   0  0  0  0  0  0  0  0  0  0  0  0
    0.3465   -1.7978   -2.3764 C   0  0  0  0  0  0  0  0  0  0  0  0
    0.3465   -1.7978   -0.8536 C   0  0  0  0  0  0  0  0  0  0  0  0
   -0.5343   -1.2892   -2.7722 H   0  0  0  0  0  0  0  0  0  0  0  0
    1.2274   -1.2892   -2.7722 H   0  0  0  0  0  0  0  0  0  0  0  0
    0.3465   -2.8149   -2.7722 H   0  0  0  0  0  0  0  0  0  0  0  0
    0.3465   -0.5773   -0.3785 H   0  0  0  0  0  0  0  0  0  0  0  0
    1.2274   -2.3064   -0.4577 H   0  0  0  0  0  0  0  0  0  0  0  0
   -0.5343   -2.3064   -0.4577 H   0  0  0  0  0  0  0  0  0  0  0  0
  1  2  2  3
  1  5  1  0
  1  6  1  0
  2  3  1  0
  2  7  1  0
  3  4  1  0
  3  8  1  0
  4  9  1  0
  4 10  1  0
  4 11  1  0
 12 13  1  0
 12 14  1  0
 12 15  1  0
 12 16  1  0
 13 17  1  0
 13 18  1  0
 13 19  1  0
M  RAD  1   3   2
M  END
>  <reaction>  (9) 
rxn_871

>  <mol_properties>  (9) 
{"1": {"label": "*0", "atom_type": "Cd"}, "2": {"label": "*1", "atom_type": "Cs"}, "11": {"label": "*4", "atom_type": "Cs"}, "12": {"label": "*3", "atom_type": "Cs"}, "16": {"label": "*2", "atom_type": "H0"}}

>  <type>  (9) 
unop_5

>  <geom_source>  (9) 
Heuristics

$$$$

     RDKit          3D

 19 17  0  0  0  0  0  0  0  0999 V2000
    1.7281    1.0883    1.3772 C   0  0  0  0  0  0  0  0  0  0  0  0
    0.9478    1.3306    0.3349 C   0  0  0  0  0  0  0  0  0  0  0  0
   -0.4776    0.8962    0.1659 C   0  0  0  0  0  3  0  0  0  0  0  0
   -1.0650    0.0988    1.3196 C   0  0  0  0  0  0  0  0  0  0  0  0
    2.7495    1.4463    1.4056 H   0  0  0  0  0  0  0  0  0  0  0  0
    1.3840    0.5276    2.2382 H   0  0  0  0  0  0  0  0  0  0  0  0
    1.3558    1.8997   -0.4967 H   0  0  0  0  0  0  0  0  0  0  0  0
   -1.0867    1.7891   -0.0132 H   0  0  0  0  0  0  0  0  0  0  0  0
   -1.0513    0.6749    2.2468 H   0  0  0  0  0  0  0  0  0  0  0  0
   -2.1002   -0.1726    1.1099 H   0  0  0  0  0  0  0  0  0  0  0  0
   -0.5052   -0.8228    1.4897 H   0  0  0  0  0  0  0  0  0  0  0  0
   -0.4776   -1.5494   -2.3087 C   0  0  0  0  0  0  0  0  0  0  0  0
   -0.4776   -1.5494   -0.7859 C   0  0  0  0  0  0  0  0  0  0  0  0
   -1.3585   -1.0409   -2.7046 H   0  0  0  0  0  0  0  0  0  0  0  0
    0.4032   -1.0409   -2.7046 H   0  0  0  0  0  0  0  0  0  0  0  0
   -0.4776   -2.5666   -2.7046 H   0  0  0  0  0  0  0  0  0  0  0  0
   -0.4776   -0.3289   -0.3109 H   0  0  0  0  0  0  0  0  0  0  0  0
    0.4032   -2.0580   -0.3901 H   0  0  0  0  0  0  0  0  0  0  0  0
   -1.3585   -2.0580   -0.3901 H   0  0  0  0  0  0  0  0  0  0  0  0
  1  2  2  3
  1  5  1  0
  1  6  1  0
  2  3  1  0
  2  7  1  0
  3  4  1  0
  3  8  1  0
  4  9  1  0
  4 10  1  0
  4 11  1  0
 12 13  1  0
 12 14  1  0
 12 15  1  0
 12 16  1  0
 13 17  1  0
 13 18  1  0
 13 19  1  0
M  RAD  1   3   2
M  END
>  <reaction>  (10) 
rxn_871

>  <mol_properties>  (10) 
{"1": {"label": "*0", "atom_type": "Cd"}, "2": {"label": "*1", "atom_type": "Cs"}, "11": {"label": "*4", "atom_type": "Cs"}, "12": {"label": "*3", "atom_type": "Cs"}, "16": {"label": "*2", "atom_type": "H0"}}

>  <type>  (10) 
unop_6

>  <geom_source>  (10) 
Heuristics

$$$$

     RDKit          3D

 19 17  0  0  0  0  0  0  0  0999 V2000
    1.1764    0.8090    2.1037 C   0  0  0  0  0  0  0  0  0  0  0  0
    1.0320    1.1361    0.8285 C   0  0  0  0  0  0  0  0  0  0  0  0
   -0.2025    0.9603   -0.0047 C   0  0  0  0  0  3  0  0  0  0  0  0
   -1.3957    0.3424    0.7070 C   0  0  0  0  0  0  0  0  0  0  0  0
    2.1127    0.9763    2.6208 H   0  0  0  0  0  0  0  0  0  0  0  0
    0.3738    0.3645    2.6803 H   0  0  0  0  0  0  0  0  0  0  0  0
    1.8777    1.5788    0.3082 H   0  0  0  0  0  0  0  0  0  0  0  0
   -0.4814    1.9388   -0.4108 H   0  0  0  0  0  0  0  0  0  0  0  0
   -1.7101    0.9526    1.5559 H   0  0  0  0  0  0  0  0  0  0  0  0
   -2.2435    0.2535    0.0269 H   0  0  0  0  0  0  0  0  0  0  0  0
   -1.1604   -0.6559    1.0810 H   0  0  0  0  0  0  0  0  0  0  0  0
   -0.2025   -1.4854   -2.4793 C   0  0  0  0  0  0  0  0  0  0  0  0
   -0.2025   -1.4854   -0.9565 C   0  0  0  0  0  0  0  0  0  0  0  0
   -1.0833   -0.9768   -2.8751 H   0  0  0  0  0  0  0  0  0  0  0  0
    0.6784   -0.9768   -2.8751 H   0  0  0  0  0  0  0  0  0  0  0  0
   -0.2025   -2.5025   -2.8751 H   0  0  0  0  0  0  0  0  0  0  0  0
   -0.2025   -0.2648   -0.4815 H   0  0  0  0  0  0  0  0  0  0  0  0
    0.6784   -1.9939   -0.5607 H   0  0  0  0  0  0  0  0  0  0  0  0
   -1.0833   -1.9939   -0.5607 H   0  0  0  0  0  0  0  0  0  0  0  0
  1  2  2  3
  1  5  1  0
  1  6  1  0
  2  3  1  0
  2  7  1  0
  3  4  1  0
  3  8  1  0
  4  9  1  0
  4 10  1  0
  4 11  1  0
 12 13  1  0
 12 14  1  0
 12 15  1  0
 12 16  1  0
 13 17  1  0
 13 18  1  0
 13 19  1  0
M  RAD  1   3   2
M  END
>  <reaction>  (11) 
rxn_871

>  <mol_properties>  (11) 
{"1": {"label": "*0", "atom_type": "Cd"}, "2": {"label": "*1", "atom_type": "Cs"}, "11": {"label": "*4", "atom_type": "Cs"}, "12": {"label": "*3", "atom_type": "Cs"}, "16": {"label": "*2", "atom_type": "H0"}}

>  <type>  (11) 
unop_7

>  <geom_source>  (11) 
Heuristics

$$$$

     RDKit          3D

 19 17  0  0  0  0  0  0  0  0999 V2000
   -1.5178    1.9944    0.8224 C   0  0  0  0  0  0  0  0  0  0  0  0
   -1.0824    0.7507    0.6899 C   0  0  0  0  0  0  0  0  0  0  0  0
    0.3430    0.3164    0.5209 C   0  0  0  0  0  3  0  0  0  0  0  0
    1.3747    1.4332    0.5027 C   0  0  0  0  0  0  0  0  0  0  0  0
   -2.5728    2.2075    0.9396 H   0  0  0  0  0  0  0  0  0  0  0  0
   -0.8462    2.8448    0.8195 H   0  0  0  0  0  0  0  0  0  0  0  0
   -1.8100   -0.0570    0.7013 H   0  0  0  0  0  0  0  0  0  0  0  0
    0.5804   -0.3920    1.3221 H   0  0  0  0  0  0  0  0  0  0  0  0
    1.3593    2.0019    1.4344 H   0  0  0  0  0  0  0  0  0  0  0  0
    2.3783    1.0256    0.3763 H   0  0  0  0  0  0  0  0  0  0  0  0
    1.1904    2.1295   -0.3177 H   0  0  0  0  0  0  0  0  0  0  0  0
    0.3430   -2.1293   -1.9538 C   0  0  0  0  0  0  0  0  0  0  0  0
    0.3430   -2.1293   -0.4310 C   0  0  0  0  0  0  0  0  0  0  0  0
   -0.5378   -1.6207   -2.3496 H   0  0  0  0  0  0  0  0  0  0  0  0
    1.2239   -1.6207   -2.3496 H   0  0  0  0  0  0  0  0  0  0  0  0
    0.3430   -3.1464   -2.3496 H   0  0  0  0  0  0  0  0  0  0  0  0
    0.3430   -0.9087    0.0441 H   0  0  0  0  0  0  0  0  0  0  0  0
    1.2239   -2.6378   -0.0351 H   0  0  0  0  0  0  0  0  0  0  0  0
   -0.5378   -2.6378   -0.0351 H   0  0  0  0  0  0  0  0  0  0  0  0
  1  2  2  3
  1  5  1  0
  1  6  1  0
  2  3  1  0
  2  7  1  0
  3  4  1  0
  3  8  1  0
  4  9  1  0
  4 10  1  0
  4 11  1  0
 12 13  1  0
 12 14  1  0
 12 15  1  0
 12 16  1  0
 13 17  1  0
 13 18  1  0
 13 19  1  0
M  RAD  1   3   2
M  END
>  <reaction>  (12) 
rxn_871

>  <mol_properties>  (12) 
{"1": {"label": "*0", "atom_type": "Cd"}, "2": {"label": "*1", "atom_type": "Cs"}, "11": {"label": "*4", "atom_type": "Cs"}, "12": {"label": "*3", "atom_type": "Cs"}, "16": {"label": "*2", "atom_type": "H0"}}

>  <type>  (12) 
unop_8

>  <geom_source>  (12) 
Heuristics

$$$$

     RDKit          3D

 19 17  0  0  0  0  0  0  0  0999 V2000
    1.3676    1.9289   -0.1870 C   0  0  0  0  0  0  0  0  0  0  0  0
    0.1468    1.4316   -0.3148 C   0  0  0  0  0  0  0  0  0  0  0  0
   -0.5659    0.5495    0.6666 C   0  0  0  0  0  3  0  0  0  0  0  0
    0.2103    0.2046    1.9277 C   0  0  0  0  0  0  0  0  0  0  0  0
    1.7972    2.5594   -0.9550 H   0  0  0  0  0  0  0  0  0  0  0  0
    1.9842    1.7296    0.6814 H   0  0  0  0  0  0  0  0  0  0  0  0
   -0.4188    1.6707   -1.2119 H   0  0  0  0  0  0  0  0  0  0  0  0
   -1.5109    1.0340    0.9360 H   0  0  0  0  0  0  0  0  0  0  0  0
    0.4715    1.1030    2.4903 H   0  0  0  0  0  0  0  0  0  0  0  0
   -0.3833   -0.4373    2.5795 H   0  0  0  0  0  0  0  0  0  0  0  0
    1.1362   -0.3233    1.6910 H   0  0  0  0  0  0  0  0  0  0  0  0
   -0.5659   -1.8961   -1.8080 C   0  0  0  0  0  0  0  0  0  0  0  0
   -0.5659   -1.8961   -0.2853 C   0  0  0  0  0  0  0  0  0  0  0  0
   -1.4468   -1.3876   -2.2039 H   0  0  0  0  0  0  0  0  0  0  0  0
    0.3149   -1.3876   -2.2039 H   0  0  0  0  0  0  0  0  0  0  0  0
   -0.5659   -2.9132   -2.2039 H   0  0  0  0  0  0  0  0  0  0  0  0
   -0.5659   -0.6756    0.1898 H   0  0  0  0  0  0  0  0  0  0  0  0
    0.3149   -2.4047    0.1106 H   0  0  0  0  0  0  0  0  0  0  0  0
   -1.4468   -2.4047    0.1106 H   0  0  0  0  0  0  0  0  0  0  0  0
  1  2  2  3
  1  5  1  0
  1  6  1  0
  2  3  1  0
  2  7  1  0
  3  4  1  0
  3  8  1  0
  4  9  1  0
  4 10  1  0
  4 11  1  0
 12 13  1  0
 12 14  1  0
 12 15  1  0
 12 16  1  0
 13 17  1  0
 13 18  1  0
 13 19  1  0
M  RAD  1   3   2
M  END
>  <reaction>  (13) 
rxn_871

>  <mol_properties>  (13) 
{"1": {"label": "*0", "atom_type": "Cd"}, "2": {"label": "*1", "atom_type": "Cs"}, "11": {"label": "*4", "atom_type": "Cs"}, "12": {"label": "*3", "atom_type": "Cs"}, "16": {"label": "*2", "atom_type": "H0"}}

>  <type>  (13) 
unop_9

>  <geom_source>  (13) 
Heuristics

$$$$

     RDKit          3D

 19 17  0  0  0  0  0  0  0  0999 V2000
   -1.1824    2.2576    0.0678 C   0  0  0  0  0  0  0  0  0  0  0  0
   -1.0169    0.9523    0.2184 C   0  0  0  0  0  0  0  0  0  0  0  0
    0.2175    0.2595    0.7135 C   0  0  0  0  0  3  0  0  0  0  0  0
    1.3836    1.1668    1.0727 C   0  0  0  0  0  0  0  0  0  0  0  0
   -2.1167    2.6637   -0.2987 H   0  0  0  0  0  0  0  0  0  0  0  0
   -0.3999    2.9697    0.3017 H   0  0  0  0  0  0  0  0  0  0  0  0
   -1.8431    0.2926   -0.0349 H   0  0  0  0  0  0  0  0  0  0  0  0
   -0.0583   -0.3480    1.5825 H   0  0  0  0  0  0  0  0  0  0  0  0
    1.1119    1.8656    1.8663 H   0  0  0  0  0  0  0  0  0  0  0  0
    2.2333    0.5789    1.4213 H   0  0  0  0  0  0  0  0  0  0  0  0
    1.7116    1.7505    0.2104 H   0  0  0  0  0  0  0  0  0  0  0  0
    0.2175   -2.1862   -1.7611 C   0  0  0  0  0  0  0  0  0  0  0  0
    0.2175   -2.1862   -0.2383 C   0  0  0  0  0  0  0  0  0  0  0  0
   -0.6633   -1.6776   -2.1569 H   0  0  0  0  0  0  0  0  0  0  0  0
    1.0984   -1.6776   -2.1569 H   0  0  0  0  0  0  0  0  0  0  0  0
    0.2175   -3.2033   -2.1569 H   0  0  0  0  0  0  0  0  0  0  0  0
    0.2175   -0.9657    0.2367 H   0  0  0  0  0  0  0  0  0  0  0  0
    1.0984   -2.6947    0.1576 H   0  0  0  0  0  0  0  0  0  0  0  0
   -0.6633   -2.6948    0.1576 H   0  0  0  0  0  0  0  0  0  0  0  0
  1  2  2  3
  1  5  1  0
  1  6  1  0
  2  3  1  0
  2  7  1  0
  3  4  1  0
  3  8  1  0
  4  9  1  0
  4 10  1  0
  4 11  1  0
 12 13  1  0
 12 14  1  0
 12 15  1  0
 12 16  1  0
 13 17  1  0
 13 18  1  0
 13 19  1  0
M  RAD  1   3   2
M  END
>  <reaction>  (14) 
rxn_871

>  <mol_properties>  (14) 
{"1": {"label": "*0", "atom_type": "Cd"}, "2": {"label": "*1", "atom_type": "Cs"}, "11": {"label": "*4", "atom_type": "Cs"}, "12": {"label": "*3", "atom_type": "Cs"}, "16": {"label": "*2", "atom_type": "H0"}}

>  <type>  (14) 
unop_10

>  <geom_source>  (14) 
Heuristics

$$$$

     RDKit          3D

 19 17  0  0  0  0  0  0  0  0999 V2000
    0.2904    0.7892    2.4871 C   0  0  0  0  0  0  0  0  0  0  0  0
    0.8493    0.8718    1.2893 C   0  0  0  0  0  0  0  0  0  0  0  0
    0.1366    0.8852   -0.0301 C   0  0  0  0  0  3  0  0  0  0  0  0
   -1.3796    0.7937    0.0386 C   0  0  0  0  0  0  0  0  0  0  0  0
    0.8937    0.7869    3.3861 H   0  0  0  0  0  0  0  0  0  0  0  0
   -0.7828    0.7208    2.6201 H   0  0  0  0  0  0  0  0  0  0  0  0
    1.9326    0.9378    1.2264 H   0  0  0  0  0  0  0  0  0  0  0  0
    0.4272    1.7961   -0.5648 H   0  0  0  0  0  0  0  0  0  0  0  0
   -1.8020    1.6303    0.5985 H   0  0  0  0  0  0  0  0  0  0  0  0
   -1.8103    0.8103   -0.9631 H   0  0  0  0  0  0  0  0  0  0  0  0
   -1.6991   -0.1300    0.5251 H   0  0  0  0  0  0  0  0  0  0  0  0
    0.1366   -1.5605   -2.5047 C   0  0  0  0  0  0  0  0  0  0  0  0
    0.1366   -1.5605   -0.9819 C   0  0  0  0  0  0  0  0  0  0  0  0
   -0.7443   -1.0519   -2.9006 H   0  0  0  0  0  0  0  0  0  0  0  0
    1.0174   -1.0519   -2.9006 H   0  0  0  0  0  0  0  0  0  0  0  0
    0.1366   -2.5776   -2.9006 H   0  0  0  0  0  0  0  0  0  0  0  0
    0.1366   -0.3399   -0.5069 H   0  0  0  0  0  0  0  0  0  0  0  0
    1.0174   -2.0690   -0.5861 H   0  0  0  0  0  0  0  0  0  0  0  0
   -0.7443   -2.0690   -0.5861 H   0  0  0  0  0  0  0  0  0  0  0  0
  1  2  2  3
  1  5  1  0
  1  6  1  0
  2  3  1  0
  2  7  1  0
  3  4  1  0
  3  8  1  0
  4  9  1  0
  4 10  1  0
  4 11  1  0
 12 13  1  0
 12 14  1  0
 12 15  1  0
 12 16  1  0
 13 17  1  0
 13 18  1  0
 13 19  1  0
M  RAD  1   3   2
M  END
>  <reaction>  (15) 
rxn_871

>  <mol_properties>  (15) 
{"1": {"label": "*0", "atom_type": "Cd"}, "2": {"label": "*1", "atom_type": "Cs"}, "11": {"label": "*4", "atom_type": "Cs"}, "12": {"label": "*3", "atom_type": "Cs"}, "16": {"label": "*2", "atom_type": "H0"}}

>  <type>  (15) 
unop_11

>  <geom_source>  (15) 
Heuristics

$$$$

     RDKit          3D

 19 17  0  0  0  0  0  0  0  0999 V2000
    0.5415    2.2665   -0.5654 C   0  0  0  0  0  0  0  0  0  0  0  0
   -0.3465    1.3135   -0.3269 C   0  0  0  0  0  0  0  0  0  0  0  0
   -0.3465    0.3621    0.8325 C   0  0  0  0  0  3  0  0  0  0  0  0
    0.7974    0.5269    1.8204 C   0  0  0  0  0  0  0  0  0  0  0  0
    0.4549    2.9060   -1.4347 H   0  0  0  0  0  0  0  0  0  0  0  0
    1.3848    2.4473    0.0905 H   0  0  0  0  0  0  0  0  0  0  0  0
   -1.1694    1.1852   -1.0257 H   0  0  0  0  0  0  0  0  0  0  0  0
   -1.3035    0.4634    1.3560 H   0  0  0  0  0  0  0  0  0  0  0  0
    0.7931    1.5221    2.2692 H   0  0  0  0  0  0  0  0  0  0  0  0
    0.7161   -0.2036    2.6261 H   0  0  0  0  0  0  0  0  0  0  0  0
    1.7644    0.3830    1.3345 H   0  0  0  0  0  0  0  0  0  0  0  0
   -0.3465   -2.0835   -1.6421 C   0  0  0  0  0  0  0  0  0  0  0  0
   -0.3465   -2.0835   -0.1194 C   0  0  0  0  0  0  0  0  0  0  0  0
   -1.2274   -1.5750   -2.0380 H   0  0  0  0  0  0  0  0  0  0  0  0
    0.5343   -1.5750   -2.0380 H   0  0  0  0  0  0  0  0  0  0  0  0
   -0.3465   -3.1007   -2.0380 H   0  0  0  0  0  0  0  0  0  0  0  0
   -0.3465   -0.8630    0.3557 H   0  0  0  0  0  0  0  0  0  0  0  0
    0.5343   -2.5921    0.2765 H   0  0  0  0  0  0  0  0  0  0  0  0
   -1.2274   -2.5921    0.2765 H   0  0  0  0  0  0  0  0  0  0  0  0
  1  2  2  3
  1  5  1  0
  1  6  1  0
  2  3  1  0
  2  7  1  0
  3  4  1  0
  3  8  1  0
  4  9  1  0
  4 10  1  0
  4 11  1  0
 12 13  1  0
 12 14  1  0
 12 15  1  0
 12 16  1  0
 13 17  1  0
 13 18  1  0
 13 19  1  0
M  RAD  1   3   2
M  END
>  <reaction>  (16) 
rxn_871

>  <mol_properties>  (16) 
{"1": {"label": "*0", "atom_type": "Cd"}, "2": {"label": "*1", "atom_type": "Cs"}, "11": {"label": "*4", "atom_type": "Cs"}, "12": {"label": "*3", "atom_type": "Cs"}, "16": {"label": "*2", "atom_type": "H0"}}

>  <type>  (16) 
unop_12

>  <geom_source>  (16) 
Heuristics

$$$$

     RDKit          3D

 19 17  0  0  0  0  0  0  0  0999 V2000
    0.8788   -0.6513   -0.4990 C   0  0  0  0  0  3  0  0  0  0  0  0
    1.4159   -1.4002    0.7159 C   0  0  0  0  0  0  0  0  0  0  0  0
   -2.3973    0.3739    0.5555 C   0  0  0  0  0  0  0  0  0  0  0  0
    1.6416    0.6201   -0.7406 C   0  0  0  0  0  0  0  0  0  0  0  0
   -1.6874   -0.1184   -0.6920 C   0  0  0  0  0  0  0  0  0  0  0  0
    1.5031    1.6803    0.0596 C   0  0  0  0  0  0  0  0  0  0  0  0
    0.9708   -1.3045   -1.3932 H   0  0  0  0  0  0  0  0  0  0  0  0
   -0.5167   -0.3488   -0.3013 H   0  0  0  0  0  0  0  0  0  0  0  0
    0.8524   -2.3481    0.8421 H   0  0  0  0  0  0  0  0  0  0  0  0
    2.4921   -1.6391    0.5776 H   0  0  0  0  0  0  0  0  0  0  0  0
    1.2884   -0.7897    1.6346 H   0  0  0  0  0  0  0  0  0  0  0  0
   -1.9756    1.3540    0.8612 H   0  0  0  0  0  0  0  0  0  0  0  0
   -2.2523   -0.3562    1.3787 H   0  0  0  0  0  0  0  0  0  0  0  0
   -3.4831    0.4883    0.3529 H   0  0  0  0  0  0  0  0  0  0  0  0
    2.2927    0.6902   -1.6070 H   0  0  0  0  0  0  0  0  0  0  0  0
   -1.8205    0.6114   -1.5182 H   0  0  0  0  0  0  0  0  0  0  0  0
   -2.0979   -1.1033   -0.9994 H   0  0  0  0  0  0  0  0  0  0  0  0
    0.8419    1.6487    0.9204 H   0  0  0  0  0  0  0  0  0  0  0  0
    2.0531    2.5925   -0.1477 H   0  0  0  0  0  0  0  0  0  0  0  0
  1  2  1  0
  1  4  1  0
  1  7  1  0
  2  9  1  0
  2 10  1  0
  2 11  1  0
  3  5  1  0
  3 12  1  0
  3 13  1  0
  3 14  1  0
  4  6  2  3
  4 15  1  0
  5  8  1  0
  5 16  1  0
  5 17  1  0
  6 18  1  0
  6 19  1  0
M  RAD  1   1   2
M  END
>  <reaction>  (17) 
rxn_871

>  <mol_properties>  (17) 
{"1": {"label": "*0", "atom_type": "Cd"}, "2": {"label": "*1", "atom_type": "Cs"}, "11": {"label": "*4", "atom_type": "Cs"}, "12": {"label": "*3", "atom_type": "Cs"}, "16": {"label": "*2", "atom_type": "H0"}}

>  <type>  (17) 
unop_13

>  <geom_source>  (17) 
AutoTST

$$$$

     RDKit          3D

 19 17  0  0  0  0  0  0  0  0999 V2000
   -0.4240    2.3824   -0.4646 C   0  0  0  0  0  0  0  0  0  0  0  0
   -0.7506    1.1414   -0.1371 C   0  0  0  0  0  0  0  0  0  0  0  0
   -0.0379    0.2593    0.8442 C   0  0  0  0  0  3  0  0  0  0  0  0
    1.1791    0.8724    1.5188 C   0  0  0  0  0  0  0  0  0  0  0  0
   -1.0046    2.9404   -1.1882 H   0  0  0  0  0  0  0  0  0  0  0  0
    0.4287    2.8893   -0.0286 H   0  0  0  0  0  0  0  0  0  0  0  0
   -1.6187    0.6914   -0.6124 H   0  0  0  0  0  0  0  0  0  0  0  0
   -0.7603   -0.0576    1.6043 H   0  0  0  0  0  0  0  0  0  0  0  0
    0.9103    1.7671    2.0837 H   0  0  0  0  0  0  0  0  0  0  0  0
    1.6311    0.1624    2.2123 H   0  0  0  0  0  0  0  0  0  0  0  0
    1.9381    1.1543    0.7864 H   0  0  0  0  0  0  0  0  0  0  0  0
   -0.0379   -2.1863   -1.6304 C   0  0  0  0  0  0  0  0  0  0  0  0
   -0.0379   -2.1863   -0.1076 C   0  0  0  0  0  0  0  0  0  0  0  0
   -0.9187   -1.6778   -2.0262 H   0  0  0  0  0  0  0  0  0  0  0  0
    0.8430   -1.6778   -2.0262 H   0  0  0  0  0  0  0  0  0  0  0  0
   -0.0379   -3.2034   -2.0262 H   0  0  0  0  0  0  0  0  0  0  0  0
   -0.0379   -0.9658    0.3674 H   0  0  0  0  0  0  0  0  0  0  0  0
    0.8430   -2.6949    0.2883 H   0  0  0  0  0  0  0  0  0  0  0  0
   -0.9187   -2.6949    0.2883 H   0  0  0  0  0  0  0  0  0  0  0  0
  1  2  2  3
  1  5  1  0
  1  6  1  0
  2  3  1  0
  2  7  1  0
  3  4  1  0
  3  8  1  0
  4  9  1  0
  4 10  1  0
  4 11  1  0
 12 13  1  0
 12 14  1  0
 12 15  1  0
 12 16  1  0
 13 17  1  0
 13 18  1  0
 13 19  1  0
M  RAD  1   3   2
M  END
>  <reaction>  (18) 
rxn_871

>  <mol_properties>  (18) 
{"1": {"label": "*0", "atom_type": "Cd"}, "2": {"label": "*1", "atom_type": "Cs"}, "11": {"label": "*4", "atom_type": "Cs"}, "12": {"label": "*3", "atom_type": "Cs"}, "16": {"label": "*2", "atom_type": "H0"}}

>  <type>  (18) 
unop_14

>  <geom_source>  (18) 
gaussian_log

$$$$
