
     RDKit          3D

 14 13  0  0  0  0  0  0  0  0999 V2000
   -0.7647   -1.2352   -0.0349 C   0  0  0  0  0  0  0  0  0  0  0  0
    0.0570   -0.0126    0.3624 C   0  0  0  0  0  0  0  0  0  0  0  0
    1.4161   -0.0194   -0.3308 C   0  0  0  0  0  0  0  0  0  0  0  0
   -0.7022    1.2765    0.0629 C   0  0  0  0  0  0  0  0  0  0  0  0
   -0.2387   -2.1618    0.2040 H   0  0  0  0  0  0  0  0  0  0  0  0
   -0.9625   -1.2316   -1.1108 H   0  0  0  0  0  0  0  0  0  0  0  0
   -1.7273   -1.2512    0.4806 H   0  0  0  0  0  0  0  0  0  0  0  0
    0.2295   -0.0590    1.4432 H   0  0  0  0  0  0  0  0  0  0  0  0
    1.2933    0.0260   -1.4168 H   0  0  0  0  0  0  0  0  0  0  0  0
    2.0206    0.8381   -0.0279 H   0  0  0  0  0  0  0  0  0  0  0  0
    1.9767   -0.9268   -0.0966 H   0  0  0  0  0  0  0  0  0  0  0  0
   -1.6639    1.3001    0.5798 H   0  0  0  0  0  0  0  0  0  0  0  0
   -0.8977    1.3664   -1.0096 H   0  0  0  0  0  0  0  0  0  0  0  0
   -0.1313    2.1545    0.3722 H   0  0  0  0  0  0  0  0  0  0  0  0
  1  2  1  0
  1  5  1  0
  1  6  1  0
  1  7  1  0
  2  3  1  0
  2  4  1  0
  2  8  1  0
  3  9  1  0
  3 10  1  0
  3 11  1  0
  4 12  1  0
  4 13  1  0
  4 14  1  0
M  END
>  <reaction>  (1) 
rxn_974

>  <mol_properties>  (1) 
{"1": {"label": "donator", "atom_type": "Cs"}, "7": {"label": "d_hydrogen", "atom_type": "H0"}}

>  <type>  (1) 
r1h

$$$$

     RDKit          3D

  8  7  0  0  0  0  0  0  0  0999 V2000
   -1.0607    0.1793   -0.1423 C   0  0  0  0  0  0  0  0  0  0  0  0
    0.2796    0.0327    0.4820 C   0  0  0  0  0  3  0  0  0  0  0  0
    0.8817   -1.4663    1.0791 S   0  0  0  0  0  0  0  0  0  0  0  0
   -1.3043    1.2328   -0.2850 H   0  0  0  0  0  0  0  0  0  0  0  0
   -1.8444   -0.2641    0.4799 H   0  0  0  0  0  0  0  0  0  0  0  0
   -1.1164   -0.3100   -1.1237 H   0  0  0  0  0  0  0  0  0  0  0  0
    1.0449    0.7826    0.3391 H   0  0  0  0  0  0  0  0  0  0  0  0
   -0.2993   -2.0726    1.2718 H   0  0  0  0  0  0  0  0  0  0  0  0
  1  2  1  0
  1  4  1  0
  1  5  1  0
  1  6  1  0
  2  3  1  0
  2  7  1  0
  3  8  1  0
M  RAD  1   2   2
M  END
>  <reaction>  (2) 
rxn_974

>  <mol_properties>  (2) 
{"1": {"label": "acceptor", "atom_type": "Cs"}}

>  <type>  (2) 
r2

$$$$

     RDKit          3D

  9  8  0  0  0  0  0  0  0  0999 V2000
   -0.8818   -0.3578    0.1297 C   0  0  0  0  0  0  0  0  0  0  0  0
    0.6153   -0.3021   -0.1188 C   0  0  0  0  0  0  0  0  0  0  0  0
    1.5354   -1.7170    0.5545 S   0  0  0  0  0  0  0  0  0  0  0  0
   -1.1018   -0.3317    1.1984 H   0  0  0  0  0  0  0  0  0  0  0  0
   -1.3114   -1.2723   -0.2799 H   0  0  0  0  0  0  0  0  0  0  0  0
   -1.3767    0.4976   -0.3363 H   0  0  0  0  0  0  0  0  0  0  0  0
    1.0467    0.6194    0.2718 H   0  0  0  0  0  0  0  0  0  0  0  0
    0.8295   -0.3275   -1.1882 H   0  0  0  0  0  0  0  0  0  0  0  0
    1.2306   -1.5077    1.8423 H   0  0  0  0  0  0  0  0  0  0  0  0
  1  2  1  0
  1  4  1  0
  1  5  1  0
  1  6  1  0
  2  3  1  0
  2  7  1  0
  2  8  1  0
  3  9  1  0
M  END
>  <reaction>  (3) 
rxn_974

>  <mol_properties>  (3) 
{"1": {"label": "acceptor", "atom_type": "Cs"}, "8": {"label": "a_hydrogen", "atom_type": "H0"}}

>  <type>  (3) 
r2h

$$$$

     RDKit          3D

 22 20  0  0  0  0  0  0  0  0999 V2000
    2.1826    0.3380   -0.1646 C   0  0  0  0  0  0  0  0  0  0  0  0
    1.0074   -0.3847    0.4408 C   0  0  0  0  0  3  0  0  0  0  0  0
    0.8193   -2.1102    0.0420 S   0  0  0  0  0  0  0  0  0  0  0  0
    2.1825    1.3850    0.1463 H   0  0  0  0  0  0  0  0  0  0  0  0
    2.1336    0.3130   -1.2560 H   0  0  0  0  0  0  0  0  0  0  0  0
    3.1342   -0.1090    0.1357 H   0  0  0  0  0  0  0  0  0  0  0  0
    0.9399   -0.2920    1.5240 H   0  0  0  0  0  0  0  0  0  0  0  0
    0.8774   -1.9755   -1.2909 H   0  0  0  0  0  0  0  0  0  0  0  0
   -1.2345    0.4884   -1.9131 C   0  0  0  0  0  0  0  0  0  0  0  0
   -1.1719    0.9048   -0.4644 C   0  0  0  0  0  0  0  0  0  0  0  0
   -0.8804    2.3700   -0.2527 C   0  0  0  0  0  0  0  0  0  0  0  0
   -2.2977    0.3639    0.3813 C   0  0  0  0  0  0  0  0  0  0  0  0
   -0.3352    0.7924   -2.4547 H   0  0  0  0  0  0  0  0  0  0  0  0
   -2.0920    0.9505   -2.4183 H   0  0  0  0  0  0  0  0  0  0  0  0
   -1.3436   -0.5941   -2.0076 H   0  0  0  0  0  0  0  0  0  0  0  0
   -0.0949    0.2639    0.0076 H   0  0  0  0  0  0  0  0  0  0  0  0
   -1.7242    2.9893   -0.5818 H   0  0  0  0  0  0  0  0  0  0  0  0
   -0.7049    2.5922    0.8025 H   0  0  0  0  0  0  0  0  0  0  0  0
   -0.0017    2.6878   -0.8185 H   0  0  0  0  0  0  0  0  0  0  0  0
   -2.3621   -0.7233    0.3001 H   0  0  0  0  0  0  0  0  0  0  0  0
   -3.2621    0.7804    0.0646 H   0  0  0  0  0  0  0  0  0  0  0  0
   -2.1604    0.6182    1.4347 H   0  0  0  0  0  0  0  0  0  0  0  0
  1  2  1  0
  1  4  1  0
  1  5  1  0
  1  6  1  0
  2  3  1  0
  2  7  1  0
  3  8  1  0
  9 10  1  0
  9 13  1  0
  9 14  1  0
  9 15  1  0
 10 11  1  0
 10 12  1  0
 10 16  1  0
 11 17  1  0
 11 18  1  0
 11 19  1  0
 12 20  1  0
 12 21  1  0
 12 22  1  0
M  RAD  1   2   2
M  END
>  <reaction>  (4) 
rxn_974

>  <mol_properties>  (4) 
{"1": {"label": "*3", "atom_type": "Cs"}, "2": {"label": "*4", "atom_type": "S2s"}, "8": {"label": "*0", "atom_type": "Cs"}, "9": {"label": "*1", "atom_type": "Cs"}, "15": {"label": "*2", "atom_type": "H0"}}

>  <type>  (4) 
ts

$$$$

     RDKit          3D

 22 20  0  0  0  0  0  0  0  0999 V2000
    1.7085    0.5640    1.3502 C   0  0  0  0  0  0  0  0  0  0  0  0
    0.8618   -0.3736    0.5074 C   0  0  0  0  0  0  0  0  0  0  0  0
    1.7532   -1.8331   -0.1067 S   0  0  0  0  0  0  0  0  0  0  0  0
    1.1025    1.3943    1.7206 H   0  0  0  0  0  0  0  0  0  0  0  0
    2.5290    0.9825    0.7645 H   0  0  0  0  0  0  0  0  0  0  0  0
    2.1381    0.0402    2.2044 H   0  0  0  0  0  0  0  0  0  0  0  0
    0.0430   -0.7881    1.0972 H   0  0  0  0  0  0  0  0  0  0  0  0
    2.6560   -1.1711   -0.8428 H   0  0  0  0  0  0  0  0  0  0  0  0
   -1.3399    0.8001   -1.8254 C   0  0  0  0  0  0  0  0  0  0  0  0
   -1.3399    0.8001   -0.2997 C   0  0  0  0  0  3  0  0  0  0  0  0
   -1.3399    2.2248    0.2464 C   0  0  0  0  0  0  0  0  0  0  0  0
   -2.5227    0.0061    0.2464 C   0  0  0  0  0  0  0  0  0  0  0  0
   -0.4791    1.3424   -2.2224 H   0  0  0  0  0  0  0  0  0  0  0  0
   -2.2438    1.2821   -2.2092 H   0  0  0  0  0  0  0  0  0  0  0  0
   -1.3104   -0.2167   -2.2224 H   0  0  0  0  0  0  0  0  0  0  0  0
   -0.2362    0.2118    0.1049 H   0  0  0  0  0  0  0  0  0  0  0  0
   -2.2439    2.7556   -0.0662 H   0  0  0  0  0  0  0  0  0  0  0  0
   -1.3103    2.2316    1.3380 H   0  0  0  0  0  0  0  0  0  0  0  0
   -0.4792    2.7896   -0.1179 H   0  0  0  0  0  0  0  0  0  0  0  0
   -2.5120   -1.0233   -0.1180 H   0  0  0  0  0  0  0  0  0  0  0  0
   -3.4673    0.4608   -0.0661 H   0  0  0  0  0  0  0  0  0  0  0  0
   -2.5118   -0.0224    1.3380 H   0  0  0  0  0  0  0  0  0  0  0  0
  1  2  1  0
  1  4  1  0
  1  5  1  0
  1  6  1  0
  2  3  1  0
  2  7  1  0
  2 16  1  0
  3  8  1  0
  9 10  1  0
  9 13  1  0
  9 14  1  0
  9 15  1  0
 10 11  1  0
 10 12  1  0
 11 17  1  0
 11 18  1  0
 11 19  1  0
 12 20  1  0
 12 21  1  0
 12 22  1  0
M  RAD  1  10   2
M  END
>  <reaction>  (5) 
rxn_974

>  <mol_properties>  (5) 
{"1": {"label": "*3", "atom_type": "Cs"}, "2": {"label": "*4", "atom_type": "S2s"}, "8": {"label": "*0", "atom_type": "Cs"}, "9": {"label": "*1", "atom_type": "Cs"}, "15": {"label": "*2", "atom_type": "H0"}}

>  <type>  (5) 
unop_1

>  <geom_source>  (5) 
Heuristics

$$$$

     RDKit          3D

 22 20  0  0  0  0  0  0  0  0999 V2000
    2.2099   -0.0212   -0.6267 C   0  0  0  0  0  0  0  0  0  0  0  0
    1.0818   -0.2217    0.3701 C   0  0  0  0  0  0  0  0  0  0  0  0
    1.0495   -1.8686    1.1372 S   0  0  0  0  0  0  0  0  0  0  0  0
    2.1961    0.9995   -1.0163 H   0  0  0  0  0  0  0  0  0  0  0  0
    2.1106   -0.7045   -1.4720 H   0  0  0  0  0  0  0  0  0  0  0  0
    3.1789   -0.2013   -0.1606 H   0  0  0  0  0  0  0  0  0  0  0  0
    1.1854    0.4642    1.2121 H   0  0  0  0  0  0  0  0  0  0  0  0
    0.8554   -2.5663    0.0099 H   0  0  0  0  0  0  0  0  0  0  0  0
   -1.1199    0.9520   -1.9627 C   0  0  0  0  0  0  0  0  0  0  0  0
   -1.1199    0.9520   -0.4370 C   0  0  0  0  0  3  0  0  0  0  0  0
   -1.1199    2.3767    0.1090 C   0  0  0  0  0  0  0  0  0  0  0  0
   -2.3027    0.1580    0.1090 C   0  0  0  0  0  0  0  0  0  0  0  0
   -0.2592    1.4943   -2.3598 H   0  0  0  0  0  0  0  0  0  0  0  0
   -2.0238    1.4340   -2.3465 H   0  0  0  0  0  0  0  0  0  0  0  0
   -1.0904   -0.0648   -2.3598 H   0  0  0  0  0  0  0  0  0  0  0  0
   -0.0162    0.3636   -0.0324 H   0  0  0  0  0  0  0  0  0  0  0  0
   -2.0239    2.9075   -0.2036 H   0  0  0  0  0  0  0  0  0  0  0  0
   -1.0903    2.3835    1.2006 H   0  0  0  0  0  0  0  0  0  0  0  0
   -0.2592    2.9415   -0.2552 H   0  0  0  0  0  0  0  0  0  0  0  0
   -2.2920   -0.8714   -0.2554 H   0  0  0  0  0  0  0  0  0  0  0  0
   -3.2473    0.6127   -0.2035 H   0  0  0  0  0  0  0  0  0  0  0  0
   -2.2918    0.1295    1.2006 H   0  0  0  0  0  0  0  0  0  0  0  0
  1  2  1  0
  1  4  1  0
  1  5  1  0
  1  6  1  0
  2  3  1  0
  2  7  1  0
  2 16  1  0
  3  8  1  0
  9 10  1  0
  9 13  1  0
  9 14  1  0
  9 15  1  0
 10 11  1  0
 10 12  1  0
 11 17  1  0
 11 18  1  0
 11 19  1  0
 12 20  1  0
 12 21  1  0
 12 22  1  0
M  RAD  1  10   2
M  END
>  <reaction>  (6) 
rxn_974

>  <mol_properties>  (6) 
{"1": {"label": "*3", "atom_type": "Cs"}, "2": {"label": "*4", "atom_type": "S2s"}, "8": {"label": "*0", "atom_type": "Cs"}, "9": {"label": "*1", "atom_type": "Cs"}, "15": {"label": "*2", "atom_type": "H0"}}

>  <type>  (6) 
unop_2

>  <geom_source>  (6) 
Heuristics

$$$$

     RDKit          3D

 22 20  0  0  0  0  0  0  0  0999 V2000
    1.2520    0.0124    1.8924 C   0  0  0  0  0  0  0  0  0  0  0  0
    0.7897   -0.5431    0.5568 C   0  0  0  0  0  0  0  0  0  0  0  0
    2.1279   -1.2092   -0.4764 S   0  0  0  0  0  0  0  0  0  0  0  0
    0.3961    0.3558    2.4783 H   0  0  0  0  0  0  0  0  0  0  0  0
    1.9242    0.8607    1.7513 H   0  0  0  0  0  0  0  0  0  0  0  0
    1.7838   -0.7461    2.4674 H   0  0  0  0  0  0  0  0  0  0  0  0
    0.1176   -1.3898    0.7036 H   0  0  0  0  0  0  0  0  0  0  0  0
    2.8079   -0.0632   -0.6158 H   0  0  0  0  0  0  0  0  0  0  0  0
   -1.4120    0.6307   -1.7761 C   0  0  0  0  0  0  0  0  0  0  0  0
   -1.4120    0.6307   -0.2503 C   0  0  0  0  0  3  0  0  0  0  0  0
   -1.4120    2.0553    0.2957 C   0  0  0  0  0  0  0  0  0  0  0  0
   -2.5948   -0.1634    0.2957 C   0  0  0  0  0  0  0  0  0  0  0  0
   -0.5512    1.1729   -2.1731 H   0  0  0  0  0  0  0  0  0  0  0  0
   -2.3159    1.1126   -2.1598 H   0  0  0  0  0  0  0  0  0  0  0  0
   -1.3825   -0.3862   -2.1731 H   0  0  0  0  0  0  0  0  0  0  0  0
   -0.3083    0.0423    0.1542 H   0  0  0  0  0  0  0  0  0  0  0  0
   -2.3159    2.5861   -0.0169 H   0  0  0  0  0  0  0  0  0  0  0  0
   -1.3824    2.0621    1.3873 H   0  0  0  0  0  0  0  0  0  0  0  0
   -0.5513    2.6202   -0.0685 H   0  0  0  0  0  0  0  0  0  0  0  0
   -2.5841   -1.1928   -0.0687 H   0  0  0  0  0  0  0  0  0  0  0  0
   -3.5394    0.2914   -0.0168 H   0  0  0  0  0  0  0  0  0  0  0  0
   -2.5839   -0.1918    1.3873 H   0  0  0  0  0  0  0  0  0  0  0  0
  1  2  1  0
  1  4  1  0
  1  5  1  0
  1  6  1  0
  2  3  1  0
  2  7  1  0
  2 16  1  0
  3  8  1  0
  9 10  1  0
  9 13  1  0
  9 14  1  0
  9 15  1  0
 10 11  1  0
 10 12  1  0
 11 17  1  0
 11 18  1  0
 11 19  1  0
 12 20  1  0
 12 21  1  0
 12 22  1  0
M  RAD  1  10   2
M  END
>  <reaction>  (7) 
rxn_974

>  <mol_properties>  (7) 
{"1": {"label": "*3", "atom_type": "Cs"}, "2": {"label": "*4", "atom_type": "S2s"}, "8": {"label": "*0", "atom_type": "Cs"}, "9": {"label": "*1", "atom_type": "Cs"}, "15": {"label": "*2", "atom_type": "H0"}}

>  <type>  (7) 
unop_3

>  <geom_source>  (7) 
Heuristics

$$$$

     RDKit          3D

 22 20  0  0  0  0  0  0  0  0999 V2000
    1.5022   -1.9391   -0.4416 C   0  0  0  0  0  0  0  0  0  0  0  0
    1.4244   -0.5086    0.0623 C   0  0  0  0  0  0  0  0  0  0  0  0
    0.6615   -0.3369    1.7025 S   0  0  0  0  0  0  0  0  0  0  0  0
    2.0079   -1.9744   -1.4095 H   0  0  0  0  0  0  0  0  0  0  0  0
    0.5047   -2.3636   -0.5683 H   0  0  0  0  0  0  0  0  0  0  0  0
    2.0497   -2.5702    0.2589 H   0  0  0  0  0  0  0  0  0  0  0  0
    2.4238   -0.0890    0.1862 H   0  0  0  0  0  0  0  0  0  0  0  0
   -0.5432   -0.8199    1.3699 H   0  0  0  0  0  0  0  0  0  0  0  0
   -0.7773    0.6652   -2.2705 C   0  0  0  0  0  0  0  0  0  0  0  0
   -0.7773    0.6652   -0.7448 C   0  0  0  0  0  3  0  0  0  0  0  0
   -0.7773    2.0898   -0.1988 C   0  0  0  0  0  0  0  0  0  0  0  0
   -1.9601   -0.1289   -0.1988 C   0  0  0  0  0  0  0  0  0  0  0  0
    0.0834    1.2074   -2.6676 H   0  0  0  0  0  0  0  0  0  0  0  0
   -1.6813    1.1471   -2.6543 H   0  0  0  0  0  0  0  0  0  0  0  0
   -0.7479   -0.3517   -2.6676 H   0  0  0  0  0  0  0  0  0  0  0  0
    0.3264    0.0768   -0.3402 H   0  0  0  0  0  0  0  0  0  0  0  0
   -1.6813    2.6206   -0.5114 H   0  0  0  0  0  0  0  0  0  0  0  0
   -0.7478    2.0966    0.8928 H   0  0  0  0  0  0  0  0  0  0  0  0
    0.0834    2.6547   -0.5630 H   0  0  0  0  0  0  0  0  0  0  0  0
   -1.9495   -1.1583   -0.5632 H   0  0  0  0  0  0  0  0  0  0  0  0
   -2.9047    0.3259   -0.5113 H   0  0  0  0  0  0  0  0  0  0  0  0
   -1.9492   -0.1573    0.8928 H   0  0  0  0  0  0  0  0  0  0  0  0
  1  2  1  0
  1  4  1  0
  1  5  1  0
  1  6  1  0
  2  3  1  0
  2  7  1  0
  2 16  1  0
  3  8  1  0
  9 10  1  0
  9 13  1  0
  9 14  1  0
  9 15  1  0
 10 11  1  0
 10 12  1  0
 11 17  1  0
 11 18  1  0
 11 19  1  0
 12 20  1  0
 12 21  1  0
 12 22  1  0
M  RAD  1  10   2
M  END
>  <reaction>  (8) 
rxn_974

>  <mol_properties>  (8) 
{"1": {"label": "*3", "atom_type": "Cs"}, "2": {"label": "*4", "atom_type": "S2s"}, "8": {"label": "*0", "atom_type": "Cs"}, "9": {"label": "*1", "atom_type": "Cs"}, "15": {"label": "*2", "atom_type": "H0"}}

>  <type>  (8) 
unop_4

>  <geom_source>  (8) 
Heuristics

$$$$

     RDKit          3D

 22 20  0  0  0  0  0  0  0  0999 V2000
    0.8967   -0.9108    1.9826 C   0  0  0  0  0  0  0  0  0  0  0  0
    0.8188   -0.8693    0.4665 C   0  0  0  0  0  0  0  0  0  0  0  0
    2.2418   -0.0685   -0.3309 S   0  0  0  0  0  0  0  0  0  0  0  0
    0.0342   -1.4410    2.3933 H   0  0  0  0  0  0  0  0  0  0  0  0
    0.9017    0.0972    2.4013 H   0  0  0  0  0  0  0  0  0  0  0  0
    1.8043   -1.4167    2.3129 H   0  0  0  0  0  0  0  0  0  0  0  0
    0.8132   -1.8790    0.0533 H   0  0  0  0  0  0  0  0  0  0  0  0
    2.0705    1.1428    0.2154 H   0  0  0  0  0  0  0  0  0  0  0  0
   -1.3828    0.3045   -1.8664 C   0  0  0  0  0  0  0  0  0  0  0  0
   -1.3828    0.3045   -0.3406 C   0  0  0  0  0  3  0  0  0  0  0  0
   -1.3828    1.7291    0.2054 C   0  0  0  0  0  0  0  0  0  0  0  0
   -2.5657   -0.4896    0.2054 C   0  0  0  0  0  0  0  0  0  0  0  0
   -0.5221    0.8467   -2.2634 H   0  0  0  0  0  0  0  0  0  0  0  0
   -2.2868    0.7864   -2.2501 H   0  0  0  0  0  0  0  0  0  0  0  0
   -1.3534   -0.7124   -2.2634 H   0  0  0  0  0  0  0  0  0  0  0  0
   -0.2792   -0.2839    0.0640 H   0  0  0  0  0  0  0  0  0  0  0  0
   -2.2868    2.2600   -0.1072 H   0  0  0  0  0  0  0  0  0  0  0  0
   -1.3533    1.7359    1.2970 H   0  0  0  0  0  0  0  0  0  0  0  0
   -0.5222    2.2940   -0.1588 H   0  0  0  0  0  0  0  0  0  0  0  0
   -2.5550   -1.5190   -0.1590 H   0  0  0  0  0  0  0  0  0  0  0  0
   -3.5103   -0.0348   -0.1071 H   0  0  0  0  0  0  0  0  0  0  0  0
   -2.5548   -0.5180    1.2970 H   0  0  0  0  0  0  0  0  0  0  0  0
  1  2  1  0
  1  4  1  0
  1  5  1  0
  1  6  1  0
  2  3  1  0
  2  7  1  0
  2 16  1  0
  3  8  1  0
  9 10  1  0
  9 13  1  0
  9 14  1  0
  9 15  1  0
 10 11  1  0
 10 12  1  0
 11 17  1  0
 11 18  1  0
 11 19  1  0
 12 20  1  0
 12 21  1  0
 12 22  1  0
M  RAD  1  10   2
M  END
>  <reaction>  (9) 
rxn_974

>  <mol_properties>  (9) 
{"1": {"label": "*3", "atom_type": "Cs"}, "2": {"label": "*4", "atom_type": "S2s"}, "8": {"label": "*0", "atom_type": "Cs"}, "9": {"label": "*1", "atom_type": "Cs"}, "15": {"label": "*2", "atom_type": "H0"}}

>  <type>  (9) 
unop_5

>  <geom_source>  (9) 
Heuristics

$$$$

     RDKit          3D

 22 20  0  0  0  0  0  0  0  0999 V2000
    1.1855   -2.2210    0.1971 C   0  0  0  0  0  0  0  0  0  0  0  0
    1.3890   -0.7256    0.0276 C   0  0  0  0  0  0  0  0  0  0  0  0
    0.8896    0.2622    1.4686 S   0  0  0  0  0  0  0  0  0  0  0  0
    1.5442   -2.7561   -0.6854 H   0  0  0  0  0  0  0  0  0  0  0  0
    0.1283   -2.4592    0.3273 H   0  0  0  0  0  0  0  0  0  0  0  0
    1.7236   -2.5915    1.0699 H   0  0  0  0  0  0  0  0  0  0  0  0
    2.4469   -0.4933   -0.1031 H   0  0  0  0  0  0  0  0  0  0  0  0
   -0.4071   -0.0746    1.4518 H   0  0  0  0  0  0  0  0  0  0  0  0
   -0.8127    0.4481   -2.3052 C   0  0  0  0  0  0  0  0  0  0  0  0
   -0.8127    0.4481   -0.7795 C   0  0  0  0  0  3  0  0  0  0  0  0
   -0.8127    1.8727   -0.2334 C   0  0  0  0  0  0  0  0  0  0  0  0
   -1.9955   -0.3460   -0.2334 C   0  0  0  0  0  0  0  0  0  0  0  0
    0.0480    0.9904   -2.7022 H   0  0  0  0  0  0  0  0  0  0  0  0
   -1.7167    0.9301   -2.6890 H   0  0  0  0  0  0  0  0  0  0  0  0
   -0.7832   -0.5688   -2.7022 H   0  0  0  0  0  0  0  0  0  0  0  0
    0.2910   -0.1403   -0.3749 H   0  0  0  0  0  0  0  0  0  0  0  0
   -1.7167    2.4036   -0.5460 H   0  0  0  0  0  0  0  0  0  0  0  0
   -0.7832    1.8795    0.8582 H   0  0  0  0  0  0  0  0  0  0  0  0
    0.0480    2.4376   -0.5977 H   0  0  0  0  0  0  0  0  0  0  0  0
   -1.9848   -1.3753   -0.5978 H   0  0  0  0  0  0  0  0  0  0  0  0
   -2.9401    0.1088   -0.5459 H   0  0  0  0  0  0  0  0  0  0  0  0
   -1.9846   -0.3744    0.8582 H   0  0  0  0  0  0  0  0  0  0  0  0
  1  2  1  0
  1  4  1  0
  1  5  1  0
  1  6  1  0
  2  3  1  0
  2  7  1  0
  2 16  1  0
  3  8  1  0
  9 10  1  0
  9 13  1  0
  9 14  1  0
  9 15  1  0
 10 11  1  0
 10 12  1  0
 11 17  1  0
 11 18  1  0
 11 19  1  0
 12 20  1  0
 12 21  1  0
 12 22  1  0
M  RAD  1  10   2
M  END
>  <reaction>  (10) 
rxn_974

>  <mol_properties>  (10) 
{"1": {"label": "*3", "atom_type": "Cs"}, "2": {"label": "*4", "atom_type": "S2s"}, "8": {"label": "*0", "atom_type": "Cs"}, "9": {"label": "*1", "atom_type": "Cs"}, "15": {"label": "*2", "atom_type": "H0"}}

>  <type>  (10) 
unop_6

>  <geom_source>  (10) 
Heuristics

$$$$

     RDKit          3D

 22 20  0  0  0  0  0  0  0  0999 V2000
    0.9633   -2.1465    0.9231 C   0  0  0  0  0  0  0  0  0  0  0  0
    1.2699   -0.9209    0.0803 C   0  0  0  0  0  0  0  0  0  0  0  0
    1.2512    0.6430    1.0053 S   0  0  0  0  0  0  0  0  0  0  0  0
    1.0329   -3.0524    0.3162 H   0  0  0  0  0  0  0  0  0  0  0  0
   -0.0462   -2.0950    1.3349 H   0  0  0  0  0  0  0  0  0  0  0  0
    1.6622   -2.2323    1.7555 H   0  0  0  0  0  0  0  0  0  0  0  0
    2.2793   -0.9780   -0.3295 H   0  0  0  0  0  0  0  0  0  0  0  0
   -0.0357    0.5950    1.3747 H   0  0  0  0  0  0  0  0  0  0  0  0
   -0.9318    0.2528   -2.2525 C   0  0  0  0  0  0  0  0  0  0  0  0
   -0.9318    0.2528   -0.7268 C   0  0  0  0  0  3  0  0  0  0  0  0
   -0.9318    1.6775   -0.1807 C   0  0  0  0  0  0  0  0  0  0  0  0
   -2.1146   -0.5412   -0.1808 C   0  0  0  0  0  0  0  0  0  0  0  0
   -0.0711    0.7951   -2.6496 H   0  0  0  0  0  0  0  0  0  0  0  0
   -1.8358    0.7348   -2.6363 H   0  0  0  0  0  0  0  0  0  0  0  0
   -0.9024   -0.7640   -2.6496 H   0  0  0  0  0  0  0  0  0  0  0  0
    0.1719   -0.3356   -0.3222 H   0  0  0  0  0  0  0  0  0  0  0  0
   -1.8358    2.2083   -0.4934 H   0  0  0  0  0  0  0  0  0  0  0  0
   -0.9023    1.6843    0.9109 H   0  0  0  0  0  0  0  0  0  0  0  0
   -0.0711    2.2423   -0.5450 H   0  0  0  0  0  0  0  0  0  0  0  0
   -2.1040   -1.5706   -0.5452 H   0  0  0  0  0  0  0  0  0  0  0  0
   -3.0592   -0.0865   -0.4932 H   0  0  0  0  0  0  0  0  0  0  0  0
   -2.1037   -0.5697    0.9108 H   0  0  0  0  0  0  0  0  0  0  0  0
  1  2  1  0
  1  4  1  0
  1  5  1  0
  1  6  1  0
  2  3  1  0
  2  7  1  0
  2 16  1  0
  3  8  1  0
  9 10  1  0
  9 13  1  0
  9 14  1  0
  9 15  1  0
 10 11  1  0
 10 12  1  0
 11 17  1  0
 11 18  1  0
 11 19  1  0
 12 20  1  0
 12 21  1  0
 12 22  1  0
M  RAD  1  10   2
M  END
>  <reaction>  (11) 
rxn_974

>  <mol_properties>  (11) 
{"1": {"label": "*3", "atom_type": "Cs"}, "2": {"label": "*4", "atom_type": "S2s"}, "8": {"label": "*0", "atom_type": "Cs"}, "9": {"label": "*1", "atom_type": "Cs"}, "15": {"label": "*2", "atom_type": "H0"}}

>  <type>  (11) 
unop_7

>  <geom_source>  (11) 
Heuristics

$$$$

     RDKit          3D

 22 20  0  0  0  0  0  0  0  0999 V2000
    2.0480    0.6963    0.6199 C   0  0  0  0  0  0  0  0  0  0  0  0
    0.9199   -0.3062    0.4504 C   0  0  0  0  0  0  0  0  0  0  0  0
    1.4674   -2.0369    0.3679 S   0  0  0  0  0  0  0  0  0  0  0  0
    1.6471    1.7091    0.7048 H   0  0  0  0  0  0  0  0  0  0  0  0
    2.7232    0.6733   -0.2373 H   0  0  0  0  0  0  0  0  0  0  0  0
    2.6323    0.4785    1.5142 H   0  0  0  0  0  0  0  0  0  0  0  0
    0.2476   -0.2784    1.3092 H   0  0  0  0  0  0  0  0  0  0  0  0
    2.2065   -1.9180   -0.7433 H   0  0  0  0  0  0  0  0  0  0  0  0
   -1.2818    0.8675   -1.8824 C   0  0  0  0  0  0  0  0  0  0  0  0
   -1.2818    0.8675   -0.3567 C   0  0  0  0  0  3  0  0  0  0  0  0
   -1.2818    2.2922    0.1894 C   0  0  0  0  0  0  0  0  0  0  0  0
   -2.4646    0.0734    0.1894 C   0  0  0  0  0  0  0  0  0  0  0  0
   -0.4211    1.4098   -2.2794 H   0  0  0  0  0  0  0  0  0  0  0  0
   -2.1858    1.3495   -2.2662 H   0  0  0  0  0  0  0  0  0  0  0  0
   -1.2523   -0.1493   -2.2794 H   0  0  0  0  0  0  0  0  0  0  0  0
   -0.1781    0.2791    0.0479 H   0  0  0  0  0  0  0  0  0  0  0  0
   -2.1858    2.8230   -0.1232 H   0  0  0  0  0  0  0  0  0  0  0  0
   -1.2523    2.2989    1.2810 H   0  0  0  0  0  0  0  0  0  0  0  0
   -0.4211    2.8570   -0.1749 H   0  0  0  0  0  0  0  0  0  0  0  0
   -2.4539   -0.9559   -0.1750 H   0  0  0  0  0  0  0  0  0  0  0  0
   -3.4092    0.5282   -0.1231 H   0  0  0  0  0  0  0  0  0  0  0  0
   -2.4537    0.0450    1.2810 H   0  0  0  0  0  0  0  0  0  0  0  0
  1  2  1  0
  1  4  1  0
  1  5  1  0
  1  6  1  0
  2  3  1  0
  2  7  1  0
  2 16  1  0
  3  8  1  0
  9 10  1  0
  9 13  1  0
  9 14  1  0
  9 15  1  0
 10 11  1  0
 10 12  1  0
 11 17  1  0
 11 18  1  0
 11 19  1  0
 12 20  1  0
 12 21  1  0
 12 22  1  0
M  RAD  1  10   2
M  END
>  <reaction>  (12) 
rxn_974

>  <mol_properties>  (12) 
{"1": {"label": "*3", "atom_type": "Cs"}, "2": {"label": "*4", "atom_type": "S2s"}, "8": {"label": "*0", "atom_type": "Cs"}, "9": {"label": "*1", "atom_type": "Cs"}, "15": {"label": "*2", "atom_type": "H0"}}

>  <type>  (12) 
unop_8

>  <geom_source>  (12) 
Heuristics

$$$$

     RDKit          3D

 22 20  0  0  0  0  0  0  0  0999 V2000
    1.8291   -1.3708   -0.8334 C   0  0  0  0  0  0  0  0  0  0  0  0
    1.3668   -0.3225    0.1634 C   0  0  0  0  0  0  0  0  0  0  0  0
    0.6271   -1.0070    1.6753 S   0  0  0  0  0  0  0  0  0  0  0  0
    2.3003   -0.8938   -1.6960 H   0  0  0  0  0  0  0  0  0  0  0  0
    0.9872   -1.9634   -1.1959 H   0  0  0  0  0  0  0  0  0  0  0  0
    2.5483   -2.0519   -0.3779 H   0  0  0  0  0  0  0  0  0  0  0  0
    2.2117    0.2674    0.5216 H   0  0  0  0  0  0  0  0  0  0  0  0
   -0.4023   -1.6272    1.0831 H   0  0  0  0  0  0  0  0  0  0  0  0
   -0.8349    0.8513   -2.1695 C   0  0  0  0  0  0  0  0  0  0  0  0
   -0.8349    0.8513   -0.6438 C   0  0  0  0  0  3  0  0  0  0  0  0
   -0.8349    2.2759   -0.0977 C   0  0  0  0  0  0  0  0  0  0  0  0
   -2.0177    0.0572   -0.0977 C   0  0  0  0  0  0  0  0  0  0  0  0
    0.0258    1.3936   -2.5665 H   0  0  0  0  0  0  0  0  0  0  0  0
   -1.7389    1.3332   -2.5532 H   0  0  0  0  0  0  0  0  0  0  0  0
   -0.8054   -0.1656   -2.5665 H   0  0  0  0  0  0  0  0  0  0  0  0
    0.2688    0.2629   -0.2392 H   0  0  0  0  0  0  0  0  0  0  0  0
   -1.7389    2.8068   -0.4103 H   0  0  0  0  0  0  0  0  0  0  0  0
   -0.8054    2.2827    0.9939 H   0  0  0  0  0  0  0  0  0  0  0  0
    0.0258    2.8408   -0.4620 H   0  0  0  0  0  0  0  0  0  0  0  0
   -2.0070   -0.9722   -0.4621 H   0  0  0  0  0  0  0  0  0  0  0  0
   -2.9623    0.5120   -0.4102 H   0  0  0  0  0  0  0  0  0  0  0  0
   -2.0068    0.0288    0.9939 H   0  0  0  0  0  0  0  0  0  0  0  0
  1  2  1  0
  1  4  1  0
  1  5  1  0
  1  6  1  0
  2  3  1  0
  2  7  1  0
  2 16  1  0
  3  8  1  0
  9 10  1  0
  9 13  1  0
  9 14  1  0
  9 15  1  0
 10 11  1  0
 10 12  1  0
 11 17  1  0
 11 18  1  0
 11 19  1  0
 12 20  1  0
 12 21  1  0
 12 22  1  0
M  RAD  1  10   2
M  END
>  <reaction>  (13) 
rxn_974

>  <mol_properties>  (13) 
{"1": {"label": "*3", "atom_type": "Cs"}, "2": {"label": "*4", "atom_type": "S2s"}, "8": {"label": "*0", "atom_type": "Cs"}, "9": {"label": "*1", "atom_type": "Cs"}, "15": {"label": "*2", "atom_type": "H0"}}

>  <type>  (13) 
unop_9

>  <geom_source>  (13) 
Heuristics

$$$$

     RDKit          3D

 22 20  0  0  0  0  0  0  0  0999 V2000
    2.2120    0.4700   -0.0909 C   0  0  0  0  0  0  0  0  0  0  0  0
    0.9809   -0.2627    0.4129 C   0  0  0  0  0  0  0  0  0  0  0  0
    1.2609   -2.0182    0.7896 S   0  0  0  0  0  0  0  0  0  0  0  0
    1.9850    1.5258   -0.2566 H   0  0  0  0  0  0  0  0  0  0  0  0
    2.5578    0.0486   -1.0366 H   0  0  0  0  0  0  0  0  0  0  0  0
    3.0292    0.3996    0.6274 H   0  0  0  0  0  0  0  0  0  0  0  0
    0.6391    0.1629    1.3574 H   0  0  0  0  0  0  0  0  0  0  0  0
    1.5993   -2.3959   -0.4505 H   0  0  0  0  0  0  0  0  0  0  0  0
   -1.2208    0.9110   -1.9199 C   0  0  0  0  0  0  0  0  0  0  0  0
   -1.2208    0.9110   -0.3942 C   0  0  0  0  0  3  0  0  0  0  0  0
   -1.2208    2.3356    0.1519 C   0  0  0  0  0  0  0  0  0  0  0  0
   -2.4036    0.1169    0.1519 C   0  0  0  0  0  0  0  0  0  0  0  0
   -0.3600    1.4533   -2.3170 H   0  0  0  0  0  0  0  0  0  0  0  0
   -2.1247    1.3930   -2.3037 H   0  0  0  0  0  0  0  0  0  0  0  0
   -1.1913   -0.1059   -2.3169 H   0  0  0  0  0  0  0  0  0  0  0  0
   -0.1171    0.3226    0.0104 H   0  0  0  0  0  0  0  0  0  0  0  0
   -2.1248    2.8665   -0.1607 H   0  0  0  0  0  0  0  0  0  0  0  0
   -1.1912    2.3424    1.2435 H   0  0  0  0  0  0  0  0  0  0  0  0
   -0.3601    2.9005   -0.2124 H   0  0  0  0  0  0  0  0  0  0  0  0
   -2.3929   -0.9125   -0.2125 H   0  0  0  0  0  0  0  0  0  0  0  0
   -3.3482    0.5717   -0.1606 H   0  0  0  0  0  0  0  0  0  0  0  0
   -2.3927    0.0885    1.2435 H   0  0  0  0  0  0  0  0  0  0  0  0
  1  2  1  0
  1  4  1  0
  1  5  1  0
  1  6  1  0
  2  3  1  0
  2  7  1  0
  2 16  1  0
  3  8  1  0
  9 10  1  0
  9 13  1  0
  9 14  1  0
  9 15  1  0
 10 11  1  0
 10 12  1  0
 11 17  1  0
 11 18  1  0
 11 19  1  0
 12 20  1  0
 12 21  1  0
 12 22  1  0
M  RAD  1  10   2
M  END
>  <reaction>  (14) 
rxn_974

>  <mol_properties>  (14) 
{"1": {"label": "*3", "atom_type": "Cs"}, "2": {"label": "*4", "atom_type": "S2s"}, "8": {"label": "*0", "atom_type": "Cs"}, "9": {"label": "*1", "atom_type": "Cs"}, "15": {"label": "*2", "atom_type": "H0"}}

>  <type>  (14) 
unop_10

>  <geom_source>  (14) 
Heuristics

$$$$

     RDKit          3D

 22 20  0  0  0  0  0  0  0  0999 V2000
    0.8580   -1.7174    1.5700 C   0  0  0  0  0  0  0  0  0  0  0  0
    1.0616   -1.0240    0.2344 C   0  0  0  0  0  0  0  0  0  0  0  0
    1.7462    0.6543    0.3630 S   0  0  0  0  0  0  0  0  0  0  0  0
    0.4858   -2.7334    1.4183 H   0  0  0  0  0  0  0  0  0  0  0  0
    0.1303   -1.1813    2.1818 H   0  0  0  0  0  0  0  0  0  0  0  0
    1.7929   -1.7704    2.1285 H   0  0  0  0  0  0  0  0  0  0  0  0
    1.7889   -1.5644   -0.3733 H   0  0  0  0  0  0  0  0  0  0  0  0
    0.7325    1.1877    1.0579 H   0  0  0  0  0  0  0  0  0  0  0  0
   -1.1401    0.1498   -2.0984 C   0  0  0  0  0  0  0  0  0  0  0  0
   -1.1401    0.1498   -0.5727 C   0  0  0  0  0  3  0  0  0  0  0  0
   -1.1401    1.5744   -0.0267 C   0  0  0  0  0  0  0  0  0  0  0  0
   -2.3230   -0.6443   -0.0267 C   0  0  0  0  0  0  0  0  0  0  0  0
   -0.2794    0.6920   -2.4955 H   0  0  0  0  0  0  0  0  0  0  0  0
   -2.0441    0.6317   -2.4822 H   0  0  0  0  0  0  0  0  0  0  0  0
   -1.1107   -0.8671   -2.4955 H   0  0  0  0  0  0  0  0  0  0  0  0
   -0.0364   -0.4386   -0.1681 H   0  0  0  0  0  0  0  0  0  0  0  0
   -2.0441    2.1052   -0.3393 H   0  0  0  0  0  0  0  0  0  0  0  0
   -1.1106    1.5812    1.0649 H   0  0  0  0  0  0  0  0  0  0  0  0
   -0.2795    2.1392   -0.3909 H   0  0  0  0  0  0  0  0  0  0  0  0
   -2.3123   -1.6737   -0.3911 H   0  0  0  0  0  0  0  0  0  0  0  0
   -3.2676   -0.1896   -0.3392 H   0  0  0  0  0  0  0  0  0  0  0  0
   -2.3121   -0.6728    1.0649 H   0  0  0  0  0  0  0  0  0  0  0  0
  1  2  1  0
  1  4  1  0
  1  5  1  0
  1  6  1  0
  2  3  1  0
  2  7  1  0
  2 16  1  0
  3  8  1  0
  9 10  1  0
  9 13  1  0
  9 14  1  0
  9 15  1  0
 10 11  1  0
 10 12  1  0
 11 17  1  0
 11 18  1  0
 11 19  1  0
 12 20  1  0
 12 21  1  0
 12 22  1  0
M  RAD  1  10   2
M  END
>  <reaction>  (15) 
rxn_974

>  <mol_properties>  (15) 
{"1": {"label": "*3", "atom_type": "Cs"}, "2": {"label": "*4", "atom_type": "S2s"}, "8": {"label": "*0", "atom_type": "Cs"}, "9": {"label": "*1", "atom_type": "Cs"}, "15": {"label": "*2", "atom_type": "H0"}}

>  <type>  (15) 
unop_11

>  <geom_source>  (15) 
Heuristics

$$$$

     RDKit          3D

 22 20  0  0  0  0  0  0  0  0999 V2000
    2.0767   -0.6744   -0.8926 C   0  0  0  0  0  0  0  0  0  0  0  0
    1.2300   -0.2230    0.2846 C   0  0  0  0  0  0  0  0  0  0  0  0
    0.7992   -1.5527    1.4457 S   0  0  0  0  0  0  0  0  0  0  0  0
    2.3340    0.1785   -1.5251 H   0  0  0  0  0  0  0  0  0  0  0  0
    1.5376   -1.3976   -1.5071 H   0  0  0  0  0  0  0  0  0  0  0  0
    2.9996   -1.1443   -0.5518 H   0  0  0  0  0  0  0  0  0  0  0  0
    1.7731    0.5002    0.8948 H   0  0  0  0  0  0  0  0  0  0  0  0
    0.1010   -2.3005    0.5806 H   0  0  0  0  0  0  0  0  0  0  0  0
   -0.9717    0.9507   -2.0482 C   0  0  0  0  0  0  0  0  0  0  0  0
   -0.9717    0.9507   -0.5225 C   0  0  0  0  0  3  0  0  0  0  0  0
   -0.9717    2.3754    0.0236 C   0  0  0  0  0  0  0  0  0  0  0  0
   -2.1545    0.1567    0.0236 C   0  0  0  0  0  0  0  0  0  0  0  0
   -0.1109    1.4930   -2.4452 H   0  0  0  0  0  0  0  0  0  0  0  0
   -1.8756    1.4327   -2.4320 H   0  0  0  0  0  0  0  0  0  0  0  0
   -0.9422   -0.0661   -2.4452 H   0  0  0  0  0  0  0  0  0  0  0  0
    0.1320    0.3623   -0.1179 H   0  0  0  0  0  0  0  0  0  0  0  0
   -1.8757    2.9062   -0.2890 H   0  0  0  0  0  0  0  0  0  0  0  0
   -0.9421    2.3822    1.1152 H   0  0  0  0  0  0  0  0  0  0  0  0
   -0.1110    2.9402   -0.3407 H   0  0  0  0  0  0  0  0  0  0  0  0
   -2.1438   -0.8727   -0.3408 H   0  0  0  0  0  0  0  0  0  0  0  0
   -3.0991    0.6114   -0.2889 H   0  0  0  0  0  0  0  0  0  0  0  0
   -2.1436    0.1282    1.1152 H   0  0  0  0  0  0  0  0  0  0  0  0
  1  2  1  0
  1  4  1  0
  1  5  1  0
  1  6  1  0
  2  3  1  0
  2  7  1  0
  2 16  1  0
  3  8  1  0
  9 10  1  0
  9 13  1  0
  9 14  1  0
  9 15  1  0
 10 11  1  0
 10 12  1  0
 11 17  1  0
 11 18  1  0
 11 19  1  0
 12 20  1  0
 12 21  1  0
 12 22  1  0
M  RAD  1  10   2
M  END
>  <reaction>  (16) 
rxn_974

>  <mol_properties>  (16) 
{"1": {"label": "*3", "atom_type": "Cs"}, "2": {"label": "*4", "atom_type": "S2s"}, "8": {"label": "*0", "atom_type": "Cs"}, "9": {"label": "*1", "atom_type": "Cs"}, "15": {"label": "*2", "atom_type": "H0"}}

>  <type>  (16) 
unop_12

>  <geom_source>  (16) 
Heuristics

$$$$

     RDKit          3D

 22 20  0  0  0  0  0  0  0  0999 V2000
    2.2456    1.9383   -0.3395 S   0  0  0  0  0  0  0  0  0  0  0  0
    1.5869    0.2513   -0.5112 C   0  0  0  0  0  3  0  0  0  0  0  0
    2.5497   -0.7616    0.0896 C   0  0  0  0  0  0  0  0  0  0  0  0
   -1.5883    1.3946   -0.1884 C   0  0  0  0  0  0  0  0  0  0  0  0
   -1.2801   -0.9409   -1.1022 C   0  0  0  0  0  0  0  0  0  0  0  0
   -1.3182   -0.5561    1.3949 C   0  0  0  0  0  0  0  0  0  0  0  0
   -0.9386    0.0271    0.0323 C   0  0  0  0  0  0  0  0  0  0  0  0
    1.4404    0.0295   -1.5893 H   0  0  0  0  0  0  0  0  0  0  0  0
    0.3894    0.1699    0.1208 H   0  0  0  0  0  0  0  0  0  0  0  0
    3.5339   -0.7054   -0.4218 H   0  0  0  0  0  0  0  0  0  0  0  0
    2.6851   -0.5634    1.1736 H   0  0  0  0  0  0  0  0  0  0  0  0
    2.1367   -1.7842   -0.0367 H   0  0  0  0  0  0  0  0  0  0  0  0
   -1.2552    1.8201   -1.1584 H   0  0  0  0  0  0  0  0  0  0  0  0
   -2.6961    1.3064   -0.1917 H   0  0  0  0  0  0  0  0  0  0  0  0
   -1.2823    2.0939    0.6181 H   0  0  0  0  0  0  0  0  0  0  0  0
   -0.7543   -1.9066   -0.9472 H   0  0  0  0  0  0  0  0  0  0  0  0
   -2.3751   -1.1260   -1.1434 H   0  0  0  0  0  0  0  0  0  0  0  0
   -0.9465   -0.5188   -2.0735 H   0  0  0  0  0  0  0  0  0  0  0  0
   -0.7925   -1.5212    1.5535 H   0  0  0  0  0  0  0  0  0  0  0  0
   -1.0118    0.1403    2.2036 H   0  0  0  0  0  0  0  0  0  0  0  0
   -2.4148   -0.7252    1.4572 H   0  0  0  0  0  0  0  0  0  0  0  0
    2.0861    1.9384    1.0595 H   0  0  0  0  0  0  0  0  0  0  0  0
  1  2  1  0
  1 22  1  0
  2  3  1  0
  2  8  1  0
  3 10  1  0
  3 11  1  0
  3 12  1  0
  4  7  1  0
  4 13  1  0
  4 14  1  0
  4 15  1  0
  5  7  1  0
  5 16  1  0
  5 17  1  0
  5 18  1  0
  6  7  1  0
  6 19  1  0
  6 20  1  0
  6 21  1  0
  7  9  1  0
M  RAD  1   2   2
M  END
>  <reaction>  (17) 
rxn_974

>  <mol_properties>  (17) 
{"1": {"label": "*3", "atom_type": "Cs"}, "2": {"label": "*4", "atom_type": "S2s"}, "8": {"label": "*0", "atom_type": "Cs"}, "9": {"label": "*1", "atom_type": "Cs"}, "15": {"label": "*2", "atom_type": "H0"}}

>  <type>  (17) 
unop_13

>  <geom_source>  (17) 
AutoTST

$$$$
