
     RDKit          3D

 10  9  0  0  0  0  0  0  0  0999 V2000
   -1.1906   -0.0419   -0.0385 C   0  0  0  0  0  0  0  0  0  0  0  0
    0.2513    0.4500    0.0348 C   0  0  0  0  0  0  0  0  0  0  0  0
    1.2500   -0.5694    0.3278 N   0  0  0  0  0  0  0  0  0  0  0  0
   -1.4965   -0.4905    0.9100 H   0  0  0  0  0  0  0  0  0  0  0  0
   -1.3035   -0.7985   -0.8190 H   0  0  0  0  0  0  0  0  0  0  0  0
   -1.8789    0.7769   -0.2612 H   0  0  0  0  0  0  0  0  0  0  0  0
    0.3352    1.2278    0.7979 H   0  0  0  0  0  0  0  0  0  0  0  0
    0.5259    0.9233   -0.9113 H   0  0  0  0  0  0  0  0  0  0  0  0
    1.2298   -1.2971   -0.3752 H   0  0  0  0  0  0  0  0  0  0  0  0
    1.0523   -1.0138    1.2153 H   0  0  0  0  0  0  0  0  0  0  0  0
  1  2  1  0
  1  4  1  0
  1  5  1  0
  1  6  1  0
  2  3  1  0
  2  7  1  0
  2  8  1  0
  3  9  1  0
  3 10  1  0
M  END
>  <reaction>  (1) 
rxn_118

>  <mol_properties>  (1) 
{"1": {"label": "donator", "atom_type": "Cs"}, "6": {"label": "d_hydrogen", "atom_type": "H0"}}

>  <type>  (1) 
r1h

$$$$

     RDKit          3D

  3  2  0  0  0  0  0  0  0  0999 V2000
    0.0002    0.4233    0.0000 N   0  0  0  0  0  2  0  0  0  0  0  0
   -0.8051   -0.2112    0.0000 H   0  0  0  0  0  0  0  0  0  0  0  0
    0.8049   -0.2121    0.0000 H   0  0  0  0  0  0  0  0  0  0  0  0
  1  2  1  0
  1  3  1  0
M  RAD  1   1   2
M  END
>  <reaction>  (2) 
rxn_118

>  <mol_properties>  (2) 
{"0": {"label": "acceptor", "atom_type": "N3s"}}

>  <type>  (2) 
r2

$$$$

     RDKit          3D

  4  3  0  0  0  0  0  0  0  0999 V2000
    0.0006   -0.0009    0.2762 N   0  0  0  0  0  0  0  0  0  0  0  0
   -0.4188    0.8439   -0.0883 H   0  0  0  0  0  0  0  0  0  0  0  0
   -0.5215   -0.7840   -0.0936 H   0  0  0  0  0  0  0  0  0  0  0  0
    0.9397   -0.0590   -0.0943 H   0  0  0  0  0  0  0  0  0  0  0  0
  1  2  1  0
  1  3  1  0
  1  4  1  0
M  END
>  <reaction>  (3) 
rxn_118

>  <mol_properties>  (3) 
{"0": {"label": "a_hydrogen", "atom_type": "H0"}, "1": {"label": "acceptor", "atom_type": "N3s"}}

>  <type>  (3) 
r2h

$$$$

     RDKit          3D

 13 11  0  0  0  0  0  0  0  0999 V2000
   -0.4236   -0.1071   -1.5356 C   0  0  0  0  0  0  0  0  0  0  0  0
   -0.5752    0.0406   -0.0433 C   0  0  0  0  0  0  0  0  0  0  0  0
   -0.2573    1.3558    0.4179 N   0  0  0  0  0  0  0  0  0  0  0  0
    0.5749    0.2040   -1.8501 H   0  0  0  0  0  0  0  0  0  0  0  0
   -1.1546    0.5066   -2.0721 H   0  0  0  0  0  0  0  0  0  0  0  0
   -0.5726   -1.1436   -1.8391 H   0  0  0  0  0  0  0  0  0  0  0  0
    0.2239   -0.7355    0.4900 H   0  0  0  0  0  0  0  0  0  0  0  0
   -1.5324   -0.3525    0.3192 H   0  0  0  0  0  0  0  0  0  0  0  0
   -0.6572    1.5739    1.3166 H   0  0  0  0  0  0  0  0  0  0  0  0
   -0.4883    2.0809   -0.2457 H   0  0  0  0  0  0  0  0  0  0  0  0
    1.3118   -1.4465    0.9966 N   0  0  0  0  0  2  0  0  0  0  0  0
    1.6184   -1.8980    0.1318 H   0  0  0  0  0  0  0  0  0  0  0  0
    1.9237   -0.6310    1.0773 H   0  0  0  0  0  0  0  0  0  0  0  0
  1  2  1  0
  1  4  1  0
  1  5  1  0
  1  6  1  0
  2  3  1  0
  2  7  1  0
  2  8  1  0
  3  9  1  0
  3 10  1  0
 11 12  1  0
 11 13  1  0
M  RAD  1  11   2
M  END
>  <reaction>  (4) 
rxn_118

>  <mol_properties>  (4) 
{"1": {"label": "*1", "atom_type": "Cs"}, "2": {"label": "*0", "atom_type": "N3s"}, "6": {"label": "*2", "atom_type": "H0"}, "10": {"label": "*3", "atom_type": "N3s"}, "11": {"label": "*4", "atom_type": "H0"}}

>  <type>  (4) 
ts

$$$$

     RDKit          3D

 13 11  0  0  0  0  0  0  0  0999 V2000
   -0.5290   -0.0188   -1.5418 C   0  0  0  0  0  0  0  0  0  0  0  0
   -0.5290   -0.0188   -0.0166 C   0  0  0  0  0  3  0  0  0  0  0  0
   -0.5290    1.2951    0.6129 N   0  0  0  0  0  0  0  0  0  0  0  0
    0.3544    0.4943   -1.9301 H   0  0  0  0  0  0  0  0  0  0  0  0
   -1.4123    0.4943   -1.9301 H   0  0  0  0  0  0  0  0  0  0  0  0
   -0.5290   -1.0366   -1.9391 H   0  0  0  0  0  0  0  0  0  0  0  0
    0.5190   -0.6730    0.4236 H   0  0  0  0  0  0  0  0  0  0  0  0
   -1.4022   -0.5640    0.3502 H   0  0  0  0  0  0  0  0  0  0  0  0
   -1.3416    1.8253    0.3253 H   0  0  0  0  0  0  0  0  0  0  0  0
    0.2836    1.8253    0.3253 H   0  0  0  0  0  0  0  0  0  0  0  0
    1.4886   -1.2784    0.8308 N   0  0  0  0  0  0  0  0  0  0  0  0
    2.0369   -0.6361    1.3871 H   0  0  0  0  0  0  0  0  0  0  0  0
    0.7535   -1.5127    1.4845 H   0  0  0  0  0  0  0  0  0  0  0  0
  1  2  1  0
  1  4  1  0
  1  5  1  0
  1  6  1  0
  2  3  1  0
  2  8  1  0
  3  9  1  0
  3 10  1  0
  7 11  1  0
 11 12  1  0
 11 13  1  0
M  RAD  1   2   2
M  END
>  <reaction>  (5) 
rxn_118

>  <mol_properties>  (5) 
{"1": {"label": "*1", "atom_type": "Cs"}, "2": {"label": "*0", "atom_type": "N3s"}, "6": {"label": "*2", "atom_type": "H0"}, "10": {"label": "*3", "atom_type": "N3s"}, "11": {"label": "*4", "atom_type": "H0"}}

>  <type>  (5) 
unop_1

>  <geom_source>  (5) 
Heuristics

$$$$

     RDKit          3D

 13 11  0  0  0  0  0  0  0  0999 V2000
   -0.5416   -0.0261   -1.5216 C   0  0  0  0  0  0  0  0  0  0  0  0
   -0.5416   -0.0261    0.0037 C   0  0  0  0  0  3  0  0  0  0  0  0
   -0.5416    1.2878    0.6331 N   0  0  0  0  0  0  0  0  0  0  0  0
    0.3418    0.4870   -1.9098 H   0  0  0  0  0  0  0  0  0  0  0  0
   -1.4250    0.4870   -1.9098 H   0  0  0  0  0  0  0  0  0  0  0  0
   -0.5416   -1.0439   -1.9189 H   0  0  0  0  0  0  0  0  0  0  0  0
    0.5063   -0.6804    0.4438 H   0  0  0  0  0  0  0  0  0  0  0  0
   -1.4149   -0.5713    0.3704 H   0  0  0  0  0  0  0  0  0  0  0  0
   -1.3542    1.8180    0.3455 H   0  0  0  0  0  0  0  0  0  0  0  0
    0.2710    1.8180    0.3455 H   0  0  0  0  0  0  0  0  0  0  0  0
    1.4760   -1.2857    0.8510 N   0  0  0  0  0  0  0  0  0  0  0  0
    2.2123   -1.1770    0.1665 H   0  0  0  0  0  0  0  0  0  0  0  0
    1.3205   -0.5435    1.5200 H   0  0  0  0  0  0  0  0  0  0  0  0
  1  2  1  0
  1  4  1  0
  1  5  1  0
  1  6  1  0
  2  3  1  0
  2  8  1  0
  3  9  1  0
  3 10  1  0
  7 11  1  0
 11 12  1  0
 11 13  1  0
M  RAD  1   2   2
M  END
>  <reaction>  (6) 
rxn_118

>  <mol_properties>  (6) 
{"1": {"label": "*1", "atom_type": "Cs"}, "2": {"label": "*0", "atom_type": "N3s"}, "6": {"label": "*2", "atom_type": "H0"}, "10": {"label": "*3", "atom_type": "N3s"}, "11": {"label": "*4", "atom_type": "H0"}}

>  <type>  (6) 
unop_2

>  <geom_source>  (6) 
Heuristics

$$$$

     RDKit          3D

 13 11  0  0  0  0  0  0  0  0999 V2000
   -0.5265   -0.0075   -1.5438 C   0  0  0  0  0  0  0  0  0  0  0  0
   -0.5265   -0.0075   -0.0186 C   0  0  0  0  0  3  0  0  0  0  0  0
   -0.5265    1.3064    0.6109 N   0  0  0  0  0  0  0  0  0  0  0  0
    0.3569    0.5056   -1.9321 H   0  0  0  0  0  0  0  0  0  0  0  0
   -1.4098    0.5056   -1.9321 H   0  0  0  0  0  0  0  0  0  0  0  0
   -0.5265   -1.0253   -1.9411 H   0  0  0  0  0  0  0  0  0  0  0  0
    0.5215   -0.6617    0.4216 H   0  0  0  0  0  0  0  0  0  0  0  0
   -1.3998   -0.5527    0.3482 H   0  0  0  0  0  0  0  0  0  0  0  0
   -1.3391    1.8367    0.3233 H   0  0  0  0  0  0  0  0  0  0  0  0
    0.2861    1.8367    0.3233 H   0  0  0  0  0  0  0  0  0  0  0  0
    1.4911   -1.2670    0.8288 N   0  0  0  0  0  0  0  0  0  0  0  0
    1.7520   -0.8615    1.7176 H   0  0  0  0  0  0  0  0  0  0  0  0
    0.8921   -1.9514    1.2708 H   0  0  0  0  0  0  0  0  0  0  0  0
  1  2  1  0
  1  4  1  0
  1  5  1  0
  1  6  1  0
  2  3  1  0
  2  8  1  0
  3  9  1  0
  3 10  1  0
  7 11  1  0
 11 12  1  0
 11 13  1  0
M  RAD  1   2   2
M  END
>  <reaction>  (7) 
rxn_118

>  <mol_properties>  (7) 
{"1": {"label": "*1", "atom_type": "Cs"}, "2": {"label": "*0", "atom_type": "N3s"}, "6": {"label": "*2", "atom_type": "H0"}, "10": {"label": "*3", "atom_type": "N3s"}, "11": {"label": "*4", "atom_type": "H0"}}

>  <type>  (7) 
unop_3

>  <geom_source>  (7) 
Heuristics

$$$$

     RDKit          3D

 13 11  0  0  0  0  0  0  0  0999 V2000
   -0.5463   -0.0031   -1.5162 C   0  0  0  0  0  0  0  0  0  0  0  0
   -0.5463   -0.0031    0.0090 C   0  0  0  0  0  3  0  0  0  0  0  0
   -0.5463    1.3108    0.6385 N   0  0  0  0  0  0  0  0  0  0  0  0
    0.3370    0.5100   -1.9045 H   0  0  0  0  0  0  0  0  0  0  0  0
   -1.4297    0.5100   -1.9045 H   0  0  0  0  0  0  0  0  0  0  0  0
   -0.5463   -1.0209   -1.9135 H   0  0  0  0  0  0  0  0  0  0  0  0
    0.5016   -0.6573    0.4492 H   0  0  0  0  0  0  0  0  0  0  0  0
   -1.4196   -0.5483    0.3758 H   0  0  0  0  0  0  0  0  0  0  0  0
   -1.3589    1.8410    0.3509 H   0  0  0  0  0  0  0  0  0  0  0  0
    0.2663    1.8410    0.3509 H   0  0  0  0  0  0  0  0  0  0  0  0
    1.4713   -1.2627    0.8564 N   0  0  0  0  0  0  0  0  0  0  0  0
    1.4095   -2.2086    0.5044 H   0  0  0  0  0  0  0  0  0  0  0  0
    2.3994   -0.8613    0.8672 H   0  0  0  0  0  0  0  0  0  0  0  0
  1  2  1  0
  1  4  1  0
  1  5  1  0
  1  6  1  0
  2  3  1  0
  2  8  1  0
  3  9  1  0
  3 10  1  0
  7 11  1  0
 11 12  1  0
 11 13  1  0
M  RAD  1   2   2
M  END
>  <reaction>  (8) 
rxn_118

>  <mol_properties>  (8) 
{"1": {"label": "*1", "atom_type": "Cs"}, "2": {"label": "*0", "atom_type": "N3s"}, "6": {"label": "*2", "atom_type": "H0"}, "10": {"label": "*3", "atom_type": "N3s"}, "11": {"label": "*4", "atom_type": "H0"}}

>  <type>  (8) 
unop_4

>  <geom_source>  (8) 
Heuristics

$$$$

     RDKit          3D

 13 11  0  0  0  0  0  0  0  0999 V2000
   -0.5311    0.0042   -1.5393 C   0  0  0  0  0  0  0  0  0  0  0  0
   -0.5311    0.0042   -0.0141 C   0  0  0  0  0  3  0  0  0  0  0  0
   -0.5311    1.3181    0.6154 N   0  0  0  0  0  0  0  0  0  0  0  0
    0.3523    0.5174   -1.9276 H   0  0  0  0  0  0  0  0  0  0  0  0
   -1.4145    0.5174   -1.9276 H   0  0  0  0  0  0  0  0  0  0  0  0
   -0.5311   -1.0135   -1.9366 H   0  0  0  0  0  0  0  0  0  0  0  0
    0.5168   -0.6500    0.4261 H   0  0  0  0  0  0  0  0  0  0  0  0
   -1.4044   -0.5409    0.3527 H   0  0  0  0  0  0  0  0  0  0  0  0
   -1.3437    1.8484    0.3278 H   0  0  0  0  0  0  0  0  0  0  0  0
    0.2815    1.8484    0.3278 H   0  0  0  0  0  0  0  0  0  0  0  0
    1.4865   -1.2553    0.8333 N   0  0  0  0  0  0  0  0  0  0  0  0
    1.4552   -1.2358    1.8438 H   0  0  0  0  0  0  0  0  0  0  0  0
    1.4605   -2.2651    0.8812 H   0  0  0  0  0  0  0  0  0  0  0  0
  1  2  1  0
  1  4  1  0
  1  5  1  0
  1  6  1  0
  2  3  1  0
  2  8  1  0
  3  9  1  0
  3 10  1  0
  7 11  1  0
 11 12  1  0
 11 13  1  0
M  RAD  1   2   2
M  END
>  <reaction>  (9) 
rxn_118

>  <mol_properties>  (9) 
{"1": {"label": "*1", "atom_type": "Cs"}, "2": {"label": "*0", "atom_type": "N3s"}, "6": {"label": "*2", "atom_type": "H0"}, "10": {"label": "*3", "atom_type": "N3s"}, "11": {"label": "*4", "atom_type": "H0"}}

>  <type>  (9) 
unop_5

>  <geom_source>  (9) 
Heuristics

$$$$

     RDKit          3D

 13 11  0  0  0  0  0  0  0  0999 V2000
   -0.5441    0.0030   -1.5213 C   0  0  0  0  0  0  0  0  0  0  0  0
   -0.5441    0.0030    0.0039 C   0  0  0  0  0  3  0  0  0  0  0  0
   -0.5441    1.3169    0.6334 N   0  0  0  0  0  0  0  0  0  0  0  0
    0.3392    0.5161   -1.9096 H   0  0  0  0  0  0  0  0  0  0  0  0
   -1.4275    0.5161   -1.9096 H   0  0  0  0  0  0  0  0  0  0  0  0
   -0.5441   -1.0148   -1.9186 H   0  0  0  0  0  0  0  0  0  0  0  0
    0.5038   -0.6513    0.4441 H   0  0  0  0  0  0  0  0  0  0  0  0
   -1.4174   -0.5422    0.3707 H   0  0  0  0  0  0  0  0  0  0  0  0
   -1.3567    1.8471    0.3458 H   0  0  0  0  0  0  0  0  0  0  0  0
    0.2685    1.8471    0.3458 H   0  0  0  0  0  0  0  0  0  0  0  0
    1.4735   -1.2566    0.8513 N   0  0  0  0  0  0  0  0  0  0  0  0
    1.2060   -2.2264    0.9535 H   0  0  0  0  0  0  0  0  0  0  0  0
    2.4740   -1.1992    0.7163 H   0  0  0  0  0  0  0  0  0  0  0  0
  1  2  1  0
  1  4  1  0
  1  5  1  0
  1  6  1  0
  2  3  1  0
  2  8  1  0
  3  9  1  0
  3 10  1  0
  7 11  1  0
 11 12  1  0
 11 13  1  0
M  RAD  1   2   2
M  END
>  <reaction>  (10) 
rxn_118

>  <mol_properties>  (10) 
{"1": {"label": "*1", "atom_type": "Cs"}, "2": {"label": "*0", "atom_type": "N3s"}, "6": {"label": "*2", "atom_type": "H0"}, "10": {"label": "*3", "atom_type": "N3s"}, "11": {"label": "*4", "atom_type": "H0"}}

>  <type>  (10) 
unop_6

>  <geom_source>  (10) 
Heuristics

$$$$

     RDKit          3D

 13 11  0  0  0  0  0  0  0  0999 V2000
   -0.5419    0.0059   -1.5274 C   0  0  0  0  0  0  0  0  0  0  0  0
   -0.5419    0.0059   -0.0021 C   0  0  0  0  0  3  0  0  0  0  0  0
   -0.5419    1.3198    0.6273 N   0  0  0  0  0  0  0  0  0  0  0  0
    0.3415    0.5191   -1.9156 H   0  0  0  0  0  0  0  0  0  0  0  0
   -1.4253    0.5191   -1.9156 H   0  0  0  0  0  0  0  0  0  0  0  0
   -0.5419   -1.0118   -1.9247 H   0  0  0  0  0  0  0  0  0  0  0  0
    0.5060   -0.6483    0.4380 H   0  0  0  0  0  0  0  0  0  0  0  0
   -1.4152   -0.5392    0.3646 H   0  0  0  0  0  0  0  0  0  0  0  0
   -1.3545    1.8501    0.3397 H   0  0  0  0  0  0  0  0  0  0  0  0
    0.2707    1.8501    0.3397 H   0  0  0  0  0  0  0  0  0  0  0  0
    1.4757   -1.2536    0.8452 N   0  0  0  0  0  0  0  0  0  0  0  0
    1.1394   -2.0282    1.4016 H   0  0  0  0  0  0  0  0  0  0  0  0
    2.4097   -1.5724    0.6248 H   0  0  0  0  0  0  0  0  0  0  0  0
  1  2  1  0
  1  4  1  0
  1  5  1  0
  1  6  1  0
  2  3  1  0
  2  8  1  0
  3  9  1  0
  3 10  1  0
  7 11  1  0
 11 12  1  0
 11 13  1  0
M  RAD  1   2   2
M  END
>  <reaction>  (11) 
rxn_118

>  <mol_properties>  (11) 
{"1": {"label": "*1", "atom_type": "Cs"}, "2": {"label": "*0", "atom_type": "N3s"}, "6": {"label": "*2", "atom_type": "H0"}, "10": {"label": "*3", "atom_type": "N3s"}, "11": {"label": "*4", "atom_type": "H0"}}

>  <type>  (11) 
unop_7

>  <geom_source>  (11) 
Heuristics

$$$$

     RDKit          3D

 13 11  0  0  0  0  0  0  0  0999 V2000
   -0.5334   -0.0254   -1.5358 C   0  0  0  0  0  0  0  0  0  0  0  0
   -0.5334   -0.0254   -0.0105 C   0  0  0  0  0  3  0  0  0  0  0  0
   -0.5334    1.2885    0.6189 N   0  0  0  0  0  0  0  0  0  0  0  0
    0.3500    0.4877   -1.9240 H   0  0  0  0  0  0  0  0  0  0  0  0
   -1.4168    0.4877   -1.9240 H   0  0  0  0  0  0  0  0  0  0  0  0
   -0.5334   -1.0432   -1.9331 H   0  0  0  0  0  0  0  0  0  0  0  0
    0.5146   -0.6797    0.4296 H   0  0  0  0  0  0  0  0  0  0  0  0
   -1.4067   -0.5706    0.3562 H   0  0  0  0  0  0  0  0  0  0  0  0
   -1.3460    1.8187    0.3313 H   0  0  0  0  0  0  0  0  0  0  0  0
    0.2792    1.8187    0.3313 H   0  0  0  0  0  0  0  0  0  0  0  0
    1.4842   -1.2850    0.8368 N   0  0  0  0  0  0  0  0  0  0  0  0
    2.2381   -0.6188    0.9390 H   0  0  0  0  0  0  0  0  0  0  0  0
    0.8113   -1.1430    1.5782 H   0  0  0  0  0  0  0  0  0  0  0  0
  1  2  1  0
  1  4  1  0
  1  5  1  0
  1  6  1  0
  2  3  1  0
  2  8  1  0
  3  9  1  0
  3 10  1  0
  7 11  1  0
 11 12  1  0
 11 13  1  0
M  RAD  1   2   2
M  END
>  <reaction>  (12) 
rxn_118

>  <mol_properties>  (12) 
{"1": {"label": "*1", "atom_type": "Cs"}, "2": {"label": "*0", "atom_type": "N3s"}, "6": {"label": "*2", "atom_type": "H0"}, "10": {"label": "*3", "atom_type": "N3s"}, "11": {"label": "*4", "atom_type": "H0"}}

>  <type>  (12) 
unop_8

>  <geom_source>  (12) 
Heuristics

$$$$

     RDKit          3D

 13 11  0  0  0  0  0  0  0  0999 V2000
   -0.5472   -0.0119   -1.5143 C   0  0  0  0  0  0  0  0  0  0  0  0
   -0.5472   -0.0119    0.0110 C   0  0  0  0  0  3  0  0  0  0  0  0
   -0.5472    1.3020    0.6405 N   0  0  0  0  0  0  0  0  0  0  0  0
    0.3361    0.5012   -1.9025 H   0  0  0  0  0  0  0  0  0  0  0  0
   -1.4306    0.5012   -1.9025 H   0  0  0  0  0  0  0  0  0  0  0  0
   -0.5472   -1.0297   -1.9115 H   0  0  0  0  0  0  0  0  0  0  0  0
    0.5007   -0.6661    0.4511 H   0  0  0  0  0  0  0  0  0  0  0  0
   -1.4205   -0.5571    0.3778 H   0  0  0  0  0  0  0  0  0  0  0  0
   -1.3598    1.8322    0.3529 H   0  0  0  0  0  0  0  0  0  0  0  0
    0.2654    1.8322    0.3529 H   0  0  0  0  0  0  0  0  0  0  0  0
    1.4704   -1.2715    0.8584 N   0  0  0  0  0  0  0  0  0  0  0  0
    1.6960   -1.9808    0.1738 H   0  0  0  0  0  0  0  0  0  0  0  0
    2.1660   -0.5723    1.0816 H   0  0  0  0  0  0  0  0  0  0  0  0
  1  2  1  0
  1  4  1  0
  1  5  1  0
  1  6  1  0
  2  3  1  0
  2  8  1  0
  3  9  1  0
  3 10  1  0
  7 11  1  0
 11 12  1  0
 11 13  1  0
M  RAD  1   2   2
M  END
>  <reaction>  (13) 
rxn_118

>  <mol_properties>  (13) 
{"1": {"label": "*1", "atom_type": "Cs"}, "2": {"label": "*0", "atom_type": "N3s"}, "6": {"label": "*2", "atom_type": "H0"}, "10": {"label": "*3", "atom_type": "N3s"}, "11": {"label": "*4", "atom_type": "H0"}}

>  <type>  (13) 
unop_9

>  <geom_source>  (13) 
Heuristics

$$$$

     RDKit          3D

 13 11  0  0  0  0  0  0  0  0999 V2000
   -0.5376   -0.0277   -1.5285 C   0  0  0  0  0  0  0  0  0  0  0  0
   -0.5376   -0.0277   -0.0032 C   0  0  0  0  0  3  0  0  0  0  0  0
   -0.5376    1.2862    0.6263 N   0  0  0  0  0  0  0  0  0  0  0  0
    0.3458    0.4855   -1.9167 H   0  0  0  0  0  0  0  0  0  0  0  0
   -1.4210    0.4855   -1.9167 H   0  0  0  0  0  0  0  0  0  0  0  0
   -0.5376   -1.0454   -1.9257 H   0  0  0  0  0  0  0  0  0  0  0  0
    0.5103   -0.6819    0.4369 H   0  0  0  0  0  0  0  0  0  0  0  0
   -1.4109   -0.5729    0.3636 H   0  0  0  0  0  0  0  0  0  0  0  0
   -1.3502    1.8165    0.3387 H   0  0  0  0  0  0  0  0  0  0  0  0
    0.2750    1.8165    0.3387 H   0  0  0  0  0  0  0  0  0  0  0  0
    1.4800   -1.2872    0.8442 N   0  0  0  0  0  0  0  0  0  0  0  0
    2.3027   -0.8164    0.4921 H   0  0  0  0  0  0  0  0  0  0  0  0
    0.9950   -0.8144    1.5950 H   0  0  0  0  0  0  0  0  0  0  0  0
  1  2  1  0
  1  4  1  0
  1  5  1  0
  1  6  1  0
  2  3  1  0
  2  8  1  0
  3  9  1  0
  3 10  1  0
  7 11  1  0
 11 12  1  0
 11 13  1  0
M  RAD  1   2   2
M  END
>  <reaction>  (14) 
rxn_118

>  <mol_properties>  (14) 
{"1": {"label": "*1", "atom_type": "Cs"}, "2": {"label": "*0", "atom_type": "N3s"}, "6": {"label": "*2", "atom_type": "H0"}, "10": {"label": "*3", "atom_type": "N3s"}, "11": {"label": "*4", "atom_type": "H0"}}

>  <type>  (14) 
unop_10

>  <geom_source>  (14) 
Heuristics

$$$$

     RDKit          3D

 13 11  0  0  0  0  0  0  0  0999 V2000
   -0.5386    0.0070   -1.5331 C   0  0  0  0  0  0  0  0  0  0  0  0
   -0.5386    0.0070   -0.0078 C   0  0  0  0  0  3  0  0  0  0  0  0
   -0.5386    1.3209    0.6217 N   0  0  0  0  0  0  0  0  0  0  0  0
    0.3448    0.5202   -1.9213 H   0  0  0  0  0  0  0  0  0  0  0  0
   -1.4220    0.5202   -1.9213 H   0  0  0  0  0  0  0  0  0  0  0  0
   -0.5386   -1.0107   -1.9303 H   0  0  0  0  0  0  0  0  0  0  0  0
    0.5093   -0.6472    0.4323 H   0  0  0  0  0  0  0  0  0  0  0  0
   -1.4119   -0.5381    0.3590 H   0  0  0  0  0  0  0  0  0  0  0  0
   -1.3512    1.8512    0.3341 H   0  0  0  0  0  0  0  0  0  0  0  0
    0.2740    1.8512    0.3341 H   0  0  0  0  0  0  0  0  0  0  0  0
    1.4790   -1.2525    0.8396 N   0  0  0  0  0  0  0  0  0  0  0  0
    1.2292   -1.6649    1.7284 H   0  0  0  0  0  0  0  0  0  0  0  0
    2.1266   -2.0000    0.6287 H   0  0  0  0  0  0  0  0  0  0  0  0
  1  2  1  0
  1  4  1  0
  1  5  1  0
  1  6  1  0
  2  3  1  0
  2  8  1  0
  3  9  1  0
  3 10  1  0
  7 11  1  0
 11 12  1  0
 11 13  1  0
M  RAD  1   2   2
M  END
>  <reaction>  (15) 
rxn_118

>  <mol_properties>  (15) 
{"1": {"label": "*1", "atom_type": "Cs"}, "2": {"label": "*0", "atom_type": "N3s"}, "6": {"label": "*2", "atom_type": "H0"}, "10": {"label": "*3", "atom_type": "N3s"}, "11": {"label": "*4", "atom_type": "H0"}}

>  <type>  (15) 
unop_11

>  <geom_source>  (15) 
Heuristics

$$$$

     RDKit          3D

 13 11  0  0  0  0  0  0  0  0999 V2000
   -0.5454   -0.0207   -1.5164 C   0  0  0  0  0  0  0  0  0  0  0  0
   -0.5454   -0.0207    0.0089 C   0  0  0  0  0  3  0  0  0  0  0  0
   -0.5454    1.2932    0.6383 N   0  0  0  0  0  0  0  0  0  0  0  0
    0.3380    0.4924   -1.9046 H   0  0  0  0  0  0  0  0  0  0  0  0
   -1.4288    0.4924   -1.9046 H   0  0  0  0  0  0  0  0  0  0  0  0
   -0.5454   -1.0385   -1.9137 H   0  0  0  0  0  0  0  0  0  0  0  0
    0.5026   -0.6749    0.4490 H   0  0  0  0  0  0  0  0  0  0  0  0
   -1.4187   -0.5659    0.3756 H   0  0  0  0  0  0  0  0  0  0  0  0
   -1.3580    1.8235    0.3507 H   0  0  0  0  0  0  0  0  0  0  0  0
    0.2672    1.8235    0.3507 H   0  0  0  0  0  0  0  0  0  0  0  0
    1.4722   -1.2802    0.8562 N   0  0  0  0  0  0  0  0  0  0  0  0
    1.9900   -1.6035    0.0500 H   0  0  0  0  0  0  0  0  0  0  0  0
    1.7634   -0.4361    1.3307 H   0  0  0  0  0  0  0  0  0  0  0  0
  1  2  1  0
  1  4  1  0
  1  5  1  0
  1  6  1  0
  2  3  1  0
  2  8  1  0
  3  9  1  0
  3 10  1  0
  7 11  1  0
 11 12  1  0
 11 13  1  0
M  RAD  1   2   2
M  END
>  <reaction>  (16) 
rxn_118

>  <mol_properties>  (16) 
{"1": {"label": "*1", "atom_type": "Cs"}, "2": {"label": "*0", "atom_type": "N3s"}, "6": {"label": "*2", "atom_type": "H0"}, "10": {"label": "*3", "atom_type": "N3s"}, "11": {"label": "*4", "atom_type": "H0"}}

>  <type>  (16) 
unop_12

>  <geom_source>  (16) 
Heuristics

$$$$
