
     RDKit          3D

  8  7  0  0  0  0  0  0  0  0999 V2000
    0.7610    0.0250    0.0051 C   0  0  0  0  0  0  0  0  0  0  0  0
   -0.7610   -0.0250   -0.0051 C   0  0  0  0  0  0  0  0  0  0  0  0
    1.1904   -0.9237   -0.3217 H   0  0  0  0  0  0  0  0  0  0  0  0
    1.1359    0.8041   -0.6609 H   0  0  0  0  0  0  0  0  0  0  0  0
    1.1435    0.2336    1.0058 H   0  0  0  0  0  0  0  0  0  0  0  0
   -1.1435   -0.2336   -1.0058 H   0  0  0  0  0  0  0  0  0  0  0  0
   -1.1904    0.9237    0.3216 H   0  0  0  0  0  0  0  0  0  0  0  0
   -1.1359   -0.8041    0.6609 H   0  0  0  0  0  0  0  0  0  0  0  0
  1  2  1  0
  1  3  1  0
  1  4  1  0
  1  5  1  0
  2  6  1  0
  2  7  1  0
  2  8  1  0
M  END
>  <reaction>  (1) 
rxn_884

>  <mol_properties>  (1) 
{"1": {"label": "donator", "atom_type": "Cs"}, "5": {"label": "d_hydrogen", "atom_type": "H0"}}

>  <type>  (1) 
r1h

$$$$

     RDKit          3D

  8  7  0  0  0  0  0  0  0  0999 V2000
    1.4097   -0.3618   -0.1144 C   0  0  0  0  0  0  0  0  0  0  0  0
    0.1804   -0.1811   -0.5085 C   0  0  0  0  0  3  0  0  0  0  0  0
   -1.1132    0.2655    0.0162 C   0  0  0  0  0  0  0  0  0  0  0  0
    2.1849   -0.7256   -0.7809 H   0  0  0  0  0  0  0  0  0  0  0  0
    1.7118   -0.1519    0.9143 H   0  0  0  0  0  0  0  0  0  0  0  0
   -1.8662   -0.5198   -0.0756 H   0  0  0  0  0  0  0  0  0  0  0  0
   -1.0300    0.5356    1.0772 H   0  0  0  0  0  0  0  0  0  0  0  0
   -1.4772    1.1391   -0.5284 H   0  0  0  0  0  0  0  0  0  0  0  0
  1  2  2  3
  1  4  1  0
  1  5  1  0
  2  3  1  0
  3  6  1  0
  3  7  1  0
  3  8  1  0
M  RAD  1   2   2
M  END
>  <reaction>  (2) 
rxn_884

>  <mol_properties>  (2) 
{"1": {"label": "acceptor", "atom_type": "Cd"}}

>  <type>  (2) 
r2

$$$$

     RDKit          3D

  9  8  0  0  0  0  0  0  0  0999 V2000
    1.1303   -0.2933   -0.7510 C   0  0  0  0  0  0  0  0  0  0  0  0
    0.2866    0.4560   -0.0588 C   0  0  0  0  0  0  0  0  0  0  0  0
   -0.9719   -0.0331    0.5823 C   0  0  0  0  0  0  0  0  0  0  0  0
    2.0274    0.1230   -1.1916 H   0  0  0  0  0  0  0  0  0  0  0  0
    0.9532   -1.3530   -0.9023 H   0  0  0  0  0  0  0  0  0  0  0  0
    0.5065    1.5132    0.0659 H   0  0  0  0  0  0  0  0  0  0  0  0
   -0.9526    0.1426    1.6610 H   0  0  0  0  0  0  0  0  0  0  0  0
   -1.1182   -1.1002    0.4106 H   0  0  0  0  0  0  0  0  0  0  0  0
   -1.8412    0.5010    0.1901 H   0  0  0  0  0  0  0  0  0  0  0  0
  1  2  2  3
  1  4  1  0
  1  5  1  0
  2  3  1  0
  2  6  1  0
  3  7  1  0
  3  8  1  0
  3  9  1  0
M  END
>  <reaction>  (3) 
rxn_884

>  <mol_properties>  (3) 
{"1": {"label": "acceptor", "atom_type": "Cd"}, "8": {"label": "a_hydrogen", "atom_type": "H0"}}

>  <type>  (3) 
r2h

$$$$

     RDKit          3D

 16 14  0  0  0  0  0  0  0  0999 V2000
    0.6940    0.9831    1.7541 C   0  0  0  0  0  0  0  0  0  0  0  0
   -0.0927    0.6979    0.7400 C   0  0  0  0  0  3  0  0  0  0  0  0
   -1.1166    1.5162    0.0482 C   0  0  0  0  0  0  0  0  0  0  0  0
    1.4017    0.2603    2.1455 H   0  0  0  0  0  0  0  0  0  0  0  0
    0.6662    1.9560    2.2426 H   0  0  0  0  0  0  0  0  0  0  0  0
   -2.0953    1.0320    0.0916 H   0  0  0  0  0  0  0  0  0  0  0  0
   -1.2042    2.5098    0.4983 H   0  0  0  0  0  0  0  0  0  0  0  0
   -0.8659    1.6389   -1.0083 H   0  0  0  0  0  0  0  0  0  0  0  0
    0.1633   -1.4940   -1.8413 C   0  0  0  0  0  0  0  0  0  0  0  0
    0.2002   -1.7273   -0.3529 C   0  0  0  0  0  0  0  0  0  0  0  0
   -0.7954   -1.0741   -2.1528 H   0  0  0  0  0  0  0  0  0  0  0  0
    0.9483   -0.8011   -2.1507 H   0  0  0  0  0  0  0  0  0  0  0  0
    0.3085   -2.4241   -2.3990 H   0  0  0  0  0  0  0  0  0  0  0  0
    0.0471   -0.5616    0.2193 H   0  0  0  0  0  0  0  0  0  0  0  0
    1.1588   -2.0770    0.0274 H   0  0  0  0  0  0  0  0  0  0  0  0
   -0.6214   -2.3278    0.0346 H   0  0  0  0  0  0  0  0  0  0  0  0
  1  2  2  3
  1  4  1  0
  1  5  1  0
  2  3  1  0
  3  6  1  0
  3  7  1  0
  3  8  1  0
  9 10  1  0
  9 11  1  0
  9 12  1  0
  9 13  1  0
 10 14  1  0
 10 15  1  0
 10 16  1  0
M  RAD  1   2   2
M  END
>  <reaction>  (4) 
rxn_884

>  <mol_properties>  (4) 
{"0": {"label": "*4", "atom_type": "Cd"}, "1": {"label": "*3", "atom_type": "Cd"}, "8": {"label": "*0", "atom_type": "Cs"}, "9": {"label": "*1", "atom_type": "Cs"}, "13": {"label": "*2", "atom_type": "H0"}}

>  <type>  (4) 
ts

$$$$

     RDKit          3D

 16 14  0  0  0  0  0  0  0  0999 V2000
   -1.1158    1.2677    1.2734 C   0  0  0  0  0  0  0  0  0  0  0  0
   -0.1112    0.8840    0.5016 C   0  0  0  0  0  0  0  0  0  0  0  0
    1.3329    1.1659    0.7653 C   0  0  0  0  0  0  0  0  0  0  0  0
   -2.1429    1.0308    1.0258 H   0  0  0  0  0  0  0  0  0  0  0  0
   -0.9464    1.8342    2.1830 H   0  0  0  0  0  0  0  0  0  0  0  0
    1.7751    1.7329   -0.0580 H   0  0  0  0  0  0  0  0  0  0  0  0
    1.4662    1.7358    1.6856 H   0  0  0  0  0  0  0  0  0  0  0  0
    1.9013    0.2362    0.8506 H   0  0  0  0  0  0  0  0  0  0  0  0
   -0.1112   -1.5521   -1.9693 C   0  0  0  0  0  0  0  0  0  0  0  0
   -0.1112   -1.5521   -0.4465 C   0  0  0  0  0  3  0  0  0  0  0  0
   -0.9920   -1.0436   -2.3652 H   0  0  0  0  0  0  0  0  0  0  0  0
    0.7697   -1.0436   -2.3652 H   0  0  0  0  0  0  0  0  0  0  0  0
   -0.1112   -2.5693   -2.3652 H   0  0  0  0  0  0  0  0  0  0  0  0
   -0.1112   -0.3316    0.0285 H   0  0  0  0  0  0  0  0  0  0  0  0
    0.7697   -2.0607   -0.0507 H   0  0  0  0  0  0  0  0  0  0  0  0
   -0.9920   -2.0607   -0.0507 H   0  0  0  0  0  0  0  0  0  0  0  0
  1  2  2  3
  1  4  1  0
  1  5  1  0
  2  3  1  0
  2 14  1  0
  3  6  1  0
  3  7  1  0
  3  8  1  0
  9 10  1  0
  9 11  1  0
  9 12  1  0
  9 13  1  0
 10 15  1  0
 10 16  1  0
M  RAD  1  10   2
M  END
>  <reaction>  (5) 
rxn_884

>  <mol_properties>  (5) 
{"0": {"label": "*4", "atom_type": "Cd"}, "1": {"label": "*3", "atom_type": "Cd"}, "8": {"label": "*0", "atom_type": "Cs"}, "9": {"label": "*1", "atom_type": "Cs"}, "13": {"label": "*2", "atom_type": "H0"}}

>  <type>  (5) 
unop_1

>  <geom_source>  (5) 
Heuristics

$$$$

     RDKit          3D

 16 14  0  0  0  0  0  0  0  0999 V2000
   -0.5332    1.7665   -0.1597 C   0  0  0  0  0  0  0  0  0  0  0  0
    0.0469    0.8079    0.5454 C   0  0  0  0  0  0  0  0  0  0  0  0
    0.3812    0.8917    1.9998 C   0  0  0  0  0  0  0  0  0  0  0  0
   -0.7492    1.6430   -1.2134 H   0  0  0  0  0  0  0  0  0  0  0  0
   -0.8136    2.7116    0.2933 H   0  0  0  0  0  0  0  0  0  0  0  0
    1.4543    0.7599    2.1604 H   0  0  0  0  0  0  0  0  0  0  0  0
    0.0862    1.8531    2.4220 H   0  0  0  0  0  0  0  0  0  0  0  0
   -0.1224    0.1002    2.5608 H   0  0  0  0  0  0  0  0  0  0  0  0
    0.0469   -1.6282   -1.9255 C   0  0  0  0  0  0  0  0  0  0  0  0
    0.0469   -1.6282   -0.4027 C   0  0  0  0  0  3  0  0  0  0  0  0
   -0.8340   -1.1196   -2.3214 H   0  0  0  0  0  0  0  0  0  0  0  0
    0.9277   -1.1196   -2.3214 H   0  0  0  0  0  0  0  0  0  0  0  0
    0.0468   -2.6453   -2.3214 H   0  0  0  0  0  0  0  0  0  0  0  0
    0.0469   -0.4076    0.0723 H   0  0  0  0  0  0  0  0  0  0  0  0
    0.9277   -2.1367   -0.0069 H   0  0  0  0  0  0  0  0  0  0  0  0
   -0.8340   -2.1367   -0.0069 H   0  0  0  0  0  0  0  0  0  0  0  0
  1  2  2  3
  1  4  1  0
  1  5  1  0
  2  3  1  0
  2 14  1  0
  3  6  1  0
  3  7  1  0
  3  8  1  0
  9 10  1  0
  9 11  1  0
  9 12  1  0
  9 13  1  0
 10 15  1  0
 10 16  1  0
M  RAD  1  10   2
M  END
>  <reaction>  (6) 
rxn_884

>  <mol_properties>  (6) 
{"0": {"label": "*4", "atom_type": "Cd"}, "1": {"label": "*3", "atom_type": "Cd"}, "8": {"label": "*0", "atom_type": "Cs"}, "9": {"label": "*1", "atom_type": "Cs"}, "13": {"label": "*2", "atom_type": "H0"}}

>  <type>  (6) 
unop_2

>  <geom_source>  (6) 
Heuristics

$$$$

     RDKit          3D

 16 14  0  0  0  0  0  0  0  0999 V2000
   -0.7301    1.0531    1.7578 C   0  0  0  0  0  0  0  0  0  0  0  0
   -0.1500    0.8233    0.5903 C   0  0  0  0  0  0  0  0  0  0  0  0
    1.0698    1.5227    0.0831 C   0  0  0  0  0  0  0  0  0  0  0  0
   -1.6145    0.5107    2.0674 H   0  0  0  0  0  0  0  0  0  0  0  0
   -0.3399    1.7940    2.4476 H   0  0  0  0  0  0  0  0  0  0  0  0
    0.8608    2.0345   -0.8599 H   0  0  0  0  0  0  0  0  0  0  0  0
    1.4344    2.2591    0.8003 H   0  0  0  0  0  0  0  0  0  0  0  0
    1.8731    0.8086   -0.1157 H   0  0  0  0  0  0  0  0  0  0  0  0
   -0.1500   -1.6128   -1.8806 C   0  0  0  0  0  0  0  0  0  0  0  0
   -0.1500   -1.6128   -0.3578 C   0  0  0  0  0  3  0  0  0  0  0  0
   -1.0309   -1.1042   -2.2764 H   0  0  0  0  0  0  0  0  0  0  0  0
    0.7308   -1.1042   -2.2764 H   0  0  0  0  0  0  0  0  0  0  0  0
   -0.1500   -2.6299   -2.2764 H   0  0  0  0  0  0  0  0  0  0  0  0
   -0.1500   -0.3922    0.1172 H   0  0  0  0  0  0  0  0  0  0  0  0
    0.7308   -2.1213    0.0381 H   0  0  0  0  0  0  0  0  0  0  0  0
   -1.0309   -2.1213    0.0381 H   0  0  0  0  0  0  0  0  0  0  0  0
  1  2  2  3
  1  4  1  0
  1  5  1  0
  2  3  1  0
  2 14  1  0
  3  6  1  0
  3  7  1  0
  3  8  1  0
  9 10  1  0
  9 11  1  0
  9 12  1  0
  9 13  1  0
 10 15  1  0
 10 16  1  0
M  RAD  1  10   2
M  END
>  <reaction>  (7) 
rxn_884

>  <mol_properties>  (7) 
{"0": {"label": "*4", "atom_type": "Cd"}, "1": {"label": "*3", "atom_type": "Cd"}, "8": {"label": "*0", "atom_type": "Cs"}, "9": {"label": "*1", "atom_type": "Cs"}, "13": {"label": "*2", "atom_type": "H0"}}

>  <type>  (7) 
unop_3

>  <geom_source>  (7) 
Heuristics

$$$$

     RDKit          3D

 16 14  0  0  0  0  0  0  0  0999 V2000
    0.9640    1.6568    0.1908 C   0  0  0  0  0  0  0  0  0  0  0  0
   -0.0407    0.8523    0.5001 C   0  0  0  0  0  0  0  0  0  0  0  0
   -0.8018    0.8813    1.7863 C   0  0  0  0  0  0  0  0  0  0  0  0
    1.4755    1.5843   -0.7608 H   0  0  0  0  0  0  0  0  0  0  0  0
    1.3118    2.4189    0.8803 H   0  0  0  0  0  0  0  0  0  0  0  0
   -0.7313   -0.0800    2.3016 H   0  0  0  0  0  0  0  0  0  0  0  0
   -0.4264    1.6576    2.4542 H   0  0  0  0  0  0  0  0  0  0  0  0
   -1.8637    1.0666    1.6056 H   0  0  0  0  0  0  0  0  0  0  0  0
   -0.0407   -1.5838   -1.9708 C   0  0  0  0  0  0  0  0  0  0  0  0
   -0.0407   -1.5838   -0.4480 C   0  0  0  0  0  3  0  0  0  0  0  0
   -0.9215   -1.0753   -2.3666 H   0  0  0  0  0  0  0  0  0  0  0  0
    0.8402   -1.0753   -2.3666 H   0  0  0  0  0  0  0  0  0  0  0  0
   -0.0407   -2.6009   -2.3666 H   0  0  0  0  0  0  0  0  0  0  0  0
   -0.0407   -0.3633    0.0270 H   0  0  0  0  0  0  0  0  0  0  0  0
    0.8402   -2.0924   -0.0521 H   0  0  0  0  0  0  0  0  0  0  0  0
   -0.9215   -2.0924   -0.0521 H   0  0  0  0  0  0  0  0  0  0  0  0
  1  2  2  3
  1  4  1  0
  1  5  1  0
  2  3  1  0
  2 14  1  0
  3  6  1  0
  3  7  1  0
  3  8  1  0
  9 10  1  0
  9 11  1  0
  9 12  1  0
  9 13  1  0
 10 15  1  0
 10 16  1  0
M  RAD  1  10   2
M  END
>  <reaction>  (8) 
rxn_884

>  <mol_properties>  (8) 
{"0": {"label": "*4", "atom_type": "Cd"}, "1": {"label": "*3", "atom_type": "Cd"}, "8": {"label": "*0", "atom_type": "Cs"}, "9": {"label": "*1", "atom_type": "Cs"}, "13": {"label": "*2", "atom_type": "H0"}}

>  <type>  (8) 
unop_4

>  <geom_source>  (8) 
Heuristics

$$$$

     RDKit          3D

 16 14  0  0  0  0  0  0  0  0999 V2000
    0.0000    0.9196    1.9849 C   0  0  0  0  0  0  0  0  0  0  0  0
    0.0000    0.7463    0.6725 C   0  0  0  0  0  0  0  0  0  0  0  0
   -0.0000    1.8452   -0.3406 C   0  0  0  0  0  0  0  0  0  0  0  0
    0.0000    0.0791    2.6673 H   0  0  0  0  0  0  0  0  0  0  0  0
   -0.0000    1.9114    2.4248 H   0  0  0  0  0  0  0  0  0  0  0  0
   -0.8777    1.7769   -0.9885 H   0  0  0  0  0  0  0  0  0  0  0  0
   -0.0000    2.8265    0.1355 H   0  0  0  0  0  0  0  0  0  0  0  0
    0.8777    1.7769   -0.9885 H   0  0  0  0  0  0  0  0  0  0  0  0
    0.0000   -1.6899   -1.7984 C   0  0  0  0  0  0  0  0  0  0  0  0
    0.0000   -1.6899   -0.2756 C   0  0  0  0  0  3  0  0  0  0  0  0
   -0.8808   -1.1813   -2.1942 H   0  0  0  0  0  0  0  0  0  0  0  0
    0.8808   -1.1813   -2.1942 H   0  0  0  0  0  0  0  0  0  0  0  0
   -0.0000   -2.7070   -2.1942 H   0  0  0  0  0  0  0  0  0  0  0  0
    0.0000   -0.4693    0.1994 H   0  0  0  0  0  0  0  0  0  0  0  0
    0.8808   -2.1984    0.1203 H   0  0  0  0  0  0  0  0  0  0  0  0
   -0.8808   -2.1984    0.1203 H   0  0  0  0  0  0  0  0  0  0  0  0
  1  2  2  3
  1  4  1  0
  1  5  1  0
  2  3  1  0
  2 14  1  0
  3  6  1  0
  3  7  1  0
  3  8  1  0
  9 10  1  0
  9 11  1  0
  9 12  1  0
  9 13  1  0
 10 15  1  0
 10 16  1  0
M  RAD  1  10   2
M  END
>  <reaction>  (9) 
rxn_884

>  <mol_properties>  (9) 
{"0": {"label": "*4", "atom_type": "Cd"}, "1": {"label": "*3", "atom_type": "Cd"}, "8": {"label": "*0", "atom_type": "Cs"}, "9": {"label": "*1", "atom_type": "Cs"}, "13": {"label": "*2", "atom_type": "H0"}}

>  <type>  (9) 
unop_5

>  <geom_source>  (9) 
Heuristics

$$$$

     RDKit          3D

 16 14  0  0  0  0  0  0  0  0999 V2000
    1.1839    1.4806    0.7061 C   0  0  0  0  0  0  0  0  0  0  0  0
    0.0238    0.8864    0.4748 C   0  0  0  0  0  0  0  0  0  0  0  0
   -1.1734    0.9596    1.3668 C   0  0  0  0  0  0  0  0  0  0  0  0
    2.0148    1.3879    0.0181 H   0  0  0  0  0  0  0  0  0  0  0  0
    1.3444    2.0825    1.5943 H   0  0  0  0  0  0  0  0  0  0  0  0
   -1.4720   -0.0378    1.6996 H   0  0  0  0  0  0  0  0  0  0  0  0
   -0.9771    1.5714    2.2482 H   0  0  0  0  0  0  0  0  0  0  0  0
   -2.0286    1.3854    0.8357 H   0  0  0  0  0  0  0  0  0  0  0  0
    0.0238   -1.5497   -1.9961 C   0  0  0  0  0  0  0  0  0  0  0  0
    0.0238   -1.5497   -0.4733 C   0  0  0  0  0  3  0  0  0  0  0  0
   -0.8570   -1.0411   -2.3919 H   0  0  0  0  0  0  0  0  0  0  0  0
    0.9046   -1.0411   -2.3919 H   0  0  0  0  0  0  0  0  0  0  0  0
    0.0238   -2.5668   -2.3919 H   0  0  0  0  0  0  0  0  0  0  0  0
    0.0238   -0.3292    0.0017 H   0  0  0  0  0  0  0  0  0  0  0  0
    0.9046   -2.0583   -0.0774 H   0  0  0  0  0  0  0  0  0  0  0  0
   -0.8570   -2.0583   -0.0774 H   0  0  0  0  0  0  0  0  0  0  0  0
  1  2  2  3
  1  4  1  0
  1  5  1  0
  2  3  1  0
  2 14  1  0
  3  6  1  0
  3  7  1  0
  3  8  1  0
  9 10  1  0
  9 11  1  0
  9 12  1  0
  9 13  1  0
 10 15  1  0
 10 16  1  0
M  RAD  1  10   2
M  END
>  <reaction>  (10) 
rxn_884

>  <mol_properties>  (10) 
{"0": {"label": "*4", "atom_type": "Cd"}, "1": {"label": "*3", "atom_type": "Cd"}, "8": {"label": "*0", "atom_type": "Cs"}, "9": {"label": "*1", "atom_type": "Cs"}, "13": {"label": "*2", "atom_type": "H0"}}

>  <type>  (10) 
unop_6

>  <geom_source>  (10) 
Heuristics

$$$$

     RDKit          3D

 16 14  0  0  0  0  0  0  0  0999 V2000
    1.1158    1.2677    1.2734 C   0  0  0  0  0  0  0  0  0  0  0  0
    0.1112    0.8840    0.5016 C   0  0  0  0  0  0  0  0  0  0  0  0
   -1.3329    1.1659    0.7653 C   0  0  0  0  0  0  0  0  0  0  0  0
    2.1429    1.0308    1.0258 H   0  0  0  0  0  0  0  0  0  0  0  0
    0.9464    1.8342    2.1830 H   0  0  0  0  0  0  0  0  0  0  0  0
   -1.9013    0.2362    0.8506 H   0  0  0  0  0  0  0  0  0  0  0  0
   -1.4662    1.7358    1.6856 H   0  0  0  0  0  0  0  0  0  0  0  0
   -1.7751    1.7329   -0.0580 H   0  0  0  0  0  0  0  0  0  0  0  0
    0.1112   -1.5521   -1.9693 C   0  0  0  0  0  0  0  0  0  0  0  0
    0.1112   -1.5521   -0.4465 C   0  0  0  0  0  3  0  0  0  0  0  0
   -0.7697   -1.0436   -2.3652 H   0  0  0  0  0  0  0  0  0  0  0  0
    0.9920   -1.0436   -2.3652 H   0  0  0  0  0  0  0  0  0  0  0  0
    0.1112   -2.5693   -2.3652 H   0  0  0  0  0  0  0  0  0  0  0  0
    0.1112   -0.3316    0.0285 H   0  0  0  0  0  0  0  0  0  0  0  0
    0.9920   -2.0607   -0.0507 H   0  0  0  0  0  0  0  0  0  0  0  0
   -0.7697   -2.0607   -0.0507 H   0  0  0  0  0  0  0  0  0  0  0  0
  1  2  2  3
  1  4  1  0
  1  5  1  0
  2  3  1  0
  2 14  1  0
  3  6  1  0
  3  7  1  0
  3  8  1  0
  9 10  1  0
  9 11  1  0
  9 12  1  0
  9 13  1  0
 10 15  1  0
 10 16  1  0
M  RAD  1  10   2
M  END
>  <reaction>  (11) 
rxn_884

>  <mol_properties>  (11) 
{"0": {"label": "*4", "atom_type": "Cd"}, "1": {"label": "*3", "atom_type": "Cd"}, "8": {"label": "*0", "atom_type": "Cs"}, "9": {"label": "*1", "atom_type": "Cs"}, "13": {"label": "*2", "atom_type": "H0"}}

>  <type>  (11) 
unop_7

>  <geom_source>  (11) 
Heuristics

$$$$

     RDKit          3D

 16 14  0  0  0  0  0  0  0  0999 V2000
   -1.1839    1.4806    0.7061 C   0  0  0  0  0  0  0  0  0  0  0  0
   -0.0238    0.8864    0.4748 C   0  0  0  0  0  0  0  0  0  0  0  0
    1.1734    0.9596    1.3668 C   0  0  0  0  0  0  0  0  0  0  0  0
   -2.0148    1.3879    0.0181 H   0  0  0  0  0  0  0  0  0  0  0  0
   -1.3444    2.0825    1.5943 H   0  0  0  0  0  0  0  0  0  0  0  0
    2.0286    1.3854    0.8357 H   0  0  0  0  0  0  0  0  0  0  0  0
    0.9771    1.5714    2.2482 H   0  0  0  0  0  0  0  0  0  0  0  0
    1.4720   -0.0378    1.6996 H   0  0  0  0  0  0  0  0  0  0  0  0
   -0.0238   -1.5497   -1.9961 C   0  0  0  0  0  0  0  0  0  0  0  0
   -0.0238   -1.5497   -0.4733 C   0  0  0  0  0  3  0  0  0  0  0  0
   -0.9046   -1.0411   -2.3919 H   0  0  0  0  0  0  0  0  0  0  0  0
    0.8570   -1.0411   -2.3919 H   0  0  0  0  0  0  0  0  0  0  0  0
   -0.0238   -2.5668   -2.3919 H   0  0  0  0  0  0  0  0  0  0  0  0
   -0.0238   -0.3292    0.0017 H   0  0  0  0  0  0  0  0  0  0  0  0
    0.8570   -2.0583   -0.0774 H   0  0  0  0  0  0  0  0  0  0  0  0
   -0.9046   -2.0583   -0.0774 H   0  0  0  0  0  0  0  0  0  0  0  0
  1  2  2  3
  1  4  1  0
  1  5  1  0
  2  3  1  0
  2 14  1  0
  3  6  1  0
  3  7  1  0
  3  8  1  0
  9 10  1  0
  9 11  1  0
  9 12  1  0
  9 13  1  0
 10 15  1  0
 10 16  1  0
M  RAD  1  10   2
M  END
>  <reaction>  (12) 
rxn_884

>  <mol_properties>  (12) 
{"0": {"label": "*4", "atom_type": "Cd"}, "1": {"label": "*3", "atom_type": "Cd"}, "8": {"label": "*0", "atom_type": "Cs"}, "9": {"label": "*1", "atom_type": "Cs"}, "13": {"label": "*2", "atom_type": "H0"}}

>  <type>  (12) 
unop_8

>  <geom_source>  (12) 
Heuristics

$$$$

     RDKit          3D

 16 14  0  0  0  0  0  0  0  0999 V2000
    0.5332    1.7665   -0.1597 C   0  0  0  0  0  0  0  0  0  0  0  0
   -0.0469    0.8079    0.5454 C   0  0  0  0  0  0  0  0  0  0  0  0
   -0.3812    0.8917    1.9998 C   0  0  0  0  0  0  0  0  0  0  0  0
    0.7492    1.6430   -1.2134 H   0  0  0  0  0  0  0  0  0  0  0  0
    0.8136    2.7116    0.2933 H   0  0  0  0  0  0  0  0  0  0  0  0
    0.1224    0.1002    2.5608 H   0  0  0  0  0  0  0  0  0  0  0  0
   -0.0862    1.8531    2.4220 H   0  0  0  0  0  0  0  0  0  0  0  0
   -1.4543    0.7599    2.1604 H   0  0  0  0  0  0  0  0  0  0  0  0
   -0.0469   -1.6282   -1.9255 C   0  0  0  0  0  0  0  0  0  0  0  0
   -0.0469   -1.6282   -0.4027 C   0  0  0  0  0  3  0  0  0  0  0  0
   -0.9277   -1.1196   -2.3214 H   0  0  0  0  0  0  0  0  0  0  0  0
    0.8340   -1.1196   -2.3214 H   0  0  0  0  0  0  0  0  0  0  0  0
   -0.0469   -2.6453   -2.3214 H   0  0  0  0  0  0  0  0  0  0  0  0
   -0.0469   -0.4076    0.0723 H   0  0  0  0  0  0  0  0  0  0  0  0
    0.8340   -2.1367   -0.0069 H   0  0  0  0  0  0  0  0  0  0  0  0
   -0.9277   -2.1367   -0.0069 H   0  0  0  0  0  0  0  0  0  0  0  0
  1  2  2  3
  1  4  1  0
  1  5  1  0
  2  3  1  0
  2 14  1  0
  3  6  1  0
  3  7  1  0
  3  8  1  0
  9 10  1  0
  9 11  1  0
  9 12  1  0
  9 13  1  0
 10 15  1  0
 10 16  1  0
M  RAD  1  10   2
M  END
>  <reaction>  (13) 
rxn_884

>  <mol_properties>  (13) 
{"0": {"label": "*4", "atom_type": "Cd"}, "1": {"label": "*3", "atom_type": "Cd"}, "8": {"label": "*0", "atom_type": "Cs"}, "9": {"label": "*1", "atom_type": "Cs"}, "13": {"label": "*2", "atom_type": "H0"}}

>  <type>  (13) 
unop_9

>  <geom_source>  (13) 
Heuristics

$$$$

     RDKit          3D

 16 14  0  0  0  0  0  0  0  0999 V2000
   -0.9640    1.6568    0.1908 C   0  0  0  0  0  0  0  0  0  0  0  0
    0.0407    0.8523    0.5001 C   0  0  0  0  0  0  0  0  0  0  0  0
    0.8018    0.8813    1.7863 C   0  0  0  0  0  0  0  0  0  0  0  0
   -1.4755    1.5843   -0.7608 H   0  0  0  0  0  0  0  0  0  0  0  0
   -1.3118    2.4189    0.8803 H   0  0  0  0  0  0  0  0  0  0  0  0
    1.8637    1.0666    1.6056 H   0  0  0  0  0  0  0  0  0  0  0  0
    0.4264    1.6576    2.4542 H   0  0  0  0  0  0  0  0  0  0  0  0
    0.7313   -0.0800    2.3016 H   0  0  0  0  0  0  0  0  0  0  0  0
    0.0407   -1.5838   -1.9708 C   0  0  0  0  0  0  0  0  0  0  0  0
    0.0407   -1.5838   -0.4480 C   0  0  0  0  0  3  0  0  0  0  0  0
   -0.8402   -1.0753   -2.3666 H   0  0  0  0  0  0  0  0  0  0  0  0
    0.9215   -1.0753   -2.3666 H   0  0  0  0  0  0  0  0  0  0  0  0
    0.0407   -2.6009   -2.3666 H   0  0  0  0  0  0  0  0  0  0  0  0
    0.0407   -0.3633    0.0270 H   0  0  0  0  0  0  0  0  0  0  0  0
    0.9215   -2.0924   -0.0521 H   0  0  0  0  0  0  0  0  0  0  0  0
   -0.8402   -2.0924   -0.0521 H   0  0  0  0  0  0  0  0  0  0  0  0
  1  2  2  3
  1  4  1  0
  1  5  1  0
  2  3  1  0
  2 14  1  0
  3  6  1  0
  3  7  1  0
  3  8  1  0
  9 10  1  0
  9 11  1  0
  9 12  1  0
  9 13  1  0
 10 15  1  0
 10 16  1  0
M  RAD  1  10   2
M  END
>  <reaction>  (14) 
rxn_884

>  <mol_properties>  (14) 
{"0": {"label": "*4", "atom_type": "Cd"}, "1": {"label": "*3", "atom_type": "Cd"}, "8": {"label": "*0", "atom_type": "Cs"}, "9": {"label": "*1", "atom_type": "Cs"}, "13": {"label": "*2", "atom_type": "H0"}}

>  <type>  (14) 
unop_10

>  <geom_source>  (14) 
Heuristics

$$$$

     RDKit          3D

 16 14  0  0  0  0  0  0  0  0999 V2000
    0.7301    1.0531    1.7578 C   0  0  0  0  0  0  0  0  0  0  0  0
    0.1500    0.8233    0.5903 C   0  0  0  0  0  0  0  0  0  0  0  0
   -1.0698    1.5227    0.0831 C   0  0  0  0  0  0  0  0  0  0  0  0
    1.6145    0.5107    2.0674 H   0  0  0  0  0  0  0  0  0  0  0  0
    0.3399    1.7940    2.4476 H   0  0  0  0  0  0  0  0  0  0  0  0
   -1.8731    0.8086   -0.1157 H   0  0  0  0  0  0  0  0  0  0  0  0
   -1.4344    2.2591    0.8003 H   0  0  0  0  0  0  0  0  0  0  0  0
   -0.8608    2.0345   -0.8599 H   0  0  0  0  0  0  0  0  0  0  0  0
    0.1500   -1.6128   -1.8806 C   0  0  0  0  0  0  0  0  0  0  0  0
    0.1500   -1.6128   -0.3578 C   0  0  0  0  0  3  0  0  0  0  0  0
   -0.7308   -1.1042   -2.2764 H   0  0  0  0  0  0  0  0  0  0  0  0
    1.0309   -1.1042   -2.2764 H   0  0  0  0  0  0  0  0  0  0  0  0
    0.1500   -2.6299   -2.2764 H   0  0  0  0  0  0  0  0  0  0  0  0
    0.1500   -0.3922    0.1172 H   0  0  0  0  0  0  0  0  0  0  0  0
    1.0309   -2.1213    0.0381 H   0  0  0  0  0  0  0  0  0  0  0  0
   -0.7308   -2.1213    0.0381 H   0  0  0  0  0  0  0  0  0  0  0  0
  1  2  2  3
  1  4  1  0
  1  5  1  0
  2  3  1  0
  2 14  1  0
  3  6  1  0
  3  7  1  0
  3  8  1  0
  9 10  1  0
  9 11  1  0
  9 12  1  0
  9 13  1  0
 10 15  1  0
 10 16  1  0
M  RAD  1  10   2
M  END
>  <reaction>  (15) 
rxn_884

>  <mol_properties>  (15) 
{"0": {"label": "*4", "atom_type": "Cd"}, "1": {"label": "*3", "atom_type": "Cd"}, "8": {"label": "*0", "atom_type": "Cs"}, "9": {"label": "*1", "atom_type": "Cs"}, "13": {"label": "*2", "atom_type": "H0"}}

>  <type>  (15) 
unop_11

>  <geom_source>  (15) 
Heuristics

$$$$

     RDKit          3D

 16 14  0  0  0  0  0  0  0  0999 V2000
   -0.0000    1.8019   -0.2820 C   0  0  0  0  0  0  0  0  0  0  0  0
   -0.0000    0.7870    0.5679 C   0  0  0  0  0  0  0  0  0  0  0  0
    0.0000    0.9120    2.0573 C   0  0  0  0  0  0  0  0  0  0  0  0
   -0.0000    1.6438   -1.3532 H   0  0  0  0  0  0  0  0  0  0  0  0
    0.0000    2.8301    0.0642 H   0  0  0  0  0  0  0  0  0  0  0  0
    0.8777    0.4237    2.4886 H   0  0  0  0  0  0  0  0  0  0  0  0
    0.0000    1.9570    2.3698 H   0  0  0  0  0  0  0  0  0  0  0  0
   -0.8777    0.4237    2.4886 H   0  0  0  0  0  0  0  0  0  0  0  0
   -0.0000   -1.6491   -1.9030 C   0  0  0  0  0  0  0  0  0  0  0  0
   -0.0000   -1.6491   -0.3803 C   0  0  0  0  0  3  0  0  0  0  0  0
   -0.8808   -1.1406   -2.2989 H   0  0  0  0  0  0  0  0  0  0  0  0
    0.8808   -1.1406   -2.2989 H   0  0  0  0  0  0  0  0  0  0  0  0
   -0.0000   -2.6662   -2.2989 H   0  0  0  0  0  0  0  0  0  0  0  0
   -0.0000   -0.4286    0.0948 H   0  0  0  0  0  0  0  0  0  0  0  0
    0.8808   -2.1577    0.0156 H   0  0  0  0  0  0  0  0  0  0  0  0
   -0.8808   -2.1577    0.0156 H   0  0  0  0  0  0  0  0  0  0  0  0
  1  2  2  3
  1  4  1  0
  1  5  1  0
  2  3  1  0
  2 14  1  0
  3  6  1  0
  3  7  1  0
  3  8  1  0
  9 10  1  0
  9 11  1  0
  9 12  1  0
  9 13  1  0
 10 15  1  0
 10 16  1  0
M  RAD  1  10   2
M  END
>  <reaction>  (16) 
rxn_884

>  <mol_properties>  (16) 
{"0": {"label": "*4", "atom_type": "Cd"}, "1": {"label": "*3", "atom_type": "Cd"}, "8": {"label": "*0", "atom_type": "Cs"}, "9": {"label": "*1", "atom_type": "Cs"}, "13": {"label": "*2", "atom_type": "H0"}}

>  <type>  (16) 
unop_12

>  <geom_source>  (16) 
Heuristics

$$$$

     RDKit          3D

 16 14  0  0  0  0  0  0  0  0999 V2000
   -1.5102   -0.5416   -0.5431 C   0  0  0  0  0  0  0  0  0  0  0  0
   -1.8571   -0.0347    0.8454 C   0  0  0  0  0  0  0  0  0  0  0  0
    2.1625   -0.6561   -0.3708 C   0  0  0  0  0  0  0  0  0  0  0  0
    0.9367    1.4387    0.0944 C   0  0  0  0  0  0  0  0  0  0  0  0
    0.9494    0.2154   -0.4363 C   0  0  0  0  0  3  0  0  0  0  0  0
   -0.3191   -0.1458   -0.8654 H   0  0  0  0  0  0  0  0  0  0  0  0
   -1.5423   -1.6514   -0.5583 H   0  0  0  0  0  0  0  0  0  0  0  0
   -2.2385   -0.1456   -1.2819 H   0  0  0  0  0  0  0  0  0  0  0  0
   -1.8221    1.0748    0.8584 H   0  0  0  0  0  0  0  0  0  0  0  0
   -2.8772   -0.3714    1.1261 H   0  0  0  0  0  0  0  0  0  0  0  0
   -1.1263   -0.4301    1.5816 H   0  0  0  0  0  0  0  0  0  0  0  0
    1.9454   -1.6211   -0.8731 H   0  0  0  0  0  0  0  0  0  0  0  0
    3.0133   -0.1629   -0.8868 H   0  0  0  0  0  0  0  0  0  0  0  0
    2.4331   -0.8522    0.6882 H   0  0  0  0  0  0  0  0  0  0  0  0
    1.8134    1.8409    0.5934 H   0  0  0  0  0  0  0  0  0  0  0  0
    0.0388    2.0429    0.0281 H   0  0  0  0  0  0  0  0  0  0  0  0
  1  2  1  0
  1  6  1  0
  1  7  1  0
  1  8  1  0
  2  9  1  0
  2 10  1  0
  2 11  1  0
  3  5  1  0
  3 12  1  0
  3 13  1  0
  3 14  1  0
  4  5  2  3
  4 15  1  0
  4 16  1  0
M  RAD  1   5   2
M  END
>  <reaction>  (17) 
rxn_884

>  <mol_properties>  (17) 
{"0": {"label": "*4", "atom_type": "Cd"}, "1": {"label": "*3", "atom_type": "Cd"}, "8": {"label": "*0", "atom_type": "Cs"}, "9": {"label": "*1", "atom_type": "Cs"}, "13": {"label": "*2", "atom_type": "H0"}}

>  <type>  (17) 
unop_13

>  <geom_source>  (17) 
AutoTST

$$$$
