
     RDKit          3D

  7  6  0  0  0  0  0  0  0  0999 V2000
   -0.6782    0.0507    0.0301 C   0  0  0  0  0  0  0  0  0  0  0  0
    0.8092    0.0996    0.0213 C   0  0  0  0  0  0  0  0  0  0  0  0
    1.7473    0.7521    1.1507 S   0  0  0  0  0  0  0  0  0  0  0  0
   -1.0667    0.5456   -0.8653 H   0  0  0  0  0  0  0  0  0  0  0  0
   -1.0112   -0.9904   -0.0239 H   0  0  0  0  0  0  0  0  0  0  0  0
   -1.0920    0.5225    0.9188 H   0  0  0  0  0  0  0  0  0  0  0  0
    1.2740   -0.3620   -0.8520 H   0  0  0  0  0  0  0  0  0  0  0  0
  1  2  1  0
  1  4  1  0
  1  5  1  0
  1  6  1  0
  2  3  2  0
  2  7  1  0
M  END
>  <reaction>  (1) 
rxn_1960

>  <mol_properties>  (1) 
{"0": {"label": "donator", "atom_type": "Cs"}, "3": {"label": "d_hydrogen", "atom_type": "H0"}}

>  <type>  (1) 
r1h

$$$$

     RDKit          3D

 15 14  0  0  0  0  0  0  0  0999 V2000
    2.4381    0.5770   -0.2356 C   0  0  0  0  0  0  0  0  0  0  0  0
    1.4430   -0.3367   -0.1409 C   0  0  0  0  0  0  0  0  0  0  0  0
    0.0521   -0.0957   -0.0045 C   0  0  0  0  0  3  0  0  0  0  0  0
   -0.5167    1.2867    0.0548 C   0  0  0  0  0  0  0  0  0  0  0  0
   -0.8226   -1.2147    0.0778 C   0  0  0  0  0  0  0  0  0  0  0  0
   -2.1666   -1.1669    0.2092 C   0  0  0  0  0  0  0  0  0  0  0  0
    3.4666    0.2585   -0.3369 H   0  0  0  0  0  0  0  0  0  0  0  0
    2.2594    1.6438   -0.2152 H   0  0  0  0  0  0  0  0  0  0  0  0
    1.7306   -1.3845   -0.1719 H   0  0  0  0  0  0  0  0  0  0  0  0
   -1.2300    1.4469   -0.7583 H   0  0  0  0  0  0  0  0  0  0  0  0
    0.2481    2.0557   -0.0178 H   0  0  0  0  0  0  0  0  0  0  0  0
   -1.0592    1.4421    0.9914 H   0  0  0  0  0  0  0  0  0  0  0  0
   -0.3519   -2.1929    0.0292 H   0  0  0  0  0  0  0  0  0  0  0  0
   -2.7080   -0.2310    0.2646 H   0  0  0  0  0  0  0  0  0  0  0  0
   -2.7513   -2.0751    0.2638 H   0  0  0  0  0  0  0  0  0  0  0  0
  1  2  2  3
  1  7  1  0
  1  8  1  0
  2  3  1  0
  2  9  1  0
  3  4  1  0
  3  5  1  0
  4 10  1  0
  4 11  1  0
  4 12  1  0
  5  6  2  3
  5 13  1  0
  6 14  1  0
  6 15  1  0
M  RAD  1   3   2
M  END
>  <reaction>  (2) 
rxn_1960

>  <mol_properties>  (2) 
{"2": {"label": "acceptor", "atom_type": "Cs"}}

>  <type>  (2) 
r2

$$$$

     RDKit          3D

 16 15  0  0  0  0  0  0  0  0999 V2000
    1.7961   -0.3807    1.6176 C   0  0  0  0  0  0  0  0  0  0  0  0
    0.8562   -0.8708    0.8256 C   0  0  0  0  0  0  0  0  0  0  0  0
    0.0895   -0.0826   -0.2048 C   0  0  0  0  0  0  0  0  0  0  0  0
   -1.4061   -0.1111    0.0982 C   0  0  0  0  0  0  0  0  0  0  0  0
    0.4476   -0.5902   -1.5797 C   0  0  0  0  0  0  0  0  0  0  0  0
   -0.3793   -1.1113   -2.4728 C   0  0  0  0  0  0  0  0  0  0  0  0
    2.3110   -1.0032    2.3386 H   0  0  0  0  0  0  0  0  0  0  0  0
    2.0846    0.6643    1.5737 H   0  0  0  0  0  0  0  0  0  0  0  0
    0.5921   -1.9241    0.8925 H   0  0  0  0  0  0  0  0  0  0  0  0
    0.4358    0.9557   -0.1462 H   0  0  0  0  0  0  0  0  0  0  0  0
   -1.5968    0.3080    1.0865 H   0  0  0  0  0  0  0  0  0  0  0  0
   -1.9674    0.4693   -0.6359 H   0  0  0  0  0  0  0  0  0  0  0  0
   -1.7902   -1.1338    0.0883 H   0  0  0  0  0  0  0  0  0  0  0  0
    1.5049   -0.5197   -1.8214 H   0  0  0  0  0  0  0  0  0  0  0  0
   -1.4421   -1.2131   -2.2889 H   0  0  0  0  0  0  0  0  0  0  0  0
   -0.0162   -1.4558   -3.4328 H   0  0  0  0  0  0  0  0  0  0  0  0
  1  2  2  3
  1  7  1  0
  1  8  1  0
  2  3  1  0
  2  9  1  0
  3  4  1  0
  3  5  1  0
  3 10  1  0
  4 11  1  0
  4 12  1  0
  4 13  1  0
  5  6  2  3
  5 14  1  0
  6 15  1  0
  6 16  1  0
M  END
>  <reaction>  (3) 
rxn_1960

>  <mol_properties>  (3) 
{"2": {"label": "acceptor", "atom_type": "Cs"}, "15": {"label": "a_hydrogen", "atom_type": "H0"}}

>  <type>  (3) 
r2h

$$$$

     RDKit          3D

 22 20  0  0  0  0  0  0  0  0999 V2000
    0.4657   -1.3209    3.1678 C   0  0  0  0  0  0  0  0  0  0  0  0
   -0.3392   -1.1500    2.1223 C   0  0  0  0  0  0  0  0  0  0  0  0
   -0.5272    0.0915    1.3501 C   0  0  0  0  0  0  0  0  0  0  0  0
    0.1244    1.3494    1.8709 C   0  0  0  0  0  0  0  0  0  0  0  0
   -1.8445    0.2211    0.7109 C   0  0  0  0  0  0  0  0  0  0  0  0
   -2.3697    1.3410    0.2158 C   0  0  0  0  0  0  0  0  0  0  0  0
    0.5407   -2.2840    3.6551 H   0  0  0  0  0  0  0  0  0  0  0  0
    1.0603   -0.5168    3.5822 H   0  0  0  0  0  0  0  0  0  0  0  0
   -0.9148   -2.0024    1.7704 H   0  0  0  0  0  0  0  0  0  0  0  0
    0.1472    2.1245    1.1056 H   0  0  0  0  0  0  0  0  0  0  0  0
    1.1561    1.1621    2.1672 H   0  0  0  0  0  0  0  0  0  0  0  0
   -0.4208    1.7316    2.7373 H   0  0  0  0  0  0  0  0  0  0  0  0
   -2.3960   -0.7069    0.5849 H   0  0  0  0  0  0  0  0  0  0  0  0
   -1.8765    2.3008    0.2945 H   0  0  0  0  0  0  0  0  0  0  0  0
   -3.3311    1.3264   -0.2806 H   0  0  0  0  0  0  0  0  0  0  0  0
    1.0436   -0.1509   -0.8245 C   0  0  0  0  0  0  0  0  0  0  0  0
    0.4558    0.7423   -1.7498 C   0  0  0  0  0  0  0  0  0  0  0  0
    0.7985    2.3509   -1.8640 S   0  0  0  0  0  1  0  0  0  0  0  0
    0.1973   -0.1230    0.2705 H   0  0  0  0  0  0  0  0  0  0  0  0
    0.9694   -1.2159   -1.0300 H   0  0  0  0  0  0  0  0  0  0  0  0
    1.9537    0.1709   -0.3269 H   0  0  0  0  0  0  0  0  0  0  0  0
   -0.3089    0.3257   -2.4033 H   0  0  0  0  0  0  0  0  0  0  0  0
  1  2  2  3
  1  7  1  0
  1  8  1  0
  2  3  1  0
  2  9  1  0
  3  4  1  0
  3  5  1  0
  3 19  1  0
  4 10  1  0
  4 11  1  0
  4 12  1  0
  5  6  2  3
  5 13  1  0
  6 14  1  0
  6 15  1  0
 16 17  2  3
 16 20  1  0
 16 21  1  0
 17 18  1  0
 17 22  1  0
M  RAD  1  18   2
M  END
>  <reaction>  (4) 
rxn_1960

>  <mol_properties>  (4) 
{"1": {"label": "*0", "atom_type": "Cd"}, "2": {"label": "*1", "atom_type": "Cs"}, "15": {"label": "*3", "atom_type": "Cd"}, "16": {"label": "*4", "atom_type": "Cd"}, "18": {"label": "*2", "atom_type": "H0"}}

>  <type>  (4) 
ts

$$$$

     RDKit          3D

 22 20  0  0  0  0  0  0  0  0999 V2000
    0.8319   -0.3566    2.9456 C   0  0  0  0  0  0  0  0  0  0  0  0
   -0.2178    0.3243    2.5151 C   0  0  0  0  0  0  0  0  0  0  0  0
   -0.7198    0.3418    1.0944 C   0  0  0  0  0  3  0  0  0  0  0  0
   -0.6927    1.7599    0.5309 C   0  0  0  0  0  0  0  0  0  0  0  0
   -2.0777   -0.3136    1.0438 C   0  0  0  0  0  0  0  0  0  0  0  0
   -3.2120    0.2418    0.6465 C   0  0  0  0  0  0  0  0  0  0  0  0
    1.1403   -0.3265    3.9831 H   0  0  0  0  0  0  0  0  0  0  0  0
    1.4230   -0.9697    2.2734 H   0  0  0  0  0  0  0  0  0  0  0  0
   -0.7914    0.9276    3.2156 H   0  0  0  0  0  0  0  0  0  0  0  0
   -1.0417    1.7792   -0.5029 H   0  0  0  0  0  0  0  0  0  0  0  0
    0.3230    2.1552    0.5582 H   0  0  0  0  0  0  0  0  0  0  0  0
   -1.3282    2.4283    1.1164 H   0  0  0  0  0  0  0  0  0  0  0  0
   -2.0910   -1.3432    1.3919 H   0  0  0  0  0  0  0  0  0  0  0  0
   -3.2642    1.2649    0.2939 H   0  0  0  0  0  0  0  0  0  0  0  0
   -4.1392   -0.3170    0.6580 H   0  0  0  0  0  0  0  0  0  0  0  0
    1.3846    0.4064   -0.4794 C   0  0  0  0  0  0  0  0  0  0  0  0
    1.3846   -0.7921   -1.3616 C   0  0  0  0  0  0  0  0  0  0  0  0
    1.3846   -0.7921   -2.9682 S   0  0  0  0  0  0  0  0  0  0  0  0
    0.3332    0.3741    0.3069 H   0  0  0  0  0  0  0  0  0  0  0  0
    2.2607    0.3795    0.1758 H   0  0  0  0  0  0  0  0  0  0  0  0
    1.3846    1.3302   -1.0541 H   0  0  0  0  0  0  0  0  0  0  0  0
    1.3846   -1.7465   -0.8316 H   0  0  0  0  0  0  0  0  0  0  0  0
  1  2  2  3
  1  7  1  0
  1  8  1  0
  2  3  1  0
  2  9  1  0
  3  4  1  0
  3  5  1  0
  4 10  1  0
  4 11  1  0
  4 12  1  0
  5  6  2  3
  5 13  1  0
  6 14  1  0
  6 15  1  0
 16 17  1  0
 16 19  1  0
 16 20  1  0
 16 21  1  0
 17 18  2  0
 17 22  1  0
M  RAD  1   3   2
M  END
>  <reaction>  (5) 
rxn_1960

>  <mol_properties>  (5) 
{"1": {"label": "*0", "atom_type": "Cd"}, "2": {"label": "*1", "atom_type": "Cs"}, "15": {"label": "*3", "atom_type": "Cd"}, "16": {"label": "*4", "atom_type": "Cd"}, "18": {"label": "*2", "atom_type": "H0"}}

>  <type>  (5) 
unop_1

>  <geom_source>  (5) 
Heuristics

$$$$

     RDKit          3D

 22 20  0  0  0  0  0  0  0  0999 V2000
   -0.5966   -2.0328    0.6835 C   0  0  0  0  0  0  0  0  0  0  0  0
   -0.9874   -1.0214    1.4420 C   0  0  0  0  0  0  0  0  0  0  0  0
   -0.6522    0.4276    1.1994 C   0  0  0  0  0  3  0  0  0  0  0  0
    0.1211    1.0068    2.3808 C   0  0  0  0  0  0  0  0  0  0  0  0
   -1.9187    1.1771    0.8672 C   0  0  0  0  0  0  0  0  0  0  0  0
   -2.4346    2.1974    1.5349 C   0  0  0  0  0  0  0  0  0  0  0  0
   -0.8735   -3.0539    0.9137 H   0  0  0  0  0  0  0  0  0  0  0  0
    0.0172   -1.8753   -0.1972 H   0  0  0  0  0  0  0  0  0  0  0  0
   -1.6049   -1.2128    2.3170 H   0  0  0  0  0  0  0  0  0  0  0  0
    0.3800    2.0525    2.2069 H   0  0  0  0  0  0  0  0  0  0  0  0
    1.0429    0.4459    2.5373 H   0  0  0  0  0  0  0  0  0  0  0  0
   -0.4655    0.9506    3.3008 H   0  0  0  0  0  0  0  0  0  0  0  0
   -2.4438    0.8028   -0.0078 H   0  0  0  0  0  0  0  0  0  0  0  0
   -1.9613    2.6118    2.4169 H   0  0  0  0  0  0  0  0  0  0  0  0
   -3.3593    2.6610    1.2153 H   0  0  0  0  0  0  0  0  0  0  0  0
    1.4522    0.4922   -0.3745 C   0  0  0  0  0  0  0  0  0  0  0  0
    1.4522   -0.7063   -1.2567 C   0  0  0  0  0  0  0  0  0  0  0  0
    1.4522   -0.7063   -2.8633 S   0  0  0  0  0  0  0  0  0  0  0  0
    0.4008    0.4599    0.4118 H   0  0  0  0  0  0  0  0  0  0  0  0
    2.3283    0.4653    0.2808 H   0  0  0  0  0  0  0  0  0  0  0  0
    1.4522    1.4160   -0.9491 H   0  0  0  0  0  0  0  0  0  0  0  0
    1.4522   -1.6607   -0.7267 H   0  0  0  0  0  0  0  0  0  0  0  0
  1  2  2  3
  1  7  1  0
  1  8  1  0
  2  3  1  0
  2  9  1  0
  3  4  1  0
  3  5  1  0
  4 10  1  0
  4 11  1  0
  4 12  1  0
  5  6  2  3
  5 13  1  0
  6 14  1  0
  6 15  1  0
 16 17  1  0
 16 19  1  0
 16 20  1  0
 16 21  1  0
 17 18  2  0
 17 22  1  0
M  RAD  1   3   2
M  END
>  <reaction>  (6) 
rxn_1960

>  <mol_properties>  (6) 
{"1": {"label": "*0", "atom_type": "Cd"}, "2": {"label": "*1", "atom_type": "Cs"}, "15": {"label": "*3", "atom_type": "Cd"}, "16": {"label": "*4", "atom_type": "Cd"}, "18": {"label": "*2", "atom_type": "H0"}}

>  <type>  (6) 
unop_2

>  <geom_source>  (6) 
Heuristics

$$$$

     RDKit          3D

 22 20  0  0  0  0  0  0  0  0999 V2000
    0.8736    1.1293    2.8715 C   0  0  0  0  0  0  0  0  0  0  0  0
   -0.3490    1.0551    2.3707 C   0  0  0  0  0  0  0  0  0  0  0  0
   -0.7233    0.3528    1.0912 C   0  0  0  0  0  3  0  0  0  0  0  0
   -1.3414    1.3340    0.0990 C   0  0  0  0  0  0  0  0  0  0  0  0
   -1.6039   -0.8281    1.4170 C   0  0  0  0  0  0  0  0  0  0  0  0
   -2.8431   -1.0327    0.9981 C   0  0  0  0  0  0  0  0  0  0  0  0
    1.0755    1.6504    3.7989 H   0  0  0  0  0  0  0  0  0  0  0  0
    1.7192    0.6708    2.3696 H   0  0  0  0  0  0  0  0  0  0  0  0
   -1.1761    1.5233    2.9002 H   0  0  0  0  0  0  0  0  0  0  0  0
   -1.6026    0.8358   -0.8361 H   0  0  0  0  0  0  0  0  0  0  0  0
   -0.6373    2.1360   -0.1239 H   0  0  0  0  0  0  0  0  0  0  0  0
   -2.2477    1.7877    0.5068 H   0  0  0  0  0  0  0  0  0  0  0  0
   -1.1463   -1.5584    2.0793 H   0  0  0  0  0  0  0  0  0  0  0  0
   -3.3549   -0.3396    0.3414 H   0  0  0  0  0  0  0  0  0  0  0  0
   -3.3940   -1.9145    1.3000 H   0  0  0  0  0  0  0  0  0  0  0  0
    1.3811    0.4174   -0.4826 C   0  0  0  0  0  0  0  0  0  0  0  0
    1.3811   -0.7811   -1.3648 C   0  0  0  0  0  0  0  0  0  0  0  0
    1.3811   -0.7811   -2.9715 S   0  0  0  0  0  0  0  0  0  0  0  0
    0.3297    0.3851    0.3036 H   0  0  0  0  0  0  0  0  0  0  0  0
    2.2572    0.3905    0.1726 H   0  0  0  0  0  0  0  0  0  0  0  0
    1.3811    1.3412   -1.0573 H   0  0  0  0  0  0  0  0  0  0  0  0
    1.3811   -1.7355   -0.8349 H   0  0  0  0  0  0  0  0  0  0  0  0
  1  2  2  3
  1  7  1  0
  1  8  1  0
  2  3  1  0
  2  9  1  0
  3  4  1  0
  3  5  1  0
  4 10  1  0
  4 11  1  0
  4 12  1  0
  5  6  2  3
  5 13  1  0
  6 14  1  0
  6 15  1  0
 16 17  1  0
 16 19  1  0
 16 20  1  0
 16 21  1  0
 17 18  2  0
 17 22  1  0
M  RAD  1   3   2
M  END
>  <reaction>  (7) 
rxn_1960

>  <mol_properties>  (7) 
{"1": {"label": "*0", "atom_type": "Cd"}, "2": {"label": "*1", "atom_type": "Cs"}, "15": {"label": "*3", "atom_type": "Cd"}, "16": {"label": "*4", "atom_type": "Cd"}, "18": {"label": "*2", "atom_type": "H0"}}

>  <type>  (7) 
unop_3

>  <geom_source>  (7) 
Heuristics

$$$$

     RDKit          3D

 22 20  0  0  0  0  0  0  0  0999 V2000
   -2.0004   -0.3777   -0.7964 C   0  0  0  0  0  0  0  0  0  0  0  0
   -1.9391    0.1414    0.4192 C   0  0  0  0  0  0  0  0  0  0  0  0
   -0.7179    0.1460    1.3020 C   0  0  0  0  0  3  0  0  0  0  0  0
   -0.9922   -0.5999    2.6049 C   0  0  0  0  0  0  0  0  0  0  0  0
   -0.2547    1.5689    1.4944 C   0  0  0  0  0  0  0  0  0  0  0  0
   -0.1506    2.2205    2.6423 C   0  0  0  0  0  0  0  0  0  0  0  0
   -2.9117   -0.3471   -1.3804 H   0  0  0  0  0  0  0  0  0  0  0  0
   -1.1389   -0.8543   -1.2522 H   0  0  0  0  0  0  0  0  0  0  0  0
   -2.8204    0.6151    0.8466 H   0  0  0  0  0  0  0  0  0  0  0  0
   -0.1080   -0.6133    3.2443 H   0  0  0  0  0  0  0  0  0  0  0  0
   -1.2795   -1.6303    2.3941 H   0  0  0  0  0  0  0  0  0  0  0  0
   -1.8073   -0.1322    3.1621 H   0  0  0  0  0  0  0  0  0  0  0  0
   -0.0043    2.0866    0.5722 H   0  0  0  0  0  0  0  0  0  0  0  0
   -0.3903    1.7610    3.5936 H   0  0  0  0  0  0  0  0  0  0  0  0
    0.1855    3.2493    2.6695 H   0  0  0  0  0  0  0  0  0  0  0  0
    1.3865    0.2106   -0.2719 C   0  0  0  0  0  0  0  0  0  0  0  0
    1.3865   -0.9878   -1.1540 C   0  0  0  0  0  0  0  0  0  0  0  0
    1.3865   -0.9878   -2.7607 S   0  0  0  0  0  0  0  0  0  0  0  0
    0.3351    0.1784    0.5144 H   0  0  0  0  0  0  0  0  0  0  0  0
    2.2626    0.1838    0.3834 H   0  0  0  0  0  0  0  0  0  0  0  0
    1.3864    1.1344   -0.8465 H   0  0  0  0  0  0  0  0  0  0  0  0
    1.3865   -1.9423   -0.6241 H   0  0  0  0  0  0  0  0  0  0  0  0
  1  2  2  3
  1  7  1  0
  1  8  1  0
  2  3  1  0
  2  9  1  0
  3  4  1  0
  3  5  1  0
  4 10  1  0
  4 11  1  0
  4 12  1  0
  5  6  2  3
  5 13  1  0
  6 14  1  0
  6 15  1  0
 16 17  1  0
 16 19  1  0
 16 20  1  0
 16 21  1  0
 17 18  2  0
 17 22  1  0
M  RAD  1   3   2
M  END
>  <reaction>  (8) 
rxn_1960

>  <mol_properties>  (8) 
{"1": {"label": "*0", "atom_type": "Cd"}, "2": {"label": "*1", "atom_type": "Cs"}, "15": {"label": "*3", "atom_type": "Cd"}, "16": {"label": "*4", "atom_type": "Cd"}, "18": {"label": "*2", "atom_type": "H0"}}

>  <type>  (8) 
unop_4

>  <geom_source>  (8) 
Heuristics

$$$$

     RDKit          3D

 22 20  0  0  0  0  0  0  0  0999 V2000
    0.2101    2.5027    1.8939 C   0  0  0  0  0  0  0  0  0  0  0  0
   -0.7491    1.5915    1.9161 C   0  0  0  0  0  0  0  0  0  0  0  0
   -0.7991    0.3605    1.0485 C   0  0  0  0  0  3  0  0  0  0  0  0
   -2.0533    0.3648    0.1789 C   0  0  0  0  0  0  0  0  0  0  0  0
   -0.6604   -0.8627    1.9206 C   0  0  0  0  0  0  0  0  0  0  0  0
   -1.5358   -1.8475    2.0503 C   0  0  0  0  0  0  0  0  0  0  0  0
    0.1864    3.3666    2.5462 H   0  0  0  0  0  0  0  0  0  0  0  0
    1.0558    2.4176    1.2195 H   0  0  0  0  0  0  0  0  0  0  0  0
   -1.5823    1.7047    2.6064 H   0  0  0  0  0  0  0  0  0  0  0  0
   -2.0901   -0.5169   -0.4630 H   0  0  0  0  0  0  0  0  0  0  0  0
   -2.0676    1.2520   -0.4547 H   0  0  0  0  0  0  0  0  0  0  0  0
   -2.9574    0.3765    0.7921 H   0  0  0  0  0  0  0  0  0  0  0  0
    0.2585   -0.8974    2.5000 H   0  0  0  0  0  0  0  0  0  0  0  0
   -2.4712   -1.8673    1.5042 H   0  0  0  0  0  0  0  0  0  0  0  0
   -1.3421   -2.6803    2.7145 H   0  0  0  0  0  0  0  0  0  0  0  0
    1.3053    0.4251   -0.5254 C   0  0  0  0  0  0  0  0  0  0  0  0
    1.3053   -0.7734   -1.4076 C   0  0  0  0  0  0  0  0  0  0  0  0
    1.3053   -0.7734   -3.0142 S   0  0  0  0  0  0  0  0  0  0  0  0
    0.2540    0.3928    0.2609 H   0  0  0  0  0  0  0  0  0  0  0  0
    2.1815    0.3982    0.1298 H   0  0  0  0  0  0  0  0  0  0  0  0
    1.3053    1.3489   -1.1000 H   0  0  0  0  0  0  0  0  0  0  0  0
    1.3053   -1.7278   -0.8776 H   0  0  0  0  0  0  0  0  0  0  0  0
  1  2  2  3
  1  7  1  0
  1  8  1  0
  2  3  1  0
  2  9  1  0
  3  4  1  0
  3  5  1  0
  4 10  1  0
  4 11  1  0
  4 12  1  0
  5  6  2  3
  5 13  1  0
  6 14  1  0
  6 15  1  0
 16 17  1  0
 16 19  1  0
 16 20  1  0
 16 21  1  0
 17 18  2  0
 17 22  1  0
M  RAD  1   3   2
M  END
>  <reaction>  (9) 
rxn_1960

>  <mol_properties>  (9) 
{"1": {"label": "*0", "atom_type": "Cd"}, "2": {"label": "*1", "atom_type": "Cs"}, "15": {"label": "*3", "atom_type": "Cd"}, "16": {"label": "*4", "atom_type": "Cd"}, "18": {"label": "*2", "atom_type": "H0"}}

>  <type>  (9) 
unop_5

>  <geom_source>  (9) 
Heuristics

$$$$

     RDKit          3D

 22 20  0  0  0  0  0  0  0  0999 V2000
   -2.1525    0.7746   -0.7969 C   0  0  0  0  0  0  0  0  0  0  0  0
   -1.9263    0.8229    0.5060 C   0  0  0  0  0  0  0  0  0  0  0  0
   -0.8083    0.1094    1.2213 C   0  0  0  0  0  3  0  0  0  0  0  0
   -1.3655   -0.8606    2.2596 C   0  0  0  0  0  0  0  0  0  0  0  0
    0.1468    1.1318    1.7859 C   0  0  0  0  0  0  0  0  0  0  0  0
    0.4633    1.3026    3.0601 C   0  0  0  0  0  0  0  0  0  0  0  0
   -2.9756    1.3132   -1.2495 H   0  0  0  0  0  0  0  0  0  0  0  0
   -1.5211    0.1920   -1.4594 H   0  0  0  0  0  0  0  0  0  0  0  0
   -2.5765    1.4190    1.1428 H   0  0  0  0  0  0  0  0  0  0  0  0
   -0.5622   -1.3919    2.7727 H   0  0  0  0  0  0  0  0  0  0  0  0
   -2.0110   -1.5955    1.7781 H   0  0  0  0  0  0  0  0  0  0  0  0
   -1.9590   -0.3346    3.0110 H   0  0  0  0  0  0  0  0  0  0  0  0
    0.5896    1.7892    1.0422 H   0  0  0  0  0  0  0  0  0  0  0  0
    0.0515    0.6833    3.8478 H   0  0  0  0  0  0  0  0  0  0  0  0
    1.1571    2.0769    3.3621 H   0  0  0  0  0  0  0  0  0  0  0  0
    1.2961    0.1740   -0.3525 C   0  0  0  0  0  0  0  0  0  0  0  0
    1.2961   -1.0244   -1.2347 C   0  0  0  0  0  0  0  0  0  0  0  0
    1.2961   -1.0244   -2.8414 S   0  0  0  0  0  0  0  0  0  0  0  0
    0.2447    0.1418    0.4338 H   0  0  0  0  0  0  0  0  0  0  0  0
    2.1723    0.1472    0.3027 H   0  0  0  0  0  0  0  0  0  0  0  0
    1.2961    1.0978   -0.9272 H   0  0  0  0  0  0  0  0  0  0  0  0
    1.2961   -1.9789   -0.7048 H   0  0  0  0  0  0  0  0  0  0  0  0
  1  2  2  3
  1  7  1  0
  1  8  1  0
  2  3  1  0
  2  9  1  0
  3  4  1  0
  3  5  1  0
  4 10  1  0
  4 11  1  0
  4 12  1  0
  5  6  2  3
  5 13  1  0
  6 14  1  0
  6 15  1  0
 16 17  1  0
 16 19  1  0
 16 20  1  0
 16 21  1  0
 17 18  2  0
 17 22  1  0
M  RAD  1   3   2
M  END
>  <reaction>  (10) 
rxn_1960

>  <mol_properties>  (10) 
{"1": {"label": "*0", "atom_type": "Cd"}, "2": {"label": "*1", "atom_type": "Cs"}, "15": {"label": "*3", "atom_type": "Cd"}, "16": {"label": "*4", "atom_type": "Cd"}, "18": {"label": "*2", "atom_type": "H0"}}

>  <type>  (10) 
unop_6

>  <geom_source>  (10) 
Heuristics

$$$$

     RDKit          3D

 22 20  0  0  0  0  0  0  0  0999 V2000
   -1.8471    1.9434   -0.3523 C   0  0  0  0  0  0  0  0  0  0  0  0
   -1.6923    1.3889    0.8391 C   0  0  0  0  0  0  0  0  0  0  0  0
   -0.8807    0.1514    1.1232 C   0  0  0  0  0  3  0  0  0  0  0  0
   -1.7604   -0.9452    1.7173 C   0  0  0  0  0  0  0  0  0  0  0  0
    0.3013    0.5244    1.9834 C   0  0  0  0  0  0  0  0  0  0  0  0
    0.5803    0.0608    3.1918 C   0  0  0  0  0  0  0  0  0  0  0  0
   -2.4450    2.8358   -0.4887 H   0  0  0  0  0  0  0  0  0  0  0  0
   -1.3808    1.5228   -1.2370 H   0  0  0  0  0  0  0  0  0  0  0  0
   -2.1710    1.8372    1.7071 H   0  0  0  0  0  0  0  0  0  0  0  0
   -1.1828   -1.8501    1.9131 H   0  0  0  0  0  0  0  0  0  0  0  0
   -2.5667   -1.1946    1.0271 H   0  0  0  0  0  0  0  0  0  0  0  0
   -2.2126   -0.6208    2.6575 H   0  0  0  0  0  0  0  0  0  0  0  0
    0.9619    1.2646    1.5396 H   0  0  0  0  0  0  0  0  0  0  0  0
   -0.0420   -0.6736    3.6889 H   0  0  0  0  0  0  0  0  0  0  0  0
    1.4546    0.4030    3.7308 H   0  0  0  0  0  0  0  0  0  0  0  0
    1.2237    0.2160   -0.4506 C   0  0  0  0  0  0  0  0  0  0  0  0
    1.2237   -0.9825   -1.3328 C   0  0  0  0  0  0  0  0  0  0  0  0
    1.2237   -0.9825   -2.9395 S   0  0  0  0  0  0  0  0  0  0  0  0
    0.1723    0.1837    0.3357 H   0  0  0  0  0  0  0  0  0  0  0  0
    2.0998    0.1891    0.2046 H   0  0  0  0  0  0  0  0  0  0  0  0
    1.2237    1.1398   -1.0253 H   0  0  0  0  0  0  0  0  0  0  0  0
    1.2237   -1.9369   -0.8029 H   0  0  0  0  0  0  0  0  0  0  0  0
  1  2  2  3
  1  7  1  0
  1  8  1  0
  2  3  1  0
  2  9  1  0
  3  4  1  0
  3  5  1  0
  4 10  1  0
  4 11  1  0
  4 12  1  0
  5  6  2  3
  5 13  1  0
  6 14  1  0
  6 15  1  0
 16 17  1  0
 16 19  1  0
 16 20  1  0
 16 21  1  0
 17 18  2  0
 17 22  1  0
M  RAD  1   3   2
M  END
>  <reaction>  (11) 
rxn_1960

>  <mol_properties>  (11) 
{"1": {"label": "*0", "atom_type": "Cd"}, "2": {"label": "*1", "atom_type": "Cs"}, "15": {"label": "*3", "atom_type": "Cd"}, "16": {"label": "*4", "atom_type": "Cd"}, "18": {"label": "*2", "atom_type": "H0"}}

>  <type>  (11) 
unop_7

>  <geom_source>  (11) 
Heuristics

$$$$

     RDKit          3D

 22 20  0  0  0  0  0  0  0  0999 V2000
    0.4405   -1.4404    2.3875 C   0  0  0  0  0  0  0  0  0  0  0  0
   -0.3233   -0.3607    2.3463 C   0  0  0  0  0  0  0  0  0  0  0  0
   -0.7220    0.3749    1.0931 C   0  0  0  0  0  3  0  0  0  0  0  0
   -0.2283    1.8184    1.1355 C   0  0  0  0  0  0  0  0  0  0  0  0
   -2.2118    0.2406    0.8961 C   0  0  0  0  0  0  0  0  0  0  0  0
   -3.0964    1.2243    0.8425 C   0  0  0  0  0  0  0  0  0  0  0  0
    0.6898   -1.9229    3.3242 H   0  0  0  0  0  0  0  0  0  0  0  0
    0.8461   -1.8813    1.4829 H   0  0  0  0  0  0  0  0  0  0  0  0
   -0.7167    0.0552    3.2715 H   0  0  0  0  0  0  0  0  0  0  0  0
   -0.5010    2.3544    0.2249 H   0  0  0  0  0  0  0  0  0  0  0  0
    0.8571    1.8410    1.2356 H   0  0  0  0  0  0  0  0  0  0  0  0
   -0.6545    2.3553    1.9861 H   0  0  0  0  0  0  0  0  0  0  0  0
   -2.5610   -0.7850    0.8090 H   0  0  0  0  0  0  0  0  0  0  0  0
   -2.8111    2.2658    0.9281 H   0  0  0  0  0  0  0  0  0  0  0  0
   -4.1504    1.0178    0.7062 H   0  0  0  0  0  0  0  0  0  0  0  0
    1.3823    0.4395   -0.4808 C   0  0  0  0  0  0  0  0  0  0  0  0
    1.3823   -0.7590   -1.3630 C   0  0  0  0  0  0  0  0  0  0  0  0
    1.3823   -0.7590   -2.9696 S   0  0  0  0  0  0  0  0  0  0  0  0
    0.3310    0.4072    0.3055 H   0  0  0  0  0  0  0  0  0  0  0  0
    2.2585    0.4126    0.1745 H   0  0  0  0  0  0  0  0  0  0  0  0
    1.3823    1.3633   -1.0554 H   0  0  0  0  0  0  0  0  0  0  0  0
    1.3823   -1.7134   -0.8330 H   0  0  0  0  0  0  0  0  0  0  0  0
  1  2  2  3
  1  7  1  0
  1  8  1  0
  2  3  1  0
  2  9  1  0
  3  4  1  0
  3  5  1  0
  4 10  1  0
  4 11  1  0
  4 12  1  0
  5  6  2  3
  5 13  1  0
  6 14  1  0
  6 15  1  0
 16 17  1  0
 16 19  1  0
 16 20  1  0
 16 21  1  0
 17 18  2  0
 17 22  1  0
M  RAD  1   3   2
M  END
>  <reaction>  (12) 
rxn_1960

>  <mol_properties>  (12) 
{"1": {"label": "*0", "atom_type": "Cd"}, "2": {"label": "*1", "atom_type": "Cs"}, "15": {"label": "*3", "atom_type": "Cd"}, "16": {"label": "*4", "atom_type": "Cd"}, "18": {"label": "*2", "atom_type": "H0"}}

>  <type>  (12) 
unop_8

>  <geom_source>  (12) 
Heuristics

$$$$

     RDKit          3D

 22 20  0  0  0  0  0  0  0  0999 V2000
   -1.5614   -1.2431   -0.4776 C   0  0  0  0  0  0  0  0  0  0  0  0
   -1.7383   -0.4791    0.5882 C   0  0  0  0  0  0  0  0  0  0  0  0
   -0.6448    0.2454    1.3299 C   0  0  0  0  0  3  0  0  0  0  0  0
   -0.5785   -0.2205    2.7818 C   0  0  0  0  0  0  0  0  0  0  0  0
   -0.8430    1.7325    1.1702 C   0  0  0  0  0  0  0  0  0  0  0  0
   -1.0381    2.6148    2.1379 C   0  0  0  0  0  0  0  0  0  0  0  0
   -2.3926   -1.7364   -0.9655 H   0  0  0  0  0  0  0  0  0  0  0  0
   -0.5755   -1.4038   -0.9010 H   0  0  0  0  0  0  0  0  0  0  0  0
   -2.7405   -0.3358    0.9866 H   0  0  0  0  0  0  0  0  0  0  0  0
    0.2205    0.2895    3.3225 H   0  0  0  0  0  0  0  0  0  0  0  0
   -0.3911   -1.2937    2.8234 H   0  0  0  0  0  0  0  0  0  0  0  0
   -1.5192   -0.0243    3.3014 H   0  0  0  0  0  0  0  0  0  0  0  0
   -0.8347    2.0769    0.1394 H   0  0  0  0  0  0  0  0  0  0  0  0
   -1.0620    2.3327    3.1836 H   0  0  0  0  0  0  0  0  0  0  0  0
   -1.1796    3.6645    1.9135 H   0  0  0  0  0  0  0  0  0  0  0  0
    1.4596    0.3100   -0.2439 C   0  0  0  0  0  0  0  0  0  0  0  0
    1.4596   -0.8885   -1.1261 C   0  0  0  0  0  0  0  0  0  0  0  0
    1.4596   -0.8885   -2.7328 S   0  0  0  0  0  0  0  0  0  0  0  0
    0.4082    0.2777    0.5424 H   0  0  0  0  0  0  0  0  0  0  0  0
    2.3358    0.2831    0.4113 H   0  0  0  0  0  0  0  0  0  0  0  0
    1.4596    1.2338   -0.8186 H   0  0  0  0  0  0  0  0  0  0  0  0
    1.4596   -1.8429   -0.5962 H   0  0  0  0  0  0  0  0  0  0  0  0
  1  2  2  3
  1  7  1  0
  1  8  1  0
  2  3  1  0
  2  9  1  0
  3  4  1  0
  3  5  1  0
  4 10  1  0
  4 11  1  0
  4 12  1  0
  5  6  2  3
  5 13  1  0
  6 14  1  0
  6 15  1  0
 16 17  1  0
 16 19  1  0
 16 20  1  0
 16 21  1  0
 17 18  2  0
 17 22  1  0
M  RAD  1   3   2
M  END
>  <reaction>  (13) 
rxn_1960

>  <mol_properties>  (13) 
{"1": {"label": "*0", "atom_type": "Cd"}, "2": {"label": "*1", "atom_type": "Cs"}, "15": {"label": "*3", "atom_type": "Cd"}, "16": {"label": "*4", "atom_type": "Cd"}, "18": {"label": "*2", "atom_type": "H0"}}

>  <type>  (13) 
unop_9

>  <geom_source>  (13) 
Heuristics

$$$$

     RDKit          3D

 22 20  0  0  0  0  0  0  0  0999 V2000
   -0.0874   -1.9845    1.5340 C   0  0  0  0  0  0  0  0  0  0  0  0
   -0.6058   -0.8393    1.9473 C   0  0  0  0  0  0  0  0  0  0  0  0
   -0.6982    0.4202    1.1253 C   0  0  0  0  0  3  0  0  0  0  0  0
    0.0701    1.5572    1.7934 C   0  0  0  0  0  0  0  0  0  0  0  0
   -2.1509    0.7315    0.8626 C   0  0  0  0  0  0  0  0  0  0  0  0
   -2.8048    1.8254    1.2212 C   0  0  0  0  0  0  0  0  0  0  0  0
   -0.0521   -2.8553    2.1765 H   0  0  0  0  0  0  0  0  0  0  0  0
    0.3226   -2.0920    0.5352 H   0  0  0  0  0  0  0  0  0  0  0  0
   -1.0116   -0.7652    2.9540 H   0  0  0  0  0  0  0  0  0  0  0  0
    0.0199    2.4697    1.1971 H   0  0  0  0  0  0  0  0  0  0  0  0
    1.1183    1.2821    1.9133 H   0  0  0  0  0  0  0  0  0  0  0  0
   -0.3342    1.7763    2.7844 H   0  0  0  0  0  0  0  0  0  0  0  0
   -2.6886   -0.0530    0.3365 H   0  0  0  0  0  0  0  0  0  0  0  0
   -2.3258    2.6395    1.7517 H   0  0  0  0  0  0  0  0  0  0  0  0
   -3.8556    1.9464    0.9901 H   0  0  0  0  0  0  0  0  0  0  0  0
    1.4062    0.4848   -0.4486 C   0  0  0  0  0  0  0  0  0  0  0  0
    1.4062   -0.7137   -1.3308 C   0  0  0  0  0  0  0  0  0  0  0  0
    1.4062   -0.7137   -2.9374 S   0  0  0  0  0  0  0  0  0  0  0  0
    0.3548    0.4525    0.3377 H   0  0  0  0  0  0  0  0  0  0  0  0
    2.2823    0.4579    0.2066 H   0  0  0  0  0  0  0  0  0  0  0  0
    1.4062    1.4086   -1.0232 H   0  0  0  0  0  0  0  0  0  0  0  0
    1.4062   -1.6681   -0.8008 H   0  0  0  0  0  0  0  0  0  0  0  0
  1  2  2  3
  1  7  1  0
  1  8  1  0
  2  3  1  0
  2  9  1  0
  3  4  1  0
  3  5  1  0
  4 10  1  0
  4 11  1  0
  4 12  1  0
  5  6  2  3
  5 13  1  0
  6 14  1  0
  6 15  1  0
 16 17  1  0
 16 19  1  0
 16 20  1  0
 16 21  1  0
 17 18  2  0
 17 22  1  0
M  RAD  1   3   2
M  END
>  <reaction>  (14) 
rxn_1960

>  <mol_properties>  (14) 
{"1": {"label": "*0", "atom_type": "Cd"}, "2": {"label": "*1", "atom_type": "Cs"}, "15": {"label": "*3", "atom_type": "Cd"}, "16": {"label": "*4", "atom_type": "Cd"}, "18": {"label": "*2", "atom_type": "H0"}}

>  <type>  (14) 
unop_10

>  <geom_source>  (14) 
Heuristics

$$$$

     RDKit          3D

 22 20  0  0  0  0  0  0  0  0999 V2000
   -0.9976    2.7283    0.5732 C   0  0  0  0  0  0  0  0  0  0  0  0
   -1.2737    1.6883    1.3434 C   0  0  0  0  0  0  0  0  0  0  0  0
   -0.8896    0.2615    1.0481 C   0  0  0  0  0  3  0  0  0  0  0  0
   -2.1311   -0.6202    0.9444 C   0  0  0  0  0  0  0  0  0  0  0  0
    0.1094   -0.2030    2.0788 C   0  0  0  0  0  0  0  0  0  0  0  0
   -0.0313   -1.2163    2.9193 C   0  0  0  0  0  0  0  0  0  0  0  0
   -1.3026    3.7312    0.8444 H   0  0  0  0  0  0  0  0  0  0  0  0
   -0.4557    2.6133   -0.3597 H   0  0  0  0  0  0  0  0  0  0  0  0
   -1.8163    1.8379    2.2744 H   0  0  0  0  0  0  0  0  0  0  0  0
   -1.8622   -1.6530    0.7167 H   0  0  0  0  0  0  0  0  0  0  0  0
   -2.7868   -0.2535    0.1543 H   0  0  0  0  0  0  0  0  0  0  0  0
   -2.6970   -0.6146    1.8789 H   0  0  0  0  0  0  0  0  0  0  0  0
    1.0203    0.3887    2.1176 H   0  0  0  0  0  0  0  0  0  0  0  0
   -0.9173   -1.8395    2.9328 H   0  0  0  0  0  0  0  0  0  0  0  0
    0.7474   -1.4617    3.6304 H   0  0  0  0  0  0  0  0  0  0  0  0
    1.2148    0.3261   -0.5257 C   0  0  0  0  0  0  0  0  0  0  0  0
    1.2148   -0.8724   -1.4079 C   0  0  0  0  0  0  0  0  0  0  0  0
    1.2148   -0.8724   -3.0146 S   0  0  0  0  0  0  0  0  0  0  0  0
    0.1634    0.2938    0.2606 H   0  0  0  0  0  0  0  0  0  0  0  0
    2.0909    0.2992    0.1295 H   0  0  0  0  0  0  0  0  0  0  0  0
    1.2148    1.2498   -1.1004 H   0  0  0  0  0  0  0  0  0  0  0  0
    1.2148   -1.8268   -0.8780 H   0  0  0  0  0  0  0  0  0  0  0  0
  1  2  2  3
  1  7  1  0
  1  8  1  0
  2  3  1  0
  2  9  1  0
  3  4  1  0
  3  5  1  0
  4 10  1  0
  4 11  1  0
  4 12  1  0
  5  6  2  3
  5 13  1  0
  6 14  1  0
  6 15  1  0
 16 17  1  0
 16 19  1  0
 16 20  1  0
 16 21  1  0
 17 18  2  0
 17 22  1  0
M  RAD  1   3   2
M  END
>  <reaction>  (15) 
rxn_1960

>  <mol_properties>  (15) 
{"1": {"label": "*0", "atom_type": "Cd"}, "2": {"label": "*1", "atom_type": "Cs"}, "15": {"label": "*3", "atom_type": "Cd"}, "16": {"label": "*4", "atom_type": "Cd"}, "18": {"label": "*2", "atom_type": "H0"}}

>  <type>  (15) 
unop_11

>  <geom_source>  (15) 
Heuristics

$$$$

     RDKit          3D

 22 20  0  0  0  0  0  0  0  0999 V2000
   -1.0629   -1.7635    0.0166 C   0  0  0  0  0  0  0  0  0  0  0  0
   -1.3904   -0.8917    0.9567 C   0  0  0  0  0  0  0  0  0  0  0  0
   -0.6211    0.3614    1.2864 C   0  0  0  0  0  3  0  0  0  0  0  0
   -0.1408    0.3333    2.7348 C   0  0  0  0  0  0  0  0  0  0  0  0
   -1.4663    1.5629    0.9426 C   0  0  0  0  0  0  0  0  0  0  0  0
   -1.8761    2.5082    1.7741 C   0  0  0  0  0  0  0  0  0  0  0  0
   -1.6609   -2.6464   -0.1707 H   0  0  0  0  0  0  0  0  0  0  0  0
   -0.1814   -1.6253   -0.6007 H   0  0  0  0  0  0  0  0  0  0  0  0
   -2.2825   -1.0579    1.5567 H   0  0  0  0  0  0  0  0  0  0  0  0
    0.4294    1.2314    2.9777 H   0  0  0  0  0  0  0  0  0  0  0  0
    0.4974   -0.5348    2.9017 H   0  0  0  0  0  0  0  0  0  0  0  0
   -0.9830    0.2680    3.4276 H   0  0  0  0  0  0  0  0  0  0  0  0
   -1.7641    1.6166   -0.1013 H   0  0  0  0  0  0  0  0  0  0  0  0
   -1.6170    2.5073    2.8260 H   0  0  0  0  0  0  0  0  0  0  0  0
   -2.4910    3.3281    1.4249 H   0  0  0  0  0  0  0  0  0  0  0  0
    1.4832    0.4260   -0.2874 C   0  0  0  0  0  0  0  0  0  0  0  0
    1.4832   -0.7725   -1.1696 C   0  0  0  0  0  0  0  0  0  0  0  0
    1.4832   -0.7725   -2.7763 S   0  0  0  0  0  0  0  0  0  0  0  0
    0.4319    0.3937    0.4989 H   0  0  0  0  0  0  0  0  0  0  0  0
    2.3594    0.3991    0.3678 H   0  0  0  0  0  0  0  0  0  0  0  0
    1.4832    1.3498   -0.8621 H   0  0  0  0  0  0  0  0  0  0  0  0
    1.4832   -1.7269   -0.6397 H   0  0  0  0  0  0  0  0  0  0  0  0
  1  2  2  3
  1  7  1  0
  1  8  1  0
  2  3  1  0
  2  9  1  0
  3  4  1  0
  3  5  1  0
  4 10  1  0
  4 11  1  0
  4 12  1  0
  5  6  2  3
  5 13  1  0
  6 14  1  0
  6 15  1  0
 16 17  1  0
 16 19  1  0
 16 20  1  0
 16 21  1  0
 17 18  2  0
 17 22  1  0
M  RAD  1   3   2
M  END
>  <reaction>  (16) 
rxn_1960

>  <mol_properties>  (16) 
{"1": {"label": "*0", "atom_type": "Cd"}, "2": {"label": "*1", "atom_type": "Cs"}, "15": {"label": "*3", "atom_type": "Cd"}, "16": {"label": "*4", "atom_type": "Cd"}, "18": {"label": "*2", "atom_type": "H0"}}

>  <type>  (16) 
unop_12

>  <geom_source>  (16) 
Heuristics

$$$$

     RDKit          3D

 22 20  0  0  0  0  0  0  0  0999 V2000
    1.9236   -1.8999    2.0722 S   0  0  0  0  0  0  0  0  0  0  0  0
   -0.4394    0.2586   -0.6651 C   0  0  0  0  0  3  0  0  0  0  0  0
   -0.5485    0.1631   -2.1876 C   0  0  0  0  0  0  0  0  0  0  0  0
   -1.3984   -0.7118   -0.0245 C   0  0  0  0  0  0  0  0  0  0  0  0
   -0.7414    1.6589   -0.1960 C   0  0  0  0  0  0  0  0  0  0  0  0
   -0.9813   -1.6578    0.8209 C   0  0  0  0  0  0  0  0  0  0  0  0
   -0.4314    2.0552    1.0415 C   0  0  0  0  0  0  0  0  0  0  0  0
    1.8978    0.0728    0.4596 C   0  0  0  0  0  0  0  0  0  0  0  0
    1.8406   -1.3962    0.7302 C   0  0  0  0  0  0  0  0  0  0  0  0
    0.8462   -0.0415   -0.3303 H   0  0  0  0  0  0  0  0  0  0  0  0
   -1.5775    0.4104   -2.5285 H   0  0  0  0  0  0  0  0  0  0  0  0
    0.1679    0.8664   -2.6631 H   0  0  0  0  0  0  0  0  0  0  0  0
   -0.2962   -0.8662   -2.5208 H   0  0  0  0  0  0  0  0  0  0  0  0
   -2.4599   -0.6304   -0.2429 H   0  0  0  0  0  0  0  0  0  0  0  0
   -1.2124    2.3696   -0.8702 H   0  0  0  0  0  0  0  0  0  0  0  0
    0.0688   -1.7659    1.0732 H   0  0  0  0  0  0  0  0  0  0  0  0
   -1.6990   -2.3356    1.2713 H   0  0  0  0  0  0  0  0  0  0  0  0
   -0.6538    3.0686    1.3593 H   0  0  0  0  0  0  0  0  0  0  0  0
    0.0432    1.3754    1.7430 H   0  0  0  0  0  0  0  0  0  0  0  0
    1.7351   -2.0884   -0.0978 H   0  0  0  0  0  0  0  0  0  0  0  0
    1.0509    0.5965    0.9524 H   0  0  0  0  0  0  0  0  0  0  0  0
    2.8649    0.4983    0.8034 H   0  0  0  0  0  0  0  0  0  0  0  0
  1  9  2  0
  2  3  1  0
  2  4  1  0
  2  5  1  0
  3 11  1  0
  3 12  1  0
  3 13  1  0
  4  6  2  3
  4 14  1  0
  5  7  2  3
  5 15  1  0
  6 16  1  0
  6 17  1  0
  7 18  1  0
  7 19  1  0
  8  9  1  0
  8 10  1  0
  8 21  1  0
  8 22  1  0
  9 20  1  0
M  RAD  1   2   2
M  END
>  <reaction>  (17) 
rxn_1960

>  <mol_properties>  (17) 
{"1": {"label": "*0", "atom_type": "Cd"}, "2": {"label": "*1", "atom_type": "Cs"}, "15": {"label": "*3", "atom_type": "Cd"}, "16": {"label": "*4", "atom_type": "Cd"}, "18": {"label": "*2", "atom_type": "H0"}}

>  <type>  (17) 
unop_13

>  <geom_source>  (17) 
AutoTST

$$$$
