
     RDKit          3D

 14 13  0  0  0  0  0  0  0  0999 V2000
   -0.7647   -1.2352   -0.0349 C   0  0  0  0  0  0  0  0  0  0  0  0
    0.0570   -0.0126    0.3624 C   0  0  0  0  0  0  0  0  0  0  0  0
    1.4161   -0.0194   -0.3308 C   0  0  0  0  0  0  0  0  0  0  0  0
   -0.7022    1.2765    0.0629 C   0  0  0  0  0  0  0  0  0  0  0  0
   -0.2387   -2.1618    0.2040 H   0  0  0  0  0  0  0  0  0  0  0  0
   -0.9625   -1.2316   -1.1108 H   0  0  0  0  0  0  0  0  0  0  0  0
   -1.7273   -1.2512    0.4806 H   0  0  0  0  0  0  0  0  0  0  0  0
    0.2295   -0.0590    1.4432 H   0  0  0  0  0  0  0  0  0  0  0  0
    1.2933    0.0260   -1.4168 H   0  0  0  0  0  0  0  0  0  0  0  0
    2.0206    0.8381   -0.0279 H   0  0  0  0  0  0  0  0  0  0  0  0
    1.9767   -0.9268   -0.0966 H   0  0  0  0  0  0  0  0  0  0  0  0
   -1.6639    1.3001    0.5798 H   0  0  0  0  0  0  0  0  0  0  0  0
   -0.8977    1.3664   -1.0096 H   0  0  0  0  0  0  0  0  0  0  0  0
   -0.1313    2.1545    0.3722 H   0  0  0  0  0  0  0  0  0  0  0  0
  1  2  1  0
  1  5  1  0
  1  6  1  0
  1  7  1  0
  2  3  1  0
  2  4  1  0
  2  8  1  0
  3  9  1  0
  3 10  1  0
  3 11  1  0
  4 12  1  0
  4 13  1  0
  4 14  1  0
M  END
>  <reaction>  (1) 
rxn_954

>  <mol_properties>  (1) 
{"1": {"label": "donator", "atom_type": "Cs"}, "7": {"label": "d_hydrogen", "atom_type": "H0"}}

>  <type>  (1) 
r1h

$$$$

     RDKit          3D

  7  6  0  0  0  0  0  0  0  0999 V2000
   -0.6201    0.0189   -0.0017 C   0  0  0  0  0  0  0  0  0  0  0  0
    0.8589   -0.0553    0.0500 C   0  0  0  0  0  3  0  0  0  0  0  0
   -1.0738   -0.9730   -0.0559 H   0  0  0  0  0  0  0  0  0  0  0  0
   -0.9680    0.5706   -0.8872 H   0  0  0  0  0  0  0  0  0  0  0  0
   -1.0303    0.5369    0.8678 H   0  0  0  0  0  0  0  0  0  0  0  0
    1.3939   -0.8386   -0.4695 H   0  0  0  0  0  0  0  0  0  0  0  0
    1.4394    0.7404    0.4965 H   0  0  0  0  0  0  0  0  0  0  0  0
  1  2  1  0
  1  3  1  0
  1  4  1  0
  1  5  1  0
  2  6  1  0
  2  7  1  0
M  RAD  1   2   2
M  END
>  <reaction>  (2) 
rxn_954

>  <mol_properties>  (2) 
{"1": {"label": "acceptor", "atom_type": "Cs"}}

>  <type>  (2) 
r2

$$$$

     RDKit          3D

  8  7  0  0  0  0  0  0  0  0999 V2000
    0.7610    0.0250    0.0051 C   0  0  0  0  0  0  0  0  0  0  0  0
   -0.7610   -0.0250   -0.0051 C   0  0  0  0  0  0  0  0  0  0  0  0
    1.1904   -0.9237   -0.3217 H   0  0  0  0  0  0  0  0  0  0  0  0
    1.1359    0.8041   -0.6609 H   0  0  0  0  0  0  0  0  0  0  0  0
    1.1435    0.2336    1.0058 H   0  0  0  0  0  0  0  0  0  0  0  0
   -1.1435   -0.2336   -1.0058 H   0  0  0  0  0  0  0  0  0  0  0  0
   -1.1904    0.9237    0.3216 H   0  0  0  0  0  0  0  0  0  0  0  0
   -1.1359   -0.8041    0.6609 H   0  0  0  0  0  0  0  0  0  0  0  0
  1  2  1  0
  1  3  1  0
  1  4  1  0
  1  5  1  0
  2  6  1  0
  2  7  1  0
  2  8  1  0
M  END
>  <reaction>  (3) 
rxn_954

>  <mol_properties>  (3) 
{"1": {"label": "acceptor", "atom_type": "Cs"}, "7": {"label": "a_hydrogen", "atom_type": "H0"}}

>  <type>  (3) 
r2h

$$$$

     RDKit          3D

 21 19  0  0  0  0  0  0  0  0999 V2000
    2.4688   -0.1777    0.7185 C   0  0  0  0  0  0  0  0  0  0  0  0
    1.2700   -1.0324    1.0265 C   0  0  0  0  0  3  0  0  0  0  0  0
    3.3766   -0.5569    1.1997 H   0  0  0  0  0  0  0  0  0  0  0  0
    2.3233    0.8476    1.0659 H   0  0  0  0  0  0  0  0  0  0  0  0
    2.6630   -0.1408   -0.3555 H   0  0  0  0  0  0  0  0  0  0  0  0
    0.9588   -1.0372    2.0695 H   0  0  0  0  0  0  0  0  0  0  0  0
    1.2941   -2.0359    0.6058 H   0  0  0  0  0  0  0  0  0  0  0  0
   -0.3020    0.2777   -1.6778 C   0  0  0  0  0  0  0  0  0  0  0  0
   -0.7758    0.1661   -0.2478 C   0  0  0  0  0  0  0  0  0  0  0  0
   -0.9168    1.4961    0.4545 C   0  0  0  0  0  0  0  0  0  0  0  0
   -1.9658   -0.7470   -0.0692 C   0  0  0  0  0  0  0  0  0  0  0  0
    0.6084    0.8770   -1.7485 H   0  0  0  0  0  0  0  0  0  0  0  0
   -1.0619    0.7566   -2.3074 H   0  0  0  0  0  0  0  0  0  0  0  0
   -0.0945   -0.7065   -2.1042 H   0  0  0  0  0  0  0  0  0  0  0  0
    0.1950   -0.4386    0.3783 H   0  0  0  0  0  0  0  0  0  0  0  0
   -1.7266    2.0898    0.0134 H   0  0  0  0  0  0  0  0  0  0  0  0
   -1.1467    1.3620    1.5139 H   0  0  0  0  0  0  0  0  0  0  0  0
    0.0005    2.0842    0.3780 H   0  0  0  0  0  0  0  0  0  0  0  0
   -1.7779   -1.7318   -0.5029 H   0  0  0  0  0  0  0  0  0  0  0  0
   -2.8552   -0.3337   -0.5601 H   0  0  0  0  0  0  0  0  0  0  0  0
   -2.2059   -0.8827    0.9877 H   0  0  0  0  0  0  0  0  0  0  0  0
  1  2  1  0
  1  3  1  0
  1  4  1  0
  1  5  1  0
  2  6  1  0
  2  7  1  0
  8  9  1  0
  8 12  1  0
  8 13  1  0
  8 14  1  0
  9 10  1  0
  9 11  1  0
  9 15  1  0
 10 16  1  0
 10 17  1  0
 10 18  1  0
 11 19  1  0
 11 20  1  0
 11 21  1  0
M  RAD  1   2   2
M  END
>  <reaction>  (4) 
rxn_954

>  <mol_properties>  (4) 
{"0": {"label": "*4", "atom_type": "Cs"}, "1": {"label": "*3", "atom_type": "Cs"}, "7": {"label": "*0", "atom_type": "Cs"}, "8": {"label": "*1", "atom_type": "Cs"}, "14": {"label": "*2", "atom_type": "H0"}}

>  <type>  (4) 
ts

$$$$

     RDKit          3D

 21 19  0  0  0  0  0  0  0  0999 V2000
    2.3686   -0.1069    1.3022 C   0  0  0  0  0  0  0  0  0  0  0  0
    1.5195   -1.0469    0.4571 C   0  0  0  0  0  0  0  0  0  0  0  0
    2.8174   -0.6312    2.1477 H   0  0  0  0  0  0  0  0  0  0  0  0
    1.7713    0.7144    1.7021 H   0  0  0  0  0  0  0  0  0  0  0  0
    3.1793    0.3292    0.7158 H   0  0  0  0  0  0  0  0  0  0  0  0
    0.7088   -1.4830    1.0434 H   0  0  0  0  0  0  0  0  0  0  0  0
    2.1168   -1.8682    0.0572 H   0  0  0  0  0  0  0  0  0  0  0  0
   -0.6839    0.1277   -1.8763 C   0  0  0  0  0  0  0  0  0  0  0  0
   -0.6839    0.1277   -0.3506 C   0  0  0  0  0  3  0  0  0  0  0  0
   -0.6839    1.5523    0.1954 C   0  0  0  0  0  0  0  0  0  0  0  0
   -1.8667   -0.6664    0.1954 C   0  0  0  0  0  0  0  0  0  0  0  0
    0.1768    0.6700   -2.2734 H   0  0  0  0  0  0  0  0  0  0  0  0
   -1.5878    0.6096   -2.2601 H   0  0  0  0  0  0  0  0  0  0  0  0
   -0.6544   -0.8892   -2.2734 H   0  0  0  0  0  0  0  0  0  0  0  0
    0.4198   -0.4607    0.0540 H   0  0  0  0  0  0  0  0  0  0  0  0
   -1.5879    2.0832   -0.1172 H   0  0  0  0  0  0  0  0  0  0  0  0
   -0.6543    1.5591    1.2870 H   0  0  0  0  0  0  0  0  0  0  0  0
    0.1768    2.1172   -0.1688 H   0  0  0  0  0  0  0  0  0  0  0  0
   -1.8560   -1.6958   -0.1690 H   0  0  0  0  0  0  0  0  0  0  0  0
   -2.8113   -0.2116   -0.1171 H   0  0  0  0  0  0  0  0  0  0  0  0
   -1.8558   -0.6948    1.2870 H   0  0  0  0  0  0  0  0  0  0  0  0
  1  2  1  0
  1  3  1  0
  1  4  1  0
  1  5  1  0
  2  6  1  0
  2  7  1  0
  2 15  1  0
  8  9  1  0
  8 12  1  0
  8 13  1  0
  8 14  1  0
  9 10  1  0
  9 11  1  0
 10 16  1  0
 10 17  1  0
 10 18  1  0
 11 19  1  0
 11 20  1  0
 11 21  1  0
M  RAD  1   9   2
M  END
>  <reaction>  (5) 
rxn_954

>  <mol_properties>  (5) 
{"0": {"label": "*4", "atom_type": "Cs"}, "1": {"label": "*3", "atom_type": "Cs"}, "7": {"label": "*0", "atom_type": "Cs"}, "8": {"label": "*1", "atom_type": "Cs"}, "14": {"label": "*2", "atom_type": "H0"}}

>  <type>  (5) 
unop_1

>  <geom_source>  (5) 
Heuristics

$$$$

     RDKit          3D

 21 19  0  0  0  0  0  0  0  0999 V2000
    2.5961   -0.7223   -0.2197 C   0  0  0  0  0  0  0  0  0  0  0  0
    1.4648   -0.9232    0.7796 C   0  0  0  0  0  0  0  0  0  0  0  0
    3.5674   -0.9206    0.2368 H   0  0  0  0  0  0  0  0  0  0  0  0
    2.6120    0.3010   -0.5990 H   0  0  0  0  0  0  0  0  0  0  0  0
    2.4910   -1.3905   -1.0762 H   0  0  0  0  0  0  0  0  0  0  0  0
    1.5698   -0.2550    1.6362 H   0  0  0  0  0  0  0  0  0  0  0  0
    1.4488   -1.9465    1.1590 H   0  0  0  0  0  0  0  0  0  0  0  0
   -0.7386    0.2514   -1.5538 C   0  0  0  0  0  0  0  0  0  0  0  0
   -0.7386    0.2514   -0.0281 C   0  0  0  0  0  3  0  0  0  0  0  0
   -0.7386    1.6760    0.5180 C   0  0  0  0  0  0  0  0  0  0  0  0
   -1.9214   -0.5427    0.5180 C   0  0  0  0  0  0  0  0  0  0  0  0
    0.1221    0.7936   -1.9508 H   0  0  0  0  0  0  0  0  0  0  0  0
   -1.6425    0.7333   -1.9375 H   0  0  0  0  0  0  0  0  0  0  0  0
   -0.7091   -0.7655   -1.9508 H   0  0  0  0  0  0  0  0  0  0  0  0
    0.3651   -0.3370    0.3765 H   0  0  0  0  0  0  0  0  0  0  0  0
   -1.6426    2.2068    0.2054 H   0  0  0  0  0  0  0  0  0  0  0  0
   -0.7090    1.6828    1.6096 H   0  0  0  0  0  0  0  0  0  0  0  0
    0.1221    2.2409    0.1537 H   0  0  0  0  0  0  0  0  0  0  0  0
   -1.9107   -1.5721    0.1536 H   0  0  0  0  0  0  0  0  0  0  0  0
   -2.8660   -0.0879    0.2055 H   0  0  0  0  0  0  0  0  0  0  0  0
   -1.9105   -0.5711    1.6096 H   0  0  0  0  0  0  0  0  0  0  0  0
  1  2  1  0
  1  3  1  0
  1  4  1  0
  1  5  1  0
  2  6  1  0
  2  7  1  0
  2 15  1  0
  8  9  1  0
  8 12  1  0
  8 13  1  0
  8 14  1  0
  9 10  1  0
  9 11  1  0
 10 16  1  0
 10 17  1  0
 10 18  1  0
 11 19  1  0
 11 20  1  0
 11 21  1  0
M  RAD  1   9   2
M  END
>  <reaction>  (6) 
rxn_954

>  <mol_properties>  (6) 
{"0": {"label": "*4", "atom_type": "Cs"}, "1": {"label": "*3", "atom_type": "Cs"}, "7": {"label": "*0", "atom_type": "Cs"}, "8": {"label": "*1", "atom_type": "Cs"}, "14": {"label": "*2", "atom_type": "H0"}}

>  <type>  (6) 
unop_2

>  <geom_source>  (6) 
Heuristics

$$$$

     RDKit          3D

 21 19  0  0  0  0  0  0  0  0999 V2000
    2.0485   -0.4214    1.7143 C   0  0  0  0  0  0  0  0  0  0  0  0
    1.5847   -0.9782    0.3750 C   0  0  0  0  0  0  0  0  0  0  0  0
    2.5990   -1.1710    2.2855 H   0  0  0  0  0  0  0  0  0  0  0  0
    1.2022   -0.0981    2.3230 H   0  0  0  0  0  0  0  0  0  0  0  0
    2.7059    0.4393    1.5789 H   0  0  0  0  0  0  0  0  0  0  0  0
    0.9273   -1.8389    0.5104 H   0  0  0  0  0  0  0  0  0  0  0  0
    2.4310   -1.3015   -0.2337 H   0  0  0  0  0  0  0  0  0  0  0  0
   -0.6186    0.1964   -1.9584 C   0  0  0  0  0  0  0  0  0  0  0  0
   -0.6186    0.1964   -0.4327 C   0  0  0  0  0  3  0  0  0  0  0  0
   -0.6186    1.6210    0.1134 C   0  0  0  0  0  0  0  0  0  0  0  0
   -1.8014   -0.5977    0.1134 C   0  0  0  0  0  0  0  0  0  0  0  0
    0.2421    0.7386   -2.3554 H   0  0  0  0  0  0  0  0  0  0  0  0
   -1.5225    0.6783   -2.3422 H   0  0  0  0  0  0  0  0  0  0  0  0
   -0.5891   -0.8205   -2.3554 H   0  0  0  0  0  0  0  0  0  0  0  0
    0.4851   -0.3920   -0.0281 H   0  0  0  0  0  0  0  0  0  0  0  0
   -1.5226    2.1519   -0.1992 H   0  0  0  0  0  0  0  0  0  0  0  0
   -0.5890    1.6278    1.2050 H   0  0  0  0  0  0  0  0  0  0  0  0
    0.2421    2.1859   -0.2509 H   0  0  0  0  0  0  0  0  0  0  0  0
   -1.7907   -1.6271   -0.2510 H   0  0  0  0  0  0  0  0  0  0  0  0
   -2.7460   -0.1429   -0.1991 H   0  0  0  0  0  0  0  0  0  0  0  0
   -1.7905   -0.6261    1.2050 H   0  0  0  0  0  0  0  0  0  0  0  0
  1  2  1  0
  1  3  1  0
  1  4  1  0
  1  5  1  0
  2  6  1  0
  2  7  1  0
  2 15  1  0
  8  9  1  0
  8 12  1  0
  8 13  1  0
  8 14  1  0
  9 10  1  0
  9 11  1  0
 10 16  1  0
 10 17  1  0
 10 18  1  0
 11 19  1  0
 11 20  1  0
 11 21  1  0
M  RAD  1   9   2
M  END
>  <reaction>  (7) 
rxn_954

>  <mol_properties>  (7) 
{"0": {"label": "*4", "atom_type": "Cs"}, "1": {"label": "*3", "atom_type": "Cs"}, "7": {"label": "*0", "atom_type": "Cs"}, "8": {"label": "*1", "atom_type": "Cs"}, "14": {"label": "*2", "atom_type": "H0"}}

>  <type>  (7) 
unop_3

>  <geom_source>  (7) 
Heuristics

$$$$

     RDKit          3D

 21 19  0  0  0  0  0  0  0  0999 V2000
    1.7297   -2.0705    0.1864 C   0  0  0  0  0  0  0  0  0  0  0  0
    1.6514   -0.6361    0.6915 C   0  0  0  0  0  0  0  0  0  0  0  0
    2.2609   -2.7106    0.8931 H   0  0  0  0  0  0  0  0  0  0  0  0
    2.2550   -2.1258   -0.7687 H   0  0  0  0  0  0  0  0  0  0  0  0
    0.7343   -2.4939    0.0409 H   0  0  0  0  0  0  0  0  0  0  0  0
    2.6469   -0.2128    0.8370 H   0  0  0  0  0  0  0  0  0  0  0  0
    1.1262   -0.5809    1.6466 H   0  0  0  0  0  0  0  0  0  0  0  0
   -0.5519    0.5385   -1.6419 C   0  0  0  0  0  0  0  0  0  0  0  0
   -0.5519    0.5385   -0.1162 C   0  0  0  0  0  3  0  0  0  0  0  0
   -0.5519    1.9632    0.4299 C   0  0  0  0  0  0  0  0  0  0  0  0
   -1.7347   -0.2556    0.4299 C   0  0  0  0  0  0  0  0  0  0  0  0
    0.3088    1.0808   -2.0389 H   0  0  0  0  0  0  0  0  0  0  0  0
   -1.4558    1.0205   -2.0257 H   0  0  0  0  0  0  0  0  0  0  0  0
   -0.5224   -0.4783   -2.0389 H   0  0  0  0  0  0  0  0  0  0  0  0
    0.5518   -0.0499    0.2884 H   0  0  0  0  0  0  0  0  0  0  0  0
   -1.4559    2.4940    0.1173 H   0  0  0  0  0  0  0  0  0  0  0  0
   -0.5223    1.9699    1.5215 H   0  0  0  0  0  0  0  0  0  0  0  0
    0.3088    2.5280    0.0656 H   0  0  0  0  0  0  0  0  0  0  0  0
   -1.7240   -1.2849    0.0655 H   0  0  0  0  0  0  0  0  0  0  0  0
   -2.6793    0.1992    0.1174 H   0  0  0  0  0  0  0  0  0  0  0  0
   -1.7238   -0.2840    1.5215 H   0  0  0  0  0  0  0  0  0  0  0  0
  1  2  1  0
  1  3  1  0
  1  4  1  0
  1  5  1  0
  2  6  1  0
  2  7  1  0
  2 15  1  0
  8  9  1  0
  8 12  1  0
  8 13  1  0
  8 14  1  0
  9 10  1  0
  9 11  1  0
 10 16  1  0
 10 17  1  0
 10 18  1  0
 11 19  1  0
 11 20  1  0
 11 21  1  0
M  RAD  1   9   2
M  END
>  <reaction>  (8) 
rxn_954

>  <mol_properties>  (8) 
{"0": {"label": "*4", "atom_type": "Cs"}, "1": {"label": "*3", "atom_type": "Cs"}, "7": {"label": "*0", "atom_type": "Cs"}, "8": {"label": "*1", "atom_type": "Cs"}, "14": {"label": "*2", "atom_type": "H0"}}

>  <type>  (8) 
unop_4

>  <geom_source>  (8) 
Heuristics

$$$$

     RDKit          3D

 21 19  0  0  0  0  0  0  0  0999 V2000
    1.7253   -0.9198    1.8667 C   0  0  0  0  0  0  0  0  0  0  0  0
    1.6470   -0.8780    0.3465 C   0  0  0  0  0  0  0  0  0  0  0  0
    2.6416   -1.4083    2.2027 H   0  0  0  0  0  0  0  0  0  0  0  0
    0.8832   -1.4691    2.2915 H   0  0  0  0  0  0  0  0  0  0  0  0
    1.7120    0.0855    2.2915 H   0  0  0  0  0  0  0  0  0  0  0  0
    1.6603   -1.8833   -0.0783 H   0  0  0  0  0  0  0  0  0  0  0  0
    2.4890   -0.3287   -0.0783 H   0  0  0  0  0  0  0  0  0  0  0  0
   -0.5563    0.2966   -1.9869 C   0  0  0  0  0  0  0  0  0  0  0  0
   -0.5563    0.2966   -0.4612 C   0  0  0  0  0  3  0  0  0  0  0  0
   -0.5563    1.7212    0.0849 C   0  0  0  0  0  0  0  0  0  0  0  0
   -1.7391   -0.4975    0.0849 C   0  0  0  0  0  0  0  0  0  0  0  0
    0.3044    0.8389   -2.3839 H   0  0  0  0  0  0  0  0  0  0  0  0
   -1.4603    0.7785   -2.3706 H   0  0  0  0  0  0  0  0  0  0  0  0
   -0.5269   -0.7203   -2.3839 H   0  0  0  0  0  0  0  0  0  0  0  0
    0.5474   -0.2918   -0.0566 H   0  0  0  0  0  0  0  0  0  0  0  0
   -1.4603    2.2521   -0.2277 H   0  0  0  0  0  0  0  0  0  0  0  0
   -0.5268    1.7280    1.1765 H   0  0  0  0  0  0  0  0  0  0  0  0
    0.3043    2.2861   -0.2794 H   0  0  0  0  0  0  0  0  0  0  0  0
   -1.7285   -1.5269   -0.2795 H   0  0  0  0  0  0  0  0  0  0  0  0
   -2.6837   -0.0427   -0.2276 H   0  0  0  0  0  0  0  0  0  0  0  0
   -1.7283   -0.5259    1.1765 H   0  0  0  0  0  0  0  0  0  0  0  0
  1  2  1  0
  1  3  1  0
  1  4  1  0
  1  5  1  0
  2  6  1  0
  2  7  1  0
  2 15  1  0
  8  9  1  0
  8 12  1  0
  8 13  1  0
  8 14  1  0
  9 10  1  0
  9 11  1  0
 10 16  1  0
 10 17  1  0
 10 18  1  0
 11 19  1  0
 11 20  1  0
 11 21  1  0
M  RAD  1   9   2
M  END
>  <reaction>  (9) 
rxn_954

>  <mol_properties>  (9) 
{"0": {"label": "*4", "atom_type": "Cs"}, "1": {"label": "*3", "atom_type": "Cs"}, "7": {"label": "*0", "atom_type": "Cs"}, "8": {"label": "*1", "atom_type": "Cs"}, "14": {"label": "*2", "atom_type": "H0"}}

>  <type>  (9) 
unop_5

>  <geom_source>  (9) 
Heuristics

$$$$

     RDKit          3D

 21 19  0  0  0  0  0  0  0  0999 V2000
    1.4963   -2.1274    0.7430 C   0  0  0  0  0  0  0  0  0  0  0  0
    1.7002   -0.6280    0.5731 C   0  0  0  0  0  0  0  0  0  0  0  0
    2.0181   -2.5003    1.6262 H   0  0  0  0  0  0  0  0  0  0  0  0
    1.8730   -2.6786   -0.1204 H   0  0  0  0  0  0  0  0  0  0  0  0
    0.4388   -2.3729    0.8559 H   0  0  0  0  0  0  0  0  0  0  0  0
    2.7577   -0.3826    0.4602 H   0  0  0  0  0  0  0  0  0  0  0  0
    1.3235   -0.0769    1.4365 H   0  0  0  0  0  0  0  0  0  0  0  0
   -0.5031    0.5466   -1.7604 C   0  0  0  0  0  0  0  0  0  0  0  0
   -0.5031    0.5466   -0.2346 C   0  0  0  0  0  3  0  0  0  0  0  0
   -0.5031    1.9713    0.3114 C   0  0  0  0  0  0  0  0  0  0  0  0
   -1.6859   -0.2474    0.3114 C   0  0  0  0  0  0  0  0  0  0  0  0
    0.3576    1.0889   -2.1574 H   0  0  0  0  0  0  0  0  0  0  0  0
   -1.4071    1.0286   -2.1441 H   0  0  0  0  0  0  0  0  0  0  0  0
   -0.4736   -0.4702   -2.1574 H   0  0  0  0  0  0  0  0  0  0  0  0
    0.6006   -0.0417    0.1700 H   0  0  0  0  0  0  0  0  0  0  0  0
   -1.4071    2.5021   -0.0012 H   0  0  0  0  0  0  0  0  0  0  0  0
   -0.4736    1.9781    1.4030 H   0  0  0  0  0  0  0  0  0  0  0  0
    0.3576    2.5361   -0.0528 H   0  0  0  0  0  0  0  0  0  0  0  0
   -1.6752   -1.2768   -0.0530 H   0  0  0  0  0  0  0  0  0  0  0  0
   -2.6305    0.2073   -0.0011 H   0  0  0  0  0  0  0  0  0  0  0  0
   -1.6750   -0.2759    1.4030 H   0  0  0  0  0  0  0  0  0  0  0  0
  1  2  1  0
  1  3  1  0
  1  4  1  0
  1  5  1  0
  2  6  1  0
  2  7  1  0
  2 15  1  0
  8  9  1  0
  8 12  1  0
  8 13  1  0
  8 14  1  0
  9 10  1  0
  9 11  1  0
 10 16  1  0
 10 17  1  0
 10 18  1  0
 11 19  1  0
 11 20  1  0
 11 21  1  0
M  RAD  1   9   2
M  END
>  <reaction>  (10) 
rxn_954

>  <mol_properties>  (10) 
{"0": {"label": "*4", "atom_type": "Cs"}, "1": {"label": "*3", "atom_type": "Cs"}, "7": {"label": "*0", "atom_type": "Cs"}, "8": {"label": "*1", "atom_type": "Cs"}, "14": {"label": "*2", "atom_type": "H0"}}

>  <type>  (10) 
unop_6

>  <geom_source>  (10) 
Heuristics

$$$$

     RDKit          3D

 21 19  0  0  0  0  0  0  0  0999 V2000
    1.4090   -1.9070    1.3022 C   0  0  0  0  0  0  0  0  0  0  0  0
    1.7161   -0.6780    0.4571 C   0  0  0  0  0  0  0  0  0  0  0  0
    2.0944   -1.9874    2.1477 H   0  0  0  0  0  0  0  0  0  0  0  0
    1.4988   -2.8231    0.7158 H   0  0  0  0  0  0  0  0  0  0  0  0
    0.3941   -1.8688    1.7020 H   0  0  0  0  0  0  0  0  0  0  0  0
    2.7309   -0.7161    0.0572 H   0  0  0  0  0  0  0  0  0  0  0  0
    1.6263    0.2381    1.0434 H   0  0  0  0  0  0  0  0  0  0  0  0
   -0.4872    0.4966   -1.8763 C   0  0  0  0  0  0  0  0  0  0  0  0
   -0.4872    0.4966   -0.3506 C   0  0  0  0  0  3  0  0  0  0  0  0
   -0.4872    1.9212    0.1954 C   0  0  0  0  0  0  0  0  0  0  0  0
   -1.6700   -0.2975    0.1954 C   0  0  0  0  0  0  0  0  0  0  0  0
    0.3735    1.0389   -2.2734 H   0  0  0  0  0  0  0  0  0  0  0  0
   -1.3912    0.9786   -2.2601 H   0  0  0  0  0  0  0  0  0  0  0  0
   -0.4577   -0.5203   -2.2734 H   0  0  0  0  0  0  0  0  0  0  0  0
    0.6165   -0.0918    0.0540 H   0  0  0  0  0  0  0  0  0  0  0  0
   -1.3912    2.4521   -0.1172 H   0  0  0  0  0  0  0  0  0  0  0  0
   -0.4577    1.9280    1.2870 H   0  0  0  0  0  0  0  0  0  0  0  0
    0.3735    2.4861   -0.1688 H   0  0  0  0  0  0  0  0  0  0  0  0
   -1.6593   -1.3268   -0.1690 H   0  0  0  0  0  0  0  0  0  0  0  0
   -2.6146    0.1573   -0.1171 H   0  0  0  0  0  0  0  0  0  0  0  0
   -1.6591   -0.3259    1.2870 H   0  0  0  0  0  0  0  0  0  0  0  0
  1  2  1  0
  1  3  1  0
  1  4  1  0
  1  5  1  0
  2  6  1  0
  2  7  1  0
  2 15  1  0
  8  9  1  0
  8 12  1  0
  8 13  1  0
  8 14  1  0
  9 10  1  0
  9 11  1  0
 10 16  1  0
 10 17  1  0
 10 18  1  0
 11 19  1  0
 11 20  1  0
 11 21  1  0
M  RAD  1   9   2
M  END
>  <reaction>  (11) 
rxn_954

>  <mol_properties>  (11) 
{"0": {"label": "*4", "atom_type": "Cs"}, "1": {"label": "*3", "atom_type": "Cs"}, "7": {"label": "*0", "atom_type": "Cs"}, "8": {"label": "*1", "atom_type": "Cs"}, "14": {"label": "*2", "atom_type": "H0"}}

>  <type>  (11) 
unop_7

>  <geom_source>  (11) 
Heuristics

$$$$

     RDKit          3D

 21 19  0  0  0  0  0  0  0  0999 V2000
    2.6003   -0.0565    0.7430 C   0  0  0  0  0  0  0  0  0  0  0  0
    1.4690   -1.0616    0.5731 C   0  0  0  0  0  0  0  0  0  0  0  0
    3.2007   -0.2819    1.6262 H   0  0  0  0  0  0  0  0  0  0  0  0
    2.2147    0.9582    0.8559 H   0  0  0  0  0  0  0  0  0  0  0  0
    3.2679   -0.0621   -0.1204 H   0  0  0  0  0  0  0  0  0  0  0  0
    0.8015   -1.0560    1.4365 H   0  0  0  0  0  0  0  0  0  0  0  0
    1.8547   -2.0764    0.4602 H   0  0  0  0  0  0  0  0  0  0  0  0
   -0.7343    0.1130   -1.7604 C   0  0  0  0  0  0  0  0  0  0  0  0
   -0.7343    0.1130   -0.2346 C   0  0  0  0  0  3  0  0  0  0  0  0
   -0.7343    1.5377    0.3114 C   0  0  0  0  0  0  0  0  0  0  0  0
   -1.9171   -0.6810    0.3114 C   0  0  0  0  0  0  0  0  0  0  0  0
    0.1264    0.6553   -2.1574 H   0  0  0  0  0  0  0  0  0  0  0  0
   -1.6382    0.5950   -2.1441 H   0  0  0  0  0  0  0  0  0  0  0  0
   -0.7048   -0.9038   -2.1574 H   0  0  0  0  0  0  0  0  0  0  0  0
    0.3694   -0.4754    0.1700 H   0  0  0  0  0  0  0  0  0  0  0  0
   -1.6383    2.0685   -0.0012 H   0  0  0  0  0  0  0  0  0  0  0  0
   -0.7047    1.5445    1.4030 H   0  0  0  0  0  0  0  0  0  0  0  0
    0.1264    2.1025   -0.0528 H   0  0  0  0  0  0  0  0  0  0  0  0
   -1.9064   -1.7104   -0.0530 H   0  0  0  0  0  0  0  0  0  0  0  0
   -2.8617   -0.2263   -0.0011 H   0  0  0  0  0  0  0  0  0  0  0  0
   -1.9062   -0.7095    1.4030 H   0  0  0  0  0  0  0  0  0  0  0  0
  1  2  1  0
  1  3  1  0
  1  4  1  0
  1  5  1  0
  2  6  1  0
  2  7  1  0
  2 15  1  0
  8  9  1  0
  8 12  1  0
  8 13  1  0
  8 14  1  0
  9 10  1  0
  9 11  1  0
 10 16  1  0
 10 17  1  0
 10 18  1  0
 11 19  1  0
 11 20  1  0
 11 21  1  0
M  RAD  1   9   2
M  END
>  <reaction>  (12) 
rxn_954

>  <mol_properties>  (12) 
{"0": {"label": "*4", "atom_type": "Cs"}, "1": {"label": "*3", "atom_type": "Cs"}, "7": {"label": "*0", "atom_type": "Cs"}, "8": {"label": "*1", "atom_type": "Cs"}, "14": {"label": "*2", "atom_type": "H0"}}

>  <type>  (12) 
unop_8

>  <geom_source>  (12) 
Heuristics

$$$$

     RDKit          3D

 21 19  0  0  0  0  0  0  0  0999 V2000
    2.0466   -1.7528   -0.2197 C   0  0  0  0  0  0  0  0  0  0  0  0
    1.5830   -0.7015    0.7796 C   0  0  0  0  0  0  0  0  0  0  0  0
    2.7527   -2.4487    0.2368 H   0  0  0  0  0  0  0  0  0  0  0  0
    2.5429   -1.2931   -1.0762 H   0  0  0  0  0  0  0  0  0  0  0  0
    1.2060   -2.3364   -0.5990 H   0  0  0  0  0  0  0  0  0  0  0  0
    2.4236   -0.1179    1.1590 H   0  0  0  0  0  0  0  0  0  0  0  0
    1.0867   -1.1612    1.6362 H   0  0  0  0  0  0  0  0  0  0  0  0
   -0.6204    0.4731   -1.5538 C   0  0  0  0  0  0  0  0  0  0  0  0
   -0.6204    0.4731   -0.0281 C   0  0  0  0  0  3  0  0  0  0  0  0
   -0.6204    1.8977    0.5180 C   0  0  0  0  0  0  0  0  0  0  0  0
   -1.8032   -0.3210    0.5180 C   0  0  0  0  0  0  0  0  0  0  0  0
    0.2403    1.0154   -1.9508 H   0  0  0  0  0  0  0  0  0  0  0  0
   -1.5243    0.9550   -1.9375 H   0  0  0  0  0  0  0  0  0  0  0  0
   -0.5909   -0.5438   -1.9508 H   0  0  0  0  0  0  0  0  0  0  0  0
    0.4833   -0.1153    0.3765 H   0  0  0  0  0  0  0  0  0  0  0  0
   -1.5244    2.4286    0.2054 H   0  0  0  0  0  0  0  0  0  0  0  0
   -0.5908    1.9045    1.6096 H   0  0  0  0  0  0  0  0  0  0  0  0
    0.2403    2.4626    0.1537 H   0  0  0  0  0  0  0  0  0  0  0  0
   -1.7925   -1.3504    0.1536 H   0  0  0  0  0  0  0  0  0  0  0  0
   -2.7478    0.1338    0.2055 H   0  0  0  0  0  0  0  0  0  0  0  0
   -1.7923   -0.3494    1.6096 H   0  0  0  0  0  0  0  0  0  0  0  0
  1  2  1  0
  1  3  1  0
  1  4  1  0
  1  5  1  0
  2  6  1  0
  2  7  1  0
  2 15  1  0
  8  9  1  0
  8 12  1  0
  8 13  1  0
  8 14  1  0
  9 10  1  0
  9 11  1  0
 10 16  1  0
 10 17  1  0
 10 18  1  0
 11 19  1  0
 11 20  1  0
 11 21  1  0
M  RAD  1   9   2
M  END
>  <reaction>  (13) 
rxn_954

>  <mol_properties>  (13) 
{"0": {"label": "*4", "atom_type": "Cs"}, "1": {"label": "*3", "atom_type": "Cs"}, "7": {"label": "*0", "atom_type": "Cs"}, "8": {"label": "*1", "atom_type": "Cs"}, "14": {"label": "*2", "atom_type": "H0"}}

>  <type>  (13) 
unop_9

>  <geom_source>  (13) 
Heuristics

$$$$

     RDKit          3D

 21 19  0  0  0  0  0  0  0  0999 V2000
    2.6832   -0.2820    0.1864 C   0  0  0  0  0  0  0  0  0  0  0  0
    1.4486   -1.0166    0.6915 C   0  0  0  0  0  0  0  0  0  0  0  0
    3.5107   -0.3663    0.8931 H   0  0  0  0  0  0  0  0  0  0  0  0
    2.4798    0.7804    0.0409 H   0  0  0  0  0  0  0  0  0  0  0  0
    3.0218   -0.6874   -0.7687 H   0  0  0  0  0  0  0  0  0  0  0  0
    1.1100   -0.6112    1.6466 H   0  0  0  0  0  0  0  0  0  0  0  0
    1.6520   -2.0790    0.8370 H   0  0  0  0  0  0  0  0  0  0  0  0
   -0.7547    0.1580   -1.6419 C   0  0  0  0  0  0  0  0  0  0  0  0
   -0.7547    0.1580   -0.1162 C   0  0  0  0  0  3  0  0  0  0  0  0
   -0.7547    1.5827    0.4299 C   0  0  0  0  0  0  0  0  0  0  0  0
   -1.9375   -0.6360    0.4299 C   0  0  0  0  0  0  0  0  0  0  0  0
    0.1060    0.7003   -2.0389 H   0  0  0  0  0  0  0  0  0  0  0  0
   -1.6587    0.6400   -2.0257 H   0  0  0  0  0  0  0  0  0  0  0  0
   -0.7252   -0.8588   -2.0389 H   0  0  0  0  0  0  0  0  0  0  0  0
    0.3490   -0.4303    0.2884 H   0  0  0  0  0  0  0  0  0  0  0  0
   -1.6587    2.1135    0.1173 H   0  0  0  0  0  0  0  0  0  0  0  0
   -0.7252    1.5895    1.5215 H   0  0  0  0  0  0  0  0  0  0  0  0
    0.1060    2.1475    0.0656 H   0  0  0  0  0  0  0  0  0  0  0  0
   -1.9269   -1.6654    0.0655 H   0  0  0  0  0  0  0  0  0  0  0  0
   -2.8821   -0.1813    0.1174 H   0  0  0  0  0  0  0  0  0  0  0  0
   -1.9266   -0.6645    1.5215 H   0  0  0  0  0  0  0  0  0  0  0  0
  1  2  1  0
  1  3  1  0
  1  4  1  0
  1  5  1  0
  2  6  1  0
  2  7  1  0
  2 15  1  0
  8  9  1  0
  8 12  1  0
  8 13  1  0
  8 14  1  0
  9 10  1  0
  9 11  1  0
 10 16  1  0
 10 17  1  0
 10 18  1  0
 11 19  1  0
 11 20  1  0
 11 21  1  0
M  RAD  1   9   2
M  END
>  <reaction>  (14) 
rxn_954

>  <mol_properties>  (14) 
{"0": {"label": "*4", "atom_type": "Cs"}, "1": {"label": "*3", "atom_type": "Cs"}, "7": {"label": "*0", "atom_type": "Cs"}, "8": {"label": "*1", "atom_type": "Cs"}, "14": {"label": "*2", "atom_type": "H0"}}

>  <type>  (14) 
unop_10

>  <geom_source>  (14) 
Heuristics

$$$$

     RDKit          3D

 21 19  0  0  0  0  0  0  0  0999 V2000
    1.4916   -1.4659    1.7143 C   0  0  0  0  0  0  0  0  0  0  0  0
    1.6955   -0.7705    0.3750 C   0  0  0  0  0  0  0  0  0  0  0  0
    2.4208   -1.5051    2.2855 H   0  0  0  0  0  0  0  0  0  0  0  0
    1.1435   -2.4914    1.5789 H   0  0  0  0  0  0  0  0  0  0  0  0
    0.7515   -0.9434    2.3230 H   0  0  0  0  0  0  0  0  0  0  0  0
    2.4356   -1.2930   -0.2337 H   0  0  0  0  0  0  0  0  0  0  0  0
    2.0436    0.2550    0.5104 H   0  0  0  0  0  0  0  0  0  0  0  0
   -0.5078    0.4041   -1.9584 C   0  0  0  0  0  0  0  0  0  0  0  0
   -0.5078    0.4041   -0.4327 C   0  0  0  0  0  3  0  0  0  0  0  0
   -0.5078    1.8288    0.1134 C   0  0  0  0  0  0  0  0  0  0  0  0
   -1.6906   -0.3900    0.1134 C   0  0  0  0  0  0  0  0  0  0  0  0
    0.3529    0.9464   -2.3554 H   0  0  0  0  0  0  0  0  0  0  0  0
   -1.4118    0.8861   -2.3422 H   0  0  0  0  0  0  0  0  0  0  0  0
   -0.4784   -0.6127   -2.3554 H   0  0  0  0  0  0  0  0  0  0  0  0
    0.5959   -0.1843   -0.0281 H   0  0  0  0  0  0  0  0  0  0  0  0
   -1.4118    2.3596   -0.1992 H   0  0  0  0  0  0  0  0  0  0  0  0
   -0.4783    1.8355    1.2050 H   0  0  0  0  0  0  0  0  0  0  0  0
    0.3529    2.3936   -0.2509 H   0  0  0  0  0  0  0  0  0  0  0  0
   -1.6800   -1.4193   -0.2510 H   0  0  0  0  0  0  0  0  0  0  0  0
   -2.6352    0.0648   -0.1991 H   0  0  0  0  0  0  0  0  0  0  0  0
   -1.6797   -0.4184    1.2050 H   0  0  0  0  0  0  0  0  0  0  0  0
  1  2  1  0
  1  3  1  0
  1  4  1  0
  1  5  1  0
  2  6  1  0
  2  7  1  0
  2 15  1  0
  8  9  1  0
  8 12  1  0
  8 13  1  0
  8 14  1  0
  9 10  1  0
  9 11  1  0
 10 16  1  0
 10 17  1  0
 10 18  1  0
 11 19  1  0
 11 20  1  0
 11 21  1  0
M  RAD  1   9   2
M  END
>  <reaction>  (15) 
rxn_954

>  <mol_properties>  (15) 
{"0": {"label": "*4", "atom_type": "Cs"}, "1": {"label": "*3", "atom_type": "Cs"}, "7": {"label": "*0", "atom_type": "Cs"}, "8": {"label": "*1", "atom_type": "Cs"}, "14": {"label": "*2", "atom_type": "H0"}}

>  <type>  (15) 
unop_11

>  <geom_source>  (15) 
Heuristics

$$$$

     RDKit          3D

 21 19  0  0  0  0  0  0  0  0999 V2000
    2.3632   -1.2598   -0.3680 C   0  0  0  0  0  0  0  0  0  0  0  0
    1.5140   -0.8072    0.8122 C   0  0  0  0  0  0  0  0  0  0  0  0
    3.2795   -1.7484   -0.0321 H   0  0  0  0  0  0  0  0  0  0  0  0
    2.6505   -0.4148   -0.9961 H   0  0  0  0  0  0  0  0  0  0  0  0
    1.8217   -1.9694   -0.9962 H   0  0  0  0  0  0  0  0  0  0  0  0
    2.0555   -0.0976    1.4404 H   0  0  0  0  0  0  0  0  0  0  0  0
    1.2267   -1.6522    1.4404 H   0  0  0  0  0  0  0  0  0  0  0  0
   -0.6893    0.3675   -1.5212 C   0  0  0  0  0  0  0  0  0  0  0  0
   -0.6893    0.3675    0.0045 C   0  0  0  0  0  3  0  0  0  0  0  0
   -0.6893    1.7921    0.5506 C   0  0  0  0  0  0  0  0  0  0  0  0
   -1.8721   -0.4266    0.5506 C   0  0  0  0  0  0  0  0  0  0  0  0
    0.1714    0.9097   -1.9182 H   0  0  0  0  0  0  0  0  0  0  0  0
   -1.5932    0.8494   -1.9050 H   0  0  0  0  0  0  0  0  0  0  0  0
   -0.6598   -0.6494   -1.9182 H   0  0  0  0  0  0  0  0  0  0  0  0
    0.4144   -0.2209    0.4091 H   0  0  0  0  0  0  0  0  0  0  0  0
   -1.5933    2.3229    0.2380 H   0  0  0  0  0  0  0  0  0  0  0  0
   -0.6597    1.7989    1.6422 H   0  0  0  0  0  0  0  0  0  0  0  0
    0.1714    2.3570    0.1863 H   0  0  0  0  0  0  0  0  0  0  0  0
   -1.8614   -1.4560    0.1862 H   0  0  0  0  0  0  0  0  0  0  0  0
   -2.8167    0.0281    0.2381 H   0  0  0  0  0  0  0  0  0  0  0  0
   -1.8612   -0.4551    1.6422 H   0  0  0  0  0  0  0  0  0  0  0  0
  1  2  1  0
  1  3  1  0
  1  4  1  0
  1  5  1  0
  2  6  1  0
  2  7  1  0
  2 15  1  0
  8  9  1  0
  8 12  1  0
  8 13  1  0
  8 14  1  0
  9 10  1  0
  9 11  1  0
 10 16  1  0
 10 17  1  0
 10 18  1  0
 11 19  1  0
 11 20  1  0
 11 21  1  0
M  RAD  1   9   2
M  END
>  <reaction>  (16) 
rxn_954

>  <mol_properties>  (16) 
{"0": {"label": "*4", "atom_type": "Cs"}, "1": {"label": "*3", "atom_type": "Cs"}, "7": {"label": "*0", "atom_type": "Cs"}, "8": {"label": "*1", "atom_type": "Cs"}, "14": {"label": "*2", "atom_type": "H0"}}

>  <type>  (16) 
unop_12

>  <geom_source>  (16) 
Heuristics

$$$$

     RDKit          3D

 21 19  0  0  0  0  0  0  0  0999 V2000
    2.6145    0.5156    0.2407 C   0  0  0  0  0  0  0  0  0  0  0  0
    1.6902   -0.5360   -0.3468 C   0  0  0  0  0  0  0  0  0  0  0  0
   -1.1724    1.4485   -0.0920 C   0  0  0  0  0  0  0  0  0  0  0  0
   -1.6909   -0.7971   -1.1278 C   0  0  0  0  0  0  0  0  0  0  0  0
   -0.9609   -0.6580    1.2872 C   0  0  0  0  0  0  0  0  0  0  0  0
   -0.8345   -0.0436   -0.1082 C   0  0  0  0  0  3  0  0  0  0  0  0
    3.6407    0.1033    0.3394 H   0  0  0  0  0  0  0  0  0  0  0  0
    2.6405    1.4047   -0.4236 H   0  0  0  0  0  0  0  0  0  0  0  0
    2.2457    0.8209    1.2423 H   0  0  0  0  0  0  0  0  0  0  0  0
    2.0561   -0.8415   -1.3497 H   0  0  0  0  0  0  0  0  0  0  0  0
    1.6611   -1.4256    0.3171 H   0  0  0  0  0  0  0  0  0  0  0  0
    0.5159   -0.0590   -0.4580 H   0  0  0  0  0  0  0  0  0  0  0  0
   -0.5020    1.9810    0.6151 H   0  0  0  0  0  0  0  0  0  0  0  0
   -1.0214    1.8821   -1.1031 H   0  0  0  0  0  0  0  0  0  0  0  0
   -2.2276    1.6083    0.2178 H   0  0  0  0  0  0  0  0  0  0  0  0
   -1.5407   -0.3669   -2.1404 H   0  0  0  0  0  0  0  0  0  0  0  0
   -2.7677   -0.7306   -0.8610 H   0  0  0  0  0  0  0  0  0  0  0  0
   -1.3902   -1.8656   -1.1591 H   0  0  0  0  0  0  0  0  0  0  0  0
   -0.6590   -1.7263    1.2595 H   0  0  0  0  0  0  0  0  0  0  0  0
   -2.0073   -0.5857    1.6542 H   0  0  0  0  0  0  0  0  0  0  0  0
   -0.2901   -0.1286    1.9963 H   0  0  0  0  0  0  0  0  0  0  0  0
  1  2  1  0
  1  7  1  0
  1  8  1  0
  1  9  1  0
  2 10  1  0
  2 11  1  0
  2 12  1  0
  3  6  1  0
  3 13  1  0
  3 14  1  0
  3 15  1  0
  4  6  1  0
  4 16  1  0
  4 17  1  0
  4 18  1  0
  5  6  1  0
  5 19  1  0
  5 20  1  0
  5 21  1  0
M  RAD  1   6   2
M  END
>  <reaction>  (17) 
rxn_954

>  <mol_properties>  (17) 
{"0": {"label": "*4", "atom_type": "Cs"}, "1": {"label": "*3", "atom_type": "Cs"}, "7": {"label": "*0", "atom_type": "Cs"}, "8": {"label": "*1", "atom_type": "Cs"}, "14": {"label": "*2", "atom_type": "H0"}}

>  <type>  (17) 
unop_13

>  <geom_source>  (17) 
AutoTST

$$$$

     RDKit          3D

 21 19  0  0  0  0  0  0  0  0999 V2000
    2.5960   -0.7223   -0.2197 C   0  0  0  0  0  0  0  0  0  0  0  0
    1.4647   -0.9232    0.7796 C   0  0  0  0  0  0  0  0  0  0  0  0
    3.5674   -0.9206    0.2368 H   0  0  0  0  0  0  0  0  0  0  0  0
    2.6120    0.3010   -0.5990 H   0  0  0  0  0  0  0  0  0  0  0  0
    2.4910   -1.3905   -1.0762 H   0  0  0  0  0  0  0  0  0  0  0  0
    1.5698   -0.2550    1.6362 H   0  0  0  0  0  0  0  0  0  0  0  0
    1.4488   -1.9465    1.1589 H   0  0  0  0  0  0  0  0  0  0  0  0
   -0.7386    0.2514   -1.5538 C   0  0  0  0  0  0  0  0  0  0  0  0
   -0.7386    0.2514   -0.0281 C   0  0  0  0  0  3  0  0  0  0  0  0
   -0.7386    1.6760    0.5180 C   0  0  0  0  0  0  0  0  0  0  0  0
   -1.9214   -0.5427    0.5180 C   0  0  0  0  0  0  0  0  0  0  0  0
    0.1221    0.7936   -1.9508 H   0  0  0  0  0  0  0  0  0  0  0  0
   -1.6425    0.7333   -1.9376 H   0  0  0  0  0  0  0  0  0  0  0  0
   -0.7091   -0.7655   -1.9508 H   0  0  0  0  0  0  0  0  0  0  0  0
    0.3651   -0.3370    0.3765 H   0  0  0  0  0  0  0  0  0  0  0  0
   -1.6426    2.2069    0.2054 H   0  0  0  0  0  0  0  0  0  0  0  0
   -0.7090    1.6828    1.6096 H   0  0  0  0  0  0  0  0  0  0  0  0
    0.1221    2.2409    0.1537 H   0  0  0  0  0  0  0  0  0  0  0  0
   -1.9107   -1.5721    0.1536 H   0  0  0  0  0  0  0  0  0  0  0  0
   -2.8660   -0.0879    0.2055 H   0  0  0  0  0  0  0  0  0  0  0  0
   -1.9105   -0.5711    1.6096 H   0  0  0  0  0  0  0  0  0  0  0  0
  1  2  1  0
  1  3  1  0
  1  4  1  0
  1  5  1  0
  2  6  1  0
  2  7  1  0
  2 15  1  0
  8  9  1  0
  8 12  1  0
  8 13  1  0
  8 14  1  0
  9 10  1  0
  9 11  1  0
 10 16  1  0
 10 17  1  0
 10 18  1  0
 11 19  1  0
 11 20  1  0
 11 21  1  0
M  RAD  1   9   2
M  END
>  <reaction>  (18) 
rxn_954

>  <mol_properties>  (18) 
{"0": {"label": "*4", "atom_type": "Cs"}, "1": {"label": "*3", "atom_type": "Cs"}, "7": {"label": "*0", "atom_type": "Cs"}, "8": {"label": "*1", "atom_type": "Cs"}, "14": {"label": "*2", "atom_type": "H0"}}

>  <type>  (18) 
unop_14

>  <geom_source>  (18) 
gaussian_log

$$$$
