
     RDKit          3D

 10  9  0  0  0  0  0  0  0  0999 V2000
   -1.3430   -0.0068    0.1802 C   0  0  0  0  0  0  0  0  0  0  0  0
    0.0800   -0.1753   -0.3125 C   0  0  0  0  0  0  0  0  0  0  0  0
    0.4144    0.6817   -1.3880 O   0  0  0  0  0  0  0  0  0  0  0  0
    0.4868    2.0101   -0.8782 O   0  0  0  0  0  0  0  0  0  0  0  0
   -2.0531   -0.1437   -0.6372 H   0  0  0  0  0  0  0  0  0  0  0  0
   -1.5603   -0.7484    0.9509 H   0  0  0  0  0  0  0  0  0  0  0  0
   -1.4899    0.9815    0.6164 H   0  0  0  0  0  0  0  0  0  0  0  0
    0.2328   -1.1698   -0.7380 H   0  0  0  0  0  0  0  0  0  0  0  0
    0.8000   -0.0345    0.4993 H   0  0  0  0  0  0  0  0  0  0  0  0
   -0.2791    2.4184   -1.2952 H   0  0  0  0  0  0  0  0  0  0  0  0
  1  2  1  0
  1  5  1  0
  1  6  1  0
  1  7  1  0
  2  3  1  0
  2  8  1  0
  2  9  1  0
  3  4  1  0
  4 10  1  0
M  END
>  <reaction>  (1) 
rxn_458

>  <mol_properties>  (1) 
{"3": {"label": "donator", "atom_type": "O2s"}, "9": {"label": "d_hydrogen", "atom_type": "H0"}}

>  <type>  (1) 
r1h

$$$$

     RDKit          3D

  9  8  0  0  0  0  0  0  0  0999 V2000
   -1.1429   -0.0056    0.0357 C   0  0  0  0  0  0  0  0  0  0  0  0
    0.2348   -0.4846   -0.1988 C   0  0  0  0  0  0  0  0  0  0  0  0
    1.3889    0.3067    0.0768 C   0  0  0  0  0  0  0  0  0  0  0  0
    1.3416    1.4450    0.5289 O   0  0  0  0  0  1  0  0  0  0  0  0
   -1.7198   -0.0230   -0.8945 H   0  0  0  0  0  0  0  0  0  0  0  0
   -1.1399    1.0063    0.4362 H   0  0  0  0  0  0  0  0  0  0  0  0
   -1.6667   -0.6673    0.7330 H   0  0  0  0  0  0  0  0  0  0  0  0
    0.3900   -1.4812   -0.5984 H   0  0  0  0  0  0  0  0  0  0  0  0
    2.3646   -0.1624   -0.1407 H   0  0  0  0  0  0  0  0  0  0  0  0
  1  2  1  0
  1  5  1  0
  1  6  1  0
  1  7  1  0
  2  3  2  3
  2  8  1  0
  3  4  1  0
  3  9  1  0
M  RAD  1   4   2
M  END
>  <reaction>  (2) 
rxn_458

>  <mol_properties>  (2) 
{"1": {"label": "acceptor", "atom_type": "Cs"}}

>  <type>  (2) 
r2

$$$$

     RDKit          3D

 10  9  0  0  0  0  0  0  0  0999 V2000
   -1.1238    0.2714    0.2496 C   0  0  0  0  0  0  0  0  0  0  0  0
    0.0881   -0.5850   -0.0680 C   0  0  0  0  0  0  0  0  0  0  0  0
   -0.0512   -1.4242   -1.3070 C   0  0  0  0  0  0  0  0  0  0  0  0
   -1.0187   -1.4480   -2.0158 O   0  0  0  0  0  0  0  0  0  0  0  0
   -2.0096   -0.3470    0.3939 H   0  0  0  0  0  0  0  0  0  0  0  0
   -0.9564    0.8523    1.1567 H   0  0  0  0  0  0  0  0  0  0  0  0
   -1.3376    0.9606   -0.5673 H   0  0  0  0  0  0  0  0  0  0  0  0
    0.3267   -1.2715    0.7528 H   0  0  0  0  0  0  0  0  0  0  0  0
    0.9917    0.0222   -0.1983 H   0  0  0  0  0  0  0  0  0  0  0  0
    0.8330   -2.0534   -1.5447 H   0  0  0  0  0  0  0  0  0  0  0  0
  1  2  1  0
  1  5  1  0
  1  6  1  0
  1  7  1  0
  2  3  1  0
  2  8  1  0
  2  9  1  0
  3  4  2  0
  3 10  1  0
M  END
>  <reaction>  (3) 
rxn_458

>  <mol_properties>  (3) 
{"0": {"label": "a_hydrogen", "atom_type": "H0"}, "2": {"label": "acceptor", "atom_type": "Cs"}}

>  <type>  (3) 
r2h

$$$$

     RDKit          3D

 19 17  0  0  0  0  0  0  0  0999 V2000
    0.6190   -2.0387   -0.3355 C   0  0  0  0  0  0  0  0  0  0  0  0
    0.4094   -2.0940    1.1611 C   0  0  0  0  0  0  0  0  0  0  0  0
    0.4763   -0.8116    1.7902 O   0  0  0  0  0  0  0  0  0  0  0  0
   -0.6850   -0.1273    1.5802 O   0  0  0  0  0  0  0  0  0  0  0  0
    1.5971   -1.6217   -0.5759 H   0  0  0  0  0  0  0  0  0  0  0  0
    0.5686   -3.0491   -0.7448 H   0  0  0  0  0  0  0  0  0  0  0  0
   -0.1480   -1.4411   -0.8273 H   0  0  0  0  0  0  0  0  0  0  0  0
    1.2076   -2.6528    1.6528 H   0  0  0  0  0  0  0  0  0  0  0  0
   -0.5493   -2.5483    1.4188 H   0  0  0  0  0  0  0  0  0  0  0  0
   -0.4975    0.6332    0.6931 H   0  0  0  0  0  0  0  0  0  0  0  0
    1.2636    1.4612   -0.4737 C   0  0  0  0  0  0  0  0  0  0  0  0
   -0.2048    1.5916   -0.2148 C   0  0  0  0  0  0  0  0  0  0  0  0
   -1.1586    1.2449   -1.2782 C   0  0  0  0  0  0  0  0  0  0  0  0
   -0.8697    0.6373   -2.2825 O   0  0  0  0  0  1  0  0  0  0  0  0
    1.8009    1.2128    0.4442 H   0  0  0  0  0  0  0  0  0  0  0  0
    1.6706    2.4049   -0.8480 H   0  0  0  0  0  0  0  0  0  0  0  0
    1.4548    0.6915   -1.2190 H   0  0  0  0  0  0  0  0  0  0  0  0
   -0.5170    2.4411    0.3916 H   0  0  0  0  0  0  0  0  0  0  0  0
   -2.2058    1.5509   -1.0907 H   0  0  0  0  0  0  0  0  0  0  0  0
  1  2  1  0
  1  5  1  0
  1  6  1  0
  1  7  1  0
  2  3  1  0
  2  8  1  0
  2  9  1  0
  3  4  1  0
  4 10  1  0
 11 12  1  0
 11 15  1  0
 11 16  1  0
 11 17  1  0
 12 13  2  3
 12 18  1  0
 13 14  1  0
 13 19  1  0
M  RAD  1  14   2
M  END
>  <reaction>  (4) 
rxn_458

>  <mol_properties>  (4) 
{"2": {"label": "*0", "atom_type": "O2s"}, "3": {"label": "*1", "atom_type": "O2s"}, "9": {"label": "*2", "atom_type": "H0"}, "11": {"label": "*3", "atom_type": "Cd"}, "12": {"label": "*4", "atom_type": "Cd"}}

>  <type>  (4) 
ts

$$$$

     RDKit          3D

 19 17  0  0  0  0  0  0  0  0999 V2000
    0.9546   -2.3846   -0.8950 C   0  0  0  0  0  0  0  0  0  0  0  0
    0.9546   -2.3846    0.6203 C   0  0  0  0  0  0  0  0  0  0  0  0
    0.9546   -1.0885    1.1887 O   0  0  0  0  0  0  0  0  0  0  0  0
   -0.3227   -0.5069    0.9432 O   0  0  0  0  0  0  0  0  0  0  0  0
    1.7989   -1.8108   -1.2809 H   0  0  0  0  0  0  0  0  0  0  0  0
    1.0363   -3.4073   -1.2672 H   0  0  0  0  0  0  0  0  0  0  0  0
    0.0291   -1.9601   -1.2846 H   0  0  0  0  0  0  0  0  0  0  0  0
    1.8756   -2.8218    1.0127 H   0  0  0  0  0  0  0  0  0  0  0  0
    0.1081   -2.9532    1.0169 H   0  0  0  0  0  0  0  0  0  0  0  0
   -0.0559    0.3263    0.1883 H   0  0  0  0  0  0  0  0  0  0  0  0
   -0.4780    1.0911   -1.9912 C   0  0  0  0  0  0  0  0  0  0  0  0
    0.2478    1.2750   -0.6712 C   0  0  0  0  0  0  0  0  0  0  0  0
   -0.5725    1.9325    0.4029 C   0  0  0  0  0  0  0  0  0  0  0  0
   -1.7079    2.2976    0.2740 O   0  0  0  0  0  1  0  0  0  0  0  0
    0.1716    0.6105   -2.7229 H   0  0  0  0  0  0  0  0  0  0  0  0
   -0.8013    2.0508   -2.3941 H   0  0  0  0  0  0  0  0  0  0  0  0
   -1.3683    0.4756   -1.8628 H   0  0  0  0  0  0  0  0  0  0  0  0
    1.1562    1.8777   -0.7877 H   0  0  0  0  0  0  0  0  0  0  0  0
   -0.0465    2.0699    1.3717 H   0  0  0  0  0  0  0  0  0  0  0  0
  1  2  1  0
  1  5  1  0
  1  6  1  0
  1  7  1  0
  2  3  1  0
  2  8  1  0
  2  9  1  0
  3  4  1  0
  4 10  1  0
 11 12  1  0
 11 15  1  0
 11 16  1  0
 11 17  1  0
 12 13  2  3
 12 18  1  0
 13 14  1  0
 13 19  1  0
M  RAD  1  14   2
M  END
>  <reaction>  (5) 
rxn_458

>  <mol_properties>  (5) 
{"2": {"label": "*0", "atom_type": "O2s"}, "3": {"label": "*1", "atom_type": "O2s"}, "9": {"label": "*2", "atom_type": "H0"}, "11": {"label": "*3", "atom_type": "Cd"}, "12": {"label": "*4", "atom_type": "Cd"}}

>  <type>  (5) 
unop_1

>  <geom_source>  (5) 
Heuristics

$$$$

     RDKit          3D

 19 17  0  0  0  0  0  0  0  0999 V2000
    0.7065   -2.0763   -0.3900 C   0  0  0  0  0  0  0  0  0  0  0  0
    0.7065   -2.0763    1.1253 C   0  0  0  0  0  0  0  0  0  0  0  0
    0.7065   -0.7802    1.6937 O   0  0  0  0  0  0  0  0  0  0  0  0
   -0.5707   -0.1985    1.4482 O   0  0  0  0  0  0  0  0  0  0  0  0
    1.5509   -1.5024   -0.7759 H   0  0  0  0  0  0  0  0  0  0  0  0
    0.7883   -3.0990   -0.7622 H   0  0  0  0  0  0  0  0  0  0  0  0
   -0.2190   -1.6518   -0.7796 H   0  0  0  0  0  0  0  0  0  0  0  0
    1.6276   -2.5135    1.5177 H   0  0  0  0  0  0  0  0  0  0  0  0
   -0.1400   -2.6449    1.5219 H   0  0  0  0  0  0  0  0  0  0  0  0
   -0.3040    0.6347    0.6933 H   0  0  0  0  0  0  0  0  0  0  0  0
    1.2015    1.2099   -1.0144 C   0  0  0  0  0  0  0  0  0  0  0  0
   -0.0003    1.5833   -0.1662 C   0  0  0  0  0  0  0  0  0  0  0  0
   -1.3217    1.4587   -0.8713 C   0  0  0  0  0  0  0  0  0  0  0  0
   -1.4635    1.0989   -2.0068 O   0  0  0  0  0  1  0  0  0  0  0  0
    2.1237    1.3224   -0.4442 H   0  0  0  0  0  0  0  0  0  0  0  0
    1.2637    1.8420   -1.9000 H   0  0  0  0  0  0  0  0  0  0  0  0
    1.1304    0.1773   -1.3559 H   0  0  0  0  0  0  0  0  0  0  0  0
    0.0658    2.6146    0.2000 H   0  0  0  0  0  0  0  0  0  0  0  0
   -2.2053    1.7307   -0.2554 H   0  0  0  0  0  0  0  0  0  0  0  0
  1  2  1  0
  1  5  1  0
  1  6  1  0
  1  7  1  0
  2  3  1  0
  2  8  1  0
  2  9  1  0
  3  4  1  0
  4 10  1  0
 11 12  1  0
 11 15  1  0
 11 16  1  0
 11 17  1  0
 12 13  2  3
 12 18  1  0
 13 14  1  0
 13 19  1  0
M  RAD  1  14   2
M  END
>  <reaction>  (6) 
rxn_458

>  <mol_properties>  (6) 
{"2": {"label": "*0", "atom_type": "O2s"}, "3": {"label": "*1", "atom_type": "O2s"}, "9": {"label": "*2", "atom_type": "H0"}, "11": {"label": "*3", "atom_type": "Cd"}, "12": {"label": "*4", "atom_type": "Cd"}}

>  <type>  (6) 
unop_2

>  <geom_source>  (6) 
Heuristics

$$$$

     RDKit          3D

 19 17  0  0  0  0  0  0  0  0999 V2000
    0.7590   -2.5558   -1.0273 C   0  0  0  0  0  0  0  0  0  0  0  0
    0.7590   -2.5558    0.4879 C   0  0  0  0  0  0  0  0  0  0  0  0
    0.7590   -1.2596    1.0564 O   0  0  0  0  0  0  0  0  0  0  0  0
   -0.5182   -0.6780    0.8109 O   0  0  0  0  0  0  0  0  0  0  0  0
    1.6034   -1.9819   -1.4132 H   0  0  0  0  0  0  0  0  0  0  0  0
    0.8408   -3.5785   -1.3995 H   0  0  0  0  0  0  0  0  0  0  0  0
   -0.1664   -2.1313   -1.4170 H   0  0  0  0  0  0  0  0  0  0  0  0
    1.6801   -2.9929    0.8804 H   0  0  0  0  0  0  0  0  0  0  0  0
   -0.0874   -3.1244    0.8845 H   0  0  0  0  0  0  0  0  0  0  0  0
   -0.2514    0.1552    0.0560 H   0  0  0  0  0  0  0  0  0  0  0  0
   -1.0949    1.3883   -1.7555 C   0  0  0  0  0  0  0  0  0  0  0  0
    0.0523    1.1039   -0.8035 C   0  0  0  0  0  0  0  0  0  0  0  0
    0.0682    1.9676    0.4264 C   0  0  0  0  0  0  0  0  0  0  0  0
   -0.7360    2.8216    0.6768 O   0  0  0  0  0  1  0  0  0  0  0  0
   -1.0467    0.7294   -2.6226 H   0  0  0  0  0  0  0  0  0  0  0  0
   -1.0640    2.4206   -2.1039 H   0  0  0  0  0  0  0  0  0  0  0  0
   -2.0553    1.2401   -1.2620 H   0  0  0  0  0  0  0  0  0  0  0  0
    1.0259    1.2314   -1.2912 H   0  0  0  0  0  0  0  0  0  0  0  0
    0.9058    1.7640    1.1271 H   0  0  0  0  0  0  0  0  0  0  0  0
  1  2  1  0
  1  5  1  0
  1  6  1  0
  1  7  1  0
  2  3  1  0
  2  8  1  0
  2  9  1  0
  3  4  1  0
  4 10  1  0
 11 12  1  0
 11 15  1  0
 11 16  1  0
 11 17  1  0
 12 13  2  3
 12 18  1  0
 13 14  1  0
 13 19  1  0
M  RAD  1  14   2
M  END
>  <reaction>  (7) 
rxn_458

>  <mol_properties>  (7) 
{"2": {"label": "*0", "atom_type": "O2s"}, "3": {"label": "*1", "atom_type": "O2s"}, "9": {"label": "*2", "atom_type": "H0"}, "11": {"label": "*3", "atom_type": "Cd"}, "12": {"label": "*4", "atom_type": "Cd"}}

>  <type>  (7) 
unop_3

>  <geom_source>  (7) 
Heuristics

$$$$

     RDKit          3D

 19 17  0  0  0  0  0  0  0  0999 V2000
    0.2888   -2.3743   -0.4342 C   0  0  0  0  0  0  0  0  0  0  0  0
    0.2888   -2.3743    1.0810 C   0  0  0  0  0  0  0  0  0  0  0  0
    0.2888   -1.0782    1.6495 O   0  0  0  0  0  0  0  0  0  0  0  0
   -0.9884   -0.4966    1.4040 O   0  0  0  0  0  0  0  0  0  0  0  0
    1.1332   -1.8005   -0.8201 H   0  0  0  0  0  0  0  0  0  0  0  0
    0.3706   -3.3971   -0.8064 H   0  0  0  0  0  0  0  0  0  0  0  0
   -0.6367   -1.9498   -0.8239 H   0  0  0  0  0  0  0  0  0  0  0  0
    1.2099   -2.8115    1.4735 H   0  0  0  0  0  0  0  0  0  0  0  0
   -0.5577   -2.9429    1.4776 H   0  0  0  0  0  0  0  0  0  0  0  0
   -0.7217    0.3366    0.6491 H   0  0  0  0  0  0  0  0  0  0  0  0
    0.5673    2.2800    0.3750 C   0  0  0  0  0  0  0  0  0  0  0  0
   -0.4180    1.2853   -0.2104 C   0  0  0  0  0  0  0  0  0  0  0  0
   -0.3625    1.1629   -1.7074 C   0  0  0  0  0  0  0  0  0  0  0  0
    0.3806    1.7783   -2.4202 O   0  0  0  0  0  1  0  0  0  0  0  0
    0.4743    2.3191    1.4604 H   0  0  0  0  0  0  0  0  0  0  0  0
    0.3932    3.2796   -0.0229 H   0  0  0  0  0  0  0  0  0  0  0  0
    1.5920    2.0046    0.1259 H   0  0  0  0  0  0  0  0  0  0  0  0
   -1.4530    1.5393    0.0471 H   0  0  0  0  0  0  0  0  0  0  0  0
   -1.0816    0.4361   -2.1418 H   0  0  0  0  0  0  0  0  0  0  0  0
  1  2  1  0
  1  5  1  0
  1  6  1  0
  1  7  1  0
  2  3  1  0
  2  8  1  0
  2  9  1  0
  3  4  1  0
  4 10  1  0
 11 12  1  0
 11 15  1  0
 11 16  1  0
 11 17  1  0
 12 13  2  3
 12 18  1  0
 13 14  1  0
 13 19  1  0
M  RAD  1  14   2
M  END
>  <reaction>  (8) 
rxn_458

>  <mol_properties>  (8) 
{"2": {"label": "*0", "atom_type": "O2s"}, "3": {"label": "*1", "atom_type": "O2s"}, "9": {"label": "*2", "atom_type": "H0"}, "11": {"label": "*3", "atom_type": "Cd"}, "12": {"label": "*4", "atom_type": "Cd"}}

>  <type>  (8) 
unop_4

>  <geom_source>  (8) 
Heuristics

$$$$

     RDKit          3D

 19 17  0  0  0  0  0  0  0  0999 V2000
    0.4141   -2.6499   -0.9359 C   0  0  0  0  0  0  0  0  0  0  0  0
    0.4141   -2.6499    0.5794 C   0  0  0  0  0  0  0  0  0  0  0  0
    0.4141   -1.3538    1.1478 O   0  0  0  0  0  0  0  0  0  0  0  0
   -0.8632   -0.7722    0.9023 O   0  0  0  0  0  0  0  0  0  0  0  0
    1.2584   -2.0761   -1.3218 H   0  0  0  0  0  0  0  0  0  0  0  0
    0.4958   -3.6727   -1.3081 H   0  0  0  0  0  0  0  0  0  0  0  0
   -0.5114   -2.2254   -1.3256 H   0  0  0  0  0  0  0  0  0  0  0  0
    1.3351   -3.0871    0.9718 H   0  0  0  0  0  0  0  0  0  0  0  0
   -0.4324   -3.2186    0.9760 H   0  0  0  0  0  0  0  0  0  0  0  0
   -0.5964    0.0610    0.1474 H   0  0  0  0  0  0  0  0  0  0  0  0
   -1.5191    1.7949   -1.1393 C   0  0  0  0  0  0  0  0  0  0  0  0
   -0.2927    1.0097   -0.7121 C   0  0  0  0  0  0  0  0  0  0  0  0
    0.7867    1.8400   -0.0762 C   0  0  0  0  0  0  0  0  0  0  0  0
    0.7283    3.0252    0.0996 O   0  0  0  0  0  1  0  0  0  0  0  0
   -2.2596    1.1347   -1.5911 H   0  0  0  0  0  0  0  0  0  0  0  0
   -1.2547    2.5647   -1.8642 H   0  0  0  0  0  0  0  0  0  0  0  0
   -1.9771    2.2950   -0.2861 H   0  0  0  0  0  0  0  0  0  0  0  0
    0.1690    0.4859   -1.5574 H   0  0  0  0  0  0  0  0  0  0  0  0
    1.6871    1.2706    0.2387 H   0  0  0  0  0  0  0  0  0  0  0  0
  1  2  1  0
  1  5  1  0
  1  6  1  0
  1  7  1  0
  2  3  1  0
  2  8  1  0
  2  9  1  0
  3  4  1  0
  4 10  1  0
 11 12  1  0
 11 15  1  0
 11 16  1  0
 11 17  1  0
 12 13  2  3
 12 18  1  0
 13 14  1  0
 13 19  1  0
M  RAD  1  14   2
M  END
>  <reaction>  (9) 
rxn_458

>  <mol_properties>  (9) 
{"2": {"label": "*0", "atom_type": "O2s"}, "3": {"label": "*1", "atom_type": "O2s"}, "9": {"label": "*2", "atom_type": "H0"}, "11": {"label": "*3", "atom_type": "Cd"}, "12": {"label": "*4", "atom_type": "Cd"}}

>  <type>  (9) 
unop_5

>  <geom_source>  (9) 
Heuristics

$$$$

     RDKit          3D

 19 17  0  0  0  0  0  0  0  0999 V2000
    0.2786   -2.4485   -0.4860 C   0  0  0  0  0  0  0  0  0  0  0  0
    0.2786   -2.4485    1.0293 C   0  0  0  0  0  0  0  0  0  0  0  0
    0.2786   -1.1524    1.5977 O   0  0  0  0  0  0  0  0  0  0  0  0
   -0.9986   -0.5707    1.3522 O   0  0  0  0  0  0  0  0  0  0  0  0
    1.1230   -1.8746   -0.8719 H   0  0  0  0  0  0  0  0  0  0  0  0
    0.3604   -3.4712   -0.8582 H   0  0  0  0  0  0  0  0  0  0  0  0
   -0.6469   -2.0240   -0.8756 H   0  0  0  0  0  0  0  0  0  0  0  0
    1.1997   -2.8857    1.4217 H   0  0  0  0  0  0  0  0  0  0  0  0
   -0.5679   -3.0171    1.4259 H   0  0  0  0  0  0  0  0  0  0  0  0
   -0.7318    0.2625    0.5973 H   0  0  0  0  0  0  0  0  0  0  0  0
   -0.0934    2.5163    0.4360 C   0  0  0  0  0  0  0  0  0  0  0  0
   -0.4282    1.2111   -0.2622 C   0  0  0  0  0  0  0  0  0  0  0  0
    0.0768    1.1143   -1.6745 C   0  0  0  0  0  0  0  0  0  0  0  0
    0.6959    1.9700   -2.2431 O   0  0  0  0  0  1  0  0  0  0  0  0
   -0.4875    2.5201    1.4524 H   0  0  0  0  0  0  0  0  0  0  0  0
   -0.5169    3.3645   -0.1017 H   0  0  0  0  0  0  0  0  0  0  0  0
    0.9851    2.6665    0.4831 H   0  0  0  0  0  0  0  0  0  0  0  0
   -1.5100    1.0373   -0.3014 H   0  0  0  0  0  0  0  0  0  0  0  0
   -0.1652    0.1610   -2.1909 H   0  0  0  0  0  0  0  0  0  0  0  0
  1  2  1  0
  1  5  1  0
  1  6  1  0
  1  7  1  0
  2  3  1  0
  2  8  1  0
  2  9  1  0
  3  4  1  0
  4 10  1  0
 11 12  1  0
 11 15  1  0
 11 16  1  0
 11 17  1  0
 12 13  2  3
 12 18  1  0
 13 14  1  0
 13 19  1  0
M  RAD  1  14   2
M  END
>  <reaction>  (10) 
rxn_458

>  <mol_properties>  (10) 
{"2": {"label": "*0", "atom_type": "O2s"}, "3": {"label": "*1", "atom_type": "O2s"}, "9": {"label": "*2", "atom_type": "H0"}, "11": {"label": "*3", "atom_type": "Cd"}, "12": {"label": "*4", "atom_type": "Cd"}}

>  <type>  (10) 
unop_6

>  <geom_source>  (10) 
Heuristics

$$$$

     RDKit          3D

 19 17  0  0  0  0  0  0  0  0999 V2000
    0.2636   -2.4984   -0.5444 C   0  0  0  0  0  0  0  0  0  0  0  0
    0.2636   -2.4984    0.9709 C   0  0  0  0  0  0  0  0  0  0  0  0
    0.2636   -1.2023    1.5393 O   0  0  0  0  0  0  0  0  0  0  0  0
   -1.0137   -0.6207    1.2939 O   0  0  0  0  0  0  0  0  0  0  0  0
    1.1079   -1.9246   -0.9303 H   0  0  0  0  0  0  0  0  0  0  0  0
    0.3453   -3.5212   -0.9166 H   0  0  0  0  0  0  0  0  0  0  0  0
   -0.6619   -2.0740   -0.9340 H   0  0  0  0  0  0  0  0  0  0  0  0
    1.1846   -2.9356    1.3633 H   0  0  0  0  0  0  0  0  0  0  0  0
   -0.5829   -3.0671    1.3675 H   0  0  0  0  0  0  0  0  0  0  0  0
   -0.7469    0.2125    0.5389 H   0  0  0  0  0  0  0  0  0  0  0  0
   -0.8140    2.5357    0.2049 C   0  0  0  0  0  0  0  0  0  0  0  0
   -0.4432    1.1612   -0.3206 C   0  0  0  0  0  0  0  0  0  0  0  0
    0.5546    1.1736   -1.4445 C   0  0  0  0  0  0  0  0  0  0  0  0
    1.0435    2.1612   -1.9185 O   0  0  0  0  0  1  0  0  0  0  0  0
   -1.5385    2.4544    1.0153 H   0  0  0  0  0  0  0  0  0  0  0  0
   -1.2466    3.1500   -0.5847 H   0  0  0  0  0  0  0  0  0  0  0  0
    0.0657    3.0590    0.5793 H   0  0  0  0  0  0  0  0  0  0  0  0
   -1.3215    0.6150   -0.6845 H   0  0  0  0  0  0  0  0  0  0  0  0
    0.8300    0.1702   -1.8334 H   0  0  0  0  0  0  0  0  0  0  0  0
  1  2  1  0
  1  5  1  0
  1  6  1  0
  1  7  1  0
  2  3  1  0
  2  8  1  0
  2  9  1  0
  3  4  1  0
  4 10  1  0
 11 12  1  0
 11 15  1  0
 11 16  1  0
 11 17  1  0
 12 13  2  3
 12 18  1  0
 13 14  1  0
 13 19  1  0
M  RAD  1  14   2
M  END
>  <reaction>  (11) 
rxn_458

>  <mol_properties>  (11) 
{"2": {"label": "*0", "atom_type": "O2s"}, "3": {"label": "*1", "atom_type": "O2s"}, "9": {"label": "*2", "atom_type": "H0"}, "11": {"label": "*3", "atom_type": "Cd"}, "12": {"label": "*4", "atom_type": "Cd"}}

>  <type>  (11) 
unop_7

>  <geom_source>  (11) 
Heuristics

$$$$

     RDKit          3D

 19 17  0  0  0  0  0  0  0  0999 V2000
    0.9858   -2.2284   -0.7049 C   0  0  0  0  0  0  0  0  0  0  0  0
    0.9858   -2.2284    0.8104 C   0  0  0  0  0  0  0  0  0  0  0  0
    0.9858   -0.9323    1.3788 O   0  0  0  0  0  0  0  0  0  0  0  0
   -0.2914   -0.3507    1.1333 O   0  0  0  0  0  0  0  0  0  0  0  0
    1.8301   -1.6545   -1.0908 H   0  0  0  0  0  0  0  0  0  0  0  0
    1.0675   -3.2511   -1.0771 H   0  0  0  0  0  0  0  0  0  0  0  0
    0.0603   -1.8039   -1.0945 H   0  0  0  0  0  0  0  0  0  0  0  0
    1.9068   -2.6656    1.2028 H   0  0  0  0  0  0  0  0  0  0  0  0
    0.1393   -2.7970    1.2070 H   0  0  0  0  0  0  0  0  0  0  0  0
   -0.0247    0.4826    0.3784 H   0  0  0  0  0  0  0  0  0  0  0  0
    0.2038    0.9368   -1.9139 C   0  0  0  0  0  0  0  0  0  0  0  0
    0.2790    1.4312   -0.4811 C   0  0  0  0  0  0  0  0  0  0  0  0
   -1.0446    1.8293    0.1095 C   0  0  0  0  0  0  0  0  0  0  0  0
   -2.0966    1.7777   -0.4646 O   0  0  0  0  0  1  0  0  0  0  0  0
    1.1946    0.6660   -2.2791 H   0  0  0  0  0  0  0  0  0  0  0  0
   -0.2078    1.7046   -2.5689 H   0  0  0  0  0  0  0  0  0  0  0  0
   -0.4432    0.0631   -1.9901 H   0  0  0  0  0  0  0  0  0  0  0  0
    0.9411    2.2998   -0.3853 H   0  0  0  0  0  0  0  0  0  0  0  0
   -0.9959    2.1921    1.1583 H   0  0  0  0  0  0  0  0  0  0  0  0
  1  2  1  0
  1  5  1  0
  1  6  1  0
  1  7  1  0
  2  3  1  0
  2  8  1  0
  2  9  1  0
  3  4  1  0
  4 10  1  0
 11 12  1  0
 11 15  1  0
 11 16  1  0
 11 17  1  0
 12 13  2  3
 12 18  1  0
 13 14  1  0
 13 19  1  0
M  RAD  1  14   2
M  END
>  <reaction>  (12) 
rxn_458

>  <mol_properties>  (12) 
{"2": {"label": "*0", "atom_type": "O2s"}, "3": {"label": "*1", "atom_type": "O2s"}, "9": {"label": "*2", "atom_type": "H0"}, "11": {"label": "*3", "atom_type": "Cd"}, "12": {"label": "*4", "atom_type": "Cd"}}

>  <type>  (12) 
unop_8

>  <geom_source>  (12) 
Heuristics

$$$$

     RDKit          3D

 19 17  0  0  0  0  0  0  0  0999 V2000
    0.3451   -2.2588   -0.3727 C   0  0  0  0  0  0  0  0  0  0  0  0
    0.3451   -2.2588    1.1426 C   0  0  0  0  0  0  0  0  0  0  0  0
    0.3451   -0.9627    1.7110 O   0  0  0  0  0  0  0  0  0  0  0  0
   -0.9321   -0.3811    1.4655 O   0  0  0  0  0  0  0  0  0  0  0  0
    1.1895   -1.6850   -0.7586 H   0  0  0  0  0  0  0  0  0  0  0  0
    0.4268   -3.2816   -0.7449 H   0  0  0  0  0  0  0  0  0  0  0  0
   -0.5804   -1.8343   -0.7624 H   0  0  0  0  0  0  0  0  0  0  0  0
    1.2661   -2.6960    1.5350 H   0  0  0  0  0  0  0  0  0  0  0  0
   -0.5014   -2.8275    1.5392 H   0  0  0  0  0  0  0  0  0  0  0  0
   -0.6654    0.4521    0.7106 H   0  0  0  0  0  0  0  0  0  0  0  0
    1.0450    1.9271    0.0684 C   0  0  0  0  0  0  0  0  0  0  0  0
   -0.3617    1.4008   -0.1489 C   0  0  0  0  0  0  0  0  0  0  0  0
   -0.7475    1.2353   -1.5921 C   0  0  0  0  0  0  0  0  0  0  0  0
   -0.0375    1.4850   -2.5262 O   0  0  0  0  0  1  0  0  0  0  0  0
    1.2589    2.0229    1.1330 H   0  0  0  0  0  0  0  0  0  0  0  0
    1.1710    2.9039   -0.3984 H   0  0  0  0  0  0  0  0  0  0  0  0
    1.7830    1.2577   -0.3733 H   0  0  0  0  0  0  0  0  0  0  0  0
   -1.1149    2.0549    0.3059 H   0  0  0  0  0  0  0  0  0  0  0  0
   -1.7763    0.8503   -1.7576 H   0  0  0  0  0  0  0  0  0  0  0  0
  1  2  1  0
  1  5  1  0
  1  6  1  0
  1  7  1  0
  2  3  1  0
  2  8  1  0
  2  9  1  0
  3  4  1  0
  4 10  1  0
 11 12  1  0
 11 15  1  0
 11 16  1  0
 11 17  1  0
 12 13  2  3
 12 18  1  0
 13 14  1  0
 13 19  1  0
M  RAD  1  14   2
M  END
>  <reaction>  (13) 
rxn_458

>  <mol_properties>  (13) 
{"2": {"label": "*0", "atom_type": "O2s"}, "3": {"label": "*1", "atom_type": "O2s"}, "9": {"label": "*2", "atom_type": "H0"}, "11": {"label": "*3", "atom_type": "Cd"}, "12": {"label": "*4", "atom_type": "Cd"}}

>  <type>  (13) 
unop_9

>  <geom_source>  (13) 
Heuristics

$$$$

     RDKit          3D

 19 17  0  0  0  0  0  0  0  0999 V2000
    0.8917   -2.1146   -0.5235 C   0  0  0  0  0  0  0  0  0  0  0  0
    0.8917   -2.1146    0.9918 C   0  0  0  0  0  0  0  0  0  0  0  0
    0.8917   -0.8184    1.5602 O   0  0  0  0  0  0  0  0  0  0  0  0
   -0.3855   -0.2368    1.3147 O   0  0  0  0  0  0  0  0  0  0  0  0
    1.7361   -1.5407   -0.9094 H   0  0  0  0  0  0  0  0  0  0  0  0
    0.9735   -3.1373   -0.8957 H   0  0  0  0  0  0  0  0  0  0  0  0
   -0.0338   -1.6901   -0.9131 H   0  0  0  0  0  0  0  0  0  0  0  0
    1.8128   -2.5517    1.3842 H   0  0  0  0  0  0  0  0  0  0  0  0
    0.0452   -2.6832    1.3884 H   0  0  0  0  0  0  0  0  0  0  0  0
   -0.1188    0.5964    0.5598 H   0  0  0  0  0  0  0  0  0  0  0  0
    0.8153    0.9813   -1.5598 C   0  0  0  0  0  0  0  0  0  0  0  0
    0.1849    1.5451   -0.2997 C   0  0  0  0  0  0  0  0  0  0  0  0
   -1.3132    1.6546   -0.3494 C   0  0  0  0  0  0  0  0  0  0  0  0
   -1.9950    1.3360   -1.2836 O   0  0  0  0  0  1  0  0  0  0  0  0
    1.8992    0.9292   -1.4567 H   0  0  0  0  0  0  0  0  0  0  0  0
    0.5800    1.6028   -2.4237 H   0  0  0  0  0  0  0  0  0  0  0  0
    0.4395   -0.0205   -1.7677 H   0  0  0  0  0  0  0  0  0  0  0  0
    0.5668    2.5462   -0.0674 H   0  0  0  0  0  0  0  0  0  0  0  0
   -1.7805    2.0667    0.5703 H   0  0  0  0  0  0  0  0  0  0  0  0
  1  2  1  0
  1  5  1  0
  1  6  1  0
  1  7  1  0
  2  3  1  0
  2  8  1  0
  2  9  1  0
  3  4  1  0
  4 10  1  0
 11 12  1  0
 11 15  1  0
 11 16  1  0
 11 17  1  0
 12 13  2  3
 12 18  1  0
 13 14  1  0
 13 19  1  0
M  RAD  1  14   2
M  END
>  <reaction>  (14) 
rxn_458

>  <mol_properties>  (14) 
{"2": {"label": "*0", "atom_type": "O2s"}, "3": {"label": "*1", "atom_type": "O2s"}, "9": {"label": "*2", "atom_type": "H0"}, "11": {"label": "*3", "atom_type": "Cd"}, "12": {"label": "*4", "atom_type": "Cd"}}

>  <type>  (14) 
unop_10

>  <geom_source>  (14) 
Heuristics

$$$$

     RDKit          3D

 19 17  0  0  0  0  0  0  0  0999 V2000
    0.2522   -2.5711   -0.6781 C   0  0  0  0  0  0  0  0  0  0  0  0
    0.2522   -2.5711    0.8372 C   0  0  0  0  0  0  0  0  0  0  0  0
    0.2522   -1.2749    1.4056 O   0  0  0  0  0  0  0  0  0  0  0  0
   -1.0250   -0.6933    1.1601 O   0  0  0  0  0  0  0  0  0  0  0  0
    1.0966   -1.9972   -1.0640 H   0  0  0  0  0  0  0  0  0  0  0  0
    0.3340   -3.5938   -1.0503 H   0  0  0  0  0  0  0  0  0  0  0  0
   -0.6732   -2.1466   -1.0677 H   0  0  0  0  0  0  0  0  0  0  0  0
    1.1733   -3.0082    1.2296 H   0  0  0  0  0  0  0  0  0  0  0  0
   -0.5942   -3.1397    1.2338 H   0  0  0  0  0  0  0  0  0  0  0  0
   -0.7582    0.1399    0.4052 H   0  0  0  0  0  0  0  0  0  0  0  0
   -1.3967    2.2728   -0.3407 C   0  0  0  0  0  0  0  0  0  0  0  0
   -0.4545    1.0886   -0.4543 C   0  0  0  0  0  0  0  0  0  0  0  0
    0.9316    1.4392   -0.9174 C   0  0  0  0  0  0  0  0  0  0  0  0
    1.3070    2.5464   -1.1860 O   0  0  0  0  0  1  0  0  0  0  0  0
   -2.3809    1.9493   -0.0014 H   0  0  0  0  0  0  0  0  0  0  0  0
   -1.5102    2.7729   -1.3025 H   0  0  0  0  0  0  0  0  0  0  0  0
   -1.0126    3.0088    0.3654 H   0  0  0  0  0  0  0  0  0  0  0  0
   -0.8367    0.3306   -1.1482 H   0  0  0  0  0  0  0  0  0  0  0  0
    1.6260    0.5762   -1.0025 H   0  0  0  0  0  0  0  0  0  0  0  0
  1  2  1  0
  1  5  1  0
  1  6  1  0
  1  7  1  0
  2  3  1  0
  2  8  1  0
  2  9  1  0
  3  4  1  0
  4 10  1  0
 11 12  1  0
 11 15  1  0
 11 16  1  0
 11 17  1  0
 12 13  2  3
 12 18  1  0
 13 14  1  0
 13 19  1  0
M  RAD  1  14   2
M  END
>  <reaction>  (15) 
rxn_458

>  <mol_properties>  (15) 
{"2": {"label": "*0", "atom_type": "O2s"}, "3": {"label": "*1", "atom_type": "O2s"}, "9": {"label": "*2", "atom_type": "H0"}, "11": {"label": "*3", "atom_type": "Cd"}, "12": {"label": "*4", "atom_type": "Cd"}}

>  <type>  (15) 
unop_11

>  <geom_source>  (15) 
Heuristics

$$$$

     RDKit          3D

 19 17  0  0  0  0  0  0  0  0999 V2000
    0.4944   -2.1357   -0.3400 C   0  0  0  0  0  0  0  0  0  0  0  0
    0.4944   -2.1357    1.1753 C   0  0  0  0  0  0  0  0  0  0  0  0
    0.4944   -0.8396    1.7437 O   0  0  0  0  0  0  0  0  0  0  0  0
   -0.7828   -0.2580    1.4983 O   0  0  0  0  0  0  0  0  0  0  0  0
    1.3388   -1.5619   -0.7258 H   0  0  0  0  0  0  0  0  0  0  0  0
    0.5761   -3.1584   -0.7121 H   0  0  0  0  0  0  0  0  0  0  0  0
   -0.4311   -1.7112   -0.7296 H   0  0  0  0  0  0  0  0  0  0  0  0
    1.4154   -2.5729    1.5677 H   0  0  0  0  0  0  0  0  0  0  0  0
   -0.3521   -2.7043    1.5719 H   0  0  0  0  0  0  0  0  0  0  0  0
   -0.5161    0.5752    0.7433 H   0  0  0  0  0  0  0  0  0  0  0  0
    1.2735    1.5495   -0.4236 C   0  0  0  0  0  0  0  0  0  0  0  0
   -0.2124    1.5239   -0.1162 C   0  0  0  0  0  0  0  0  0  0  0  0
   -1.0922    1.3171   -1.3171 C   0  0  0  0  0  0  0  0  0  0  0  0
   -0.6986    1.1793   -2.4418 O   0  0  0  0  0  1  0  0  0  0  0  0
    1.8516    1.7023    0.4879 H   0  0  0  0  0  0  0  0  0  0  0  0
    1.5121    2.3511   -1.1224 H   0  0  0  0  0  0  0  0  0  0  0  0
    1.5918    0.6131   -0.8815 H   0  0  0  0  0  0  0  0  0  0  0  0
   -0.5443    2.4531    0.3618 H   0  0  0  0  0  0  0  0  0  0  0  0
   -2.1812    1.2975   -1.0983 H   0  0  0  0  0  0  0  0  0  0  0  0
  1  2  1  0
  1  5  1  0
  1  6  1  0
  1  7  1  0
  2  3  1  0
  2  8  1  0
  2  9  1  0
  3  4  1  0
  4 10  1  0
 11 12  1  0
 11 15  1  0
 11 16  1  0
 11 17  1  0
 12 13  2  3
 12 18  1  0
 13 14  1  0
 13 19  1  0
M  RAD  1  14   2
M  END
>  <reaction>  (16) 
rxn_458

>  <mol_properties>  (16) 
{"2": {"label": "*0", "atom_type": "O2s"}, "3": {"label": "*1", "atom_type": "O2s"}, "9": {"label": "*2", "atom_type": "H0"}, "11": {"label": "*3", "atom_type": "Cd"}, "12": {"label": "*4", "atom_type": "Cd"}}

>  <type>  (16) 
unop_12

>  <geom_source>  (16) 
Heuristics

$$$$

     RDKit          3D

 19 17  0  0  0  0  0  0  0  0999 V2000
    1.4698   -1.1279   -1.1101 O   0  0  0  0  0  0  0  0  0  0  0  0
   -1.6195    2.6975   -0.2923 O   0  0  0  0  0  0  0  0  0  0  0  0
    0.3601   -0.8365   -0.4573 O   0  0  0  0  0  1  0  0  0  0  0  0
   -1.7898    0.3401   -0.3584 C   0  0  0  0  0  0  0  0  0  0  0  0
    2.4474   -0.2266   -0.6541 C   0  0  0  0  0  0  0  0  0  0  0  0
   -3.0657   -0.3055    0.1664 C   0  0  0  0  0  0  0  0  0  0  0  0
    3.0386   -0.6992    0.6701 C   0  0  0  0  0  0  0  0  0  0  0  0
   -1.5415    1.6488    0.3275 C   0  0  0  0  0  0  0  0  0  0  0  0
   -1.8782    0.4910   -1.4565 H   0  0  0  0  0  0  0  0  0  0  0  0
   -0.8322   -0.4141   -0.1439 H   0  0  0  0  0  0  0  0  0  0  0  0
    2.0409    0.8064   -0.5498 H   0  0  0  0  0  0  0  0  0  0  0  0
    3.2614   -0.1837   -1.4083 H   0  0  0  0  0  0  0  0  0  0  0  0
   -3.9391    0.3536   -0.0267 H   0  0  0  0  0  0  0  0  0  0  0  0
   -2.9809   -0.4943    1.2580 H   0  0  0  0  0  0  0  0  0  0  0  0
   -3.2292   -1.2748   -0.3497 H   0  0  0  0  0  0  0  0  0  0  0  0
    3.4603   -1.7203    0.5553 H   0  0  0  0  0  0  0  0  0  0  0  0
    3.8491   -0.0087    0.9851 H   0  0  0  0  0  0  0  0  0  0  0  0
    2.2559   -0.7137    1.4577 H   0  0  0  0  0  0  0  0  0  0  0  0
   -1.3075    1.6680    1.3870 H   0  0  0  0  0  0  0  0  0  0  0  0
  1  5  1  0
  1  3  1  0
  2  8  2  0
  4  6  1  0
  4  8  1  0
  4  9  1  0
  4 10  1  0
  5  7  1  0
  5 11  1  0
  5 12  1  0
  6 13  1  0
  6 14  1  0
  6 15  1  0
  7 16  1  0
  7 17  1  0
  7 18  1  0
  8 19  1  0
M  RAD  1   3   2
M  END
>  <reaction>  (17) 
rxn_458

>  <mol_properties>  (17) 
{"2": {"label": "*0", "atom_type": "O2s"}, "3": {"label": "*1", "atom_type": "O2s"}, "9": {"label": "*2", "atom_type": "H0"}, "11": {"label": "*3", "atom_type": "Cd"}, "12": {"label": "*4", "atom_type": "Cd"}}

>  <type>  (17) 
unop_13

>  <geom_source>  (17) 
AutoTST

$$$$
