
     RDKit          3D

  5  4  0  0  0  0  0  0  0  0999 V2000
   -0.3689   -0.0540    0.1184 C   0  0  0  0  0  0  0  0  0  0  0  0
    0.7862    0.4359    0.2394 N   0  0  0  0  0  0  0  0  0  0  0  0
   -0.6872   -0.7035   -0.7033 H   0  0  0  0  0  0  0  0  0  0  0  0
   -1.1194    0.1733    0.8758 H   0  0  0  0  0  0  0  0  0  0  0  0
    1.3892    0.1482   -0.5303 H   0  0  0  0  0  0  0  0  0  0  0  0
  1  2  2  3
  1  3  1  0
  1  4  1  0
  2  5  1  0
M  END
>  <reaction>  (1) 
rxn_675

>  <mol_properties>  (1) 
{"0": {"label": "donator", "atom_type": "Cd"}, "2": {"label": "d_hydrogen", "atom_type": "H0"}}

>  <type>  (1) 
r1h

$$$$

     RDKit          3D

  4  3  0  0  0  0  0  0  0  0999 V2000
    0.0000    0.0000    0.0000 C   0  0  0  0  0  3  0  0  0  0  0  0
    1.0638   -0.1747    0.0540 H   0  0  0  0  0  0  0  0  0  0  0  0
   -0.6833   -0.8351   -0.0280 H   0  0  0  0  0  0  0  0  0  0  0  0
   -0.3805    1.0098   -0.0260 H   0  0  0  0  0  0  0  0  0  0  0  0
  1  2  1  0
  1  3  1  0
  1  4  1  0
M  RAD  1   1   2
M  END
>  <reaction>  (2) 
rxn_675

>  <mol_properties>  (2) 
{"0": {"label": "acceptor", "atom_type": "Cs"}}

>  <type>  (2) 
r2

$$$$

     RDKit          3D

  5  4  0  0  0  0  0  0  0  0999 V2000
    0.0000    0.0000    0.0000 C   0  0  0  0  0  0  0  0  0  0  0  0
   -0.6486   -0.7720   -0.4113 H   0  0  0  0  0  0  0  0  0  0  0  0
   -0.3482    0.9787   -0.3267 H   0  0  0  0  0  0  0  0  0  0  0  0
   -0.0223   -0.0487    1.0876 H   0  0  0  0  0  0  0  0  0  0  0  0
    1.0191   -0.1580   -0.3496 H   0  0  0  0  0  0  0  0  0  0  0  0
  1  2  1  0
  1  3  1  0
  1  4  1  0
  1  5  1  0
M  END
>  <reaction>  (3) 
rxn_675

>  <mol_properties>  (3) 
{"0": {"label": "a_hydrogen", "atom_type": "H0"}, "1": {"label": "acceptor", "atom_type": "Cs"}}

>  <type>  (3) 
r2h

$$$$

     RDKit          3D

  9  7  0  0  0  0  0  0  0  0999 V2000
    0.0497   -0.8406   -0.1586 C   0  0  0  0  0  0  0  0  0  0  0  0
   -0.0057   -0.7291   -1.3984 N   0  0  0  0  0  0  0  0  0  0  0  0
    0.0342    0.1767    0.6426 H   0  0  0  0  0  0  0  0  0  0  0  0
    0.1153   -1.8195    0.3260 H   0  0  0  0  0  0  0  0  0  0  0  0
   -0.0639    0.2410   -1.7101 H   0  0  0  0  0  0  0  0  0  0  0  0
    0.0114    1.3438    1.4388 C   0  0  0  0  0  3  0  0  0  0  0  0
   -0.0558    2.1532    0.7175 H   0  0  0  0  0  0  0  0  0  0  0  0
    0.9478    1.3183    1.9877 H   0  0  0  0  0  0  0  0  0  0  0  0
   -0.8712    1.2326    2.0612 H   0  0  0  0  0  0  0  0  0  0  0  0
  1  2  2  3
  1  3  1  0
  1  4  1  0
  2  5  1  0
  6  7  1  0
  6  8  1  0
  6  9  1  0
M  RAD  1   6   2
M  END
>  <reaction>  (4) 
rxn_675

>  <mol_properties>  (4) 
{"0": {"label": "*1", "atom_type": "Cd"}, "1": {"label": "*0", "atom_type": "N3d"}, "2": {"label": "*2", "atom_type": "H0"}, "5": {"label": "*3", "atom_type": "Cs"}, "6": {"label": "*4", "atom_type": "H0"}}

>  <type>  (4) 
ts

$$$$

     RDKit          3D

  9  7  0  0  0  0  0  0  0  0999 V2000
   -0.0032   -0.7678   -0.1258 C   0  0  0  0  0  3  0  0  0  0  0  0
   -0.0032   -0.7678   -1.3863 N   0  0  0  0  0  0  0  0  0  0  0  0
   -0.0032    0.3123    0.6218 H   0  0  0  0  0  0  0  0  0  0  0  0
   -0.0032   -1.7225    0.4008 H   0  0  0  0  0  0  0  0  0  0  0  0
   -0.0032    0.1831   -1.7531 H   0  0  0  0  0  0  0  0  0  0  0  0
   -0.0032    1.3867    1.3655 C   0  0  0  0  0  0  0  0  0  0  0  0
   -0.8923    1.3930    1.9942 H   0  0  0  0  0  0  0  0  0  0  0  0
    0.3870    2.3996    1.2785 H   0  0  0  0  0  0  0  0  0  0  0  0
    0.6359    0.7336    1.9577 H   0  0  0  0  0  0  0  0  0  0  0  0
  1  2  2  3
  1  4  1  0
  2  5  1  0
  3  6  1  0
  6  7  1  0
  6  8  1  0
  6  9  1  0
M  RAD  1   1   2
M  END
>  <reaction>  (5) 
rxn_675

>  <mol_properties>  (5) 
{"0": {"label": "*1", "atom_type": "Cd"}, "1": {"label": "*0", "atom_type": "N3d"}, "2": {"label": "*2", "atom_type": "H0"}, "5": {"label": "*3", "atom_type": "Cs"}, "6": {"label": "*4", "atom_type": "H0"}}

>  <type>  (5) 
unop_1

>  <geom_source>  (5) 
Heuristics

$$$$

     RDKit          3D

  9  7  0  0  0  0  0  0  0  0999 V2000
   -0.0023   -0.7679   -0.1138 C   0  0  0  0  0  3  0  0  0  0  0  0
   -0.0023   -0.7679   -1.3743 N   0  0  0  0  0  0  0  0  0  0  0  0
   -0.0023    0.3122    0.6338 H   0  0  0  0  0  0  0  0  0  0  0  0
   -0.0023   -1.7225    0.4128 H   0  0  0  0  0  0  0  0  0  0  0  0
   -0.0023    0.1830   -1.7411 H   0  0  0  0  0  0  0  0  0  0  0  0
   -0.0023    1.3866    1.3775 C   0  0  0  0  0  0  0  0  0  0  0  0
   -0.5156    2.1911    0.8530 H   0  0  0  0  0  0  0  0  0  0  0  0
    0.8890    1.7808    1.8633 H   0  0  0  0  0  0  0  0  0  0  0  0
   -0.2814    0.5579    2.0263 H   0  0  0  0  0  0  0  0  0  0  0  0
  1  2  2  3
  1  4  1  0
  2  5  1  0
  3  6  1  0
  6  7  1  0
  6  8  1  0
  6  9  1  0
M  RAD  1   1   2
M  END
>  <reaction>  (6) 
rxn_675

>  <mol_properties>  (6) 
{"0": {"label": "*1", "atom_type": "Cd"}, "1": {"label": "*0", "atom_type": "N3d"}, "2": {"label": "*2", "atom_type": "H0"}, "5": {"label": "*3", "atom_type": "Cs"}, "6": {"label": "*4", "atom_type": "H0"}}

>  <type>  (6) 
unop_2

>  <geom_source>  (6) 
Heuristics

$$$$

     RDKit          3D

  9  7  0  0  0  0  0  0  0  0999 V2000
   -0.0065   -0.7728   -0.1255 C   0  0  0  0  0  3  0  0  0  0  0  0
   -0.0065   -0.7728   -1.3860 N   0  0  0  0  0  0  0  0  0  0  0  0
   -0.0065    0.3073    0.6221 H   0  0  0  0  0  0  0  0  0  0  0  0
   -0.0065   -1.7274    0.4011 H   0  0  0  0  0  0  0  0  0  0  0  0
   -0.0065    0.1781   -1.7529 H   0  0  0  0  0  0  0  0  0  0  0  0
   -0.0065    1.3818    1.3657 C   0  0  0  0  0  0  0  0  0  0  0  0
   -0.5198    1.1742    2.3034 H   0  0  0  0  0  0  0  0  0  0  0  0
   -0.1625    2.4234    1.0894 H   0  0  0  0  0  0  0  0  0  0  0  0
    0.9471    1.1312    1.8280 H   0  0  0  0  0  0  0  0  0  0  0  0
  1  2  2  3
  1  4  1  0
  2  5  1  0
  3  6  1  0
  6  7  1  0
  6  8  1  0
  6  9  1  0
M  RAD  1   1   2
M  END
>  <reaction>  (7) 
rxn_675

>  <mol_properties>  (7) 
{"0": {"label": "*1", "atom_type": "Cd"}, "1": {"label": "*0", "atom_type": "N3d"}, "2": {"label": "*2", "atom_type": "H0"}, "5": {"label": "*3", "atom_type": "Cs"}, "6": {"label": "*4", "atom_type": "H0"}}

>  <type>  (7) 
unop_3

>  <geom_source>  (7) 
Heuristics

$$$$

     RDKit          3D

  9  7  0  0  0  0  0  0  0  0999 V2000
   -0.0030   -0.7652   -0.1186 C   0  0  0  0  0  3  0  0  0  0  0  0
   -0.0030   -0.7652   -1.3791 N   0  0  0  0  0  0  0  0  0  0  0  0
   -0.0030    0.3149    0.6289 H   0  0  0  0  0  0  0  0  0  0  0  0
   -0.0030   -1.7199    0.4080 H   0  0  0  0  0  0  0  0  0  0  0  0
   -0.0030    0.1857   -1.7460 H   0  0  0  0  0  0  0  0  0  0  0  0
   -0.0030    1.3893    1.3726 C   0  0  0  0  0  0  0  0  0  0  0  0
    0.8861    1.9799    1.1571 H   0  0  0  0  0  0  0  0  0  0  0  0
    0.2229    0.6652    2.1539 H   0  0  0  0  0  0  0  0  0  0  0  0
   -0.9882    1.7756    1.6294 H   0  0  0  0  0  0  0  0  0  0  0  0
  1  2  2  3
  1  4  1  0
  2  5  1  0
  3  6  1  0
  6  7  1  0
  6  8  1  0
  6  9  1  0
M  RAD  1   1   2
M  END
>  <reaction>  (8) 
rxn_675

>  <mol_properties>  (8) 
{"0": {"label": "*1", "atom_type": "Cd"}, "1": {"label": "*0", "atom_type": "N3d"}, "2": {"label": "*2", "atom_type": "H0"}, "5": {"label": "*3", "atom_type": "Cs"}, "6": {"label": "*4", "atom_type": "H0"}}

>  <type>  (8) 
unop_4

>  <geom_source>  (8) 
Heuristics

$$$$

     RDKit          3D

  9  7  0  0  0  0  0  0  0  0999 V2000
   -0.0010   -0.7783   -0.1238 C   0  0  0  0  0  3  0  0  0  0  0  0
   -0.0010   -0.7783   -1.3843 N   0  0  0  0  0  0  0  0  0  0  0  0
   -0.0010    0.3018    0.6238 H   0  0  0  0  0  0  0  0  0  0  0  0
   -0.0010   -1.7330    0.4028 H   0  0  0  0  0  0  0  0  0  0  0  0
   -0.0010    0.1726   -1.7512 H   0  0  0  0  0  0  0  0  0  0  0  0
   -0.0010    1.3762    1.3675 C   0  0  0  0  0  0  0  0  0  0  0  0
   -0.0010    1.0904    2.4182 H   0  0  0  0  0  0  0  0  0  0  0  0
   -0.8901    1.9668    1.1520 H   0  0  0  0  0  0  0  0  0  0  0  0
    0.9313    1.8968    1.5809 H   0  0  0  0  0  0  0  0  0  0  0  0
  1  2  2  3
  1  4  1  0
  2  5  1  0
  3  6  1  0
  6  7  1  0
  6  8  1  0
  6  9  1  0
M  RAD  1   1   2
M  END
>  <reaction>  (9) 
rxn_675

>  <mol_properties>  (9) 
{"0": {"label": "*1", "atom_type": "Cd"}, "1": {"label": "*0", "atom_type": "N3d"}, "2": {"label": "*2", "atom_type": "H0"}, "5": {"label": "*3", "atom_type": "Cs"}, "6": {"label": "*4", "atom_type": "H0"}}

>  <type>  (9) 
unop_5

>  <geom_source>  (9) 
Heuristics

$$$$

     RDKit          3D

  9  7  0  0  0  0  0  0  0  0999 V2000
   -0.0007   -0.7667   -0.1227 C   0  0  0  0  0  3  0  0  0  0  0  0
   -0.0007   -0.7667   -1.3832 N   0  0  0  0  0  0  0  0  0  0  0  0
   -0.0007    0.3134    0.6249 H   0  0  0  0  0  0  0  0  0  0  0  0
   -0.0007   -1.7213    0.4039 H   0  0  0  0  0  0  0  0  0  0  0  0
   -0.0007    0.1842   -1.7501 H   0  0  0  0  0  0  0  0  0  0  0  0
   -0.0007    1.3879    1.3685 C   0  0  0  0  0  0  0  0  0  0  0  0
    1.0259    1.6863    1.5751 H   0  0  0  0  0  0  0  0  0  0  0  0
   -0.2890    0.5860    2.0465 H   0  0  0  0  0  0  0  0  0  0  0  0
   -0.7070    2.2084    1.4852 H   0  0  0  0  0  0  0  0  0  0  0  0
  1  2  2  3
  1  4  1  0
  2  5  1  0
  3  6  1  0
  6  7  1  0
  6  8  1  0
  6  9  1  0
M  RAD  1   1   2
M  END
>  <reaction>  (10) 
rxn_675

>  <mol_properties>  (10) 
{"0": {"label": "*1", "atom_type": "Cd"}, "1": {"label": "*0", "atom_type": "N3d"}, "2": {"label": "*2", "atom_type": "H0"}, "5": {"label": "*3", "atom_type": "Cs"}, "6": {"label": "*4", "atom_type": "H0"}}

>  <type>  (10) 
unop_6

>  <geom_source>  (10) 
Heuristics

$$$$

     RDKit          3D

  9  7  0  0  0  0  0  0  0  0999 V2000
    0.0029   -0.7690   -0.1254 C   0  0  0  0  0  3  0  0  0  0  0  0
    0.0029   -0.7690   -1.3859 N   0  0  0  0  0  0  0  0  0  0  0  0
    0.0029    0.3111    0.6222 H   0  0  0  0  0  0  0  0  0  0  0  0
    0.0029   -1.7237    0.4012 H   0  0  0  0  0  0  0  0  0  0  0  0
    0.0029    0.1819   -1.7527 H   0  0  0  0  0  0  0  0  0  0  0  0
    0.0029    1.3855    1.3659 C   0  0  0  0  0  0  0  0  0  0  0  0
    0.8920    1.3918    1.9946 H   0  0  0  0  0  0  0  0  0  0  0  0
   -0.7534    0.7424    1.8133 H   0  0  0  0  0  0  0  0  0  0  0  0
   -0.2583    2.4419    1.4064 H   0  0  0  0  0  0  0  0  0  0  0  0
  1  2  2  3
  1  4  1  0
  2  5  1  0
  3  6  1  0
  6  7  1  0
  6  8  1  0
  6  9  1  0
M  RAD  1   1   2
M  END
>  <reaction>  (11) 
rxn_675

>  <mol_properties>  (11) 
{"0": {"label": "*1", "atom_type": "Cd"}, "1": {"label": "*0", "atom_type": "N3d"}, "2": {"label": "*2", "atom_type": "H0"}, "5": {"label": "*3", "atom_type": "Cs"}, "6": {"label": "*4", "atom_type": "H0"}}

>  <type>  (11) 
unop_7

>  <geom_source>  (11) 
Heuristics

$$$$

     RDKit          3D

  9  7  0  0  0  0  0  0  0  0999 V2000
    0.0006   -0.7672   -0.1226 C   0  0  0  0  0  3  0  0  0  0  0  0
    0.0006   -0.7672   -1.3831 N   0  0  0  0  0  0  0  0  0  0  0  0
    0.0006    0.3129    0.6250 H   0  0  0  0  0  0  0  0  0  0  0  0
    0.0006   -1.7219    0.4040 H   0  0  0  0  0  0  0  0  0  0  0  0
    0.0006    0.1837   -1.7499 H   0  0  0  0  0  0  0  0  0  0  0  0
    0.0006    1.3873    1.3687 C   0  0  0  0  0  0  0  0  0  0  0  0
   -1.0260    1.6858    1.5753 H   0  0  0  0  0  0  0  0  0  0  0  0
    0.6625    2.2400    1.5128 H   0  0  0  0  0  0  0  0  0  0  0  0
    0.3385    0.5762    2.0119 H   0  0  0  0  0  0  0  0  0  0  0  0
  1  2  2  3
  1  4  1  0
  2  5  1  0
  3  6  1  0
  6  7  1  0
  6  8  1  0
  6  9  1  0
M  RAD  1   1   2
M  END
>  <reaction>  (12) 
rxn_675

>  <mol_properties>  (12) 
{"0": {"label": "*1", "atom_type": "Cd"}, "1": {"label": "*0", "atom_type": "N3d"}, "2": {"label": "*2", "atom_type": "H0"}, "5": {"label": "*3", "atom_type": "Cs"}, "6": {"label": "*4", "atom_type": "H0"}}

>  <type>  (12) 
unop_8

>  <geom_source>  (12) 
Heuristics

$$$$

     RDKit          3D

  9  7  0  0  0  0  0  0  0  0999 V2000
   -0.0044   -0.7644   -0.1149 C   0  0  0  0  0  3  0  0  0  0  0  0
   -0.0044   -0.7644   -1.3754 N   0  0  0  0  0  0  0  0  0  0  0  0
   -0.0044    0.3157    0.6327 H   0  0  0  0  0  0  0  0  0  0  0  0
   -0.0044   -1.7190    0.4117 H   0  0  0  0  0  0  0  0  0  0  0  0
   -0.0044    0.1865   -1.7423 H   0  0  0  0  0  0  0  0  0  0  0  0
   -0.0044    1.3902    1.3764 C   0  0  0  0  0  0  0  0  0  0  0  0
    0.5089    2.1946    0.8519 H   0  0  0  0  0  0  0  0  0  0  0  0
    0.6598    0.9643    2.1268 H   0  0  0  0  0  0  0  0  0  0  0  0
   -0.9900    1.2282    1.8100 H   0  0  0  0  0  0  0  0  0  0  0  0
  1  2  2  3
  1  4  1  0
  2  5  1  0
  3  6  1  0
  6  7  1  0
  6  8  1  0
  6  9  1  0
M  RAD  1   1   2
M  END
>  <reaction>  (13) 
rxn_675

>  <mol_properties>  (13) 
{"0": {"label": "*1", "atom_type": "Cd"}, "1": {"label": "*0", "atom_type": "N3d"}, "2": {"label": "*2", "atom_type": "H0"}, "5": {"label": "*3", "atom_type": "Cs"}, "6": {"label": "*4", "atom_type": "H0"}}

>  <type>  (13) 
unop_9

>  <geom_source>  (13) 
Heuristics

$$$$

     RDKit          3D

  9  7  0  0  0  0  0  0  0  0999 V2000
    0.0007   -0.7682   -0.1177 C   0  0  0  0  0  3  0  0  0  0  0  0
    0.0007   -0.7682   -1.3782 N   0  0  0  0  0  0  0  0  0  0  0  0
    0.0007    0.3119    0.6299 H   0  0  0  0  0  0  0  0  0  0  0  0
    0.0007   -1.7229    0.4089 H   0  0  0  0  0  0  0  0  0  0  0  0
    0.0007    0.1827   -1.7450 H   0  0  0  0  0  0  0  0  0  0  0  0
    0.0007    1.3863    1.3736 C   0  0  0  0  0  0  0  0  0  0  0  0
   -0.8884    1.9769    1.1581 H   0  0  0  0  0  0  0  0  0  0  0  0
    0.8011    2.0442    1.7089 H   0  0  0  0  0  0  0  0  0  0  0  0
    0.0575    0.5222    2.0339 H   0  0  0  0  0  0  0  0  0  0  0  0
  1  2  2  3
  1  4  1  0
  2  5  1  0
  3  6  1  0
  6  7  1  0
  6  8  1  0
  6  9  1  0
M  RAD  1   1   2
M  END
>  <reaction>  (14) 
rxn_675

>  <mol_properties>  (14) 
{"0": {"label": "*1", "atom_type": "Cd"}, "1": {"label": "*0", "atom_type": "N3d"}, "2": {"label": "*2", "atom_type": "H0"}, "5": {"label": "*3", "atom_type": "Cs"}, "6": {"label": "*4", "atom_type": "H0"}}

>  <type>  (14) 
unop_10

>  <geom_source>  (14) 
Heuristics

$$$$

     RDKit          3D

  9  7  0  0  0  0  0  0  0  0999 V2000
    0.0052   -0.7741   -0.1251 C   0  0  0  0  0  3  0  0  0  0  0  0
    0.0052   -0.7741   -1.3856 N   0  0  0  0  0  0  0  0  0  0  0  0
    0.0052    0.3060    0.6225 H   0  0  0  0  0  0  0  0  0  0  0  0
    0.0052   -1.7288    0.4015 H   0  0  0  0  0  0  0  0  0  0  0  0
    0.0052    0.1768   -1.7524 H   0  0  0  0  0  0  0  0  0  0  0  0
    0.0052    1.3804    1.3662 C   0  0  0  0  0  0  0  0  0  0  0  0
    0.5185    1.1729    2.3038 H   0  0  0  0  0  0  0  0  0  0  0  0
   -1.0607    1.1926    1.4866 H   0  0  0  0  0  0  0  0  0  0  0  0
    0.3319    2.4181    1.4127 H   0  0  0  0  0  0  0  0  0  0  0  0
  1  2  2  3
  1  4  1  0
  2  5  1  0
  3  6  1  0
  6  7  1  0
  6  8  1  0
  6  9  1  0
M  RAD  1   1   2
M  END
>  <reaction>  (15) 
rxn_675

>  <mol_properties>  (15) 
{"0": {"label": "*1", "atom_type": "Cd"}, "1": {"label": "*0", "atom_type": "N3d"}, "2": {"label": "*2", "atom_type": "H0"}, "5": {"label": "*3", "atom_type": "Cs"}, "6": {"label": "*4", "atom_type": "H0"}}

>  <type>  (15) 
unop_11

>  <geom_source>  (15) 
Heuristics

$$$$

     RDKit          3D

  9  7  0  0  0  0  0  0  0  0999 V2000
   -0.0047   -0.7657   -0.1129 C   0  0  0  0  0  3  0  0  0  0  0  0
   -0.0047   -0.7657   -1.3734 N   0  0  0  0  0  0  0  0  0  0  0  0
   -0.0047    0.3144    0.6347 H   0  0  0  0  0  0  0  0  0  0  0  0
   -0.0047   -1.7203    0.4137 H   0  0  0  0  0  0  0  0  0  0  0  0
   -0.0047    0.1852   -1.7402 H   0  0  0  0  0  0  0  0  0  0  0  0
   -0.0047    1.3889    1.3784 C   0  0  0  0  0  0  0  0  0  0  0  0
   -0.0047    2.2716    0.7408 H   0  0  0  0  0  0  0  0  0  0  0  0
    0.8844    1.3952    2.0070 H   0  0  0  0  0  0  0  0  0  0  0  0
   -0.6900    0.7729    1.9586 H   0  0  0  0  0  0  0  0  0  0  0  0
  1  2  2  3
  1  4  1  0
  2  5  1  0
  3  6  1  0
  6  7  1  0
  6  8  1  0
  6  9  1  0
M  RAD  1   1   2
M  END
>  <reaction>  (16) 
rxn_675

>  <mol_properties>  (16) 
{"0": {"label": "*1", "atom_type": "Cd"}, "1": {"label": "*0", "atom_type": "N3d"}, "2": {"label": "*2", "atom_type": "H0"}, "5": {"label": "*3", "atom_type": "Cs"}, "6": {"label": "*4", "atom_type": "H0"}}

>  <type>  (16) 
unop_12

>  <geom_source>  (16) 
Heuristics

$$$$

     RDKit          3D

  9  7  0  0  0  0  0  0  0  0999 V2000
    1.9882   -0.6700    0.1023 N   0  0  0  0  0  0  0  0  0  0  0  0
   -1.3377    0.1104    0.0140 C   0  0  0  0  0  3  0  0  0  0  0  0
    1.2363    0.3449   -0.1073 C   0  0  0  0  0  0  0  0  0  0  0  0
   -1.5960    0.7272    0.8991 H   0  0  0  0  0  0  0  0  0  0  0  0
   -2.0364    0.3433   -0.8157 H   0  0  0  0  0  0  0  0  0  0  0  0
   -1.4197   -0.9646    0.2757 H   0  0  0  0  0  0  0  0  0  0  0  0
   -0.0787    0.3832   -0.3704 H   0  0  0  0  0  0  0  0  0  0  0  0
    1.6248    1.3468    0.0385 H   0  0  0  0  0  0  0  0  0  0  0  0
    1.6193   -1.6211   -0.0361 H   0  0  0  0  0  0  0  0  0  0  0  0
  1  3  2  3
  1  9  1  0
  2  4  1  0
  2  5  1  0
  2  6  1  0
  3  7  1  0
  3  8  1  0
M  RAD  1   2   2
M  END
>  <reaction>  (17) 
rxn_675

>  <mol_properties>  (17) 
{"0": {"label": "*1", "atom_type": "Cd"}, "1": {"label": "*0", "atom_type": "N3d"}, "2": {"label": "*2", "atom_type": "H0"}, "5": {"label": "*3", "atom_type": "Cs"}, "6": {"label": "*4", "atom_type": "H0"}}

>  <type>  (17) 
unop_13

>  <geom_source>  (17) 
AutoTST

$$$$
