
     RDKit          3D

  8  7  0  0  0  0  0  0  0  0999 V2000
    0.7610    0.0250    0.0051 C   0  0  0  0  0  0  0  0  0  0  0  0
   -0.7610   -0.0250   -0.0051 C   0  0  0  0  0  0  0  0  0  0  0  0
    1.1904   -0.9237   -0.3217 H   0  0  0  0  0  0  0  0  0  0  0  0
    1.1359    0.8041   -0.6609 H   0  0  0  0  0  0  0  0  0  0  0  0
    1.1435    0.2336    1.0058 H   0  0  0  0  0  0  0  0  0  0  0  0
   -1.1435   -0.2336   -1.0058 H   0  0  0  0  0  0  0  0  0  0  0  0
   -1.1904    0.9237    0.3216 H   0  0  0  0  0  0  0  0  0  0  0  0
   -1.1359   -0.8041    0.6609 H   0  0  0  0  0  0  0  0  0  0  0  0
  1  2  1  0
  1  3  1  0
  1  4  1  0
  1  5  1  0
  2  6  1  0
  2  7  1  0
  2  8  1  0
M  END
>  <reaction>  (1) 
rxn_770

>  <mol_properties>  (1) 
{"1": {"label": "donator", "atom_type": "Cs"}, "5": {"label": "d_hydrogen", "atom_type": "H0"}}

>  <type>  (1) 
r1h

$$$$

     RDKit          3D

  4  3  0  0  0  0  0  0  0  0999 V2000
    0.0000    0.0000    0.0000 C   0  0  0  0  0  3  0  0  0  0  0  0
    1.0638   -0.1747    0.0540 H   0  0  0  0  0  0  0  0  0  0  0  0
   -0.6833   -0.8351   -0.0280 H   0  0  0  0  0  0  0  0  0  0  0  0
   -0.3805    1.0098   -0.0260 H   0  0  0  0  0  0  0  0  0  0  0  0
  1  2  1  0
  1  3  1  0
  1  4  1  0
M  RAD  1   1   2
M  END
>  <reaction>  (2) 
rxn_770

>  <mol_properties>  (2) 
{"0": {"label": "acceptor", "atom_type": "Cs"}}

>  <type>  (2) 
r2

$$$$

     RDKit          3D

  5  4  0  0  0  0  0  0  0  0999 V2000
    0.0000    0.0000    0.0000 C   0  0  0  0  0  0  0  0  0  0  0  0
   -0.6486   -0.7720   -0.4113 H   0  0  0  0  0  0  0  0  0  0  0  0
   -0.3482    0.9787   -0.3267 H   0  0  0  0  0  0  0  0  0  0  0  0
   -0.0223   -0.0487    1.0876 H   0  0  0  0  0  0  0  0  0  0  0  0
    1.0191   -0.1580   -0.3496 H   0  0  0  0  0  0  0  0  0  0  0  0
  1  2  1  0
  1  3  1  0
  1  4  1  0
  1  5  1  0
M  END
>  <reaction>  (3) 
rxn_770

>  <mol_properties>  (3) 
{"0": {"label": "acceptor", "atom_type": "Cs"}, "4": {"label": "a_hydrogen", "atom_type": "H0"}}

>  <type>  (3) 
r2h

$$$$

     RDKit          3D

 12 10  0  0  0  0  0  0  0  0999 V2000
   -0.1123    1.5712    1.1834 C   0  0  0  0  0  3  0  0  0  0  0  0
    0.9266    1.8687    1.0736 H   0  0  0  0  0  0  0  0  0  0  0  0
   -0.4346    1.4918    2.2174 H   0  0  0  0  0  0  0  0  0  0  0  0
   -0.7944    2.1403    0.5581 H   0  0  0  0  0  0  0  0  0  0  0  0
    0.2544   -0.7651   -1.2720 C   0  0  0  0  0  0  0  0  0  0  0  0
   -0.1964   -0.9068    0.1585 C   0  0  0  0  0  0  0  0  0  0  0  0
   -0.4043   -0.0964   -1.8296 H   0  0  0  0  0  0  0  0  0  0  0  0
    1.2667   -0.3601   -1.3291 H   0  0  0  0  0  0  0  0  0  0  0  0
    0.2575   -1.7289   -1.7901 H   0  0  0  0  0  0  0  0  0  0  0  0
   -0.1678    0.2925    0.6946 H   0  0  0  0  0  0  0  0  0  0  0  0
    0.4711   -1.4911    0.7900 H   0  0  0  0  0  0  0  0  0  0  0  0
   -1.2315   -1.2224    0.2800 H   0  0  0  0  0  0  0  0  0  0  0  0
  1  2  1  0
  1  3  1  0
  1  4  1  0
  5  6  1  0
  5  7  1  0
  5  8  1  0
  5  9  1  0
  6 10  1  0
  6 11  1  0
  6 12  1  0
M  RAD  1   1   2
M  END
>  <reaction>  (4) 
rxn_770

>  <mol_properties>  (4) 
{"0": {"label": "*3", "atom_type": "Cs"}, "1": {"label": "*4", "atom_type": "H0"}, "4": {"label": "*0", "atom_type": "Cs"}, "5": {"label": "*1", "atom_type": "Cs"}, "9": {"label": "*2", "atom_type": "H0"}}

>  <type>  (4) 
ts

$$$$

     RDKit          3D

 12 10  0  0  0  0  0  0  0  0999 V2000
   -0.0031    1.6071    1.1157 C   0  0  0  0  0  0  0  0  0  0  0  0
   -0.8922    1.7592    1.7257 H   0  0  0  0  0  0  0  0  0  0  0  0
    0.3871    2.5721    0.7959 H   0  0  0  0  0  0  0  0  0  0  0  0
    0.6360    1.1093    1.8433 H   0  0  0  0  0  0  0  0  0  0  0  0
   -0.0031   -0.8312   -1.3560 C   0  0  0  0  0  0  0  0  0  0  0  0
   -0.0031   -0.8312    0.1668 C   0  0  0  0  0  3  0  0  0  0  0  0
   -0.8840   -0.3226   -1.7519 H   0  0  0  0  0  0  0  0  0  0  0  0
    0.8777   -0.3226   -1.7519 H   0  0  0  0  0  0  0  0  0  0  0  0
   -0.0031   -1.8483   -1.7519 H   0  0  0  0  0  0  0  0  0  0  0  0
   -0.0031    0.3894    0.6418 H   0  0  0  0  0  0  0  0  0  0  0  0
    0.8777   -1.3397    0.5626 H   0  0  0  0  0  0  0  0  0  0  0  0
   -0.8840   -1.3397    0.5626 H   0  0  0  0  0  0  0  0  0  0  0  0
  1  2  1  0
  1  3  1  0
  1  4  1  0
  1 10  1  0
  5  6  1  0
  5  7  1  0
  5  8  1  0
  5  9  1  0
  6 11  1  0
  6 12  1  0
M  RAD  1   6   2
M  END
>  <reaction>  (5) 
rxn_770

>  <mol_properties>  (5) 
{"0": {"label": "*3", "atom_type": "Cs"}, "1": {"label": "*4", "atom_type": "H0"}, "4": {"label": "*0", "atom_type": "Cs"}, "5": {"label": "*1", "atom_type": "Cs"}, "9": {"label": "*2", "atom_type": "H0"}}

>  <type>  (5) 
unop_1

>  <geom_source>  (5) 
Heuristics

$$$$

     RDKit          3D

 12 10  0  0  0  0  0  0  0  0999 V2000
   -0.0022    1.6098    1.1271 C   0  0  0  0  0  0  0  0  0  0  0  0
   -0.5155    2.2705    0.4302 H   0  0  0  0  0  0  0  0  0  0  0  0
    0.8891    2.1059    1.5082 H   0  0  0  0  0  0  0  0  0  0  0  0
   -0.2814    0.9543    1.9506 H   0  0  0  0  0  0  0  0  0  0  0  0
   -0.0022   -0.8285   -1.3446 C   0  0  0  0  0  0  0  0  0  0  0  0
   -0.0022   -0.8285    0.1782 C   0  0  0  0  0  3  0  0  0  0  0  0
   -0.8831   -0.3200   -1.7405 H   0  0  0  0  0  0  0  0  0  0  0  0
    0.8786   -0.3200   -1.7405 H   0  0  0  0  0  0  0  0  0  0  0  0
   -0.0022   -1.8456   -1.7405 H   0  0  0  0  0  0  0  0  0  0  0  0
   -0.0022    0.3920    0.6532 H   0  0  0  0  0  0  0  0  0  0  0  0
    0.8786   -1.3371    0.5740 H   0  0  0  0  0  0  0  0  0  0  0  0
   -0.8831   -1.3371    0.5740 H   0  0  0  0  0  0  0  0  0  0  0  0
  1  2  1  0
  1  3  1  0
  1  4  1  0
  1 10  1  0
  5  6  1  0
  5  7  1  0
  5  8  1  0
  5  9  1  0
  6 11  1  0
  6 12  1  0
M  RAD  1   6   2
M  END
>  <reaction>  (6) 
rxn_770

>  <mol_properties>  (6) 
{"0": {"label": "*3", "atom_type": "Cs"}, "1": {"label": "*4", "atom_type": "H0"}, "4": {"label": "*0", "atom_type": "Cs"}, "5": {"label": "*1", "atom_type": "Cs"}, "9": {"label": "*2", "atom_type": "H0"}}

>  <type>  (6) 
unop_2

>  <geom_source>  (6) 
Heuristics

$$$$

     RDKit          3D

 12 10  0  0  0  0  0  0  0  0999 V2000
   -0.0064    1.6024    1.1170 C   0  0  0  0  0  0  0  0  0  0  0  0
   -0.5197    1.6182    2.0773 H   0  0  0  0  0  0  0  0  0  0  0  0
   -0.1624    2.5515    0.6064 H   0  0  0  0  0  0  0  0  0  0  0  0
    0.9472    1.4660    1.6249 H   0  0  0  0  0  0  0  0  0  0  0  0
   -0.0064   -0.8358   -1.3547 C   0  0  0  0  0  0  0  0  0  0  0  0
   -0.0064   -0.8358    0.1681 C   0  0  0  0  0  3  0  0  0  0  0  0
   -0.8872   -0.3273   -1.7505 H   0  0  0  0  0  0  0  0  0  0  0  0
    0.8745   -0.3273   -1.7505 H   0  0  0  0  0  0  0  0  0  0  0  0
   -0.0064   -1.8529   -1.7505 H   0  0  0  0  0  0  0  0  0  0  0  0
   -0.0064    0.3847    0.6431 H   0  0  0  0  0  0  0  0  0  0  0  0
    0.8745   -1.3444    0.5639 H   0  0  0  0  0  0  0  0  0  0  0  0
   -0.8872   -1.3444    0.5639 H   0  0  0  0  0  0  0  0  0  0  0  0
  1  2  1  0
  1  3  1  0
  1  4  1  0
  1 10  1  0
  5  6  1  0
  5  7  1  0
  5  8  1  0
  5  9  1  0
  6 11  1  0
  6 12  1  0
M  RAD  1   6   2
M  END
>  <reaction>  (7) 
rxn_770

>  <mol_properties>  (7) 
{"0": {"label": "*3", "atom_type": "Cs"}, "1": {"label": "*4", "atom_type": "H0"}, "4": {"label": "*0", "atom_type": "Cs"}, "5": {"label": "*1", "atom_type": "Cs"}, "9": {"label": "*2", "atom_type": "H0"}}

>  <type>  (7) 
unop_3

>  <geom_source>  (7) 
Heuristics

$$$$

     RDKit          3D

 12 10  0  0  0  0  0  0  0  0999 V2000
   -0.0029    1.6112    1.1219 C   0  0  0  0  0  0  0  0  0  0  0  0
    0.8862    2.1356    0.7752 H   0  0  0  0  0  0  0  0  0  0  0  0
    0.2229    1.0882    2.0499 H   0  0  0  0  0  0  0  0  0  0  0  0
   -0.9881    2.0466    1.2819 H   0  0  0  0  0  0  0  0  0  0  0  0
   -0.0029   -0.8271   -1.3499 C   0  0  0  0  0  0  0  0  0  0  0  0
   -0.0029   -0.8271    0.1729 C   0  0  0  0  0  3  0  0  0  0  0  0
   -0.8837   -0.3185   -1.7457 H   0  0  0  0  0  0  0  0  0  0  0  0
    0.8779   -0.3185   -1.7457 H   0  0  0  0  0  0  0  0  0  0  0  0
   -0.0029   -1.8442   -1.7457 H   0  0  0  0  0  0  0  0  0  0  0  0
   -0.0029    0.3935    0.6479 H   0  0  0  0  0  0  0  0  0  0  0  0
    0.8779   -1.3356    0.5688 H   0  0  0  0  0  0  0  0  0  0  0  0
   -0.8837   -1.3356    0.5688 H   0  0  0  0  0  0  0  0  0  0  0  0
  1  2  1  0
  1  3  1  0
  1  4  1  0
  1 10  1  0
  5  6  1  0
  5  7  1  0
  5  8  1  0
  5  9  1  0
  6 11  1  0
  6 12  1  0
M  RAD  1   6   2
M  END
>  <reaction>  (8) 
rxn_770

>  <mol_properties>  (8) 
{"0": {"label": "*3", "atom_type": "Cs"}, "1": {"label": "*4", "atom_type": "H0"}, "4": {"label": "*0", "atom_type": "Cs"}, "5": {"label": "*1", "atom_type": "Cs"}, "9": {"label": "*2", "atom_type": "H0"}}

>  <type>  (8) 
unop_4

>  <geom_source>  (8) 
Heuristics

$$$$

     RDKit          3D

 12 10  0  0  0  0  0  0  0  0999 V2000
   -0.0010    1.5976    1.1199 C   0  0  0  0  0  0  0  0  0  0  0  0
   -0.0010    1.5635    2.2083 H   0  0  0  0  0  0  0  0  0  0  0  0
   -0.8901    2.1220    0.7732 H   0  0  0  0  0  0  0  0  0  0  0  0
    0.9313    2.1535    1.2067 H   0  0  0  0  0  0  0  0  0  0  0  0
   -0.0010   -0.8407   -1.3518 C   0  0  0  0  0  0  0  0  0  0  0  0
   -0.0010   -0.8407    0.1710 C   0  0  0  0  0  3  0  0  0  0  0  0
   -0.8818   -0.3321   -1.7476 H   0  0  0  0  0  0  0  0  0  0  0  0
    0.8799   -0.3322   -1.7476 H   0  0  0  0  0  0  0  0  0  0  0  0
   -0.0010   -1.8578   -1.7476 H   0  0  0  0  0  0  0  0  0  0  0  0
   -0.0010    0.3798    0.6460 H   0  0  0  0  0  0  0  0  0  0  0  0
    0.8799   -1.3493    0.5668 H   0  0  0  0  0  0  0  0  0  0  0  0
   -0.8818   -1.3493    0.5668 H   0  0  0  0  0  0  0  0  0  0  0  0
  1  2  1  0
  1  3  1  0
  1  4  1  0
  1 10  1  0
  5  6  1  0
  5  7  1  0
  5  8  1  0
  5  9  1  0
  6 11  1  0
  6 12  1  0
M  RAD  1   6   2
M  END
>  <reaction>  (9) 
rxn_770

>  <mol_properties>  (9) 
{"0": {"label": "*3", "atom_type": "Cs"}, "1": {"label": "*4", "atom_type": "H0"}, "4": {"label": "*0", "atom_type": "Cs"}, "5": {"label": "*1", "atom_type": "Cs"}, "9": {"label": "*2", "atom_type": "H0"}}

>  <type>  (9) 
unop_5

>  <geom_source>  (9) 
Heuristics

$$$$

     RDKit          3D

 12 10  0  0  0  0  0  0  0  0999 V2000
   -0.0007    1.6089    1.1183 C   0  0  0  0  0  0  0  0  0  0  0  0
    1.0259    1.9471    1.2500 H   0  0  0  0  0  0  0  0  0  0  0  0
   -0.2890    0.9863    1.9639 H   0  0  0  0  0  0  0  0  0  0  0  0
   -0.7070    2.4341    1.0413 H   0  0  0  0  0  0  0  0  0  0  0  0
   -0.0007   -0.8294   -1.3534 C   0  0  0  0  0  0  0  0  0  0  0  0
   -0.0007   -0.8294    0.1694 C   0  0  0  0  0  3  0  0  0  0  0  0
   -0.8816   -0.3208   -1.7493 H   0  0  0  0  0  0  0  0  0  0  0  0
    0.8801   -0.3208   -1.7493 H   0  0  0  0  0  0  0  0  0  0  0  0
   -0.0007   -1.8465   -1.7493 H   0  0  0  0  0  0  0  0  0  0  0  0
   -0.0007    0.3911    0.6444 H   0  0  0  0  0  0  0  0  0  0  0  0
    0.8801   -1.3380    0.5652 H   0  0  0  0  0  0  0  0  0  0  0  0
   -0.8816   -1.3380    0.5652 H   0  0  0  0  0  0  0  0  0  0  0  0
  1  2  1  0
  1  3  1  0
  1  4  1  0
  1 10  1  0
  5  6  1  0
  5  7  1  0
  5  8  1  0
  5  9  1  0
  6 11  1  0
  6 12  1  0
M  RAD  1   6   2
M  END
>  <reaction>  (10) 
rxn_770

>  <mol_properties>  (10) 
{"0": {"label": "*3", "atom_type": "Cs"}, "1": {"label": "*4", "atom_type": "H0"}, "4": {"label": "*0", "atom_type": "Cs"}, "5": {"label": "*1", "atom_type": "Cs"}, "9": {"label": "*2", "atom_type": "H0"}}

>  <type>  (10) 
unop_6

>  <geom_source>  (10) 
Heuristics

$$$$

     RDKit          3D

 12 10  0  0  0  0  0  0  0  0999 V2000
    0.0029    1.6060    1.1164 C   0  0  0  0  0  0  0  0  0  0  0  0
    0.8920    1.7581    1.7264 H   0  0  0  0  0  0  0  0  0  0  0  0
   -0.7534    1.0843    1.7008 H   0  0  0  0  0  0  0  0  0  0  0  0
   -0.2583    2.6430    0.9105 H   0  0  0  0  0  0  0  0  0  0  0  0
    0.0029   -0.8322   -1.3554 C   0  0  0  0  0  0  0  0  0  0  0  0
    0.0029   -0.8322    0.1674 C   0  0  0  0  0  3  0  0  0  0  0  0
   -0.8780   -0.3237   -1.7512 H   0  0  0  0  0  0  0  0  0  0  0  0
    0.8837   -0.3237   -1.7512 H   0  0  0  0  0  0  0  0  0  0  0  0
    0.0029   -1.8493   -1.7512 H   0  0  0  0  0  0  0  0  0  0  0  0
    0.0029    0.3883    0.6424 H   0  0  0  0  0  0  0  0  0  0  0  0
    0.8837   -1.3408    0.5633 H   0  0  0  0  0  0  0  0  0  0  0  0
   -0.8780   -1.3408    0.5633 H   0  0  0  0  0  0  0  0  0  0  0  0
  1  2  1  0
  1  3  1  0
  1  4  1  0
  1 10  1  0
  5  6  1  0
  5  7  1  0
  5  8  1  0
  5  9  1  0
  6 11  1  0
  6 12  1  0
M  RAD  1   6   2
M  END
>  <reaction>  (11) 
rxn_770

>  <mol_properties>  (11) 
{"0": {"label": "*3", "atom_type": "Cs"}, "1": {"label": "*4", "atom_type": "H0"}, "4": {"label": "*0", "atom_type": "Cs"}, "5": {"label": "*1", "atom_type": "Cs"}, "9": {"label": "*2", "atom_type": "H0"}}

>  <type>  (11) 
unop_7

>  <geom_source>  (11) 
Heuristics

$$$$

     RDKit          3D

 12 10  0  0  0  0  0  0  0  0999 V2000
    0.0006    1.6084    1.1186 C   0  0  0  0  0  0  0  0  0  0  0  0
   -1.0261    1.9467    1.2503 H   0  0  0  0  0  0  0  0  0  0  0  0
    0.6624    2.4712    1.0608 H   0  0  0  0  0  0  0  0  0  0  0  0
    0.3385    0.9688    1.9325 H   0  0  0  0  0  0  0  0  0  0  0  0
    0.0006   -0.8299   -1.3531 C   0  0  0  0  0  0  0  0  0  0  0  0
    0.0006   -0.8299    0.1697 C   0  0  0  0  0  3  0  0  0  0  0  0
   -0.8802   -0.3213   -1.7490 H   0  0  0  0  0  0  0  0  0  0  0  0
    0.8814   -0.3213   -1.7490 H   0  0  0  0  0  0  0  0  0  0  0  0
    0.0006   -1.8470   -1.7490 H   0  0  0  0  0  0  0  0  0  0  0  0
    0.0006    0.3907    0.6447 H   0  0  0  0  0  0  0  0  0  0  0  0
    0.8814   -1.3384    0.5655 H   0  0  0  0  0  0  0  0  0  0  0  0
   -0.8802   -1.3384    0.5655 H   0  0  0  0  0  0  0  0  0  0  0  0
  1  2  1  0
  1  3  1  0
  1  4  1  0
  1 10  1  0
  5  6  1  0
  5  7  1  0
  5  8  1  0
  5  9  1  0
  6 11  1  0
  6 12  1  0
M  RAD  1   6   2
M  END
>  <reaction>  (12) 
rxn_770

>  <mol_properties>  (12) 
{"0": {"label": "*3", "atom_type": "Cs"}, "1": {"label": "*4", "atom_type": "H0"}, "4": {"label": "*0", "atom_type": "Cs"}, "5": {"label": "*1", "atom_type": "Cs"}, "9": {"label": "*2", "atom_type": "H0"}}

>  <type>  (12) 
unop_8

>  <geom_source>  (12) 
Heuristics

$$$$

     RDKit          3D

 12 10  0  0  0  0  0  0  0  0999 V2000
   -0.0043    1.6128    1.1252 C   0  0  0  0  0  0  0  0  0  0  0  0
    0.5090    2.2736    0.4283 H   0  0  0  0  0  0  0  0  0  0  0  0
    0.6599    1.3728    1.9541 H   0  0  0  0  0  0  0  0  0  0  0  0
   -0.9899    1.5559    1.5847 H   0  0  0  0  0  0  0  0  0  0  0  0
   -0.0043   -0.8254   -1.3465 C   0  0  0  0  0  0  0  0  0  0  0  0
   -0.0043   -0.8254    0.1763 C   0  0  0  0  0  3  0  0  0  0  0  0
   -0.8851   -0.3169   -1.7423 H   0  0  0  0  0  0  0  0  0  0  0  0
    0.8766   -0.3169   -1.7423 H   0  0  0  0  0  0  0  0  0  0  0  0
   -0.0043   -1.8426   -1.7423 H   0  0  0  0  0  0  0  0  0  0  0  0
   -0.0043    0.3951    0.6513 H   0  0  0  0  0  0  0  0  0  0  0  0
    0.8766   -1.3340    0.5721 H   0  0  0  0  0  0  0  0  0  0  0  0
   -0.8851   -1.3340    0.5721 H   0  0  0  0  0  0  0  0  0  0  0  0
  1  2  1  0
  1  3  1  0
  1  4  1  0
  1 10  1  0
  5  6  1  0
  5  7  1  0
  5  8  1  0
  5  9  1  0
  6 11  1  0
  6 12  1  0
M  RAD  1   6   2
M  END
>  <reaction>  (13) 
rxn_770

>  <mol_properties>  (13) 
{"0": {"label": "*3", "atom_type": "Cs"}, "1": {"label": "*4", "atom_type": "H0"}, "4": {"label": "*0", "atom_type": "Cs"}, "5": {"label": "*1", "atom_type": "Cs"}, "9": {"label": "*2", "atom_type": "H0"}}

>  <type>  (13) 
unop_9

>  <geom_source>  (13) 
Heuristics

$$$$

     RDKit          3D

 12 10  0  0  0  0  0  0  0  0999 V2000
    0.0007    1.6086    1.1235 C   0  0  0  0  0  0  0  0  0  0  0  0
   -0.8884    2.1330    0.7768 H   0  0  0  0  0  0  0  0  0  0  0  0
    0.8010    2.3263    1.2969 H   0  0  0  0  0  0  0  0  0  0  0  0
    0.0575    0.9214    1.9663 H   0  0  0  0  0  0  0  0  0  0  0  0
    0.0007   -0.8297   -1.3482 C   0  0  0  0  0  0  0  0  0  0  0  0
    0.0007   -0.8297    0.1745 C   0  0  0  0  0  3  0  0  0  0  0  0
   -0.8801   -0.3212   -1.7441 H   0  0  0  0  0  0  0  0  0  0  0  0
    0.8816   -0.3212   -1.7441 H   0  0  0  0  0  0  0  0  0  0  0  0
    0.0007   -1.8468   -1.7441 H   0  0  0  0  0  0  0  0  0  0  0  0
    0.0007    0.3908    0.6496 H   0  0  0  0  0  0  0  0  0  0  0  0
    0.8816   -1.3383    0.5704 H   0  0  0  0  0  0  0  0  0  0  0  0
   -0.8801   -1.3383    0.5704 H   0  0  0  0  0  0  0  0  0  0  0  0
  1  2  1  0
  1  3  1  0
  1  4  1  0
  1 10  1  0
  5  6  1  0
  5  7  1  0
  5  8  1  0
  5  9  1  0
  6 11  1  0
  6 12  1  0
M  RAD  1   6   2
M  END
>  <reaction>  (14) 
rxn_770

>  <mol_properties>  (14) 
{"0": {"label": "*3", "atom_type": "Cs"}, "1": {"label": "*4", "atom_type": "H0"}, "4": {"label": "*0", "atom_type": "Cs"}, "5": {"label": "*1", "atom_type": "Cs"}, "9": {"label": "*2", "atom_type": "H0"}}

>  <type>  (14) 
unop_10

>  <geom_source>  (14) 
Heuristics

$$$$

     RDKit          3D

 12 10  0  0  0  0  0  0  0  0999 V2000
    0.0050    1.6013    1.1178 C   0  0  0  0  0  0  0  0  0  0  0  0
    0.5184    1.6171    2.0780 H   0  0  0  0  0  0  0  0  0  0  0  0
   -1.0608    1.4465    1.2785 H   0  0  0  0  0  0  0  0  0  0  0  0
    0.3318    2.6214    0.9221 H   0  0  0  0  0  0  0  0  0  0  0  0
    0.0050   -0.8370   -1.3540 C   0  0  0  0  0  0  0  0  0  0  0  0
    0.0050   -0.8370    0.1688 C   0  0  0  0  0  3  0  0  0  0  0  0
   -0.8758   -0.3285   -1.7498 H   0  0  0  0  0  0  0  0  0  0  0  0
    0.8859   -0.3285   -1.7498 H   0  0  0  0  0  0  0  0  0  0  0  0
    0.0050   -1.8541   -1.7498 H   0  0  0  0  0  0  0  0  0  0  0  0
    0.0050    0.3835    0.6438 H   0  0  0  0  0  0  0  0  0  0  0  0
    0.8859   -1.3456    0.5647 H   0  0  0  0  0  0  0  0  0  0  0  0
   -0.8758   -1.3456    0.5647 H   0  0  0  0  0  0  0  0  0  0  0  0
  1  2  1  0
  1  3  1  0
  1  4  1  0
  1 10  1  0
  5  6  1  0
  5  7  1  0
  5  8  1  0
  5  9  1  0
  6 11  1  0
  6 12  1  0
M  RAD  1   6   2
M  END
>  <reaction>  (15) 
rxn_770

>  <mol_properties>  (15) 
{"0": {"label": "*3", "atom_type": "Cs"}, "1": {"label": "*4", "atom_type": "H0"}, "4": {"label": "*0", "atom_type": "Cs"}, "5": {"label": "*1", "atom_type": "Cs"}, "9": {"label": "*2", "atom_type": "H0"}}

>  <type>  (15) 
unop_11

>  <geom_source>  (15) 
Heuristics

$$$$

     RDKit          3D

 12 10  0  0  0  0  0  0  0  0999 V2000
   -0.0046    1.6121    1.1275 C   0  0  0  0  0  0  0  0  0  0  0  0
   -0.0046    2.3227    0.3023 H   0  0  0  0  0  0  0  0  0  0  0  0
    0.8846    1.7641    1.7375 H   0  0  0  0  0  0  0  0  0  0  0  0
   -0.6899    1.1476    1.8348 H   0  0  0  0  0  0  0  0  0  0  0  0
   -0.0046   -0.8262   -1.3443 C   0  0  0  0  0  0  0  0  0  0  0  0
   -0.0046   -0.8262    0.1785 C   0  0  0  0  0  3  0  0  0  0  0  0
   -0.8854   -0.3177   -1.7401 H   0  0  0  0  0  0  0  0  0  0  0  0
    0.8763   -0.3177   -1.7401 H   0  0  0  0  0  0  0  0  0  0  0  0
   -0.0046   -1.8433   -1.7401 H   0  0  0  0  0  0  0  0  0  0  0  0
   -0.0046    0.3943    0.6535 H   0  0  0  0  0  0  0  0  0  0  0  0
    0.8763   -1.3348    0.5744 H   0  0  0  0  0  0  0  0  0  0  0  0
   -0.8854   -1.3348    0.5744 H   0  0  0  0  0  0  0  0  0  0  0  0
  1  2  1  0
  1  3  1  0
  1  4  1  0
  1 10  1  0
  5  6  1  0
  5  7  1  0
  5  8  1  0
  5  9  1  0
  6 11  1  0
  6 12  1  0
M  RAD  1   6   2
M  END
>  <reaction>  (16) 
rxn_770

>  <mol_properties>  (16) 
{"0": {"label": "*3", "atom_type": "Cs"}, "1": {"label": "*4", "atom_type": "H0"}, "4": {"label": "*0", "atom_type": "Cs"}, "5": {"label": "*1", "atom_type": "Cs"}, "9": {"label": "*2", "atom_type": "H0"}}

>  <type>  (16) 
unop_12

>  <geom_source>  (16) 
Heuristics

$$$$

     RDKit          3D

 12 10  0  0  0  0  0  0  0  0999 V2000
   -1.4696   -0.1014   -0.6685 C   0  0  0  0  0  0  0  0  0  0  0  0
    1.8397   -0.0289    0.1136 C   0  0  0  0  0  0  0  0  0  0  0  0
   -0.6995    0.1022    0.6230 C   0  0  0  0  0  3  0  0  0  0  0  0
   -1.3874   -1.1612   -0.9876 H   0  0  0  0  0  0  0  0  0  0  0  0
   -1.0458    0.5500   -1.4610 H   0  0  0  0  0  0  0  0  0  0  0  0
   -2.5393    0.1545   -0.5158 H   0  0  0  0  0  0  0  0  0  0  0  0
    2.5692   -0.5405    0.7745 H   0  0  0  0  0  0  0  0  0  0  0  0
    1.8282   -0.5251   -0.8786 H   0  0  0  0  0  0  0  0  0  0  0  0
    2.1329    1.0341   -0.0079 H   0  0  0  0  0  0  0  0  0  0  0  0
    0.6534   -0.0937    0.6448 H   0  0  0  0  0  0  0  0  0  0  0  0
   -0.7696    1.1628    0.9443 H   0  0  0  0  0  0  0  0  0  0  0  0
   -1.1122   -0.5529    1.4190 H   0  0  0  0  0  0  0  0  0  0  0  0
  1  3  1  0
  1  4  1  0
  1  5  1  0
  1  6  1  0
  2  7  1  0
  2  8  1  0
  2  9  1  0
  2 10  1  0
  3 11  1  0
  3 12  1  0
M  RAD  1   3   2
M  END
>  <reaction>  (17) 
rxn_770

>  <mol_properties>  (17) 
{"0": {"label": "*3", "atom_type": "Cs"}, "1": {"label": "*4", "atom_type": "H0"}, "4": {"label": "*0", "atom_type": "Cs"}, "5": {"label": "*1", "atom_type": "Cs"}, "9": {"label": "*2", "atom_type": "H0"}}

>  <type>  (17) 
unop_13

>  <geom_source>  (17) 
AutoTST

$$$$
