
     RDKit          3D

  7  7  0  0  0  0  0  0  0  0999 V2000
    0.0194   -0.9489   -0.0769 O   0  0  0  0  0  0  0  0  0  0  0  0
    1.0462   -0.0829    0.0216 C   0  0  0  0  0  0  0  0  0  0  0  0
    0.6724    1.1224    0.2360 N   0  0  0  0  0  0  0  0  0  0  0  0
   -0.7174    1.0852    0.2894 N   0  0  0  0  0  0  0  0  0  0  0  0
   -1.0417   -0.1388    0.1018 C   0  0  0  0  0  0  0  0  0  0  0  0
    2.0476   -0.4640   -0.0840 H   0  0  0  0  0  0  0  0  0  0  0  0
   -2.0264   -0.5731    0.0725 H   0  0  0  0  0  0  0  0  0  0  0  0
  1  2  1  0
  1  5  1  0
  2  3  2  0
  2  6  1  0
  3  4  1  0
  4  5  2  0
  5  7  1  0
M  END
>  <reaction>  (1) 
rxn_3174

>  <mol_properties>  (1) 
{"1": {"label": "donator", "atom_type": "Cd"}, "5": {"label": "d_hydrogen", "atom_type": "H0"}}

>  <type>  (1) 
r1h

$$$$

     RDKit          3D

  6  6  0  0  0  0  0  0  0  0999 V2000
    1.9594    0.0134   -0.3734 N   0  0  0  0  0  2  0  0  0  0  0  0
    0.7437    0.0051   -0.0788 C   0  0  0  0  0  0  0  0  0  0  0  0
   -0.0745    1.0868    0.0233 O   0  0  0  0  0  0  0  0  0  0  0  0
   -1.3223    0.5972    0.3682 N   0  0  0  0  0  0  0  0  0  0  0  0
   -1.2899   -0.6150    0.4676 N   0  0  0  0  0  0  0  0  0  0  0  0
   -0.0165   -1.0874    0.2015 O   0  0  0  0  0  0  0  0  0  0  0  0
  1  2  2  0
  2  3  1  0
  2  6  1  0
  3  4  1  0
  4  5  2  0
  5  6  1  0
M  RAD  1   1   2
M  END
>  <reaction>  (2) 
rxn_3174

>  <mol_properties>  (2) 
{"0": {"label": "acceptor", "atom_type": "N3d"}}

>  <type>  (2) 
r2

$$$$

     RDKit          3D

  7  7  0  0  0  0  0  0  0  0999 V2000
    1.6064   -0.4313    0.1905 N   0  0  0  0  0  0  0  0  0  0  0  0
    0.3982   -0.1725    0.0701 C   0  0  0  0  0  0  0  0  0  0  0  0
   -0.6051   -1.0481    0.3497 O   0  0  0  0  0  0  0  0  0  0  0  0
   -1.7906   -0.4044    0.0958 N   0  0  0  0  0  0  0  0  0  0  0  0
   -1.5819    0.7348   -0.2956 N   0  0  0  0  0  0  0  0  0  0  0  0
   -0.2229    0.9708   -0.3436 O   0  0  0  0  0  0  0  0  0  0  0  0
    2.1958    0.3506   -0.0669 H   0  0  0  0  0  0  0  0  0  0  0  0
  1  2  2  3
  1  7  1  0
  2  3  1  0
  2  6  1  0
  3  4  1  0
  4  5  2  0
  5  6  1  0
M  END
>  <reaction>  (3) 
rxn_3174

>  <mol_properties>  (3) 
{"0": {"label": "acceptor", "atom_type": "N3d"}, "6": {"label": "a_hydrogen", "atom_type": "H0"}}

>  <type>  (3) 
r2h

$$$$

     RDKit          3D

 13 13  0  0  0  0  0  0  0  0999 V2000
    0.8430   -0.5675    1.3494 N   0  0  0  0  0  0  0  0  0  0  0  0
    0.2631   -1.4486    0.6761 C   0  0  0  0  0  0  0  0  0  0  0  0
    0.3526   -2.7758    0.9374 O   0  0  0  0  0  0  0  0  0  0  0  0
   -0.4119   -3.4225   -0.0104 N   0  0  0  0  0  0  0  0  0  0  0  0
   -0.9170   -2.6134   -0.7702 N   0  0  0  0  0  0  0  0  0  0  0  0
   -0.5423   -1.3313   -0.4098 O   0  0  0  0  0  0  0  0  0  0  0  0
    0.8958    2.0936   -0.7901 O   0  0  0  0  0  0  0  0  0  0  0  0
    0.1279    1.6259    0.2064 C   0  0  0  0  0  3  0  0  0  0  0  0
   -0.9572    2.2576    0.3941 N   0  0  0  0  0  0  0  0  0  0  0  0
   -0.9398    3.2878   -0.5627 N   0  0  0  0  0  0  0  0  0  0  0  0
    0.1513    3.1407   -1.2161 C   0  0  0  0  0  0  0  0  0  0  0  0
    0.6083    0.4711    0.9606 H   0  0  0  0  0  0  0  0  0  0  0  0
    0.5263    3.7354   -2.0317 H   0  0  0  0  0  0  0  0  0  0  0  0
  1  2  2  3
  1 12  1  0
  2  3  1  0
  2  6  1  0
  3  4  1  0
  4  5  2  0
  5  6  1  0
  7 11  1  0
  7  8  1  0
  8  9  2  0
  9 10  1  0
 10 11  2  0
 11 13  1  0
M  RAD  1   8   2
M  END
>  <reaction>  (4) 
rxn_3174

>  <mol_properties>  (4) 
{"0": {"label": "*1", "atom_type": "N3d"}, "1": {"label": "*0", "atom_type": "Cd"}, "6": {"label": "*4", "atom_type": "O2s"}, "7": {"label": "*3", "atom_type": "Cd"}, "11": {"label": "*2", "atom_type": "H0"}}

>  <type>  (4) 
ts

$$$$

     RDKit          3D

 13 13  0  0  0  0  0  0  0  0999 V2000
   -0.8816   -1.2437    0.1361 N   0  0  0  0  0  0  0  0  0  0  0  0
    0.1125   -1.3877    0.8656 C   0  0  0  0  0  0  0  0  0  0  0  0
    0.0723   -1.9075    2.1225 O   0  0  0  0  0  0  0  0  0  0  0  0
    1.3572   -1.9058    2.6057 N   0  0  0  0  0  0  0  0  0  0  0  0
    2.1252   -1.4465    1.7729 N   0  0  0  0  0  0  0  0  0  0  0  0
    1.4255   -1.0911    0.6376 O   0  0  0  0  0  0  0  0  0  0  0  0
   -0.8816    0.9631   -2.3999 O   0  0  0  0  0  0  0  0  0  0  0  0
   -0.8816    0.9631   -1.0531 C   0  0  0  0  0  3  0  0  0  0  0  0
   -0.8816    2.1391   -0.5475 N   0  0  0  0  0  0  0  0  0  0  0  0
   -0.8816    3.0167   -1.6271 N   0  0  0  0  0  0  0  0  0  0  0  0
   -0.8816    2.2816   -2.6750 C   0  0  0  0  0  0  0  0  0  0  0  0
   -0.8816   -0.1742   -0.4402 H   0  0  0  0  0  0  0  0  0  0  0  0
   -0.8816    2.5880   -3.7071 H   0  0  0  0  0  0  0  0  0  0  0  0
  1  2  2  3
  1 12  1  0
  2  3  1  0
  2  6  1  0
  3  4  1  0
  4  5  2  0
  5  6  1  0
  7 11  1  0
  7  8  1  0
  8  9  2  0
  9 10  1  0
 10 11  2  0
 11 13  1  0
M  RAD  1   8   2
M  END
>  <reaction>  (5) 
rxn_3174

>  <mol_properties>  (5) 
{"0": {"label": "*1", "atom_type": "N3d"}, "1": {"label": "*0", "atom_type": "Cd"}, "6": {"label": "*4", "atom_type": "O2s"}, "7": {"label": "*3", "atom_type": "Cd"}, "11": {"label": "*2", "atom_type": "H0"}}

>  <type>  (5) 
unop_1

>  <geom_source>  (5) 
Heuristics

$$$$

     RDKit          3D

 13 13  0  0  0  0  0  0  0  0999 V2000
   -0.5215   -0.5670    1.3801 N   0  0  0  0  0  0  0  0  0  0  0  0
    0.0524   -1.4549    0.7292 C   0  0  0  0  0  0  0  0  0  0  0  0
    0.5212   -2.6153    1.2631 O   0  0  0  0  0  0  0  0  0  0  0  0
    1.0872   -3.3352    0.2405 N   0  0  0  0  0  0  0  0  0  0  0  0
    0.9965   -2.7224   -0.8133 N   0  0  0  0  0  0  0  0  0  0  0  0
    0.3547   -1.5192   -0.6006 O   0  0  0  0  0  0  0  0  0  0  0  0
   -0.5215    1.6399   -1.1559 O   0  0  0  0  0  0  0  0  0  0  0  0
   -0.5215    1.6399    0.1909 C   0  0  0  0  0  3  0  0  0  0  0  0
   -0.5215    2.8159    0.6965 N   0  0  0  0  0  0  0  0  0  0  0  0
   -0.5215    3.6935   -0.3831 N   0  0  0  0  0  0  0  0  0  0  0  0
   -0.5215    2.9583   -1.4310 C   0  0  0  0  0  0  0  0  0  0  0  0
   -0.5215    0.5025    0.8038 H   0  0  0  0  0  0  0  0  0  0  0  0
   -0.5215    3.2647   -2.4631 H   0  0  0  0  0  0  0  0  0  0  0  0
  1  2  2  3
  1 12  1  0
  2  3  1  0
  2  6  1  0
  3  4  1  0
  4  5  2  0
  5  6  1  0
  7 11  1  0
  7  8  1  0
  8  9  2  0
  9 10  1  0
 10 11  2  0
 11 13  1  0
M  RAD  1   8   2
M  END
>  <reaction>  (6) 
rxn_3174

>  <mol_properties>  (6) 
{"0": {"label": "*1", "atom_type": "N3d"}, "1": {"label": "*0", "atom_type": "Cd"}, "6": {"label": "*4", "atom_type": "O2s"}, "7": {"label": "*3", "atom_type": "Cd"}, "11": {"label": "*2", "atom_type": "H0"}}

>  <type>  (6) 
unop_2

>  <geom_source>  (6) 
Heuristics

$$$$

     RDKit          3D

 13 13  0  0  0  0  0  0  0  0999 V2000
   -0.5008   -1.4149   -0.1879 N   0  0  0  0  0  0  0  0  0  0  0  0
    0.0732   -1.3596    0.9115 C   0  0  0  0  0  0  0  0  0  0  0  0
   -0.2725   -2.1063    1.9953 O   0  0  0  0  0  0  0  0  0  0  0  0
    0.5846   -1.7688    3.0131 N   0  0  0  0  0  0  0  0  0  0  0  0
    1.3780   -0.9179    2.6377 N   0  0  0  0  0  0  0  0  0  0  0  0
    1.1299   -0.5970    1.3185 O   0  0  0  0  0  0  0  0  0  0  0  0
   -0.5008    0.7920   -2.7239 O   0  0  0  0  0  0  0  0  0  0  0  0
   -0.5008    0.7920   -1.3771 C   0  0  0  0  0  3  0  0  0  0  0  0
   -0.5008    1.9680   -0.8715 N   0  0  0  0  0  0  0  0  0  0  0  0
   -0.5008    2.8456   -1.9511 N   0  0  0  0  0  0  0  0  0  0  0  0
   -0.5008    2.1104   -2.9990 C   0  0  0  0  0  0  0  0  0  0  0  0
   -0.5008   -0.3454   -0.7642 H   0  0  0  0  0  0  0  0  0  0  0  0
   -0.5008    2.4168   -4.0311 H   0  0  0  0  0  0  0  0  0  0  0  0
  1  2  2  3
  1 12  1  0
  2  3  1  0
  2  6  1  0
  3  4  1  0
  4  5  2  0
  5  6  1  0
  7 11  1  0
  7  8  1  0
  8  9  2  0
  9 10  1  0
 10 11  2  0
 11 13  1  0
M  RAD  1   8   2
M  END
>  <reaction>  (7) 
rxn_3174

>  <mol_properties>  (7) 
{"0": {"label": "*1", "atom_type": "N3d"}, "1": {"label": "*0", "atom_type": "Cd"}, "6": {"label": "*4", "atom_type": "O2s"}, "7": {"label": "*3", "atom_type": "Cd"}, "11": {"label": "*2", "atom_type": "H0"}}

>  <type>  (7) 
unop_3

>  <geom_source>  (7) 
Heuristics

$$$$

     RDKit          3D

 13 13  0  0  0  0  0  0  0  0999 V2000
    0.8983   -0.7519    1.0432 N   0  0  0  0  0  0  0  0  0  0  0  0
   -0.0959   -1.4404    0.7622 C   0  0  0  0  0  0  0  0  0  0  0  0
   -0.7096   -2.2906    1.6294 O   0  0  0  0  0  0  0  0  0  0  0  0
   -1.7607   -2.8667    0.9604 N   0  0  0  0  0  0  0  0  0  0  0  0
   -1.8189   -2.4454   -0.1857 N   0  0  0  0  0  0  0  0  0  0  0  0
   -0.8031   -1.5363   -0.4016 O   0  0  0  0  0  0  0  0  0  0  0  0
    0.8983    1.4550   -1.4928 O   0  0  0  0  0  0  0  0  0  0  0  0
    0.8983    1.4550   -0.1459 C   0  0  0  0  0  3  0  0  0  0  0  0
    0.8983    2.6310    0.3597 N   0  0  0  0  0  0  0  0  0  0  0  0
    0.8983    3.5086   -0.7200 N   0  0  0  0  0  0  0  0  0  0  0  0
    0.8983    2.7735   -1.7679 C   0  0  0  0  0  0  0  0  0  0  0  0
    0.8983    0.3177    0.4669 H   0  0  0  0  0  0  0  0  0  0  0  0
    0.8983    3.0798   -2.8000 H   0  0  0  0  0  0  0  0  0  0  0  0
  1  2  2  3
  1 12  1  0
  2  3  1  0
  2  6  1  0
  3  4  1  0
  4  5  2  0
  5  6  1  0
  7 11  1  0
  7  8  1  0
  8  9  2  0
  9 10  1  0
 10 11  2  0
 11 13  1  0
M  RAD  1   8   2
M  END
>  <reaction>  (8) 
rxn_3174

>  <mol_properties>  (8) 
{"0": {"label": "*1", "atom_type": "N3d"}, "1": {"label": "*0", "atom_type": "Cd"}, "6": {"label": "*4", "atom_type": "O2s"}, "7": {"label": "*3", "atom_type": "Cd"}, "11": {"label": "*2", "atom_type": "H0"}}

>  <type>  (8) 
unop_4

>  <geom_source>  (8) 
Heuristics

$$$$

     RDKit          3D

 13 13  0  0  0  0  0  0  0  0999 V2000
    0.0000   -1.4722   -0.3029 N   0  0  0  0  0  0  0  0  0  0  0  0
    0.0000   -1.3440    0.9319 C   0  0  0  0  0  0  0  0  0  0  0  0
    0.0000   -2.3829    1.8107 O   0  0  0  0  0  0  0  0  0  0  0  0
    0.0000   -1.8477    3.0748 N   0  0  0  0  0  0  0  0  0  0  0  0
    0.0000   -0.6264    3.0207 N   0  0  0  0  0  0  0  0  0  0  0  0
   -0.0000   -0.2170    1.7026 O   0  0  0  0  0  0  0  0  0  0  0  0
   -0.0000    0.7346   -2.8389 O   0  0  0  0  0  0  0  0  0  0  0  0
   -0.0000    0.7346   -1.4921 C   0  0  0  0  0  3  0  0  0  0  0  0
   -0.0000    1.9106   -0.9865 N   0  0  0  0  0  0  0  0  0  0  0  0
   -0.0000    2.7882   -2.0661 N   0  0  0  0  0  0  0  0  0  0  0  0
   -0.0000    2.0531   -3.1140 C   0  0  0  0  0  0  0  0  0  0  0  0
   -0.0000   -0.4027   -0.8792 H   0  0  0  0  0  0  0  0  0  0  0  0
   -0.0000    2.3595   -4.1461 H   0  0  0  0  0  0  0  0  0  0  0  0
  1  2  2  3
  1 12  1  0
  2  3  1  0
  2  6  1  0
  3  4  1  0
  4  5  2  0
  5  6  1  0
  7 11  1  0
  7  8  1  0
  8  9  2  0
  9 10  1  0
 10 11  2  0
 11 13  1  0
M  RAD  1   8   2
M  END
>  <reaction>  (9) 
rxn_3174

>  <mol_properties>  (9) 
{"0": {"label": "*1", "atom_type": "N3d"}, "1": {"label": "*0", "atom_type": "Cd"}, "6": {"label": "*4", "atom_type": "O2s"}, "7": {"label": "*3", "atom_type": "Cd"}, "11": {"label": "*2", "atom_type": "H0"}}

>  <type>  (9) 
unop_5

>  <geom_source>  (9) 
Heuristics

$$$$

     RDKit          3D

 13 13  0  0  0  0  0  0  0  0999 V2000
    1.0291   -1.0003    0.5870 N   0  0  0  0  0  0  0  0  0  0  0  0
   -0.1188   -1.4166    0.8113 C   0  0  0  0  0  0  0  0  0  0  0  0
   -0.5080   -2.0026    1.9761 O   0  0  0  0  0  0  0  0  0  0  0  0
   -1.8359   -2.3251    1.8465 N   0  0  0  0  0  0  0  0  0  0  0  0
   -2.2500   -1.9924    0.7455 N   0  0  0  0  0  0  0  0  0  0  0  0
   -1.2314   -1.4080    0.0202 O   0  0  0  0  0  0  0  0  0  0  0  0
    1.0291    1.2066   -1.9490 O   0  0  0  0  0  0  0  0  0  0  0  0
    1.0291    1.2066   -0.6021 C   0  0  0  0  0  3  0  0  0  0  0  0
    1.0291    2.3826   -0.0965 N   0  0  0  0  0  0  0  0  0  0  0  0
    1.0291    3.2602   -1.1761 N   0  0  0  0  0  0  0  0  0  0  0  0
    1.0291    2.5250   -2.2241 C   0  0  0  0  0  0  0  0  0  0  0  0
    1.0291    0.0692    0.0107 H   0  0  0  0  0  0  0  0  0  0  0  0
    1.0291    2.8314   -3.2562 H   0  0  0  0  0  0  0  0  0  0  0  0
  1  2  2  3
  1 12  1  0
  2  3  1  0
  2  6  1  0
  3  4  1  0
  4  5  2  0
  5  6  1  0
  7 11  1  0
  7  8  1  0
  8  9  2  0
  9 10  1  0
 10 11  2  0
 11 13  1  0
M  RAD  1   8   2
M  END
>  <reaction>  (10) 
rxn_3174

>  <mol_properties>  (10) 
{"0": {"label": "*1", "atom_type": "N3d"}, "1": {"label": "*0", "atom_type": "Cd"}, "6": {"label": "*4", "atom_type": "O2s"}, "7": {"label": "*3", "atom_type": "Cd"}, "11": {"label": "*2", "atom_type": "H0"}}

>  <type>  (10) 
unop_6

>  <geom_source>  (10) 
Heuristics

$$$$

     RDKit          3D

 13 13  0  0  0  0  0  0  0  0999 V2000
    0.8816   -1.2437    0.1361 N   0  0  0  0  0  0  0  0  0  0  0  0
   -0.1125   -1.3877    0.8656 C   0  0  0  0  0  0  0  0  0  0  0  0
   -0.0723   -1.9075    2.1225 O   0  0  0  0  0  0  0  0  0  0  0  0
   -1.3572   -1.9058    2.6057 N   0  0  0  0  0  0  0  0  0  0  0  0
   -2.1252   -1.4465    1.7729 N   0  0  0  0  0  0  0  0  0  0  0  0
   -1.4255   -1.0911    0.6376 O   0  0  0  0  0  0  0  0  0  0  0  0
    0.8816    0.9631   -2.3999 O   0  0  0  0  0  0  0  0  0  0  0  0
    0.8816    0.9631   -1.0531 C   0  0  0  0  0  3  0  0  0  0  0  0
    0.8816    2.1391   -0.5475 N   0  0  0  0  0  0  0  0  0  0  0  0
    0.8816    3.0167   -1.6271 N   0  0  0  0  0  0  0  0  0  0  0  0
    0.8816    2.2816   -2.6750 C   0  0  0  0  0  0  0  0  0  0  0  0
    0.8816   -0.1742   -0.4402 H   0  0  0  0  0  0  0  0  0  0  0  0
    0.8816    2.5880   -3.7071 H   0  0  0  0  0  0  0  0  0  0  0  0
  1  2  2  3
  1 12  1  0
  2  3  1  0
  2  6  1  0
  3  4  1  0
  4  5  2  0
  5  6  1  0
  7 11  1  0
  7  8  1  0
  8  9  2  0
  9 10  1  0
 10 11  2  0
 11 13  1  0
M  RAD  1   8   2
M  END
>  <reaction>  (11) 
rxn_3174

>  <mol_properties>  (11) 
{"0": {"label": "*1", "atom_type": "N3d"}, "1": {"label": "*0", "atom_type": "Cd"}, "6": {"label": "*4", "atom_type": "O2s"}, "7": {"label": "*3", "atom_type": "Cd"}, "11": {"label": "*2", "atom_type": "H0"}}

>  <type>  (11) 
unop_7

>  <geom_source>  (11) 
Heuristics

$$$$

     RDKit          3D

 13 13  0  0  0  0  0  0  0  0999 V2000
   -1.0291   -1.0003    0.5870 N   0  0  0  0  0  0  0  0  0  0  0  0
    0.1188   -1.4166    0.8113 C   0  0  0  0  0  0  0  0  0  0  0  0
    0.5080   -2.0026    1.9761 O   0  0  0  0  0  0  0  0  0  0  0  0
    1.8359   -2.3251    1.8465 N   0  0  0  0  0  0  0  0  0  0  0  0
    2.2500   -1.9924    0.7455 N   0  0  0  0  0  0  0  0  0  0  0  0
    1.2314   -1.4080    0.0202 O   0  0  0  0  0  0  0  0  0  0  0  0
   -1.0291    1.2066   -1.9490 O   0  0  0  0  0  0  0  0  0  0  0  0
   -1.0291    1.2066   -0.6021 C   0  0  0  0  0  3  0  0  0  0  0  0
   -1.0291    2.3826   -0.0965 N   0  0  0  0  0  0  0  0  0  0  0  0
   -1.0291    3.2602   -1.1761 N   0  0  0  0  0  0  0  0  0  0  0  0
   -1.0291    2.5250   -2.2241 C   0  0  0  0  0  0  0  0  0  0  0  0
   -1.0291    0.0692    0.0107 H   0  0  0  0  0  0  0  0  0  0  0  0
   -1.0291    2.8314   -3.2562 H   0  0  0  0  0  0  0  0  0  0  0  0
  1  2  2  3
  1 12  1  0
  2  3  1  0
  2  6  1  0
  3  4  1  0
  4  5  2  0
  5  6  1  0
  7 11  1  0
  7  8  1  0
  8  9  2  0
  9 10  1  0
 10 11  2  0
 11 13  1  0
M  RAD  1   8   2
M  END
>  <reaction>  (12) 
rxn_3174

>  <mol_properties>  (12) 
{"0": {"label": "*1", "atom_type": "N3d"}, "1": {"label": "*0", "atom_type": "Cd"}, "6": {"label": "*4", "atom_type": "O2s"}, "7": {"label": "*3", "atom_type": "Cd"}, "11": {"label": "*2", "atom_type": "H0"}}

>  <type>  (12) 
unop_8

>  <geom_source>  (12) 
Heuristics

$$$$

     RDKit          3D

 13 13  0  0  0  0  0  0  0  0999 V2000
    0.5215   -0.5670    1.3801 N   0  0  0  0  0  0  0  0  0  0  0  0
   -0.0524   -1.4549    0.7292 C   0  0  0  0  0  0  0  0  0  0  0  0
   -0.5212   -2.6153    1.2631 O   0  0  0  0  0  0  0  0  0  0  0  0
   -1.0872   -3.3352    0.2405 N   0  0  0  0  0  0  0  0  0  0  0  0
   -0.9965   -2.7224   -0.8133 N   0  0  0  0  0  0  0  0  0  0  0  0
   -0.3547   -1.5192   -0.6006 O   0  0  0  0  0  0  0  0  0  0  0  0
    0.5215    1.6399   -1.1559 O   0  0  0  0  0  0  0  0  0  0  0  0
    0.5215    1.6399    0.1909 C   0  0  0  0  0  3  0  0  0  0  0  0
    0.5215    2.8159    0.6965 N   0  0  0  0  0  0  0  0  0  0  0  0
    0.5215    3.6935   -0.3831 N   0  0  0  0  0  0  0  0  0  0  0  0
    0.5215    2.9583   -1.4310 C   0  0  0  0  0  0  0  0  0  0  0  0
    0.5215    0.5025    0.8038 H   0  0  0  0  0  0  0  0  0  0  0  0
    0.5215    3.2647   -2.4631 H   0  0  0  0  0  0  0  0  0  0  0  0
  1  2  2  3
  1 12  1  0
  2  3  1  0
  2  6  1  0
  3  4  1  0
  4  5  2  0
  5  6  1  0
  7 11  1  0
  7  8  1  0
  8  9  2  0
  9 10  1  0
 10 11  2  0
 11 13  1  0
M  RAD  1   8   2
M  END
>  <reaction>  (13) 
rxn_3174

>  <mol_properties>  (13) 
{"0": {"label": "*1", "atom_type": "N3d"}, "1": {"label": "*0", "atom_type": "Cd"}, "6": {"label": "*4", "atom_type": "O2s"}, "7": {"label": "*3", "atom_type": "Cd"}, "11": {"label": "*2", "atom_type": "H0"}}

>  <type>  (13) 
unop_9

>  <geom_source>  (13) 
Heuristics

$$$$

     RDKit          3D

 13 13  0  0  0  0  0  0  0  0999 V2000
   -0.8983   -0.7519    1.0432 N   0  0  0  0  0  0  0  0  0  0  0  0
    0.0959   -1.4404    0.7622 C   0  0  0  0  0  0  0  0  0  0  0  0
    0.7096   -2.2906    1.6294 O   0  0  0  0  0  0  0  0  0  0  0  0
    1.7607   -2.8667    0.9604 N   0  0  0  0  0  0  0  0  0  0  0  0
    1.8189   -2.4454   -0.1857 N   0  0  0  0  0  0  0  0  0  0  0  0
    0.8031   -1.5363   -0.4016 O   0  0  0  0  0  0  0  0  0  0  0  0
   -0.8983    1.4550   -1.4928 O   0  0  0  0  0  0  0  0  0  0  0  0
   -0.8983    1.4550   -0.1459 C   0  0  0  0  0  3  0  0  0  0  0  0
   -0.8983    2.6310    0.3597 N   0  0  0  0  0  0  0  0  0  0  0  0
   -0.8983    3.5086   -0.7200 N   0  0  0  0  0  0  0  0  0  0  0  0
   -0.8983    2.7735   -1.7679 C   0  0  0  0  0  0  0  0  0  0  0  0
   -0.8983    0.3177    0.4669 H   0  0  0  0  0  0  0  0  0  0  0  0
   -0.8983    3.0798   -2.8000 H   0  0  0  0  0  0  0  0  0  0  0  0
  1  2  2  3
  1 12  1  0
  2  3  1  0
  2  6  1  0
  3  4  1  0
  4  5  2  0
  5  6  1  0
  7 11  1  0
  7  8  1  0
  8  9  2  0
  9 10  1  0
 10 11  2  0
 11 13  1  0
M  RAD  1   8   2
M  END
>  <reaction>  (14) 
rxn_3174

>  <mol_properties>  (14) 
{"0": {"label": "*1", "atom_type": "N3d"}, "1": {"label": "*0", "atom_type": "Cd"}, "6": {"label": "*4", "atom_type": "O2s"}, "7": {"label": "*3", "atom_type": "Cd"}, "11": {"label": "*2", "atom_type": "H0"}}

>  <type>  (14) 
unop_10

>  <geom_source>  (14) 
Heuristics

$$$$

     RDKit          3D

 13 13  0  0  0  0  0  0  0  0999 V2000
    0.5008   -1.4149   -0.1879 N   0  0  0  0  0  0  0  0  0  0  0  0
   -0.0732   -1.3596    0.9115 C   0  0  0  0  0  0  0  0  0  0  0  0
    0.2725   -2.1063    1.9953 O   0  0  0  0  0  0  0  0  0  0  0  0
   -0.5846   -1.7688    3.0131 N   0  0  0  0  0  0  0  0  0  0  0  0
   -1.3780   -0.9179    2.6377 N   0  0  0  0  0  0  0  0  0  0  0  0
   -1.1299   -0.5970    1.3185 O   0  0  0  0  0  0  0  0  0  0  0  0
    0.5008    0.7920   -2.7239 O   0  0  0  0  0  0  0  0  0  0  0  0
    0.5008    0.7920   -1.3771 C   0  0  0  0  0  3  0  0  0  0  0  0
    0.5008    1.9680   -0.8715 N   0  0  0  0  0  0  0  0  0  0  0  0
    0.5008    2.8456   -1.9511 N   0  0  0  0  0  0  0  0  0  0  0  0
    0.5008    2.1104   -2.9990 C   0  0  0  0  0  0  0  0  0  0  0  0
    0.5008   -0.3454   -0.7642 H   0  0  0  0  0  0  0  0  0  0  0  0
    0.5008    2.4168   -4.0311 H   0  0  0  0  0  0  0  0  0  0  0  0
  1  2  2  3
  1 12  1  0
  2  3  1  0
  2  6  1  0
  3  4  1  0
  4  5  2  0
  5  6  1  0
  7 11  1  0
  7  8  1  0
  8  9  2  0
  9 10  1  0
 10 11  2  0
 11 13  1  0
M  RAD  1   8   2
M  END
>  <reaction>  (15) 
rxn_3174

>  <mol_properties>  (15) 
{"0": {"label": "*1", "atom_type": "N3d"}, "1": {"label": "*0", "atom_type": "Cd"}, "6": {"label": "*4", "atom_type": "O2s"}, "7": {"label": "*3", "atom_type": "Cd"}, "11": {"label": "*2", "atom_type": "H0"}}

>  <type>  (15) 
unop_11

>  <geom_source>  (15) 
Heuristics

$$$$

     RDKit          3D

 13 13  0  0  0  0  0  0  0  0999 V2000
    0.0000   -0.4986    1.5041 N   0  0  0  0  0  0  0  0  0  0  0  0
    0.0000   -1.4593    0.7179 C   0  0  0  0  0  0  0  0  0  0  0  0
    0.0000   -2.7646    1.1022 O   0  0  0  0  0  0  0  0  0  0  0  0
    0.0000   -3.5260   -0.0400 N   0  0  0  0  0  0  0  0  0  0  0  0
    0.0000   -2.8092   -1.0302 N   0  0  0  0  0  0  0  0  0  0  0  0
    0.0000   -1.4832   -0.6472 O   0  0  0  0  0  0  0  0  0  0  0  0
   -0.0000    1.7083   -1.0319 O   0  0  0  0  0  0  0  0  0  0  0  0
   -0.0000    1.7083    0.3149 C   0  0  0  0  0  3  0  0  0  0  0  0
   -0.0000    2.8843    0.8206 N   0  0  0  0  0  0  0  0  0  0  0  0
   -0.0000    3.7619   -0.2591 N   0  0  0  0  0  0  0  0  0  0  0  0
   -0.0000    3.0268   -1.3070 C   0  0  0  0  0  0  0  0  0  0  0  0
   -0.0000    0.5710    0.9278 H   0  0  0  0  0  0  0  0  0  0  0  0
   -0.0000    3.3331   -2.3391 H   0  0  0  0  0  0  0  0  0  0  0  0
  1  2  2  3
  1 12  1  0
  2  3  1  0
  2  6  1  0
  3  4  1  0
  4  5  2  0
  5  6  1  0
  7 11  1  0
  7  8  1  0
  8  9  2  0
  9 10  1  0
 10 11  2  0
 11 13  1  0
M  RAD  1   8   2
M  END
>  <reaction>  (16) 
rxn_3174

>  <mol_properties>  (16) 
{"0": {"label": "*1", "atom_type": "N3d"}, "1": {"label": "*0", "atom_type": "Cd"}, "6": {"label": "*4", "atom_type": "O2s"}, "7": {"label": "*3", "atom_type": "Cd"}, "11": {"label": "*2", "atom_type": "H0"}}

>  <type>  (16) 
unop_12

>  <geom_source>  (16) 
Heuristics

$$$$

     RDKit          3D

 13 13  0  0  0  0  0  0  0  0999 V2000
   -0.8982   -0.7519    1.0432 N   0  0  0  0  0  0  0  0  0  0  0  0
    0.0959   -1.4404    0.7622 C   0  0  0  0  0  0  0  0  0  0  0  0
    0.7096   -2.2906    1.6294 O   0  0  0  0  0  0  0  0  0  0  0  0
    1.7607   -2.8667    0.9604 N   0  0  0  0  0  0  0  0  0  0  0  0
    1.8189   -2.4455   -0.1857 N   0  0  0  0  0  0  0  0  0  0  0  0
    0.8031   -1.5364   -0.4016 O   0  0  0  0  0  0  0  0  0  0  0  0
   -0.8982    1.4550   -1.4928 O   0  0  0  0  0  0  0  0  0  0  0  0
   -0.8982    1.4550   -0.1459 C   0  0  0  0  0  3  0  0  0  0  0  0
   -0.8982    2.6310    0.3597 N   0  0  0  0  0  0  0  0  0  0  0  0
   -0.8983    3.5086   -0.7200 N   0  0  0  0  0  0  0  0  0  0  0  0
   -0.8982    2.7735   -1.7679 C   0  0  0  0  0  0  0  0  0  0  0  0
   -0.8982    0.3177    0.4669 H   0  0  0  0  0  0  0  0  0  0  0  0
   -0.8982    3.0798   -2.8000 H   0  0  0  0  0  0  0  0  0  0  0  0
  1  2  2  3
  1 12  1  0
  2  3  1  0
  2  6  1  0
  3  4  1  0
  4  5  2  0
  5  6  1  0
  7 11  1  0
  7  8  1  0
  8  9  2  0
  9 10  1  0
 10 11  2  0
 11 13  1  0
M  RAD  1   8   2
M  END
>  <reaction>  (17) 
rxn_3174

>  <mol_properties>  (17) 
{"0": {"label": "*1", "atom_type": "N3d"}, "1": {"label": "*0", "atom_type": "Cd"}, "6": {"label": "*4", "atom_type": "O2s"}, "7": {"label": "*3", "atom_type": "Cd"}, "11": {"label": "*2", "atom_type": "H0"}}

>  <type>  (17) 
unop_13

>  <geom_source>  (17) 
gaussian_log

$$$$
