
     RDKit          3D

  7  6  0  0  0  0  0  0  0  0999 V2000
    1.3572   -0.1671    1.3611 O   0  0  0  0  0  0  0  0  0  0  0  0
    0.9236    0.0526    0.2798 C   0  0  0  0  0  0  0  0  0  0  0  0
   -0.5771   -0.0341   -0.0851 C   0  0  0  0  0  0  0  0  0  0  0  0
   -1.0319    1.5740   -0.6898 Cl  0  0  0  0  0  0  0  0  0  0  0  0
   -1.5652   -0.4943    1.2822 Cl  0  0  0  0  0  0  0  0  0  0  0  0
   -0.6988   -1.2311   -1.3932 Cl  0  0  0  0  0  0  0  0  0  0  0  0
    1.5409    0.3436   -0.5884 H   0  0  0  0  0  0  0  0  0  0  0  0
  1  2  2  0
  2  3  1  0
  2  7  1  0
  3  4  1  0
  3  5  1  0
  3  6  1  0
M  END
>  <reaction>  (1) 
rxn_3248

>  <mol_properties>  (1) 
{"1": {"label": "donator", "atom_type": "CO"}, "6": {"label": "d_hydrogen", "atom_type": "H0"}}

>  <type>  (1) 
r1h

$$$$

     RDKit          3D

  7  6  0  0  0  0  0  0  0  0999 V2000
   -1.3059    0.5497   -0.1304 N   0  0  0  0  0  2  0  0  0  0  0  0
   -0.2700   -0.4288    0.0448 C   0  0  0  0  0  0  0  0  0  0  0  0
    1.1109    0.0669    0.0401 C   0  0  0  0  0  0  0  0  0  0  0  0
    2.1758    0.4925    0.0308 N   0  0  0  0  0  0  0  0  0  0  0  0
   -0.8815    1.4733   -0.2339 H   0  0  0  0  0  0  0  0  0  0  0  0
   -0.3767   -1.1909   -0.7373 H   0  0  0  0  0  0  0  0  0  0  0  0
   -0.4527   -0.9628    0.9858 H   0  0  0  0  0  0  0  0  0  0  0  0
  1  2  1  0
  1  5  1  0
  2  3  1  0
  2  6  1  0
  2  7  1  0
  3  4  3  0
M  RAD  1   1   2
M  END
>  <reaction>  (2) 
rxn_3248

>  <mol_properties>  (2) 
{"0": {"label": "acceptor", "atom_type": "N3s"}}

>  <type>  (2) 
r2

$$$$

     RDKit          3D

  8  7  0  0  0  0  0  0  0  0999 V2000
   -1.0805    0.5317    0.0204 N   0  0  0  0  0  0  0  0  0  0  0  0
   -0.1080   -0.5393    0.0956 C   0  0  0  0  0  0  0  0  0  0  0  0
    1.2945   -0.1247   -0.1005 C   0  0  0  0  0  0  0  0  0  0  0  0
    2.3714    0.2386   -0.2580 N   0  0  0  0  0  0  0  0  0  0  0  0
   -1.0516    0.9857   -0.8822 H   0  0  0  0  0  0  0  0  0  0  0  0
   -0.9009    1.2352    0.7235 H   0  0  0  0  0  0  0  0  0  0  0  0
   -0.3427   -1.2965   -0.6542 H   0  0  0  0  0  0  0  0  0  0  0  0
   -0.1810   -1.0288    1.0680 H   0  0  0  0  0  0  0  0  0  0  0  0
  1  2  1  0
  1  5  1  0
  1  6  1  0
  2  3  1  0
  2  7  1  0
  2  8  1  0
  3  4  3  0
M  END
>  <reaction>  (3) 
rxn_3248

>  <mol_properties>  (3) 
{"0": {"label": "acceptor", "atom_type": "N3s"}, "7": {"label": "a_hydrogen", "atom_type": "H0"}}

>  <type>  (3) 
r2h

$$$$

     RDKit          3D

 14 12  0  0  0  0  0  0  0  0999 V2000
    0.5413   -2.4244    0.8554 N   0  0  0  0  0  2  0  0  0  0  0  0
    0.1208   -3.3433   -0.1850 C   0  0  0  0  0  0  0  0  0  0  0  0
   -1.2627   -3.1766   -0.6490 C   0  0  0  0  0  0  0  0  0  0  0  0
   -2.3504   -3.0155   -0.9757 N   0  0  0  0  0  0  0  0  0  0  0  0
   -0.2535   -2.2268    1.4648 H   0  0  0  0  0  0  0  0  0  0  0  0
    0.2328   -4.3664    0.1918 H   0  0  0  0  0  0  0  0  0  0  0  0
    0.7929   -3.2521   -1.0412 H   0  0  0  0  0  0  0  0  0  0  0  0
    1.0878   -0.3288   -1.6660 O   0  0  0  0  0  0  0  0  0  0  0  0
    0.6861   -0.2465   -0.5628 C   0  0  0  0  0  0  0  0  0  0  0  0
    0.0649    1.0198    0.0809 C   0  0  0  0  0  0  0  0  0  0  0  0
   -1.6029    0.5788    0.4866 Cl  0  0  0  0  0  0  0  0  0  0  0  0
    0.1049    2.4018   -0.9994 Cl  0  0  0  0  0  0  0  0  0  0  0  0
    1.0004    1.3364    1.5528 Cl  0  0  0  0  0  0  0  0  0  0  0  0
    0.7062   -1.2407    0.2370 H   0  0  0  0  0  0  0  0  0  0  0  0
  1  2  1  0
  1  5  1  0
  2  3  1  0
  2  6  1  0
  2  7  1  0
  3  4  3  0
  8  9  2  0
  9 10  1  0
  9 14  1  0
 10 11  1  0
 10 12  1  0
 10 13  1  0
M  RAD  1   1   2
M  END
>  <reaction>  (4) 
rxn_3248

>  <mol_properties>  (4) 
{"0": {"label": "*3", "atom_type": "N3s"}, "1": {"label": "*4", "atom_type": "Cs"}, "7": {"label": "*0", "atom_type": "O2d"}, "8": {"label": "*1", "atom_type": "CO"}, "13": {"label": "*2", "atom_type": "H0"}}

>  <type>  (4) 
ts

$$$$

     RDKit          3D

 14 12  0  0  0  0  0  0  0  0999 V2000
   -0.4265   -2.3092    0.3499 N   0  0  0  0  0  0  0  0  0  0  0  0
    0.7443   -2.3603    1.2014 C   0  0  0  0  0  0  0  0  0  0  0  0
    1.8149   -3.2639    0.7380 C   0  0  0  0  0  0  0  0  0  0  0  0
    2.6228   -3.9768    0.3434 N   0  0  0  0  0  0  0  0  0  0  0  0
   -0.8540   -3.2212    0.2652 H   0  0  0  0  0  0  0  0  0  0  0  0
    0.4507   -2.6737    2.2045 H   0  0  0  0  0  0  0  0  0  0  0  0
    1.1676   -1.3593    1.2977 H   0  0  0  0  0  0  0  0  0  0  0  0
   -0.4265   -0.2090   -2.2605 O   0  0  0  0  0  0  0  0  0  0  0  0
   -0.4265   -0.2090   -1.0751 C   0  0  0  0  0  3  0  0  0  0  0  0
   -0.4265    1.0730   -0.2094 C   0  0  0  0  0  0  0  0  0  0  0  0
   -1.8821    0.9829    0.8065 Cl  0  0  0  0  0  0  0  0  0  0  0  0
   -0.4265    2.5273   -1.1804 Cl  0  0  0  0  0  0  0  0  0  0  0  0
    1.0291    0.9829    0.8065 Cl  0  0  0  0  0  0  0  0  0  0  0  0
   -0.4265   -1.3056   -0.3311 H   0  0  0  0  0  0  0  0  0  0  0  0
  1  2  1  0
  1  5  1  0
  1 14  1  0
  2  3  1  0
  2  6  1  0
  2  7  1  0
  3  4  3  0
  8  9  2  0
  9 10  1  0
 10 11  1  0
 10 12  1  0
 10 13  1  0
M  RAD  1   9   2
M  END
>  <reaction>  (5) 
rxn_3248

>  <mol_properties>  (5) 
{"0": {"label": "*3", "atom_type": "N3s"}, "1": {"label": "*4", "atom_type": "Cs"}, "7": {"label": "*0", "atom_type": "O2d"}, "8": {"label": "*1", "atom_type": "CO"}, "13": {"label": "*2", "atom_type": "H0"}}

>  <type>  (5) 
unop_1

>  <geom_source>  (5) 
Heuristics

$$$$

     RDKit          3D

 14 12  0  0  0  0  0  0  0  0999 V2000
    0.0124   -2.1430    0.7575 N   0  0  0  0  0  0  0  0  0  0  0  0
    0.6884   -3.2310    0.0808 C   0  0  0  0  0  0  0  0  0  0  0  0
   -0.1107   -3.9162   -0.9533 C   0  0  0  0  0  0  0  0  0  0  0  0
   -0.7650   -4.4221   -1.7486 N   0  0  0  0  0  0  0  0  0  0  0  0
   -0.8217   -2.4692    1.2259 H   0  0  0  0  0  0  0  0  0  0  0  0
    1.0003   -3.9768    0.8135 H   0  0  0  0  0  0  0  0  0  0  0  0
    1.5981   -2.8562   -0.3910 H   0  0  0  0  0  0  0  0  0  0  0  0
    0.0124   -0.0428   -1.8530 O   0  0  0  0  0  0  0  0  0  0  0  0
    0.0124   -0.0428   -0.6675 C   0  0  0  0  0  3  0  0  0  0  0  0
    0.0124    1.2392    0.1981 C   0  0  0  0  0  0  0  0  0  0  0  0
   -1.4431    1.1491    1.2140 Cl  0  0  0  0  0  0  0  0  0  0  0  0
    0.0124    2.6934   -0.7728 Cl  0  0  0  0  0  0  0  0  0  0  0  0
    1.4680    1.1491    1.2140 Cl  0  0  0  0  0  0  0  0  0  0  0  0
    0.0124   -1.1394    0.0765 H   0  0  0  0  0  0  0  0  0  0  0  0
  1  2  1  0
  1  5  1  0
  1 14  1  0
  2  3  1  0
  2  6  1  0
  2  7  1  0
  3  4  3  0
  8  9  2  0
  9 10  1  0
 10 11  1  0
 10 12  1  0
 10 13  1  0
M  RAD  1   9   2
M  END
>  <reaction>  (6) 
rxn_3248

>  <mol_properties>  (6) 
{"0": {"label": "*3", "atom_type": "N3s"}, "1": {"label": "*4", "atom_type": "Cs"}, "7": {"label": "*0", "atom_type": "O2d"}, "8": {"label": "*1", "atom_type": "CO"}, "13": {"label": "*2", "atom_type": "H0"}}

>  <type>  (6) 
unop_2

>  <geom_source>  (6) 
Heuristics

$$$$

     RDKit          3D

 14 12  0  0  0  0  0  0  0  0999 V2000
   -0.3969   -2.4729    0.1852 N   0  0  0  0  0  0  0  0  0  0  0  0
    0.2791   -2.2462    1.4462 C   0  0  0  0  0  0  0  0  0  0  0  0
    1.7229   -2.5510    1.4448 C   0  0  0  0  0  0  0  0  0  0  0  0
    2.8422   -2.7995    1.4019 N   0  0  0  0  0  0  0  0  0  0  0  0
   -0.3203   -3.4398   -0.0991 H   0  0  0  0  0  0  0  0  0  0  0  0
   -0.1911   -2.8497    2.2242 H   0  0  0  0  0  0  0  0  0  0  0  0
    0.1560   -1.2032    1.7421 H   0  0  0  0  0  0  0  0  0  0  0  0
   -0.3969   -0.3726   -2.4253 O   0  0  0  0  0  0  0  0  0  0  0  0
   -0.3969   -0.3726   -1.2398 C   0  0  0  0  0  3  0  0  0  0  0  0
   -0.3969    0.9093   -0.3741 C   0  0  0  0  0  0  0  0  0  0  0  0
   -1.8525    0.8192    0.6417 Cl  0  0  0  0  0  0  0  0  0  0  0  0
   -0.3969    2.3636   -1.3451 Cl  0  0  0  0  0  0  0  0  0  0  0  0
    1.0587    0.8192    0.6417 Cl  0  0  0  0  0  0  0  0  0  0  0  0
   -0.3969   -1.4692   -0.4958 H   0  0  0  0  0  0  0  0  0  0  0  0
  1  2  1  0
  1  5  1  0
  1 14  1  0
  2  3  1  0
  2  6  1  0
  2  7  1  0
  3  4  3  0
  8  9  2  0
  9 10  1  0
 10 11  1  0
 10 12  1  0
 10 13  1  0
M  RAD  1   9   2
M  END
>  <reaction>  (7) 
rxn_3248

>  <mol_properties>  (7) 
{"0": {"label": "*3", "atom_type": "N3s"}, "1": {"label": "*4", "atom_type": "Cs"}, "7": {"label": "*0", "atom_type": "O2d"}, "8": {"label": "*1", "atom_type": "CO"}, "13": {"label": "*2", "atom_type": "H0"}}

>  <type>  (7) 
unop_3

>  <geom_source>  (7) 
Heuristics

$$$$

     RDKit          3D

 14 12  0  0  0  0  0  0  0  0999 V2000
    0.4485   -2.4619    0.5764 N   0  0  0  0  0  0  0  0  0  0  0  0
   -0.7223   -3.2721    0.3092 C   0  0  0  0  0  0  0  0  0  0  0  0
   -1.8974   -2.5283   -0.1843 C   0  0  0  0  0  0  0  0  0  0  0  0
   -2.7878   -1.9133   -0.5656 N   0  0  0  0  0  0  0  0  0  0  0  0
    0.2526   -1.7609    1.2775 H   0  0  0  0  0  0  0  0  0  0  0  0
   -1.0154   -3.7984    1.2189 H   0  0  0  0  0  0  0  0  0  0  0  0
   -0.4744   -4.0367   -0.4286 H   0  0  0  0  0  0  0  0  0  0  0  0
    0.4485   -0.3617   -2.0341 O   0  0  0  0  0  0  0  0  0  0  0  0
    0.4485   -0.3617   -0.8486 C   0  0  0  0  0  3  0  0  0  0  0  0
    0.4485    0.9203    0.0171 C   0  0  0  0  0  0  0  0  0  0  0  0
   -1.0071    0.8302    1.0329 Cl  0  0  0  0  0  0  0  0  0  0  0  0
    0.4485    2.3745   -0.9539 Cl  0  0  0  0  0  0  0  0  0  0  0  0
    1.9041    0.8302    1.0329 Cl  0  0  0  0  0  0  0  0  0  0  0  0
    0.4485   -1.4583   -0.1046 H   0  0  0  0  0  0  0  0  0  0  0  0
  1  2  1  0
  1  5  1  0
  1 14  1  0
  2  3  1  0
  2  6  1  0
  2  7  1  0
  3  4  3  0
  8  9  2  0
  9 10  1  0
 10 11  1  0
 10 12  1  0
 10 13  1  0
M  RAD  1   9   2
M  END
>  <reaction>  (8) 
rxn_3248

>  <mol_properties>  (8) 
{"0": {"label": "*3", "atom_type": "N3s"}, "1": {"label": "*4", "atom_type": "Cs"}, "7": {"label": "*0", "atom_type": "O2d"}, "8": {"label": "*1", "atom_type": "CO"}, "13": {"label": "*2", "atom_type": "H0"}}

>  <type>  (8) 
unop_4

>  <geom_source>  (8) 
Heuristics

$$$$

     RDKit          3D

 14 12  0  0  0  0  0  0  0  0999 V2000
   -0.2128   -2.6939    0.0722 N   0  0  0  0  0  0  0  0  0  0  0  0
   -0.2128   -2.3655    1.4831 C   0  0  0  0  0  0  0  0  0  0  0  0
    0.9437   -1.5707    1.9396 C   0  0  0  0  0  0  0  0  0  0  0  0
    1.8582   -0.9531    2.2539 N   0  0  0  0  0  0  0  0  0  0  0  0
    0.6058   -3.2326   -0.1752 H   0  0  0  0  0  0  0  0  0  0  0  0
   -0.2417   -3.2848    2.0702 H   0  0  0  0  0  0  0  0  0  0  0  0
   -1.1197   -1.8100    1.7269 H   0  0  0  0  0  0  0  0  0  0  0  0
   -0.2128   -0.5936   -2.5382 O   0  0  0  0  0  0  0  0  0  0  0  0
   -0.2128   -0.5936   -1.3527 C   0  0  0  0  0  3  0  0  0  0  0  0
   -0.2128    0.6883   -0.4871 C   0  0  0  0  0  0  0  0  0  0  0  0
   -1.6684    0.5982    0.5288 Cl  0  0  0  0  0  0  0  0  0  0  0  0
   -0.2128    2.1426   -1.4580 Cl  0  0  0  0  0  0  0  0  0  0  0  0
    1.2428    0.5982    0.5288 Cl  0  0  0  0  0  0  0  0  0  0  0  0
   -0.2128   -1.6902   -0.6087 H   0  0  0  0  0  0  0  0  0  0  0  0
  1  2  1  0
  1  5  1  0
  1 14  1  0
  2  3  1  0
  2  6  1  0
  2  7  1  0
  3  4  3  0
  8  9  2  0
  9 10  1  0
 10 11  1  0
 10 12  1  0
 10 13  1  0
M  RAD  1   9   2
M  END
>  <reaction>  (9) 
rxn_3248

>  <mol_properties>  (9) 
{"0": {"label": "*3", "atom_type": "N3s"}, "1": {"label": "*4", "atom_type": "Cs"}, "7": {"label": "*0", "atom_type": "O2d"}, "8": {"label": "*1", "atom_type": "CO"}, "13": {"label": "*2", "atom_type": "H0"}}

>  <type>  (9) 
unop_5

>  <geom_source>  (9) 
Heuristics

$$$$

     RDKit          3D

 14 12  0  0  0  0  0  0  0  0999 V2000
    0.4580   -2.5905    0.4094 N   0  0  0  0  0  0  0  0  0  0  0  0
   -0.8940   -3.0211    0.7016 C   0  0  0  0  0  0  0  0  0  0  0  0
   -1.9326   -1.9901    0.5129 C   0  0  0  0  0  0  0  0  0  0  0  0
   -2.7092   -1.1605    0.3540 N   0  0  0  0  0  0  0  0  0  0  0  0
    0.7282   -1.8165    1.0006 H   0  0  0  0  0  0  0  0  0  0  0  0
   -0.9494   -3.3689    1.7343 H   0  0  0  0  0  0  0  0  0  0  0  0
   -1.1482   -3.8738    0.0701 H   0  0  0  0  0  0  0  0  0  0  0  0
    0.4580   -0.4902   -2.2010 O   0  0  0  0  0  0  0  0  0  0  0  0
    0.4580   -0.4902   -1.0155 C   0  0  0  0  0  3  0  0  0  0  0  0
    0.4580    0.7918   -0.1499 C   0  0  0  0  0  0  0  0  0  0  0  0
   -0.9976    0.7016    0.8660 Cl  0  0  0  0  0  0  0  0  0  0  0  0
    0.4580    2.2460   -1.1208 Cl  0  0  0  0  0  0  0  0  0  0  0  0
    1.9136    0.7016    0.8660 Cl  0  0  0  0  0  0  0  0  0  0  0  0
    0.4580   -1.5868   -0.2715 H   0  0  0  0  0  0  0  0  0  0  0  0
  1  2  1  0
  1  5  1  0
  1 14  1  0
  2  3  1  0
  2  6  1  0
  2  7  1  0
  3  4  3  0
  8  9  2  0
  9 10  1  0
 10 11  1  0
 10 12  1  0
 10 13  1  0
M  RAD  1   9   2
M  END
>  <reaction>  (10) 
rxn_3248

>  <mol_properties>  (10) 
{"0": {"label": "*3", "atom_type": "N3s"}, "1": {"label": "*4", "atom_type": "Cs"}, "7": {"label": "*0", "atom_type": "O2d"}, "8": {"label": "*1", "atom_type": "CO"}, "13": {"label": "*2", "atom_type": "H0"}}

>  <type>  (10) 
unop_6

>  <geom_source>  (10) 
Heuristics

$$$$

     RDKit          3D

 14 12  0  0  0  0  0  0  0  0999 V2000
    0.3582   -2.7123    0.2317 N   0  0  0  0  0  0  0  0  0  0  0  0
   -0.8126   -2.7634    1.0833 C   0  0  0  0  0  0  0  0  0  0  0  0
   -1.5118   -1.4763    1.2621 C   0  0  0  0  0  3  0  0  0  0  0  0
   -2.0259   -0.4568    1.3753 N   0  0  0  0  0  0  0  0  0  0  0  0
    1.0486   -2.0735    0.6017 H   0  0  0  0  0  0  0  0  0  0  0  0
   -0.5283   -3.1315    2.0703 H   0  0  0  0  0  0  0  0  0  0  0  0
   -1.5272   -3.4803    0.6759 H   0  0  0  0  0  0  0  0  0  0  0  0
    0.3582   -0.6121   -2.3787 O   0  0  0  0  0  0  0  0  0  0  0  0
    0.3582   -0.6121   -1.1932 C   0  0  0  0  0  0  0  0  0  0  0  0
    0.3582    0.6699   -0.3276 C   0  0  0  0  0  0  0  0  0  0  0  0
   -1.0974    0.5798    0.6883 Cl  0  0  0  0  0  0  0  0  0  0  0  0
    0.3582    2.1241   -1.2985 Cl  0  0  0  0  0  0  0  0  0  0  0  0
    1.8138    0.5798    0.6883 Cl  0  0  0  0  0  0  0  0  0  0  0  0
    0.3582   -1.7087   -0.4492 H   0  0  0  0  0  0  0  0  0  0  0  0
  1  2  1  0
  1  5  1  0
  1 14  1  0
  2  3  1  0
  2  6  1  0
  2  7  1  0
  3  4  2  3
  4 11  1  0
  8  9  2  0
  9 10  2  0
 10 12  1  0
 10 13  1  0
M  RAD  1   3   2
M  END
>  <reaction>  (11) 
rxn_3248

>  <mol_properties>  (11) 
{"0": {"label": "*3", "atom_type": "N3s"}, "1": {"label": "*4", "atom_type": "Cs"}, "7": {"label": "*0", "atom_type": "O2d"}, "8": {"label": "*1", "atom_type": "CO"}, "13": {"label": "*2", "atom_type": "H0"}}

>  <type>  (11) 
unop_7

>  <geom_source>  (11) 
Heuristics

$$$$

     RDKit          3D

 14 12  0  0  0  0  0  0  0  0999 V2000
   -0.3568   -2.1938    0.5257 N   0  0  0  0  0  0  0  0  0  0  0  0
    0.9952   -2.6244    0.8179 C   0  0  0  0  0  0  0  0  0  0  0  0
    1.4837   -3.7492   -0.0028 C   0  0  0  0  0  0  0  0  0  0  0  0
    1.8253   -4.6244   -0.6615 N   0  0  0  0  0  0  0  0  0  0  0  0
   -1.0164   -2.9459    0.6695 H   0  0  0  0  0  0  0  0  0  0  0  0
    1.0643   -2.9185    1.8663 H   0  0  0  0  0  0  0  0  0  0  0  0
    1.6808   -1.7865    0.6820 H   0  0  0  0  0  0  0  0  0  0  0  0
   -0.3568   -0.0935   -2.0847 O   0  0  0  0  0  0  0  0  0  0  0  0
   -0.3568   -0.0935   -0.8992 C   0  0  0  0  0  3  0  0  0  0  0  0
   -0.3568    1.1884   -0.0336 C   0  0  0  0  0  0  0  0  0  0  0  0
   -1.8123    1.0983    0.9823 Cl  0  0  0  0  0  0  0  0  0  0  0  0
   -0.3568    2.6427   -1.0045 Cl  0  0  0  0  0  0  0  0  0  0  0  0
    1.0988    1.0983    0.9823 Cl  0  0  0  0  0  0  0  0  0  0  0  0
   -0.3568   -1.1901   -0.1552 H   0  0  0  0  0  0  0  0  0  0  0  0
  1  2  1  0
  1  5  1  0
  1 14  1  0
  2  3  1  0
  2  6  1  0
  2  7  1  0
  3  4  3  0
  8  9  2  0
  9 10  1  0
 10 11  1  0
 10 12  1  0
 10 13  1  0
M  RAD  1   9   2
M  END
>  <reaction>  (12) 
rxn_3248

>  <mol_properties>  (12) 
{"0": {"label": "*3", "atom_type": "N3s"}, "1": {"label": "*4", "atom_type": "Cs"}, "7": {"label": "*0", "atom_type": "O2d"}, "8": {"label": "*1", "atom_type": "CO"}, "13": {"label": "*2", "atom_type": "H0"}}

>  <type>  (12) 
unop_8

>  <geom_source>  (12) 
Heuristics

$$$$

     RDKit          3D

 14 12  0  0  0  0  0  0  0  0999 V2000
    0.3608   -2.3392    0.7000 N   0  0  0  0  0  0  0  0  0  0  0  0
   -0.3151   -3.4272    0.0233 C   0  0  0  0  0  0  0  0  0  0  0  0
   -1.5447   -3.0463   -0.6983 C   0  0  0  0  0  0  0  0  0  0  0  0
   -2.4946   -2.7091   -1.2465 N   0  0  0  0  0  0  0  0  0  0  0  0
   -0.2411   -1.9107    1.3896 H   0  0  0  0  0  0  0  0  0  0  0  0
   -0.5764   -4.1996    0.7482 H   0  0  0  0  0  0  0  0  0  0  0  0
    0.3660   -3.8884   -0.6935 H   0  0  0  0  0  0  0  0  0  0  0  0
    0.3608   -0.2389   -1.9105 O   0  0  0  0  0  0  0  0  0  0  0  0
    0.3608   -0.2389   -0.7250 C   0  0  0  0  0  3  0  0  0  0  0  0
    0.3608    1.0430    0.1406 C   0  0  0  0  0  0  0  0  0  0  0  0
   -1.0947    0.9529    1.1565 Cl  0  0  0  0  0  0  0  0  0  0  0  0
    0.3608    2.4973   -0.8303 Cl  0  0  0  0  0  0  0  0  0  0  0  0
    1.8164    0.9529    1.1565 Cl  0  0  0  0  0  0  0  0  0  0  0  0
    0.3608   -1.3355    0.0190 H   0  0  0  0  0  0  0  0  0  0  0  0
  1  2  1  0
  1  5  1  0
  1 14  1  0
  2  3  1  0
  2  6  1  0
  2  7  1  0
  3  4  3  0
  8  9  2  0
  9 10  1  0
 10 11  1  0
 10 12  1  0
 10 13  1  0
M  RAD  1   9   2
M  END
>  <reaction>  (13) 
rxn_3248

>  <mol_properties>  (13) 
{"0": {"label": "*3", "atom_type": "N3s"}, "1": {"label": "*4", "atom_type": "Cs"}, "7": {"label": "*0", "atom_type": "O2d"}, "8": {"label": "*1", "atom_type": "CO"}, "13": {"label": "*2", "atom_type": "H0"}}

>  <type>  (13) 
unop_9

>  <geom_source>  (13) 
Heuristics

$$$$

     RDKit          3D

 14 12  0  0  0  0  0  0  0  0999 V2000
   -0.1980   -2.1318    0.6732 N   0  0  0  0  0  0  0  0  0  0  0  0
    0.9728   -2.9419    0.4060 C   0  0  0  0  0  0  0  0  0  0  0  0
    0.7864   -3.9924   -0.6135 C   0  0  0  0  0  0  0  0  0  0  0  0
    0.6001   -4.7962   -1.4108 N   0  0  0  0  0  0  0  0  0  0  0  0
   -0.9659   -2.7008    1.0020 H   0  0  0  0  0  0  0  0  0  0  0  0
    1.2999   -3.4235    1.3288 H   0  0  0  0  0  0  0  0  0  0  0  0
    1.7927   -2.2996    0.0806 H   0  0  0  0  0  0  0  0  0  0  0  0
   -0.1980   -0.0315   -1.9373 O   0  0  0  0  0  0  0  0  0  0  0  0
   -0.1980   -0.0315   -0.7518 C   0  0  0  0  0  3  0  0  0  0  0  0
   -0.1980    1.2504    0.1138 C   0  0  0  0  0  0  0  0  0  0  0  0
   -1.6535    1.1603    1.1297 Cl  0  0  0  0  0  0  0  0  0  0  0  0
   -0.1980    2.7047   -0.8571 Cl  0  0  0  0  0  0  0  0  0  0  0  0
    1.2576    1.1603    1.1297 Cl  0  0  0  0  0  0  0  0  0  0  0  0
   -0.1980   -1.1281   -0.0078 H   0  0  0  0  0  0  0  0  0  0  0  0
  1  2  1  0
  1  5  1  0
  1 14  1  0
  2  3  1  0
  2  6  1  0
  2  7  1  0
  3  4  3  0
  8  9  2  0
  9 10  1  0
 10 11  1  0
 10 12  1  0
 10 13  1  0
M  RAD  1   9   2
M  END
>  <reaction>  (14) 
rxn_3248

>  <mol_properties>  (14) 
{"0": {"label": "*3", "atom_type": "N3s"}, "1": {"label": "*4", "atom_type": "Cs"}, "7": {"label": "*0", "atom_type": "O2d"}, "8": {"label": "*1", "atom_type": "CO"}, "13": {"label": "*2", "atom_type": "H0"}}

>  <type>  (14) 
unop_10

>  <geom_source>  (14) 
Heuristics

$$$$

     RDKit          3D

 14 12  0  0  0  0  0  0  0  0999 V2000
    0.1219   -2.7846    0.0938 N   0  0  0  0  0  0  0  0  0  0  0  0
   -0.5541   -2.5579    1.3548 C   0  0  0  0  0  0  0  0  0  0  0  0
   -0.5033   -1.1687    1.8500 C   0  0  0  0  0  0  0  0  0  0  0  0
   -0.4408   -0.0777    2.1998 N   0  0  0  0  0  0  0  0  0  0  0  0
    1.1032   -2.5524    0.1610 H   0  0  0  0  0  0  0  0  0  0  0  0
   -0.1212   -3.2036    2.1204 H   0  0  0  0  0  0  0  0  0  0  0  0
   -1.6031   -2.8432    1.2613 H   0  0  0  0  0  0  0  0  0  0  0  0
    0.1219   -0.6843   -2.5166 O   0  0  0  0  0  0  0  0  0  0  0  0
    0.1219   -0.6843   -1.3312 C   0  0  0  0  0  3  0  0  0  0  0  0
    0.1219    0.5976   -0.4655 C   0  0  0  0  0  0  0  0  0  0  0  0
   -1.3337    0.5075    0.5504 Cl  0  0  0  0  0  0  0  0  0  0  0  0
    0.1219    2.0519   -1.4365 Cl  0  0  0  0  0  0  0  0  0  0  0  0
    1.5775    0.5075    0.5504 Cl  0  0  0  0  0  0  0  0  0  0  0  0
    0.1219   -1.7809   -0.5872 H   0  0  0  0  0  0  0  0  0  0  0  0
  1  2  1  0
  1  5  1  0
  1 14  1  0
  2  3  1  0
  2  6  1  0
  2  7  1  0
  3  4  3  0
  8  9  2  0
  9 10  1  0
 10 11  1  0
 10 12  1  0
 10 13  1  0
M  RAD  1   9   2
M  END
>  <reaction>  (15) 
rxn_3248

>  <mol_properties>  (15) 
{"0": {"label": "*3", "atom_type": "N3s"}, "1": {"label": "*4", "atom_type": "Cs"}, "7": {"label": "*0", "atom_type": "O2d"}, "8": {"label": "*1", "atom_type": "CO"}, "13": {"label": "*2", "atom_type": "H0"}}

>  <type>  (15) 
unop_11

>  <geom_source>  (15) 
Heuristics

$$$$

     RDKit          3D

 14 12  0  0  0  0  0  0  0  0999 V2000
    0.2128   -2.2245    0.7641 N   0  0  0  0  0  0  0  0  0  0  0  0
    0.2128   -3.4141   -0.0625 C   0  0  0  0  0  0  0  0  0  0  0  0
   -0.9437   -3.5446   -0.9697 C   0  0  0  0  0  0  0  0  0  0  0  0
   -1.8582   -3.6084   -1.6597 N   0  0  0  0  0  0  0  0  0  0  0  0
   -0.6058   -2.1937    1.3561 H   0  0  0  0  0  0  0  0  0  0  0  0
    0.2417   -4.2994    0.5747 H   0  0  0  0  0  0  0  0  0  0  0  0
    1.1197   -3.4354   -0.6688 H   0  0  0  0  0  0  0  0  0  0  0  0
    0.2128   -0.1242   -1.8463 O   0  0  0  0  0  0  0  0  0  0  0  0
    0.2128   -0.1242   -0.6609 C   0  0  0  0  0  3  0  0  0  0  0  0
    0.2128    1.1577    0.2048 C   0  0  0  0  0  0  0  0  0  0  0  0
   -1.2428    1.0676    1.2207 Cl  0  0  0  0  0  0  0  0  0  0  0  0
    0.2128    2.6120   -0.7662 Cl  0  0  0  0  0  0  0  0  0  0  0  0
    1.6684    1.0676    1.2206 Cl  0  0  0  0  0  0  0  0  0  0  0  0
    0.2128   -1.2208    0.0831 H   0  0  0  0  0  0  0  0  0  0  0  0
  1  2  1  0
  1  5  1  0
  1 14  1  0
  2  3  1  0
  2  6  1  0
  2  7  1  0
  3  4  3  0
  8  9  2  0
  9 10  1  0
 10 11  1  0
 10 12  1  0
 10 13  1  0
M  RAD  1   9   2
M  END
>  <reaction>  (16) 
rxn_3248

>  <mol_properties>  (16) 
{"0": {"label": "*3", "atom_type": "N3s"}, "1": {"label": "*4", "atom_type": "Cs"}, "7": {"label": "*0", "atom_type": "O2d"}, "8": {"label": "*1", "atom_type": "CO"}, "13": {"label": "*2", "atom_type": "H0"}}

>  <type>  (16) 
unop_12

>  <geom_source>  (16) 
Heuristics

$$$$

     RDKit          3D

 14 12  0  0  0  0  0  0  0  0999 V2000
    0.0124   -2.1431    0.7575 N   0  0  0  0  0  0  0  0  0  0  0  0
    0.6884   -3.2310    0.0808 C   0  0  0  0  0  0  0  0  0  0  0  0
   -0.1107   -3.9162   -0.9533 C   0  0  0  0  0  0  0  0  0  0  0  0
   -0.7651   -4.4221   -1.7487 N   0  0  0  0  0  0  0  0  0  0  0  0
   -0.8217   -2.4692    1.2259 H   0  0  0  0  0  0  0  0  0  0  0  0
    1.0003   -3.9768    0.8135 H   0  0  0  0  0  0  0  0  0  0  0  0
    1.5981   -2.8562   -0.3910 H   0  0  0  0  0  0  0  0  0  0  0  0
    0.0124   -0.0428   -1.8530 O   0  0  0  0  0  0  0  0  0  0  0  0
    0.0124   -0.0428   -0.6675 C   0  0  0  0  0  3  0  0  0  0  0  0
    0.0124    1.2392    0.1981 C   0  0  0  0  0  0  0  0  0  0  0  0
   -1.4431    1.1490    1.2140 Cl  0  0  0  0  0  0  0  0  0  0  0  0
    0.0124    2.6934   -0.7728 Cl  0  0  0  0  0  0  0  0  0  0  0  0
    1.4680    1.1491    1.2140 Cl  0  0  0  0  0  0  0  0  0  0  0  0
    0.0124   -1.1394    0.0765 H   0  0  0  0  0  0  0  0  0  0  0  0
  1  2  1  0
  1  5  1  0
  1 14  1  0
  2  3  1  0
  2  6  1  0
  2  7  1  0
  3  4  3  0
  8  9  2  0
  9 10  1  0
 10 11  1  0
 10 12  1  0
 10 13  1  0
M  RAD  1   9   2
M  END
>  <reaction>  (17) 
rxn_3248

>  <mol_properties>  (17) 
{"0": {"label": "*3", "atom_type": "N3s"}, "1": {"label": "*4", "atom_type": "Cs"}, "7": {"label": "*0", "atom_type": "O2d"}, "8": {"label": "*1", "atom_type": "CO"}, "13": {"label": "*2", "atom_type": "H0"}}

>  <type>  (17) 
unop_13

>  <geom_source>  (17) 
gaussian_log

$$$$
