
     RDKit          3D

  4  3  0  0  0  0  0  0  0  0999 V2000
   -0.0057    0.0001   -0.0008 C   0  0  0  0  0  0  0  0  0  0  0  0
    1.1789   -0.0174    0.1563 O   0  0  0  0  0  0  0  0  0  0  0  0
   -0.5891    0.9399    0.0445 H   0  0  0  0  0  0  0  0  0  0  0  0
   -0.5841   -0.9226   -0.2001 H   0  0  0  0  0  0  0  0  0  0  0  0
  1  2  2  0
  1  3  1  0
  1  4  1  0
M  END
>  <reaction>  (1) 
rxn_366

>  <mol_properties>  (1) 
{"0": {"label": "donator", "atom_type": "CO"}, "2": {"label": "d_hydrogen", "atom_type": "H0"}}

>  <type>  (1) 
r1h

$$$$

     RDKit          3D

  6  5  0  0  0  0  0  0  0  0999 V2000
   -0.4551   -0.0241   -0.0941 C   0  0  0  0  0  0  0  0  0  0  0  0
    0.9212   -0.3399    0.4301 C   0  0  0  0  0  3  0  0  0  0  0  0
    1.9162    0.2688    0.2931 O   0  0  0  0  0  0  0  0  0  0  0  0
   -1.1389    0.0466    0.7520 H   0  0  0  0  0  0  0  0  0  0  0  0
   -0.4555    0.9056   -0.6674 H   0  0  0  0  0  0  0  0  0  0  0  0
   -0.7879   -0.8571   -0.7137 H   0  0  0  0  0  0  0  0  0  0  0  0
  1  2  1  0
  1  4  1  0
  1  5  1  0
  1  6  1  0
  2  3  2  0
M  RAD  1   2   2
M  END
>  <reaction>  (2) 
rxn_366

>  <mol_properties>  (2) 
{"1": {"label": "acceptor", "atom_type": "CO"}}

>  <type>  (2) 
r2

$$$$

     RDKit          3D

  7  6  0  0  0  0  0  0  0  0999 V2000
   -0.6468   -0.0443   -0.0231 C   0  0  0  0  0  0  0  0  0  0  0  0
    0.8470    0.0371    0.0688 C   0  0  0  0  0  0  0  0  0  0  0  0
    1.4866   -0.2280    1.0479 O   0  0  0  0  0  0  0  0  0  0  0  0
   -1.0466    0.9363   -0.2943 H   0  0  0  0  0  0  0  0  0  0  0  0
   -0.9229   -0.7318   -0.8269 H   0  0  0  0  0  0  0  0  0  0  0  0
   -1.0759   -0.3772    0.9198 H   0  0  0  0  0  0  0  0  0  0  0  0
    1.3584    0.3712   -0.8589 H   0  0  0  0  0  0  0  0  0  0  0  0
  1  2  1  0
  1  4  1  0
  1  5  1  0
  1  6  1  0
  2  3  2  0
  2  7  1  0
M  END
>  <reaction>  (3) 
rxn_366

>  <mol_properties>  (3) 
{"0": {"label": "a_hydrogen", "atom_type": "H0"}, "2": {"label": "acceptor", "atom_type": "CO"}}

>  <type>  (3) 
r2h

$$$$

     RDKit          3D

 10  8  0  0  0  0  0  0  0  0999 V2000
   -0.0239   -1.6191   -0.6940 C   0  0  0  0  0  3  0  0  0  0  0  0
   -0.0354   -1.5296   -1.8744 O   0  0  0  0  0  0  0  0  0  0  0  0
   -0.0055   -0.4754    0.1014 H   0  0  0  0  0  0  0  0  0  0  0  0
   -0.0271   -2.6009   -0.1590 H   0  0  0  0  0  0  0  0  0  0  0  0
    0.0138    1.9156   -0.0868 C   0  0  0  0  0  0  0  0  0  0  0  0
    0.0123    0.7086    0.8060 C   0  0  0  0  0  0  0  0  0  0  0  0
    0.0245    0.6912    1.9917 O   0  0  0  0  0  0  0  0  0  0  0  0
   -0.8699    1.8784   -0.7268 H   0  0  0  0  0  0  0  0  0  0  0  0
    0.0280    2.8375    0.4945 H   0  0  0  0  0  0  0  0  0  0  0  0
    0.8832    1.8628   -0.7450 H   0  0  0  0  0  0  0  0  0  0  0  0
  1  2  2  0
  1  4  1  0
  3  6  1  0
  5  6  1  0
  5  8  1  0
  5  9  1  0
  5 10  1  0
  6  7  2  0
M  RAD  1   1   2
M  END
>  <reaction>  (4) 
rxn_366

>  <mol_properties>  (4) 
{"0": {"label": "*3", "atom_type": "CO"}, "1": {"label": "*4", "atom_type": "O2d"}, "2": {"label": "*2", "atom_type": "H0"}, "5": {"label": "*1", "atom_type": "CO"}, "6": {"label": "*0", "atom_type": "O2d"}}

>  <type>  (4) 
ts

$$$$

     RDKit          3D

 10  8  0  0  0  0  0  0  0  0999 V2000
    0.0065   -1.4316   -0.8442 C   0  0  0  0  0  0  0  0  0  0  0  0
    0.0065   -1.4316   -2.0392 O   0  0  0  0  0  0  0  0  0  0  0  0
    0.0065   -0.3045   -0.1409 H   0  0  0  0  0  0  0  0  0  0  0  0
    0.0065   -2.3708   -0.2581 H   0  0  0  0  0  0  0  0  0  0  0  0
   -1.1691    1.0060    1.4769 C   0  0  0  0  0  0  0  0  0  0  0  0
    0.0065    0.8263    0.5647 C   0  0  0  0  0  3  0  0  0  0  0  0
    1.1387    1.1025    0.8472 O   0  0  0  0  0  0  0  0  0  0  0  0
   -1.6614    0.0416    1.6271 H   0  0  0  0  0  0  0  0  0  0  0  0
   -0.8582    1.4219    2.4331 H   0  0  0  0  0  0  0  0  0  0  0  0
   -1.9005    1.6635    0.9995 H   0  0  0  0  0  0  0  0  0  0  0  0
  1  2  2  0
  1  3  1  0
  1  4  1  0
  5  6  1  0
  5  8  1  0
  5  9  1  0
  5 10  1  0
  6  7  2  0
M  RAD  1   6   2
M  END
>  <reaction>  (5) 
rxn_366

>  <mol_properties>  (5) 
{"0": {"label": "*3", "atom_type": "CO"}, "1": {"label": "*4", "atom_type": "O2d"}, "2": {"label": "*2", "atom_type": "H0"}, "5": {"label": "*1", "atom_type": "CO"}, "6": {"label": "*0", "atom_type": "O2d"}}

>  <type>  (5) 
unop_1

>  <geom_source>  (5) 
Heuristics

$$$$

     RDKit          3D

 10  8  0  0  0  0  0  0  0  0999 V2000
    0.0918   -1.5678   -0.6988 C   0  0  0  0  0  0  0  0  0  0  0  0
    0.0918   -1.5678   -1.8939 O   0  0  0  0  0  0  0  0  0  0  0  0
    0.0918   -0.4408    0.0045 H   0  0  0  0  0  0  0  0  0  0  0  0
    0.0918   -2.5071   -0.1128 H   0  0  0  0  0  0  0  0  0  0  0  0
   -0.5870    1.8514    0.0491 C   0  0  0  0  0  0  0  0  0  0  0  0
    0.0918    0.6900    0.7101 C   0  0  0  0  0  3  0  0  0  0  0  0
    0.3418    0.6209    1.8808 O   0  0  0  0  0  0  0  0  0  0  0  0
   -1.4990    1.5048   -0.4439 H   0  0  0  0  0  0  0  0  0  0  0  0
   -0.8238    2.6267    0.7749 H   0  0  0  0  0  0  0  0  0  0  0  0
    0.0625    2.2527   -0.7333 H   0  0  0  0  0  0  0  0  0  0  0  0
  1  2  2  0
  1  3  1  0
  1  4  1  0
  5  6  1  0
  5  8  1  0
  5  9  1  0
  5 10  1  0
  6  7  2  0
M  RAD  1   6   2
M  END
>  <reaction>  (6) 
rxn_366

>  <mol_properties>  (6) 
{"0": {"label": "*3", "atom_type": "CO"}, "1": {"label": "*4", "atom_type": "O2d"}, "2": {"label": "*2", "atom_type": "H0"}, "5": {"label": "*1", "atom_type": "CO"}, "6": {"label": "*0", "atom_type": "O2d"}}

>  <type>  (6) 
unop_2

>  <geom_source>  (6) 
Heuristics

$$$$

     RDKit          3D

 10  8  0  0  0  0  0  0  0  0999 V2000
   -0.0555   -1.4716   -0.8185 C   0  0  0  0  0  0  0  0  0  0  0  0
   -0.0555   -1.4716   -2.0136 O   0  0  0  0  0  0  0  0  0  0  0  0
   -0.0555   -0.3446   -0.1152 H   0  0  0  0  0  0  0  0  0  0  0  0
   -0.0555   -2.4108   -0.2325 H   0  0  0  0  0  0  0  0  0  0  0  0
   -0.7343    0.7029    1.9241 C   0  0  0  0  0  0  0  0  0  0  0  0
   -0.0555    0.7862    0.5904 C   0  0  0  0  0  3  0  0  0  0  0  0
    0.8699    1.5061    0.3387 O   0  0  0  0  0  0  0  0  0  0  0  0
   -0.6789   -0.3240    2.2948 H   0  0  0  0  0  0  0  0  0  0  0  0
   -0.2745    1.3847    2.6366 H   0  0  0  0  0  0  0  0  0  0  0  0
   -1.7949    0.9397    1.8058 H   0  0  0  0  0  0  0  0  0  0  0  0
  1  2  2  0
  1  3  1  0
  1  4  1  0
  5  6  1  0
  5  8  1  0
  5  9  1  0
  5 10  1  0
  6  7  2  0
M  RAD  1   6   2
M  END
>  <reaction>  (7) 
rxn_366

>  <mol_properties>  (7) 
{"0": {"label": "*3", "atom_type": "CO"}, "1": {"label": "*4", "atom_type": "O2d"}, "2": {"label": "*2", "atom_type": "H0"}, "5": {"label": "*1", "atom_type": "CO"}, "6": {"label": "*0", "atom_type": "O2d"}}

>  <type>  (7) 
unop_3

>  <geom_source>  (7) 
Heuristics

$$$$

     RDKit          3D

 10  8  0  0  0  0  0  0  0  0999 V2000
   -0.1252   -1.5060   -0.7614 C   0  0  0  0  0  0  0  0  0  0  0  0
   -0.1252   -1.5060   -1.9565 O   0  0  0  0  0  0  0  0  0  0  0  0
   -0.1252   -0.3789   -0.0581 H   0  0  0  0  0  0  0  0  0  0  0  0
   -0.1252   -2.4452   -0.1753 H   0  0  0  0  0  0  0  0  0  0  0  0
    1.0504    1.6502    0.4081 C   0  0  0  0  0  0  0  0  0  0  0  0
   -0.1252    0.7518    0.6475 C   0  0  0  0  0  3  0  0  0  0  0  0
   -0.7131    0.6591    1.6885 O   0  0  0  0  0  0  0  0  0  0  0  0
    0.8205    2.3365   -0.4112 H   0  0  0  0  0  0  0  0  0  0  0  0
    1.3009    2.2094    1.3073 H   0  0  0  0  0  0  0  0  0  0  0  0
    1.9054    1.0495    0.0869 H   0  0  0  0  0  0  0  0  0  0  0  0
  1  2  2  0
  1  3  1  0
  1  4  1  0
  5  6  1  0
  5  8  1  0
  5  9  1  0
  5 10  1  0
  6  7  2  0
M  RAD  1   6   2
M  END
>  <reaction>  (8) 
rxn_366

>  <mol_properties>  (8) 
{"0": {"label": "*3", "atom_type": "CO"}, "1": {"label": "*4", "atom_type": "O2d"}, "2": {"label": "*2", "atom_type": "H0"}, "5": {"label": "*1", "atom_type": "CO"}, "6": {"label": "*0", "atom_type": "O2d"}}

>  <type>  (8) 
unop_4

>  <geom_source>  (8) 
Heuristics

$$$$

     RDKit          3D

 10  8  0  0  0  0  0  0  0  0999 V2000
    0.0000   -1.5251   -0.7846 C   0  0  0  0  0  0  0  0  0  0  0  0
    0.0000   -1.5251   -1.9796 O   0  0  0  0  0  0  0  0  0  0  0  0
    0.0000   -0.3981   -0.0813 H   0  0  0  0  0  0  0  0  0  0  0  0
    0.0000   -2.4643   -0.1985 H   0  0  0  0  0  0  0  0  0  0  0  0
    0.0000    0.5531    2.1124 C   0  0  0  0  0  0  0  0  0  0  0  0
    0.0000    0.7327    0.6244 C   0  0  0  0  0  3  0  0  0  0  0  0
   -0.0000    1.7931    0.0643 O   0  0  0  0  0  0  0  0  0  0  0  0
    0.8777   -0.0283    2.4067 H   0  0  0  0  0  0  0  0  0  0  0  0
    0.0000    1.5159    2.6193 H   0  0  0  0  0  0  0  0  0  0  0  0
   -0.8777   -0.0283    2.4067 H   0  0  0  0  0  0  0  0  0  0  0  0
  1  2  2  0
  1  3  1  0
  1  4  1  0
  5  6  1  0
  5  8  1  0
  5  9  1  0
  5 10  1  0
  6  7  2  0
M  RAD  1   6   2
M  END
>  <reaction>  (9) 
rxn_366

>  <mol_properties>  (9) 
{"0": {"label": "*3", "atom_type": "CO"}, "1": {"label": "*4", "atom_type": "O2d"}, "2": {"label": "*2", "atom_type": "H0"}, "5": {"label": "*1", "atom_type": "CO"}, "6": {"label": "*0", "atom_type": "O2d"}}

>  <type>  (9) 
unop_5

>  <geom_source>  (9) 
Heuristics

$$$$

     RDKit          3D

 10  8  0  0  0  0  0  0  0  0999 V2000
   -0.0875   -1.4498   -0.8207 C   0  0  0  0  0  0  0  0  0  0  0  0
   -0.0875   -1.4498   -2.0158 O   0  0  0  0  0  0  0  0  0  0  0  0
   -0.0875   -0.3227   -0.1174 H   0  0  0  0  0  0  0  0  0  0  0  0
   -0.0875   -2.3890   -0.2347 H   0  0  0  0  0  0  0  0  0  0  0  0
    1.2700    1.3471    0.9245 C   0  0  0  0  0  0  0  0  0  0  0  0
   -0.0875    0.8080    0.5882 C   0  0  0  0  0  3  0  0  0  0  0  0
   -1.0279    0.8127    1.3322 O   0  0  0  0  0  0  0  0  0  0  0  0
    1.5373    2.1276    0.2074 H   0  0  0  0  0  0  0  0  0  0  0  0
    1.2894    1.7448    1.9371 H   0  0  0  0  0  0  0  0  0  0  0  0
    2.0120    0.5515    0.8173 H   0  0  0  0  0  0  0  0  0  0  0  0
  1  2  2  0
  1  3  1  0
  1  4  1  0
  5  6  1  0
  5  8  1  0
  5  9  1  0
  5 10  1  0
  6  7  2  0
M  RAD  1   6   2
M  END
>  <reaction>  (10) 
rxn_366

>  <mol_properties>  (10) 
{"0": {"label": "*3", "atom_type": "CO"}, "1": {"label": "*4", "atom_type": "O2d"}, "2": {"label": "*2", "atom_type": "H0"}, "5": {"label": "*1", "atom_type": "CO"}, "6": {"label": "*0", "atom_type": "O2d"}}

>  <type>  (10) 
unop_6

>  <geom_source>  (10) 
Heuristics

$$$$

     RDKit          3D

 10  8  0  0  0  0  0  0  0  0999 V2000
   -0.0065   -1.4316   -0.8442 C   0  0  0  0  0  0  0  0  0  0  0  0
   -0.0065   -1.4316   -2.0392 O   0  0  0  0  0  0  0  0  0  0  0  0
   -0.0065   -0.3045   -0.1409 H   0  0  0  0  0  0  0  0  0  0  0  0
   -0.0065   -2.3708   -0.2581 H   0  0  0  0  0  0  0  0  0  0  0  0
    1.1691    1.0060    1.4769 C   0  0  0  0  0  0  0  0  0  0  0  0
   -0.0065    0.8263    0.5647 C   0  0  0  0  0  3  0  0  0  0  0  0
   -1.1387    1.1024    0.8472 O   0  0  0  0  0  0  0  0  0  0  0  0
    1.9005    1.6634    0.9994 H   0  0  0  0  0  0  0  0  0  0  0  0
    0.8582    1.4219    2.4331 H   0  0  0  0  0  0  0  0  0  0  0  0
    1.6614    0.0416    1.6271 H   0  0  0  0  0  0  0  0  0  0  0  0
  1  2  2  0
  1  3  1  0
  1  4  1  0
  5  6  1  0
  5  8  1  0
  5  9  1  0
  5 10  1  0
  6  7  2  0
M  RAD  1   6   2
M  END
>  <reaction>  (11) 
rxn_366

>  <mol_properties>  (11) 
{"0": {"label": "*3", "atom_type": "CO"}, "1": {"label": "*4", "atom_type": "O2d"}, "2": {"label": "*2", "atom_type": "H0"}, "5": {"label": "*1", "atom_type": "CO"}, "6": {"label": "*0", "atom_type": "O2d"}}

>  <type>  (11) 
unop_7

>  <geom_source>  (11) 
Heuristics

$$$$

     RDKit          3D

 10  8  0  0  0  0  0  0  0  0999 V2000
    0.0875   -1.4498   -0.8207 C   0  0  0  0  0  0  0  0  0  0  0  0
    0.0875   -1.4498   -2.0158 O   0  0  0  0  0  0  0  0  0  0  0  0
    0.0875   -0.3227   -0.1174 H   0  0  0  0  0  0  0  0  0  0  0  0
    0.0875   -2.3890   -0.2347 H   0  0  0  0  0  0  0  0  0  0  0  0
   -1.2700    1.3471    0.9245 C   0  0  0  0  0  0  0  0  0  0  0  0
    0.0875    0.8080    0.5882 C   0  0  0  0  0  3  0  0  0  0  0  0
    1.0279    0.8127    1.3322 O   0  0  0  0  0  0  0  0  0  0  0  0
   -2.0120    0.5516    0.8173 H   0  0  0  0  0  0  0  0  0  0  0  0
   -1.2894    1.7448    1.9371 H   0  0  0  0  0  0  0  0  0  0  0  0
   -1.5373    2.1277    0.2074 H   0  0  0  0  0  0  0  0  0  0  0  0
  1  2  2  0
  1  3  1  0
  1  4  1  0
  5  6  1  0
  5  8  1  0
  5  9  1  0
  5 10  1  0
  6  7  2  0
M  RAD  1   6   2
M  END
>  <reaction>  (12) 
rxn_366

>  <mol_properties>  (12) 
{"0": {"label": "*3", "atom_type": "CO"}, "1": {"label": "*4", "atom_type": "O2d"}, "2": {"label": "*2", "atom_type": "H0"}, "5": {"label": "*1", "atom_type": "CO"}, "6": {"label": "*0", "atom_type": "O2d"}}

>  <type>  (12) 
unop_8

>  <geom_source>  (12) 
Heuristics

$$$$

     RDKit          3D

 10  8  0  0  0  0  0  0  0  0999 V2000
   -0.0918   -1.5678   -0.6988 C   0  0  0  0  0  0  0  0  0  0  0  0
   -0.0918   -1.5678   -1.8939 O   0  0  0  0  0  0  0  0  0  0  0  0
   -0.0918   -0.4408    0.0045 H   0  0  0  0  0  0  0  0  0  0  0  0
   -0.0918   -2.5071   -0.1128 H   0  0  0  0  0  0  0  0  0  0  0  0
    0.5870    1.8514    0.0491 C   0  0  0  0  0  0  0  0  0  0  0  0
   -0.0918    0.6900    0.7101 C   0  0  0  0  0  3  0  0  0  0  0  0
   -0.3418    0.6209    1.8808 O   0  0  0  0  0  0  0  0  0  0  0  0
   -0.0625    2.2527   -0.7333 H   0  0  0  0  0  0  0  0  0  0  0  0
    0.8237    2.6267    0.7749 H   0  0  0  0  0  0  0  0  0  0  0  0
    1.4990    1.5048   -0.4439 H   0  0  0  0  0  0  0  0  0  0  0  0
  1  2  2  0
  1  3  1  0
  1  4  1  0
  5  6  1  0
  5  8  1  0
  5  9  1  0
  5 10  1  0
  6  7  2  0
M  RAD  1   6   2
M  END
>  <reaction>  (13) 
rxn_366

>  <mol_properties>  (13) 
{"0": {"label": "*3", "atom_type": "CO"}, "1": {"label": "*4", "atom_type": "O2d"}, "2": {"label": "*2", "atom_type": "H0"}, "5": {"label": "*1", "atom_type": "CO"}, "6": {"label": "*0", "atom_type": "O2d"}}

>  <type>  (13) 
unop_9

>  <geom_source>  (13) 
Heuristics

$$$$

     RDKit          3D

 10  8  0  0  0  0  0  0  0  0999 V2000
    0.1252   -1.5060   -0.7614 C   0  0  0  0  0  0  0  0  0  0  0  0
    0.1252   -1.5060   -1.9565 O   0  0  0  0  0  0  0  0  0  0  0  0
    0.1252   -0.3789   -0.0581 H   0  0  0  0  0  0  0  0  0  0  0  0
    0.1252   -2.4452   -0.1753 H   0  0  0  0  0  0  0  0  0  0  0  0
   -1.0504    1.6502    0.4081 C   0  0  0  0  0  0  0  0  0  0  0  0
    0.1252    0.7518    0.6475 C   0  0  0  0  0  3  0  0  0  0  0  0
    0.7131    0.6591    1.6885 O   0  0  0  0  0  0  0  0  0  0  0  0
   -1.9054    1.0495    0.0868 H   0  0  0  0  0  0  0  0  0  0  0  0
   -1.3009    2.2093    1.3073 H   0  0  0  0  0  0  0  0  0  0  0  0
   -0.8205    2.3365   -0.4112 H   0  0  0  0  0  0  0  0  0  0  0  0
  1  2  2  0
  1  3  1  0
  1  4  1  0
  5  6  1  0
  5  8  1  0
  5  9  1  0
  5 10  1  0
  6  7  2  0
M  RAD  1   6   2
M  END
>  <reaction>  (14) 
rxn_366

>  <mol_properties>  (14) 
{"0": {"label": "*3", "atom_type": "CO"}, "1": {"label": "*4", "atom_type": "O2d"}, "2": {"label": "*2", "atom_type": "H0"}, "5": {"label": "*1", "atom_type": "CO"}, "6": {"label": "*0", "atom_type": "O2d"}}

>  <type>  (14) 
unop_10

>  <geom_source>  (14) 
Heuristics

$$$$

     RDKit          3D

 10  8  0  0  0  0  0  0  0  0999 V2000
    0.0555   -1.4716   -0.8185 C   0  0  0  0  0  0  0  0  0  0  0  0
    0.0555   -1.4716   -2.0136 O   0  0  0  0  0  0  0  0  0  0  0  0
    0.0555   -0.3446   -0.1152 H   0  0  0  0  0  0  0  0  0  0  0  0
    0.0555   -2.4108   -0.2325 H   0  0  0  0  0  0  0  0  0  0  0  0
    0.7343    0.7029    1.9241 C   0  0  0  0  0  0  0  0  0  0  0  0
    0.0555    0.7862    0.5904 C   0  0  0  0  0  3  0  0  0  0  0  0
   -0.8699    1.5061    0.3387 O   0  0  0  0  0  0  0  0  0  0  0  0
    1.7949    0.9396    1.8058 H   0  0  0  0  0  0  0  0  0  0  0  0
    0.2745    1.3847    2.6366 H   0  0  0  0  0  0  0  0  0  0  0  0
    0.6789   -0.3240    2.2948 H   0  0  0  0  0  0  0  0  0  0  0  0
  1  2  2  0
  1  3  1  0
  1  4  1  0
  5  6  1  0
  5  8  1  0
  5  9  1  0
  5 10  1  0
  6  7  2  0
M  RAD  1   6   2
M  END
>  <reaction>  (15) 
rxn_366

>  <mol_properties>  (15) 
{"0": {"label": "*3", "atom_type": "CO"}, "1": {"label": "*4", "atom_type": "O2d"}, "2": {"label": "*2", "atom_type": "H0"}, "5": {"label": "*1", "atom_type": "CO"}, "6": {"label": "*0", "atom_type": "O2d"}}

>  <type>  (15) 
unop_11

>  <geom_source>  (15) 
Heuristics

$$$$

     RDKit          3D

 10  8  0  0  0  0  0  0  0  0999 V2000
   -0.0000   -1.5956   -0.6717 C   0  0  0  0  0  0  0  0  0  0  0  0
   -0.0000   -1.5956   -1.8667 O   0  0  0  0  0  0  0  0  0  0  0  0
   -0.0000   -0.4685    0.0316 H   0  0  0  0  0  0  0  0  0  0  0  0
   -0.0000   -2.5348   -0.0856 H   0  0  0  0  0  0  0  0  0  0  0  0
   -0.0000    1.9199   -0.0780 C   0  0  0  0  0  0  0  0  0  0  0  0
   -0.0000    0.6623    0.7373 C   0  0  0  0  0  3  0  0  0  0  0  0
    0.0000    0.6252    1.9358 O   0  0  0  0  0  0  0  0  0  0  0  0
   -0.8777    1.9288   -0.7296 H   0  0  0  0  0  0  0  0  0  0  0  0
   -0.0000    2.7984    0.5640 H   0  0  0  0  0  0  0  0  0  0  0  0
    0.8777    1.9288   -0.7296 H   0  0  0  0  0  0  0  0  0  0  0  0
  1  2  2  0
  1  3  1  0
  1  4  1  0
  5  6  1  0
  5  8  1  0
  5  9  1  0
  5 10  1  0
  6  7  2  0
M  RAD  1   6   2
M  END
>  <reaction>  (16) 
rxn_366

>  <mol_properties>  (16) 
{"0": {"label": "*3", "atom_type": "CO"}, "1": {"label": "*4", "atom_type": "O2d"}, "2": {"label": "*2", "atom_type": "H0"}, "5": {"label": "*1", "atom_type": "CO"}, "6": {"label": "*0", "atom_type": "O2d"}}

>  <type>  (16) 
unop_12

>  <geom_source>  (16) 
Heuristics

$$$$

     RDKit          3D

 10  8  0  0  0  0  0  0  0  0999 V2000
   -1.0724   -0.1084    1.8610 O   0  0  0  0  0  0  0  0  0  0  0  0
    2.0408    0.2022   -1.0153 O   0  0  0  0  0  0  0  0  0  0  0  0
   -1.1816   -0.6780   -0.4222 C   0  0  0  0  0  0  0  0  0  0  0  0
   -0.5657   -0.0007    0.7562 C   0  0  0  0  0  0  0  0  0  0  0  0
    1.7357    0.9018   -0.0642 C   0  0  0  0  0  3  0  0  0  0  0  0
   -2.2154   -0.3029   -0.5734 H   0  0  0  0  0  0  0  0  0  0  0  0
   -1.2069   -1.7751   -0.2543 H   0  0  0  0  0  0  0  0  0  0  0  0
   -0.5803   -0.4628   -1.3296 H   0  0  0  0  0  0  0  0  0  0  0  0
    0.5527    0.7320    0.6018 H   0  0  0  0  0  0  0  0  0  0  0  0
    2.4931    1.4919    0.4399 H   0  0  0  0  0  0  0  0  0  0  0  0
  1  4  2  0
  2  5  2  0
  3  4  1  0
  3  6  1  0
  3  7  1  0
  3  8  1  0
  4  9  1  0
  5 10  1  0
M  RAD  1   5   2
M  END
>  <reaction>  (17) 
rxn_366

>  <mol_properties>  (17) 
{"0": {"label": "*3", "atom_type": "CO"}, "1": {"label": "*4", "atom_type": "O2d"}, "2": {"label": "*2", "atom_type": "H0"}, "5": {"label": "*1", "atom_type": "CO"}, "6": {"label": "*0", "atom_type": "O2d"}}

>  <type>  (17) 
unop_13

>  <geom_source>  (17) 
AutoTST

$$$$
