
     RDKit          3D

 12 11  0  0  0  0  0  0  0  0999 V2000
    1.2394   -0.3763   -0.3020 C   0  0  0  0  0  0  0  0  0  0  0  0
    0.1007    0.3024    0.4464 C   0  0  0  0  0  0  0  0  0  0  0  0
   -0.1187    2.0399   -0.0725 S   0  0  0  0  0  0  0  0  0  0  0  0
   -1.1974   -0.4877    0.3552 C   0  0  0  0  0  0  0  0  0  0  0  0
    2.1681    0.1850   -0.2048 H   0  0  0  0  0  0  0  0  0  0  0  0
    1.0030   -0.4604   -1.3656 H   0  0  0  0  0  0  0  0  0  0  0  0
    1.3993   -1.3856    0.0859 H   0  0  0  0  0  0  0  0  0  0  0  0
    0.3797    0.4050    1.4982 H   0  0  0  0  0  0  0  0  0  0  0  0
   -0.4500    1.7774   -1.3452 H   0  0  0  0  0  0  0  0  0  0  0  0
   -1.0545   -1.4977    0.7478 H   0  0  0  0  0  0  0  0  0  0  0  0
   -1.5206   -0.5758   -0.6849 H   0  0  0  0  0  0  0  0  0  0  0  0
   -1.9957   -0.0054    0.9183 H   0  0  0  0  0  0  0  0  0  0  0  0
  1  2  1  0
  1  5  1  0
  1  6  1  0
  1  7  1  0
  2  4  1  0
  2  3  1  0
  2  8  1  0
  3  9  1  0
  4 10  1  0
  4 11  1  0
  4 12  1  0
M  END
>  <reaction>  (1) 
rxn_1913

>  <mol_properties>  (1) 
{"1": {"label": "donator", "atom_type": "Cs"}, "7": {"label": "d_hydrogen", "atom_type": "H0"}}

>  <type>  (1) 
r1h

$$$$

     RDKit          3D

 11 10  0  0  0  0  0  0  0  0999 V2000
    2.0591    0.2533   -0.1061 C   0  0  0  0  0  0  0  0  0  0  0  0
    0.8045   -0.3111   -0.1535 C   0  0  0  0  0  0  0  0  0  0  0  0
   -0.3816    0.3942   -0.1885 C   0  0  0  0  0  3  0  0  0  0  0  0
   -1.7316   -0.2294   -0.2396 C   0  0  0  0  0  0  0  0  0  0  0  0
    2.9505   -0.3576   -0.0805 H   0  0  0  0  0  0  0  0  0  0  0  0
    2.1872    1.3290   -0.0933 H   0  0  0  0  0  0  0  0  0  0  0  0
    0.7385   -1.3970   -0.1643 H   0  0  0  0  0  0  0  0  0  0  0  0
   -0.3340    1.4795   -0.1783 H   0  0  0  0  0  0  0  0  0  0  0  0
   -1.6704   -1.3186   -0.2461 H   0  0  0  0  0  0  0  0  0  0  0  0
   -2.3404    0.0713    0.6191 H   0  0  0  0  0  0  0  0  0  0  0  0
   -2.2805    0.0851   -1.1331 H   0  0  0  0  0  0  0  0  0  0  0  0
  1  2  2  3
  1  5  1  0
  1  6  1  0
  2  3  1  0
  2  7  1  0
  3  4  1  0
  3  8  1  0
  4  9  1  0
  4 10  1  0
  4 11  1  0
M  RAD  1   3   2
M  END
>  <reaction>  (2) 
rxn_1913

>  <mol_properties>  (2) 
{"2": {"label": "acceptor", "atom_type": "Cs"}}

>  <type>  (2) 
r2

$$$$

     RDKit          3D

 12 11  0  0  0  0  0  0  0  0999 V2000
    1.9877    0.1011    0.4814 C   0  0  0  0  0  0  0  0  0  0  0  0
    0.8179    0.5502    0.0525 C   0  0  0  0  0  0  0  0  0  0  0  0
   -0.2939   -0.2692   -0.5320 C   0  0  0  0  0  0  0  0  0  0  0  0
   -0.0292   -1.7631   -0.6328 C   0  0  0  0  0  0  0  0  0  0  0  0
    2.2522   -0.9490    0.4436 H   0  0  0  0  0  0  0  0  0  0  0  0
    2.7295    0.7757    0.8896 H   0  0  0  0  0  0  0  0  0  0  0  0
    0.6162    1.6164    0.1190 H   0  0  0  0  0  0  0  0  0  0  0  0
   -0.5268    0.1319   -1.5245 H   0  0  0  0  0  0  0  0  0  0  0  0
   -1.1959   -0.0938    0.0644 H   0  0  0  0  0  0  0  0  0  0  0  0
    0.1590   -2.1992    0.3502 H   0  0  0  0  0  0  0  0  0  0  0  0
    0.8382   -1.9701   -1.2626 H   0  0  0  0  0  0  0  0  0  0  0  0
   -0.8879   -2.2759   -1.0672 H   0  0  0  0  0  0  0  0  0  0  0  0
  1  2  2  3
  1  5  1  0
  1  6  1  0
  2  3  1  0
  2  7  1  0
  3  4  1  0
  3  8  1  0
  3  9  1  0
  4 10  1  0
  4 11  1  0
  4 12  1  0
M  END
>  <reaction>  (3) 
rxn_1913

>  <mol_properties>  (3) 
{"0": {"label": "a_hydrogen", "atom_type": "H0"}, "3": {"label": "acceptor", "atom_type": "Cs"}}

>  <type>  (3) 
r2h

$$$$

     RDKit          3D

 23 21  0  0  0  0  0  0  0  0999 V2000
    0.3940    1.4694   -1.3607 C   0  0  0  0  0  0  0  0  0  0  0  0
    0.9535    0.6898   -0.1997 C   0  0  0  0  0  3  0  0  0  0  0  0
    2.0008   -0.6879   -0.6326 S   0  0  0  0  0  0  0  0  0  0  0  0
    1.5544    1.5112    0.9118 C   0  0  0  0  0  0  0  0  0  0  0  0
   -0.1829    0.8243   -2.0267 H   0  0  0  0  0  0  0  0  0  0  0  0
    1.1928    1.9346   -1.9471 H   0  0  0  0  0  0  0  0  0  0  0  0
   -0.2667    2.2604   -0.9983 H   0  0  0  0  0  0  0  0  0  0  0  0
   -0.1628    0.0960    0.3569 H   0  0  0  0  0  0  0  0  0  0  0  0
    1.1892   -1.2143   -1.5607 H   0  0  0  0  0  0  0  0  0  0  0  0
    0.8227    2.2389    1.2691 H   0  0  0  0  0  0  0  0  0  0  0  0
    2.4350    2.0662    0.5707 H   0  0  0  0  0  0  0  0  0  0  0  0
    1.8542    0.8864    1.7546 H   0  0  0  0  0  0  0  0  0  0  0  0
   -2.3553   -1.6074   -1.1171 C   0  0  0  0  0  0  0  0  0  0  0  0
   -1.5179   -1.5654   -0.0757 C   0  0  0  0  0  0  0  0  0  0  0  0
   -1.2859   -0.4227    0.8031 C   0  0  0  0  0  0  0  0  0  0  0  0
   -2.2752    0.7164    0.7955 C   0  0  0  0  0  0  0  0  0  0  0  0
   -2.4331   -2.4925   -1.7349 H   0  0  0  0  0  0  0  0  0  0  0  0
   -2.9987   -0.7744   -1.3741 H   0  0  0  0  0  0  0  0  0  0  0  0
   -0.9079   -2.4411    0.1278 H   0  0  0  0  0  0  0  0  0  0  0  0
   -0.9694   -0.7179    1.8034 H   0  0  0  0  0  0  0  0  0  0  0  0
   -3.2595    0.3914    1.1449 H   0  0  0  0  0  0  0  0  0  0  0  0
   -1.9392    1.5258    1.4454 H   0  0  0  0  0  0  0  0  0  0  0  0
   -2.4042    1.1288   -0.2072 H   0  0  0  0  0  0  0  0  0  0  0  0
  1  2  1  0
  1  5  1  0
  1  6  1  0
  1  7  1  0
  2  4  1  0
  2  3  1  0
  3  9  1  0
  4 10  1  0
  4 11  1  0
  4 12  1  0
  8 15  1  0
 13 14  2  3
 13 17  1  0
 13 18  1  0
 14 15  1  0
 14 19  1  0
 15 16  1  0
 15 20  1  0
 16 21  1  0
 16 22  1  0
 16 23  1  0
M  RAD  1   2   2
M  END
>  <reaction>  (4) 
rxn_1913

>  <mol_properties>  (4) 
{"1": {"label": "*3", "atom_type": "Cs"}, "2": {"label": "*4", "atom_type": "S2s"}, "7": {"label": "*2", "atom_type": "H0"}, "13": {"label": "*0", "atom_type": "Cd"}, "14": {"label": "*1", "atom_type": "Cs"}}

>  <type>  (4) 
ts

$$$$

     RDKit          3D

 23 21  0  0  0  0  0  0  0  0999 V2000
    0.7110    0.9774   -2.0901 C   0  0  0  0  0  0  0  0  0  0  0  0
    0.7110    0.9774   -0.5678 C   0  0  0  0  0  0  0  0  0  0  0  0
    2.0662   -0.0389    0.1158 S   0  0  0  0  0  0  0  0  0  0  0  0
    0.7110    2.3873    0.0062 C   0  0  0  0  0  0  0  0  0  0  0  0
    0.6825   -0.0369   -2.4868 H   0  0  0  0  0  0  0  0  0  0  0  0
    1.6095    1.4671   -2.4737 H   0  0  0  0  0  0  0  0  0  0  0  0
   -0.1559    1.5248   -2.4690 H   0  0  0  0  0  0  0  0  0  0  0  0
   -0.3568    0.3455   -0.1428 H   0  0  0  0  0  0  0  0  0  0  0  0
    3.0721    0.6969   -0.3791 H   0  0  0  0  0  0  0  0  0  0  0  0
   -0.1559    2.9446   -0.3580 H   0  0  0  0  0  0  0  0  0  0  0  0
    1.6095    2.9273   -0.3028 H   0  0  0  0  0  0  0  0  0  0  0  0
    0.6825    2.3723    1.0952 H   0  0  0  0  0  0  0  0  0  0  0  0
   -1.7033   -2.5178    1.4325 C   0  0  0  0  0  0  0  0  0  0  0  0
   -0.9793   -1.4572    1.1085 C   0  0  0  0  0  0  0  0  0  0  0  0
   -1.4272   -0.2879    0.2832 C   0  0  0  0  0  3  0  0  0  0  0  0
   -2.8602   -0.3476   -0.2215 C   0  0  0  0  0  0  0  0  0  0  0  0
   -1.2878   -3.3146    2.0362 H   0  0  0  0  0  0  0  0  0  0  0  0
   -2.7317   -2.6347    1.1118 H   0  0  0  0  0  0  0  0  0  0  0  0
    0.0469   -1.4023    1.4632 H   0  0  0  0  0  0  0  0  0  0  0  0
   -1.2824    0.6223    0.8755 H   0  0  0  0  0  0  0  0  0  0  0  0
   -3.5700   -0.3999    0.6063 H   0  0  0  0  0  0  0  0  0  0  0  0
   -3.0968    0.5401   -0.8092 H   0  0  0  0  0  0  0  0  0  0  0  0
   -3.0207   -1.2215   -0.8559 H   0  0  0  0  0  0  0  0  0  0  0  0
  1  2  1  0
  1  5  1  0
  1  6  1  0
  1  7  1  0
  2  4  1  0
  2  3  1  0
  2  8  1  0
  3  9  1  0
  4 10  1  0
  4 11  1  0
  4 12  1  0
 13 14  2  3
 13 17  1  0
 13 18  1  0
 14 15  1  0
 14 19  1  0
 15 16  1  0
 15 20  1  0
 16 21  1  0
 16 22  1  0
 16 23  1  0
M  RAD  1  15   2
M  END
>  <reaction>  (5) 
rxn_1913

>  <mol_properties>  (5) 
{"1": {"label": "*3", "atom_type": "Cs"}, "2": {"label": "*4", "atom_type": "S2s"}, "7": {"label": "*2", "atom_type": "H0"}, "13": {"label": "*0", "atom_type": "Cd"}, "14": {"label": "*1", "atom_type": "Cs"}}

>  <type>  (5) 
unop_1

>  <geom_source>  (5) 
Heuristics

$$$$

     RDKit          3D

 23 21  0  0  0  0  0  0  0  0999 V2000
    0.9004    0.7905   -1.7649 C   0  0  0  0  0  0  0  0  0  0  0  0
    0.9004    0.7905   -0.2425 C   0  0  0  0  0  0  0  0  0  0  0  0
    2.2556   -0.2258    0.4411 S   0  0  0  0  0  0  0  0  0  0  0  0
    0.9004    2.2005    0.3315 C   0  0  0  0  0  0  0  0  0  0  0  0
    0.8719   -0.2237   -2.1615 H   0  0  0  0  0  0  0  0  0  0  0  0
    1.7989    1.2803   -2.1484 H   0  0  0  0  0  0  0  0  0  0  0  0
    0.0335    1.3379   -2.1437 H   0  0  0  0  0  0  0  0  0  0  0  0
   -0.1675    0.1586    0.1825 H   0  0  0  0  0  0  0  0  0  0  0  0
    3.2615    0.5100   -0.0539 H   0  0  0  0  0  0  0  0  0  0  0  0
    0.0335    2.7578   -0.0327 H   0  0  0  0  0  0  0  0  0  0  0  0
    1.7989    2.7404    0.0225 H   0  0  0  0  0  0  0  0  0  0  0  0
    0.8719    2.1855    1.4204 H   0  0  0  0  0  0  0  0  0  0  0  0
   -2.8204   -1.8598   -0.7866 C   0  0  0  0  0  0  0  0  0  0  0  0
   -1.5986   -1.5163   -0.4083 C   0  0  0  0  0  0  0  0  0  0  0  0
   -1.2378   -0.4747    0.6085 C   0  0  0  0  0  3  0  0  0  0  0  0
   -2.4086    0.2466    1.2573 C   0  0  0  0  0  0  0  0  0  0  0  0
   -2.9790   -2.6283   -1.5326 H   0  0  0  0  0  0  0  0  0  0  0  0
   -3.7060   -1.3931   -0.3718 H   0  0  0  0  0  0  0  0  0  0  0  0
   -0.7528   -2.0245   -0.8647 H   0  0  0  0  0  0  0  0  0  0  0  0
   -0.6243   -0.9512    1.3810 H   0  0  0  0  0  0  0  0  0  0  0  0
   -3.0611   -0.4519    1.7848 H   0  0  0  0  0  0  0  0  0  0  0  0
   -2.0528    0.9823    1.9794 H   0  0  0  0  0  0  0  0  0  0  0  0
   -3.0115    0.7717    0.5139 H   0  0  0  0  0  0  0  0  0  0  0  0
  1  2  1  0
  1  5  1  0
  1  6  1  0
  1  7  1  0
  2  4  1  0
  2  3  1  0
  2  8  1  0
  3  9  1  0
  4 10  1  0
  4 11  1  0
  4 12  1  0
 13 14  2  3
 13 17  1  0
 13 18  1  0
 14 15  1  0
 14 19  1  0
 15 16  1  0
 15 20  1  0
 16 21  1  0
 16 22  1  0
 16 23  1  0
M  RAD  1  15   2
M  END
>  <reaction>  (6) 
rxn_1913

>  <mol_properties>  (6) 
{"1": {"label": "*3", "atom_type": "Cs"}, "2": {"label": "*4", "atom_type": "S2s"}, "7": {"label": "*2", "atom_type": "H0"}, "13": {"label": "*0", "atom_type": "Cd"}, "14": {"label": "*1", "atom_type": "Cs"}}

>  <type>  (6) 
unop_2

>  <geom_source>  (6) 
Heuristics

$$$$

     RDKit          3D

 23 21  0  0  0  0  0  0  0  0999 V2000
    0.6726    0.9477   -2.1700 C   0  0  0  0  0  0  0  0  0  0  0  0
    0.6726    0.9477   -0.6477 C   0  0  0  0  0  0  0  0  0  0  0  0
    2.0277   -0.0686    0.0359 S   0  0  0  0  0  0  0  0  0  0  0  0
    0.6726    2.3577   -0.0737 C   0  0  0  0  0  0  0  0  0  0  0  0
    0.6441   -0.0666   -2.5667 H   0  0  0  0  0  0  0  0  0  0  0  0
    1.5710    1.4374   -2.5536 H   0  0  0  0  0  0  0  0  0  0  0  0
   -0.1943    1.4951   -2.5489 H   0  0  0  0  0  0  0  0  0  0  0  0
   -0.3953    0.3158   -0.2227 H   0  0  0  0  0  0  0  0  0  0  0  0
    3.0336    0.6672   -0.4590 H   0  0  0  0  0  0  0  0  0  0  0  0
   -0.1943    2.9150   -0.4379 H   0  0  0  0  0  0  0  0  0  0  0  0
    1.5710    2.8976   -0.3827 H   0  0  0  0  0  0  0  0  0  0  0  0
    0.6441    2.3426    1.0153 H   0  0  0  0  0  0  0  0  0  0  0  0
   -1.6656   -2.0611    2.0170 C   0  0  0  0  0  0  0  0  0  0  0  0
   -1.1379   -0.9518    1.5222 C   0  0  0  0  0  0  0  0  0  0  0  0
   -1.4656   -0.3176    0.2033 C   0  0  0  0  0  3  0  0  0  0  0  0
   -2.5115   -1.0380   -0.6328 C   0  0  0  0  0  0  0  0  0  0  0  0
   -1.3618   -2.4412    2.9841 H   0  0  0  0  0  0  0  0  0  0  0  0
   -2.4161   -2.6317    1.4829 H   0  0  0  0  0  0  0  0  0  0  0  0
   -0.3890   -0.4271    2.1102 H   0  0  0  0  0  0  0  0  0  0  0  0
   -1.7892    0.7120    0.3917 H   0  0  0  0  0  0  0  0  0  0  0  0
   -3.4645   -1.1039   -0.1044 H   0  0  0  0  0  0  0  0  0  0  0  0
   -2.6848   -0.5076   -1.5698 H   0  0  0  0  0  0  0  0  0  0  0  0
   -2.1930   -2.0533   -0.8769 H   0  0  0  0  0  0  0  0  0  0  0  0
  1  2  1  0
  1  5  1  0
  1  6  1  0
  1  7  1  0
  2  4  1  0
  2  3  1  0
  2  8  1  0
  3  9  1  0
  4 10  1  0
  4 11  1  0
  4 12  1  0
 13 14  2  3
 13 17  1  0
 13 18  1  0
 14 15  1  0
 14 19  1  0
 15 16  1  0
 15 20  1  0
 16 21  1  0
 16 22  1  0
 16 23  1  0
M  RAD  1  15   2
M  END
>  <reaction>  (7) 
rxn_1913

>  <mol_properties>  (7) 
{"1": {"label": "*3", "atom_type": "Cs"}, "2": {"label": "*4", "atom_type": "S2s"}, "7": {"label": "*2", "atom_type": "H0"}, "13": {"label": "*0", "atom_type": "Cd"}, "14": {"label": "*1", "atom_type": "Cs"}}

>  <type>  (7) 
unop_3

>  <geom_source>  (7) 
Heuristics

$$$$

     RDKit          3D

 23 21  0  0  0  0  0  0  0  0999 V2000
    0.8277    0.3156   -2.0560 C   0  0  0  0  0  0  0  0  0  0  0  0
    0.8277    0.3156   -0.5336 C   0  0  0  0  0  0  0  0  0  0  0  0
    2.1828   -0.7007    0.1499 S   0  0  0  0  0  0  0  0  0  0  0  0
    0.8277    1.7256    0.0403 C   0  0  0  0  0  0  0  0  0  0  0  0
    0.7991   -0.6987   -2.4527 H   0  0  0  0  0  0  0  0  0  0  0  0
    1.7261    0.8053   -2.4396 H   0  0  0  0  0  0  0  0  0  0  0  0
   -0.0393    0.8630   -2.4348 H   0  0  0  0  0  0  0  0  0  0  0  0
   -0.2402   -0.3163   -0.1086 H   0  0  0  0  0  0  0  0  0  0  0  0
    3.1887    0.0351   -0.3450 H   0  0  0  0  0  0  0  0  0  0  0  0
   -0.0393    2.2829   -0.3239 H   0  0  0  0  0  0  0  0  0  0  0  0
    1.7261    2.2655   -0.2686 H   0  0  0  0  0  0  0  0  0  0  0  0
    0.7991    1.7106    1.1293 H   0  0  0  0  0  0  0  0  0  0  0  0
   -3.1855    0.7375    0.4046 C   0  0  0  0  0  0  0  0  0  0  0  0
   -2.5175   -0.2294   -0.2059 C   0  0  0  0  0  0  0  0  0  0  0  0
   -1.3106   -0.9497    0.3173 C   0  0  0  0  0  3  0  0  0  0  0  0
   -0.8228   -0.5089    1.6883 C   0  0  0  0  0  0  0  0  0  0  0  0
   -4.0495    1.1977   -0.0578 H   0  0  0  0  0  0  0  0  0  0  0  0
   -2.9012    1.1074    1.3826 H   0  0  0  0  0  0  0  0  0  0  0  0
   -2.8561   -0.5538   -1.1867 H   0  0  0  0  0  0  0  0  0  0  0  0
   -1.5341   -2.0220    0.3326 H   0  0  0  0  0  0  0  0  0  0  0  0
   -1.5927   -0.6546    2.4485 H   0  0  0  0  0  0  0  0  0  0  0  0
    0.0544   -1.0844    1.9862 H   0  0  0  0  0  0  0  0  0  0  0  0
   -0.5465    0.5473    1.6898 H   0  0  0  0  0  0  0  0  0  0  0  0
  1  2  1  0
  1  5  1  0
  1  6  1  0
  1  7  1  0
  2  4  1  0
  2  3  1  0
  2  8  1  0
  3  9  1  0
  4 10  1  0
  4 11  1  0
  4 12  1  0
 13 14  2  3
 13 17  1  0
 13 18  1  0
 14 15  1  0
 14 19  1  0
 15 16  1  0
 15 20  1  0
 16 21  1  0
 16 22  1  0
 16 23  1  0
M  RAD  1  15   2
M  END
>  <reaction>  (8) 
rxn_1913

>  <mol_properties>  (8) 
{"1": {"label": "*3", "atom_type": "Cs"}, "2": {"label": "*4", "atom_type": "S2s"}, "7": {"label": "*2", "atom_type": "H0"}, "13": {"label": "*0", "atom_type": "Cd"}, "14": {"label": "*1", "atom_type": "Cs"}}

>  <type>  (8) 
unop_4

>  <geom_source>  (8) 
Heuristics

$$$$

     RDKit          3D

 23 21  0  0  0  0  0  0  0  0999 V2000
    0.5736    0.8871   -2.2591 C   0  0  0  0  0  0  0  0  0  0  0  0
    0.5736    0.8871   -0.7367 C   0  0  0  0  0  0  0  0  0  0  0  0
    1.9287   -0.1292   -0.0532 S   0  0  0  0  0  0  0  0  0  0  0  0
    0.5736    2.2971   -0.1628 C   0  0  0  0  0  0  0  0  0  0  0  0
    0.5451   -0.1272   -2.6558 H   0  0  0  0  0  0  0  0  0  0  0  0
    1.4720    1.3768   -2.6427 H   0  0  0  0  0  0  0  0  0  0  0  0
   -0.2933    1.4345   -2.6379 H   0  0  0  0  0  0  0  0  0  0  0  0
   -0.4943    0.2552   -0.3117 H   0  0  0  0  0  0  0  0  0  0  0  0
    2.9346    0.6066   -0.5481 H   0  0  0  0  0  0  0  0  0  0  0  0
   -0.2933    2.8544   -0.5270 H   0  0  0  0  0  0  0  0  0  0  0  0
    1.4720    2.8370   -0.4717 H   0  0  0  0  0  0  0  0  0  0  0  0
    0.5451    2.2821    0.9262 H   0  0  0  0  0  0  0  0  0  0  0  0
   -1.5886   -1.4242    2.4109 C   0  0  0  0  0  0  0  0  0  0  0  0
   -1.5466   -0.3675    1.6138 C   0  0  0  0  0  0  0  0  0  0  0  0
   -1.5646   -0.3781    0.1142 C   0  0  0  0  0  3  0  0  0  0  0  0
   -1.6389   -1.7513   -0.5344 C   0  0  0  0  0  0  0  0  0  0  0  0
   -1.5707   -1.3129    3.4876 H   0  0  0  0  0  0  0  0  0  0  0  0
   -1.6423   -2.4359    2.0263 H   0  0  0  0  0  0  0  0  0  0  0  0
   -1.4933    0.6202    2.0651 H   0  0  0  0  0  0  0  0  0  0  0  0
   -2.4093    0.2340   -0.2205 H   0  0  0  0  0  0  0  0  0  0  0  0
   -2.5448   -2.2823   -0.2353 H   0  0  0  0  0  0  0  0  0  0  0  0
   -1.6473   -1.6618   -1.6212 H   0  0  0  0  0  0  0  0  0  0  0  0
   -0.7821   -2.3679   -0.2559 H   0  0  0  0  0  0  0  0  0  0  0  0
  1  2  1  0
  1  5  1  0
  1  6  1  0
  1  7  1  0
  2  4  1  0
  2  3  1  0
  2  8  1  0
  3  9  1  0
  4 10  1  0
  4 11  1  0
  4 12  1  0
 13 14  2  3
 13 17  1  0
 13 18  1  0
 14 15  1  0
 14 19  1  0
 15 16  1  0
 15 20  1  0
 16 21  1  0
 16 22  1  0
 16 23  1  0
M  RAD  1  15   2
M  END
>  <reaction>  (9) 
rxn_1913

>  <mol_properties>  (9) 
{"1": {"label": "*3", "atom_type": "Cs"}, "2": {"label": "*4", "atom_type": "S2s"}, "7": {"label": "*2", "atom_type": "H0"}, "13": {"label": "*0", "atom_type": "Cd"}, "14": {"label": "*1", "atom_type": "Cs"}}

>  <type>  (9) 
unop_5

>  <geom_source>  (9) 
Heuristics

$$$$

     RDKit          3D

 23 21  0  0  0  0  0  0  0  0999 V2000
    0.7059    0.3437   -2.2219 C   0  0  0  0  0  0  0  0  0  0  0  0
    0.7059    0.3437   -0.6995 C   0  0  0  0  0  0  0  0  0  0  0  0
    2.0610   -0.6726   -0.0160 S   0  0  0  0  0  0  0  0  0  0  0  0
    0.7059    1.7537   -0.1255 C   0  0  0  0  0  0  0  0  0  0  0  0
    0.6773   -0.6706   -2.6185 H   0  0  0  0  0  0  0  0  0  0  0  0
    1.6043    0.8334   -2.6054 H   0  0  0  0  0  0  0  0  0  0  0  0
   -0.1611    0.8911   -2.6007 H   0  0  0  0  0  0  0  0  0  0  0  0
   -0.3620   -0.2882   -0.2745 H   0  0  0  0  0  0  0  0  0  0  0  0
    3.0669    0.0632   -0.5109 H   0  0  0  0  0  0  0  0  0  0  0  0
   -0.1611    2.3110   -0.4897 H   0  0  0  0  0  0  0  0  0  0  0  0
    1.6043    2.2936   -0.4345 H   0  0  0  0  0  0  0  0  0  0  0  0
    0.6773    1.7386    0.9634 H   0  0  0  0  0  0  0  0  0  0  0  0
   -2.7637    0.8537    1.3538 C   0  0  0  0  0  0  0  0  0  0  0  0
   -2.5377    0.0807    0.3025 C   0  0  0  0  0  0  0  0  0  0  0  0
   -1.4324   -0.9216    0.1515 C   0  0  0  0  0  3  0  0  0  0  0  0
   -0.4884   -1.0456    1.3370 C   0  0  0  0  0  0  0  0  0  0  0  0
   -3.5926    1.5499    1.3675 H   0  0  0  0  0  0  0  0  0  0  0  0
   -2.1368    0.8248    2.2372 H   0  0  0  0  0  0  0  0  0  0  0  0
   -3.2055    0.1596   -0.5518 H   0  0  0  0  0  0  0  0  0  0  0  0
   -1.8837   -1.8963   -0.0642 H   0  0  0  0  0  0  0  0  0  0  0  0
   -1.0236   -1.3463    2.2398 H   0  0  0  0  0  0  0  0  0  0  0  0
    0.2796   -1.7939    1.1386 H   0  0  0  0  0  0  0  0  0  0  0  0
    0.0130   -0.0984    1.5449 H   0  0  0  0  0  0  0  0  0  0  0  0
  1  2  1  0
  1  5  1  0
  1  6  1  0
  1  7  1  0
  2  4  1  0
  2  3  1  0
  2  8  1  0
  3  9  1  0
  4 10  1  0
  4 11  1  0
  4 12  1  0
 13 14  2  3
 13 17  1  0
 13 18  1  0
 14 15  1  0
 14 19  1  0
 15 16  1  0
 15 20  1  0
 16 21  1  0
 16 22  1  0
 16 23  1  0
M  RAD  1  15   2
M  END
>  <reaction>  (10) 
rxn_1913

>  <mol_properties>  (10) 
{"1": {"label": "*3", "atom_type": "Cs"}, "2": {"label": "*4", "atom_type": "S2s"}, "7": {"label": "*2", "atom_type": "H0"}, "13": {"label": "*0", "atom_type": "Cd"}, "14": {"label": "*1", "atom_type": "Cs"}}

>  <type>  (10) 
unop_6

>  <geom_source>  (10) 
Heuristics

$$$$

     RDKit          3D

 23 21  0  0  0  0  0  0  0  0999 V2000
    0.5831    0.4786   -2.3342 C   0  0  0  0  0  0  0  0  0  0  0  0
    0.5831    0.4786   -0.8119 C   0  0  0  0  0  0  0  0  0  0  0  0
    1.9382   -0.5377   -0.1283 S   0  0  0  0  0  0  0  0  0  0  0  0
    0.5831    1.8886   -0.2379 C   0  0  0  0  0  0  0  0  0  0  0  0
    0.5545   -0.5357   -2.7309 H   0  0  0  0  0  0  0  0  0  0  0  0
    1.4815    0.9683   -2.7178 H   0  0  0  0  0  0  0  0  0  0  0  0
   -0.2839    1.0260   -2.7131 H   0  0  0  0  0  0  0  0  0  0  0  0
   -0.4848   -0.1533   -0.3869 H   0  0  0  0  0  0  0  0  0  0  0  0
    2.9441    0.1981   -0.6232 H   0  0  0  0  0  0  0  0  0  0  0  0
   -0.2839    2.4458   -0.6021 H   0  0  0  0  0  0  0  0  0  0  0  0
    1.4815    2.4285   -0.5469 H   0  0  0  0  0  0  0  0  0  0  0  0
    0.5545    1.8735    0.8511 H   0  0  0  0  0  0  0  0  0  0  0  0
   -2.2020    0.4328    2.1519 C   0  0  0  0  0  0  0  0  0  0  0  0
   -2.3645    0.1688    0.8644 C   0  0  0  0  0  0  0  0  0  0  0  0
   -1.5552   -0.7867    0.0391 C   0  0  0  0  0  3  0  0  0  0  0  0
   -0.4415   -1.5141    0.7756 C   0  0  0  0  0  0  0  0  0  0  0  0
   -2.8409    1.1427    2.6617 H   0  0  0  0  0  0  0  0  0  0  0  0
   -1.4314   -0.0438    2.7463 H   0  0  0  0  0  0  0  0  0  0  0  0
   -3.1574    0.6823    0.3262 H   0  0  0  0  0  0  0  0  0  0  0  0
   -2.2402   -1.5161   -0.4069 H   0  0  0  0  0  0  0  0  0  0  0  0
   -0.8361   -2.1130    1.5987 H   0  0  0  0  0  0  0  0  0  0  0  0
    0.0908   -2.1843    0.0997 H   0  0  0  0  0  0  0  0  0  0  0  0
    0.2839   -0.8116    1.1904 H   0  0  0  0  0  0  0  0  0  0  0  0
  1  2  1  0
  1  5  1  0
  1  6  1  0
  1  7  1  0
  2  4  1  0
  2  3  1  0
  2  8  1  0
  3  9  1  0
  4 10  1  0
  4 11  1  0
  4 12  1  0
 13 14  2  3
 13 17  1  0
 13 18  1  0
 14 15  1  0
 14 19  1  0
 15 16  1  0
 15 20  1  0
 16 21  1  0
 16 22  1  0
 16 23  1  0
M  RAD  1  15   2
M  END
>  <reaction>  (11) 
rxn_1913

>  <mol_properties>  (11) 
{"1": {"label": "*3", "atom_type": "Cs"}, "2": {"label": "*4", "atom_type": "S2s"}, "7": {"label": "*2", "atom_type": "H0"}, "13": {"label": "*0", "atom_type": "Cd"}, "14": {"label": "*1", "atom_type": "Cs"}}

>  <type>  (11) 
unop_7

>  <geom_source>  (11) 
Heuristics

$$$$

     RDKit          3D

 23 21  0  0  0  0  0  0  0  0999 V2000
    0.7501    0.9889   -1.9761 C   0  0  0  0  0  0  0  0  0  0  0  0
    0.7501    0.9889   -0.4538 C   0  0  0  0  0  0  0  0  0  0  0  0
    2.1052   -0.0274    0.2298 S   0  0  0  0  0  0  0  0  0  0  0  0
    0.7501    2.3989    0.1202 C   0  0  0  0  0  0  0  0  0  0  0  0
    0.7216   -0.0254   -2.3728 H   0  0  0  0  0  0  0  0  0  0  0  0
    1.6485    1.4786   -2.3597 H   0  0  0  0  0  0  0  0  0  0  0  0
   -0.1168    1.5363   -2.3550 H   0  0  0  0  0  0  0  0  0  0  0  0
   -0.3178    0.3570   -0.0288 H   0  0  0  0  0  0  0  0  0  0  0  0
    3.1111    0.7084   -0.2651 H   0  0  0  0  0  0  0  0  0  0  0  0
   -0.1168    2.9562   -0.2440 H   0  0  0  0  0  0  0  0  0  0  0  0
    1.6485    2.9388   -0.1888 H   0  0  0  0  0  0  0  0  0  0  0  0
    0.7216    2.3838    1.2092 H   0  0  0  0  0  0  0  0  0  0  0  0
   -1.8941   -2.7380    0.6295 C   0  0  0  0  0  0  0  0  0  0  0  0
   -1.0418   -1.7277    0.5482 C   0  0  0  0  0  0  0  0  0  0  0  0
   -1.3882   -0.2764    0.3972 C   0  0  0  0  0  3  0  0  0  0  0  0
   -2.8732    0.0437    0.3331 C   0  0  0  0  0  0  0  0  0  0  0  0
   -1.5443   -3.7568    0.7378 H   0  0  0  0  0  0  0  0  0  0  0  0
   -2.9673   -2.5926    0.5916 H   0  0  0  0  0  0  0  0  0  0  0  0
    0.0229   -1.9431    0.5928 H   0  0  0  0  0  0  0  0  0  0  0  0
   -0.9283    0.2716    1.2270 H   0  0  0  0  0  0  0  0  0  0  0  0
   -3.3874   -0.2785    1.2406 H   0  0  0  0  0  0  0  0  0  0  0  0
   -3.0294    1.1174    0.2236 H   0  0  0  0  0  0  0  0  0  0  0  0
   -3.3490   -0.4520   -0.5153 H   0  0  0  0  0  0  0  0  0  0  0  0
  1  2  1  0
  1  5  1  0
  1  6  1  0
  1  7  1  0
  2  4  1  0
  2  3  1  0
  2  8  1  0
  3  9  1  0
  4 10  1  0
  4 11  1  0
  4 12  1  0
 13 14  2  3
 13 17  1  0
 13 18  1  0
 14 15  1  0
 14 19  1  0
 15 16  1  0
 15 20  1  0
 16 21  1  0
 16 22  1  0
 16 23  1  0
M  RAD  1  15   2
M  END
>  <reaction>  (12) 
rxn_1913

>  <mol_properties>  (12) 
{"1": {"label": "*3", "atom_type": "Cs"}, "2": {"label": "*4", "atom_type": "S2s"}, "7": {"label": "*2", "atom_type": "H0"}, "13": {"label": "*0", "atom_type": "Cd"}, "14": {"label": "*1", "atom_type": "Cs"}}

>  <type>  (12) 
unop_8

>  <geom_source>  (12) 
Heuristics

$$$$

     RDKit          3D

 23 21  0  0  0  0  0  0  0  0999 V2000
    0.9171    0.4020   -1.8878 C   0  0  0  0  0  0  0  0  0  0  0  0
    0.9171    0.4020   -0.3655 C   0  0  0  0  0  0  0  0  0  0  0  0
    2.2722   -0.6143    0.3181 S   0  0  0  0  0  0  0  0  0  0  0  0
    0.9171    1.8120    0.2085 C   0  0  0  0  0  0  0  0  0  0  0  0
    0.8886   -0.6122   -2.2845 H   0  0  0  0  0  0  0  0  0  0  0  0
    1.8155    0.8918   -2.2714 H   0  0  0  0  0  0  0  0  0  0  0  0
    0.0502    0.9495   -2.2667 H   0  0  0  0  0  0  0  0  0  0  0  0
   -0.1508   -0.2298    0.0595 H   0  0  0  0  0  0  0  0  0  0  0  0
    3.2781    0.1216   -0.1769 H   0  0  0  0  0  0  0  0  0  0  0  0
    0.0502    2.3693   -0.1557 H   0  0  0  0  0  0  0  0  0  0  0  0
    1.8155    2.3519   -0.1005 H   0  0  0  0  0  0  0  0  0  0  0  0
    0.8886    1.7970    1.2974 H   0  0  0  0  0  0  0  0  0  0  0  0
   -3.3616    0.1169   -0.4241 C   0  0  0  0  0  0  0  0  0  0  0  0
   -2.3078   -0.6781   -0.5313 C   0  0  0  0  0  0  0  0  0  0  0  0
   -1.2212   -0.8632    0.4855 C   0  0  0  0  0  3  0  0  0  0  0  0
   -1.3645   -0.0461    1.7597 C   0  0  0  0  0  0  0  0  0  0  0  0
   -4.0954    0.1819   -1.2174 H   0  0  0  0  0  0  0  0  0  0  0  0
   -3.5350    0.7308    0.4518 H   0  0  0  0  0  0  0  0  0  0  0  0
   -2.1937   -1.2677   -1.4375 H   0  0  0  0  0  0  0  0  0  0  0  0
   -1.1661   -1.9286    0.7348 H   0  0  0  0  0  0  0  0  0  0  0  0
   -2.2899   -0.2901    2.2849 H   0  0  0  0  0  0  0  0  0  0  0  0
   -0.5333   -0.2440    2.4374 H   0  0  0  0  0  0  0  0  0  0  0  0
   -1.3737    1.0243    1.5450 H   0  0  0  0  0  0  0  0  0  0  0  0
  1  2  1  0
  1  5  1  0
  1  6  1  0
  1  7  1  0
  2  4  1  0
  2  3  1  0
  2  8  1  0
  3  9  1  0
  4 10  1  0
  4 11  1  0
  4 12  1  0
 13 14  2  3
 13 17  1  0
 13 18  1  0
 14 15  1  0
 14 19  1  0
 15 16  1  0
 15 20  1  0
 16 21  1  0
 16 22  1  0
 16 23  1  0
M  RAD  1  15   2
M  END
>  <reaction>  (13) 
rxn_1913

>  <mol_properties>  (13) 
{"1": {"label": "*3", "atom_type": "Cs"}, "2": {"label": "*4", "atom_type": "S2s"}, "7": {"label": "*2", "atom_type": "H0"}, "13": {"label": "*0", "atom_type": "Cd"}, "14": {"label": "*1", "atom_type": "Cs"}}

>  <type>  (13) 
unop_9

>  <geom_source>  (13) 
Heuristics

$$$$

     RDKit          3D

 23 21  0  0  0  0  0  0  0  0999 V2000
    0.8189    0.9349   -1.8496 C   0  0  0  0  0  0  0  0  0  0  0  0
    0.8189    0.9349   -0.3273 C   0  0  0  0  0  0  0  0  0  0  0  0
    2.1741   -0.0814    0.3563 S   0  0  0  0  0  0  0  0  0  0  0  0
    0.8189    2.3449    0.2467 C   0  0  0  0  0  0  0  0  0  0  0  0
    0.7904   -0.0793   -2.2463 H   0  0  0  0  0  0  0  0  0  0  0  0
    1.7174    1.4247   -2.2332 H   0  0  0  0  0  0  0  0  0  0  0  0
   -0.0480    1.4824   -2.2285 H   0  0  0  0  0  0  0  0  0  0  0  0
   -0.2490    0.3030    0.0977 H   0  0  0  0  0  0  0  0  0  0  0  0
    3.1800    0.6545   -0.1386 H   0  0  0  0  0  0  0  0  0  0  0  0
   -0.0480    2.9022   -0.1175 H   0  0  0  0  0  0  0  0  0  0  0  0
    1.7174    2.8848   -0.0623 H   0  0  0  0  0  0  0  0  0  0  0  0
    0.7904    2.3299    1.3357 H   0  0  0  0  0  0  0  0  0  0  0  0
   -2.3017   -2.5383   -0.2037 C   0  0  0  0  0  0  0  0  0  0  0  0
   -1.2689   -1.7349    0.0005 C   0  0  0  0  0  0  0  0  0  0  0  0
   -1.3193   -0.3303    0.5237 C   0  0  0  0  0  3  0  0  0  0  0  0
   -2.7060    0.2040    0.8453 C   0  0  0  0  0  0  0  0  0  0  0  0
   -2.1622   -3.5413   -0.5866 H   0  0  0  0  0  0  0  0  0  0  0  0
   -3.3208   -2.2320    0.0007 H   0  0  0  0  0  0  0  0  0  0  0  0
   -0.2719   -2.1049   -0.2255 H   0  0  0  0  0  0  0  0  0  0  0  0
   -0.6872   -0.2768    1.4169 H   0  0  0  0  0  0  0  0  0  0  0  0
   -3.1967   -0.4019    1.6094 H   0  0  0  0  0  0  0  0  0  0  0  0
   -2.6456    1.2272    1.2177 H   0  0  0  0  0  0  0  0  0  0  0  0
   -3.3445    0.2074   -0.0403 H   0  0  0  0  0  0  0  0  0  0  0  0
  1  2  1  0
  1  5  1  0
  1  6  1  0
  1  7  1  0
  2  4  1  0
  2  3  1  0
  2  8  1  0
  3  9  1  0
  4 10  1  0
  4 11  1  0
  4 12  1  0
 13 14  2  3
 13 17  1  0
 13 18  1  0
 14 15  1  0
 14 19  1  0
 15 16  1  0
 15 20  1  0
 16 21  1  0
 16 22  1  0
 16 23  1  0
M  RAD  1  15   2
M  END
>  <reaction>  (14) 
rxn_1913

>  <mol_properties>  (14) 
{"1": {"label": "*3", "atom_type": "Cs"}, "2": {"label": "*4", "atom_type": "S2s"}, "7": {"label": "*2", "atom_type": "H0"}, "13": {"label": "*0", "atom_type": "Cd"}, "14": {"label": "*1", "atom_type": "Cs"}}

>  <type>  (14) 
unop_10

>  <geom_source>  (14) 
Heuristics

$$$$

     RDKit          3D

 23 21  0  0  0  0  0  0  0  0999 V2000
    0.5135    0.6931   -2.3487 C   0  0  0  0  0  0  0  0  0  0  0  0
    0.5135    0.6931   -0.8264 C   0  0  0  0  0  0  0  0  0  0  0  0
    1.8686   -0.3232   -0.1428 S   0  0  0  0  0  0  0  0  0  0  0  0
    0.5135    2.1031   -0.2524 C   0  0  0  0  0  0  0  0  0  0  0  0
    0.4849   -0.3211   -2.7454 H   0  0  0  0  0  0  0  0  0  0  0  0
    1.4119    1.1829   -2.7323 H   0  0  0  0  0  0  0  0  0  0  0  0
   -0.3534    1.2406   -2.7275 H   0  0  0  0  0  0  0  0  0  0  0  0
   -0.5544    0.0612   -0.4014 H   0  0  0  0  0  0  0  0  0  0  0  0
    2.8745    0.4126   -0.6377 H   0  0  0  0  0  0  0  0  0  0  0  0
   -0.3534    2.6604   -0.6166 H   0  0  0  0  0  0  0  0  0  0  0  0
    1.4119    2.6430   -0.5613 H   0  0  0  0  0  0  0  0  0  0  0  0
    0.4849    2.0881    0.8366 H   0  0  0  0  0  0  0  0  0  0  0  0
   -1.7097   -0.4436    2.5437 C   0  0  0  0  0  0  0  0  0  0  0  0
   -2.0229    0.0204    1.3435 C   0  0  0  0  0  0  0  0  0  0  0  0
   -1.6248   -0.5721    0.0246 C   0  0  0  0  0  3  0  0  0  0  0  0
   -0.7764   -1.8318    0.0971 C   0  0  0  0  0  0  0  0  0  0  0  0
   -2.0468    0.0579    3.4420 H   0  0  0  0  0  0  0  0  0  0  0  0
   -1.1091   -1.3352    2.6794 H   0  0  0  0  0  0  0  0  0  0  0  0
   -2.6291    0.9205    1.2779 H   0  0  0  0  0  0  0  0  0  0  0  0
   -2.5371   -0.7743   -0.5471 H   0  0  0  0  0  0  0  0  0  0  0  0
   -1.3006   -2.6328    0.6221 H   0  0  0  0  0  0  0  0  0  0  0  0
   -0.5359   -2.1900   -0.9045 H   0  0  0  0  0  0  0  0  0  0  0  0
    0.1633   -1.6470    0.6211 H   0  0  0  0  0  0  0  0  0  0  0  0
  1  2  1  0
  1  5  1  0
  1  6  1  0
  1  7  1  0
  2  4  1  0
  2  3  1  0
  2  8  1  0
  3  9  1  0
  4 10  1  0
  4 11  1  0
  4 12  1  0
 13 14  2  3
 13 17  1  0
 13 18  1  0
 14 15  1  0
 14 19  1  0
 15 16  1  0
 15 20  1  0
 16 21  1  0
 16 22  1  0
 16 23  1  0
M  RAD  1  15   2
M  END
>  <reaction>  (15) 
rxn_1913

>  <mol_properties>  (15) 
{"1": {"label": "*3", "atom_type": "Cs"}, "2": {"label": "*4", "atom_type": "S2s"}, "7": {"label": "*2", "atom_type": "H0"}, "13": {"label": "*0", "atom_type": "Cd"}, "14": {"label": "*1", "atom_type": "Cs"}}

>  <type>  (15) 
unop_11

>  <geom_source>  (15) 
Heuristics

$$$$

     RDKit          3D

 23 21  0  0  0  0  0  0  0  0999 V2000
    0.9454    0.5843   -1.7752 C   0  0  0  0  0  0  0  0  0  0  0  0
    0.9454    0.5843   -0.2529 C   0  0  0  0  0  0  0  0  0  0  0  0
    2.3005   -0.4320    0.4307 S   0  0  0  0  0  0  0  0  0  0  0  0
    0.9454    1.9943    0.3211 C   0  0  0  0  0  0  0  0  0  0  0  0
    0.9168   -0.4300   -2.1719 H   0  0  0  0  0  0  0  0  0  0  0  0
    1.8438    1.0740   -2.1588 H   0  0  0  0  0  0  0  0  0  0  0  0
    0.0784    1.1317   -2.1541 H   0  0  0  0  0  0  0  0  0  0  0  0
   -0.1225   -0.0476    0.1721 H   0  0  0  0  0  0  0  0  0  0  0  0
    3.3064    0.3038   -0.0642 H   0  0  0  0  0  0  0  0  0  0  0  0
    0.0784    2.5515   -0.0431 H   0  0  0  0  0  0  0  0  0  0  0  0
    1.8438    2.5342    0.0121 H   0  0  0  0  0  0  0  0  0  0  0  0
    0.9168    1.9792    1.4101 H   0  0  0  0  0  0  0  0  0  0  0  0
   -3.2332   -0.8563   -0.8770 C   0  0  0  0  0  0  0  0  0  0  0  0
   -1.9699   -1.1407   -0.5994 C   0  0  0  0  0  0  0  0  0  0  0  0
   -1.1929   -0.6810    0.5981 C   0  0  0  0  0  3  0  0  0  0  0  0
   -1.9521    0.1990    1.5785 C   0  0  0  0  0  0  0  0  0  0  0  0
   -3.7082   -1.2380   -1.7718 H   0  0  0  0  0  0  0  0  0  0  0  0
   -3.8413   -0.2363   -0.2290 H   0  0  0  0  0  0  0  0  0  0  0  0
   -1.4158   -1.7690   -1.2923 H   0  0  0  0  0  0  0  0  0  0  0  0
   -0.8112   -1.5671    1.1171 H   0  0  0  0  0  0  0  0  0  0  0  0
   -2.8216   -0.3205    1.9859 H   0  0  0  0  0  0  0  0  0  0  0  0
   -1.3111    0.4838    2.4135 H   0  0  0  0  0  0  0  0  0  0  0  0
   -2.3036    1.1146    1.0989 H   0  0  0  0  0  0  0  0  0  0  0  0
  1  2  1  0
  1  5  1  0
  1  6  1  0
  1  7  1  0
  2  4  1  0
  2  3  1  0
  2  8  1  0
  3  9  1  0
  4 10  1  0
  4 11  1  0
  4 12  1  0
 13 14  2  3
 13 17  1  0
 13 18  1  0
 14 15  1  0
 14 19  1  0
 15 16  1  0
 15 20  1  0
 16 21  1  0
 16 22  1  0
 16 23  1  0
M  RAD  1  15   2
M  END
>  <reaction>  (16) 
rxn_1913

>  <mol_properties>  (16) 
{"1": {"label": "*3", "atom_type": "Cs"}, "2": {"label": "*4", "atom_type": "S2s"}, "7": {"label": "*2", "atom_type": "H0"}, "13": {"label": "*0", "atom_type": "Cd"}, "14": {"label": "*1", "atom_type": "Cs"}}

>  <type>  (16) 
unop_12

>  <geom_source>  (16) 
Heuristics

$$$$

     RDKit          3D

 23 21  0  0  0  0  0  0  0  0999 V2000
   -1.1142   -2.2718   -0.4874 S   0  0  0  0  0  0  0  0  0  0  0  0
    1.1628    0.5716   -0.0584 C   0  0  0  0  0  3  0  0  0  0  0  0
    1.1665    1.9652    0.5586 C   0  0  0  0  0  0  0  0  0  0  0  0
   -2.2722   -0.0992    0.7519 C   0  0  0  0  0  0  0  0  0  0  0  0
   -1.5712    0.1755   -1.6556 C   0  0  0  0  0  0  0  0  0  0  0  0
   -1.2376   -0.4624   -0.3104 C   0  0  0  0  0  0  0  0  0  0  0  0
    2.1970   -0.3132    0.5790 C   0  0  0  0  0  0  0  0  0  0  0  0
    2.3299   -1.5862    0.2017 C   0  0  0  0  0  0  0  0  0  0  0  0
    1.3674    0.6546   -1.1478 H   0  0  0  0  0  0  0  0  0  0  0  0
   -0.0953    0.0054    0.1179 H   0  0  0  0  0  0  0  0  0  0  0  0
    0.9400    1.9037    1.6443 H   0  0  0  0  0  0  0  0  0  0  0  0
    2.1560    2.4495    0.4137 H   0  0  0  0  0  0  0  0  0  0  0  0
    0.3888    2.5873    0.0685 H   0  0  0  0  0  0  0  0  0  0  0  0
   -3.2763   -0.4793    0.4656 H   0  0  0  0  0  0  0  0  0  0  0  0
   -1.9813   -0.5425    1.7271 H   0  0  0  0  0  0  0  0  0  0  0  0
   -2.3205    1.0035    0.8729 H   0  0  0  0  0  0  0  0  0  0  0  0
   -1.6053    1.2807   -1.5533 H   0  0  0  0  0  0  0  0  0  0  0  0
   -0.7850   -0.0812   -2.3961 H   0  0  0  0  0  0  0  0  0  0  0  0
   -2.5532   -0.1874   -2.0280 H   0  0  0  0  0  0  0  0  0  0  0  0
    2.8457    0.0748    1.3602 H   0  0  0  0  0  0  0  0  0  0  0  0
    3.0784   -2.2167    0.6707 H   0  0  0  0  0  0  0  0  0  0  0  0
    1.6969   -2.0076   -0.5736 H   0  0  0  0  0  0  0  0  0  0  0  0
   -0.5173   -2.4243    0.7784 H   0  0  0  0  0  0  0  0  0  0  0  0
  1  6  1  0
  1 23  1  0
  2  3  1  0
  2  7  1  0
  2  9  1  0
  3 11  1  0
  3 12  1  0
  3 13  1  0
  4  6  1  0
  4 14  1  0
  4 15  1  0
  4 16  1  0
  5  6  1  0
  5 17  1  0
  5 18  1  0
  5 19  1  0
  6 10  1  0
  7  8  2  3
  7 20  1  0
  8 21  1  0
  8 22  1  0
M  RAD  1   2   2
M  END
>  <reaction>  (17) 
rxn_1913

>  <mol_properties>  (17) 
{"1": {"label": "*3", "atom_type": "Cs"}, "2": {"label": "*4", "atom_type": "S2s"}, "7": {"label": "*2", "atom_type": "H0"}, "13": {"label": "*0", "atom_type": "Cd"}, "14": {"label": "*1", "atom_type": "Cs"}}

>  <type>  (17) 
unop_13

>  <geom_source>  (17) 
AutoTST

$$$$
