
     RDKit          3D

 10  9  0  0  0  0  0  0  0  0999 V2000
    2.2738    0.0217   -0.0992 C   0  0  0  0  0  0  0  0  0  0  0  0
    1.1083    0.2960   -0.0695 C   0  0  0  0  0  0  0  0  0  0  0  0
   -0.3173    0.6046   -0.0227 C   0  0  0  0  0  0  0  0  0  0  0  0
   -1.1561   -0.5495    0.5292 C   0  0  0  0  0  0  0  0  0  0  0  0
    3.3097   -0.2166   -0.1277 H   0  0  0  0  0  0  0  0  0  0  0  0
   -0.6542    0.8617   -1.0302 H   0  0  0  0  0  0  0  0  0  0  0  0
   -0.4633    1.4978    0.5900 H   0  0  0  0  0  0  0  0  0  0  0  0
   -0.8485   -0.7997    1.5447 H   0  0  0  0  0  0  0  0  0  0  0  0
   -2.2115   -0.2752    0.5459 H   0  0  0  0  0  0  0  0  0  0  0  0
   -1.0409   -1.4407   -0.0879 H   0  0  0  0  0  0  0  0  0  0  0  0
  1  2  3  0
  1  5  1  0
  2  3  1  0
  3  4  1  0
  3  6  1  0
  3  7  1  0
  4  8  1  0
  4  9  1  0
  4 10  1  0
M  END
>  <reaction>  (1) 
rxn_1276

>  <mol_properties>  (1) 
{"2": {"label": "donator", "atom_type": "Cs"}, "5": {"label": "d_hydrogen", "atom_type": "H0"}}

>  <type>  (1) 
r1h

$$$$

     RDKit          3D

  9  8  0  0  0  0  0  0  0  0999 V2000
    1.8963   -0.1405   -0.2150 C   0  0  0  0  0  0  0  0  0  0  0  0
    0.6340    0.1486   -0.2254 C   0  0  0  0  0  3  0  0  0  0  0  0
   -0.6770    0.4501   -0.2373 C   0  0  0  0  0  0  0  0  0  0  0  0
   -1.6600   -0.2303    0.4662 C   0  0  0  0  0  0  0  0  0  0  0  0
    2.3274   -0.8354   -0.9313 H   0  0  0  0  0  0  0  0  0  0  0  0
    2.5751    0.2988    0.5117 H   0  0  0  0  0  0  0  0  0  0  0  0
   -0.9723    1.2966   -0.8520 H   0  0  0  0  0  0  0  0  0  0  0  0
   -2.6934    0.0777    0.4015 H   0  0  0  0  0  0  0  0  0  0  0  0
   -1.4140   -1.0782    1.0904 H   0  0  0  0  0  0  0  0  0  0  0  0
  1  2  2  3
  1  5  1  0
  1  6  1  0
  2  3  1  0
  3  4  2  3
  3  7  1  0
  4  8  1  0
  4  9  1  0
M  RAD  1   2   2
M  END
>  <reaction>  (2) 
rxn_1276

>  <mol_properties>  (2) 
{"1": {"label": "acceptor", "atom_type": "Cd"}}

>  <type>  (2) 
r2

$$$$

     RDKit          3D

 10  9  0  0  0  0  0  0  0  0999 V2000
    1.8334    0.0847   -0.1062 C   0  0  0  0  0  0  0  0  0  0  0  0
    0.5993   -0.4071   -0.0750 C   0  0  0  0  0  0  0  0  0  0  0  0
   -0.5993    0.4071    0.0750 C   0  0  0  0  0  0  0  0  0  0  0  0
   -1.8334   -0.0847    0.1062 C   0  0  0  0  0  0  0  0  0  0  0  0
    2.0179    1.1498   -0.0189 H   0  0  0  0  0  0  0  0  0  0  0  0
    2.6972   -0.5572   -0.2194 H   0  0  0  0  0  0  0  0  0  0  0  0
    0.4465   -1.4793   -0.1649 H   0  0  0  0  0  0  0  0  0  0  0  0
   -0.4465    1.4793    0.1649 H   0  0  0  0  0  0  0  0  0  0  0  0
   -2.0179   -1.1498    0.0189 H   0  0  0  0  0  0  0  0  0  0  0  0
   -2.6972    0.5572    0.2194 H   0  0  0  0  0  0  0  0  0  0  0  0
  1  2  2  3
  1  5  1  0
  1  6  1  0
  2  3  1  0
  2  7  1  0
  3  4  2  3
  3  8  1  0
  4  9  1  0
  4 10  1  0
M  END
>  <reaction>  (3) 
rxn_1276

>  <mol_properties>  (3) 
{"0": {"label": "a_hydrogen", "atom_type": "H0"}, "2": {"label": "acceptor", "atom_type": "Cd"}}

>  <type>  (3) 
r2h

$$$$

     RDKit          3D

 19 17  0  0  0  0  0  0  0  0999 V2000
   -2.0189    0.0761   -2.1956 C   0  0  0  0  0  0  0  0  0  0  0  0
   -1.7197    0.3620   -1.0681 C   0  0  0  0  0  0  0  0  0  0  0  0
   -1.3066    0.6885    0.2678 C   0  0  0  0  0  0  0  0  0  0  0  0
   -0.7240    2.0772    0.4564 C   0  0  0  0  0  0  0  0  0  0  0  0
   -2.2998   -0.1754   -3.1898 H   0  0  0  0  0  0  0  0  0  0  0  0
   -0.3906   -0.1063    0.5789 H   0  0  0  0  0  0  0  0  0  0  0  0
   -2.0812    0.4495    0.9977 H   0  0  0  0  0  0  0  0  0  0  0  0
   -1.4720    2.8477    0.2592 H   0  0  0  0  0  0  0  0  0  0  0  0
   -0.3642    2.1971    1.4788 H   0  0  0  0  0  0  0  0  0  0  0  0
    0.1145    2.2373   -0.2222 H   0  0  0  0  0  0  0  0  0  0  0  0
    0.5417   -1.3507    2.3132 C   0  0  0  0  0  0  0  0  0  0  0  0
    0.7293   -0.8773    1.0986 C   0  0  0  0  0  3  0  0  0  0  0  0
    1.8687   -0.9346    0.2134 C   0  0  0  0  0  0  0  0  0  0  0  0
    1.8654   -0.5180   -1.0492 C   0  0  0  0  0  0  0  0  0  0  0  0
   -0.3894   -1.2005    2.8480 H   0  0  0  0  0  0  0  0  0  0  0  0
    1.3151   -1.9204    2.8259 H   0  0  0  0  0  0  0  0  0  0  0  0
    2.7810   -1.3519    0.6401 H   0  0  0  0  0  0  0  0  0  0  0  0
    2.7544   -0.5897   -1.6620 H   0  0  0  0  0  0  0  0  0  0  0  0
    0.9739   -0.1071   -1.5085 H   0  0  0  0  0  0  0  0  0  0  0  0
  1  2  3  0
  1  5  1  0
  2  3  1  0
  3  4  1  0
  3  6  1  0
  3  7  1  0
  4  8  1  0
  4  9  1  0
  4 10  1  0
 11 12  2  3
 11 15  1  0
 11 16  1  0
 12 13  1  0
 13 14  2  3
 13 17  1  0
 14 18  1  0
 14 19  1  0
M  RAD  1  12   2
M  END
>  <reaction>  (4) 
rxn_1276

>  <mol_properties>  (4) 
{"1": {"label": "*0", "atom_type": "Ct"}, "2": {"label": "*1", "atom_type": "Cs"}, "5": {"label": "*2", "atom_type": "H0"}, "11": {"label": "*3", "atom_type": "Cd"}, "12": {"label": "*4", "atom_type": "Cd"}}

>  <type>  (4) 
ts

$$$$

     RDKit          3D

 19 17  0  0  0  0  0  0  0  0999 V2000
   -1.2813    0.2400   -2.8932 C   0  0  0  0  0  0  0  0  0  0  0  0
   -1.2813    0.2400   -1.6955 C   0  0  0  0  0  0  0  0  0  0  0  0
   -1.2813    0.2683   -0.2364 C   0  0  0  0  0  3  0  0  0  0  0  0
   -1.2813    1.6896    0.3292 C   0  0  0  0  0  0  0  0  0  0  0  0
   -1.2813    0.2400   -3.9565 H   0  0  0  0  0  0  0  0  0  0  0  0
   -0.2307   -0.3858    0.1977 H   0  0  0  0  0  0  0  0  0  0  0  0
   -2.1568   -0.2768    0.1253 H   0  0  0  0  0  0  0  0  0  0  0  0
   -2.1635    2.2375   -0.0022 H   0  0  0  0  0  0  0  0  0  0  0  0
   -1.2813    1.6624    1.4195 H   0  0  0  0  0  0  0  0  0  0  0  0
   -0.3991    2.2375   -0.0022 H   0  0  0  0  0  0  0  0  0  0  0  0
    0.4240   -2.2765    0.9044 C   0  0  0  0  0  0  0  0  0  0  0  0
    0.8139   -1.0362    0.6292 C   0  0  0  0  0  0  0  0  0  0  0  0
    1.7579   -0.2794    1.4407 C   0  0  0  0  0  0  0  0  0  0  0  0
    2.1477    0.9609    1.1655 C   0  0  0  0  0  0  0  0  0  0  0  0
   -0.2803   -2.8027    0.2737 H   0  0  0  0  0  0  0  0  0  0  0  0
    0.7997   -2.8055    1.7734 H   0  0  0  0  0  0  0  0  0  0  0  0
    2.1521   -0.7834    2.3190 H   0  0  0  0  0  0  0  0  0  0  0  0
    2.8521    1.4872    1.7963 H   0  0  0  0  0  0  0  0  0  0  0  0
    1.7721    1.4899    0.2965 H   0  0  0  0  0  0  0  0  0  0  0  0
  1  2  3  0
  1  5  1  0
  2  3  1  0
  3  4  1  0
  3  7  1  0
  4  8  1  0
  4  9  1  0
  4 10  1  0
  6 12  1  0
 11 12  2  3
 11 15  1  0
 11 16  1  0
 12 13  1  0
 13 14  2  3
 13 17  1  0
 14 18  1  0
 14 19  1  0
M  RAD  1   3   2
M  END
>  <reaction>  (5) 
rxn_1276

>  <mol_properties>  (5) 
{"1": {"label": "*0", "atom_type": "Ct"}, "2": {"label": "*1", "atom_type": "Cs"}, "5": {"label": "*2", "atom_type": "H0"}, "11": {"label": "*3", "atom_type": "Cd"}, "12": {"label": "*4", "atom_type": "Cd"}}

>  <type>  (5) 
unop_1

>  <geom_source>  (5) 
Heuristics

$$$$

     RDKit          3D

 19 17  0  0  0  0  0  0  0  0999 V2000
   -1.3445    0.4251   -2.4668 C   0  0  0  0  0  0  0  0  0  0  0  0
   -1.3445    0.4251   -1.2691 C   0  0  0  0  0  0  0  0  0  0  0  0
   -1.3445    0.4533    0.1900 C   0  0  0  0  0  3  0  0  0  0  0  0
   -1.3444    1.8747    0.7556 C   0  0  0  0  0  0  0  0  0  0  0  0
   -1.3445    0.4251   -3.5301 H   0  0  0  0  0  0  0  0  0  0  0  0
   -0.2939   -0.2008    0.6241 H   0  0  0  0  0  0  0  0  0  0  0  0
   -2.2200   -0.0918    0.5517 H   0  0  0  0  0  0  0  0  0  0  0  0
   -2.2267    2.4226    0.4242 H   0  0  0  0  0  0  0  0  0  0  0  0
   -1.3444    1.8474    1.8459 H   0  0  0  0  0  0  0  0  0  0  0  0
   -0.4622    2.4225    0.4242 H   0  0  0  0  0  0  0  0  0  0  0  0
    0.7801   -1.1684    2.3458 C   0  0  0  0  0  0  0  0  0  0  0  0
    0.7507   -0.8512    1.0557 C   0  0  0  0  0  0  0  0  0  0  0  0
    1.9244   -0.8364    0.1928 C   0  0  0  0  0  0  0  0  0  0  0  0
    1.8950   -0.5192   -1.0974 C   0  0  0  0  0  0  0  0  0  0  0  0
   -0.1169   -1.1665    2.9509 H   0  0  0  0  0  0  0  0  0  0  0  0
    1.7072   -1.4409    2.8380 H   0  0  0  0  0  0  0  0  0  0  0  0
    2.8690   -1.1052    0.6579 H   0  0  0  0  0  0  0  0  0  0  0  0
    2.7921   -0.5211   -1.7025 H   0  0  0  0  0  0  0  0  0  0  0  0
    0.9679   -0.2466   -1.5896 H   0  0  0  0  0  0  0  0  0  0  0  0
  1  2  3  0
  1  5  1  0
  2  3  1  0
  3  4  1  0
  3  7  1  0
  4  8  1  0
  4  9  1  0
  4 10  1  0
  6 12  1  0
 11 12  2  3
 11 15  1  0
 11 16  1  0
 12 13  1  0
 13 14  2  3
 13 17  1  0
 14 18  1  0
 14 19  1  0
M  RAD  1   3   2
M  END
>  <reaction>  (6) 
rxn_1276

>  <mol_properties>  (6) 
{"1": {"label": "*0", "atom_type": "Ct"}, "2": {"label": "*1", "atom_type": "Cs"}, "5": {"label": "*2", "atom_type": "H0"}, "11": {"label": "*3", "atom_type": "Cd"}, "12": {"label": "*4", "atom_type": "Cd"}}

>  <type>  (6) 
unop_2

>  <geom_source>  (6) 
Heuristics

$$$$

     RDKit          3D

 19 17  0  0  0  0  0  0  0  0999 V2000
   -1.1848    0.3216   -3.0066 C   0  0  0  0  0  0  0  0  0  0  0  0
   -1.1848    0.3216   -1.8089 C   0  0  0  0  0  0  0  0  0  0  0  0
   -1.1848    0.3498   -0.3497 C   0  0  0  0  0  3  0  0  0  0  0  0
   -1.1848    1.7712    0.2159 C   0  0  0  0  0  0  0  0  0  0  0  0
   -1.1848    0.3216   -4.0699 H   0  0  0  0  0  0  0  0  0  0  0  0
   -0.1342   -0.3043    0.0843 H   0  0  0  0  0  0  0  0  0  0  0  0
   -2.0603   -0.1952    0.0120 H   0  0  0  0  0  0  0  0  0  0  0  0
   -2.0670    2.3191   -0.1156 H   0  0  0  0  0  0  0  0  0  0  0  0
   -1.1848    1.7439    1.3062 H   0  0  0  0  0  0  0  0  0  0  0  0
   -0.3025    2.3191   -0.1156 H   0  0  0  0  0  0  0  0  0  0  0  0
    0.9240   -2.2157    0.0971 C   0  0  0  0  0  0  0  0  0  0  0  0
    0.9104   -0.9546    0.5159 C   0  0  0  0  0  0  0  0  0  0  0  0
    1.4698   -0.5112    1.7859 C   0  0  0  0  0  0  0  0  0  0  0  0
    1.4562    0.7499    2.2047 C   0  0  0  0  0  0  0  0  0  0  0  0
    0.4965   -2.5019   -0.8548 H   0  0  0  0  0  0  0  0  0  0  0  0
    1.3655   -3.0039    0.6970 H   0  0  0  0  0  0  0  0  0  0  0  0
    1.9196   -1.2790    2.4097 H   0  0  0  0  0  0  0  0  0  0  0  0
    1.8837    1.0360    3.1567 H   0  0  0  0  0  0  0  0  0  0  0  0
    1.0147    1.5381    1.6048 H   0  0  0  0  0  0  0  0  0  0  0  0
  1  2  3  0
  1  5  1  0
  2  3  1  0
  3  4  1  0
  3  7  1  0
  4  8  1  0
  4  9  1  0
  4 10  1  0
  6 12  1  0
 11 12  2  3
 11 15  1  0
 11 16  1  0
 12 13  1  0
 13 14  2  3
 13 17  1  0
 14 18  1  0
 14 19  1  0
M  RAD  1   3   2
M  END
>  <reaction>  (7) 
rxn_1276

>  <mol_properties>  (7) 
{"1": {"label": "*0", "atom_type": "Ct"}, "2": {"label": "*1", "atom_type": "Cs"}, "5": {"label": "*2", "atom_type": "H0"}, "11": {"label": "*3", "atom_type": "Cd"}, "12": {"label": "*4", "atom_type": "Cd"}}

>  <type>  (7) 
unop_3

>  <geom_source>  (7) 
Heuristics

$$$$

     RDKit          3D

 19 17  0  0  0  0  0  0  0  0999 V2000
   -1.0674    0.7865   -2.5903 C   0  0  0  0  0  0  0  0  0  0  0  0
   -1.0674    0.7865   -1.3925 C   0  0  0  0  0  0  0  0  0  0  0  0
   -1.0674    0.8147    0.0666 C   0  0  0  0  0  3  0  0  0  0  0  0
   -1.0674    2.2361    0.6322 C   0  0  0  0  0  0  0  0  0  0  0  0
   -1.0674    0.7865   -3.6536 H   0  0  0  0  0  0  0  0  0  0  0  0
   -0.0168    0.1606    0.5007 H   0  0  0  0  0  0  0  0  0  0  0  0
   -1.9429    0.2696    0.4283 H   0  0  0  0  0  0  0  0  0  0  0  0
   -1.9496    2.7839    0.3007 H   0  0  0  0  0  0  0  0  0  0  0  0
   -1.0674    2.2088    1.7225 H   0  0  0  0  0  0  0  0  0  0  0  0
   -0.1852    2.7839    0.3007 H   0  0  0  0  0  0  0  0  0  0  0  0
    1.4942    0.0014    2.0755 C   0  0  0  0  0  0  0  0  0  0  0  0
    1.0278   -0.4898    0.9322 C   0  0  0  0  0  0  0  0  0  0  0  0
    1.1208   -1.8923    0.5492 C   0  0  0  0  0  0  0  0  0  0  0  0
    0.6543   -2.3835   -0.5940 C   0  0  0  0  0  0  0  0  0  0  0  0
    1.4039    1.0516    2.3204 H   0  0  0  0  0  0  0  0  0  0  0  0
    1.9831   -0.6354    2.8046 H   0  0  0  0  0  0  0  0  0  0  0  0
    1.6059   -2.5557    1.2601 H   0  0  0  0  0  0  0  0  0  0  0  0
    0.7447   -3.4337   -0.8389 H   0  0  0  0  0  0  0  0  0  0  0  0
    0.1655   -1.7467   -1.3231 H   0  0  0  0  0  0  0  0  0  0  0  0
  1  2  3  0
  1  5  1  0
  2  3  1  0
  3  4  1  0
  3  7  1  0
  4  8  1  0
  4  9  1  0
  4 10  1  0
  6 12  1  0
 11 12  2  3
 11 15  1  0
 11 16  1  0
 12 13  1  0
 13 14  2  3
 13 17  1  0
 14 18  1  0
 14 19  1  0
M  RAD  1   3   2
M  END
>  <reaction>  (8) 
rxn_1276

>  <mol_properties>  (8) 
{"1": {"label": "*0", "atom_type": "Ct"}, "2": {"label": "*1", "atom_type": "Cs"}, "5": {"label": "*2", "atom_type": "H0"}, "11": {"label": "*3", "atom_type": "Cd"}, "12": {"label": "*4", "atom_type": "Cd"}}

>  <type>  (8) 
unop_4

>  <geom_source>  (8) 
Heuristics

$$$$

     RDKit          3D

 19 17  0  0  0  0  0  0  0  0999 V2000
   -1.0889    0.4504   -3.0484 C   0  0  0  0  0  0  0  0  0  0  0  0
   -1.0889    0.4504   -1.8507 C   0  0  0  0  0  0  0  0  0  0  0  0
   -1.0889    0.4786   -0.3915 C   0  0  0  0  0  3  0  0  0  0  0  0
   -1.0889    1.9000    0.1741 C   0  0  0  0  0  0  0  0  0  0  0  0
   -1.0889    0.4504   -4.1117 H   0  0  0  0  0  0  0  0  0  0  0  0
   -0.0383   -0.1755    0.0425 H   0  0  0  0  0  0  0  0  0  0  0  0
   -1.9644   -0.0664   -0.0298 H   0  0  0  0  0  0  0  0  0  0  0  0
   -1.9711    2.4479   -0.1574 H   0  0  0  0  0  0  0  0  0  0  0  0
   -1.0889    1.8727    1.2643 H   0  0  0  0  0  0  0  0  0  0  0  0
   -0.2067    2.4479   -0.1574 H   0  0  0  0  0  0  0  0  0  0  0  0
    1.8460   -1.3723   -0.3990 C   0  0  0  0  0  0  0  0  0  0  0  0
    1.0063   -0.8259    0.4741 C   0  0  0  0  0  0  0  0  0  0  0  0
    1.1701   -0.9012    1.9197 C   0  0  0  0  0  0  0  0  0  0  0  0
    0.3304   -0.3548    2.7928 C   0  0  0  0  0  0  0  0  0  0  0  0
    1.6861   -1.2921   -1.4662 H   0  0  0  0  0  0  0  0  0  0  0  0
    2.7231   -1.9190   -0.0708 H   0  0  0  0  0  0  0  0  0  0  0  0
    2.0406   -1.4432    2.2794 H   0  0  0  0  0  0  0  0  0  0  0  0
    0.4903   -0.4350    3.8600 H   0  0  0  0  0  0  0  0  0  0  0  0
   -0.5468    0.1920    2.4646 H   0  0  0  0  0  0  0  0  0  0  0  0
  1  2  3  0
  1  5  1  0
  2  3  1  0
  3  4  1  0
  3  7  1  0
  4  8  1  0
  4  9  1  0
  4 10  1  0
  6 12  1  0
 11 12  2  3
 11 15  1  0
 11 16  1  0
 12 13  1  0
 13 14  2  3
 13 17  1  0
 14 18  1  0
 14 19  1  0
M  RAD  1   3   2
M  END
>  <reaction>  (9) 
rxn_1276

>  <mol_properties>  (9) 
{"1": {"label": "*0", "atom_type": "Ct"}, "2": {"label": "*1", "atom_type": "Cs"}, "5": {"label": "*2", "atom_type": "H0"}, "11": {"label": "*3", "atom_type": "Cd"}, "12": {"label": "*4", "atom_type": "Cd"}}

>  <type>  (9) 
unop_5

>  <geom_source>  (9) 
Heuristics

$$$$

     RDKit          3D

 19 17  0  0  0  0  0  0  0  0999 V2000
   -0.9990    0.7901   -2.7480 C   0  0  0  0  0  0  0  0  0  0  0  0
   -0.9990    0.7901   -1.5503 C   0  0  0  0  0  0  0  0  0  0  0  0
   -0.9990    0.8183   -0.0912 C   0  0  0  0  0  3  0  0  0  0  0  0
   -0.9990    2.2397    0.4744 C   0  0  0  0  0  0  0  0  0  0  0  0
   -0.9990    0.7901   -3.8113 H   0  0  0  0  0  0  0  0  0  0  0  0
    0.0515    0.1642    0.3429 H   0  0  0  0  0  0  0  0  0  0  0  0
   -1.8746    0.2733    0.2705 H   0  0  0  0  0  0  0  0  0  0  0  0
   -1.8813    2.7876    0.1430 H   0  0  0  0  0  0  0  0  0  0  0  0
   -0.9990    2.2124    1.5647 H   0  0  0  0  0  0  0  0  0  0  0  0
   -0.1168    2.7876    0.1430 H   0  0  0  0  0  0  0  0  0  0  0  0
    1.7908    0.3185    1.5719 C   0  0  0  0  0  0  0  0  0  0  0  0
    1.0961   -0.4861    0.7745 C   0  0  0  0  0  0  0  0  0  0  0  0
    0.9186   -1.9128    1.0100 C   0  0  0  0  0  0  0  0  0  0  0  0
    0.2239   -2.7174    0.2126 C   0  0  0  0  0  0  0  0  0  0  0  0
    1.8976    1.3741    1.3590 H   0  0  0  0  0  0  0  0  0  0  0  0
    2.2762   -0.0564    2.4663 H   0  0  0  0  0  0  0  0  0  0  0  0
    1.3937   -2.3181    1.8993 H   0  0  0  0  0  0  0  0  0  0  0  0
    0.1171   -3.7730    0.4255 H   0  0  0  0  0  0  0  0  0  0  0  0
   -0.2615   -2.3425   -0.6818 H   0  0  0  0  0  0  0  0  0  0  0  0
  1  2  3  0
  1  5  1  0
  2  3  1  0
  3  4  1  0
  3  7  1  0
  4  8  1  0
  4  9  1  0
  4 10  1  0
  6 12  1  0
 11 12  2  3
 11 15  1  0
 11 16  1  0
 12 13  1  0
 13 14  2  3
 13 17  1  0
 14 18  1  0
 14 19  1  0
M  RAD  1   3   2
M  END
>  <reaction>  (10) 
rxn_1276

>  <mol_properties>  (10) 
{"1": {"label": "*0", "atom_type": "Ct"}, "2": {"label": "*1", "atom_type": "Cs"}, "5": {"label": "*2", "atom_type": "H0"}, "11": {"label": "*3", "atom_type": "Cd"}, "12": {"label": "*4", "atom_type": "Cd"}}

>  <type>  (10) 
unop_6

>  <geom_source>  (10) 
Heuristics

$$$$

     RDKit          3D

 19 17  0  0  0  0  0  0  0  0999 V2000
   -0.9794    0.7188   -2.9025 C   0  0  0  0  0  0  0  0  0  0  0  0
   -0.9794    0.7188   -1.7048 C   0  0  0  0  0  0  0  0  0  0  0  0
   -0.9794    0.7471   -0.2456 C   0  0  0  0  0  3  0  0  0  0  0  0
   -0.9794    2.1684    0.3200 C   0  0  0  0  0  0  0  0  0  0  0  0
   -0.9794    0.7188   -3.9658 H   0  0  0  0  0  0  0  0  0  0  0  0
    0.0712    0.0930    0.1884 H   0  0  0  0  0  0  0  0  0  0  0  0
   -1.8549    0.2020    0.1161 H   0  0  0  0  0  0  0  0  0  0  0  0
   -1.8616    2.7163   -0.0115 H   0  0  0  0  0  0  0  0  0  0  0  0
   -0.9794    2.1412    1.4102 H   0  0  0  0  0  0  0  0  0  0  0  0
   -0.0971    2.7163   -0.0115 H   0  0  0  0  0  0  0  0  0  0  0  0
    2.0714    0.3359    0.8539 C   0  0  0  0  0  0  0  0  0  0  0  0
    1.1158   -0.5574    0.6200 C   0  0  0  0  0  0  0  0  0  0  0  0
    0.8542   -1.7124    1.4684 C   0  0  0  0  0  0  0  0  0  0  0  0
   -0.1014   -2.6058    1.2345 C   0  0  0  0  0  0  0  0  0  0  0  0
    2.2315    1.1805    0.1966 H   0  0  0  0  0  0  0  0  0  0  0  0
    2.7257    0.2489    1.7143 H   0  0  0  0  0  0  0  0  0  0  0  0
    1.4941   -1.8267    2.3392 H   0  0  0  0  0  0  0  0  0  0  0  0
   -0.2615   -3.4504    1.8918 H   0  0  0  0  0  0  0  0  0  0  0  0
   -0.7557   -2.5187    0.3740 H   0  0  0  0  0  0  0  0  0  0  0  0
  1  2  3  0
  1  5  1  0
  2  3  1  0
  3  4  1  0
  3  7  1  0
  4  8  1  0
  4  9  1  0
  4 10  1  0
  6 12  1  0
 11 12  2  3
 11 15  1  0
 11 16  1  0
 12 13  1  0
 13 14  2  3
 13 17  1  0
 14 18  1  0
 14 19  1  0
M  RAD  1   3   2
M  END
>  <reaction>  (11) 
rxn_1276

>  <mol_properties>  (11) 
{"1": {"label": "*0", "atom_type": "Ct"}, "2": {"label": "*1", "atom_type": "Cs"}, "5": {"label": "*2", "atom_type": "H0"}, "11": {"label": "*3", "atom_type": "Cd"}, "12": {"label": "*4", "atom_type": "Cd"}}

>  <type>  (11) 
unop_7

>  <geom_source>  (11) 
Heuristics

$$$$

     RDKit          3D

 19 17  0  0  0  0  0  0  0  0999 V2000
   -1.3514    0.2314   -2.7372 C   0  0  0  0  0  0  0  0  0  0  0  0
   -1.3514    0.2314   -1.5395 C   0  0  0  0  0  0  0  0  0  0  0  0
   -1.3514    0.2596   -0.0804 C   0  0  0  0  0  3  0  0  0  0  0  0
   -1.3514    1.6810    0.4852 C   0  0  0  0  0  0  0  0  0  0  0  0
   -1.3514    0.2314   -3.8005 H   0  0  0  0  0  0  0  0  0  0  0  0
   -0.3008   -0.3945    0.3537 H   0  0  0  0  0  0  0  0  0  0  0  0
   -2.2269   -0.2855    0.2814 H   0  0  0  0  0  0  0  0  0  0  0  0
   -2.2336    2.2288    0.1538 H   0  0  0  0  0  0  0  0  0  0  0  0
   -1.3514    1.6537    1.5755 H   0  0  0  0  0  0  0  0  0  0  0  0
   -0.4691    2.2288    0.1538 H   0  0  0  0  0  0  0  0  0  0  0  0
    0.3313   -1.9960    1.6167 C   0  0  0  0  0  0  0  0  0  0  0  0
    0.7438   -1.0449    0.7853 C   0  0  0  0  0  0  0  0  0  0  0  0
    1.9584   -0.2639    0.9781 C   0  0  0  0  0  0  0  0  0  0  0  0
    2.3708    0.6872    0.1467 C   0  0  0  0  0  0  0  0  0  0  0  0
   -0.5786   -2.5527    1.4350 H   0  0  0  0  0  0  0  0  0  0  0  0
    0.8944   -2.2477    2.5087 H   0  0  0  0  0  0  0  0  0  0  0  0
    2.5444   -0.4934    1.8640 H   0  0  0  0  0  0  0  0  0  0  0  0
    3.2808    1.2439    0.3284 H   0  0  0  0  0  0  0  0  0  0  0  0
    1.8077    0.9389   -0.7453 H   0  0  0  0  0  0  0  0  0  0  0  0
  1  2  3  0
  1  5  1  0
  2  3  1  0
  3  4  1  0
  3  7  1  0
  4  8  1  0
  4  9  1  0
  4 10  1  0
  6 12  1  0
 11 12  2  3
 11 15  1  0
 11 16  1  0
 12 13  1  0
 13 14  2  3
 13 17  1  0
 14 18  1  0
 14 19  1  0
M  RAD  1   3   2
M  END
>  <reaction>  (12) 
rxn_1276

>  <mol_properties>  (12) 
{"1": {"label": "*0", "atom_type": "Ct"}, "2": {"label": "*1", "atom_type": "Cs"}, "5": {"label": "*2", "atom_type": "H0"}, "11": {"label": "*3", "atom_type": "Cd"}, "12": {"label": "*4", "atom_type": "Cd"}}

>  <type>  (12) 
unop_8

>  <geom_source>  (12) 
Heuristics

$$$$

     RDKit          3D

 19 17  0  0  0  0  0  0  0  0999 V2000
   -1.1661    0.7079   -2.4723 C   0  0  0  0  0  0  0  0  0  0  0  0
   -1.1661    0.7079   -1.2746 C   0  0  0  0  0  0  0  0  0  0  0  0
   -1.1661    0.7361    0.1846 C   0  0  0  0  0  3  0  0  0  0  0  0
   -1.1661    2.1575    0.7502 C   0  0  0  0  0  0  0  0  0  0  0  0
   -1.1661    0.7079   -3.5356 H   0  0  0  0  0  0  0  0  0  0  0  0
   -0.1155    0.0820    0.6186 H   0  0  0  0  0  0  0  0  0  0  0  0
   -2.0416    0.1911    0.5463 H   0  0  0  0  0  0  0  0  0  0  0  0
   -2.0483    2.7054    0.4187 H   0  0  0  0  0  0  0  0  0  0  0  0
   -1.1661    2.1302    1.8404 H   0  0  0  0  0  0  0  0  0  0  0  0
   -0.2838    2.7054    0.4187 H   0  0  0  0  0  0  0  0  0  0  0  0
    1.2504   -0.4226    2.3314 C   0  0  0  0  0  0  0  0  0  0  0  0
    0.9291   -0.5683    1.0502 C   0  0  0  0  0  0  0  0  0  0  0  0
    1.4067   -1.6574    0.2086 C   0  0  0  0  0  0  0  0  0  0  0  0
    1.0854   -1.8032   -1.0725 C   0  0  0  0  0  0  0  0  0  0  0  0
    0.8726    0.4026    2.9206 H   0  0  0  0  0  0  0  0  0  0  0  0
    1.9046   -1.1280    2.8320 H   0  0  0  0  0  0  0  0  0  0  0  0
    2.0646   -2.3809    0.6825 H   0  0  0  0  0  0  0  0  0  0  0  0
    1.4632   -2.6284   -1.6617 H   0  0  0  0  0  0  0  0  0  0  0  0
    0.4312   -1.0978   -1.5732 H   0  0  0  0  0  0  0  0  0  0  0  0
  1  2  3  0
  1  5  1  0
  2  3  1  0
  3  4  1  0
  3  7  1  0
  4  8  1  0
  4  9  1  0
  4 10  1  0
  6 12  1  0
 11 12  2  3
 11 15  1  0
 11 16  1  0
 12 13  1  0
 13 14  2  3
 13 17  1  0
 14 18  1  0
 14 19  1  0
M  RAD  1   3   2
M  END
>  <reaction>  (13) 
rxn_1276

>  <mol_properties>  (13) 
{"1": {"label": "*0", "atom_type": "Ct"}, "2": {"label": "*1", "atom_type": "Cs"}, "5": {"label": "*2", "atom_type": "H0"}, "11": {"label": "*3", "atom_type": "Cd"}, "12": {"label": "*4", "atom_type": "Cd"}}

>  <type>  (13) 
unop_9

>  <geom_source>  (13) 
Heuristics

$$$$

     RDKit          3D

 19 17  0  0  0  0  0  0  0  0999 V2000
   -1.3748    0.2990   -2.5808 C   0  0  0  0  0  0  0  0  0  0  0  0
   -1.3748    0.2990   -1.3831 C   0  0  0  0  0  0  0  0  0  0  0  0
   -1.3748    0.3272    0.0760 C   0  0  0  0  0  3  0  0  0  0  0  0
   -1.3748    1.7486    0.6416 C   0  0  0  0  0  0  0  0  0  0  0  0
   -1.3748    0.2990   -3.6441 H   0  0  0  0  0  0  0  0  0  0  0  0
   -0.3242   -0.3269    0.5101 H   0  0  0  0  0  0  0  0  0  0  0  0
   -2.2503   -0.2179    0.4377 H   0  0  0  0  0  0  0  0  0  0  0  0
   -2.2570    2.2965    0.3102 H   0  0  0  0  0  0  0  0  0  0  0  0
   -1.3748    1.7213    1.7319 H   0  0  0  0  0  0  0  0  0  0  0  0
   -0.4926    2.2964    0.3102 H   0  0  0  0  0  0  0  0  0  0  0  0
    0.4983   -1.5780    2.1060 C   0  0  0  0  0  0  0  0  0  0  0  0
    0.7204   -0.9773    0.9417 C   0  0  0  0  0  0  0  0  0  0  0  0
    2.0190   -0.4679    0.5217 C   0  0  0  0  0  0  0  0  0  0  0  0
    2.2411    0.1328   -0.6427 C   0  0  0  0  0  0  0  0  0  0  0  0
   -0.4837   -1.9419    2.3783 H   0  0  0  0  0  0  0  0  0  0  0  0
    1.2962   -1.7246    2.8257 H   0  0  0  0  0  0  0  0  0  0  0  0
    2.8391   -0.6002    1.2223 H   0  0  0  0  0  0  0  0  0  0  0  0
    3.2231    0.4967   -0.9150 H   0  0  0  0  0  0  0  0  0  0  0  0
    1.4432    0.2794   -1.3623 H   0  0  0  0  0  0  0  0  0  0  0  0
  1  2  3  0
  1  5  1  0
  2  3  1  0
  3  4  1  0
  3  7  1  0
  4  8  1  0
  4  9  1  0
  4 10  1  0
  6 12  1  0
 11 12  2  3
 11 15  1  0
 11 16  1  0
 12 13  1  0
 13 14  2  3
 13 17  1  0
 14 18  1  0
 14 19  1  0
M  RAD  1   3   2
M  END
>  <reaction>  (14) 
rxn_1276

>  <mol_properties>  (14) 
{"1": {"label": "*0", "atom_type": "Ct"}, "2": {"label": "*1", "atom_type": "Cs"}, "5": {"label": "*2", "atom_type": "H0"}, "11": {"label": "*3", "atom_type": "Cd"}, "12": {"label": "*4", "atom_type": "Cd"}}

>  <type>  (14) 
unop_10

>  <geom_source>  (14) 
Heuristics

$$$$

     RDKit          3D

 19 17  0  0  0  0  0  0  0  0999 V2000
   -1.0133    0.5935   -3.0118 C   0  0  0  0  0  0  0  0  0  0  0  0
   -1.0133    0.5935   -1.8141 C   0  0  0  0  0  0  0  0  0  0  0  0
   -1.0133    0.6217   -0.3550 C   0  0  0  0  0  3  0  0  0  0  0  0
   -1.0133    2.0431    0.2106 C   0  0  0  0  0  0  0  0  0  0  0  0
   -1.0133    0.5935   -4.0751 H   0  0  0  0  0  0  0  0  0  0  0  0
    0.0373   -0.0324    0.0791 H   0  0  0  0  0  0  0  0  0  0  0  0
   -1.8889    0.0766    0.0067 H   0  0  0  0  0  0  0  0  0  0  0  0
   -1.8955    2.5910   -0.1208 H   0  0  0  0  0  0  0  0  0  0  0  0
   -1.0133    2.0158    1.3009 H   0  0  0  0  0  0  0  0  0  0  0  0
   -0.1311    2.5909   -0.1208 H   0  0  0  0  0  0  0  0  0  0  0  0
    2.2181   -0.1636    0.0574 C   0  0  0  0  0  0  0  0  0  0  0  0
    1.0819   -0.6828    0.5107 C   0  0  0  0  0  0  0  0  0  0  0  0
    0.9452   -1.3432    1.8020 C   0  0  0  0  0  0  0  0  0  0  0  0
   -0.1911   -1.8623    2.2552 C   0  0  0  0  0  0  0  0  0  0  0  0
    2.2753    0.3189   -0.9094 H   0  0  0  0  0  0  0  0  0  0  0  0
    3.1299   -0.2059    0.6429 H   0  0  0  0  0  0  0  0  0  0  0  0
    1.8426   -1.4012    2.4120 H   0  0  0  0  0  0  0  0  0  0  0  0
   -0.2483   -2.3449    3.2221 H   0  0  0  0  0  0  0  0  0  0  0  0
   -1.1029   -1.8200    1.6697 H   0  0  0  0  0  0  0  0  0  0  0  0
  1  2  3  0
  1  5  1  0
  2  3  1  0
  3  4  1  0
  3  7  1  0
  4  8  1  0
  4  9  1  0
  4 10  1  0
  6 12  1  0
 11 12  2  3
 11 15  1  0
 11 16  1  0
 12 13  1  0
 13 14  2  3
 13 17  1  0
 14 18  1  0
 14 19  1  0
M  RAD  1   3   2
M  END
>  <reaction>  (15) 
rxn_1276

>  <mol_properties>  (15) 
{"1": {"label": "*0", "atom_type": "Ct"}, "2": {"label": "*1", "atom_type": "Cs"}, "5": {"label": "*2", "atom_type": "H0"}, "11": {"label": "*3", "atom_type": "Cd"}, "12": {"label": "*4", "atom_type": "Cd"}}

>  <type>  (15) 
unop_11

>  <geom_source>  (15) 
Heuristics

$$$$

     RDKit          3D

 19 17  0  0  0  0  0  0  0  0999 V2000
   -1.2679    0.5753   -2.4269 C   0  0  0  0  0  0  0  0  0  0  0  0
   -1.2679    0.5753   -1.2292 C   0  0  0  0  0  0  0  0  0  0  0  0
   -1.2679    0.6035    0.2300 C   0  0  0  0  0  3  0  0  0  0  0  0
   -1.2679    2.0249    0.7956 C   0  0  0  0  0  0  0  0  0  0  0  0
   -1.2679    0.5753   -3.4902 H   0  0  0  0  0  0  0  0  0  0  0  0
   -0.2173   -0.0506    0.6640 H   0  0  0  0  0  0  0  0  0  0  0  0
   -2.1434    0.0585    0.5917 H   0  0  0  0  0  0  0  0  0  0  0  0
   -2.1501    2.5728    0.4641 H   0  0  0  0  0  0  0  0  0  0  0  0
   -1.2679    1.9976    1.8858 H   0  0  0  0  0  0  0  0  0  0  0  0
   -0.3857    2.5728    0.4641 H   0  0  0  0  0  0  0  0  0  0  0  0
    1.0389   -0.8091    2.4030 C   0  0  0  0  0  0  0  0  0  0  0  0
    0.8273   -0.7009    1.0956 C   0  0  0  0  0  0  0  0  0  0  0  0
    1.7004   -1.2712    0.0784 C   0  0  0  0  0  0  0  0  0  0  0  0
    1.4888   -1.1631   -1.2291 C   0  0  0  0  0  0  0  0  0  0  0  0
    0.3637   -0.3693    3.1252 H   0  0  0  0  0  0  0  0  0  0  0  0
    1.8985   -1.3436    2.7924 H   0  0  0  0  0  0  0  0  0  0  0  0
    2.5709   -1.8132    0.4380 H   0  0  0  0  0  0  0  0  0  0  0  0
    2.1640   -1.6028   -1.9513 H   0  0  0  0  0  0  0  0  0  0  0  0
    0.6292   -0.6286   -1.6184 H   0  0  0  0  0  0  0  0  0  0  0  0
  1  2  3  0
  1  5  1  0
  2  3  1  0
  3  4  1  0
  3  7  1  0
  4  8  1  0
  4  9  1  0
  4 10  1  0
  6 12  1  0
 11 12  2  3
 11 15  1  0
 11 16  1  0
 12 13  1  0
 13 14  2  3
 13 17  1  0
 14 18  1  0
 14 19  1  0
M  RAD  1   3   2
M  END
>  <reaction>  (16) 
rxn_1276

>  <mol_properties>  (16) 
{"1": {"label": "*0", "atom_type": "Ct"}, "2": {"label": "*1", "atom_type": "Cs"}, "5": {"label": "*2", "atom_type": "H0"}, "11": {"label": "*3", "atom_type": "Cd"}, "12": {"label": "*4", "atom_type": "Cd"}}

>  <type>  (16) 
unop_12

>  <geom_source>  (16) 
Heuristics

$$$$

     RDKit          3D

 19 17  0  0  0  0  0  0  0  0999 V2000
   -1.4799   -1.1626    1.1546 C   0  0  0  0  0  0  0  0  0  0  0  0
    1.1284    0.5993   -0.0427 C   0  0  0  0  0  0  0  0  0  0  0  0
    1.8405   -0.4643   -0.7664 C   0  0  0  0  0  0  0  0  0  0  0  0
   -1.1825    0.3281    1.0830 C   0  0  0  0  0  3  0  0  0  0  0  0
    1.3968    1.8822   -0.2645 C   0  0  0  0  0  0  0  0  0  0  0  0
    1.5691   -1.7461   -0.5415 C   0  0  0  0  0  0  0  0  0  0  0  0
   -1.5858    0.8770   -0.2162 C   0  0  0  0  0  0  0  0  0  0  0  0
   -1.9167    1.3289   -1.2838 C   0  0  0  0  0  0  0  0  0  0  0  0
   -2.5692   -1.3475    1.0360 H   0  0  0  0  0  0  0  0  0  0  0  0
   -1.1557   -1.5536    2.1415 H   0  0  0  0  0  0  0  0  0  0  0  0
   -0.9232   -1.7030    0.3595 H   0  0  0  0  0  0  0  0  0  0  0  0
    0.2797    0.3102    0.7727 H   0  0  0  0  0  0  0  0  0  0  0  0
    2.5998   -0.2078   -1.4960 H   0  0  0  0  0  0  0  0  0  0  0  0
   -1.7219    0.8623    1.8933 H   0  0  0  0  0  0  0  0  0  0  0  0
    2.1478    2.1825   -0.9848 H   0  0  0  0  0  0  0  0  0  0  0  0
    0.8592    2.6466    0.2806 H   0  0  0  0  0  0  0  0  0  0  0  0
    0.8173   -2.0426    0.1796 H   0  0  0  0  0  0  0  0  0  0  0  0
    2.1036   -2.5152   -1.0839 H   0  0  0  0  0  0  0  0  0  0  0  0
   -2.2074    1.7254   -2.2210 H   0  0  0  0  0  0  0  0  0  0  0  0
  1  4  1  0
  1  9  1  0
  1 10  1  0
  1 11  1  0
  2  5  2  3
  2  3  1  0
  2 12  1  0
  3  6  2  3
  3 13  1  0
  4  7  1  0
  4 14  1  0
  5 15  1  0
  5 16  1  0
  6 17  1  0
  6 18  1  0
  7  8  3  0
  8 19  1  0
M  RAD  1   4   2
M  END
>  <reaction>  (17) 
rxn_1276

>  <mol_properties>  (17) 
{"1": {"label": "*0", "atom_type": "Ct"}, "2": {"label": "*1", "atom_type": "Cs"}, "5": {"label": "*2", "atom_type": "H0"}, "11": {"label": "*3", "atom_type": "Cd"}, "12": {"label": "*4", "atom_type": "Cd"}}

>  <type>  (17) 
unop_13

>  <geom_source>  (17) 
AutoTST

$$$$
