
     RDKit          3D

  6  5  0  0  0  0  0  0  0  0999 V2000
   -0.5072   -0.0291   -0.0097 C   0  0  0  0  0  0  0  0  0  0  0  0
    1.1321   -0.1527   -0.7687 S   0  0  0  0  0  0  0  0  0  0  0  0
   -0.6174   -0.7330    0.8127 H   0  0  0  0  0  0  0  0  0  0  0  0
   -0.5863    0.9827    0.3845 H   0  0  0  0  0  0  0  0  0  0  0  0
   -1.2962   -0.1800   -0.7434 H   0  0  0  0  0  0  0  0  0  0  0  0
    1.0312   -1.4237   -1.1764 H   0  0  0  0  0  0  0  0  0  0  0  0
  1  2  1  0
  1  3  1  0
  1  4  1  0
  1  5  1  0
  2  6  1  0
M  END
>  <reaction>  (1) 
rxn_1861

>  <mol_properties>  (1) 
{"0": {"label": "donator", "atom_type": "Cs"}, "2": {"label": "d_hydrogen", "atom_type": "H0"}}

>  <type>  (1) 
r1h

$$$$

     RDKit          3D

  7  6  0  0  0  0  0  0  0  0999 V2000
   -0.6904   -0.9066   -0.0346 C   0  0  0  0  0  0  0  0  0  0  0  0
    0.1413    0.0254   -0.6161 C   0  0  0  0  0  0  0  0  0  0  0  0
    0.4603    0.1105   -1.9267 C   0  0  0  0  0  3  0  0  0  0  0  0
    0.8318    0.2180   -3.4201 S   0  0  0  0  0  0  0  0  0  0  0  0
   -0.8731   -0.8770    1.0287 H   0  0  0  0  0  0  0  0  0  0  0  0
   -1.1718   -1.6767   -0.6199 H   0  0  0  0  0  0  0  0  0  0  0  0
    0.6090    0.7866    0.0044 H   0  0  0  0  0  0  0  0  0  0  0  0
  1  2  2  3
  1  5  1  0
  1  6  1  0
  2  3  1  0
  2  7  1  0
  3  4  2  0
M  RAD  1   3   2
M  END
>  <reaction>  (2) 
rxn_1861

>  <mol_properties>  (2) 
{"2": {"label": "acceptor", "atom_type": "CS"}}

>  <type>  (2) 
r2

$$$$

     RDKit          3D

  8  7  0  0  0  0  0  0  0  0999 V2000
   -1.1617    0.0338    0.5053 C   0  0  0  0  0  0  0  0  0  0  0  0
   -0.1023    0.4503   -0.1863 C   0  0  0  0  0  0  0  0  0  0  0  0
    1.0978   -0.3557   -0.3104 C   0  0  0  0  0  0  0  0  0  0  0  0
    2.4251    0.0667   -1.1256 S   0  0  0  0  0  0  0  0  0  0  0  0
   -1.1653   -0.9292    1.0039 H   0  0  0  0  0  0  0  0  0  0  0  0
   -2.0546    0.6389    0.5948 H   0  0  0  0  0  0  0  0  0  0  0  0
   -0.0991    1.4132   -0.6847 H   0  0  0  0  0  0  0  0  0  0  0  0
    1.0601   -1.3180    0.2032 H   0  0  0  0  0  0  0  0  0  0  0  0
  1  2  2  3
  1  5  1  0
  1  6  1  0
  2  3  1  0
  2  7  1  0
  3  4  2  0
  3  8  1  0
M  END
>  <reaction>  (3) 
rxn_1861

>  <mol_properties>  (3) 
{"0": {"label": "a_hydrogen", "atom_type": "H0"}, "3": {"label": "acceptor", "atom_type": "CS"}}

>  <type>  (3) 
r2h

$$$$

     RDKit          3D

 13 11  0  0  0  0  0  0  0  0999 V2000
    0.0280   -1.7541   -0.2788 C   0  0  0  0  0  3  0  0  0  0  0  0
    0.5251   -1.9010   -1.9664 S   0  0  0  0  0  0  0  0  0  0  0  0
    0.0309   -0.4551    0.1580 H   0  0  0  0  0  0  0  0  0  0  0  0
   -1.0020   -2.0834   -0.1664 H   0  0  0  0  0  0  0  0  0  0  0  0
    0.6971   -2.2170    0.4428 H   0  0  0  0  0  0  0  0  0  0  0  0
    1.7866   -1.4763   -1.8147 H   0  0  0  0  0  0  0  0  0  0  0  0
   -1.0801    1.5624   -1.2328 C   0  0  0  0  0  0  0  0  0  0  0  0
   -0.6063    1.7784   -0.0058 C   0  0  0  0  0  0  0  0  0  0  0  0
    0.0655    0.7441    0.7499 C   0  0  0  0  0  0  0  0  0  0  0  0
    0.7876    0.8367    2.1682 S   0  0  0  0  0  0  0  0  0  0  0  0
   -1.5713    2.3510   -1.7887 H   0  0  0  0  0  0  0  0  0  0  0  0
   -0.9732    0.5998   -1.7193 H   0  0  0  0  0  0  0  0  0  0  0  0
   -0.7012    2.7535    0.4641 H   0  0  0  0  0  0  0  0  0  0  0  0
  1  2  1  0
  1  4  1  0
  1  5  1  0
  2  6  1  0
  3  9  1  0
  7  8  2  3
  7 11  1  0
  7 12  1  0
  8  9  1  0
  8 13  1  0
  9 10  2  0
M  RAD  1   1   2
M  END
>  <reaction>  (4) 
rxn_1861

>  <mol_properties>  (4) 
{"0": {"label": "*3", "atom_type": "Cs"}, "1": {"label": "*4", "atom_type": "S2s"}, "2": {"label": "*2", "atom_type": "H0"}, "8": {"label": "*1", "atom_type": "CS"}, "9": {"label": "*0", "atom_type": "S2d"}}

>  <type>  (4) 
ts

$$$$

     RDKit          3D

 13 11  0  0  0  0  0  0  0  0999 V2000
   -0.0084   -1.6046   -0.3140 C   0  0  0  0  0  0  0  0  0  0  0  0
   -0.0084   -1.6046   -2.1247 S   0  0  0  0  0  0  0  0  0  0  0  0
   -0.0084   -0.3887    0.1617 H   0  0  0  0  0  0  0  0  0  0  0  0
   -0.9291   -2.0987   -0.0081 H   0  0  0  0  0  0  0  0  0  0  0  0
    0.8360   -2.1646    0.0824 H   0  0  0  0  0  0  0  0  0  0  0  0
    1.1619   -0.9764   -2.2911 H   0  0  0  0  0  0  0  0  0  0  0  0
   -2.3847    0.7764    1.1613 C   0  0  0  0  0  0  0  0  0  0  0  0
   -1.1482    1.1600    1.4744 C   0  0  0  0  0  0  0  0  0  0  0  0
   -0.0084    0.8310    0.6390 C   0  0  0  0  0  3  0  0  0  0  0  0
    1.5205    1.2522    0.9388 S   0  0  0  0  0  0  0  0  0  0  0  0
   -3.2315    1.0244    1.7879 H   0  0  0  0  0  0  0  0  0  0  0  0
   -2.5853    0.2005    0.2646 H   0  0  0  0  0  0  0  0  0  0  0  0
   -0.9480    1.7358    2.3711 H   0  0  0  0  0  0  0  0  0  0  0  0
  1  2  1  0
  1  3  1  0
  1  4  1  0
  1  5  1  0
  2  6  1  0
  7  8  2  3
  7 11  1  0
  7 12  1  0
  8  9  1  0
  8 13  1  0
  9 10  2  0
M  RAD  1   9   2
M  END
>  <reaction>  (5) 
rxn_1861

>  <mol_properties>  (5) 
{"0": {"label": "*3", "atom_type": "Cs"}, "1": {"label": "*4", "atom_type": "S2s"}, "2": {"label": "*2", "atom_type": "H0"}, "8": {"label": "*1", "atom_type": "CS"}, "9": {"label": "*0", "atom_type": "S2d"}}

>  <type>  (5) 
unop_1

>  <geom_source>  (5) 
Heuristics

$$$$

     RDKit          3D

 13 11  0  0  0  0  0  0  0  0999 V2000
    0.0826   -1.7129   -0.1488 C   0  0  0  0  0  0  0  0  0  0  0  0
    0.0826   -1.7129   -1.9595 S   0  0  0  0  0  0  0  0  0  0  0  0
    0.0826   -0.4971    0.3270 H   0  0  0  0  0  0  0  0  0  0  0  0
   -0.8381   -2.2071    0.1571 H   0  0  0  0  0  0  0  0  0  0  0  0
    0.9270   -2.2729    0.2477 H   0  0  0  0  0  0  0  0  0  0  0  0
    1.2529   -1.0848   -2.1259 H   0  0  0  0  0  0  0  0  0  0  0  0
   -0.8211    1.4814   -1.3241 C   0  0  0  0  0  0  0  0  0  0  0  0
   -0.5754    1.7068   -0.0346 C   0  0  0  0  0  0  0  0  0  0  0  0
    0.0826    0.7227    0.8043 C   0  0  0  0  0  3  0  0  0  0  0  0
    0.4200    0.9086    2.3715 S   0  0  0  0  0  0  0  0  0  0  0  0
   -1.3124    2.2189   -1.9455 H   0  0  0  0  0  0  0  0  0  0  0  0
   -0.5362    0.5478   -1.7966 H   0  0  0  0  0  0  0  0  0  0  0  0
   -0.8605    2.6403    0.4375 H   0  0  0  0  0  0  0  0  0  0  0  0
  1  2  1  0
  1  3  1  0
  1  4  1  0
  1  5  1  0
  2  6  1  0
  7  8  2  3
  7 11  1  0
  7 12  1  0
  8  9  1  0
  8 13  1  0
  9 10  2  0
M  RAD  1   9   2
M  END
>  <reaction>  (6) 
rxn_1861

>  <mol_properties>  (6) 
{"0": {"label": "*3", "atom_type": "Cs"}, "1": {"label": "*4", "atom_type": "S2s"}, "2": {"label": "*2", "atom_type": "H0"}, "8": {"label": "*1", "atom_type": "CS"}, "9": {"label": "*0", "atom_type": "S2d"}}

>  <type>  (6) 
unop_2

>  <geom_source>  (6) 
Heuristics

$$$$

     RDKit          3D

 13 11  0  0  0  0  0  0  0  0999 V2000
   -0.0706   -1.6414   -0.2783 C   0  0  0  0  0  0  0  0  0  0  0  0
   -0.0706   -1.6414   -2.0889 S   0  0  0  0  0  0  0  0  0  0  0  0
   -0.0706   -0.4256    0.1975 H   0  0  0  0  0  0  0  0  0  0  0  0
   -0.9913   -2.1355    0.0277 H   0  0  0  0  0  0  0  0  0  0  0  0
    0.7737   -2.2014    0.1182 H   0  0  0  0  0  0  0  0  0  0  0  0
    1.0997   -1.0133   -2.2553 H   0  0  0  0  0  0  0  0  0  0  0  0
   -1.7596    0.1842    2.3173 C   0  0  0  0  0  0  0  0  0  0  0  0
   -0.7287    0.9476    1.9588 C   0  0  0  0  0  0  0  0  0  0  0  0
   -0.0706    0.7942    0.6748 C   0  0  0  0  0  3  0  0  0  0  0  0
    1.1813    1.6714    0.1573 S   0  0  0  0  0  0  0  0  0  0  0  0
   -2.2470    0.3027    3.2763 H   0  0  0  0  0  0  0  0  0  0  0  0
   -2.1468   -0.5847    1.6579 H   0  0  0  0  0  0  0  0  0  0  0  0
   -0.3419    1.7163    2.6184 H   0  0  0  0  0  0  0  0  0  0  0  0
  1  2  1  0
  1  3  1  0
  1  4  1  0
  1  5  1  0
  2  6  1  0
  7  8  2  3
  7 11  1  0
  7 12  1  0
  8  9  1  0
  8 13  1  0
  9 10  2  0
M  RAD  1   9   2
M  END
>  <reaction>  (7) 
rxn_1861

>  <mol_properties>  (7) 
{"0": {"label": "*3", "atom_type": "Cs"}, "1": {"label": "*4", "atom_type": "S2s"}, "2": {"label": "*2", "atom_type": "H0"}, "8": {"label": "*1", "atom_type": "CS"}, "9": {"label": "*0", "atom_type": "S2d"}}

>  <type>  (7) 
unop_3

>  <geom_source>  (7) 
Heuristics

$$$$

     RDKit          3D

 13 11  0  0  0  0  0  0  0  0999 V2000
   -0.1332   -1.6625   -0.2219 C   0  0  0  0  0  0  0  0  0  0  0  0
   -0.1332   -1.6625   -2.0326 S   0  0  0  0  0  0  0  0  0  0  0  0
   -0.1332   -0.4466    0.2539 H   0  0  0  0  0  0  0  0  0  0  0  0
   -1.0539   -2.1566    0.0840 H   0  0  0  0  0  0  0  0  0  0  0  0
    0.7111   -2.2225    0.1746 H   0  0  0  0  0  0  0  0  0  0  0  0
    1.0371   -1.0343   -2.1990 H   0  0  0  0  0  0  0  0  0  0  0  0
    1.6125    1.4236   -0.8347 C   0  0  0  0  0  0  0  0  0  0  0  0
    1.0066    1.5817    0.3409 C   0  0  0  0  0  0  0  0  0  0  0  0
   -0.1332    0.7731    0.7312 C   0  0  0  0  0  3  0  0  0  0  0  0
   -0.9277    0.8943    2.1308 S   0  0  0  0  0  0  0  0  0  0  0  0
    2.4624    2.0295   -1.1209 H   0  0  0  0  0  0  0  0  0  0  0  0
    1.2734    0.6799   -1.5472 H   0  0  0  0  0  0  0  0  0  0  0  0
    1.3459    2.3255    1.0531 H   0  0  0  0  0  0  0  0  0  0  0  0
  1  2  1  0
  1  3  1  0
  1  4  1  0
  1  5  1  0
  2  6  1  0
  7  8  2  3
  7 11  1  0
  7 12  1  0
  8  9  1  0
  8 13  1  0
  9 10  2  0
M  RAD  1   9   2
M  END
>  <reaction>  (8) 
rxn_1861

>  <mol_properties>  (8) 
{"0": {"label": "*3", "atom_type": "Cs"}, "1": {"label": "*4", "atom_type": "S2s"}, "2": {"label": "*2", "atom_type": "H0"}, "8": {"label": "*1", "atom_type": "CS"}, "9": {"label": "*0", "atom_type": "S2d"}}

>  <type>  (8) 
unop_4

>  <geom_source>  (8) 
Heuristics

$$$$

     RDKit          3D

 13 11  0  0  0  0  0  0  0  0999 V2000
   -0.0093   -1.6906   -0.2324 C   0  0  0  0  0  0  0  0  0  0  0  0
   -0.0093   -1.6906   -2.0431 S   0  0  0  0  0  0  0  0  0  0  0  0
   -0.0093   -0.4747    0.2434 H   0  0  0  0  0  0  0  0  0  0  0  0
   -0.9299   -2.1847    0.0735 H   0  0  0  0  0  0  0  0  0  0  0  0
    0.8351   -2.2506    0.1641 H   0  0  0  0  0  0  0  0  0  0  0  0
    1.1610   -1.0624   -2.2095 H   0  0  0  0  0  0  0  0  0  0  0  0
   -0.0093   -0.2511    2.9411 C   0  0  0  0  0  0  0  0  0  0  0  0
   -0.0093    0.8342    2.1689 C   0  0  0  0  0  0  0  0  0  0  0  0
   -0.0093    0.7450    0.7207 C   0  0  0  0  0  3  0  0  0  0  0  0
   -0.0093    2.0021   -0.2915 S   0  0  0  0  0  0  0  0  0  0  0  0
   -0.0093   -0.1791    4.0210 H   0  0  0  0  0  0  0  0  0  0  0  0
   -0.0093   -1.2470    2.5122 H   0  0  0  0  0  0  0  0  0  0  0  0
   -0.0093    1.8299    2.5980 H   0  0  0  0  0  0  0  0  0  0  0  0
  1  2  1  0
  1  3  1  0
  1  4  1  0
  1  5  1  0
  2  6  1  0
  7  8  2  3
  7 11  1  0
  7 12  1  0
  8  9  1  0
  8 13  1  0
  9 10  2  0
M  RAD  1   9   2
M  END
>  <reaction>  (9) 
rxn_1861

>  <mol_properties>  (9) 
{"0": {"label": "*3", "atom_type": "Cs"}, "1": {"label": "*4", "atom_type": "S2s"}, "2": {"label": "*2", "atom_type": "H0"}, "8": {"label": "*1", "atom_type": "CS"}, "9": {"label": "*0", "atom_type": "S2d"}}

>  <type>  (9) 
unop_5

>  <geom_source>  (9) 
Heuristics

$$$$

     RDKit          3D

 13 11  0  0  0  0  0  0  0  0999 V2000
   -0.0932   -1.6176   -0.2898 C   0  0  0  0  0  0  0  0  0  0  0  0
   -0.0932   -1.6176   -2.1004 S   0  0  0  0  0  0  0  0  0  0  0  0
   -0.0932   -0.4018    0.1860 H   0  0  0  0  0  0  0  0  0  0  0  0
   -1.0139   -2.1118    0.0162 H   0  0  0  0  0  0  0  0  0  0  0  0
    0.7511   -2.1776    0.1067 H   0  0  0  0  0  0  0  0  0  0  0  0
    1.0771   -0.9895   -2.2668 H   0  0  0  0  0  0  0  0  0  0  0  0
    2.2257    1.1974    0.0300 C   0  0  0  0  0  0  0  0  0  0  0  0
    1.2229    1.3867    0.8859 C   0  0  0  0  0  0  0  0  0  0  0  0
   -0.0932    0.8180    0.6633 C   0  0  0  0  0  3  0  0  0  0  0  0
   -1.3636    0.9943    1.6430 S   0  0  0  0  0  0  0  0  0  0  0  0
    3.2056    1.6239    0.2007 H   0  0  0  0  0  0  0  0  0  0  0  0
    2.0936    0.6072   -0.8701 H   0  0  0  0  0  0  0  0  0  0  0  0
    1.3554    1.9768    1.7858 H   0  0  0  0  0  0  0  0  0  0  0  0
  1  2  1  0
  1  3  1  0
  1  4  1  0
  1  5  1  0
  2  6  1  0
  7  8  2  3
  7 11  1  0
  7 12  1  0
  8  9  1  0
  8 13  1  0
  9 10  2  0
M  RAD  1   9   2
M  END
>  <reaction>  (10) 
rxn_1861

>  <mol_properties>  (10) 
{"0": {"label": "*3", "atom_type": "Cs"}, "1": {"label": "*4", "atom_type": "S2s"}, "2": {"label": "*2", "atom_type": "H0"}, "8": {"label": "*1", "atom_type": "CS"}, "9": {"label": "*0", "atom_type": "S2d"}}

>  <type>  (10) 
unop_6

>  <geom_source>  (10) 
Heuristics

$$$$

     RDKit          3D

 13 11  0  0  0  0  0  0  0  0999 V2000
   -0.0101   -1.6046   -0.3140 C   0  0  0  0  0  0  0  0  0  0  0  0
   -0.0101   -1.6046   -2.1247 S   0  0  0  0  0  0  0  0  0  0  0  0
   -0.0101   -0.3887    0.1617 H   0  0  0  0  0  0  0  0  0  0  0  0
   -0.9308   -2.0987   -0.0081 H   0  0  0  0  0  0  0  0  0  0  0  0
    0.8342   -2.1646    0.0824 H   0  0  0  0  0  0  0  0  0  0  0  0
    1.1602   -0.9764   -2.2911 H   0  0  0  0  0  0  0  0  0  0  0  0
    2.3662    0.7764    1.1613 C   0  0  0  0  0  0  0  0  0  0  0  0
    1.1297    1.1600    1.4744 C   0  0  0  0  0  0  0  0  0  0  0  0
   -0.0101    0.8310    0.6390 C   0  0  0  0  0  3  0  0  0  0  0  0
   -1.5390    1.2522    0.9388 S   0  0  0  0  0  0  0  0  0  0  0  0
    3.2130    1.0244    1.7879 H   0  0  0  0  0  0  0  0  0  0  0  0
    2.5667    0.2005    0.2646 H   0  0  0  0  0  0  0  0  0  0  0  0
    0.9295    1.7358    2.3711 H   0  0  0  0  0  0  0  0  0  0  0  0
  1  2  1  0
  1  3  1  0
  1  4  1  0
  1  5  1  0
  2  6  1  0
  7  8  2  3
  7 11  1  0
  7 12  1  0
  8  9  1  0
  8 13  1  0
  9 10  2  0
M  RAD  1   9   2
M  END
>  <reaction>  (11) 
rxn_1861

>  <mol_properties>  (11) 
{"0": {"label": "*3", "atom_type": "Cs"}, "1": {"label": "*4", "atom_type": "S2s"}, "2": {"label": "*2", "atom_type": "H0"}, "8": {"label": "*1", "atom_type": "CS"}, "9": {"label": "*0", "atom_type": "S2d"}}

>  <type>  (11) 
unop_7

>  <geom_source>  (11) 
Heuristics

$$$$

     RDKit          3D

 13 11  0  0  0  0  0  0  0  0999 V2000
    0.0747   -1.6176   -0.2898 C   0  0  0  0  0  0  0  0  0  0  0  0
    0.0747   -1.6176   -2.1004 S   0  0  0  0  0  0  0  0  0  0  0  0
    0.0747   -0.4018    0.1860 H   0  0  0  0  0  0  0  0  0  0  0  0
   -0.8460   -2.1118    0.0162 H   0  0  0  0  0  0  0  0  0  0  0  0
    0.9191   -2.1776    0.1067 H   0  0  0  0  0  0  0  0  0  0  0  0
    1.2450   -0.9895   -2.2668 H   0  0  0  0  0  0  0  0  0  0  0  0
   -2.2442    1.1974    0.0300 C   0  0  0  0  0  0  0  0  0  0  0  0
   -1.2414    1.3867    0.8859 C   0  0  0  0  0  0  0  0  0  0  0  0
    0.0747    0.8180    0.6633 C   0  0  0  0  0  3  0  0  0  0  0  0
    1.3451    0.9943    1.6430 S   0  0  0  0  0  0  0  0  0  0  0  0
   -3.2242    1.6239    0.2007 H   0  0  0  0  0  0  0  0  0  0  0  0
   -2.1121    0.6072   -0.8701 H   0  0  0  0  0  0  0  0  0  0  0  0
   -1.3739    1.9768    1.7858 H   0  0  0  0  0  0  0  0  0  0  0  0
  1  2  1  0
  1  3  1  0
  1  4  1  0
  1  5  1  0
  2  6  1  0
  7  8  2  3
  7 11  1  0
  7 12  1  0
  8  9  1  0
  8 13  1  0
  9 10  2  0
M  RAD  1   9   2
M  END
>  <reaction>  (12) 
rxn_1861

>  <mol_properties>  (12) 
{"0": {"label": "*3", "atom_type": "Cs"}, "1": {"label": "*4", "atom_type": "S2s"}, "2": {"label": "*2", "atom_type": "H0"}, "8": {"label": "*1", "atom_type": "CS"}, "9": {"label": "*0", "atom_type": "S2d"}}

>  <type>  (12) 
unop_8

>  <geom_source>  (12) 
Heuristics

$$$$

     RDKit          3D

 13 11  0  0  0  0  0  0  0  0999 V2000
   -0.1012   -1.7129   -0.1488 C   0  0  0  0  0  0  0  0  0  0  0  0
   -0.1012   -1.7129   -1.9595 S   0  0  0  0  0  0  0  0  0  0  0  0
   -0.1012   -0.4971    0.3270 H   0  0  0  0  0  0  0  0  0  0  0  0
   -1.0218   -2.2071    0.1571 H   0  0  0  0  0  0  0  0  0  0  0  0
    0.7432   -2.2729    0.2477 H   0  0  0  0  0  0  0  0  0  0  0  0
    1.0691   -1.0848   -2.1259 H   0  0  0  0  0  0  0  0  0  0  0  0
    0.8026    1.4814   -1.3241 C   0  0  0  0  0  0  0  0  0  0  0  0
    0.5569    1.7068   -0.0346 C   0  0  0  0  0  0  0  0  0  0  0  0
   -0.1012    0.7227    0.8043 C   0  0  0  0  0  3  0  0  0  0  0  0
   -0.4385    0.9086    2.3715 S   0  0  0  0  0  0  0  0  0  0  0  0
    1.2938    2.2189   -1.9455 H   0  0  0  0  0  0  0  0  0  0  0  0
    0.5177    0.5478   -1.7966 H   0  0  0  0  0  0  0  0  0  0  0  0
    0.8419    2.6403    0.4375 H   0  0  0  0  0  0  0  0  0  0  0  0
  1  2  1  0
  1  3  1  0
  1  4  1  0
  1  5  1  0
  2  6  1  0
  7  8  2  3
  7 11  1  0
  7 12  1  0
  8  9  1  0
  8 13  1  0
  9 10  2  0
M  RAD  1   9   2
M  END
>  <reaction>  (13) 
rxn_1861

>  <mol_properties>  (13) 
{"0": {"label": "*3", "atom_type": "Cs"}, "1": {"label": "*4", "atom_type": "S2s"}, "2": {"label": "*2", "atom_type": "H0"}, "8": {"label": "*1", "atom_type": "CS"}, "9": {"label": "*0", "atom_type": "S2d"}}

>  <type>  (13) 
unop_9

>  <geom_source>  (13) 
Heuristics

$$$$

     RDKit          3D

 13 11  0  0  0  0  0  0  0  0999 V2000
    0.1147   -1.6625   -0.2219 C   0  0  0  0  0  0  0  0  0  0  0  0
    0.1147   -1.6625   -2.0326 S   0  0  0  0  0  0  0  0  0  0  0  0
    0.1147   -0.4466    0.2539 H   0  0  0  0  0  0  0  0  0  0  0  0
   -0.8060   -2.1566    0.0840 H   0  0  0  0  0  0  0  0  0  0  0  0
    0.9591   -2.2225    0.1746 H   0  0  0  0  0  0  0  0  0  0  0  0
    1.2850   -1.0343   -2.1990 H   0  0  0  0  0  0  0  0  0  0  0  0
   -1.6310    1.4236   -0.8346 C   0  0  0  0  0  0  0  0  0  0  0  0
   -1.0251    1.5817    0.3409 C   0  0  0  0  0  0  0  0  0  0  0  0
    0.1147    0.7731    0.7312 C   0  0  0  0  0  3  0  0  0  0  0  0
    0.9091    0.8943    2.1308 S   0  0  0  0  0  0  0  0  0  0  0  0
   -2.4810    2.0295   -1.1209 H   0  0  0  0  0  0  0  0  0  0  0  0
   -1.2919    0.6799   -1.5472 H   0  0  0  0  0  0  0  0  0  0  0  0
   -1.3645    2.3255    1.0531 H   0  0  0  0  0  0  0  0  0  0  0  0
  1  2  1  0
  1  3  1  0
  1  4  1  0
  1  5  1  0
  2  6  1  0
  7  8  2  3
  7 11  1  0
  7 12  1  0
  8  9  1  0
  8 13  1  0
  9 10  2  0
M  RAD  1   9   2
M  END
>  <reaction>  (14) 
rxn_1861

>  <mol_properties>  (14) 
{"0": {"label": "*3", "atom_type": "Cs"}, "1": {"label": "*4", "atom_type": "S2s"}, "2": {"label": "*2", "atom_type": "H0"}, "8": {"label": "*1", "atom_type": "CS"}, "9": {"label": "*0", "atom_type": "S2d"}}

>  <type>  (14) 
unop_10

>  <geom_source>  (14) 
Heuristics

$$$$

     RDKit          3D

 13 11  0  0  0  0  0  0  0  0999 V2000
    0.0521   -1.6414   -0.2783 C   0  0  0  0  0  0  0  0  0  0  0  0
    0.0521   -1.6414   -2.0889 S   0  0  0  0  0  0  0  0  0  0  0  0
    0.0521   -0.4256    0.1975 H   0  0  0  0  0  0  0  0  0  0  0  0
   -0.8686   -2.1355    0.0277 H   0  0  0  0  0  0  0  0  0  0  0  0
    0.8965   -2.2014    0.1182 H   0  0  0  0  0  0  0  0  0  0  0  0
    1.2224   -1.0133   -2.2553 H   0  0  0  0  0  0  0  0  0  0  0  0
    1.7411    0.1842    2.3173 C   0  0  0  0  0  0  0  0  0  0  0  0
    0.7102    0.9476    1.9588 C   0  0  0  0  0  0  0  0  0  0  0  0
    0.0521    0.7942    0.6748 C   0  0  0  0  0  3  0  0  0  0  0  0
   -1.1998    1.6714    0.1573 S   0  0  0  0  0  0  0  0  0  0  0  0
    2.2285    0.3027    3.2763 H   0  0  0  0  0  0  0  0  0  0  0  0
    2.1282   -0.5847    1.6579 H   0  0  0  0  0  0  0  0  0  0  0  0
    0.3233    1.7163    2.6184 H   0  0  0  0  0  0  0  0  0  0  0  0
  1  2  1  0
  1  3  1  0
  1  4  1  0
  1  5  1  0
  2  6  1  0
  7  8  2  3
  7 11  1  0
  7 12  1  0
  8  9  1  0
  8 13  1  0
  9 10  2  0
M  RAD  1   9   2
M  END
>  <reaction>  (15) 
rxn_1861

>  <mol_properties>  (15) 
{"0": {"label": "*3", "atom_type": "Cs"}, "1": {"label": "*4", "atom_type": "S2s"}, "2": {"label": "*2", "atom_type": "H0"}, "8": {"label": "*1", "atom_type": "CS"}, "9": {"label": "*0", "atom_type": "S2d"}}

>  <type>  (15) 
unop_11

>  <geom_source>  (15) 
Heuristics

$$$$

     RDKit          3D

 13 11  0  0  0  0  0  0  0  0999 V2000
   -0.0093   -1.7358   -0.1167 C   0  0  0  0  0  0  0  0  0  0  0  0
   -0.0093   -1.7358   -1.9273 S   0  0  0  0  0  0  0  0  0  0  0  0
   -0.0093   -0.5200    0.3591 H   0  0  0  0  0  0  0  0  0  0  0  0
   -0.9299   -2.2300    0.1893 H   0  0  0  0  0  0  0  0  0  0  0  0
    0.8351   -2.2958    0.2798 H   0  0  0  0  0  0  0  0  0  0  0  0
    1.1610   -1.1077   -2.0937 H   0  0  0  0  0  0  0  0  0  0  0  0
   -0.0093    1.4752   -1.4704 C   0  0  0  0  0  0  0  0  0  0  0  0
   -0.0093    1.7481   -0.1667 C   0  0  0  0  0  0  0  0  0  0  0  0
   -0.0093    0.6997    0.8364 C   0  0  0  0  0  3  0  0  0  0  0  0
   -0.0093    0.9360    2.4329 S   0  0  0  0  0  0  0  0  0  0  0  0
   -0.0093    2.2611   -2.2146 H   0  0  0  0  0  0  0  0  0  0  0  0
   -0.0093    0.4527   -1.8314 H   0  0  0  0  0  0  0  0  0  0  0  0
   -0.0093    2.7707    0.1940 H   0  0  0  0  0  0  0  0  0  0  0  0
  1  2  1  0
  1  3  1  0
  1  4  1  0
  1  5  1  0
  2  6  1  0
  7  8  2  3
  7 11  1  0
  7 12  1  0
  8  9  1  0
  8 13  1  0
  9 10  2  0
M  RAD  1   9   2
M  END
>  <reaction>  (16) 
rxn_1861

>  <mol_properties>  (16) 
{"0": {"label": "*3", "atom_type": "Cs"}, "1": {"label": "*4", "atom_type": "S2s"}, "2": {"label": "*2", "atom_type": "H0"}, "8": {"label": "*1", "atom_type": "CS"}, "9": {"label": "*0", "atom_type": "S2d"}}

>  <type>  (16) 
unop_12

>  <geom_source>  (16) 
Heuristics

$$$$

     RDKit          3D

 13 11  0  0  0  0  0  0  0  0999 V2000
    1.7872    1.1715   -1.1036 S   0  0  0  0  0  0  0  0  0  0  0  0
   -1.0125   -2.9445    0.3920 S   0  0  0  0  0  0  0  0  0  0  0  0
   -1.6452   -0.3649   -0.0389 C   0  0  0  0  0  0  0  0  0  0  0  0
   -1.3339    0.9211   -0.1624 C   0  0  0  0  0  0  0  0  0  0  0  0
   -0.6131   -1.3670    0.2431 C   0  0  0  0  0  0  0  0  0  0  0  0
    1.6227   -0.0330    0.2431 C   0  0  0  0  0  3  0  0  0  0  0  0
   -2.6781   -0.6728   -0.1491 H   0  0  0  0  0  0  0  0  0  0  0  0
   -0.3116    1.2636   -0.0583 H   0  0  0  0  0  0  0  0  0  0  0  0
   -2.1089    1.6473   -0.3707 H   0  0  0  0  0  0  0  0  0  0  0  0
    0.6640   -1.0020    0.3814 H   0  0  0  0  0  0  0  0  0  0  0  0
    2.3705    0.1873    1.0327 H   0  0  0  0  0  0  0  0  0  0  0  0
    1.7950   -1.0549   -0.1527 H   0  0  0  0  0  0  0  0  0  0  0  0
    1.4641    2.2483   -0.2565 H   0  0  0  0  0  0  0  0  0  0  0  0
  1  6  1  0
  1 13  1  0
  2  5  2  0
  3  4  2  3
  3  5  1  0
  3  7  1  0
  4  8  1  0
  4  9  1  0
  5 10  1  0
  6 11  1  0
  6 12  1  0
M  RAD  1   6   2
M  END
>  <reaction>  (17) 
rxn_1861

>  <mol_properties>  (17) 
{"0": {"label": "*3", "atom_type": "Cs"}, "1": {"label": "*4", "atom_type": "S2s"}, "2": {"label": "*2", "atom_type": "H0"}, "8": {"label": "*1", "atom_type": "CS"}, "9": {"label": "*0", "atom_type": "S2d"}}

>  <type>  (17) 
unop_13

>  <geom_source>  (17) 
AutoTST

$$$$
