
     RDKit          3D

 10  9  0  0  0  0  0  0  0  0999 V2000
    2.2738    0.0217   -0.0992 C   0  0  0  0  0  0  0  0  0  0  0  0
    1.1083    0.2960   -0.0695 C   0  0  0  0  0  0  0  0  0  0  0  0
   -0.3173    0.6046   -0.0227 C   0  0  0  0  0  0  0  0  0  0  0  0
   -1.1561   -0.5495    0.5292 C   0  0  0  0  0  0  0  0  0  0  0  0
    3.3097   -0.2166   -0.1277 H   0  0  0  0  0  0  0  0  0  0  0  0
   -0.6542    0.8617   -1.0302 H   0  0  0  0  0  0  0  0  0  0  0  0
   -0.4633    1.4978    0.5900 H   0  0  0  0  0  0  0  0  0  0  0  0
   -0.8485   -0.7997    1.5447 H   0  0  0  0  0  0  0  0  0  0  0  0
   -2.2115   -0.2752    0.5459 H   0  0  0  0  0  0  0  0  0  0  0  0
   -1.0409   -1.4407   -0.0879 H   0  0  0  0  0  0  0  0  0  0  0  0
  1  2  3  0
  1  5  1  0
  2  3  1  0
  3  4  1  0
  3  6  1  0
  3  7  1  0
  4  8  1  0
  4  9  1  0
  4 10  1  0
M  END
>  <reaction>  (1) 
rxn_1282

>  <mol_properties>  (1) 
{"2": {"label": "donator", "atom_type": "Cs"}, "5": {"label": "d_hydrogen", "atom_type": "H0"}}

>  <type>  (1) 
r1h

$$$$

     RDKit          3D

  6  5  0  0  0  0  0  0  0  0999 V2000
   -0.7309   -0.0987    0.0327 C   0  0  0  0  0  0  0  0  0  0  0  0
    0.6208    0.0065   -0.0096 C   0  0  0  0  0  0  0  0  0  0  0  0
    1.6572   -1.2972    0.2837 S   0  0  0  0  0  1  0  0  0  0  0  0
   -1.3651    0.7588   -0.1608 H   0  0  0  0  0  0  0  0  0  0  0  0
   -1.2044   -1.0453    0.2616 H   0  0  0  0  0  0  0  0  0  0  0  0
    1.0609    0.9725   -0.2426 H   0  0  0  0  0  0  0  0  0  0  0  0
  1  2  2  3
  1  4  1  0
  1  5  1  0
  2  3  1  0
  2  6  1  0
M  RAD  1   3   2
M  END
>  <reaction>  (2) 
rxn_1282

>  <mol_properties>  (2) 
{"0": {"label": "acceptor", "atom_type": "Cs"}}

>  <type>  (2) 
r2

$$$$

     RDKit          3D

  7  6  0  0  0  0  0  0  0  0999 V2000
   -0.6782    0.0507    0.0301 C   0  0  0  0  0  0  0  0  0  0  0  0
    0.8092    0.0996    0.0213 C   0  0  0  0  0  0  0  0  0  0  0  0
    1.7473    0.7521    1.1507 S   0  0  0  0  0  0  0  0  0  0  0  0
   -1.0667    0.5456   -0.8653 H   0  0  0  0  0  0  0  0  0  0  0  0
   -1.0112   -0.9904   -0.0239 H   0  0  0  0  0  0  0  0  0  0  0  0
   -1.0920    0.5225    0.9188 H   0  0  0  0  0  0  0  0  0  0  0  0
    1.2740   -0.3620   -0.8520 H   0  0  0  0  0  0  0  0  0  0  0  0
  1  2  1  0
  1  4  1  0
  1  5  1  0
  1  6  1  0
  2  3  2  0
  2  7  1  0
M  END
>  <reaction>  (3) 
rxn_1282

>  <mol_properties>  (3) 
{"0": {"label": "a_hydrogen", "atom_type": "H0"}, "1": {"label": "acceptor", "atom_type": "Cs"}}

>  <type>  (3) 
r2h

$$$$

     RDKit          3D

 16 14  0  0  0  0  0  0  0  0999 V2000
   -2.4485   -0.5818   -2.7840 C   0  0  0  0  0  0  0  0  0  0  0  0
   -2.1829   -0.0877   -1.7193 C   0  0  0  0  0  0  0  0  0  0  0  0
   -1.8076    0.4711   -0.4718 C   0  0  0  0  0  3  0  0  0  0  0  0
   -1.3508    1.9073   -0.4323 C   0  0  0  0  0  0  0  0  0  0  0  0
   -2.7009   -1.0108   -3.7239 H   0  0  0  0  0  0  0  0  0  0  0  0
   -0.6716   -0.2238   -0.0846 H   0  0  0  0  0  0  0  0  0  0  0  0
   -2.4414    0.1672    0.3603 H   0  0  0  0  0  0  0  0  0  0  0  0
   -2.2011    2.5823   -0.5588 H   0  0  0  0  0  0  0  0  0  0  0  0
   -0.8769    2.1268    0.5252 H   0  0  0  0  0  0  0  0  0  0  0  0
   -0.6380    2.1102   -1.2315 H   0  0  0  0  0  0  0  0  0  0  0  0
    0.4862   -0.7051    0.2745 C   0  0  0  0  0  0  0  0  0  0  0  0
    0.4479   -0.7793    1.7066 C   0  0  0  0  0  0  0  0  0  0  0  0
    0.8707    0.4212    2.7285 S   0  0  0  0  0  0  0  0  0  0  0  0
    0.4824   -1.6504   -0.2637 H   0  0  0  0  0  0  0  0  0  0  0  0
    1.1427    0.0535   -0.1436 H   0  0  0  0  0  0  0  0  0  0  0  0
    0.0469   -1.7039    2.1226 H   0  0  0  0  0  0  0  0  0  0  0  0
  1  2  3  0
  1  5  1  0
  2  3  1  0
  3  4  1  0
  3  7  1  0
  4  8  1  0
  4  9  1  0
  4 10  1  0
  6 11  1  0
 11 12  1  0
 11 14  1  0
 11 15  1  0
 12 13  2  0
 12 16  1  0
M  RAD  1   3   2
M  END
>  <reaction>  (4) 
rxn_1282

>  <mol_properties>  (4) 
{"1": {"label": "*4", "atom_type": "Ct"}, "2": {"label": "*3", "atom_type": "Cs"}, "5": {"label": "*2", "atom_type": "H0"}, "10": {"label": "*1", "atom_type": "Cs"}, "11": {"label": "*0", "atom_type": "CS"}}

>  <type>  (4) 
ts

$$$$

     RDKit          3D

 16 14  0  0  0  0  0  0  0  0999 V2000
   -1.8710    0.1758   -3.1542 C   0  0  0  0  0  0  0  0  0  0  0  0
   -1.8710    0.1758   -1.9565 C   0  0  0  0  0  0  0  0  0  0  0  0
   -1.8710    0.2040   -0.4973 C   0  0  0  0  0  0  0  0  0  0  0  0
   -1.8710    1.6254    0.0683 C   0  0  0  0  0  0  0  0  0  0  0  0
   -1.8710    0.1758   -4.2175 H   0  0  0  0  0  0  0  0  0  0  0  0
   -0.8204   -0.4501   -0.0633 H   0  0  0  0  0  0  0  0  0  0  0  0
   -2.7465   -0.3411   -0.1356 H   0  0  0  0  0  0  0  0  0  0  0  0
   -2.7532    2.1732   -0.2632 H   0  0  0  0  0  0  0  0  0  0  0  0
   -1.8710    1.5981    1.1585 H   0  0  0  0  0  0  0  0  0  0  0  0
   -0.9887    2.1732   -0.2632 H   0  0  0  0  0  0  0  0  0  0  0  0
    0.2316   -1.1051    0.3713 C   0  0  0  0  0  0  0  0  0  0  0  0
    1.0882   -0.1940    1.1780 C   0  0  0  0  0  0  0  0  0  0  0  0
    2.6388   -0.4138    1.5369 S   0  0  0  0  0  1  0  0  0  0  0  0
   -0.6301   -1.4215    0.9672 H   0  0  0  0  0  0  0  0  0  0  0  0
    0.7822   -1.9791    0.0299 H   0  0  0  0  0  0  0  0  0  0  0  0
    0.5810    0.7003    1.5450 H   0  0  0  0  0  0  0  0  0  0  0  0
  1  2  3  0
  1  5  1  0
  2  3  1  0
  3  4  1  0
  3  6  1  0
  3  7  1  0
  4  8  1  0
  4  9  1  0
  4 10  1  0
 11 12  2  3
 11 14  1  0
 11 15  1  0
 12 13  1  0
 12 16  1  0
M  RAD  1  13   2
M  END
>  <reaction>  (5) 
rxn_1282

>  <mol_properties>  (5) 
{"1": {"label": "*4", "atom_type": "Ct"}, "2": {"label": "*3", "atom_type": "Cs"}, "5": {"label": "*2", "atom_type": "H0"}, "10": {"label": "*1", "atom_type": "Cs"}, "11": {"label": "*0", "atom_type": "CS"}}

>  <type>  (5) 
unop_1

>  <geom_source>  (5) 
Heuristics

$$$$

     RDKit          3D

 16 14  0  0  0  0  0  0  0  0999 V2000
   -1.8269    0.7518   -2.2158 C   0  0  0  0  0  0  0  0  0  0  0  0
   -1.8269    0.7518   -1.0180 C   0  0  0  0  0  0  0  0  0  0  0  0
   -1.8269    0.7801    0.4411 C   0  0  0  0  0  0  0  0  0  0  0  0
   -1.8268    2.2014    1.0067 C   0  0  0  0  0  0  0  0  0  0  0  0
   -1.8269    0.7518   -3.2791 H   0  0  0  0  0  0  0  0  0  0  0  0
   -0.7763    0.1260    0.8752 H   0  0  0  0  0  0  0  0  0  0  0  0
   -2.7024    0.2350    0.8028 H   0  0  0  0  0  0  0  0  0  0  0  0
   -2.7091    2.7493    0.6752 H   0  0  0  0  0  0  0  0  0  0  0  0
   -1.8268    2.1742    2.0970 H   0  0  0  0  0  0  0  0  0  0  0  0
   -0.9446    2.7493    0.6752 H   0  0  0  0  0  0  0  0  0  0  0  0
    0.2758   -0.5290    1.3098 C   0  0  0  0  0  0  0  0  0  0  0  0
    1.3791   -0.4151    0.3177 C   0  0  0  0  0  0  0  0  0  0  0  0
    2.3947   -1.5823   -0.1155 S   0  0  0  0  0  1  0  0  0  0  0  0
    0.4231    0.2048    2.1082 H   0  0  0  0  0  0  0  0  0  0  0  0
    0.2183   -1.5283    1.7362 H   0  0  0  0  0  0  0  0  0  0  0  0
    1.4788    0.5710   -0.1399 H   0  0  0  0  0  0  0  0  0  0  0  0
  1  2  3  0
  1  5  1  0
  2  3  1  0
  3  4  1  0
  3  6  1  0
  3  7  1  0
  4  8  1  0
  4  9  1  0
  4 10  1  0
 11 12  2  3
 11 14  1  0
 11 15  1  0
 12 13  1  0
 12 16  1  0
M  RAD  1  13   2
M  END
>  <reaction>  (6) 
rxn_1282

>  <mol_properties>  (6) 
{"1": {"label": "*4", "atom_type": "Ct"}, "2": {"label": "*3", "atom_type": "Cs"}, "5": {"label": "*2", "atom_type": "H0"}, "10": {"label": "*1", "atom_type": "Cs"}, "11": {"label": "*0", "atom_type": "CS"}}

>  <type>  (6) 
unop_2

>  <geom_source>  (6) 
Heuristics

$$$$

     RDKit          3D

 16 14  0  0  0  0  0  0  0  0999 V2000
   -1.6948    0.2404   -3.4033 C   0  0  0  0  0  0  0  0  0  0  0  0
   -1.6948    0.2404   -2.2056 C   0  0  0  0  0  0  0  0  0  0  0  0
   -1.6948    0.2686   -0.7465 C   0  0  0  0  0  0  0  0  0  0  0  0
   -1.6948    1.6900   -0.1809 C   0  0  0  0  0  0  0  0  0  0  0  0
   -1.6948    0.2404   -4.4666 H   0  0  0  0  0  0  0  0  0  0  0  0
   -0.6442   -0.3855   -0.3124 H   0  0  0  0  0  0  0  0  0  0  0  0
   -2.5703   -0.2764   -0.3847 H   0  0  0  0  0  0  0  0  0  0  0  0
   -2.5770    2.2379   -0.5123 H   0  0  0  0  0  0  0  0  0  0  0  0
   -1.6948    1.6627    0.9094 H   0  0  0  0  0  0  0  0  0  0  0  0
   -0.8126    2.2379   -0.5123 H   0  0  0  0  0  0  0  0  0  0  0  0
    0.4078   -1.0405    0.1222 C   0  0  0  0  0  0  0  0  0  0  0  0
    0.8512   -0.4661    1.4215 C   0  0  0  0  0  0  0  0  0  0  0  0
    2.3569   -0.4259    1.9808 S   0  0  0  0  0  1  0  0  0  0  0  0
   -0.3373   -1.8217    0.3018 H   0  0  0  0  0  0  0  0  0  0  0  0
    1.2418   -1.4519   -0.4425 H   0  0  0  0  0  0  0  0  0  0  0  0
    0.0494   -0.0394    2.0271 H   0  0  0  0  0  0  0  0  0  0  0  0
  1  2  3  0
  1  5  1  0
  2  3  1  0
  3  4  1  0
  3  6  1  0
  3  7  1  0
  4  8  1  0
  4  9  1  0
  4 10  1  0
 11 12  2  3
 11 14  1  0
 11 15  1  0
 12 13  1  0
 12 16  1  0
M  RAD  1  13   2
M  END
>  <reaction>  (7) 
rxn_1282

>  <mol_properties>  (7) 
{"1": {"label": "*4", "atom_type": "Ct"}, "2": {"label": "*3", "atom_type": "Cs"}, "5": {"label": "*2", "atom_type": "H0"}, "10": {"label": "*1", "atom_type": "Cs"}, "11": {"label": "*0", "atom_type": "CS"}}

>  <type>  (7) 
unop_3

>  <geom_source>  (7) 
Heuristics

$$$$

     RDKit          3D

 16 14  0  0  0  0  0  0  0  0999 V2000
   -0.8920    1.3815   -2.7535 C   0  0  0  0  0  0  0  0  0  0  0  0
   -0.8920    1.3815   -1.5558 C   0  0  0  0  0  0  0  0  0  0  0  0
   -0.8920    1.4097   -0.0966 C   0  0  0  0  0  0  0  0  0  0  0  0
   -0.8920    2.8311    0.4690 C   0  0  0  0  0  0  0  0  0  0  0  0
   -0.8920    1.3815   -3.8168 H   0  0  0  0  0  0  0  0  0  0  0  0
    0.1586    0.7556    0.3374 H   0  0  0  0  0  0  0  0  0  0  0  0
   -1.7675    0.8646    0.2651 H   0  0  0  0  0  0  0  0  0  0  0  0
   -1.7742    3.3789    0.1375 H   0  0  0  0  0  0  0  0  0  0  0  0
   -0.8920    2.8038    1.5593 H   0  0  0  0  0  0  0  0  0  0  0  0
   -0.0097    3.3789    0.1375 H   0  0  0  0  0  0  0  0  0  0  0  0
    1.2106    0.1006    0.7721 C   0  0  0  0  0  0  0  0  0  0  0  0
    1.1531   -1.3080    0.2956 C   0  0  0  0  0  0  0  0  0  0  0  0
    0.4699   -2.5450    1.0602 S   0  0  0  0  0  1  0  0  0  0  0  0
    2.2546    0.4205    0.8456 H   0  0  0  0  0  0  0  0  0  0  0  0
    0.7215    0.2204    1.7365 H   0  0  0  0  0  0  0  0  0  0  0  0
    1.6313   -1.4809   -0.6705 H   0  0  0  0  0  0  0  0  0  0  0  0
  1  2  3  0
  1  5  1  0
  2  3  1  0
  3  4  1  0
  3  6  1  0
  3  7  1  0
  4  8  1  0
  4  9  1  0
  4 10  1  0
 11 12  2  3
 11 14  1  0
 11 15  1  0
 12 13  1  0
 12 16  1  0
M  RAD  1  13   2
M  END
>  <reaction>  (8) 
rxn_1282

>  <mol_properties>  (8) 
{"1": {"label": "*4", "atom_type": "Ct"}, "2": {"label": "*3", "atom_type": "Cs"}, "5": {"label": "*2", "atom_type": "H0"}, "10": {"label": "*1", "atom_type": "Cs"}, "11": {"label": "*0", "atom_type": "CS"}}

>  <type>  (8) 
unop_4

>  <geom_source>  (8) 
Heuristics

$$$$

     RDKit          3D

 16 14  0  0  0  0  0  0  0  0999 V2000
   -1.4378    0.3126   -3.5790 C   0  0  0  0  0  0  0  0  0  0  0  0
   -1.4378    0.3126   -2.3813 C   0  0  0  0  0  0  0  0  0  0  0  0
   -1.4378    0.3408   -0.9221 C   0  0  0  0  0  0  0  0  0  0  0  0
   -1.4378    1.7622   -0.3565 C   0  0  0  0  0  0  0  0  0  0  0  0
   -1.4378    0.3126   -4.6423 H   0  0  0  0  0  0  0  0  0  0  0  0
   -0.3872   -0.3133   -0.4880 H   0  0  0  0  0  0  0  0  0  0  0  0
   -2.3133   -0.2042   -0.5604 H   0  0  0  0  0  0  0  0  0  0  0  0
   -2.3200    2.3101   -0.6880 H   0  0  0  0  0  0  0  0  0  0  0  0
   -1.4378    1.7349    0.7338 H   0  0  0  0  0  0  0  0  0  0  0  0
   -0.5556    2.3101   -0.6880 H   0  0  0  0  0  0  0  0  0  0  0  0
    0.6648   -0.9683   -0.0534 C   0  0  0  0  0  0  0  0  0  0  0  0
    0.6833   -0.9512    1.4345 C   0  0  0  0  0  0  0  0  0  0  0  0
    1.8585   -0.3742    2.3659 S   0  0  0  0  0  1  0  0  0  0  0  0
    0.5548   -1.9981   -0.4070 H   0  0  0  0  0  0  0  0  0  0  0  0
    1.5683   -0.5309   -0.4730 H   0  0  0  0  0  0  0  0  0  0  0  0
   -0.2035   -1.3801    1.9050 H   0  0  0  0  0  0  0  0  0  0  0  0
  1  2  3  0
  1  5  1  0
  2  3  1  0
  3  4  1  0
  3  6  1  0
  3  7  1  0
  4  8  1  0
  4  9  1  0
  4 10  1  0
 11 12  2  3
 11 14  1  0
 11 15  1  0
 12 13  1  0
 12 16  1  0
M  RAD  1  13   2
M  END
>  <reaction>  (9) 
rxn_1282

>  <mol_properties>  (9) 
{"1": {"label": "*4", "atom_type": "Ct"}, "2": {"label": "*3", "atom_type": "Cs"}, "5": {"label": "*2", "atom_type": "H0"}, "10": {"label": "*1", "atom_type": "Cs"}, "11": {"label": "*0", "atom_type": "CS"}}

>  <type>  (9) 
unop_5

>  <geom_source>  (9) 
Heuristics

$$$$

     RDKit          3D

 16 14  0  0  0  0  0  0  0  0999 V2000
   -0.7656    1.2262   -3.1625 C   0  0  0  0  0  0  0  0  0  0  0  0
   -0.7656    1.2262   -1.9648 C   0  0  0  0  0  0  0  0  0  0  0  0
   -0.7656    1.2544   -0.5056 C   0  0  0  0  0  0  0  0  0  0  0  0
   -0.7656    2.6758    0.0600 C   0  0  0  0  0  0  0  0  0  0  0  0
   -0.7656    1.2262   -4.2258 H   0  0  0  0  0  0  0  0  0  0  0  0
    0.2850    0.6003   -0.0715 H   0  0  0  0  0  0  0  0  0  0  0  0
   -1.6412    0.7094   -0.1439 H   0  0  0  0  0  0  0  0  0  0  0  0
   -1.6479    3.2237   -0.2715 H   0  0  0  0  0  0  0  0  0  0  0  0
   -0.7656    2.6485    1.1503 H   0  0  0  0  0  0  0  0  0  0  0  0
    0.1166    3.2237   -0.2715 H   0  0  0  0  0  0  0  0  0  0  0  0
    1.3370   -0.0547    0.3631 C   0  0  0  0  0  0  0  0  0  0  0  0
    0.9887   -1.4892    0.5511 C   0  0  0  0  0  0  0  0  0  0  0  0
    0.2670   -2.1340    1.8336 S   0  0  0  0  0  1  0  0  0  0  0  0
    2.4143    0.0425    0.1974 H   0  0  0  0  0  0  0  0  0  0  0  0
    1.0418    0.5476    1.2197 H   0  0  0  0  0  0  0  0  0  0  0  0
    1.2650   -2.1371   -0.2830 H   0  0  0  0  0  0  0  0  0  0  0  0
  1  2  3  0
  1  5  1  0
  2  3  1  0
  3  4  1  0
  3  6  1  0
  3  7  1  0
  4  8  1  0
  4  9  1  0
  4 10  1  0
 11 12  2  3
 11 14  1  0
 11 15  1  0
 12 13  1  0
 12 16  1  0
M  RAD  1  13   2
M  END
>  <reaction>  (10) 
rxn_1282

>  <mol_properties>  (10) 
{"1": {"label": "*4", "atom_type": "Ct"}, "2": {"label": "*3", "atom_type": "Cs"}, "5": {"label": "*2", "atom_type": "H0"}, "10": {"label": "*1", "atom_type": "Cs"}, "11": {"label": "*0", "atom_type": "CS"}}

>  <type>  (10) 
unop_6

>  <geom_source>  (10) 
Heuristics

$$$$

     RDKit          3D

 16 14  0  0  0  0  0  0  0  0999 V2000
   -0.8214    0.9123   -3.4997 C   0  0  0  0  0  0  0  0  0  0  0  0
   -0.8214    0.9123   -2.3020 C   0  0  0  0  0  0  0  0  0  0  0  0
   -0.8214    0.9405   -0.8429 C   0  0  0  0  0  0  0  0  0  0  0  0
   -0.8214    2.3619   -0.2773 C   0  0  0  0  0  0  0  0  0  0  0  0
   -0.8214    0.9123   -4.5630 H   0  0  0  0  0  0  0  0  0  0  0  0
    0.2292    0.2864   -0.4088 H   0  0  0  0  0  0  0  0  0  0  0  0
   -1.6969    0.3955   -0.4812 H   0  0  0  0  0  0  0  0  0  0  0  0
   -1.7036    2.9098   -0.6087 H   0  0  0  0  0  0  0  0  0  0  0  0
   -0.8214    2.3346    0.8130 H   0  0  0  0  0  0  0  0  0  0  0  0
    0.0609    2.9098   -0.6087 H   0  0  0  0  0  0  0  0  0  0  0  0
    1.2812   -0.3686    0.0258 C   0  0  0  0  0  0  0  0  0  0  0  0
    0.8427   -1.5113    0.8722 C   0  0  0  0  0  0  0  0  0  0  0  0
    0.4478   -1.4476    2.4283 S   0  0  0  0  0  1  0  0  0  0  0  0
    2.2709   -0.5794   -0.3910 H   0  0  0  0  0  0  0  0  0  0  0  0
    1.3110    0.5620    0.5886 H   0  0  0  0  0  0  0  0  0  0  0  0
    0.7963   -2.4703    0.3525 H   0  0  0  0  0  0  0  0  0  0  0  0
  1  2  3  0
  1  5  1  0
  2  3  1  0
  3  4  1  0
  3  6  1  0
  3  7  1  0
  4  8  1  0
  4  9  1  0
  4 10  1  0
 11 12  2  3
 11 14  1  0
 11 15  1  0
 12 13  1  0
 12 16  1  0
M  RAD  1  13   2
M  END
>  <reaction>  (11) 
rxn_1282

>  <mol_properties>  (11) 
{"1": {"label": "*4", "atom_type": "Ct"}, "2": {"label": "*3", "atom_type": "Cs"}, "5": {"label": "*2", "atom_type": "H0"}, "10": {"label": "*1", "atom_type": "Cs"}, "11": {"label": "*0", "atom_type": "CS"}}

>  <type>  (11) 
unop_7

>  <geom_source>  (11) 
Heuristics

$$$$

     RDKit          3D

 16 14  0  0  0  0  0  0  0  0999 V2000
   -1.9892    0.2128   -2.8119 C   0  0  0  0  0  0  0  0  0  0  0  0
   -1.9892    0.2128   -1.6142 C   0  0  0  0  0  0  0  0  0  0  0  0
   -1.9892    0.2411   -0.1550 C   0  0  0  0  0  0  0  0  0  0  0  0
   -1.9892    1.6624    0.4106 C   0  0  0  0  0  0  0  0  0  0  0  0
   -1.9892    0.2128   -3.8752 H   0  0  0  0  0  0  0  0  0  0  0  0
   -0.9386   -0.4130    0.2790 H   0  0  0  0  0  0  0  0  0  0  0  0
   -2.8647   -0.3040    0.2067 H   0  0  0  0  0  0  0  0  0  0  0  0
   -2.8714    2.2103    0.0791 H   0  0  0  0  0  0  0  0  0  0  0  0
   -1.9892    1.6352    1.5008 H   0  0  0  0  0  0  0  0  0  0  0  0
   -1.1070    2.2103    0.0791 H   0  0  0  0  0  0  0  0  0  0  0  0
    0.1134   -1.0680    0.7136 C   0  0  0  0  0  0  0  0  0  0  0  0
    1.2607   -0.1310    0.8558 C   0  0  0  0  0  0  0  0  0  0  0  0
    2.8145   -0.5324    0.9321 S   0  0  0  0  0  1  0  0  0  0  0  0
   -0.5722   -0.9390    1.5568 H   0  0  0  0  0  0  0  0  0  0  0  0
    0.4425   -2.1038    0.6637 H   0  0  0  0  0  0  0  0  0  0  0  0
    0.9824    0.9232    0.9104 H   0  0  0  0  0  0  0  0  0  0  0  0
  1  2  3  0
  1  5  1  0
  2  3  1  0
  3  4  1  0
  3  6  1  0
  3  7  1  0
  4  8  1  0
  4  9  1  0
  4 10  1  0
 11 12  2  3
 11 14  1  0
 11 15  1  0
 12 13  1  0
 12 16  1  0
M  RAD  1  13   2
M  END
>  <reaction>  (12) 
rxn_1282

>  <mol_properties>  (12) 
{"1": {"label": "*4", "atom_type": "Ct"}, "2": {"label": "*3", "atom_type": "Cs"}, "5": {"label": "*2", "atom_type": "H0"}, "10": {"label": "*1", "atom_type": "Cs"}, "11": {"label": "*0", "atom_type": "CS"}}

>  <type>  (12) 
unop_8

>  <geom_source>  (12) 
Heuristics

$$$$

     RDKit          3D

 16 14  0  0  0  0  0  0  0  0999 V2000
   -1.1666    1.3401   -2.3909 C   0  0  0  0  0  0  0  0  0  0  0  0
   -1.1666    1.3401   -1.1932 C   0  0  0  0  0  0  0  0  0  0  0  0
   -1.1666    1.3683    0.2659 C   0  0  0  0  0  0  0  0  0  0  0  0
   -1.1666    2.7897    0.8315 C   0  0  0  0  0  0  0  0  0  0  0  0
   -1.1666    1.3401   -3.4542 H   0  0  0  0  0  0  0  0  0  0  0  0
   -0.1160    0.7142    0.7000 H   0  0  0  0  0  0  0  0  0  0  0  0
   -2.0421    0.8232    0.6276 H   0  0  0  0  0  0  0  0  0  0  0  0
   -2.0488    3.3375    0.5001 H   0  0  0  0  0  0  0  0  0  0  0  0
   -1.1666    2.7624    1.9218 H   0  0  0  0  0  0  0  0  0  0  0  0
   -0.2844    3.3375    0.5001 H   0  0  0  0  0  0  0  0  0  0  0  0
    0.9360    0.0592    1.1346 C   0  0  0  0  0  0  0  0  0  0  0  0
    1.2916   -1.0127    0.1655 C   0  0  0  0  0  0  0  0  0  0  0  0
    1.0021   -2.5840    0.3347 S   0  0  0  0  0  1  0  0  0  0  0  0
    1.8409    0.5950    1.4372 H   0  0  0  0  0  0  0  0  0  0  0  0
    0.4358   -0.3416    2.0137 H   0  0  0  0  0  0  0  0  0  0  0  0
    1.7968   -0.6610   -0.7360 H   0  0  0  0  0  0  0  0  0  0  0  0
  1  2  3  0
  1  5  1  0
  2  3  1  0
  3  4  1  0
  3  6  1  0
  3  7  1  0
  4  8  1  0
  4  9  1  0
  4 10  1  0
 11 12  2  3
 11 14  1  0
 11 15  1  0
 12 13  1  0
 12 16  1  0
M  RAD  1  13   2
M  END
>  <reaction>  (13) 
rxn_1282

>  <mol_properties>  (13) 
{"1": {"label": "*4", "atom_type": "Ct"}, "2": {"label": "*3", "atom_type": "Cs"}, "5": {"label": "*2", "atom_type": "H0"}, "10": {"label": "*1", "atom_type": "Cs"}, "11": {"label": "*0", "atom_type": "CS"}}

>  <type>  (13) 
unop_9

>  <geom_source>  (13) 
Heuristics

$$$$

     RDKit          3D

 16 14  0  0  0  0  0  0  0  0999 V2000
   -1.9893    0.4151   -2.4585 C   0  0  0  0  0  0  0  0  0  0  0  0
   -1.9893    0.4151   -1.2608 C   0  0  0  0  0  0  0  0  0  0  0  0
   -1.9893    0.4434    0.1984 C   0  0  0  0  0  0  0  0  0  0  0  0
   -1.9893    1.8647    0.7640 C   0  0  0  0  0  0  0  0  0  0  0  0
   -1.9893    0.4151   -3.5218 H   0  0  0  0  0  0  0  0  0  0  0  0
   -0.9387   -0.2108    0.6324 H   0  0  0  0  0  0  0  0  0  0  0  0
   -2.8649   -0.1017    0.5601 H   0  0  0  0  0  0  0  0  0  0  0  0
   -2.8715    2.4126    0.4325 H   0  0  0  0  0  0  0  0  0  0  0  0
   -1.9893    1.8374    1.8542 H   0  0  0  0  0  0  0  0  0  0  0  0
   -1.1071    2.4126    0.4325 H   0  0  0  0  0  0  0  0  0  0  0  0
    0.1133   -0.8657    1.0670 C   0  0  0  0  0  0  0  0  0  0  0  0
    1.3509   -0.2205    0.5508 C   0  0  0  0  0  0  0  0  0  0  0  0
    2.7667   -0.9382    0.3024 S   0  0  0  0  0  1  0  0  0  0  0  0
   -0.2123   -0.3571    1.9797 H   0  0  0  0  0  0  0  0  0  0  0  0
    0.2649   -1.9236    1.2710 H   0  0  0  0  0  0  0  0  0  0  0  0
    1.2504    0.8440    0.3303 H   0  0  0  0  0  0  0  0  0  0  0  0
  1  2  3  0
  1  5  1  0
  2  3  1  0
  3  4  1  0
  3  6  1  0
  3  7  1  0
  4  8  1  0
  4  9  1  0
  4 10  1  0
 11 12  2  3
 11 14  1  0
 11 15  1  0
 12 13  1  0
 12 16  1  0
M  RAD  1  13   2
M  END
>  <reaction>  (14) 
rxn_1282

>  <mol_properties>  (14) 
{"1": {"label": "*4", "atom_type": "Ct"}, "2": {"label": "*3", "atom_type": "Cs"}, "5": {"label": "*2", "atom_type": "H0"}, "10": {"label": "*1", "atom_type": "Cs"}, "11": {"label": "*0", "atom_type": "CS"}}

>  <type>  (14) 
unop_10

>  <geom_source>  (14) 
Heuristics

$$$$

     RDKit          3D

 16 14  0  0  0  0  0  0  0  0999 V2000
   -1.0710    0.5412   -3.6550 C   0  0  0  0  0  0  0  0  0  0  0  0
   -1.0710    0.5412   -2.4572 C   0  0  0  0  0  0  0  0  0  0  0  0
   -1.0710    0.5694   -0.9981 C   0  0  0  0  0  0  0  0  0  0  0  0
   -1.0709    1.9908   -0.4325 C   0  0  0  0  0  0  0  0  0  0  0  0
   -1.0710    0.5412   -4.7183 H   0  0  0  0  0  0  0  0  0  0  0  0
   -0.0204   -0.0847   -0.5640 H   0  0  0  0  0  0  0  0  0  0  0  0
   -1.9465    0.0244   -0.6364 H   0  0  0  0  0  0  0  0  0  0  0  0
   -1.9532    2.5387   -0.7640 H   0  0  0  0  0  0  0  0  0  0  0  0
   -1.0709    1.9635    0.6578 H   0  0  0  0  0  0  0  0  0  0  0  0
   -0.1887    2.5387   -0.7640 H   0  0  0  0  0  0  0  0  0  0  0  0
    1.0316   -0.7397   -0.1294 C   0  0  0  0  0  0  0  0  0  0  0  0
    0.7273   -1.3511    1.1928 C   0  0  0  0  0  0  0  0  0  0  0  0
    1.0363   -0.7091    2.6328 S   0  0  0  0  0  1  0  0  0  0  0  0
    1.6818   -1.4084   -0.7018 H   0  0  0  0  0  0  0  0  0  0  0  0
    1.5076    0.2330   -0.0240 H   0  0  0  0  0  0  0  0  0  0  0  0
    0.2479   -2.3305    1.1411 H   0  0  0  0  0  0  0  0  0  0  0  0
  1  2  3  0
  1  5  1  0
  2  3  1  0
  3  4  1  0
  3  6  1  0
  3  7  1  0
  4  8  1  0
  4  9  1  0
  4 10  1  0
 11 12  2  3
 11 14  1  0
 11 15  1  0
 12 13  1  0
 12 16  1  0
M  RAD  1  13   2
M  END
>  <reaction>  (15) 
rxn_1282

>  <mol_properties>  (15) 
{"1": {"label": "*4", "atom_type": "Ct"}, "2": {"label": "*3", "atom_type": "Cs"}, "5": {"label": "*2", "atom_type": "H0"}, "10": {"label": "*1", "atom_type": "Cs"}, "11": {"label": "*0", "atom_type": "CS"}}

>  <type>  (15) 
unop_11

>  <geom_source>  (15) 
Heuristics

$$$$

     RDKit          3D

 16 14  0  0  0  0  0  0  0  0999 V2000
   -1.5186    1.1067   -2.1868 C   0  0  0  0  0  0  0  0  0  0  0  0
   -1.5186    1.1067   -0.9891 C   0  0  0  0  0  0  0  0  0  0  0  0
   -1.5186    1.1349    0.4700 C   0  0  0  0  0  0  0  0  0  0  0  0
   -1.5186    2.5563    1.0356 C   0  0  0  0  0  0  0  0  0  0  0  0
   -1.5186    1.1067   -3.2501 H   0  0  0  0  0  0  0  0  0  0  0  0
   -0.4680    0.4808    0.9041 H   0  0  0  0  0  0  0  0  0  0  0  0
   -2.3941    0.5898    0.8317 H   0  0  0  0  0  0  0  0  0  0  0  0
   -2.4008    3.1041    0.7042 H   0  0  0  0  0  0  0  0  0  0  0  0
   -1.5186    2.5290    2.1259 H   0  0  0  0  0  0  0  0  0  0  0  0
   -0.6363    3.1041    0.7042 H   0  0  0  0  0  0  0  0  0  0  0  0
    0.5840   -0.1742    1.3387 C   0  0  0  0  0  0  0  0  0  0  0  0
    1.3646   -0.6888    0.1809 C   0  0  0  0  0  0  0  0  0  0  0  0
    1.7305   -2.2253   -0.1137 S   0  0  0  0  0  1  0  0  0  0  0  0
    1.1882    0.5479    1.8965 H   0  0  0  0  0  0  0  0  0  0  0  0
    0.2681   -0.9774    2.0011 H   0  0  0  0  0  0  0  0  0  0  0  0
    1.7055    0.0800   -0.5151 H   0  0  0  0  0  0  0  0  0  0  0  0
  1  2  3  0
  1  5  1  0
  2  3  1  0
  3  4  1  0
  3  6  1  0
  3  7  1  0
  4  8  1  0
  4  9  1  0
  4 10  1  0
 11 12  2  3
 11 14  1  0
 11 15  1  0
 12 13  1  0
 12 16  1  0
M  RAD  1  13   2
M  END
>  <reaction>  (16) 
rxn_1282

>  <mol_properties>  (16) 
{"1": {"label": "*4", "atom_type": "Ct"}, "2": {"label": "*3", "atom_type": "Cs"}, "5": {"label": "*2", "atom_type": "H0"}, "10": {"label": "*1", "atom_type": "Cs"}, "11": {"label": "*0", "atom_type": "CS"}}

>  <type>  (16) 
unop_12

>  <geom_source>  (16) 
Heuristics

$$$$

     RDKit          3D

 16 14  0  0  0  0  0  0  0  0999 V2000
    3.9145    0.0677    0.1310 S   0  0  0  0  0  0  0  0  0  0  0  0
   -2.1033   -1.0026    0.0658 C   0  0  0  0  0  0  0  0  0  0  0  0
    1.4569   -0.1761   -0.4996 C   0  0  0  0  0  0  0  0  0  0  0  0
   -0.9142   -0.2062    0.5832 C   0  0  0  0  0  3  0  0  0  0  0  0
    2.5731   -0.2985    0.4892 C   0  0  0  0  0  0  0  0  0  0  0  0
   -0.8648    1.1199   -0.0421 C   0  0  0  0  0  0  0  0  0  0  0  0
   -0.8233    2.2098   -0.5556 C   0  0  0  0  0  0  0  0  0  0  0  0
    1.6555   -0.8161   -1.3859 H   0  0  0  0  0  0  0  0  0  0  0  0
    1.3426    0.8808   -0.8227 H   0  0  0  0  0  0  0  0  0  0  0  0
    0.3551   -0.5614    0.0491 H   0  0  0  0  0  0  0  0  0  0  0  0
   -2.1105   -2.0033    0.5458 H   0  0  0  0  0  0  0  0  0  0  0  0
   -2.0243   -1.1381   -1.0340 H   0  0  0  0  0  0  0  0  0  0  0  0
   -3.0546   -0.4818    0.3081 H   0  0  0  0  0  0  0  0  0  0  0  0
   -0.9841   -0.0926    1.6856 H   0  0  0  0  0  0  0  0  0  0  0  0
    2.3684   -0.6679    1.4885 H   0  0  0  0  0  0  0  0  0  0  0  0
   -0.7870    3.1666   -1.0064 H   0  0  0  0  0  0  0  0  0  0  0  0
  1  5  2  0
  2  4  1  0
  2 11  1  0
  2 12  1  0
  2 13  1  0
  3  5  1  0
  3  8  1  0
  3  9  1  0
  3 10  1  0
  4  6  1  0
  4 14  1  0
  5 15  1  0
  6  7  3  0
  7 16  1  0
M  RAD  1   4   2
M  END
>  <reaction>  (17) 
rxn_1282

>  <mol_properties>  (17) 
{"1": {"label": "*4", "atom_type": "Ct"}, "2": {"label": "*3", "atom_type": "Cs"}, "5": {"label": "*2", "atom_type": "H0"}, "10": {"label": "*1", "atom_type": "Cs"}, "11": {"label": "*0", "atom_type": "CS"}}

>  <type>  (17) 
unop_13

>  <geom_source>  (17) 
AutoTST

$$$$
