
     RDKit          3D

  8  7  0  0  0  0  0  0  0  0999 V2000
    0.7610    0.0250    0.0051 C   0  0  0  0  0  0  0  0  0  0  0  0
   -0.7610   -0.0250   -0.0051 C   0  0  0  0  0  0  0  0  0  0  0  0
    1.1904   -0.9237   -0.3217 H   0  0  0  0  0  0  0  0  0  0  0  0
    1.1359    0.8041   -0.6609 H   0  0  0  0  0  0  0  0  0  0  0  0
    1.1435    0.2336    1.0058 H   0  0  0  0  0  0  0  0  0  0  0  0
   -1.1435   -0.2336   -1.0058 H   0  0  0  0  0  0  0  0  0  0  0  0
   -1.1904    0.9237    0.3216 H   0  0  0  0  0  0  0  0  0  0  0  0
   -1.1359   -0.8041    0.6609 H   0  0  0  0  0  0  0  0  0  0  0  0
  1  2  1  0
  1  3  1  0
  1  4  1  0
  1  5  1  0
  2  6  1  0
  2  7  1  0
  2  8  1  0
M  END
>  <reaction>  (1) 
rxn_887

>  <mol_properties>  (1) 
{"1": {"label": "donator", "atom_type": "Cs"}, "5": {"label": "d_hydrogen", "atom_type": "H0"}}

>  <type>  (1) 
r1h

$$$$

     RDKit          3D

  5  4  0  0  0  0  0  0  0  0999 V2000
   -0.5642    0.0794    0.0348 C   0  0  0  0  0  3  0  0  0  0  0  0
    1.0624    0.5420    0.2853 S   0  0  0  0  0  0  0  0  0  0  0  0
   -1.3257    0.7631    0.3741 H   0  0  0  0  0  0  0  0  0  0  0  0
   -0.8236   -0.8519   -0.4401 H   0  0  0  0  0  0  0  0  0  0  0  0
    1.6511   -0.5325   -0.2540 H   0  0  0  0  0  0  0  0  0  0  0  0
  1  2  1  0
  1  3  1  0
  1  4  1  0
  2  5  1  0
M  RAD  1   1   2
M  END
>  <reaction>  (2) 
rxn_887

>  <mol_properties>  (2) 
{"0": {"label": "acceptor", "atom_type": "Cs"}}

>  <type>  (2) 
r2

$$$$

     RDKit          3D

  6  5  0  0  0  0  0  0  0  0999 V2000
   -0.5072   -0.0291   -0.0097 C   0  0  0  0  0  0  0  0  0  0  0  0
    1.1321   -0.1527   -0.7687 S   0  0  0  0  0  0  0  0  0  0  0  0
   -0.6174   -0.7330    0.8127 H   0  0  0  0  0  0  0  0  0  0  0  0
   -0.5863    0.9827    0.3845 H   0  0  0  0  0  0  0  0  0  0  0  0
   -1.2962   -0.1800   -0.7434 H   0  0  0  0  0  0  0  0  0  0  0  0
    1.0312   -1.4237   -1.1764 H   0  0  0  0  0  0  0  0  0  0  0  0
  1  2  1  0
  1  3  1  0
  1  4  1  0
  1  5  1  0
  2  6  1  0
M  END
>  <reaction>  (3) 
rxn_887

>  <mol_properties>  (3) 
{"0": {"label": "acceptor", "atom_type": "Cs"}, "5": {"label": "a_hydrogen", "atom_type": "H0"}}

>  <type>  (3) 
r2h

$$$$

     RDKit          3D

 13 11  0  0  0  0  0  0  0  0999 V2000
    0.1158    0.4169    1.2114 C   0  0  0  0  0  0  0  0  0  0  0  0
   -0.4627    1.5697   -0.0086 S   0  0  0  0  0  0  0  0  0  0  0  0
   -0.5153    0.4854    2.0944 H   0  0  0  0  0  0  0  0  0  0  0  0
    1.1693    0.5222    1.4595 H   0  0  0  0  0  0  0  0  0  0  0  0
    0.5034    1.3616   -0.9124 H   0  0  0  0  0  0  0  0  0  0  0  0
    0.1976   -1.9779   -1.1793 C   0  0  0  0  0  0  0  0  0  0  0  0
   -0.1878   -2.0843    0.2700 C   0  0  0  0  0  3  0  0  0  0  0  0
   -0.4304   -1.2515   -1.6991 H   0  0  0  0  0  0  0  0  0  0  0  0
    1.2386   -1.6666   -1.2919 H   0  0  0  0  0  0  0  0  0  0  0  0
    0.0879   -2.9361   -1.6977 H   0  0  0  0  0  0  0  0  0  0  0  0
   -0.0379   -0.8272    0.7865 H   0  0  0  0  0  0  0  0  0  0  0  0
    0.4680   -2.6989    0.8840 H   0  0  0  0  0  0  0  0  0  0  0  0
   -1.2387   -2.2988    0.4543 H   0  0  0  0  0  0  0  0  0  0  0  0
  1  2  1  0
  1  3  1  0
  1  4  1  0
  1 11  1  0
  2  5  1  0
  6  7  1  0
  6  8  1  0
  6  9  1  0
  6 10  1  0
  7 12  1  0
  7 13  1  0
M  RAD  1   7   2
M  END
>  <reaction>  (4) 
rxn_887

>  <mol_properties>  (4) 
{"0": {"label": "*1", "atom_type": "Cs"}, "1": {"label": "*0", "atom_type": "S2s"}, "5": {"label": "*4", "atom_type": "Cs"}, "6": {"label": "*3", "atom_type": "Cs"}, "10": {"label": "*2", "atom_type": "H0"}}

>  <type>  (4) 
ts

$$$$

     RDKit          3D

 13 11  0  0  0  0  0  0  0  0999 V2000
    0.6189    0.8018    0.2348 C   0  0  0  0  0  0  0  0  0  0  0  0
   -0.8414    1.1110    1.2597 S   0  0  0  0  0  0  0  0  0  0  0  0
    1.3101    0.2298    0.8515 H   0  0  0  0  0  0  0  0  0  0  0  0
    1.1015    1.7318   -0.0586 H   0  0  0  0  0  0  0  0  0  0  0  0
   -1.5405    1.8001    0.3497 H   0  0  0  0  0  0  0  0  0  0  0  0
    0.6189   -1.6354   -2.2366 C   0  0  0  0  0  0  0  0  0  0  0  0
    0.6189   -1.6354   -0.7138 C   0  0  0  0  0  3  0  0  0  0  0  0
   -0.2620   -1.1268   -2.6324 H   0  0  0  0  0  0  0  0  0  0  0  0
    1.4997   -1.1268   -2.6324 H   0  0  0  0  0  0  0  0  0  0  0  0
    0.6189   -2.6525   -2.6324 H   0  0  0  0  0  0  0  0  0  0  0  0
    0.6189   -0.4149   -0.2388 H   0  0  0  0  0  0  0  0  0  0  0  0
    1.4997   -2.1439   -0.3179 H   0  0  0  0  0  0  0  0  0  0  0  0
   -0.2620   -2.1439   -0.3179 H   0  0  0  0  0  0  0  0  0  0  0  0
  1  2  1  0
  1  3  1  0
  1  4  1  0
  1 11  1  0
  2  5  1  0
  6  7  1  0
  6  8  1  0
  6  9  1  0
  6 10  1  0
  7 12  1  0
  7 13  1  0
M  RAD  1   7   2
M  END
>  <reaction>  (5) 
rxn_887

>  <mol_properties>  (5) 
{"0": {"label": "*1", "atom_type": "Cs"}, "1": {"label": "*0", "atom_type": "S2s"}, "5": {"label": "*4", "atom_type": "Cs"}, "6": {"label": "*3", "atom_type": "Cs"}, "10": {"label": "*2", "atom_type": "H0"}}

>  <type>  (5) 
unop_1

>  <geom_source>  (5) 
Heuristics

$$$$

     RDKit          3D

 13 11  0  0  0  0  0  0  0  0999 V2000
    0.3456    0.4529    1.1410 C   0  0  0  0  0  0  0  0  0  0  0  0
   -0.4975    1.5974    0.0195 S   0  0  0  0  0  0  0  0  0  0  0  0
   -0.3692    0.2116    1.9260 H   0  0  0  0  0  0  0  0  0  0  0  0
    1.2195    0.9148    1.5955 H   0  0  0  0  0  0  0  0  0  0  0  0
    0.5147    1.7635   -0.8406 H   0  0  0  0  0  0  0  0  0  0  0  0
    0.3456   -1.9844   -1.3304 C   0  0  0  0  0  0  0  0  0  0  0  0
    0.3456   -1.9844    0.1924 C   0  0  0  0  0  3  0  0  0  0  0  0
   -0.5353   -1.4758   -1.7262 H   0  0  0  0  0  0  0  0  0  0  0  0
    1.2264   -1.4758   -1.7262 H   0  0  0  0  0  0  0  0  0  0  0  0
    0.3456   -3.0015   -1.7262 H   0  0  0  0  0  0  0  0  0  0  0  0
    0.3456   -0.7638    0.6674 H   0  0  0  0  0  0  0  0  0  0  0  0
    1.2264   -2.4929    0.5883 H   0  0  0  0  0  0  0  0  0  0  0  0
   -0.5353   -2.4929    0.5883 H   0  0  0  0  0  0  0  0  0  0  0  0
  1  2  1  0
  1  3  1  0
  1  4  1  0
  1 11  1  0
  2  5  1  0
  6  7  1  0
  6  8  1  0
  6  9  1  0
  6 10  1  0
  7 12  1  0
  7 13  1  0
M  RAD  1   7   2
M  END
>  <reaction>  (6) 
rxn_887

>  <mol_properties>  (6) 
{"0": {"label": "*1", "atom_type": "Cs"}, "1": {"label": "*0", "atom_type": "S2s"}, "5": {"label": "*4", "atom_type": "Cs"}, "6": {"label": "*3", "atom_type": "Cs"}, "10": {"label": "*2", "atom_type": "H0"}}

>  <type>  (6) 
unop_2

>  <geom_source>  (6) 
Heuristics

$$$$

     RDKit          3D

 13 11  0  0  0  0  0  0  0  0999 V2000
    0.3640    0.8983   -0.0089 C   0  0  0  0  0  0  0  0  0  0  0  0
   -0.4791    0.9836    1.5912 S   0  0  0  0  0  0  0  0  0  0  0  0
    1.4085    0.6797    0.2069 H   0  0  0  0  0  0  0  0  0  0  0  0
    0.3087    1.8478   -0.5372 H   0  0  0  0  0  0  0  0  0  0  0  0
   -1.7032    1.2511    1.1203 H   0  0  0  0  0  0  0  0  0  0  0  0
    0.3640   -1.5389   -2.4802 C   0  0  0  0  0  0  0  0  0  0  0  0
    0.3640   -1.5389   -0.9574 C   0  0  0  0  0  3  0  0  0  0  0  0
   -0.5169   -1.0304   -2.8761 H   0  0  0  0  0  0  0  0  0  0  0  0
    1.2448   -1.0304   -2.8761 H   0  0  0  0  0  0  0  0  0  0  0  0
    0.3640   -2.5560   -2.8761 H   0  0  0  0  0  0  0  0  0  0  0  0
    0.3640   -0.3184   -0.4824 H   0  0  0  0  0  0  0  0  0  0  0  0
    1.2448   -2.0475   -0.5616 H   0  0  0  0  0  0  0  0  0  0  0  0
   -0.5169   -2.0475   -0.5616 H   0  0  0  0  0  0  0  0  0  0  0  0
  1  2  1  0
  1  3  1  0
  1  4  1  0
  1 11  1  0
  2  5  1  0
  6  7  1  0
  6  8  1  0
  6  9  1  0
  6 10  1  0
  7 12  1  0
  7 13  1  0
M  RAD  1   7   2
M  END
>  <reaction>  (7) 
rxn_887

>  <mol_properties>  (7) 
{"0": {"label": "*1", "atom_type": "Cs"}, "1": {"label": "*0", "atom_type": "S2s"}, "5": {"label": "*4", "atom_type": "Cs"}, "6": {"label": "*3", "atom_type": "Cs"}, "10": {"label": "*2", "atom_type": "H0"}}

>  <type>  (7) 
unop_3

>  <geom_source>  (7) 
Heuristics

$$$$

     RDKit          3D

 13 11  0  0  0  0  0  0  0  0999 V2000
   -0.6279    0.5643    0.8868 C   0  0  0  0  0  0  0  0  0  0  0  0
    0.8324    1.4850    0.3405 S   0  0  0  0  0  0  0  0  0  0  0  0
   -1.4214    1.2984    1.0168 H   0  0  0  0  0  0  0  0  0  0  0  0
   -0.4512    0.0698    1.8397 H   0  0  0  0  0  0  0  0  0  0  0  0
    1.6616    0.4388    0.2424 H   0  0  0  0  0  0  0  0  0  0  0  0
   -0.6279   -1.8729   -1.5845 C   0  0  0  0  0  0  0  0  0  0  0  0
   -0.6279   -1.8729   -0.0617 C   0  0  0  0  0  3  0  0  0  0  0  0
   -1.5087   -1.3644   -1.9803 H   0  0  0  0  0  0  0  0  0  0  0  0
    0.2530   -1.3644   -1.9803 H   0  0  0  0  0  0  0  0  0  0  0  0
   -0.6279   -2.8900   -1.9803 H   0  0  0  0  0  0  0  0  0  0  0  0
   -0.6279   -0.6524    0.4133 H   0  0  0  0  0  0  0  0  0  0  0  0
    0.2530   -2.3815    0.3341 H   0  0  0  0  0  0  0  0  0  0  0  0
   -1.5087   -2.3815    0.3342 H   0  0  0  0  0  0  0  0  0  0  0  0
  1  2  1  0
  1  3  1  0
  1  4  1  0
  1 11  1  0
  2  5  1  0
  6  7  1  0
  6  8  1  0
  6  9  1  0
  6 10  1  0
  7 12  1  0
  7 13  1  0
M  RAD  1   7   2
M  END
>  <reaction>  (8) 
rxn_887

>  <mol_properties>  (8) 
{"0": {"label": "*1", "atom_type": "Cs"}, "1": {"label": "*0", "atom_type": "S2s"}, "5": {"label": "*4", "atom_type": "Cs"}, "6": {"label": "*3", "atom_type": "Cs"}, "10": {"label": "*2", "atom_type": "H0"}}

>  <type>  (8) 
unop_4

>  <geom_source>  (8) 
Heuristics

$$$$

     RDKit          3D

 13 11  0  0  0  0  0  0  0  0999 V2000
    0.0143    0.9409   -0.1022 C   0  0  0  0  0  0  0  0  0  0  0  0
    0.0143    0.9442    1.7084 S   0  0  0  0  0  0  0  0  0  0  0  0
    0.9350    1.4345   -0.4091 H   0  0  0  0  0  0  0  0  0  0  0  0
   -0.8301    1.5001   -0.4997 H   0  0  0  0  0  0  0  0  0  0  0  0
   -1.1560    0.3164    1.8760 H   0  0  0  0  0  0  0  0  0  0  0  0
    0.0143   -1.4964   -2.5735 C   0  0  0  0  0  0  0  0  0  0  0  0
    0.0143   -1.4964   -1.0508 C   0  0  0  0  0  3  0  0  0  0  0  0
   -0.8665   -0.9878   -2.9694 H   0  0  0  0  0  0  0  0  0  0  0  0
    0.8952   -0.9878   -2.9694 H   0  0  0  0  0  0  0  0  0  0  0  0
    0.0143   -2.5135   -2.9694 H   0  0  0  0  0  0  0  0  0  0  0  0
    0.0143   -0.2758   -0.5757 H   0  0  0  0  0  0  0  0  0  0  0  0
    0.8952   -2.0049   -0.6549 H   0  0  0  0  0  0  0  0  0  0  0  0
   -0.8665   -2.0049   -0.6549 H   0  0  0  0  0  0  0  0  0  0  0  0
  1  2  1  0
  1  3  1  0
  1  4  1  0
  1 11  1  0
  2  5  1  0
  6  7  1  0
  6  8  1  0
  6  9  1  0
  6 10  1  0
  7 12  1  0
  7 13  1  0
M  RAD  1   7   2
M  END
>  <reaction>  (9) 
rxn_887

>  <mol_properties>  (9) 
{"0": {"label": "*1", "atom_type": "Cs"}, "1": {"label": "*0", "atom_type": "S2s"}, "5": {"label": "*4", "atom_type": "Cs"}, "6": {"label": "*3", "atom_type": "Cs"}, "10": {"label": "*2", "atom_type": "H0"}}

>  <type>  (9) 
unop_5

>  <geom_source>  (9) 
Heuristics

$$$$

     RDKit          3D

 13 11  0  0  0  0  0  0  0  0999 V2000
   -0.7170    0.6965    0.5524 C   0  0  0  0  0  0  0  0  0  0  0  0
    0.9691    1.3114    0.7917 S   0  0  0  0  0  0  0  0  0  0  0  0
   -1.3541    1.5754    0.4682 H   0  0  0  0  0  0  0  0  0  0  0  0
   -1.0484    0.1062    1.4041 H   0  0  0  0  0  0  0  0  0  0  0  0
    1.5718    0.1186    0.8692 H   0  0  0  0  0  0  0  0  0  0  0  0
   -0.7170   -1.7408   -1.9190 C   0  0  0  0  0  0  0  0  0  0  0  0
   -0.7170   -1.7408   -0.3962 C   0  0  0  0  0  3  0  0  0  0  0  0
   -1.5978   -1.2322   -2.3148 H   0  0  0  0  0  0  0  0  0  0  0  0
    0.1638   -1.2322   -2.3148 H   0  0  0  0  0  0  0  0  0  0  0  0
   -0.7170   -2.7579   -2.3148 H   0  0  0  0  0  0  0  0  0  0  0  0
   -0.7170   -0.5202    0.0788 H   0  0  0  0  0  0  0  0  0  0  0  0
    0.1638   -2.2493   -0.0003 H   0  0  0  0  0  0  0  0  0  0  0  0
   -1.5978   -2.2493   -0.0003 H   0  0  0  0  0  0  0  0  0  0  0  0
  1  2  1  0
  1  3  1  0
  1  4  1  0
  1 11  1  0
  2  5  1  0
  6  7  1  0
  6  8  1  0
  6  9  1  0
  6 10  1  0
  7 12  1  0
  7 13  1  0
M  RAD  1   7   2
M  END
>  <reaction>  (10) 
rxn_887

>  <mol_properties>  (10) 
{"0": {"label": "*1", "atom_type": "Cs"}, "1": {"label": "*0", "atom_type": "S2s"}, "5": {"label": "*4", "atom_type": "Cs"}, "6": {"label": "*3", "atom_type": "Cs"}, "10": {"label": "*2", "atom_type": "H0"}}

>  <type>  (10) 
unop_6

>  <geom_source>  (10) 
Heuristics

$$$$

     RDKit          3D

 13 11  0  0  0  0  0  0  0  0999 V2000
   -0.6137    0.8259    0.2201 C   0  0  0  0  0  0  0  0  0  0  0  0
    0.8465    1.1350    1.2451 S   0  0  0  0  0  0  0  0  0  0  0  0
   -0.9724    1.8016   -0.1036 H   0  0  0  0  0  0  0  0  0  0  0  0
   -1.4012    0.3364    0.7893 H   0  0  0  0  0  0  0  0  0  0  0  0
    1.1230   -0.1432    1.5306 H   0  0  0  0  0  0  0  0  0  0  0  0
   -0.6137   -1.6113   -2.2512 C   0  0  0  0  0  0  0  0  0  0  0  0
   -0.6137   -1.6113   -0.7284 C   0  0  0  0  0  3  0  0  0  0  0  0
   -1.4946   -1.1028   -2.6470 H   0  0  0  0  0  0  0  0  0  0  0  0
    0.2671   -1.1028   -2.6470 H   0  0  0  0  0  0  0  0  0  0  0  0
   -0.6137   -2.6284   -2.6470 H   0  0  0  0  0  0  0  0  0  0  0  0
   -0.6137   -0.3908   -0.2534 H   0  0  0  0  0  0  0  0  0  0  0  0
    0.2671   -2.1199   -0.3326 H   0  0  0  0  0  0  0  0  0  0  0  0
   -1.4946   -2.1199   -0.3326 H   0  0  0  0  0  0  0  0  0  0  0  0
  1  2  1  0
  1  3  1  0
  1  4  1  0
  1 11  1  0
  2  5  1  0
  6  7  1  0
  6  8  1  0
  6  9  1  0
  6 10  1  0
  7 12  1  0
  7 13  1  0
M  RAD  1   7   2
M  END
>  <reaction>  (11) 
rxn_887

>  <mol_properties>  (11) 
{"0": {"label": "*1", "atom_type": "Cs"}, "1": {"label": "*0", "atom_type": "S2s"}, "5": {"label": "*4", "atom_type": "Cs"}, "6": {"label": "*3", "atom_type": "Cs"}, "10": {"label": "*2", "atom_type": "H0"}}

>  <type>  (11) 
unop_7

>  <geom_source>  (11) 
Heuristics

$$$$

     RDKit          3D

 13 11  0  0  0  0  0  0  0  0999 V2000
    0.7104    0.6727    0.5668 C   0  0  0  0  0  0  0  0  0  0  0  0
   -0.9758    1.2876    0.8061 S   0  0  0  0  0  0  0  0  0  0  0  0
    0.9212    0.0207    1.4129 H   0  0  0  0  0  0  0  0  0  0  0  0
    1.4327    1.4864    0.5654 H   0  0  0  0  0  0  0  0  0  0  0  0
   -1.0366    2.0408   -0.2988 H   0  0  0  0  0  0  0  0  0  0  0  0
    0.7104   -1.7646   -1.9045 C   0  0  0  0  0  0  0  0  0  0  0  0
    0.7104   -1.7646   -0.3817 C   0  0  0  0  0  3  0  0  0  0  0  0
   -0.1705   -1.2560   -2.3004 H   0  0  0  0  0  0  0  0  0  0  0  0
    1.5912   -1.2560   -2.3004 H   0  0  0  0  0  0  0  0  0  0  0  0
    0.7104   -2.7817   -2.3004 H   0  0  0  0  0  0  0  0  0  0  0  0
    0.7104   -0.5440    0.0933 H   0  0  0  0  0  0  0  0  0  0  0  0
    1.5912   -2.2731    0.0141 H   0  0  0  0  0  0  0  0  0  0  0  0
   -0.1705   -2.2731    0.0141 H   0  0  0  0  0  0  0  0  0  0  0  0
  1  2  1  0
  1  3  1  0
  1  4  1  0
  1 11  1  0
  2  5  1  0
  6  7  1  0
  6  8  1  0
  6  9  1  0
  6 10  1  0
  7 12  1  0
  7 13  1  0
M  RAD  1   7   2
M  END
>  <reaction>  (12) 
rxn_887

>  <mol_properties>  (12) 
{"0": {"label": "*1", "atom_type": "Cs"}, "1": {"label": "*0", "atom_type": "S2s"}, "5": {"label": "*4", "atom_type": "Cs"}, "6": {"label": "*3", "atom_type": "Cs"}, "10": {"label": "*2", "atom_type": "H0"}}

>  <type>  (12) 
unop_8

>  <geom_source>  (12) 
Heuristics

$$$$

     RDKit          3D

 13 11  0  0  0  0  0  0  0  0999 V2000
   -0.3708    0.4645    1.1339 C   0  0  0  0  0  0  0  0  0  0  0  0
    0.4723    1.6090    0.0124 S   0  0  0  0  0  0  0  0  0  0  0  0
   -1.2760    0.9712    1.4644 H   0  0  0  0  0  0  0  0  0  0  0  0
    0.2410    0.2404    2.0053 H   0  0  0  0  0  0  0  0  0  0  0  0
    1.5194    0.8243   -0.2699 H   0  0  0  0  0  0  0  0  0  0  0  0
   -0.3708   -1.9727   -1.3374 C   0  0  0  0  0  0  0  0  0  0  0  0
   -0.3708   -1.9727    0.1854 C   0  0  0  0  0  3  0  0  0  0  0  0
   -1.2516   -1.4642   -1.7333 H   0  0  0  0  0  0  0  0  0  0  0  0
    0.5101   -1.4642   -1.7333 H   0  0  0  0  0  0  0  0  0  0  0  0
   -0.3708   -2.9898   -1.7333 H   0  0  0  0  0  0  0  0  0  0  0  0
   -0.3708   -0.7522    0.6604 H   0  0  0  0  0  0  0  0  0  0  0  0
    0.5101   -2.4813    0.5812 H   0  0  0  0  0  0  0  0  0  0  0  0
   -1.2516   -2.4813    0.5812 H   0  0  0  0  0  0  0  0  0  0  0  0
  1  2  1  0
  1  3  1  0
  1  4  1  0
  1 11  1  0
  2  5  1  0
  6  7  1  0
  6  8  1  0
  6  9  1  0
  6 10  1  0
  7 12  1  0
  7 13  1  0
M  RAD  1   7   2
M  END
>  <reaction>  (13) 
rxn_887

>  <mol_properties>  (13) 
{"0": {"label": "*1", "atom_type": "Cs"}, "1": {"label": "*0", "atom_type": "S2s"}, "5": {"label": "*4", "atom_type": "Cs"}, "6": {"label": "*3", "atom_type": "Cs"}, "10": {"label": "*2", "atom_type": "H0"}}

>  <type>  (13) 
unop_9

>  <geom_source>  (13) 
Heuristics

$$$$

     RDKit          3D

 13 11  0  0  0  0  0  0  0  0999 V2000
    0.6109    0.5446    0.8988 C   0  0  0  0  0  0  0  0  0  0  0  0
   -0.8493    1.4653    0.3525 S   0  0  0  0  0  0  0  0  0  0  0  0
    0.3158    0.0095    1.8000 H   0  0  0  0  0  0  0  0  0  0  0  0
    1.4327    1.2140    1.1445 H   0  0  0  0  0  0  0  0  0  0  0  0
   -0.2947    2.0322   -0.7258 H   0  0  0  0  0  0  0  0  0  0  0  0
    0.6109   -1.8927   -1.5725 C   0  0  0  0  0  0  0  0  0  0  0  0
    0.6109   -1.8927   -0.0497 C   0  0  0  0  0  3  0  0  0  0  0  0
   -0.2699   -1.3841   -1.9683 H   0  0  0  0  0  0  0  0  0  0  0  0
    1.4918   -1.3841   -1.9683 H   0  0  0  0  0  0  0  0  0  0  0  0
    0.6109   -2.9098   -1.9683 H   0  0  0  0  0  0  0  0  0  0  0  0
    0.6109   -0.6721    0.4253 H   0  0  0  0  0  0  0  0  0  0  0  0
    1.4918   -2.4012    0.3461 H   0  0  0  0  0  0  0  0  0  0  0  0
   -0.2699   -2.4012    0.3461 H   0  0  0  0  0  0  0  0  0  0  0  0
  1  2  1  0
  1  3  1  0
  1  4  1  0
  1 11  1  0
  2  5  1  0
  6  7  1  0
  6  8  1  0
  6  9  1  0
  6 10  1  0
  7 12  1  0
  7 13  1  0
M  RAD  1   7   2
M  END
>  <reaction>  (14) 
rxn_887

>  <mol_properties>  (14) 
{"0": {"label": "*1", "atom_type": "Cs"}, "1": {"label": "*0", "atom_type": "S2s"}, "5": {"label": "*4", "atom_type": "Cs"}, "6": {"label": "*3", "atom_type": "Cs"}, "10": {"label": "*2", "atom_type": "H0"}}

>  <type>  (14) 
unop_10

>  <geom_source>  (14) 
Heuristics

$$$$

     RDKit          3D

 13 11  0  0  0  0  0  0  0  0999 V2000
   -0.3448    0.9165   -0.0199 C   0  0  0  0  0  0  0  0  0  0  0  0
    0.4982    1.0018    1.5802 S   0  0  0  0  0  0  0  0  0  0  0  0
   -0.1582    1.8680   -0.5152 H   0  0  0  0  0  0  0  0  0  0  0  0
   -1.4187    0.7928    0.1038 H   0  0  0  0  0  0  0  0  0  0  0  0
    0.1574   -0.2182    2.0131 H   0  0  0  0  0  0  0  0  0  0  0  0
   -0.3448   -1.5207   -2.4913 C   0  0  0  0  0  0  0  0  0  0  0  0
   -0.3448   -1.5207   -0.9685 C   0  0  0  0  0  3  0  0  0  0  0  0
   -1.2257   -1.0122   -2.8871 H   0  0  0  0  0  0  0  0  0  0  0  0
    0.5360   -1.0122   -2.8871 H   0  0  0  0  0  0  0  0  0  0  0  0
   -0.3448   -2.5379   -2.8871 H   0  0  0  0  0  0  0  0  0  0  0  0
   -0.3448   -0.3002   -0.4935 H   0  0  0  0  0  0  0  0  0  0  0  0
    0.5360   -2.0293   -0.5726 H   0  0  0  0  0  0  0  0  0  0  0  0
   -1.2257   -2.0293   -0.5726 H   0  0  0  0  0  0  0  0  0  0  0  0
  1  2  1  0
  1  3  1  0
  1  4  1  0
  1 11  1  0
  2  5  1  0
  6  7  1  0
  6  8  1  0
  6  9  1  0
  6 10  1  0
  7 12  1  0
  7 13  1  0
M  RAD  1   7   2
M  END
>  <reaction>  (15) 
rxn_887

>  <mol_properties>  (15) 
{"0": {"label": "*1", "atom_type": "Cs"}, "1": {"label": "*0", "atom_type": "S2s"}, "5": {"label": "*4", "atom_type": "Cs"}, "6": {"label": "*3", "atom_type": "Cs"}, "10": {"label": "*2", "atom_type": "H0"}}

>  <type>  (15) 
unop_11

>  <geom_source>  (15) 
Heuristics

$$$$

     RDKit          3D

 13 11  0  0  0  0  0  0  0  0999 V2000
   -0.0143    0.4235    1.2271 C   0  0  0  0  0  0  0  0  0  0  0  0
   -0.0143    1.6500   -0.1049 S   0  0  0  0  0  0  0  0  0  0  0  0
   -0.9350    0.5798    1.7869 H   0  0  0  0  0  0  0  0  0  0  0  0
    0.8301    0.5669    1.8981 H   0  0  0  0  0  0  0  0  0  0  0  0
    1.1560    1.3006   -0.6528 H   0  0  0  0  0  0  0  0  0  0  0  0
   -0.0143   -2.0137   -1.2442 C   0  0  0  0  0  0  0  0  0  0  0  0
   -0.0143   -2.0137    0.2786 C   0  0  0  0  0  3  0  0  0  0  0  0
   -0.8952   -1.5052   -1.6401 H   0  0  0  0  0  0  0  0  0  0  0  0
    0.8665   -1.5052   -1.6401 H   0  0  0  0  0  0  0  0  0  0  0  0
   -0.0143   -3.0308   -1.6401 H   0  0  0  0  0  0  0  0  0  0  0  0
   -0.0143   -0.7932    0.7536 H   0  0  0  0  0  0  0  0  0  0  0  0
    0.8665   -2.5223    0.6744 H   0  0  0  0  0  0  0  0  0  0  0  0
   -0.8952   -2.5223    0.6744 H   0  0  0  0  0  0  0  0  0  0  0  0
  1  2  1  0
  1  3  1  0
  1  4  1  0
  1 11  1  0
  2  5  1  0
  6  7  1  0
  6  8  1  0
  6  9  1  0
  6 10  1  0
  7 12  1  0
  7 13  1  0
M  RAD  1   7   2
M  END
>  <reaction>  (16) 
rxn_887

>  <mol_properties>  (16) 
{"0": {"label": "*1", "atom_type": "Cs"}, "1": {"label": "*0", "atom_type": "S2s"}, "5": {"label": "*4", "atom_type": "Cs"}, "6": {"label": "*3", "atom_type": "Cs"}, "10": {"label": "*2", "atom_type": "H0"}}

>  <type>  (16) 
unop_12

>  <geom_source>  (16) 
Heuristics

$$$$

     RDKit          3D

 13 11  0  0  0  0  0  0  0  0999 V2000
    2.9086    0.5432   -0.2725 S   0  0  0  0  0  0  0  0  0  0  0  0
   -1.7777   -0.0803    0.4595 C   0  0  0  0  0  0  0  0  0  0  0  0
    1.5667   -0.6402    0.0297 C   0  0  0  0  0  3  0  0  0  0  0  0
   -0.7638    0.2703   -0.6136 C   0  0  0  0  0  0  0  0  0  0  0  0
   -2.0039   -1.1660    0.4170 H   0  0  0  0  0  0  0  0  0  0  0  0
   -1.3615    0.1648    1.4588 H   0  0  0  0  0  0  0  0  0  0  0  0
   -2.7130    0.4964    0.2995 H   0  0  0  0  0  0  0  0  0  0  0  0
    1.3509   -0.6888    1.1171 H   0  0  0  0  0  0  0  0  0  0  0  0
    1.8727   -1.6441   -0.3298 H   0  0  0  0  0  0  0  0  0  0  0  0
    0.4503   -0.2425   -0.6376 H   0  0  0  0  0  0  0  0  0  0  0  0
   -1.1694    0.0197   -1.6164 H   0  0  0  0  0  0  0  0  0  0  0  0
   -0.5254    1.3540   -0.5719 H   0  0  0  0  0  0  0  0  0  0  0  0
    2.1655    1.6136    0.2601 H   0  0  0  0  0  0  0  0  0  0  0  0
  1  3  1  0
  1 13  1  0
  2  4  1  0
  2  5  1  0
  2  6  1  0
  2  7  1  0
  3  8  1  0
  3  9  1  0
  4 10  1  0
  4 11  1  0
  4 12  1  0
M  RAD  1   3   2
M  END
>  <reaction>  (17) 
rxn_887

>  <mol_properties>  (17) 
{"0": {"label": "*1", "atom_type": "Cs"}, "1": {"label": "*0", "atom_type": "S2s"}, "5": {"label": "*4", "atom_type": "Cs"}, "6": {"label": "*3", "atom_type": "Cs"}, "10": {"label": "*2", "atom_type": "H0"}}

>  <type>  (17) 
unop_13

>  <geom_source>  (17) 
AutoTST

$$$$
