
     RDKit          3D

  9  8  0  0  0  0  0  0  0  0999 V2000
   -2.1022   -0.6873    0.3932 C   0  0  0  0  0  0  0  0  0  0  0  0
   -1.2072   -0.1086   -0.1482 C   0  0  0  0  0  0  0  0  0  0  0  0
   -0.1242    0.6105   -0.8193 C   0  0  0  0  0  0  0  0  0  0  0  0
    1.2067    0.1106   -0.4741 C   0  0  0  0  0  0  0  0  0  0  0  0
    2.3005   -0.2875   -0.2012 C   0  0  0  0  0  0  0  0  0  0  0  0
   -2.8942   -1.2059    0.8778 H   0  0  0  0  0  0  0  0  0  0  0  0
   -0.1862    1.6723   -0.5649 H   0  0  0  0  0  0  0  0  0  0  0  0
   -0.2641    0.5418   -1.9017 H   0  0  0  0  0  0  0  0  0  0  0  0
    3.2709   -0.6459    0.0455 H   0  0  0  0  0  0  0  0  0  0  0  0
  1  2  3  0
  1  6  1  0
  2  3  1  0
  3  4  1  0
  3  7  1  0
  3  8  1  0
  4  5  3  0
  5  9  1  0
M  END
>  <reaction>  (1) 
rxn_1361

>  <mol_properties>  (1) 
{"2": {"label": "donator", "atom_type": "Cs"}, "6": {"label": "d_hydrogen", "atom_type": "H0"}}

>  <type>  (1) 
r1h

$$$$

     RDKit          3D

 20 20  0  0  0  0  0  0  0  0999 V2000
   -2.4774    0.8083    0.1488 C   0  0  0  0  0  0  0  0  0  0  0  0
   -1.4172   -0.1696   -0.2476 C   0  0  0  0  0  3  0  0  0  0  0  0
   -0.2904    0.2932   -1.1156 C   0  0  0  0  0  0  0  0  0  0  0  0
   -1.4797   -1.5204    0.1947 C   0  0  0  0  0  0  0  0  0  0  0  0
   -0.4907   -2.4664   -0.1650 C   0  0  0  0  0  0  0  0  0  0  0  0
   -0.5559   -3.7750    0.2665 C   0  0  0  0  0  0  0  0  0  0  0  0
   -1.6038   -4.2041    1.0733 C   0  0  0  0  0  0  0  0  0  0  0  0
   -2.5899   -3.2959    1.4424 C   0  0  0  0  0  0  0  0  0  0  0  0
   -2.5339   -1.9852    1.0162 C   0  0  0  0  0  0  0  0  0  0  0  0
   -3.4697    0.4933   -0.1924 H   0  0  0  0  0  0  0  0  0  0  0  0
   -2.5434    0.9184    1.2368 H   0  0  0  0  0  0  0  0  0  0  0  0
   -2.2829    1.7944   -0.2706 H   0  0  0  0  0  0  0  0  0  0  0  0
   -0.2452   -0.2661   -2.0565 H   0  0  0  0  0  0  0  0  0  0  0  0
   -0.3905    1.3487   -1.3647 H   0  0  0  0  0  0  0  0  0  0  0  0
    0.6811    0.1589   -0.6274 H   0  0  0  0  0  0  0  0  0  0  0  0
    0.3373   -2.1635   -0.7918 H   0  0  0  0  0  0  0  0  0  0  0  0
    0.2187   -4.4725   -0.0281 H   0  0  0  0  0  0  0  0  0  0  0  0
   -1.6513   -5.2316    1.4097 H   0  0  0  0  0  0  0  0  0  0  0  0
   -3.4116   -3.6175    2.0706 H   0  0  0  0  0  0  0  0  0  0  0  0
   -3.3164   -1.3029    1.3205 H   0  0  0  0  0  0  0  0  0  0  0  0
  1  2  1  0
  1 10  1  0
  1 11  1  0
  1 12  1  0
  2  3  1  0
  2  4  1  0
  3 13  1  0
  3 14  1  0
  3 15  1  0
  4  5  2  0
  4  9  1  0
  5  6  1  0
  5 16  1  0
  6  7  2  0
  6 17  1  0
  7  8  1  0
  7 18  1  0
  8  9  2  0
  8 19  1  0
  9 20  1  0
M  RAD  1   2   2
M  END
>  <reaction>  (2) 
rxn_1361

>  <mol_properties>  (2) 
{"1": {"label": "acceptor", "atom_type": "Cs"}}

>  <type>  (2) 
r2

$$$$

     RDKit          3D

 21 21  0  0  0  0  0  0  0  0999 V2000
   -1.3695    1.3367   -1.0719 C   0  0  0  0  0  0  0  0  0  0  0  0
   -1.4091   -0.0981   -0.5428 C   0  0  0  0  0  0  0  0  0  0  0  0
   -0.1819   -0.3999    0.3191 C   0  0  0  0  0  0  0  0  0  0  0  0
   -1.5636   -1.1028   -1.6652 C   0  0  0  0  0  0  0  0  0  0  0  0
   -0.5920   -1.2314   -2.6553 C   0  0  0  0  0  0  0  0  0  0  0  0
   -0.7353   -2.1509   -3.6809 C   0  0  0  0  0  0  0  0  0  0  0  0
   -1.8582   -2.9642   -3.7377 C   0  0  0  0  0  0  0  0  0  0  0  0
   -2.8325   -2.8475   -2.7602 C   0  0  0  0  0  0  0  0  0  0  0  0
   -2.6828   -1.9241   -1.7351 C   0  0  0  0  0  0  0  0  0  0  0  0
   -0.4920    1.4974   -1.7025 H   0  0  0  0  0  0  0  0  0  0  0  0
   -2.2553    1.5607   -1.6679 H   0  0  0  0  0  0  0  0  0  0  0  0
   -1.3211    2.0496   -0.2461 H   0  0  0  0  0  0  0  0  0  0  0  0
   -2.2930   -0.1918    0.0948 H   0  0  0  0  0  0  0  0  0  0  0  0
   -0.1215    0.2955    1.1588 H   0  0  0  0  0  0  0  0  0  0  0  0
   -0.2200   -1.4155    0.7159 H   0  0  0  0  0  0  0  0  0  0  0  0
    0.7383   -0.3016   -0.2615 H   0  0  0  0  0  0  0  0  0  0  0  0
    0.2915   -0.6040   -2.6263 H   0  0  0  0  0  0  0  0  0  0  0  0
    0.0326   -2.2338   -4.4401 H   0  0  0  0  0  0  0  0  0  0  0  0
   -1.9712   -3.6833   -4.5391 H   0  0  0  0  0  0  0  0  0  0  0  0
   -3.7135   -3.4765   -2.7932 H   0  0  0  0  0  0  0  0  0  0  0  0
   -3.4509   -1.8400   -0.9743 H   0  0  0  0  0  0  0  0  0  0  0  0
  1  2  1  0
  1 10  1  0
  1 11  1  0
  1 12  1  0
  2  3  1  0
  2  4  1  0
  2 13  1  0
  3 14  1  0
  3 15  1  0
  3 16  1  0
  4  5  2  0
  4  9  1  0
  5  6  1  0
  5 17  1  0
  6  7  2  0
  6 18  1  0
  7  8  1  0
  7 19  1  0
  8  9  2  0
  8 20  1  0
  9 21  1  0
M  END
>  <reaction>  (3) 
rxn_1361

>  <mol_properties>  (3) 
{"0": {"label": "a_hydrogen", "atom_type": "H0"}, "2": {"label": "acceptor", "atom_type": "Cs"}}

>  <type>  (3) 
r2h

$$$$

     RDKit          3D

 29 28  0  0  0  0  0  0  0  0999 V2000
   -1.2225   -1.3187   -2.9613 C   0  0  0  0  0  0  0  0  0  0  0  0
   -1.4266   -1.3678   -1.7792 C   0  0  0  0  0  0  0  0  0  0  0  0
   -1.6262   -1.3716   -0.3614 C   0  0  0  0  0  0  0  0  0  0  0  0
   -2.9741   -1.2607    0.1089 C   0  0  0  0  0  0  0  0  0  0  0  0
   -4.0875   -1.1200    0.5354 C   0  0  0  0  0  0  0  0  0  0  0  0
   -1.0585   -1.2985   -4.0117 H   0  0  0  0  0  0  0  0  0  0  0  0
   -1.0037   -0.2656    0.0833 H   0  0  0  0  0  0  0  0  0  0  0  0
   -1.0395   -2.1286    0.1581 H   0  0  0  0  0  0  0  0  0  0  0  0
   -5.0802   -1.0163    0.9019 H   0  0  0  0  0  0  0  0  0  0  0  0
   -0.9362    1.8361   -0.5777 C   0  0  0  0  0  0  0  0  0  0  0  0
   -0.4417    0.8961    0.4973 C   0  0  0  0  0  3  0  0  0  0  0  0
   -1.1072    1.1082    1.8340 C   0  0  0  0  0  0  0  0  0  0  0  0
    1.0049    0.5725    0.4941 C   0  0  0  0  0  0  0  0  0  0  0  0
    1.7598    0.5460    1.6697 C   0  0  0  0  0  0  0  0  0  0  0  0
    3.1051    0.2137    1.6504 C   0  0  0  0  0  0  0  0  0  0  0  0
    3.7286   -0.1151    0.4576 C   0  0  0  0  0  0  0  0  0  0  0  0
    2.9916   -0.1069   -0.7184 C   0  0  0  0  0  0  0  0  0  0  0  0
    1.6515    0.2338   -0.7009 C   0  0  0  0  0  0  0  0  0  0  0  0
   -0.5520    1.5823   -1.5643 H   0  0  0  0  0  0  0  0  0  0  0  0
   -2.0266    1.8149   -0.6283 H   0  0  0  0  0  0  0  0  0  0  0  0
   -0.6283    2.8623   -0.3506 H   0  0  0  0  0  0  0  0  0  0  0  0
   -0.7709    2.0426    2.2967 H   0  0  0  0  0  0  0  0  0  0  0  0
   -2.1884    1.1712    1.7070 H   0  0  0  0  0  0  0  0  0  0  0  0
   -0.9004    0.2939    2.5297 H   0  0  0  0  0  0  0  0  0  0  0  0
    1.2988    0.8031    2.6139 H   0  0  0  0  0  0  0  0  0  0  0  0
    3.6684    0.2129    2.5753 H   0  0  0  0  0  0  0  0  0  0  0  0
    4.7785   -0.3785    0.4434 H   0  0  0  0  0  0  0  0  0  0  0  0
    3.4637   -0.3718   -1.6563 H   0  0  0  0  0  0  0  0  0  0  0  0
    1.0900    0.2126   -1.6260 H   0  0  0  0  0  0  0  0  0  0  0  0
  1  2  3  0
  1  6  1  0
  2  3  1  0
  3  4  1  0
  3  7  1  0
  3  8  1  0
  4  5  3  0
  5  9  1  0
 10 11  1  0
 10 19  1  0
 10 20  1  0
 10 21  1  0
 11 12  1  0
 11 13  1  0
 12 22  1  0
 12 23  1  0
 12 24  1  0
 13 14  2  0
 13 18  1  0
 14 15  1  0
 14 25  1  0
 15 16  2  0
 15 26  1  0
 16 17  1  0
 16 27  1  0
 17 18  2  0
 17 28  1  0
 18 29  1  0
M  RAD  1  11   2
M  END
>  <reaction>  (4) 
rxn_1361

>  <mol_properties>  (4) 
{"1": {"label": "*0", "atom_type": "Ct"}, "2": {"label": "*1", "atom_type": "Cs"}, "6": {"label": "*2", "atom_type": "H0"}, "10": {"label": "*3", "atom_type": "Cs"}, "12": {"label": "*4", "atom_type": "Cd"}}

>  <type>  (4) 
ts

$$$$

     RDKit          3D

 29 28  0  0  0  0  0  0  0  0999 V2000
   -1.8611   -1.6853   -2.7217 C   0  0  0  0  0  0  0  0  0  0  0  0
   -1.8611   -1.6853   -1.5262 C   0  0  0  0  0  0  0  0  0  0  0  0
   -1.8611   -1.6853   -0.0632 C   0  0  0  0  0  0  0  0  0  0  0  0
   -3.1751   -1.4097    0.5180 C   0  0  0  0  0  0  0  0  0  0  0  0
   -4.2489   -1.1845    0.9929 C   0  0  0  0  0  0  0  0  0  0  0  0
   -1.8611   -1.6853   -3.7852 H   0  0  0  0  0  0  0  0  0  0  0  0
   -1.0030   -0.7909    0.3678 H   0  0  0  0  0  0  0  0  0  0  0  0
   -1.5057   -2.6552    0.2960 H   0  0  0  0  0  0  0  0  0  0  0  0
   -5.2041   -0.9842    1.4153 H   0  0  0  0  0  0  0  0  0  0  0  0
   -0.9183    1.1208    1.6397 C   0  0  0  0  0  0  0  0  0  0  0  0
   -0.1446    0.1037    0.7990 C   0  0  0  0  0  3  0  0  0  0  0  0
    0.1399   -1.1682    1.5998 C   0  0  0  0  0  0  0  0  0  0  0  0
    1.1255    0.7007    0.2300 C   0  0  0  0  0  0  0  0  0  0  0  0
    2.1435    1.1568    1.0646 C   0  0  0  0  0  0  0  0  0  0  0  0
    3.3042    1.7025    0.5423 C   0  0  0  0  0  0  0  0  0  0  0  0
    3.4714    1.8037   -0.8316 C   0  0  0  0  0  0  0  0  0  0  0  0
    2.4678    1.3544   -1.6737 C   0  0  0  0  0  0  0  0  0  0  0  0
    1.3071    0.8086   -1.1438 C   0  0  0  0  0  0  0  0  0  0  0  0
   -1.1418    2.0194    1.0626 H   0  0  0  0  0  0  0  0  0  0  0  0
   -1.8603    0.6933    1.9892 H   0  0  0  0  0  0  0  0  0  0  0  0
   -0.3428    1.4216    2.5181 H   0  0  0  0  0  0  0  0  0  0  0  0
    0.7535   -0.9498    2.4769 H   0  0  0  0  0  0  0  0  0  0  0  0
   -0.7915   -1.6188    1.9490 H   0  0  0  0  0  0  0  0  0  0  0  0
    0.6717   -1.9036    0.9944 H   0  0  0  0  0  0  0  0  0  0  0  0
    2.0295    1.0854    2.1403 H   0  0  0  0  0  0  0  0  0  0  0  0
    4.0826    2.0507    1.2099 H   0  0  0  0  0  0  0  0  0  0  0  0
    4.3784    2.2301   -1.2409 H   0  0  0  0  0  0  0  0  0  0  0  0
    2.5861    1.4278   -2.7477 H   0  0  0  0  0  0  0  0  0  0  0  0
    0.5269    0.4595   -1.8110 H   0  0  0  0  0  0  0  0  0  0  0  0
  1  2  3  0
  1  6  1  0
  2  3  1  0
  3  4  1  0
  3  7  1  0
  3  8  1  0
  4  5  3  0
  5  9  1  0
 10 11  1  0
 10 19  1  0
 10 20  1  0
 10 21  1  0
 11 12  1  0
 11 13  1  0
 12 22  1  0
 12 23  1  0
 12 24  1  0
 13 14  2  0
 13 18  1  0
 14 15  1  0
 14 25  1  0
 15 16  2  0
 15 26  1  0
 16 17  1  0
 16 27  1  0
 17 18  2  0
 17 28  1  0
 18 29  1  0
M  RAD  1  11   2
M  END
>  <reaction>  (5) 
rxn_1361

>  <mol_properties>  (5) 
{"1": {"label": "*0", "atom_type": "Ct"}, "2": {"label": "*1", "atom_type": "Cs"}, "6": {"label": "*2", "atom_type": "H0"}, "10": {"label": "*3", "atom_type": "Cs"}, "12": {"label": "*4", "atom_type": "Cd"}}

>  <type>  (5) 
unop_1

>  <geom_source>  (5) 
Heuristics

$$$$

     RDKit          3D

 29 28  0  0  0  0  0  0  0  0999 V2000
   -1.9218   -1.0182   -3.4489 C   0  0  0  0  0  0  0  0  0  0  0  0
   -1.9218   -1.0182   -2.2534 C   0  0  0  0  0  0  0  0  0  0  0  0
   -1.9218   -1.0182   -0.7904 C   0  0  0  0  0  0  0  0  0  0  0  0
   -3.2359   -0.7426   -0.2093 C   0  0  0  0  0  0  0  0  0  0  0  0
   -4.3096   -0.5174    0.2656 C   0  0  0  0  0  0  0  0  0  0  0  0
   -1.9218   -1.0182   -4.5124 H   0  0  0  0  0  0  0  0  0  0  0  0
   -1.0637   -0.1238   -0.3594 H   0  0  0  0  0  0  0  0  0  0  0  0
   -1.5665   -1.9881   -0.4312 H   0  0  0  0  0  0  0  0  0  0  0  0
   -5.2648   -0.3171    0.6881 H   0  0  0  0  0  0  0  0  0  0  0  0
   -0.1412    1.8905   -0.9685 C   0  0  0  0  0  0  0  0  0  0  0  0
   -0.2053    0.7708    0.0718 C   0  0  0  0  0  3  0  0  0  0  0  0
   -1.1138    1.1576    1.2401 C   0  0  0  0  0  0  0  0  0  0  0  0
    1.1757    0.3710    0.5473 C   0  0  0  0  0  0  0  0  0  0  0  0
    1.9992    1.2778    1.2109 C   0  0  0  0  0  0  0  0  0  0  0  0
    3.2619    0.9102    1.6450 C   0  0  0  0  0  0  0  0  0  0  0  0
    3.7289   -0.3776    1.4233 C   0  0  0  0  0  0  0  0  0  0  0  0
    2.9213   -1.2900    0.7648 C   0  0  0  0  0  0  0  0  0  0  0  0
    1.6570   -0.9151    0.3324 C   0  0  0  0  0  0  0  0  0  0  0  0
    0.4883    1.6070   -1.8133 H   0  0  0  0  0  0  0  0  0  0  0  0
   -1.1394    2.1223   -1.3457 H   0  0  0  0  0  0  0  0  0  0  0  0
    0.2716    2.8045   -0.5352 H   0  0  0  0  0  0  0  0  0  0  0  0
   -0.7360    2.0452    1.7528 H   0  0  0  0  0  0  0  0  0  0  0  0
   -2.1218    1.3820    0.8851 H   0  0  0  0  0  0  0  0  0  0  0  0
   -1.1787    0.3510    1.9717 H   0  0  0  0  0  0  0  0  0  0  0  0
    1.6503    2.2880    1.3924 H   0  0  0  0  0  0  0  0  0  0  0  0
    3.8852    1.6316    2.1588 H   0  0  0  0  0  0  0  0  0  0  0  0
    4.7159   -0.6660    1.7622 H   0  0  0  0  0  0  0  0  0  0  0  0
    3.2741   -2.2980    0.5857 H   0  0  0  0  0  0  0  0  0  0  0  0
    1.0318   -1.6363   -0.1822 H   0  0  0  0  0  0  0  0  0  0  0  0
  1  2  3  0
  1  6  1  0
  2  3  1  0
  3  4  1  0
  3  7  1  0
  3  8  1  0
  4  5  3  0
  5  9  1  0
 10 11  1  0
 10 19  1  0
 10 20  1  0
 10 21  1  0
 11 12  1  0
 11 13  1  0
 12 22  1  0
 12 23  1  0
 12 24  1  0
 13 14  2  0
 13 18  1  0
 14 15  1  0
 14 25  1  0
 15 16  2  0
 15 26  1  0
 16 17  1  0
 16 27  1  0
 17 18  2  0
 17 28  1  0
 18 29  1  0
M  RAD  1  11   2
M  END
>  <reaction>  (6) 
rxn_1361

>  <mol_properties>  (6) 
{"1": {"label": "*0", "atom_type": "Ct"}, "2": {"label": "*1", "atom_type": "Cs"}, "6": {"label": "*2", "atom_type": "H0"}, "10": {"label": "*3", "atom_type": "Cs"}, "12": {"label": "*4", "atom_type": "Cd"}}

>  <type>  (6) 
unop_2

>  <geom_source>  (6) 
Heuristics

$$$$

     RDKit          3D

 29 28  0  0  0  0  0  0  0  0999 V2000
   -1.4422   -2.0574   -2.5175 C   0  0  0  0  0  0  0  0  0  0  0  0
   -1.4422   -2.0574   -1.3220 C   0  0  0  0  0  0  0  0  0  0  0  0
   -1.4422   -2.0574    0.1410 C   0  0  0  0  0  0  0  0  0  0  0  0
   -2.7563   -1.7818    0.7221 C   0  0  0  0  0  0  0  0  0  0  0  0
   -3.8300   -1.5566    1.1970 C   0  0  0  0  0  0  0  0  0  0  0  0
   -1.4422   -2.0574   -3.5810 H   0  0  0  0  0  0  0  0  0  0  0  0
   -0.5841   -1.1630    0.5720 H   0  0  0  0  0  0  0  0  0  0  0  0
   -1.0869   -3.0273    0.5001 H   0  0  0  0  0  0  0  0  0  0  0  0
   -4.7852   -1.3563    1.6195 H   0  0  0  0  0  0  0  0  0  0  0  0
   -0.2358    0.2529    2.3478 C   0  0  0  0  0  0  0  0  0  0  0  0
    0.2743   -0.2684    1.0031 C   0  0  0  0  0  3  0  0  0  0  0  0
    1.2020   -1.4693    1.1955 C   0  0  0  0  0  0  0  0  0  0  0  0
    0.9391    0.8268    0.1959 C   0  0  0  0  0  0  0  0  0  0  0  0
    2.0835    1.4708    0.6613 C   0  0  0  0  0  0  0  0  0  0  0  0
    2.6899    2.4722   -0.0786 C   0  0  0  0  0  0  0  0  0  0  0  0
    2.1620    2.8517   -1.3045 C   0  0  0  0  0  0  0  0  0  0  0  0
    1.0247    2.2203   -1.7800 C   0  0  0  0  0  0  0  0  0  0  0  0
    0.4218    1.2177   -1.0336 C   0  0  0  0  0  0  0  0  0  0  0  0
   -0.9156    1.0951    2.2110 H   0  0  0  0  0  0  0  0  0  0  0  0
   -0.7666   -0.5335    2.8884 H   0  0  0  0  0  0  0  0  0  0  0  0
    0.5917    0.5892    2.9768 H   0  0  0  0  0  0  0  0  0  0  0  0
    2.0812   -1.1949    1.7830 H   0  0  0  0  0  0  0  0  0  0  0  0
    0.6857   -2.2730    1.7245 H   0  0  0  0  0  0  0  0  0  0  0  0
    1.5485   -1.8564    0.2361 H   0  0  0  0  0  0  0  0  0  0  0  0
    2.5092    1.1868    1.6169 H   0  0  0  0  0  0  0  0  0  0  0  0
    3.5789    2.9593    0.3027 H   0  0  0  0  0  0  0  0  0  0  0  0
    2.6354    3.6344   -1.8836 H   0  0  0  0  0  0  0  0  0  0  0  0
    0.6029    2.5074   -2.7353 H   0  0  0  0  0  0  0  0  0  0  0  0
   -0.4683    0.7291   -1.4141 H   0  0  0  0  0  0  0  0  0  0  0  0
  1  2  3  0
  1  6  1  0
  2  3  1  0
  3  4  1  0
  3  7  1  0
  3  8  1  0
  4  5  3  0
  5  9  1  0
 10 11  1  0
 10 19  1  0
 10 20  1  0
 10 21  1  0
 11 12  1  0
 11 13  1  0
 12 22  1  0
 12 23  1  0
 12 24  1  0
 13 14  2  0
 13 18  1  0
 14 15  1  0
 14 25  1  0
 15 16  2  0
 15 26  1  0
 16 17  1  0
 16 27  1  0
 17 18  2  0
 17 28  1  0
 18 29  1  0
M  RAD  1  11   2
M  END
>  <reaction>  (7) 
rxn_1361

>  <mol_properties>  (7) 
{"1": {"label": "*0", "atom_type": "Ct"}, "2": {"label": "*1", "atom_type": "Cs"}, "6": {"label": "*2", "atom_type": "H0"}, "10": {"label": "*3", "atom_type": "Cs"}, "12": {"label": "*4", "atom_type": "Cd"}}

>  <type>  (7) 
unop_3

>  <geom_source>  (7) 
Heuristics

$$$$

     RDKit          3D

 29 27  0  0  0  0  0  0  0  0999 V2000
   -0.7081   -0.7225   -4.0753 C   0  0  0  0  0  0  0  0  0  0  0  0
   -0.7081   -0.7225   -2.8798 C   0  0  0  0  0  0  0  0  0  0  0  0
   -0.7081   -0.7225   -1.4168 C   0  0  0  0  0  3  0  0  0  0  0  0
   -2.0221   -0.4469   -0.8356 C   0  0  0  0  0  3  0  0  0  0  0  0
   -3.0958   -0.2217   -0.3607 C   0  0  0  0  0  0  0  0  0  0  0  0
   -0.7081   -0.7225   -5.1388 H   0  0  0  0  0  0  0  0  0  0  0  0
    0.1501    0.1719   -0.9858 H   0  0  0  0  0  0  0  0  0  0  0  0
   -0.3527   -1.6923   -1.0576 H   0  0  0  0  0  0  0  0  0  0  0  0
   -4.0510   -0.0213    0.0617 H   0  0  0  0  0  0  0  0  0  0  0  0
    2.3882    0.6811   -1.0909 C   0  0  0  0  0  0  0  0  0  0  0  0
    1.0085    1.0666   -0.5546 C   0  0  0  0  0  3  0  0  0  0  0  0
    0.8835    2.5832   -0.3989 C   0  0  0  0  0  0  0  0  0  0  0  0
    0.6904    0.3448    0.7381 C   0  0  0  0  0  0  0  0  0  0  0  0
    1.4630    0.5403    1.8808 C   0  0  0  0  0  0  0  0  0  0  0  0
    1.1705   -0.1208    3.0620 C   0  0  0  0  0  0  0  0  0  0  0  0
    0.0945   -0.9949    3.1250 C   0  0  0  0  0  0  0  0  0  0  0  0
   -0.6825   -1.1992    1.9968 C   0  0  0  0  0  0  0  0  0  0  0  0
   -0.3839   -0.5336    0.8162 C   0  0  0  0  0  0  0  0  0  0  0  0
    2.4710   -0.3985   -1.2240 H   0  0  0  0  0  0  0  0  0  0  0  0
    2.5744    1.1617   -2.0535 H   0  0  0  0  0  0  0  0  0  0  0  0
    3.1773    0.9952   -0.4037 H   0  0  0  0  0  0  0  0  0  0  0  0
    1.6184    2.9657    0.3131 H   0  0  0  0  0  0  0  0  0  0  0  0
    1.0545    3.0830   -1.3546 H   0  0  0  0  0  0  0  0  0  0  0  0
   -0.1078    2.8613   -0.0382 H   0  0  0  0  0  0  0  0  0  0  0  0
    2.3072    1.2196    1.8493 H   0  0  0  0  0  0  0  0  0  0  0  0
    1.7847    0.0463    3.9382 H   0  0  0  0  0  0  0  0  0  0  0  0
   -0.1349   -1.5122    4.0479 H   0  0  0  0  0  0  0  0  0  0  0  0
   -1.5249   -1.8788    2.0330 H   0  0  0  0  0  0  0  0  0  0  0  0
   -0.9980   -0.7000   -0.0618 H   0  0  0  0  0  0  0  0  0  0  0  0
  1  2  3  0
  1  6  1  0
  2  3  1  0
  3  7  1  0
  3  8  1  0
  4  5  3  0
  5  9  1  0
 10 11  1  0
 10 19  1  0
 10 20  1  0
 10 21  1  0
 11 12  1  0
 11 13  1  0
 12 22  1  0
 12 23  1  0
 12 24  1  0
 13 14  2  0
 13 18  1  0
 14 15  1  0
 14 25  1  0
 15 16  2  0
 15 26  1  0
 16 17  1  0
 16 27  1  0
 17 18  2  0
 17 28  1  0
 18 29  1  0
M  RAD  3   3   2   4   2  11   2
M  END
>  <reaction>  (8) 
rxn_1361

>  <mol_properties>  (8) 
{"1": {"label": "*0", "atom_type": "Ct"}, "2": {"label": "*1", "atom_type": "Cs"}, "6": {"label": "*2", "atom_type": "H0"}, "10": {"label": "*3", "atom_type": "Cs"}, "12": {"label": "*4", "atom_type": "Cd"}}

>  <type>  (8) 
unop_4

>  <geom_source>  (8) 
Heuristics

$$$$

     RDKit          3D

 29 28  0  0  0  0  0  0  0  0999 V2000
   -0.6091   -2.2814   -2.6902 C   0  0  0  0  0  0  0  0  0  0  0  0
   -0.6091   -2.2814   -1.4947 C   0  0  0  0  0  0  0  0  0  0  0  0
   -0.6091   -2.2814   -0.0317 C   0  0  0  0  0  0  0  0  0  0  0  0
   -1.9232   -2.0058    0.5495 C   0  0  0  0  0  0  0  0  0  0  0  0
   -2.9969   -1.7806    1.0244 C   0  0  0  0  0  0  0  0  0  0  0  0
   -0.6091   -2.2814   -3.7537 H   0  0  0  0  0  0  0  0  0  0  0  0
    0.2490   -1.3870    0.3993 H   0  0  0  0  0  0  0  0  0  0  0  0
   -0.2538   -3.2513    0.3275 H   0  0  0  0  0  0  0  0  0  0  0  0
   -3.9521   -1.5802    1.4468 H   0  0  0  0  0  0  0  0  0  0  0  0
    1.0789   -0.5220    2.3596 C   0  0  0  0  0  0  0  0  0  0  0  0
    1.1074   -0.4923    0.8305 C   0  0  0  0  0  3  0  0  0  0  0  0
    2.4881   -0.8810    0.2990 C   0  0  0  0  0  0  0  0  0  0  0  0
    0.6585    0.8491    0.2899 C   0  0  0  0  0  0  0  0  0  0  0  0
    1.3690    2.0136    0.5728 C   0  0  0  0  0  0  0  0  0  0  0  0
    0.9568    3.2394    0.0774 C   0  0  0  0  0  0  0  0  0  0  0  0
   -0.1793    3.3261   -0.7147 C   0  0  0  0  0  0  0  0  0  0  0  0
   -0.8957    2.1767   -1.0043 C   0  0  0  0  0  0  0  0  0  0  0  0
   -0.4773    0.9515   -0.5047 C   0  0  0  0  0  0  0  0  0  0  0  0
    0.0885   -0.2672    2.7396 H   0  0  0  0  0  0  0  0  0  0  0  0
    1.3445   -1.5144    2.7298 H   0  0  0  0  0  0  0  0  0  0  0  0
    1.7921    0.1916    2.7786 H   0  0  0  0  0  0  0  0  0  0  0  0
    3.2520   -0.1803    0.6438 H   0  0  0  0  0  0  0  0  0  0  0  0
    2.7679   -1.8771    0.6483 H   0  0  0  0  0  0  0  0  0  0  0  0
    2.5036   -0.8825   -0.7919 H   0  0  0  0  0  0  0  0  0  0  0  0
    2.2588    1.9641    1.1899 H   0  0  0  0  0  0  0  0  0  0  0  0
    1.5244    4.1320    0.3101 H   0  0  0  0  0  0  0  0  0  0  0  0
   -0.5024    4.2839   -1.1025 H   0  0  0  0  0  0  0  0  0  0  0  0
   -1.7841    2.2310   -1.6213 H   0  0  0  0  0  0  0  0  0  0  0  0
   -1.0446    0.0570   -0.7369 H   0  0  0  0  0  0  0  0  0  0  0  0
  1  2  3  0
  1  6  1  0
  2  3  1  0
  3  4  1  0
  3  7  1  0
  3  8  1  0
  4  5  3  0
  5  9  1  0
 10 11  1  0
 10 19  1  0
 10 20  1  0
 10 21  1  0
 11 12  1  0
 11 13  1  0
 12 22  1  0
 12 23  1  0
 12 24  1  0
 13 14  2  0
 13 18  1  0
 14 15  1  0
 14 25  1  0
 15 16  2  0
 15 26  1  0
 16 17  1  0
 16 27  1  0
 17 18  2  0
 17 28  1  0
 18 29  1  0
M  RAD  1  11   2
M  END
>  <reaction>  (9) 
rxn_1361

>  <mol_properties>  (9) 
{"1": {"label": "*0", "atom_type": "Ct"}, "2": {"label": "*1", "atom_type": "Cs"}, "6": {"label": "*2", "atom_type": "H0"}, "10": {"label": "*3", "atom_type": "Cs"}, "12": {"label": "*4", "atom_type": "Cd"}}

>  <type>  (9) 
unop_5

>  <geom_source>  (9) 
Heuristics

$$$$

     RDKit          3D

 29 27  0  0  0  0  0  0  0  0999 V2000
   -0.2368   -1.0291   -3.9955 C   0  0  0  0  0  0  0  0  0  0  0  0
   -0.2368   -1.0291   -2.8000 C   0  0  0  0  0  0  0  0  0  0  0  0
   -0.2368   -1.0291   -1.3370 C   0  0  0  0  0  3  0  0  0  0  0  0
   -1.5508   -0.7535   -0.7559 C   0  0  0  0  0  0  0  0  0  0  0  0
   -2.6246   -0.5283   -0.2810 C   0  0  0  0  0  0  0  0  0  0  0  0
   -0.2368   -1.0291   -5.0590 H   0  0  0  0  0  0  0  0  0  0  0  0
    0.6214   -0.1347   -0.9060 H   0  0  0  0  0  0  0  0  0  0  0  0
    0.1186   -1.9990   -0.9778 H   0  0  0  0  0  0  0  0  0  0  0  0
   -3.5797   -0.3279    0.1415 H   0  0  0  0  0  0  0  0  0  0  0  0
    2.8347    0.0665   -0.3226 C   0  0  0  0  0  0  0  0  0  0  0  0
    1.4797    0.7600   -0.4748 C   0  0  0  0  0  3  0  0  0  0  0  0
    1.6525    2.2680   -0.6644 C   0  0  0  0  0  0  0  0  0  0  0  0
    0.5583    0.4452    0.6849 C   0  0  0  0  0  0  0  0  0  0  0  0
    0.8838    0.8220    1.9860 C   0  0  0  0  0  0  0  0  0  0  0  0
    0.0397    0.5332    3.0452 C   0  0  0  0  0  0  0  0  0  0  0  0
   -1.1526   -0.1414    2.8240 C   0  0  0  0  0  0  0  0  0  0  0  0
   -1.4895   -0.5223    1.5357 C   0  0  0  0  0  0  0  0  0  0  0  0
   -0.6392   -0.2298    0.4787 C   0  0  0  0  0  3  0  0  0  0  0  0
    2.7142   -1.0120   -0.2102 H   0  0  0  0  0  0  0  0  0  0  0  0
    3.4623    0.2533   -1.1965 H   0  0  0  0  0  0  0  0  0  0  0  0
    3.3679    0.4372    0.5558 H   0  0  0  0  0  0  0  0  0  0  0  0
    2.1432    2.7179    0.2017 H   0  0  0  0  0  0  0  0  0  0  0  0
    2.2682    2.4770   -1.5417 H   0  0  0  0  0  0  0  0  0  0  0  0
    0.6882    2.7610   -0.7959 H   0  0  0  0  0  0  0  0  0  0  0  0
    1.8113    1.3497    2.1769 H   0  0  0  0  0  0  0  0  0  0  0  0
    0.3129    0.8357    4.0486 H   0  0  0  0  0  0  0  0  0  0  0  0
   -1.8131   -0.3677    3.6514 H   0  0  0  0  0  0  0  0  0  0  0  0
   -2.4171   -1.0493    1.3499 H   0  0  0  0  0  0  0  0  0  0  0  0
   -0.9114   -0.5321   -0.5265 H   0  0  0  0  0  0  0  0  0  0  0  0
  1  2  3  0
  1  6  1  0
  2  3  1  0
  3  7  1  0
  3  8  1  0
  4  5  3  0
  4 29  1  0
  5  9  1  0
 10 11  1  0
 10 19  1  0
 10 20  1  0
 10 21  1  0
 11 12  1  0
 11 13  1  0
 12 22  1  0
 12 23  1  0
 12 24  1  0
 13 14  2  0
 13 18  1  0
 14 15  1  0
 14 25  1  0
 15 16  2  0
 15 26  1  0
 16 17  1  0
 16 27  1  0
 17 18  2  0
 17 28  1  0
M  CHG  2  11   1  18  -1
M  RAD  1   3   2
M  END
>  <reaction>  (10) 
rxn_1361

>  <mol_properties>  (10) 
{"1": {"label": "*0", "atom_type": "Ct"}, "2": {"label": "*1", "atom_type": "Cs"}, "6": {"label": "*2", "atom_type": "H0"}, "10": {"label": "*3", "atom_type": "Cs"}, "12": {"label": "*4", "atom_type": "Cd"}}

>  <type>  (10) 
unop_6

>  <geom_source>  (10) 
Heuristics

$$$$

     RDKit          3D

 29 25  0  0  0  0  0  0  0  0999 V2000
    0.0499   -1.4529   -3.7093 C   0  0  0  0  0  2  0  0  0  0  0  0
    0.0499   -1.4529   -2.5138 C   0  0  0  0  0  2  0  0  0  0  0  0
    0.0499   -1.4529   -1.0508 C   0  0  0  0  0  3  0  0  0  0  0  0
   -1.2642   -1.1773   -0.4696 C   0  0  0  0  0  1  0  0  0  0  0  0
   -2.3379   -0.9521    0.0053 C   0  0  0  0  0  1  0  0  0  0  0  0
    0.0499   -1.4529   -4.7728 H   0  0  0  0  0  0  0  0  0  0  0  0
    0.9080   -0.5585   -0.6198 H   0  0  0  0  0  0  0  0  0  0  0  0
    0.4052   -2.4228   -0.6916 H   0  0  0  0  0  0  0  0  0  0  0  0
   -3.2931   -0.7518    0.4277 H   0  0  0  0  0  0  0  0  0  0  0  0
    2.8146   -0.3949    0.6521 C   0  0  0  0  0  0  0  0  0  0  0  0
    1.7664    0.3361   -0.1886 C   0  0  0  0  0  3  0  0  0  0  0  0
    2.3260    1.6453   -0.7479 C   0  0  0  0  0  0  0  0  0  0  0  0
    0.4868    0.5631    0.5888 C   0  0  0  0  0  3  0  0  0  0  0  0
    0.4729    1.3491    1.7390 C   0  0  0  0  0  3  0  0  0  0  0  0
   -0.6984    1.5554    2.4485 C   0  0  0  0  0  3  0  0  0  0  0  0
   -1.8851    0.9774    2.0203 C   0  0  0  0  0  3  0  0  0  0  0  0
   -1.8865    0.1935    0.8785 C   0  0  0  0  0  2  0  0  0  0  0  0
   -0.7094   -0.0093    0.1721 C   0  0  0  0  0  2  0  0  0  0  0  0
    2.4244   -1.3398    1.0328 H   0  0  0  0  0  0  0  0  0  0  0  0
    3.7057   -0.6055    0.0571 H   0  0  0  0  0  0  0  0  0  0  0  0
    3.1213    0.2101    1.5084 H   0  0  0  0  0  0  0  0  0  0  0  0
    2.6151    2.3237    0.0581 H   0  0  0  0  0  0  0  0  0  0  0  0
    3.2122    1.4553   -1.3570 H   0  0  0  0  0  0  0  0  0  0  0  0
    1.5870    2.1566   -1.3665 H   0  0  0  0  0  0  0  0  0  0  0  0
    1.3909    1.8082    2.0876 H   0  0  0  0  0  0  0  0  0  0  0  0
   -0.6860    2.1702    3.3400 H   0  0  0  0  0  0  0  0  0  0  0  0
   -2.8013    1.1381    2.5743 H   0  0  0  0  0  0  0  0  0  0  0  0
   -2.8061   -0.2631    0.5339 H   0  0  0  0  0  0  0  0  0  0  0  0
   -0.7203   -0.6246   -0.7207 H   0  0  0  0  0  0  0  0  0  0  0  0
  1  2  1  0
  1  6  1  0
  2  3  1  0
  3  8  1  0
  3  7  1  0
  4 29  1  0
  5 28  1  0
 10 20  1  0
 10 21  1  0
 10 11  1  0
 10 19  1  0
 11 13  1  0
 11 12  1  0
 12 22  1  0
 12 24  1  0
 12 23  1  0
 13 14  1  0
 13 18  1  0
 14 15  1  0
 14 25  1  0
 15 26  1  0
 15 16  1  0
 16 27  1  0
 16 17  1  0
 17 18  1  0
M  RAD  8   1   3   2   3   3   2   4   2   5   2  11   2  13   2  14   2
M  RAD  4  15   2  16   2  17   3  18   3
M  END
>  <reaction>  (11) 
rxn_1361

>  <mol_properties>  (11) 
{"1": {"label": "*0", "atom_type": "Ct"}, "2": {"label": "*1", "atom_type": "Cs"}, "6": {"label": "*2", "atom_type": "H0"}, "10": {"label": "*3", "atom_type": "Cs"}, "12": {"label": "*4", "atom_type": "Cd"}}

>  <type>  (11) 
unop_7

>  <geom_source>  (11) 
Heuristics

$$$$

     RDKit          3D

 29 28  0  0  0  0  0  0  0  0999 V2000
   -1.9916   -1.4301   -2.9989 C   0  0  0  0  0  0  0  0  0  0  0  0
   -1.9916   -1.4301   -1.8034 C   0  0  0  0  0  0  0  0  0  0  0  0
   -1.9916   -1.4301   -0.3404 C   0  0  0  0  0  0  0  0  0  0  0  0
   -3.3056   -1.1545    0.2407 C   0  0  0  0  0  0  0  0  0  0  0  0
   -4.3794   -0.9293    0.7156 C   0  0  0  0  0  0  0  0  0  0  0  0
   -1.9916   -1.4301   -4.0624 H   0  0  0  0  0  0  0  0  0  0  0  0
   -1.1335   -0.5357    0.0906 H   0  0  0  0  0  0  0  0  0  0  0  0
   -1.6362   -2.4000    0.0188 H   0  0  0  0  0  0  0  0  0  0  0  0
   -5.3346   -0.7290    1.1381 H   0  0  0  0  0  0  0  0  0  0  0  0
   -1.0240    1.6840    0.6740 C   0  0  0  0  0  0  0  0  0  0  0  0
   -0.2751    0.3589    0.5218 C   0  0  0  0  0  3  0  0  0  0  0  0
   -0.5552   -0.5696    1.7047 C   0  0  0  0  0  0  0  0  0  0  0  0
    1.2102    0.5769    0.3229 C   0  0  0  0  0  0  0  0  0  0  0  0
    1.9862    1.1878    1.3055 C   0  0  0  0  0  0  0  0  0  0  0  0
    3.3444    1.3862    1.1217 C   0  0  0  0  0  0  0  0  0  0  0  0
    3.9572    0.9760   -0.0539 C   0  0  0  0  0  0  0  0  0  0  0  0
    3.1983    0.3673   -1.0397 C   0  0  0  0  0  0  0  0  0  0  0  0
    1.8377    0.1714   -0.8492 C   0  0  0  0  0  0  0  0  0  0  0  0
   -0.8433    2.3384   -0.1801 H   0  0  0  0  0  0  0  0  0  0  0  0
   -2.0992    1.5109    0.7533 H   0  0  0  0  0  0  0  0  0  0  0  0
   -0.7045    2.2132    1.5747 H   0  0  0  0  0  0  0  0  0  0  0  0
   -0.2189   -0.1215    2.6425 H   0  0  0  0  0  0  0  0  0  0  0  0
   -1.6257   -0.7655    1.7944 H   0  0  0  0  0  0  0  0  0  0  0  0
   -0.0399   -1.5239    1.5864 H   0  0  0  0  0  0  0  0  0  0  0  0
    1.5238    1.5144    2.2300 H   0  0  0  0  0  0  0  0  0  0  0  0
    3.9284    1.8633    1.8991 H   0  0  0  0  0  0  0  0  0  0  0  0
    5.0189    1.1307   -0.1986 H   0  0  0  0  0  0  0  0  0  0  0  0
    3.6646    0.0426   -1.9617 H   0  0  0  0  0  0  0  0  0  0  0  0
    1.2518   -0.3061   -1.6267 H   0  0  0  0  0  0  0  0  0  0  0  0
  1  2  3  0
  1  6  1  0
  2  3  1  0
  3  4  1  0
  3  7  1  0
  3  8  1  0
  4  5  3  0
  5  9  1  0
 10 11  1  0
 10 19  1  0
 10 20  1  0
 10 21  1  0
 11 12  1  0
 11 13  1  0
 12 22  1  0
 12 23  1  0
 12 24  1  0
 13 14  2  0
 13 18  1  0
 14 15  1  0
 14 25  1  0
 15 16  2  0
 15 26  1  0
 16 17  1  0
 16 27  1  0
 17 18  2  0
 17 28  1  0
 18 29  1  0
M  RAD  1  11   2
M  END
>  <reaction>  (12) 
rxn_1361

>  <mol_properties>  (12) 
{"1": {"label": "*0", "atom_type": "Ct"}, "2": {"label": "*1", "atom_type": "Cs"}, "6": {"label": "*2", "atom_type": "H0"}, "10": {"label": "*3", "atom_type": "Cs"}, "12": {"label": "*4", "atom_type": "Cd"}}

>  <type>  (12) 
unop_8

>  <geom_source>  (12) 
Heuristics

$$$$

     RDKit          3D

 29 28  0  0  0  0  0  0  0  0999 V2000
   -1.2489   -0.6165   -3.9497 C   0  0  0  0  0  0  0  0  0  0  0  0
   -1.2489   -0.6165   -2.7542 C   0  0  0  0  0  0  0  0  0  0  0  0
   -1.2489   -0.6165   -1.2912 C   0  0  0  0  0  0  0  0  0  0  0  0
   -2.5629   -0.3409   -0.7100 C   0  0  0  0  0  0  0  0  0  0  0  0
   -3.6366   -0.1157   -0.2351 C   0  0  0  0  0  0  0  0  0  0  0  0
   -1.2489   -0.6165   -5.0131 H   0  0  0  0  0  0  0  0  0  0  0  0
   -0.3907    0.2779   -0.8601 H   0  0  0  0  0  0  0  0  0  0  0  0
   -0.8935   -1.5863   -0.9320 H   0  0  0  0  0  0  0  0  0  0  0  0
   -4.5918    0.0847    0.1874 H   0  0  0  0  0  0  0  0  0  0  0  0
    1.5837    1.2830   -1.4692 C   0  0  0  0  0  0  0  0  0  0  0  0
    0.4676    1.1726   -0.4290 C   0  0  0  0  0  3  0  0  0  0  0  0
    0.0239    2.5560    0.0497 C   0  0  0  0  0  0  0  0  0  0  0  0
    0.8701    0.2838    0.7292 C   0  0  0  0  0  0  0  0  0  0  0  0
    1.9434    0.6162    1.5528 C   0  0  0  0  0  0  0  0  0  0  0  0
    2.3098   -0.1980    2.6114 C   0  0  0  0  0  0  0  0  0  0  0  0
    1.6072   -1.3666    2.8693 C   0  0  0  0  0  0  0  0  0  0  0  0
    0.5378   -1.7099    2.0588 C   0  0  0  0  0  0  0  0  0  0  0  0
    0.1758   -0.8896    0.9996 C   0  0  0  0  0  0  0  0  0  0  0  0
    1.8855    0.2980   -1.8284 H   0  0  0  0  0  0  0  0  0  0  0  0
    1.2539    1.8752   -2.3253 H   0  0  0  0  0  0  0  0  0  0  0  0
    2.4657    1.7702   -1.0472 H   0  0  0  0  0  0  0  0  0  0  0  0
    0.8497    3.0890    0.5265 H   0  0  0  0  0  0  0  0  0  0  0  0
   -0.3217    3.1610   -0.7911 H   0  0  0  0  0  0  0  0  0  0  0  0
   -0.7877    2.4797    0.7748 H   0  0  0  0  0  0  0  0  0  0  0  0
    2.5033    1.5254    1.3657 H   0  0  0  0  0  0  0  0  0  0  0  0
    3.1477    0.0800    3.2388 H   0  0  0  0  0  0  0  0  0  0  0  0
    1.8928   -2.0037    3.6966 H   0  0  0  0  0  0  0  0  0  0  0  0
   -0.0186   -2.6192    2.2496 H   0  0  0  0  0  0  0  0  0  0  0  0
   -0.6629   -1.1667    0.3706 H   0  0  0  0  0  0  0  0  0  0  0  0
  1  2  3  0
  1  6  1  0
  2  3  1  0
  3  4  1  0
  3  7  1  0
  3  8  1  0
  4  5  3  0
  5  9  1  0
 10 11  1  0
 10 19  1  0
 10 20  1  0
 10 21  1  0
 11 12  1  0
 11 13  1  0
 12 22  1  0
 12 23  1  0
 12 24  1  0
 13 14  2  0
 13 18  1  0
 14 15  1  0
 14 25  1  0
 15 16  2  0
 15 26  1  0
 16 17  1  0
 16 27  1  0
 17 18  2  0
 17 28  1  0
 18 29  1  0
M  RAD  1  11   2
M  END
>  <reaction>  (13) 
rxn_1361

>  <mol_properties>  (13) 
{"1": {"label": "*0", "atom_type": "Ct"}, "2": {"label": "*1", "atom_type": "Cs"}, "6": {"label": "*2", "atom_type": "H0"}, "10": {"label": "*3", "atom_type": "Cs"}, "12": {"label": "*4", "atom_type": "Cd"}}

>  <type>  (13) 
unop_9

>  <geom_source>  (13) 
Heuristics

$$$$

     RDKit          3D

 29 28  0  0  0  0  0  0  0  0999 V2000
   -1.9967   -1.2403   -3.2367 C   0  0  0  0  0  0  0  0  0  0  0  0
   -1.9967   -1.2403   -2.0412 C   0  0  0  0  0  0  0  0  0  0  0  0
   -1.9967   -1.2403   -0.5782 C   0  0  0  0  0  0  0  0  0  0  0  0
   -3.3107   -0.9647    0.0030 C   0  0  0  0  0  0  0  0  0  0  0  0
   -4.3845   -0.7395    0.4779 C   0  0  0  0  0  0  0  0  0  0  0  0
   -1.9967   -1.2403   -4.3002 H   0  0  0  0  0  0  0  0  0  0  0  0
   -1.1386   -0.3459   -0.1472 H   0  0  0  0  0  0  0  0  0  0  0  0
   -1.6413   -2.2101   -0.2190 H   0  0  0  0  0  0  0  0  0  0  0  0
   -5.3397   -0.5391    0.9003 H   0  0  0  0  0  0  0  0  0  0  0  0
   -0.7224    1.9114   -0.2523 C   0  0  0  0  0  0  0  0  0  0  0  0
   -0.2802    0.5488    0.2840 C   0  0  0  0  0  3  0  0  0  0  0  0
   -0.9953    0.2157    1.5946 C   0  0  0  0  0  0  0  0  0  0  0  0
    1.2246    0.4694    0.4335 C   0  0  0  0  0  0  0  0  0  0  0  0
    1.9068    1.3123    1.3082 C   0  0  0  0  0  0  0  0  0  0  0  0
    3.2831    1.2382    1.4434 C   0  0  0  0  0  0  0  0  0  0  0  0
    4.0086    0.3154    0.7033 C   0  0  0  0  0  0  0  0  0  0  0  0
    3.3439   -0.5291   -0.1703 C   0  0  0  0  0  0  0  0  0  0  0  0
    1.9647   -0.4497   -0.3011 C   0  0  0  0  0  0  0  0  0  0  0  0
   -0.2304    2.1403   -1.1987 H   0  0  0  0  0  0  0  0  0  0  0  0
   -1.8024    1.9291   -0.4129 H   0  0  0  0  0  0  0  0  0  0  0  0
   -0.4776    2.7084    0.4537 H   0  0  0  0  0  0  0  0  0  0  0  0
   -0.7602    0.9516    2.3670 H   0  0  0  0  0  0  0  0  0  0  0  0
   -2.0780    0.2163    1.4526 H   0  0  0  0  0  0  0  0  0  0  0  0
   -0.6979   -0.7659    1.9665 H   0  0  0  0  0  0  0  0  0  0  0  0
    1.3557    2.0391    1.8940 H   0  0  0  0  0  0  0  0  0  0  0  0
    3.7927    1.9034    2.1295 H   0  0  0  0  0  0  0  0  0  0  0  0
    5.0845    0.2566    0.8083 H   0  0  0  0  0  0  0  0  0  0  0  0
    3.8987   -1.2536   -0.7536 H   0  0  0  0  0  0  0  0  0  0  0  0
    1.4530   -1.1151   -0.9877 H   0  0  0  0  0  0  0  0  0  0  0  0
  1  2  3  0
  1  6  1  0
  2  3  1  0
  3  4  1  0
  3  7  1  0
  3  8  1  0
  4  5  3  0
  5  9  1  0
 10 11  1  0
 10 19  1  0
 10 20  1  0
 10 21  1  0
 11 12  1  0
 11 13  1  0
 12 22  1  0
 12 23  1  0
 12 24  1  0
 13 14  2  0
 13 18  1  0
 14 15  1  0
 14 25  1  0
 15 16  2  0
 15 26  1  0
 16 17  1  0
 16 27  1  0
 17 18  2  0
 17 28  1  0
 18 29  1  0
M  RAD  1  11   2
M  END
>  <reaction>  (14) 
rxn_1361

>  <mol_properties>  (14) 
{"1": {"label": "*0", "atom_type": "Ct"}, "2": {"label": "*1", "atom_type": "Cs"}, "6": {"label": "*2", "atom_type": "H0"}, "10": {"label": "*3", "atom_type": "Cs"}, "12": {"label": "*4", "atom_type": "Cd"}}

>  <type>  (14) 
unop_10

>  <geom_source>  (14) 
Heuristics

$$$$

     RDKit          3D

 29 28  0  0  0  0  0  0  0  0999 V2000
    0.0100   -1.9440   -3.2379 C   0  0  0  0  0  0  0  0  0  0  0  0
    0.0100   -1.9440   -2.0424 C   0  0  0  0  0  0  0  0  0  0  0  0
    0.0100   -1.9440   -0.5794 C   0  0  0  0  0  0  0  0  0  0  0  0
   -1.3041   -1.6684    0.0018 C   0  0  0  0  0  0  0  0  0  0  0  0
   -2.3778   -1.4431    0.4767 C   0  0  0  0  0  0  0  0  0  0  0  0
    0.0100   -1.9440   -4.3014 H   0  0  0  0  0  0  0  0  0  0  0  0
    0.8681   -1.0496   -0.1483 H   0  0  0  0  0  0  0  0  0  0  0  0
    0.3653   -2.9138   -0.2202 H   0  0  0  0  0  0  0  0  0  0  0  0
   -3.3330   -1.2428    0.8991 H   0  0  0  0  0  0  0  0  0  0  0  0
    2.2684   -0.6430    1.6275 C   0  0  0  0  0  0  0  0  0  0  0  0
    1.7265   -0.1549    0.2828 C   0  0  0  0  0  3  0  0  0  0  0  0
    2.8114    0.5686   -0.5169 C   0  0  0  0  0  0  0  0  0  0  0  0
    0.4936    0.7069    0.4575 C   0  0  0  0  0  0  0  0  0  0  0  0
    0.5506    1.9126    1.1532 C   0  0  0  0  0  0  0  0  0  0  0  0
   -0.5781    2.6993    1.3118 C   0  0  0  0  0  0  0  0  0  0  0  0
   -1.7923    2.2945    0.7756 C   0  0  0  0  0  0  0  0  0  0  0  0
   -1.8641    1.0981    0.0815 C   0  0  0  0  0  0  0  0  0  0  0  0
   -0.7294    0.3145   -0.0739 C   0  0  0  0  0  0  0  0  0  0  0  0
    1.5020   -1.1791    2.1892 H   0  0  0  0  0  0  0  0  0  0  0  0
    3.1180   -1.3127    1.4792 H   0  0  0  0  0  0  0  0  0  0  0  0
    2.6080    0.1952    2.2404 H   0  0  0  0  0  0  0  0  0  0  0  0
    3.1705    1.4503    0.0188 H   0  0  0  0  0  0  0  0  0  0  0  0
    3.6665   -0.0890   -0.6868 H   0  0  0  0  0  0  0  0  0  0  0  0
    2.4327    0.8972   -1.4858 H   0  0  0  0  0  0  0  0  0  0  0  0
    1.4910    2.2440    1.5785 H   0  0  0  0  0  0  0  0  0  0  0  0
   -0.5106    3.6330    1.8564 H   0  0  0  0  0  0  0  0  0  0  0  0
   -2.6751    2.9088    0.8991 H   0  0  0  0  0  0  0  0  0  0  0  0
   -2.8058    0.7711   -0.3417 H   0  0  0  0  0  0  0  0  0  0  0  0
   -0.7954   -0.6206   -0.6189 H   0  0  0  0  0  0  0  0  0  0  0  0
  1  2  3  0
  1  6  1  0
  2  3  1  0
  3  4  1  0
  3  7  1  0
  3  8  1  0
  4  5  3  0
  5  9  1  0
 10 11  1  0
 10 19  1  0
 10 20  1  0
 10 21  1  0
 11 12  1  0
 11 13  1  0
 12 22  1  0
 12 23  1  0
 12 24  1  0
 13 14  2  0
 13 18  1  0
 14 15  1  0
 14 25  1  0
 15 16  2  0
 15 26  1  0
 16 17  1  0
 16 27  1  0
 17 18  2  0
 17 28  1  0
 18 29  1  0
M  RAD  1  11   2
M  END
>  <reaction>  (15) 
rxn_1361

>  <mol_properties>  (15) 
{"1": {"label": "*0", "atom_type": "Ct"}, "2": {"label": "*1", "atom_type": "Cs"}, "6": {"label": "*2", "atom_type": "H0"}, "10": {"label": "*3", "atom_type": "Cs"}, "12": {"label": "*4", "atom_type": "Cd"}}

>  <type>  (15) 
unop_11

>  <geom_source>  (15) 
Heuristics

$$$$

     RDKit          3D

 29 28  0  0  0  0  0  0  0  0999 V2000
   -1.6928   -0.7566   -3.6969 C   0  0  0  0  0  0  0  0  0  0  0  0
   -1.6928   -0.7566   -2.5014 C   0  0  0  0  0  0  0  0  0  0  0  0
   -1.6928   -0.7566   -1.0384 C   0  0  0  0  0  0  0  0  0  0  0  0
   -3.0068   -0.4809   -0.4573 C   0  0  0  0  0  0  0  0  0  0  0  0
   -4.0806   -0.2557    0.0176 C   0  0  0  0  0  0  0  0  0  0  0  0
   -1.6928   -0.7566   -4.7604 H   0  0  0  0  0  0  0  0  0  0  0  0
   -0.8346    0.1378   -0.6074 H   0  0  0  0  0  0  0  0  0  0  0  0
   -1.3374   -1.7264   -0.6792 H   0  0  0  0  0  0  0  0  0  0  0  0
   -5.0358   -0.0554    0.4401 H   0  0  0  0  0  0  0  0  0  0  0  0
    0.6583    1.6938   -1.4010 C   0  0  0  0  0  0  0  0  0  0  0  0
    0.0237    1.0325   -0.1762 C   0  0  0  0  0  3  0  0  0  0  0  0
   -0.7510    2.0528    0.6597 C   0  0  0  0  0  0  0  0  0  0  0  0
    1.0522    0.2952    0.6555 C   0  0  0  0  0  0  0  0  0  0  0  0
    2.1089    0.9724    1.2602 C   0  0  0  0  0  0  0  0  0  0  0  0
    3.0484    0.2962    2.0205 C   0  0  0  0  0  0  0  0  0  0  0  0
    2.9499   -1.0772    2.1924 C   0  0  0  0  0  0  0  0  0  0  0  0
    1.9046   -1.7639    1.5973 C   0  0  0  0  0  0  0  0  0  0  0  0
    0.9666   -1.0803    0.8366 C   0  0  0  0  0  0  0  0  0  0  0  0
    1.1920    0.9631   -2.0103 H   0  0  0  0  0  0  0  0  0  0  0  0
   -0.1058    2.1668   -2.0214 H   0  0  0  0  0  0  0  0  0  0  0  0
    1.3711    2.4665   -1.1036 H   0  0  0  0  0  0  0  0  0  0  0  0
   -0.0888    2.8384    1.0311 H   0  0  0  0  0  0  0  0  0  0  0  0
   -1.5292    2.5294    0.0600 H   0  0  0  0  0  0  0  0  0  0  0  0
   -1.2231    1.5784    1.5212 H   0  0  0  0  0  0  0  0  0  0  0  0
    2.2010    2.0454    1.1363 H   0  0  0  0  0  0  0  0  0  0  0  0
    3.8617    0.8430    2.4815 H   0  0  0  0  0  0  0  0  0  0  0  0
    3.6838   -1.6067    2.7866 H   0  0  0  0  0  0  0  0  0  0  0  0
    1.8167   -2.8358    1.7238 H   0  0  0  0  0  0  0  0  0  0  0  0
    0.1517   -1.6264    0.3745 H   0  0  0  0  0  0  0  0  0  0  0  0
  1  2  3  0
  1  6  1  0
  2  3  1  0
  3  4  1  0
  3  7  1  0
  3  8  1  0
  4  5  3  0
  5  9  1  0
 10 11  1  0
 10 19  1  0
 10 20  1  0
 10 21  1  0
 11 12  1  0
 11 13  1  0
 12 22  1  0
 12 23  1  0
 12 24  1  0
 13 14  2  0
 13 18  1  0
 14 15  1  0
 14 25  1  0
 15 16  2  0
 15 26  1  0
 16 17  1  0
 16 27  1  0
 17 18  2  0
 17 28  1  0
 18 29  1  0
M  RAD  1  11   2
M  END
>  <reaction>  (16) 
rxn_1361

>  <mol_properties>  (16) 
{"1": {"label": "*0", "atom_type": "Ct"}, "2": {"label": "*1", "atom_type": "Cs"}, "6": {"label": "*2", "atom_type": "H0"}, "10": {"label": "*3", "atom_type": "Cs"}, "12": {"label": "*4", "atom_type": "Cd"}}

>  <type>  (16) 
unop_12

>  <geom_source>  (16) 
Heuristics

$$$$

     RDKit          3D

 29 28  0  0  0  0  0  0  0  0999 V2000
    0.0559   -0.8352   -0.4044 C   0  0  0  0  0  0  0  0  0  0  0  0
    0.1176   -0.7163   -1.9308 C   0  0  0  0  0  0  0  0  0  0  0  0
   -0.0101   -2.3019    0.0339 C   0  0  0  0  0  0  0  0  0  0  0  0
   -1.1060   -0.0422    0.1600 C   0  0  0  0  0  0  0  0  0  0  0  0
   -2.4366   -0.3568   -0.1803 C   0  0  0  0  0  0  0  0  0  0  0  0
   -0.8634    1.0280    1.0395 C   0  0  0  0  0  0  0  0  0  0  0  0
   -3.4966    0.3851    0.3495 C   0  0  0  0  0  0  0  0  0  0  0  0
   -3.2425    1.4456    1.2219 C   0  0  0  0  0  0  0  0  0  0  0  0
   -1.9275    1.7665    1.5664 C   0  0  0  0  0  0  0  0  0  0  0  0
    2.0353    0.6795    0.3939 C   0  0  0  0  0  3  0  0  0  0  0  0
    2.5557    1.5372   -0.6726 C   0  0  0  0  0  0  0  0  0  0  0  0
    3.0273   -0.3415    0.7364 C   0  0  0  0  0  0  0  0  0  0  0  0
    2.9825    2.2444   -1.5510 C   0  0  0  0  0  0  0  0  0  0  0  0
    3.8429   -1.1831    1.0196 C   0  0  0  0  0  0  0  0  0  0  0  0
    1.1866   -0.3497    0.0609 H   0  0  0  0  0  0  0  0  0  0  0  0
   -0.7712   -1.1823   -2.4066 H   0  0  0  0  0  0  0  0  0  0  0  0
    0.1661    0.3536   -2.2255 H   0  0  0  0  0  0  0  0  0  0  0  0
    1.0300   -1.2221   -2.3118 H   0  0  0  0  0  0  0  0  0  0  0  0
   -0.0528   -2.3643    1.1421 H   0  0  0  0  0  0  0  0  0  0  0  0
   -0.9022   -2.8088   -0.3913 H   0  0  0  0  0  0  0  0  0  0  0  0
    0.8997   -2.8391   -0.3083 H   0  0  0  0  0  0  0  0  0  0  0  0
   -2.6555   -1.1745   -0.8546 H   0  0  0  0  0  0  0  0  0  0  0  0
   -4.5160    0.1372    0.0832 H   0  0  0  0  0  0  0  0  0  0  0  0
    0.1477    1.2944    1.3202 H   0  0  0  0  0  0  0  0  0  0  0  0
   -4.0645    2.0188    1.6311 H   0  0  0  0  0  0  0  0  0  0  0  0
   -1.7320    2.5887    2.2427 H   0  0  0  0  0  0  0  0  0  0  0  0
    1.8136    1.2956    1.2896 H   0  0  0  0  0  0  0  0  0  0  0  0
    3.3572    2.8651   -2.3219 H   0  0  0  0  0  0  0  0  0  0  0  0
    4.5589   -1.9218    1.2682 H   0  0  0  0  0  0  0  0  0  0  0  0
  1  2  1  0
  1  3  1  0
  1  4  1  0
  1 15  1  0
  2 16  1  0
  2 17  1  0
  2 18  1  0
  3 19  1  0
  3 20  1  0
  3 21  1  0
  4  5  2  0
  4  6  1  0
  5  7  1  0
  5 22  1  0
  6  9  2  0
  6 24  1  0
  7  8  2  0
  7 23  1  0
  8  9  1  0
  8 25  1  0
  9 26  1  0
 10 11  1  0
 10 12  1  0
 10 27  1  0
 11 13  3  0
 12 14  3  0
 13 28  1  0
 14 29  1  0
M  RAD  1  10   2
M  END
>  <reaction>  (17) 
rxn_1361

>  <mol_properties>  (17) 
{"1": {"label": "*0", "atom_type": "Ct"}, "2": {"label": "*1", "atom_type": "Cs"}, "6": {"label": "*2", "atom_type": "H0"}, "10": {"label": "*3", "atom_type": "Cs"}, "12": {"label": "*4", "atom_type": "Cd"}}

>  <type>  (17) 
unop_13

>  <geom_source>  (17) 
AutoTST

$$$$

     RDKit          3D

 29 28  0  0  0  0  0  0  0  0999 V2000
   -1.9218   -1.0182   -3.4489 C   0  0  0  0  0  0  0  0  0  0  0  0
   -1.9218   -1.0182   -2.2534 C   0  0  0  0  0  0  0  0  0  0  0  0
   -1.9218   -1.0182   -0.7904 C   0  0  0  0  0  0  0  0  0  0  0  0
   -3.2359   -0.7426   -0.2093 C   0  0  0  0  0  0  0  0  0  0  0  0
   -4.3096   -0.5174    0.2656 C   0  0  0  0  0  0  0  0  0  0  0  0
   -1.9218   -1.0182   -4.5124 H   0  0  0  0  0  0  0  0  0  0  0  0
   -1.0637   -0.1238   -0.3594 H   0  0  0  0  0  0  0  0  0  0  0  0
   -1.5665   -1.9881   -0.4313 H   0  0  0  0  0  0  0  0  0  0  0  0
   -5.2648   -0.3171    0.6881 H   0  0  0  0  0  0  0  0  0  0  0  0
   -0.1412    1.8905   -0.9685 C   0  0  0  0  0  0  0  0  0  0  0  0
   -0.2053    0.7708    0.0718 C   0  0  0  0  0  3  0  0  0  0  0  0
   -1.1138    1.1576    1.2401 C   0  0  0  0  0  0  0  0  0  0  0  0
    1.1757    0.3710    0.5473 C   0  0  0  0  0  0  0  0  0  0  0  0
    1.9992    1.2778    1.2109 C   0  0  0  0  0  0  0  0  0  0  0  0
    3.2619    0.9102    1.6450 C   0  0  0  0  0  0  0  0  0  0  0  0
    3.7289   -0.3776    1.4233 C   0  0  0  0  0  0  0  0  0  0  0  0
    2.9213   -1.2899    0.7649 C   0  0  0  0  0  0  0  0  0  0  0  0
    1.6570   -0.9151    0.3324 C   0  0  0  0  0  0  0  0  0  0  0  0
    0.4883    1.6070   -1.8133 H   0  0  0  0  0  0  0  0  0  0  0  0
   -1.1394    2.1223   -1.3457 H   0  0  0  0  0  0  0  0  0  0  0  0
    0.2716    2.8045   -0.5352 H   0  0  0  0  0  0  0  0  0  0  0  0
   -0.7360    2.0452    1.7528 H   0  0  0  0  0  0  0  0  0  0  0  0
   -2.1218    1.3820    0.8851 H   0  0  0  0  0  0  0  0  0  0  0  0
   -1.1787    0.3510    1.9717 H   0  0  0  0  0  0  0  0  0  0  0  0
    1.6503    2.2880    1.3924 H   0  0  0  0  0  0  0  0  0  0  0  0
    3.8852    1.6316    2.1588 H   0  0  0  0  0  0  0  0  0  0  0  0
    4.7159   -0.6660    1.7622 H   0  0  0  0  0  0  0  0  0  0  0  0
    3.2741   -2.2980    0.5857 H   0  0  0  0  0  0  0  0  0  0  0  0
    1.0318   -1.6363   -0.1822 H   0  0  0  0  0  0  0  0  0  0  0  0
  1  2  3  0
  1  6  1  0
  2  3  1  0
  3  4  1  0
  3  7  1  0
  3  8  1  0
  4  5  3  0
  5  9  1  0
 10 11  1  0
 10 19  1  0
 10 20  1  0
 10 21  1  0
 11 12  1  0
 11 13  1  0
 12 22  1  0
 12 23  1  0
 12 24  1  0
 13 14  2  0
 13 18  1  0
 14 15  1  0
 14 25  1  0
 15 16  2  0
 15 26  1  0
 16 17  1  0
 16 27  1  0
 17 18  2  0
 17 28  1  0
 18 29  1  0
M  RAD  1  11   2
M  END
>  <reaction>  (18) 
rxn_1361

>  <mol_properties>  (18) 
{"1": {"label": "*0", "atom_type": "Ct"}, "2": {"label": "*1", "atom_type": "Cs"}, "6": {"label": "*2", "atom_type": "H0"}, "10": {"label": "*3", "atom_type": "Cs"}, "12": {"label": "*4", "atom_type": "Cd"}}

>  <type>  (18) 
unop_14

>  <geom_source>  (18) 
gaussian_log

$$$$
