
     RDKit          3D

 12 11  0  0  0  0  0  0  0  0999 V2000
    1.9877    0.1011    0.4814 C   0  0  0  0  0  0  0  0  0  0  0  0
    0.8179    0.5502    0.0525 C   0  0  0  0  0  0  0  0  0  0  0  0
   -0.2939   -0.2692   -0.5320 C   0  0  0  0  0  0  0  0  0  0  0  0
   -0.0292   -1.7631   -0.6328 C   0  0  0  0  0  0  0  0  0  0  0  0
    2.2522   -0.9490    0.4436 H   0  0  0  0  0  0  0  0  0  0  0  0
    2.7295    0.7757    0.8896 H   0  0  0  0  0  0  0  0  0  0  0  0
    0.6162    1.6164    0.1190 H   0  0  0  0  0  0  0  0  0  0  0  0
   -0.5268    0.1319   -1.5245 H   0  0  0  0  0  0  0  0  0  0  0  0
   -1.1959   -0.0938    0.0644 H   0  0  0  0  0  0  0  0  0  0  0  0
    0.1590   -2.1992    0.3502 H   0  0  0  0  0  0  0  0  0  0  0  0
    0.8382   -1.9701   -1.2626 H   0  0  0  0  0  0  0  0  0  0  0  0
   -0.8879   -2.2759   -1.0672 H   0  0  0  0  0  0  0  0  0  0  0  0
  1  2  2  3
  1  5  1  0
  1  6  1  0
  2  3  1  0
  2  7  1  0
  3  4  1  0
  3  8  1  0
  3  9  1  0
  4 10  1  0
  4 11  1  0
  4 12  1  0
M  END
>  <reaction>  (1) 
rxn_1078

>  <mol_properties>  (1) 
{"2": {"label": "donator", "atom_type": "Cs"}, "7": {"label": "d_hydrogen", "atom_type": "H0"}}

>  <type>  (1) 
r1h

$$$$

     RDKit          3D

  4  3  0  0  0  0  0  0  0  0999 V2000
   -0.7528   -0.8706   -0.3839 S   0  0  0  0  0  0  0  0  0  0  0  0
    0.7502   -0.2564   -0.0649 C   0  0  0  0  0  3  0  0  0  0  0  0
    1.5655    0.9691    0.4633 S   0  0  0  0  0  0  0  0  0  0  0  0
   -1.5629    0.1579   -0.0146 H   0  0  0  0  0  0  0  0  0  0  0  0
  1  2  1  0
  1  4  1  0
  2  3  2  0
M  RAD  1   2   2
M  END
>  <reaction>  (2) 
rxn_1078

>  <mol_properties>  (2) 
{"1": {"label": "acceptor", "atom_type": "CS"}}

>  <type>  (2) 
r2

$$$$

     RDKit          3D

  5  4  0  0  0  0  0  0  0  0999 V2000
    1.2280   -0.4626    0.1225 S   0  0  0  0  0  0  0  0  0  0  0  0
   -0.4732   -0.2566   -0.0746 C   0  0  0  0  0  0  0  0  0  0  0  0
   -1.3314    1.1074   -0.0947 S   0  0  0  0  0  0  0  0  0  0  0  0
    1.5289    0.8405    0.2416 H   0  0  0  0  0  0  0  0  0  0  0  0
   -0.9523   -1.2286   -0.1949 H   0  0  0  0  0  0  0  0  0  0  0  0
  1  2  1  0
  1  4  1  0
  2  3  2  0
  2  5  1  0
M  END
>  <reaction>  (3) 
rxn_1078

>  <mol_properties>  (3) 
{"1": {"label": "acceptor", "atom_type": "CS"}, "4": {"label": "a_hydrogen", "atom_type": "H0"}}

>  <type>  (3) 
r2h

$$$$

     RDKit          3D

 16 14  0  0  0  0  0  0  0  0999 V2000
    0.6676    1.0140    1.9544 S   0  0  0  0  0  0  0  0  0  0  0  0
    0.7399    0.1127    0.5143 C   0  0  0  0  0  3  0  0  0  0  0  0
    1.8931   -0.6878   -0.2329 S   0  0  0  0  0  0  0  0  0  0  0  0
    1.9465    0.8864    2.3630 H   0  0  0  0  0  0  0  0  0  0  0  0
   -1.2935   -1.4503   -2.6285 C   0  0  0  0  0  0  0  0  0  0  0  0
   -1.7200   -1.0743   -1.4191 C   0  0  0  0  0  0  0  0  0  0  0  0
   -1.5994    0.2599   -0.8476 C   0  0  0  0  0  0  0  0  0  0  0  0
   -1.2625    1.4206   -1.7499 C   0  0  0  0  0  0  0  0  0  0  0  0
   -0.8467   -0.7508   -3.3242 H   0  0  0  0  0  0  0  0  0  0  0  0
   -1.3865   -2.4766   -2.9582 H   0  0  0  0  0  0  0  0  0  0  0  0
   -2.1538   -1.8291   -0.7694 H   0  0  0  0  0  0  0  0  0  0  0  0
   -0.5244    0.1563   -0.0907 H   0  0  0  0  0  0  0  0  0  0  0  0
   -2.3633    0.4825   -0.1027 H   0  0  0  0  0  0  0  0  0  0  0  0
   -2.0360    1.5700   -2.5084 H   0  0  0  0  0  0  0  0  0  0  0  0
   -0.3159    1.2549   -2.2688 H   0  0  0  0  0  0  0  0  0  0  0  0
   -1.1688    2.3429   -1.1756 H   0  0  0  0  0  0  0  0  0  0  0  0
  1  2  1  0
  1  4  1  0
  2  3  2  0
  5  6  2  3
  5  9  1  0
  5 10  1  0
  6  7  1  0
  6 11  1  0
  7  8  1  0
  7 12  1  0
  7 13  1  0
  8 14  1  0
  8 15  1  0
  8 16  1  0
M  RAD  1   2   2
M  END
>  <reaction>  (4) 
rxn_1078

>  <mol_properties>  (4) 
{"0": {"label": "*4", "atom_type": "S2s"}, "1": {"label": "*3", "atom_type": "CS"}, "5": {"label": "*0", "atom_type": "Cd"}, "6": {"label": "*1", "atom_type": "Cs"}, "11": {"label": "*2", "atom_type": "H0"}}

>  <type>  (4) 
ts

$$$$

     RDKit          3D

 16 14  0  0  0  0  0  0  0  0999 V2000
    1.7397    1.2284    0.5471 S   0  0  0  0  0  0  0  0  0  0  0  0
    0.7121   -0.1360    0.7869 C   0  0  0  0  0  0  0  0  0  0  0  0
    0.3238   -0.8807    2.1625 S   0  0  0  0  0  0  0  0  0  0  0  0
    2.0598    1.4099    1.8384 H   0  0  0  0  0  0  0  0  0  0  0  0
   -1.3694   -1.1778   -3.0186 C   0  0  0  0  0  0  0  0  0  0  0  0
   -1.3694   -1.1778   -1.6943 C   0  0  0  0  0  0  0  0  0  0  0  0
   -1.3694    0.0267   -0.8008 C   0  0  0  0  0  3  0  0  0  0  0  0
   -1.3694    1.3725   -1.5085 C   0  0  0  0  0  0  0  0  0  0  0  0
   -1.3694   -0.2609   -3.5960 H   0  0  0  0  0  0  0  0  0  0  0  0
   -1.3694   -2.1051   -3.5773 H   0  0  0  0  0  0  0  0  0  0  0  0
   -1.3694   -2.1335   -1.1761 H   0  0  0  0  0  0  0  0  0  0  0  0
   -0.3262   -0.0549   -0.0050 H   0  0  0  0  0  0  0  0  0  0  0  0
   -2.2388   -0.0413   -0.1377 H   0  0  0  0  0  0  0  0  0  0  0  0
   -2.2519    1.4875   -2.1409 H   0  0  0  0  0  0  0  0  0  0  0  0
   -0.4870    1.4875   -2.1409 H   0  0  0  0  0  0  0  0  0  0  0  0
   -1.3694    2.1868   -0.7832 H   0  0  0  0  0  0  0  0  0  0  0  0
  1  2  1  0
  1  4  1  0
  2  3  2  0
  2 12  1  0
  5  6  2  3
  5  9  1  0
  5 10  1  0
  6  7  1  0
  6 11  1  0
  7  8  1  0
  7 13  1  0
  8 14  1  0
  8 15  1  0
  8 16  1  0
M  RAD  1   7   2
M  END
>  <reaction>  (5) 
rxn_1078

>  <mol_properties>  (5) 
{"0": {"label": "*4", "atom_type": "S2s"}, "1": {"label": "*3", "atom_type": "CS"}, "5": {"label": "*0", "atom_type": "Cd"}, "6": {"label": "*1", "atom_type": "Cs"}, "11": {"label": "*2", "atom_type": "H0"}}

>  <type>  (5) 
unop_1

>  <geom_source>  (5) 
Heuristics

$$$$

     RDKit          3D

 16 14  0  0  0  0  0  0  0  0999 V2000
    1.8100   -0.8495    0.1570 S   0  0  0  0  0  0  0  0  0  0  0  0
    0.5342   -0.0009    0.9491 C   0  0  0  0  0  0  0  0  0  0  0  0
    0.6091    0.9674    2.2352 S   0  0  0  0  0  0  0  0  0  0  0  0
    2.7995   -0.4253    0.9593 H   0  0  0  0  0  0  0  0  0  0  0  0
   -1.5474   -1.0427   -2.8565 C   0  0  0  0  0  0  0  0  0  0  0  0
   -1.5474   -1.0427   -1.5321 C   0  0  0  0  0  0  0  0  0  0  0  0
   -1.5474    0.1618   -0.6387 C   0  0  0  0  0  3  0  0  0  0  0  0
   -1.5474    1.5076   -1.3464 C   0  0  0  0  0  0  0  0  0  0  0  0
   -1.5474   -0.1257   -3.4339 H   0  0  0  0  0  0  0  0  0  0  0  0
   -1.5474   -1.9700   -3.4151 H   0  0  0  0  0  0  0  0  0  0  0  0
   -1.5474   -1.9984   -1.0139 H   0  0  0  0  0  0  0  0  0  0  0  0
   -0.5041    0.0803    0.1571 H   0  0  0  0  0  0  0  0  0  0  0  0
   -2.4168    0.0939    0.0245 H   0  0  0  0  0  0  0  0  0  0  0  0
   -2.4298    1.6226   -1.9788 H   0  0  0  0  0  0  0  0  0  0  0  0
   -0.6649    1.6226   -1.9788 H   0  0  0  0  0  0  0  0  0  0  0  0
   -1.5474    2.3220   -0.6211 H   0  0  0  0  0  0  0  0  0  0  0  0
  1  2  1  0
  1  4  1  0
  2  3  2  0
  2 12  1  0
  5  6  2  3
  5  9  1  0
  5 10  1  0
  6  7  1  0
  6 11  1  0
  7  8  1  0
  7 13  1  0
  8 14  1  0
  8 15  1  0
  8 16  1  0
M  RAD  1   7   2
M  END
>  <reaction>  (6) 
rxn_1078

>  <mol_properties>  (6) 
{"0": {"label": "*4", "atom_type": "S2s"}, "1": {"label": "*3", "atom_type": "CS"}, "5": {"label": "*0", "atom_type": "Cd"}, "6": {"label": "*1", "atom_type": "Cs"}, "11": {"label": "*2", "atom_type": "H0"}}

>  <type>  (6) 
unop_2

>  <geom_source>  (6) 
Heuristics

$$$$

     RDKit          3D

 16 14  0  0  0  0  0  0  0  0999 V2000
    1.2523    1.5461    1.1667 S   0  0  0  0  0  0  0  0  0  0  0  0
    0.7056   -0.0368    0.7535 C   0  0  0  0  0  0  0  0  0  0  0  0
    0.8339   -1.4037    1.5977 S   0  0  0  0  0  0  0  0  0  0  0  0
    1.7785    1.2219    2.3586 H   0  0  0  0  0  0  0  0  0  0  0  0
   -1.3759   -1.0786   -3.0520 C   0  0  0  0  0  0  0  0  0  0  0  0
   -1.3759   -1.0786   -1.7276 C   0  0  0  0  0  0  0  0  0  0  0  0
   -1.3759    0.1259   -0.8342 C   0  0  0  0  0  3  0  0  0  0  0  0
   -1.3759    1.4717   -1.5419 C   0  0  0  0  0  0  0  0  0  0  0  0
   -1.3759   -0.1617   -3.6294 H   0  0  0  0  0  0  0  0  0  0  0  0
   -1.3759   -2.0059   -3.6107 H   0  0  0  0  0  0  0  0  0  0  0  0
   -1.3759   -2.0343   -1.2095 H   0  0  0  0  0  0  0  0  0  0  0  0
   -0.3326    0.0444   -0.0384 H   0  0  0  0  0  0  0  0  0  0  0  0
   -2.2453    0.0580   -0.1711 H   0  0  0  0  0  0  0  0  0  0  0  0
   -2.2584    1.5867   -2.1743 H   0  0  0  0  0  0  0  0  0  0  0  0
   -0.4935    1.5867   -2.1743 H   0  0  0  0  0  0  0  0  0  0  0  0
   -1.3759    2.2861   -0.8166 H   0  0  0  0  0  0  0  0  0  0  0  0
  1  2  1  0
  1  4  1  0
  2  3  2  0
  2 12  1  0
  5  6  2  3
  5  9  1  0
  5 10  1  0
  6  7  1  0
  6 11  1  0
  7  8  1  0
  7 13  1  0
  8 14  1  0
  8 15  1  0
  8 16  1  0
M  RAD  1   7   2
M  END
>  <reaction>  (7) 
rxn_1078

>  <mol_properties>  (7) 
{"0": {"label": "*4", "atom_type": "S2s"}, "1": {"label": "*3", "atom_type": "CS"}, "5": {"label": "*0", "atom_type": "Cd"}, "6": {"label": "*1", "atom_type": "Cs"}, "11": {"label": "*2", "atom_type": "H0"}}

>  <type>  (7) 
unop_3

>  <geom_source>  (7) 
Heuristics

$$$$

     RDKit          3D

 16 14  0  0  0  0  0  0  0  0999 V2000
    0.6414   -1.4021    1.6807 S   0  0  0  0  0  0  0  0  0  0  0  0
    0.7394    0.0351    0.7319 C   0  0  0  0  0  0  0  0  0  0  0  0
    1.3892    1.4589    1.1167 S   0  0  0  0  0  0  0  0  0  0  0  0
    1.2622   -0.9135    2.7663 H   0  0  0  0  0  0  0  0  0  0  0  0
   -1.3421   -1.0067   -3.0736 C   0  0  0  0  0  0  0  0  0  0  0  0
   -1.3421   -1.0067   -1.7492 C   0  0  0  0  0  0  0  0  0  0  0  0
   -1.3421    0.1978   -0.8558 C   0  0  0  0  0  3  0  0  0  0  0  0
   -1.3421    1.5436   -1.5635 C   0  0  0  0  0  0  0  0  0  0  0  0
   -1.3421   -0.0898   -3.6510 H   0  0  0  0  0  0  0  0  0  0  0  0
   -1.3421   -1.9340   -3.6323 H   0  0  0  0  0  0  0  0  0  0  0  0
   -1.3421   -1.9624   -1.2311 H   0  0  0  0  0  0  0  0  0  0  0  0
   -0.2989    0.1162   -0.0600 H   0  0  0  0  0  0  0  0  0  0  0  0
   -2.2115    0.1298   -0.1926 H   0  0  0  0  0  0  0  0  0  0  0  0
   -2.2246    1.6586   -2.1959 H   0  0  0  0  0  0  0  0  0  0  0  0
   -0.4597    1.6586   -2.1959 H   0  0  0  0  0  0  0  0  0  0  0  0
   -1.3421    2.3579   -0.8382 H   0  0  0  0  0  0  0  0  0  0  0  0
  1  2  1  0
  1  4  1  0
  2  3  2  0
  2 12  1  0
  5  6  2  3
  5  9  1  0
  5 10  1  0
  6  7  1  0
  6 11  1  0
  7  8  1  0
  7 13  1  0
  8 14  1  0
  8 15  1  0
  8 16  1  0
M  RAD  1   7   2
M  END
>  <reaction>  (8) 
rxn_1078

>  <mol_properties>  (8) 
{"0": {"label": "*4", "atom_type": "S2s"}, "1": {"label": "*3", "atom_type": "CS"}, "5": {"label": "*0", "atom_type": "Cd"}, "6": {"label": "*1", "atom_type": "Cs"}, "11": {"label": "*2", "atom_type": "H0"}}

>  <type>  (8) 
unop_4

>  <geom_source>  (8) 
Heuristics

$$$$

     RDKit          3D

 16 14  0  0  0  0  0  0  0  0999 V2000
    0.6550    1.3547    1.8731 S   0  0  0  0  0  0  0  0  0  0  0  0
    0.6112   -0.0128    0.8227 C   0  0  0  0  0  0  0  0  0  0  0  0
    1.6326   -1.2567    0.7384 S   0  0  0  0  0  0  0  0  0  0  0  0
    1.7720    1.0077    2.5324 H   0  0  0  0  0  0  0  0  0  0  0  0
   -1.4704   -1.0546   -2.9828 C   0  0  0  0  0  0  0  0  0  0  0  0
   -1.4704   -1.0546   -1.6584 C   0  0  0  0  0  0  0  0  0  0  0  0
   -1.4704    0.1499   -0.7650 C   0  0  0  0  0  3  0  0  0  0  0  0
   -1.4704    1.4957   -1.4727 C   0  0  0  0  0  0  0  0  0  0  0  0
   -1.4704   -0.1376   -3.5602 H   0  0  0  0  0  0  0  0  0  0  0  0
   -1.4704   -1.9819   -3.5414 H   0  0  0  0  0  0  0  0  0  0  0  0
   -1.4704   -2.0103   -1.1402 H   0  0  0  0  0  0  0  0  0  0  0  0
   -0.4271    0.0684    0.0308 H   0  0  0  0  0  0  0  0  0  0  0  0
   -2.3398    0.0820   -0.1018 H   0  0  0  0  0  0  0  0  0  0  0  0
   -2.3528    1.6107   -2.1051 H   0  0  0  0  0  0  0  0  0  0  0  0
   -0.5879    1.6107   -2.1051 H   0  0  0  0  0  0  0  0  0  0  0  0
   -1.4704    2.3101   -0.7474 H   0  0  0  0  0  0  0  0  0  0  0  0
  1  2  1  0
  1  4  1  0
  2  3  2  0
  2 12  1  0
  5  6  2  3
  5  9  1  0
  5 10  1  0
  6  7  1  0
  6 11  1  0
  7  8  1  0
  7 13  1  0
  8 14  1  0
  8 15  1  0
  8 16  1  0
M  RAD  1   7   2
M  END
>  <reaction>  (9) 
rxn_1078

>  <mol_properties>  (9) 
{"0": {"label": "*4", "atom_type": "S2s"}, "1": {"label": "*3", "atom_type": "CS"}, "5": {"label": "*0", "atom_type": "Cd"}, "6": {"label": "*1", "atom_type": "Cs"}, "11": {"label": "*2", "atom_type": "H0"}}

>  <type>  (9) 
unop_5

>  <geom_source>  (9) 
Heuristics

$$$$

     RDKit          3D

 16 14  0  0  0  0  0  0  0  0999 V2000
    0.3192   -0.9247    2.1881 S   0  0  0  0  0  0  0  0  0  0  0  0
    0.7473   -0.0814    0.7457 C   0  0  0  0  0  0  0  0  0  0  0  0
    1.7019    1.2055    0.5717 S   0  0  0  0  0  0  0  0  0  0  0  0
    1.0286   -0.1582    3.0319 H   0  0  0  0  0  0  0  0  0  0  0  0
   -1.3342   -1.1231   -3.0599 C   0  0  0  0  0  0  0  0  0  0  0  0
   -1.3342   -1.1231   -1.7355 C   0  0  0  0  0  0  0  0  0  0  0  0
   -1.3342    0.0814   -0.8421 C   0  0  0  0  0  3  0  0  0  0  0  0
   -1.3342    1.4271   -1.5498 C   0  0  0  0  0  0  0  0  0  0  0  0
   -1.3342   -0.2062   -3.6373 H   0  0  0  0  0  0  0  0  0  0  0  0
   -1.3342   -2.0505   -3.6185 H   0  0  0  0  0  0  0  0  0  0  0  0
   -1.3342   -2.0788   -1.2173 H   0  0  0  0  0  0  0  0  0  0  0  0
   -0.2909   -0.0002   -0.0463 H   0  0  0  0  0  0  0  0  0  0  0  0
   -2.2036    0.0134   -0.1789 H   0  0  0  0  0  0  0  0  0  0  0  0
   -2.2167    1.5422   -2.1822 H   0  0  0  0  0  0  0  0  0  0  0  0
   -0.4518    1.5422   -2.1822 H   0  0  0  0  0  0  0  0  0  0  0  0
   -1.3342    2.2415   -0.8245 H   0  0  0  0  0  0  0  0  0  0  0  0
  1  2  1  0
  1  4  1  0
  2  3  2  0
  2 12  1  0
  5  6  2  3
  5  9  1  0
  5 10  1  0
  6  7  1  0
  6 11  1  0
  7  8  1  0
  7 13  1  0
  8 14  1  0
  8 15  1  0
  8 16  1  0
M  RAD  1   7   2
M  END
>  <reaction>  (10) 
rxn_1078

>  <mol_properties>  (10) 
{"0": {"label": "*4", "atom_type": "S2s"}, "1": {"label": "*3", "atom_type": "CS"}, "5": {"label": "*0", "atom_type": "Cd"}, "6": {"label": "*1", "atom_type": "Cs"}, "11": {"label": "*2", "atom_type": "H0"}}

>  <type>  (10) 
unop_6

>  <geom_source>  (10) 
Heuristics

$$$$

     RDKit          3D

 16 14  0  0  0  0  0  0  0  0999 V2000
    0.1730   -0.1875    2.4561 S   0  0  0  0  0  0  0  0  0  0  0  0
    0.6920   -0.1542    0.8114 C   0  0  0  0  0  0  0  0  0  0  0  0
    1.9620    0.5999    0.1665 S   0  0  0  0  0  0  0  0  0  0  0  0
    1.1529    0.5903    2.9434 H   0  0  0  0  0  0  0  0  0  0  0  0
   -1.3896   -1.1960   -2.9941 C   0  0  0  0  0  0  0  0  0  0  0  0
   -1.3896   -1.1960   -1.6697 C   0  0  0  0  0  0  0  0  0  0  0  0
   -1.3896    0.0085   -0.7763 C   0  0  0  0  0  3  0  0  0  0  0  0
   -1.3896    1.3543   -1.4840 C   0  0  0  0  0  0  0  0  0  0  0  0
   -1.3896   -0.2791   -3.5715 H   0  0  0  0  0  0  0  0  0  0  0  0
   -1.3896   -2.1233   -3.5528 H   0  0  0  0  0  0  0  0  0  0  0  0
   -1.3896   -2.1517   -1.1515 H   0  0  0  0  0  0  0  0  0  0  0  0
   -0.3463   -0.0731    0.0195 H   0  0  0  0  0  0  0  0  0  0  0  0
   -2.2589   -0.0595   -0.1131 H   0  0  0  0  0  0  0  0  0  0  0  0
   -2.2720    1.4693   -2.1164 H   0  0  0  0  0  0  0  0  0  0  0  0
   -0.5071    1.4693   -2.1164 H   0  0  0  0  0  0  0  0  0  0  0  0
   -1.3896    2.1686   -0.7587 H   0  0  0  0  0  0  0  0  0  0  0  0
  1  2  1  0
  1  4  1  0
  2  3  2  0
  2 12  1  0
  5  6  2  3
  5  9  1  0
  5 10  1  0
  6  7  1  0
  6 11  1  0
  7  8  1  0
  7 13  1  0
  8 14  1  0
  8 15  1  0
  8 16  1  0
M  RAD  1   7   2
M  END
>  <reaction>  (11) 
rxn_1078

>  <mol_properties>  (11) 
{"0": {"label": "*4", "atom_type": "S2s"}, "1": {"label": "*3", "atom_type": "CS"}, "5": {"label": "*0", "atom_type": "Cd"}, "6": {"label": "*1", "atom_type": "Cs"}, "11": {"label": "*2", "atom_type": "H0"}}

>  <type>  (11) 
unop_7

>  <geom_source>  (11) 
Heuristics

$$$$

     RDKit          3D

 16 14  0  0  0  0  0  0  0  0999 V2000
    2.0032    0.5972    0.1363 S   0  0  0  0  0  0  0  0  0  0  0  0
    0.6455   -0.1734    0.8698 C   0  0  0  0  0  0  0  0  0  0  0  0
    0.1888   -0.1620    2.4153 S   0  0  0  0  0  0  0  0  0  0  0  0
    2.4860    1.1589    1.2562 H   0  0  0  0  0  0  0  0  0  0  0  0
   -1.4361   -1.2152   -2.9358 C   0  0  0  0  0  0  0  0  0  0  0  0
   -1.4361   -1.2152   -1.6114 C   0  0  0  0  0  0  0  0  0  0  0  0
   -1.4361   -0.0107   -0.7180 C   0  0  0  0  0  3  0  0  0  0  0  0
   -1.4361    1.3351   -1.4257 C   0  0  0  0  0  0  0  0  0  0  0  0
   -1.4361   -0.2983   -3.5132 H   0  0  0  0  0  0  0  0  0  0  0  0
   -1.4361   -2.1425   -3.4944 H   0  0  0  0  0  0  0  0  0  0  0  0
   -1.4361   -2.1709   -1.0932 H   0  0  0  0  0  0  0  0  0  0  0  0
   -0.3928   -0.0922    0.0778 H   0  0  0  0  0  0  0  0  0  0  0  0
   -2.3055   -0.0786   -0.0548 H   0  0  0  0  0  0  0  0  0  0  0  0
   -2.3185    1.4501   -2.0581 H   0  0  0  0  0  0  0  0  0  0  0  0
   -0.5536    1.4501   -2.0581 H   0  0  0  0  0  0  0  0  0  0  0  0
   -1.4361    2.1494   -0.7004 H   0  0  0  0  0  0  0  0  0  0  0  0
  1  2  1  0
  1  4  1  0
  2  3  2  0
  2 12  1  0
  5  6  2  3
  5  9  1  0
  5 10  1  0
  6  7  1  0
  6 11  1  0
  7  8  1  0
  7 13  1  0
  8 14  1  0
  8 15  1  0
  8 16  1  0
M  RAD  1   7   2
M  END
>  <reaction>  (12) 
rxn_1078

>  <mol_properties>  (12) 
{"0": {"label": "*4", "atom_type": "S2s"}, "1": {"label": "*3", "atom_type": "CS"}, "5": {"label": "*0", "atom_type": "Cd"}, "6": {"label": "*1", "atom_type": "Cs"}, "11": {"label": "*2", "atom_type": "H0"}}

>  <type>  (12) 
unop_8

>  <geom_source>  (12) 
Heuristics

$$$$

     RDKit          3D

 16 14  0  0  0  0  0  0  0  0999 V2000
    1.0504   -1.5360    1.0824 S   0  0  0  0  0  0  0  0  0  0  0  0
    0.6675    0.1196    0.7866 C   0  0  0  0  0  0  0  0  0  0  0  0
    1.1162    1.4258    1.6173 S   0  0  0  0  0  0  0  0  0  0  0  0
    1.8005   -1.3282    2.1765 H   0  0  0  0  0  0  0  0  0  0  0  0
   -1.4140   -0.9221   -3.0190 C   0  0  0  0  0  0  0  0  0  0  0  0
   -1.4140   -0.9221   -1.6946 C   0  0  0  0  0  0  0  0  0  0  0  0
   -1.4140    0.2824   -0.8012 C   0  0  0  0  0  3  0  0  0  0  0  0
   -1.4140    1.6281   -1.5089 C   0  0  0  0  0  0  0  0  0  0  0  0
   -1.4140   -0.0052   -3.5964 H   0  0  0  0  0  0  0  0  0  0  0  0
   -1.4140   -1.8495   -3.5776 H   0  0  0  0  0  0  0  0  0  0  0  0
   -1.4140   -1.8778   -1.1764 H   0  0  0  0  0  0  0  0  0  0  0  0
   -0.3707    0.2008   -0.0054 H   0  0  0  0  0  0  0  0  0  0  0  0
   -2.2834    0.2144   -0.1380 H   0  0  0  0  0  0  0  0  0  0  0  0
   -2.2965    1.7432   -2.1413 H   0  0  0  0  0  0  0  0  0  0  0  0
   -0.5316    1.7432   -2.1413 H   0  0  0  0  0  0  0  0  0  0  0  0
   -1.4140    2.4425   -0.7836 H   0  0  0  0  0  0  0  0  0  0  0  0
  1  2  1  0
  1  4  1  0
  2  3  2  0
  2 12  1  0
  5  6  2  3
  5  9  1  0
  5 10  1  0
  6  7  1  0
  6 11  1  0
  7  8  1  0
  7 13  1  0
  8 14  1  0
  8 15  1  0
  8 16  1  0
M  RAD  1   7   2
M  END
>  <reaction>  (13) 
rxn_1078

>  <mol_properties>  (13) 
{"0": {"label": "*4", "atom_type": "S2s"}, "1": {"label": "*3", "atom_type": "CS"}, "5": {"label": "*0", "atom_type": "Cd"}, "6": {"label": "*1", "atom_type": "Cs"}, "11": {"label": "*2", "atom_type": "H0"}}

>  <type>  (13) 
unop_9

>  <geom_source>  (13) 
Heuristics

$$$$

     RDKit          3D

 16 14  0  0  0  0  0  0  0  0999 V2000
    2.0171   -0.1588    0.0046 S   0  0  0  0  0  0  0  0  0  0  0  0
    0.5685   -0.1194    0.9402 C   0  0  0  0  0  0  0  0  0  0  0  0
    0.3291    0.5007    2.4084 S   0  0  0  0  0  0  0  0  0  0  0  0
    2.7956    0.4723    0.8981 H   0  0  0  0  0  0  0  0  0  0  0  0
   -1.5131   -1.1612   -2.8653 C   0  0  0  0  0  0  0  0  0  0  0  0
   -1.5131   -1.1612   -1.5410 C   0  0  0  0  0  0  0  0  0  0  0  0
   -1.5131    0.0433   -0.6475 C   0  0  0  0  0  3  0  0  0  0  0  0
   -1.5131    1.3891   -1.3552 C   0  0  0  0  0  0  0  0  0  0  0  0
   -1.5131   -0.2443   -3.4428 H   0  0  0  0  0  0  0  0  0  0  0  0
   -1.5131   -2.0885   -3.4240 H   0  0  0  0  0  0  0  0  0  0  0  0
   -1.5131   -2.1169   -1.0228 H   0  0  0  0  0  0  0  0  0  0  0  0
   -0.4698   -0.0382    0.1482 H   0  0  0  0  0  0  0  0  0  0  0  0
   -2.3825   -0.0246    0.0156 H   0  0  0  0  0  0  0  0  0  0  0  0
   -2.3955    1.5041   -1.9876 H   0  0  0  0  0  0  0  0  0  0  0  0
   -0.6306    1.5041   -1.9876 H   0  0  0  0  0  0  0  0  0  0  0  0
   -1.5131    2.2034   -0.6299 H   0  0  0  0  0  0  0  0  0  0  0  0
  1  2  1  0
  1  4  1  0
  2  3  2  0
  2 12  1  0
  5  6  2  3
  5  9  1  0
  5 10  1  0
  6  7  1  0
  6 11  1  0
  7  8  1  0
  7 13  1  0
  8 14  1  0
  8 15  1  0
  8 16  1  0
M  RAD  1   7   2
M  END
>  <reaction>  (14) 
rxn_1078

>  <mol_properties>  (14) 
{"0": {"label": "*4", "atom_type": "S2s"}, "1": {"label": "*3", "atom_type": "CS"}, "5": {"label": "*0", "atom_type": "Cd"}, "6": {"label": "*1", "atom_type": "Cs"}, "11": {"label": "*2", "atom_type": "H0"}}

>  <type>  (14) 
unop_10

>  <geom_source>  (14) 
Heuristics

$$$$

     RDKit          3D

 16 14  0  0  0  0  0  0  0  0999 V2000
    0.2642    0.6531    2.3706 S   0  0  0  0  0  0  0  0  0  0  0  0
    0.6105   -0.1228    0.8695 C   0  0  0  0  0  0  0  0  0  0  0  0
    2.0325   -0.3205    0.1373 S   0  0  0  0  0  0  0  0  0  0  0  0
    1.5290    0.9964    2.6627 H   0  0  0  0  0  0  0  0  0  0  0  0
   -1.4711   -1.1646   -2.9360 C   0  0  0  0  0  0  0  0  0  0  0  0
   -1.4711   -1.1646   -1.6117 C   0  0  0  0  0  0  0  0  0  0  0  0
   -1.4711    0.0399   -0.7182 C   0  0  0  0  0  3  0  0  0  0  0  0
   -1.4711    1.3857   -1.4259 C   0  0  0  0  0  0  0  0  0  0  0  0
   -1.4711   -0.2477   -3.5135 H   0  0  0  0  0  0  0  0  0  0  0  0
   -1.4711   -2.0919   -3.4947 H   0  0  0  0  0  0  0  0  0  0  0  0
   -1.4711   -2.1203   -1.0935 H   0  0  0  0  0  0  0  0  0  0  0  0
   -0.4278   -0.0417    0.0775 H   0  0  0  0  0  0  0  0  0  0  0  0
   -2.3405   -0.0281   -0.0551 H   0  0  0  0  0  0  0  0  0  0  0  0
   -2.3535    1.5007   -2.0583 H   0  0  0  0  0  0  0  0  0  0  0  0
   -0.5887    1.5007   -2.0583 H   0  0  0  0  0  0  0  0  0  0  0  0
   -1.4711    2.2000   -0.7006 H   0  0  0  0  0  0  0  0  0  0  0  0
  1  2  1  0
  1  4  1  0
  2  3  2  0
  2 12  1  0
  5  6  2  3
  5  9  1  0
  5 10  1  0
  6  7  1  0
  6 11  1  0
  7  8  1  0
  7 13  1  0
  8 14  1  0
  8 15  1  0
  8 16  1  0
M  RAD  1   7   2
M  END
>  <reaction>  (15) 
rxn_1078

>  <mol_properties>  (15) 
{"0": {"label": "*4", "atom_type": "S2s"}, "1": {"label": "*3", "atom_type": "CS"}, "5": {"label": "*0", "atom_type": "Cd"}, "6": {"label": "*1", "atom_type": "Cs"}, "11": {"label": "*2", "atom_type": "H0"}}

>  <type>  (15) 
unop_11

>  <geom_source>  (15) 
Heuristics

$$$$

     RDKit          3D

 16 14  0  0  0  0  0  0  0  0999 V2000
    1.4612   -1.3339    0.5405 S   0  0  0  0  0  0  0  0  0  0  0  0
    0.5755    0.1063    0.8818 C   0  0  0  0  0  0  0  0  0  0  0  0
    0.8820    1.2464    1.9790 S   0  0  0  0  0  0  0  0  0  0  0  0
    2.4187   -1.1491    1.4634 H   0  0  0  0  0  0  0  0  0  0  0  0
   -1.5061   -0.9354   -2.9237 C   0  0  0  0  0  0  0  0  0  0  0  0
   -1.5061   -0.9354   -1.5994 C   0  0  0  0  0  0  0  0  0  0  0  0
   -1.5061    0.2691   -0.7059 C   0  0  0  0  0  3  0  0  0  0  0  0
   -1.5061    1.6148   -1.4136 C   0  0  0  0  0  0  0  0  0  0  0  0
   -1.5061   -0.0185   -3.5012 H   0  0  0  0  0  0  0  0  0  0  0  0
   -1.5061   -1.8628   -3.4824 H   0  0  0  0  0  0  0  0  0  0  0  0
   -1.5061   -1.8912   -1.0812 H   0  0  0  0  0  0  0  0  0  0  0  0
   -0.4628    0.1875    0.0898 H   0  0  0  0  0  0  0  0  0  0  0  0
   -2.3755    0.2011   -0.0428 H   0  0  0  0  0  0  0  0  0  0  0  0
   -2.3885    1.7298   -2.0460 H   0  0  0  0  0  0  0  0  0  0  0  0
   -0.6237    1.7298   -2.0460 H   0  0  0  0  0  0  0  0  0  0  0  0
   -1.5061    2.4292   -0.6883 H   0  0  0  0  0  0  0  0  0  0  0  0
  1  2  1  0
  1  4  1  0
  2  3  2  0
  2 12  1  0
  5  6  2  3
  5  9  1  0
  5 10  1  0
  6  7  1  0
  6 11  1  0
  7  8  1  0
  7 13  1  0
  8 14  1  0
  8 15  1  0
  8 16  1  0
M  RAD  1   7   2
M  END
>  <reaction>  (16) 
rxn_1078

>  <mol_properties>  (16) 
{"0": {"label": "*4", "atom_type": "S2s"}, "1": {"label": "*3", "atom_type": "CS"}, "5": {"label": "*0", "atom_type": "Cd"}, "6": {"label": "*1", "atom_type": "Cs"}, "11": {"label": "*2", "atom_type": "H0"}}

>  <type>  (16) 
unop_12

>  <geom_source>  (16) 
Heuristics

$$$$

     RDKit          3D

 16 14  0  0  0  0  0  0  0  0999 V2000
    3.3462   -0.3743    0.3900 S   0  0  0  0  0  0  0  0  0  0  0  0
    1.8308   -2.2031   -1.0873 S   0  0  0  0  0  0  0  0  0  0  0  0
   -0.3705    1.6738   -0.2972 C   0  0  0  0  0  0  0  0  0  0  0  0
   -0.2560    0.3637    0.4689 C   0  0  0  0  0  3  0  0  0  0  0  0
   -1.6064   -0.2354    0.7102 C   0  0  0  0  0  0  0  0  0  0  0  0
   -1.9389   -1.4030    0.1593 C   0  0  0  0  0  0  0  0  0  0  0  0
    1.8462   -0.9448   -0.4013 C   0  0  0  0  0  0  0  0  0  0  0  0
   -0.8627    1.5004   -1.2777 H   0  0  0  0  0  0  0  0  0  0  0  0
   -0.9582    2.4140    0.2870 H   0  0  0  0  0  0  0  0  0  0  0  0
    0.6452    2.0832   -0.4773 H   0  0  0  0  0  0  0  0  0  0  0  0
    0.2561    0.5330    1.4399 H   0  0  0  0  0  0  0  0  0  0  0  0
   -2.3238    0.2905    1.3334 H   0  0  0  0  0  0  0  0  0  0  0  0
   -1.2376   -1.9424   -0.4706 H   0  0  0  0  0  0  0  0  0  0  0  0
   -2.9218   -1.8270    0.3369 H   0  0  0  0  0  0  0  0  0  0  0  0
    0.7869   -0.2356   -0.3460 H   0  0  0  0  0  0  0  0  0  0  0  0
    3.7645    0.3073   -0.7683 H   0  0  0  0  0  0  0  0  0  0  0  0
  1  7  1  0
  1 16  1  0
  2  7  2  0
  3  4  1  0
  3  8  1  0
  3  9  1  0
  3 10  1  0
  4  5  1  0
  4 11  1  0
  5  6  2  3
  5 12  1  0
  6 13  1  0
  6 14  1  0
  7 15  1  0
M  RAD  1   4   2
M  END
>  <reaction>  (17) 
rxn_1078

>  <mol_properties>  (17) 
{"0": {"label": "*4", "atom_type": "S2s"}, "1": {"label": "*3", "atom_type": "CS"}, "5": {"label": "*0", "atom_type": "Cd"}, "6": {"label": "*1", "atom_type": "Cs"}, "11": {"label": "*2", "atom_type": "H0"}}

>  <type>  (17) 
unop_13

>  <geom_source>  (17) 
AutoTST

$$$$
