
     RDKit          3D

  7  6  0  0  0  0  0  0  0  0999 V2000
   -0.5808   -0.0343   -0.0072 C   0  0  0  0  0  0  0  0  0  0  0  0
    0.8189    0.0820   -0.3920 N   0  0  0  0  0  0  0  0  0  0  0  0
   -1.1366   -0.8351   -0.5131 H   0  0  0  0  0  0  0  0  0  0  0  0
   -1.0904    0.9086   -0.2116 H   0  0  0  0  0  0  0  0  0  0  0  0
   -0.6459   -0.2082    1.0679 H   0  0  0  0  0  0  0  0  0  0  0  0
    0.9043    0.2571   -1.3836 H   0  0  0  0  0  0  0  0  0  0  0  0
    1.3157   -0.7766   -0.1992 H   0  0  0  0  0  0  0  0  0  0  0  0
  1  2  1  0
  1  3  1  0
  1  4  1  0
  1  5  1  0
  2  6  1  0
  2  7  1  0
M  END
>  <reaction>  (1) 
rxn_685

>  <mol_properties>  (1) 
{"1": {"label": "donator", "atom_type": "N3s"}, "5": {"label": "d_hydrogen", "atom_type": "H0"}}

>  <type>  (1) 
r1h

$$$$

     RDKit          3D

  4  3  0  0  0  0  0  0  0  0999 V2000
    0.0000    0.0000    0.0000 C   0  0  0  0  0  3  0  0  0  0  0  0
    1.0638   -0.1747    0.0540 H   0  0  0  0  0  0  0  0  0  0  0  0
   -0.6833   -0.8351   -0.0280 H   0  0  0  0  0  0  0  0  0  0  0  0
   -0.3805    1.0098   -0.0260 H   0  0  0  0  0  0  0  0  0  0  0  0
  1  2  1  0
  1  3  1  0
  1  4  1  0
M  RAD  1   1   2
M  END
>  <reaction>  (2) 
rxn_685

>  <mol_properties>  (2) 
{"0": {"label": "acceptor", "atom_type": "Cs"}}

>  <type>  (2) 
r2

$$$$

     RDKit          3D

  5  4  0  0  0  0  0  0  0  0999 V2000
    0.0000    0.0000    0.0000 C   0  0  0  0  0  0  0  0  0  0  0  0
   -0.6486   -0.7720   -0.4113 H   0  0  0  0  0  0  0  0  0  0  0  0
   -0.3482    0.9787   -0.3267 H   0  0  0  0  0  0  0  0  0  0  0  0
   -0.0223   -0.0487    1.0876 H   0  0  0  0  0  0  0  0  0  0  0  0
    1.0191   -0.1580   -0.3496 H   0  0  0  0  0  0  0  0  0  0  0  0
  1  2  1  0
  1  3  1  0
  1  4  1  0
  1  5  1  0
M  END
>  <reaction>  (3) 
rxn_685

>  <mol_properties>  (3) 
{"0": {"label": "acceptor", "atom_type": "Cs"}, "4": {"label": "a_hydrogen", "atom_type": "H0"}}

>  <type>  (3) 
r2h

$$$$

     RDKit          3D

 11  9  0  0  0  0  0  0  0  0999 V2000
    0.1990    1.5321    1.0322 C   0  0  0  0  0  3  0  0  0  0  0  0
   -0.8820    1.4959    1.1309 H   0  0  0  0  0  0  0  0  0  0  0  0
    0.5787    2.5095    0.7483 H   0  0  0  0  0  0  0  0  0  0  0  0
    0.7260    1.0898    1.8732 H   0  0  0  0  0  0  0  0  0  0  0  0
   -0.1675   -1.2247   -0.5790 C   0  0  0  0  0  0  0  0  0  0  0  0
    0.5831   -0.0395   -0.9597 N   0  0  0  0  0  0  0  0  0  0  0  0
   -1.2026   -1.0334   -0.2706 H   0  0  0  0  0  0  0  0  0  0  0  0
    0.3467   -1.7326    0.2380 H   0  0  0  0  0  0  0  0  0  0  0  0
   -0.1981   -1.9124   -1.4293 H   0  0  0  0  0  0  0  0  0  0  0  0
    0.5350    0.7287    0.0002 H   0  0  0  0  0  0  0  0  0  0  0  0
    0.0379    0.4770   -1.6489 H   0  0  0  0  0  0  0  0  0  0  0  0
  1  2  1  0
  1  3  1  0
  1  4  1  0
  5  6  1  0
  5  7  1  0
  5  8  1  0
  5  9  1  0
  6 10  1  0
  6 11  1  0
M  RAD  1   1   2
M  END
>  <reaction>  (4) 
rxn_685

>  <mol_properties>  (4) 
{"0": {"label": "*3", "atom_type": "Cs"}, "1": {"label": "*4", "atom_type": "H0"}, "4": {"label": "*0", "atom_type": "Cs"}, "5": {"label": "*1", "atom_type": "N3s"}, "9": {"label": "*2", "atom_type": "H0"}}

>  <type>  (4) 
ts

$$$$

     RDKit          3D

 11  9  0  0  0  0  0  0  0  0999 V2000
   -0.0197    1.5599    1.0629 C   0  0  0  0  0  3  0  0  0  0  0  0
   -0.9088    1.7175    1.6715 H   0  0  0  0  0  0  0  0  0  0  0  0
    0.3705    2.5219    0.7344 H   0  0  0  0  0  0  0  0  0  0  0  0
    0.6194    1.0686    1.7950 H   0  0  0  0  0  0  0  0  0  0  0  0
   -0.0197   -0.7961   -1.2858 C   0  0  0  0  0  0  0  0  0  0  0  0
   -0.0197   -0.7961    0.1704 N   0  0  0  0  0  0  0  0  0  0  0  0
    0.8360   -0.2879   -1.7504 H   0  0  0  0  0  0  0  0  0  0  0  0
   -0.9309   -0.3164   -1.6464 H   0  0  0  0  0  0  0  0  0  0  0  0
   -0.0344   -1.8258   -1.6464 H   0  0  0  0  0  0  0  0  0  0  0  0
   -0.0197    0.3379    0.6000 H   0  0  0  0  0  0  0  0  0  0  0  0
    0.8101   -1.2483    0.5284 H   0  0  0  0  0  0  0  0  0  0  0  0
  1  2  1  0
  1  3  1  0
  1  4  1  0
  5  6  1  0
  5  7  1  0
  5  8  1  0
  5  9  1  0
  6 10  1  0
  6 11  1  0
M  RAD  1   1   2
M  END
>  <reaction>  (5) 
rxn_685

>  <mol_properties>  (5) 
{"0": {"label": "*3", "atom_type": "Cs"}, "1": {"label": "*4", "atom_type": "H0"}, "4": {"label": "*0", "atom_type": "Cs"}, "5": {"label": "*1", "atom_type": "N3s"}, "9": {"label": "*2", "atom_type": "H0"}}

>  <type>  (5) 
unop_1

>  <geom_source>  (5) 
Heuristics

$$$$

     RDKit          3D

 11  9  0  0  0  0  0  0  0  0999 V2000
   -0.0188    1.5625    1.0741 C   0  0  0  0  0  3  0  0  0  0  0  0
   -0.5321    2.2169    0.3712 H   0  0  0  0  0  0  0  0  0  0  0  0
    0.8725    2.0621    1.4506 H   0  0  0  0  0  0  0  0  0  0  0  0
   -0.2979    0.9145    1.9035 H   0  0  0  0  0  0  0  0  0  0  0  0
   -0.0188   -0.7934   -1.2747 C   0  0  0  0  0  0  0  0  0  0  0  0
   -0.0188   -0.7934    0.1816 N   0  0  0  0  0  0  0  0  0  0  0  0
    0.8369   -0.2852   -1.7393 H   0  0  0  0  0  0  0  0  0  0  0  0
   -0.9300   -0.3137   -1.6353 H   0  0  0  0  0  0  0  0  0  0  0  0
   -0.0335   -1.8231   -1.6353 H   0  0  0  0  0  0  0  0  0  0  0  0
   -0.0188    0.3406    0.6112 H   0  0  0  0  0  0  0  0  0  0  0  0
    0.8110   -1.2456    0.5396 H   0  0  0  0  0  0  0  0  0  0  0  0
  1  2  1  0
  1  3  1  0
  1  4  1  0
  5  6  1  0
  5  7  1  0
  5  8  1  0
  5  9  1  0
  6 10  1  0
  6 11  1  0
M  RAD  1   1   2
M  END
>  <reaction>  (6) 
rxn_685

>  <mol_properties>  (6) 
{"0": {"label": "*3", "atom_type": "Cs"}, "1": {"label": "*4", "atom_type": "H0"}, "4": {"label": "*0", "atom_type": "Cs"}, "5": {"label": "*1", "atom_type": "N3s"}, "9": {"label": "*2", "atom_type": "H0"}}

>  <type>  (6) 
unop_2

>  <geom_source>  (6) 
Heuristics

$$$$

     RDKit          3D

 11  9  0  0  0  0  0  0  0  0999 V2000
   -0.0228    1.5553    1.0643 C   0  0  0  0  0  3  0  0  0  0  0  0
   -0.5362    1.5798    2.0243 H   0  0  0  0  0  0  0  0  0  0  0  0
   -0.1789    2.4997    0.5451 H   0  0  0  0  0  0  0  0  0  0  0  0
    0.9307    1.4235    1.5733 H   0  0  0  0  0  0  0  0  0  0  0  0
   -0.0228   -0.8007   -1.2845 C   0  0  0  0  0  0  0  0  0  0  0  0
   -0.0228   -0.8007    0.1718 N   0  0  0  0  0  0  0  0  0  0  0  0
    0.8328   -0.2925   -1.7490 H   0  0  0  0  0  0  0  0  0  0  0  0
   -0.9340   -0.3210   -1.6451 H   0  0  0  0  0  0  0  0  0  0  0  0
   -0.0376   -1.8303   -1.6451 H   0  0  0  0  0  0  0  0  0  0  0  0
   -0.0228    0.3333    0.6014 H   0  0  0  0  0  0  0  0  0  0  0  0
    0.8070   -1.2528    0.5298 H   0  0  0  0  0  0  0  0  0  0  0  0
  1  2  1  0
  1  3  1  0
  1  4  1  0
  5  6  1  0
  5  7  1  0
  5  8  1  0
  5  9  1  0
  6 10  1  0
  6 11  1  0
M  RAD  1   1   2
M  END
>  <reaction>  (7) 
rxn_685

>  <mol_properties>  (7) 
{"0": {"label": "*3", "atom_type": "Cs"}, "1": {"label": "*4", "atom_type": "H0"}, "4": {"label": "*0", "atom_type": "Cs"}, "5": {"label": "*1", "atom_type": "N3s"}, "9": {"label": "*2", "atom_type": "H0"}}

>  <type>  (7) 
unop_3

>  <geom_source>  (7) 
Heuristics

$$$$

     RDKit          3D

 11  9  0  0  0  0  0  0  0  0999 V2000
   -0.0195    1.5639    1.0689 C   0  0  0  0  0  3  0  0  0  0  0  0
    0.8697    2.0852    0.7175 H   0  0  0  0  0  0  0  0  0  0  0  0
    0.2064    1.0493    2.0016 H   0  0  0  0  0  0  0  0  0  0  0  0
   -1.0047    2.0007    1.2250 H   0  0  0  0  0  0  0  0  0  0  0  0
   -0.0195   -0.7921   -1.2798 C   0  0  0  0  0  0  0  0  0  0  0  0
   -0.0195   -0.7921    0.1765 N   0  0  0  0  0  0  0  0  0  0  0  0
    0.8362   -0.2839   -1.7444 H   0  0  0  0  0  0  0  0  0  0  0  0
   -0.9307   -0.3124   -1.6404 H   0  0  0  0  0  0  0  0  0  0  0  0
   -0.0342   -1.8217   -1.6404 H   0  0  0  0  0  0  0  0  0  0  0  0
   -0.0195    0.3419    0.6060 H   0  0  0  0  0  0  0  0  0  0  0  0
    0.8104   -1.2442    0.5344 H   0  0  0  0  0  0  0  0  0  0  0  0
  1  2  1  0
  1  3  1  0
  1  4  1  0
  5  6  1  0
  5  7  1  0
  5  8  1  0
  5  9  1  0
  6 10  1  0
  6 11  1  0
M  RAD  1   1   2
M  END
>  <reaction>  (8) 
rxn_685

>  <mol_properties>  (8) 
{"0": {"label": "*3", "atom_type": "Cs"}, "1": {"label": "*4", "atom_type": "H0"}, "4": {"label": "*0", "atom_type": "Cs"}, "5": {"label": "*1", "atom_type": "N3s"}, "9": {"label": "*2", "atom_type": "H0"}}

>  <type>  (8) 
unop_4

>  <geom_source>  (8) 
Heuristics

$$$$

     RDKit          3D

 11  9  0  0  0  0  0  0  0  0999 V2000
   -0.0176    1.5506    1.0671 C   0  0  0  0  0  3  0  0  0  0  0  0
   -0.0176    1.5263    2.1558 H   0  0  0  0  0  0  0  0  0  0  0  0
   -0.9067    2.0718    0.7157 H   0  0  0  0  0  0  0  0  0  0  0  0
    0.9148    2.1072    1.1488 H   0  0  0  0  0  0  0  0  0  0  0  0
   -0.0176   -0.8054   -1.2816 C   0  0  0  0  0  0  0  0  0  0  0  0
   -0.0176   -0.8054    0.1747 N   0  0  0  0  0  0  0  0  0  0  0  0
    0.8381   -0.2972   -1.7462 H   0  0  0  0  0  0  0  0  0  0  0  0
   -0.9288   -0.3257   -1.6422 H   0  0  0  0  0  0  0  0  0  0  0  0
   -0.0323   -1.8351   -1.6422 H   0  0  0  0  0  0  0  0  0  0  0  0
   -0.0176    0.3286    0.6042 H   0  0  0  0  0  0  0  0  0  0  0  0
    0.8123   -1.2576    0.5326 H   0  0  0  0  0  0  0  0  0  0  0  0
  1  2  1  0
  1  3  1  0
  1  4  1  0
  5  6  1  0
  5  7  1  0
  5  8  1  0
  5  9  1  0
  6 10  1  0
  6 11  1  0
M  RAD  1   1   2
M  END
>  <reaction>  (9) 
rxn_685

>  <mol_properties>  (9) 
{"0": {"label": "*3", "atom_type": "Cs"}, "1": {"label": "*4", "atom_type": "H0"}, "4": {"label": "*0", "atom_type": "Cs"}, "5": {"label": "*1", "atom_type": "N3s"}, "9": {"label": "*2", "atom_type": "H0"}}

>  <type>  (9) 
unop_5

>  <geom_source>  (9) 
Heuristics

$$$$

     RDKit          3D

 11  9  0  0  0  0  0  0  0  0999 V2000
   -0.0173    1.5616    1.0655 C   0  0  0  0  0  3  0  0  0  0  0  0
    1.0093    1.9010    1.1941 H   0  0  0  0  0  0  0  0  0  0  0  0
   -0.3056    0.9467    1.9167 H   0  0  0  0  0  0  0  0  0  0  0  0
   -0.7236    2.3861    0.9810 H   0  0  0  0  0  0  0  0  0  0  0  0
   -0.0173   -0.7944   -1.2833 C   0  0  0  0  0  0  0  0  0  0  0  0
   -0.0173   -0.7944    0.1730 N   0  0  0  0  0  0  0  0  0  0  0  0
    0.8383   -0.2862   -1.7478 H   0  0  0  0  0  0  0  0  0  0  0  0
   -0.9285   -0.3147   -1.6439 H   0  0  0  0  0  0  0  0  0  0  0  0
   -0.0321   -1.8240   -1.6439 H   0  0  0  0  0  0  0  0  0  0  0  0
   -0.0173    0.3396    0.6026 H   0  0  0  0  0  0  0  0  0  0  0  0
    0.8125   -1.2465    0.5310 H   0  0  0  0  0  0  0  0  0  0  0  0
  1  2  1  0
  1  3  1  0
  1  4  1  0
  5  6  1  0
  5  7  1  0
  5  8  1  0
  5  9  1  0
  6 10  1  0
  6 11  1  0
M  RAD  1   1   2
M  END
>  <reaction>  (10) 
rxn_685

>  <mol_properties>  (10) 
{"0": {"label": "*3", "atom_type": "Cs"}, "1": {"label": "*4", "atom_type": "H0"}, "4": {"label": "*0", "atom_type": "Cs"}, "5": {"label": "*1", "atom_type": "N3s"}, "9": {"label": "*2", "atom_type": "H0"}}

>  <type>  (10) 
unop_6

>  <geom_source>  (10) 
Heuristics

$$$$

     RDKit          3D

 11  9  0  0  0  0  0  0  0  0999 V2000
   -0.0138    1.5588    1.0636 C   0  0  0  0  0  3  0  0  0  0  0  0
    0.8753    1.7164    1.6722 H   0  0  0  0  0  0  0  0  0  0  0  0
   -0.7701    1.0424    1.6527 H   0  0  0  0  0  0  0  0  0  0  0  0
   -0.2750    2.5938    0.8484 H   0  0  0  0  0  0  0  0  0  0  0  0
   -0.0138   -0.7972   -1.2852 C   0  0  0  0  0  0  0  0  0  0  0  0
   -0.0138   -0.7972    0.1711 N   0  0  0  0  0  0  0  0  0  0  0  0
    0.8418   -0.2890   -1.7498 H   0  0  0  0  0  0  0  0  0  0  0  0
   -0.9250   -0.3175   -1.6458 H   0  0  0  0  0  0  0  0  0  0  0  0
   -0.0285   -1.8268   -1.6458 H   0  0  0  0  0  0  0  0  0  0  0  0
   -0.0138    0.3368    0.6007 H   0  0  0  0  0  0  0  0  0  0  0  0
    0.8160   -1.2493    0.5291 H   0  0  0  0  0  0  0  0  0  0  0  0
  1  2  1  0
  1  3  1  0
  1  4  1  0
  5  6  1  0
  5  7  1  0
  5  8  1  0
  5  9  1  0
  6 10  1  0
  6 11  1  0
M  RAD  1   1   2
M  END
>  <reaction>  (11) 
rxn_685

>  <mol_properties>  (11) 
{"0": {"label": "*3", "atom_type": "Cs"}, "1": {"label": "*4", "atom_type": "H0"}, "4": {"label": "*0", "atom_type": "Cs"}, "5": {"label": "*1", "atom_type": "N3s"}, "9": {"label": "*2", "atom_type": "H0"}}

>  <type>  (11) 
unop_7

>  <geom_source>  (11) 
Heuristics

$$$$

     RDKit          3D

 11  9  0  0  0  0  0  0  0  0999 V2000
   -0.0160    1.5612    1.0658 C   0  0  0  0  0  3  0  0  0  0  0  0
   -1.0427    1.9006    1.1943 H   0  0  0  0  0  0  0  0  0  0  0  0
    0.6458    2.4234    1.0001 H   0  0  0  0  0  0  0  0  0  0  0  0
    0.3219    0.9289    1.8854 H   0  0  0  0  0  0  0  0  0  0  0  0
   -0.0160   -0.7948   -1.2830 C   0  0  0  0  0  0  0  0  0  0  0  0
   -0.0160   -0.7948    0.1733 N   0  0  0  0  0  0  0  0  0  0  0  0
    0.8396   -0.2866   -1.7476 H   0  0  0  0  0  0  0  0  0  0  0  0
   -0.9272   -0.3151   -1.6436 H   0  0  0  0  0  0  0  0  0  0  0  0
   -0.0308   -1.8245   -1.6436 H   0  0  0  0  0  0  0  0  0  0  0  0
   -0.0160    0.3392    0.6029 H   0  0  0  0  0  0  0  0  0  0  0  0
    0.8138   -1.2470    0.5313 H   0  0  0  0  0  0  0  0  0  0  0  0
  1  2  1  0
  1  3  1  0
  1  4  1  0
  5  6  1  0
  5  7  1  0
  5  8  1  0
  5  9  1  0
  6 10  1  0
  6 11  1  0
M  RAD  1   1   2
M  END
>  <reaction>  (12) 
rxn_685

>  <mol_properties>  (12) 
{"0": {"label": "*3", "atom_type": "Cs"}, "1": {"label": "*4", "atom_type": "H0"}, "4": {"label": "*0", "atom_type": "Cs"}, "5": {"label": "*1", "atom_type": "N3s"}, "9": {"label": "*2", "atom_type": "H0"}}

>  <type>  (12) 
unop_8

>  <geom_source>  (12) 
Heuristics

$$$$

     RDKit          3D

 11  9  0  0  0  0  0  0  0  0999 V2000
   -0.0208    1.5655    1.0722 C   0  0  0  0  0  3  0  0  0  0  0  0
    0.4925    2.2199    0.3693 H   0  0  0  0  0  0  0  0  0  0  0  0
    0.6434    1.3330    1.9032 H   0  0  0  0  0  0  0  0  0  0  0  0
   -1.0064    1.5128    1.5321 H   0  0  0  0  0  0  0  0  0  0  0  0
   -0.0208   -0.7904   -1.2766 C   0  0  0  0  0  0  0  0  0  0  0  0
   -0.0208   -0.7904    0.1797 N   0  0  0  0  0  0  0  0  0  0  0  0
    0.8348   -0.2822   -1.7411 H   0  0  0  0  0  0  0  0  0  0  0  0
   -0.9320   -0.3107   -1.6372 H   0  0  0  0  0  0  0  0  0  0  0  0
   -0.0355   -1.8201   -1.6372 H   0  0  0  0  0  0  0  0  0  0  0  0
   -0.0208    0.3436    0.6093 H   0  0  0  0  0  0  0  0  0  0  0  0
    0.8090   -1.2426    0.5377 H   0  0  0  0  0  0  0  0  0  0  0  0
  1  2  1  0
  1  3  1  0
  1  4  1  0
  5  6  1  0
  5  7  1  0
  5  8  1  0
  5  9  1  0
  6 10  1  0
  6 11  1  0
M  RAD  1   1   2
M  END
>  <reaction>  (13) 
rxn_685

>  <mol_properties>  (13) 
{"0": {"label": "*3", "atom_type": "Cs"}, "1": {"label": "*4", "atom_type": "H0"}, "4": {"label": "*0", "atom_type": "Cs"}, "5": {"label": "*1", "atom_type": "N3s"}, "9": {"label": "*2", "atom_type": "H0"}}

>  <type>  (13) 
unop_9

>  <geom_source>  (13) 
Heuristics

$$$$

     RDKit          3D

 11  9  0  0  0  0  0  0  0  0999 V2000
   -0.0159    1.5613    1.0705 C   0  0  0  0  0  3  0  0  0  0  0  0
   -0.9050    2.0826    0.7191 H   0  0  0  0  0  0  0  0  0  0  0  0
    0.7844    2.2807    1.2374 H   0  0  0  0  0  0  0  0  0  0  0  0
    0.0409    0.8818    1.9195 H   0  0  0  0  0  0  0  0  0  0  0  0
   -0.0159   -0.7946   -1.2782 C   0  0  0  0  0  0  0  0  0  0  0  0
   -0.0159   -0.7946    0.1781 N   0  0  0  0  0  0  0  0  0  0  0  0
    0.8397   -0.2864   -1.7428 H   0  0  0  0  0  0  0  0  0  0  0  0
   -0.9271   -0.3149   -1.6388 H   0  0  0  0  0  0  0  0  0  0  0  0
   -0.0307   -1.8243   -1.6388 H   0  0  0  0  0  0  0  0  0  0  0  0
   -0.0159    0.3394    0.6076 H   0  0  0  0  0  0  0  0  0  0  0  0
    0.8139   -1.2468    0.5360 H   0  0  0  0  0  0  0  0  0  0  0  0
  1  2  1  0
  1  3  1  0
  1  4  1  0
  5  6  1  0
  5  7  1  0
  5  8  1  0
  5  9  1  0
  6 10  1  0
  6 11  1  0
M  RAD  1   1   2
M  END
>  <reaction>  (14) 
rxn_685

>  <mol_properties>  (14) 
{"0": {"label": "*3", "atom_type": "Cs"}, "1": {"label": "*4", "atom_type": "H0"}, "4": {"label": "*0", "atom_type": "Cs"}, "5": {"label": "*1", "atom_type": "N3s"}, "9": {"label": "*2", "atom_type": "H0"}}

>  <type>  (14) 
unop_10

>  <geom_source>  (14) 
Heuristics

$$$$

     RDKit          3D

 11  9  0  0  0  0  0  0  0  0999 V2000
   -0.0117    1.5542    1.0650 C   0  0  0  0  0  3  0  0  0  0  0  0
    0.5016    1.5786    2.0250 H   0  0  0  0  0  0  0  0  0  0  0  0
   -1.0775    1.4008    1.2271 H   0  0  0  0  0  0  0  0  0  0  0  0
    0.3150    2.5725    0.8601 H   0  0  0  0  0  0  0  0  0  0  0  0
   -0.0117   -0.8018   -1.2838 C   0  0  0  0  0  0  0  0  0  0  0  0
   -0.0117   -0.8018    0.1725 N   0  0  0  0  0  0  0  0  0  0  0  0
    0.8440   -0.2936   -1.7483 H   0  0  0  0  0  0  0  0  0  0  0  0
   -0.9229   -0.3221   -1.6444 H   0  0  0  0  0  0  0  0  0  0  0  0
   -0.0264   -1.8315   -1.6444 H   0  0  0  0  0  0  0  0  0  0  0  0
   -0.0117    0.3322    0.6021 H   0  0  0  0  0  0  0  0  0  0  0  0
    0.8181   -1.2540    0.5305 H   0  0  0  0  0  0  0  0  0  0  0  0
  1  2  1  0
  1  3  1  0
  1  4  1  0
  5  6  1  0
  5  7  1  0
  5  8  1  0
  5  9  1  0
  6 10  1  0
  6 11  1  0
M  RAD  1   1   2
M  END
>  <reaction>  (15) 
rxn_685

>  <mol_properties>  (15) 
{"0": {"label": "*3", "atom_type": "Cs"}, "1": {"label": "*4", "atom_type": "H0"}, "4": {"label": "*0", "atom_type": "Cs"}, "5": {"label": "*1", "atom_type": "N3s"}, "9": {"label": "*2", "atom_type": "H0"}}

>  <type>  (15) 
unop_11

>  <geom_source>  (15) 
Heuristics

$$$$

     RDKit          3D

 11  9  0  0  0  0  0  0  0  0999 V2000
   -0.0211    1.5648    1.0744 C   0  0  0  0  0  3  0  0  0  0  0  0
   -0.0211    2.2679    0.2429 H   0  0  0  0  0  0  0  0  0  0  0  0
    0.8680    1.7224    1.6830 H   0  0  0  0  0  0  0  0  0  0  0  0
   -0.7065    1.1068    1.7859 H   0  0  0  0  0  0  0  0  0  0  0  0
   -0.0211   -0.7912   -1.2744 C   0  0  0  0  0  0  0  0  0  0  0  0
   -0.0211   -0.7912    0.1819 N   0  0  0  0  0  0  0  0  0  0  0  0
    0.8346   -0.2830   -1.7389 H   0  0  0  0  0  0  0  0  0  0  0  0
   -0.9323   -0.3115   -1.6350 H   0  0  0  0  0  0  0  0  0  0  0  0
   -0.0358   -1.8208   -1.6350 H   0  0  0  0  0  0  0  0  0  0  0  0
   -0.0211    0.3428    0.6115 H   0  0  0  0  0  0  0  0  0  0  0  0
    0.8087   -1.2433    0.5399 H   0  0  0  0  0  0  0  0  0  0  0  0
  1  2  1  0
  1  3  1  0
  1  4  1  0
  5  6  1  0
  5  7  1  0
  5  8  1  0
  5  9  1  0
  6 10  1  0
  6 11  1  0
M  RAD  1   1   2
M  END
>  <reaction>  (16) 
rxn_685

>  <mol_properties>  (16) 
{"0": {"label": "*3", "atom_type": "Cs"}, "1": {"label": "*4", "atom_type": "H0"}, "4": {"label": "*0", "atom_type": "Cs"}, "5": {"label": "*1", "atom_type": "N3s"}, "9": {"label": "*2", "atom_type": "H0"}}

>  <type>  (16) 
unop_12

>  <geom_source>  (16) 
Heuristics

$$$$
