
     RDKit          3D

  9  8  0  0  0  0  0  0  0  0999 V2000
   -2.1022   -0.6873    0.3932 C   0  0  0  0  0  0  0  0  0  0  0  0
   -1.2072   -0.1086   -0.1482 C   0  0  0  0  0  0  0  0  0  0  0  0
   -0.1242    0.6105   -0.8193 C   0  0  0  0  0  0  0  0  0  0  0  0
    1.2067    0.1106   -0.4741 C   0  0  0  0  0  0  0  0  0  0  0  0
    2.3005   -0.2875   -0.2012 C   0  0  0  0  0  0  0  0  0  0  0  0
   -2.8942   -1.2059    0.8778 H   0  0  0  0  0  0  0  0  0  0  0  0
   -0.1862    1.6723   -0.5649 H   0  0  0  0  0  0  0  0  0  0  0  0
   -0.2641    0.5418   -1.9017 H   0  0  0  0  0  0  0  0  0  0  0  0
    3.2709   -0.6459    0.0455 H   0  0  0  0  0  0  0  0  0  0  0  0
  1  2  3  0
  1  6  1  0
  2  3  1  0
  3  4  1  0
  3  7  1  0
  3  8  1  0
  4  5  3  0
  5  9  1  0
M  END
>  <reaction>  (1) 
rxn_1360

>  <mol_properties>  (1) 
{"2": {"label": "donator", "atom_type": "Cs"}, "6": {"label": "d_hydrogen", "atom_type": "H0"}}

>  <type>  (1) 
r1h

$$$$

     RDKit          3D

 17 17  0  0  0  0  0  0  0  0999 V2000
    2.7069    0.2860   -0.1817 C   0  0  0  0  0  0  0  0  0  0  0  0
    1.6304   -0.7245    0.0085 C   0  0  0  0  0  0  0  0  0  0  0  0
    1.4786   -1.8800   -0.7837 C   0  0  0  0  0  0  0  0  0  0  0  0
    0.4231   -2.7891   -0.5312 C   0  0  0  0  0  3  0  0  0  0  0  0
    0.2582   -3.9235   -1.2940 C   0  0  0  0  0  0  0  0  0  0  0  0
    1.1348   -4.2030   -2.3401 C   0  0  0  0  0  0  0  0  0  0  0  0
    2.1804   -3.3260   -2.6093 C   0  0  0  0  0  0  0  0  0  0  0  0
    2.3549   -2.1866   -1.8513 C   0  0  0  0  0  0  0  0  0  0  0  0
    2.6698    0.7343   -1.1808 H   0  0  0  0  0  0  0  0  0  0  0  0
    3.7029   -0.1584   -0.0766 H   0  0  0  0  0  0  0  0  0  0  0  0
    2.6250    1.0917    0.5463 H   0  0  0  0  0  0  0  0  0  0  0  0
    0.9136   -0.5677    0.8059 H   0  0  0  0  0  0  0  0  0  0  0  0
   -0.2629   -2.5783    0.2811 H   0  0  0  0  0  0  0  0  0  0  0  0
   -0.5582   -4.6017   -1.0785 H   0  0  0  0  0  0  0  0  0  0  0  0
    1.0033   -5.0952   -2.9384 H   0  0  0  0  0  0  0  0  0  0  0  0
    2.8650   -3.5382   -3.4214 H   0  0  0  0  0  0  0  0  0  0  0  0
    3.1750   -1.5169   -2.0772 H   0  0  0  0  0  0  0  0  0  0  0  0
  1  2  1  0
  1  9  1  0
  1 10  1  0
  1 11  1  0
  2  3  2  3
  2 12  1  0
  3  4  1  0
  3  8  1  0
  4  5  1  0
  4 13  1  0
  5  6  2  0
  5 14  1  0
  6  7  1  0
  6 15  1  0
  7  8  2  0
  7 16  1  0
  8 17  1  0
M  RAD  1   4   2
M  END
>  <reaction>  (2) 
rxn_1360

>  <mol_properties>  (2) 
{"1": {"label": "acceptor", "atom_type": "Cs"}}

>  <type>  (2) 
r2

$$$$

     RDKit          3D

 18 18  0  0  0  0  0  0  0  0999 V2000
   -2.4852    0.3210   -0.3966 C   0  0  0  0  0  0  0  0  0  0  0  0
   -1.5917   -0.2708    0.6941 C   0  0  0  0  0  0  0  0  0  0  0  0
   -0.1292   -0.1692    0.3493 C   0  0  0  0  0  0  0  0  0  0  0  0
    0.6099    0.9558    0.7015 C   0  0  0  0  0  0  0  0  0  0  0  0
    1.9447    1.0728    0.3458 C   0  0  0  0  0  0  0  0  0  0  0  0
    2.5646    0.0613   -0.3720 C   0  0  0  0  0  0  0  0  0  0  0  0
    1.8399   -1.0657   -0.7287 C   0  0  0  0  0  0  0  0  0  0  0  0
    0.5055   -1.1769   -0.3700 C   0  0  0  0  0  0  0  0  0  0  0  0
   -2.3325   -0.1971   -1.3452 H   0  0  0  0  0  0  0  0  0  0  0  0
   -2.2554    1.3763   -0.5546 H   0  0  0  0  0  0  0  0  0  0  0  0
   -3.5397    0.2376   -0.1280 H   0  0  0  0  0  0  0  0  0  0  0  0
   -1.7801    0.2462    1.6380 H   0  0  0  0  0  0  0  0  0  0  0  0
   -1.8568   -1.3190    0.8516 H   0  0  0  0  0  0  0  0  0  0  0  0
    0.1327    1.7497    1.2656 H   0  0  0  0  0  0  0  0  0  0  0  0
    2.5033    1.9550    0.6330 H   0  0  0  0  0  0  0  0  0  0  0  0
    3.6077    0.1491   -0.6484 H   0  0  0  0  0  0  0  0  0  0  0  0
    2.3163   -1.8632   -1.2854 H   0  0  0  0  0  0  0  0  0  0  0  0
   -0.0540   -2.0629   -0.6500 H   0  0  0  0  0  0  0  0  0  0  0  0
  1  2  1  0
  1  9  1  0
  1 10  1  0
  1 11  1  0
  2  3  1  0
  2 12  1  0
  2 13  1  0
  3  4  2  0
  3  8  1  0
  4  5  1  0
  4 14  1  0
  5  6  2  0
  5 15  1  0
  6  7  1  0
  6 16  1  0
  7  8  2  0
  7 17  1  0
  8 18  1  0
M  END
>  <reaction>  (3) 
rxn_1360

>  <mol_properties>  (3) 
{"0": {"label": "a_hydrogen", "atom_type": "H0"}, "2": {"label": "acceptor", "atom_type": "Cs"}}

>  <type>  (3) 
r2h

$$$$

     RDKit          3D

 26 25  0  0  0  0  0  0  0  0999 V2000
   -0.9270   -2.0018   -2.1348 C   0  0  0  0  0  0  0  0  0  0  0  0
   -1.4652   -1.3193   -1.3067 C   0  0  0  0  0  0  0  0  0  0  0  0
   -2.0325   -0.4673   -0.3064 C   0  0  0  0  0  0  0  0  0  0  0  0
   -3.1913    0.2944   -0.6637 C   0  0  0  0  0  0  0  0  0  0  0  0
   -4.1296    0.9885   -0.9437 C   0  0  0  0  0  0  0  0  0  0  0  0
   -0.4718   -2.6233   -2.8676 H   0  0  0  0  0  0  0  0  0  0  0  0
   -1.0735    0.4377   -0.0680 H   0  0  0  0  0  0  0  0  0  0  0  0
   -2.0974   -0.9342    0.6758 H   0  0  0  0  0  0  0  0  0  0  0  0
   -4.9745    1.5820   -1.1979 H   0  0  0  0  0  0  0  0  0  0  0  0
   -0.0134    1.8678   -1.3871 C   0  0  0  0  0  0  0  0  0  0  0  0
   -0.0713    1.3511    0.0242 C   0  0  0  0  0  0  0  0  0  0  0  0
    1.0420    0.5863    0.5879 C   0  0  0  0  0  0  0  0  0  0  0  0
    1.1629    0.4571    1.9770 C   0  0  0  0  0  3  0  0  0  0  0  0
    2.1725   -0.3011    2.5395 C   0  0  0  0  0  0  0  0  0  0  0  0
    3.0890   -0.9546    1.7262 C   0  0  0  0  0  0  0  0  0  0  0  0
    2.9824   -0.8399    0.3480 C   0  0  0  0  0  0  0  0  0  0  0  0
    1.9707   -0.0821   -0.2165 C   0  0  0  0  0  0  0  0  0  0  0  0
    0.1193    1.0573   -2.1065 H   0  0  0  0  0  0  0  0  0  0  0  0
    0.8151    2.5705   -1.5164 H   0  0  0  0  0  0  0  0  0  0  0  0
   -0.9406    2.3818   -1.6402 H   0  0  0  0  0  0  0  0  0  0  0  0
   -0.5264    2.0405    0.7341 H   0  0  0  0  0  0  0  0  0  0  0  0
    0.4522    0.9674    2.6175 H   0  0  0  0  0  0  0  0  0  0  0  0
    2.2486   -0.3822    3.6166 H   0  0  0  0  0  0  0  0  0  0  0  0
    3.8812   -1.5480    2.1646 H   0  0  0  0  0  0  0  0  0  0  0  0
    3.6928   -1.3467   -0.2933 H   0  0  0  0  0  0  0  0  0  0  0  0
    1.8993   -0.0094   -1.2936 H   0  0  0  0  0  0  0  0  0  0  0  0
  1  2  3  0
  1  6  1  0
  2  3  1  0
  3  4  1  0
  3  7  1  0
  3  8  1  0
  4  5  3  0
  5  9  1  0
 10 11  1  0
 10 18  1  0
 10 19  1  0
 10 20  1  0
 11 12  2  3
 11 21  1  0
 12 13  1  0
 12 17  1  0
 13 14  1  0
 13 22  1  0
 14 15  2  0
 14 23  1  0
 15 16  1  0
 15 24  1  0
 16 17  2  0
 16 25  1  0
 17 26  1  0
M  RAD  1  13   2
M  END
>  <reaction>  (4) 
rxn_1360

>  <mol_properties>  (4) 
{"1": {"label": "*0", "atom_type": "Ct"}, "2": {"label": "*1", "atom_type": "Cs"}, "6": {"label": "*2", "atom_type": "H0"}, "10": {"label": "*3", "atom_type": "Cd"}, "11": {"label": "*4", "atom_type": "Cd"}}

>  <type>  (4) 
ts

$$$$

     RDKit          3D

 26 25  0  0  0  0  0  0  0  0999 V2000
   -1.9048   -1.7275   -2.6640 C   0  0  0  0  0  0  0  0  0  0  0  0
   -1.9048   -1.7275   -1.4685 C   0  0  0  0  0  0  0  0  0  0  0  0
   -1.9048   -1.7275   -0.0055 C   0  0  0  0  0  3  0  0  0  0  0  0
   -3.2188   -1.4519    0.5756 C   0  0  0  0  0  0  0  0  0  0  0  0
   -4.2926   -1.2267    1.0505 C   0  0  0  0  0  0  0  0  0  0  0  0
   -1.9048   -1.7275   -3.7275 H   0  0  0  0  0  0  0  0  0  0  0  0
   -1.0467   -0.8331    0.4255 H   0  0  0  0  0  0  0  0  0  0  0  0
   -1.5495   -2.6973    0.3537 H   0  0  0  0  0  0  0  0  0  0  0  0
   -5.2478   -1.0263    1.4730 H   0  0  0  0  0  0  0  0  0  0  0  0
   -0.9222    1.1006    1.7042 C   0  0  0  0  0  0  0  0  0  0  0  0
   -0.1893    0.0605    0.8561 C   0  0  0  0  0  0  0  0  0  0  0  0
    1.1425    0.5629    0.3643 C   0  0  0  0  0  0  0  0  0  0  0  0
    2.2947    0.3904    1.1249 C   0  0  0  0  0  0  0  0  0  0  0  0
    3.5142    0.8917    0.6966 C   0  0  0  0  0  0  0  0  0  0  0  0
    3.6010    1.5775   -0.5054 C   0  0  0  0  0  0  0  0  0  0  0  0
    2.4606    1.7558   -1.2737 C   0  0  0  0  0  0  0  0  0  0  0  0
    1.2440    1.2520   -0.8401 C   0  0  0  0  0  0  0  0  0  0  0  0
   -1.1040    2.0103    1.1288 H   0  0  0  0  0  0  0  0  0  0  0  0
   -0.3289    1.3746    2.5785 H   0  0  0  0  0  0  0  0  0  0  0  0
   -1.8838    0.7176    2.0504 H   0  0  0  0  0  0  0  0  0  0  0  0
   -0.0412   -0.8484    1.4442 H   0  0  0  0  0  0  0  0  0  0  0  0
    2.2352   -0.1476    2.0647 H   0  0  0  0  0  0  0  0  0  0  0  0
    4.4000    0.7434    1.3017 H   0  0  0  0  0  0  0  0  0  0  0  0
    4.5528    1.9673   -0.8434 H   0  0  0  0  0  0  0  0  0  0  0  0
    2.5189    2.2860   -2.2162 H   0  0  0  0  0  0  0  0  0  0  0  0
    0.3569    1.3928   -1.4480 H   0  0  0  0  0  0  0  0  0  0  0  0
  1  2  3  0
  1  6  1  0
  2  3  1  0
  3  4  1  0
  3  8  1  0
  4  5  3  0
  5  9  1  0
  7 11  1  0
 10 11  1  0
 10 18  1  0
 10 19  1  0
 10 20  1  0
 11 12  1  0
 11 21  1  0
 12 13  2  0
 12 17  1  0
 13 14  1  0
 13 22  1  0
 14 15  2  0
 14 23  1  0
 15 16  1  0
 15 24  1  0
 16 17  2  0
 16 25  1  0
 17 26  1  0
M  RAD  1   3   2
M  END
>  <reaction>  (5) 
rxn_1360

>  <mol_properties>  (5) 
{"1": {"label": "*0", "atom_type": "Ct"}, "2": {"label": "*1", "atom_type": "Cs"}, "6": {"label": "*2", "atom_type": "H0"}, "10": {"label": "*3", "atom_type": "Cd"}, "11": {"label": "*4", "atom_type": "Cd"}}

>  <type>  (5) 
unop_1

>  <geom_source>  (5) 
Heuristics

$$$$

     RDKit          3D

 26 25  0  0  0  0  0  0  0  0999 V2000
   -2.0005   -0.9664   -3.4168 C   0  0  0  0  0  0  0  0  0  0  0  0
   -2.0005   -0.9664   -2.2213 C   0  0  0  0  0  0  0  0  0  0  0  0
   -2.0005   -0.9664   -0.7583 C   0  0  0  0  0  3  0  0  0  0  0  0
   -3.3145   -0.6908   -0.1771 C   0  0  0  0  0  0  0  0  0  0  0  0
   -4.3883   -0.4656    0.2978 C   0  0  0  0  0  0  0  0  0  0  0  0
   -2.0005   -0.9664   -4.4803 H   0  0  0  0  0  0  0  0  0  0  0  0
   -1.1424   -0.0720   -0.3272 H   0  0  0  0  0  0  0  0  0  0  0  0
   -1.6451   -1.9363   -0.3991 H   0  0  0  0  0  0  0  0  0  0  0  0
   -5.3435   -0.2653    0.7202 H   0  0  0  0  0  0  0  0  0  0  0  0
   -0.1890    1.9632   -0.9094 C   0  0  0  0  0  0  0  0  0  0  0  0
   -0.2850    0.8216    0.1034 C   0  0  0  0  0  0  0  0  0  0  0  0
    1.0585    0.4541    0.6762 C   0  0  0  0  0  0  0  0  0  0  0  0
    1.5469    1.0899    1.8133 C   0  0  0  0  0  0  0  0  0  0  0  0
    2.8025    0.7867    2.3167 C   0  0  0  0  0  0  0  0  0  0  0  0
    3.5939   -0.1621    1.6873 C   0  0  0  0  0  0  0  0  0  0  0  0
    3.1190   -0.8040    0.5537 C   0  0  0  0  0  0  0  0  0  0  0  0
    1.8626   -0.4964    0.0551 C   0  0  0  0  0  0  0  0  0  0  0  0
    0.4613    1.6881   -1.7419 H   0  0  0  0  0  0  0  0  0  0  0  0
    0.2284    2.8584   -0.4447 H   0  0  0  0  0  0  0  0  0  0  0  0
   -1.1718    2.2140   -1.3121 H   0  0  0  0  0  0  0  0  0  0  0  0
   -0.9595    1.1102    0.9131 H   0  0  0  0  0  0  0  0  0  0  0  0
    0.9324    1.8309    2.3129 H   0  0  0  0  0  0  0  0  0  0  0  0
    3.1625    1.2904    3.2053 H   0  0  0  0  0  0  0  0  0  0  0  0
    4.5735   -0.4026    2.0803 H   0  0  0  0  0  0  0  0  0  0  0  0
    3.7277   -1.5497    0.0575 H   0  0  0  0  0  0  0  0  0  0  0  0
    1.4967   -1.0050   -0.8303 H   0  0  0  0  0  0  0  0  0  0  0  0
  1  2  3  0
  1  6  1  0
  2  3  1  0
  3  4  1  0
  3  8  1  0
  4  5  3  0
  5  9  1  0
  7 11  1  0
 10 11  1  0
 10 18  1  0
 10 19  1  0
 10 20  1  0
 11 12  1  0
 11 21  1  0
 12 13  2  0
 12 17  1  0
 13 14  1  0
 13 22  1  0
 14 15  2  0
 14 23  1  0
 15 16  1  0
 15 24  1  0
 16 17  2  0
 16 25  1  0
 17 26  1  0
M  RAD  1   3   2
M  END
>  <reaction>  (6) 
rxn_1360

>  <mol_properties>  (6) 
{"1": {"label": "*0", "atom_type": "Ct"}, "2": {"label": "*1", "atom_type": "Cs"}, "6": {"label": "*2", "atom_type": "H0"}, "10": {"label": "*3", "atom_type": "Cd"}, "11": {"label": "*4", "atom_type": "Cd"}}

>  <type>  (6) 
unop_2

>  <geom_source>  (6) 
Heuristics

$$$$

     RDKit          3D

 26 25  0  0  0  0  0  0  0  0999 V2000
   -1.4395   -2.1375   -2.4486 C   0  0  0  0  0  0  0  0  0  0  0  0
   -1.4395   -2.1375   -1.2531 C   0  0  0  0  0  0  0  0  0  0  0  0
   -1.4395   -2.1375    0.2099 C   0  0  0  0  0  3  0  0  0  0  0  0
   -2.7535   -1.8619    0.7910 C   0  0  0  0  0  0  0  0  0  0  0  0
   -3.8273   -1.6367    1.2659 C   0  0  0  0  0  0  0  0  0  0  0  0
   -1.4395   -2.1375   -3.5121 H   0  0  0  0  0  0  0  0  0  0  0  0
   -0.5814   -1.2431    0.6409 H   0  0  0  0  0  0  0  0  0  0  0  0
   -1.0842   -3.1074    0.5691 H   0  0  0  0  0  0  0  0  0  0  0  0
   -4.7825   -1.4363    1.6884 H   0  0  0  0  0  0  0  0  0  0  0  0
   -0.1961    0.2001    2.4182 C   0  0  0  0  0  0  0  0  0  0  0  0
    0.2760   -0.3495    1.0716 C   0  0  0  0  0  0  0  0  0  0  0  0
    1.0536    0.6699    0.2815 C   0  0  0  0  0  0  0  0  0  0  0  0
    2.4313    0.7904    0.4339 C   0  0  0  0  0  0  0  0  0  0  0  0
    3.1438    1.7580   -0.2574 C   0  0  0  0  0  0  0  0  0  0  0  0
    2.4861    2.6253   -1.1164 C   0  0  0  0  0  0  0  0  0  0  0  0
    1.1134    2.5157   -1.2783 C   0  0  0  0  0  0  0  0  0  0  0  0
    0.4064    1.5460   -0.5842 C   0  0  0  0  0  0  0  0  0  0  0  0
   -0.8401    1.0700    2.2766 H   0  0  0  0  0  0  0  0  0  0  0  0
    0.6538    0.5126    3.0278 H   0  0  0  0  0  0  0  0  0  0  0  0
   -0.7568   -0.5531    2.9745 H   0  0  0  0  0  0  0  0  0  0  0  0
    0.8972   -1.2329    1.2375 H   0  0  0  0  0  0  0  0  0  0  0  0
    2.9531    0.1136    1.1017 H   0  0  0  0  0  0  0  0  0  0  0  0
    4.2164    1.8327   -0.1275 H   0  0  0  0  0  0  0  0  0  0  0  0
    3.0408    3.3799   -1.6596 H   0  0  0  0  0  0  0  0  0  0  0  0
    0.5912    3.1854   -1.9503 H   0  0  0  0  0  0  0  0  0  0  0  0
   -0.6667    1.4643   -0.7184 H   0  0  0  0  0  0  0  0  0  0  0  0
  1  2  3  0
  1  6  1  0
  2  3  1  0
  3  4  1  0
  3  8  1  0
  4  5  3  0
  5  9  1  0
  7 11  1  0
 10 11  1  0
 10 18  1  0
 10 19  1  0
 10 20  1  0
 11 12  1  0
 11 21  1  0
 12 13  2  0
 12 17  1  0
 13 14  1  0
 13 22  1  0
 14 15  2  0
 14 23  1  0
 15 16  1  0
 15 24  1  0
 16 17  2  0
 16 25  1  0
 17 26  1  0
M  RAD  1   3   2
M  END
>  <reaction>  (7) 
rxn_1360

>  <mol_properties>  (7) 
{"1": {"label": "*0", "atom_type": "Ct"}, "2": {"label": "*1", "atom_type": "Cs"}, "6": {"label": "*2", "atom_type": "H0"}, "10": {"label": "*3", "atom_type": "Cd"}, "11": {"label": "*4", "atom_type": "Cd"}}

>  <type>  (7) 
unop_3

>  <geom_source>  (7) 
Heuristics

$$$$

     RDKit          3D

 26 25  0  0  0  0  0  0  0  0999 V2000
   -0.6806   -0.5660   -4.1469 C   0  0  0  0  0  0  0  0  0  0  0  0
   -0.6806   -0.5660   -2.9515 C   0  0  0  0  0  0  0  0  0  0  0  0
   -0.6806   -0.5660   -1.4885 C   0  0  0  0  0  3  0  0  0  0  0  0
   -1.9946   -0.2904   -0.9073 C   0  0  0  0  0  0  0  0  0  0  0  0
   -3.0684   -0.0652   -0.4324 C   0  0  0  0  0  0  0  0  0  0  0  0
   -0.6806   -0.5660   -5.2104 H   0  0  0  0  0  0  0  0  0  0  0  0
    0.1776    0.3284   -1.0574 H   0  0  0  0  0  0  0  0  0  0  0  0
   -0.3252   -1.5359   -1.1293 H   0  0  0  0  0  0  0  0  0  0  0  0
   -4.0235    0.1351   -0.0099 H   0  0  0  0  0  0  0  0  0  0  0  0
    2.4325    0.8745   -1.1409 C   0  0  0  0  0  0  0  0  0  0  0  0
    1.0349    1.2220   -0.6268 C   0  0  0  0  0  0  0  0  0  0  0  0
    0.7432    0.5829    0.7054 C   0  0  0  0  0  0  0  0  0  0  0  0
    1.0698    1.2297    1.8932 C   0  0  0  0  0  0  0  0  0  0  0  0
    0.8448    0.6250    3.1202 C   0  0  0  0  0  0  0  0  0  0  0  0
    0.2866   -0.6430    3.1790 C   0  0  0  0  0  0  0  0  0  0  0  0
   -0.0445   -1.2985    2.0028 C   0  0  0  0  0  0  0  0  0  0  0  0
    0.1830   -0.6885    0.7789 C   0  0  0  0  0  0  0  0  0  0  0  0
    2.5433   -0.2048   -1.2607 H   0  0  0  0  0  0  0  0  0  0  0  0
    3.1976    1.2104   -0.4386 H   0  0  0  0  0  0  0  0  0  0  0  0
    2.6240    1.3467   -2.1061 H   0  0  0  0  0  0  0  0  0  0  0  0
    0.9396    2.3068   -0.5390 H   0  0  0  0  0  0  0  0  0  0  0  0
    1.5039    2.2229    1.8553 H   0  0  0  0  0  0  0  0  0  0  0  0
    1.1027    1.1470    4.0333 H   0  0  0  0  0  0  0  0  0  0  0  0
    0.1072   -1.1160    4.1361 H   0  0  0  0  0  0  0  0  0  0  0  0
   -0.4850   -2.2872    2.0384 H   0  0  0  0  0  0  0  0  0  0  0  0
   -0.0814   -1.2062   -0.1367 H   0  0  0  0  0  0  0  0  0  0  0  0
  1  2  3  0
  1  6  1  0
  2  3  1  0
  3  4  1  0
  3  8  1  0
  4  5  3  0
  5  9  1  0
  7 11  1  0
 10 11  1  0
 10 18  1  0
 10 19  1  0
 10 20  1  0
 11 12  1  0
 11 21  1  0
 12 13  2  0
 12 17  1  0
 13 14  1  0
 13 22  1  0
 14 15  2  0
 14 23  1  0
 15 16  1  0
 15 24  1  0
 16 17  2  0
 16 25  1  0
 17 26  1  0
M  RAD  1   3   2
M  END
>  <reaction>  (8) 
rxn_1360

>  <mol_properties>  (8) 
{"1": {"label": "*0", "atom_type": "Ct"}, "2": {"label": "*1", "atom_type": "Cs"}, "6": {"label": "*2", "atom_type": "H0"}, "10": {"label": "*3", "atom_type": "Cd"}, "11": {"label": "*4", "atom_type": "Cd"}}

>  <type>  (8) 
unop_4

>  <geom_source>  (8) 
Heuristics

$$$$

     RDKit          3D

 26 25  0  0  0  0  0  0  0  0999 V2000
   -0.4832   -2.3763   -2.6602 C   0  0  0  0  0  0  0  0  0  0  0  0
   -0.4832   -2.3763   -1.4647 C   0  0  0  0  0  0  0  0  0  0  0  0
   -0.4832   -2.3763   -0.0018 C   0  0  0  0  0  3  0  0  0  0  0  0
   -1.7973   -2.1007    0.5794 C   0  0  0  0  0  0  0  0  0  0  0  0
   -2.8710   -1.8755    1.0543 C   0  0  0  0  0  0  0  0  0  0  0  0
   -0.4832   -2.3763   -3.7237 H   0  0  0  0  0  0  0  0  0  0  0  0
    0.3749   -1.4819    0.4293 H   0  0  0  0  0  0  0  0  0  0  0  0
   -0.1279   -3.3461    0.3574 H   0  0  0  0  0  0  0  0  0  0  0  0
   -3.8262   -1.6751    1.4768 H   0  0  0  0  0  0  0  0  0  0  0  0
    1.2366   -0.5837    2.3890 C   0  0  0  0  0  0  0  0  0  0  0  0
    1.2323   -0.5883    0.8599 C   0  0  0  0  0  0  0  0  0  0  0  0
    0.8821    0.7600    0.2875 C   0  0  0  0  0  0  0  0  0  0  0  0
    1.8709    1.7055    0.0341 C   0  0  0  0  0  0  0  0  0  0  0  0
    1.5477    2.9639   -0.4497 C   0  0  0  0  0  0  0  0  0  0  0  0
    0.2234    3.2983   -0.6887 C   0  0  0  0  0  0  0  0  0  0  0  0
   -0.7719    2.3651   -0.4412 C   0  0  0  0  0  0  0  0  0  0  0  0
   -0.4424    1.1085    0.0425 C   0  0  0  0  0  0  0  0  0  0  0  0
    0.2557   -0.3041    2.7778 H   0  0  0  0  0  0  0  0  0  0  0  0
    1.9623    0.1364    2.7716 H   0  0  0  0  0  0  0  0  0  0  0  0
    1.4923   -1.5687    2.7835 H   0  0  0  0  0  0  0  0  0  0  0  0
    2.2154   -0.8948    0.4949 H   0  0  0  0  0  0  0  0  0  0  0  0
    2.9092    1.4502    0.2156 H   0  0  0  0  0  0  0  0  0  0  0  0
    2.3327    3.6842   -0.6440 H   0  0  0  0  0  0  0  0  0  0  0  0
   -0.0312    4.2794   -1.0692 H   0  0  0  0  0  0  0  0  0  0  0  0
   -1.8087    2.6152   -0.6289 H   0  0  0  0  0  0  0  0  0  0  0  0
   -1.2261    0.3828    0.2307 H   0  0  0  0  0  0  0  0  0  0  0  0
  1  2  3  0
  1  6  1  0
  2  3  1  0
  3  4  1  0
  3  8  1  0
  4  5  3  0
  5  9  1  0
  7 11  1  0
 10 11  1  0
 10 18  1  0
 10 19  1  0
 10 20  1  0
 11 12  1  0
 11 21  1  0
 12 13  2  0
 12 17  1  0
 13 14  1  0
 13 22  1  0
 14 15  2  0
 14 23  1  0
 15 16  1  0
 15 24  1  0
 16 17  2  0
 16 25  1  0
 17 26  1  0
M  RAD  1   3   2
M  END
>  <reaction>  (9) 
rxn_1360

>  <mol_properties>  (9) 
{"1": {"label": "*0", "atom_type": "Ct"}, "2": {"label": "*1", "atom_type": "Cs"}, "6": {"label": "*2", "atom_type": "H0"}, "10": {"label": "*3", "atom_type": "Cd"}, "11": {"label": "*4", "atom_type": "Cd"}}

>  <type>  (9) 
unop_5

>  <geom_source>  (9) 
Heuristics

$$$$

     RDKit          3D

 26 24  0  0  0  0  0  0  0  0999 V2000
   -0.1414   -0.8916   -4.0919 C   0  0  0  0  0  3  0  0  0  0  0  0
   -0.1414   -0.8916   -2.8965 C   0  0  0  0  0  0  0  0  0  0  0  0
   -0.1414   -0.8916   -1.4335 C   0  0  0  0  0  3  0  0  0  0  0  0
   -1.4554   -0.6160   -0.8523 C   0  0  0  0  0  3  0  0  0  0  0  0
   -2.5292   -0.3907   -0.3774 C   0  0  0  0  0  0  0  0  0  0  0  0
   -0.1414   -0.8916   -5.1554 H   0  0  0  0  0  0  0  0  0  0  0  0
    0.7167    0.0028   -1.0024 H   0  0  0  0  0  0  0  0  0  0  0  0
    0.2140   -1.8614   -1.0743 H   0  0  0  0  0  0  0  0  0  0  0  0
   -3.4844   -0.1904    0.0451 H   0  0  0  0  0  0  0  0  0  0  0  0
    2.9471    0.2443   -0.4049 C   0  0  0  0  0  0  0  0  0  0  0  0
    1.5741    0.8964   -0.5718 C   0  0  0  0  0  0  0  0  0  0  0  0
    0.6820    0.6578    0.6180 C   0  0  0  0  0  0  0  0  0  0  0  0
    0.6892    1.5312    1.7010 C   0  0  0  0  0  0  0  0  0  0  0  0
   -0.0967    1.2901    2.8173 C   0  0  0  0  0  0  0  0  0  0  0  0
   -0.9063    0.1655    2.8685 C   0  0  0  0  0  0  0  0  0  0  0  0
   -0.9237   -0.7127    1.7956 C   0  0  0  0  0  0  0  0  0  0  0  0
   -0.1356   -0.4661    0.6821 C   0  0  0  0  0  0  0  0  0  0  0  0
    2.8495   -0.8352   -0.2760 H   0  0  0  0  0  0  0  0  0  0  0  0
    3.4579    0.6383    0.4757 H   0  0  0  0  0  0  0  0  0  0  0  0
    3.5775    0.4287   -1.2764 H   0  0  0  0  0  0  0  0  0  0  0  0
    1.6986    1.9712   -0.7239 H   0  0  0  0  0  0  0  0  0  0  0  0
    1.3175    2.4145    1.6670 H   0  0  0  0  0  0  0  0  0  0  0  0
   -0.0795    1.9844    3.6483 H   0  0  0  0  0  0  0  0  0  0  0  0
   -1.5231   -0.0233    3.7379 H   0  0  0  0  0  0  0  0  0  0  0  0
   -1.5560   -1.5914    1.8241 H   0  0  0  0  0  0  0  0  0  0  0  0
   -0.1568   -1.1560   -0.1545 H   0  0  0  0  0  0  0  0  0  0  0  0
  1  2  2  0
  1  6  1  0
  2  3  2  0
  3  8  1  0
  4  5  3  0
  5  9  1  0
  7 11  1  0
 10 11  1  0
 10 18  1  0
 10 19  1  0
 10 20  1  0
 11 12  1  0
 11 21  1  0
 12 13  2  0
 12 17  1  0
 13 14  1  0
 13 22  1  0
 14 15  2  0
 14 23  1  0
 15 16  1  0
 15 24  1  0
 16 17  2  0
 16 25  1  0
 17 26  1  0
M  CHG  2   1   1   3  -1
M  RAD  1   4   2
M  END
>  <reaction>  (10) 
rxn_1360

>  <mol_properties>  (10) 
{"1": {"label": "*0", "atom_type": "Ct"}, "2": {"label": "*1", "atom_type": "Cs"}, "6": {"label": "*2", "atom_type": "H0"}, "10": {"label": "*3", "atom_type": "Cd"}, "11": {"label": "*4", "atom_type": "Cd"}}

>  <type>  (10) 
unop_6

>  <geom_source>  (10) 
Heuristics

$$$$

     RDKit          3D

 26 24  0  0  0  0  0  0  0  0999 V2000
    0.2091   -1.3657   -3.8052 C   0  0  0  0  0  3  0  0  0  0  0  0
    0.2091   -1.3657   -2.6097 C   0  0  0  0  0  0  0  0  0  0  0  0
    0.2091   -1.3657   -1.1467 C   0  0  0  0  0  3  0  0  0  0  0  0
   -1.1049   -1.0901   -0.5655 C   0  0  0  0  0  0  0  0  0  0  0  0
   -2.1787   -0.8649   -0.0906 C   0  0  0  0  0  0  0  0  0  0  0  0
    0.2091   -1.3657   -4.8687 H   0  0  0  0  0  0  0  0  0  0  0  0
    1.0673   -0.4713   -0.7156 H   0  0  0  0  0  0  0  0  0  0  0  0
    0.5645   -2.3355   -0.7875 H   0  0  0  0  0  0  0  0  0  0  0  0
   -3.1338   -0.6645    0.3318 H   0  0  0  0  0  0  0  0  0  0  0  0
    2.9942   -0.2669    0.5630 C   0  0  0  0  0  0  0  0  0  0  0  0
    1.9246    0.4223   -0.2850 C   0  0  0  0  0  0  0  0  0  0  0  0
    0.6762    0.7185    0.5036 C   0  0  0  0  0  0  0  0  0  0  0  0
    0.5403    1.9148    1.2007 C   0  0  0  0  0  0  0  0  0  0  0  0
   -0.5877    2.1714    1.9647 C   0  0  0  0  0  0  0  0  0  0  0  0
   -1.6029    1.2303    2.0443 C   0  0  0  0  0  0  0  0  0  0  0  0
   -1.4807    0.0340    1.3538 C   0  0  0  0  0  0  0  0  0  0  0  0
   -0.3502   -0.2167    0.5915 C   0  0  0  0  0  3  0  0  0  0  0  0
    2.6222   -1.2130    0.9608 H   0  0  0  0  0  0  0  0  0  0  0  0
    3.2792    0.3596    1.4102 H   0  0  0  0  0  0  0  0  0  0  0  0
    3.8896   -0.4726   -0.0261 H   0  0  0  0  0  0  0  0  0  0  0  0
    2.3277    1.3528   -0.6919 H   0  0  0  0  0  0  0  0  0  0  0  0
    1.3287    2.6571    1.1408 H   0  0  0  0  0  0  0  0  0  0  0  0
   -0.6758    3.1106    2.4967 H   0  0  0  0  0  0  0  0  0  0  0  0
   -2.4861    1.4296    2.6379 H   0  0  0  0  0  0  0  0  0  0  0  0
   -2.2701   -0.7055    1.4060 H   0  0  0  0  0  0  0  0  0  0  0  0
   -0.2632   -1.1533    0.0517 H   0  0  0  0  0  0  0  0  0  0  0  0
  1  2  2  0
  1  6  1  0
  2  3  2  0
  3  8  1  0
  4  5  3  0
  4 26  1  0
  5  9  1  0
  7 11  1  0
 10 11  1  0
 10 18  1  0
 10 19  1  0
 10 20  1  0
 11 12  1  0
 11 21  1  0
 12 13  2  0
 12 17  1  0
 13 14  1  0
 13 22  1  0
 14 15  2  0
 14 23  1  0
 15 16  1  0
 15 24  1  0
 16 17  2  0
 16 25  1  0
M  CHG  2   1   1   3  -1
M  RAD  1  17   2
M  END
>  <reaction>  (11) 
rxn_1360

>  <mol_properties>  (11) 
{"1": {"label": "*0", "atom_type": "Ct"}, "2": {"label": "*1", "atom_type": "Cs"}, "6": {"label": "*2", "atom_type": "H0"}, "10": {"label": "*3", "atom_type": "Cd"}, "11": {"label": "*4", "atom_type": "Cd"}}

>  <type>  (11) 
unop_7

>  <geom_source>  (11) 
Heuristics

$$$$

     RDKit          3D

 26 25  0  0  0  0  0  0  0  0999 V2000
   -2.0519   -1.4479   -2.9511 C   0  0  0  0  0  0  0  0  0  0  0  0
   -2.0519   -1.4479   -1.7556 C   0  0  0  0  0  0  0  0  0  0  0  0
   -2.0519   -1.4479   -0.2926 C   0  0  0  0  0  3  0  0  0  0  0  0
   -3.3659   -1.1723    0.2885 C   0  0  0  0  0  0  0  0  0  0  0  0
   -4.4396   -0.9471    0.7634 C   0  0  0  0  0  0  0  0  0  0  0  0
   -2.0519   -1.4479   -4.0146 H   0  0  0  0  0  0  0  0  0  0  0  0
   -1.1937   -0.5535    0.1384 H   0  0  0  0  0  0  0  0  0  0  0  0
   -1.6965   -2.4178    0.0666 H   0  0  0  0  0  0  0  0  0  0  0  0
   -5.3948   -0.7468    1.1859 H   0  0  0  0  0  0  0  0  0  0  0  0
   -1.0447    1.6849    0.7360 C   0  0  0  0  0  0  0  0  0  0  0  0
   -0.3364    0.3401    0.5690 C   0  0  0  0  0  0  0  0  0  0  0  0
    1.1593    0.4916    0.4786 C   0  0  0  0  0  0  0  0  0  0  0  0
    1.9474    0.4827    1.6252 C   0  0  0  0  0  0  0  0  0  0  0  0
    3.3192    0.6678    1.5496 C   0  0  0  0  0  0  0  0  0  0  0  0
    3.9278    0.8661    0.3195 C   0  0  0  0  0  0  0  0  0  0  0  0
    3.1542    0.8764   -0.8312 C   0  0  0  0  0  0  0  0  0  0  0  0
    1.7828    0.6907   -0.7491 C   0  0  0  0  0  0  0  0  0  0  0  0
   -0.8295    2.3428   -0.1081 H   0  0  0  0  0  0  0  0  0  0  0  0
   -0.7081    2.1894    1.6436 H   0  0  0  0  0  0  0  0  0  0  0  0
   -2.1263    1.5534    0.7994 H   0  0  0  0  0  0  0  0  0  0  0  0
   -0.5864   -0.3091    1.4116 H   0  0  0  0  0  0  0  0  0  0  0  0
    1.4790    0.3251    2.5906 H   0  0  0  0  0  0  0  0  0  0  0  0
    3.9153    0.6536    2.4537 H   0  0  0  0  0  0  0  0  0  0  0  0
    4.9993    1.0079    0.2577 H   0  0  0  0  0  0  0  0  0  0  0  0
    3.6206    1.0261   -1.7971 H   0  0  0  0  0  0  0  0  0  0  0  0
    1.1848    0.6970   -1.6538 H   0  0  0  0  0  0  0  0  0  0  0  0
  1  2  3  0
  1  6  1  0
  2  3  1  0
  3  4  1  0
  3  8  1  0
  4  5  3  0
  5  9  1  0
  7 11  1  0
 10 11  1  0
 10 18  1  0
 10 19  1  0
 10 20  1  0
 11 12  1  0
 11 21  1  0
 12 13  2  0
 12 17  1  0
 13 14  1  0
 13 22  1  0
 14 15  2  0
 14 23  1  0
 15 16  1  0
 15 24  1  0
 16 17  2  0
 16 25  1  0
 17 26  1  0
M  RAD  1   3   2
M  END
>  <reaction>  (12) 
rxn_1360

>  <mol_properties>  (12) 
{"1": {"label": "*0", "atom_type": "Ct"}, "2": {"label": "*1", "atom_type": "Cs"}, "6": {"label": "*2", "atom_type": "H0"}, "10": {"label": "*3", "atom_type": "Cd"}, "11": {"label": "*4", "atom_type": "Cd"}}

>  <type>  (12) 
unop_8

>  <geom_source>  (12) 
Heuristics

$$$$

     RDKit          3D

 26 25  0  0  0  0  0  0  0  0999 V2000
   -1.2800   -0.4735   -3.9822 C   0  0  0  0  0  0  0  0  0  0  0  0
   -1.2800   -0.4735   -2.7867 C   0  0  0  0  0  0  0  0  0  0  0  0
   -1.2800   -0.4735   -1.3237 C   0  0  0  0  0  3  0  0  0  0  0  0
   -2.5940   -0.1979   -0.7426 C   0  0  0  0  0  0  0  0  0  0  0  0
   -3.6677    0.0274   -0.2677 C   0  0  0  0  0  0  0  0  0  0  0  0
   -1.2800   -0.4735   -5.0457 H   0  0  0  0  0  0  0  0  0  0  0  0
   -0.4218    0.4209   -0.8927 H   0  0  0  0  0  0  0  0  0  0  0  0
   -0.9246   -1.4433   -0.9645 H   0  0  0  0  0  0  0  0  0  0  0  0
   -4.6229    0.2277    0.1548 H   0  0  0  0  0  0  0  0  0  0  0  0
    1.5722    1.4577   -1.4748 C   0  0  0  0  0  0  0  0  0  0  0  0
    0.4355    1.3145   -0.4620 C   0  0  0  0  0  0  0  0  0  0  0  0
    0.8461    0.5132    0.7453 C   0  0  0  0  0  0  0  0  0  0  0  0
    1.4199    1.1330    1.8509 C   0  0  0  0  0  0  0  0  0  0  0  0
    1.8410    0.3932    2.9451 C   0  0  0  0  0  0  0  0  0  0  0  0
    1.6944   -0.9856    2.9507 C   0  0  0  0  0  0  0  0  0  0  0  0
    1.1233   -1.6160    1.8556 C   0  0  0  0  0  0  0  0  0  0  0  0
    0.7042   -0.8707    0.7644 C   0  0  0  0  0  0  0  0  0  0  0  0
    1.9038    0.4785   -1.8251 H   0  0  0  0  0  0  0  0  0  0  0  0
    2.4318    1.9567   -1.0235 H   0  0  0  0  0  0  0  0  0  0  0  0
    1.2547    2.0408   -2.3410 H   0  0  0  0  0  0  0  0  0  0  0  0
    0.1042    2.3064   -0.1454 H   0  0  0  0  0  0  0  0  0  0  0  0
    1.5350    2.2115    1.8551 H   0  0  0  0  0  0  0  0  0  0  0  0
    2.2817    0.8954    3.7974 H   0  0  0  0  0  0  0  0  0  0  0  0
    2.0197   -1.5652    3.8052 H   0  0  0  0  0  0  0  0  0  0  0  0
    1.0004   -2.6920    1.8522 H   0  0  0  0  0  0  0  0  0  0  0  0
    0.2556   -1.3705   -0.0872 H   0  0  0  0  0  0  0  0  0  0  0  0
  1  2  3  0
  1  6  1  0
  2  3  1  0
  3  4  1  0
  3  8  1  0
  4  5  3  0
  5  9  1  0
  7 11  1  0
 10 11  1  0
 10 18  1  0
 10 19  1  0
 10 20  1  0
 11 12  1  0
 11 21  1  0
 12 13  2  0
 12 17  1  0
 13 14  1  0
 13 22  1  0
 14 15  2  0
 14 23  1  0
 15 16  1  0
 15 24  1  0
 16 17  2  0
 16 25  1  0
 17 26  1  0
M  RAD  1   3   2
M  END
>  <reaction>  (13) 
rxn_1360

>  <mol_properties>  (13) 
{"1": {"label": "*0", "atom_type": "Ct"}, "2": {"label": "*1", "atom_type": "Cs"}, "6": {"label": "*2", "atom_type": "H0"}, "10": {"label": "*3", "atom_type": "Cd"}, "11": {"label": "*4", "atom_type": "Cd"}}

>  <type>  (13) 
unop_9

>  <geom_source>  (13) 
Heuristics

$$$$

     RDKit          3D

 26 25  0  0  0  0  0  0  0  0999 V2000
   -2.0687   -1.2303   -3.1939 C   0  0  0  0  0  0  0  0  0  0  0  0
   -2.0687   -1.2303   -1.9984 C   0  0  0  0  0  0  0  0  0  0  0  0
   -2.0687   -1.2303   -0.5354 C   0  0  0  0  0  3  0  0  0  0  0  0
   -3.3828   -0.9547    0.0458 C   0  0  0  0  0  0  0  0  0  0  0  0
   -4.4565   -0.7295    0.5207 C   0  0  0  0  0  0  0  0  0  0  0  0
   -2.0687   -1.2303   -4.2574 H   0  0  0  0  0  0  0  0  0  0  0  0
   -1.2106   -0.3359   -0.1043 H   0  0  0  0  0  0  0  0  0  0  0  0
   -1.7134   -2.2002   -0.1762 H   0  0  0  0  0  0  0  0  0  0  0  0
   -5.4117   -0.5291    0.9431 H   0  0  0  0  0  0  0  0  0  0  0  0
   -0.7582    1.9397   -0.1879 C   0  0  0  0  0  0  0  0  0  0  0  0
   -0.3532    0.5577    0.3263 C   0  0  0  0  0  0  0  0  0  0  0  0
    1.1264    0.4590    0.5890 C   0  0  0  0  0  0  0  0  0  0  0  0
    1.6546    0.8012    1.8299 C   0  0  0  0  0  0  0  0  0  0  0  0
    3.0207    0.7554    2.0611 C   0  0  0  0  0  0  0  0  0  0  0  0
    3.8849    0.3647    1.0495 C   0  0  0  0  0  0  0  0  0  0  0  0
    3.3717    0.0201   -0.1917 C   0  0  0  0  0  0  0  0  0  0  0  0
    2.0046    0.0679   -0.4168 C   0  0  0  0  0  0  0  0  0  0  0  0
   -0.2406    2.1724   -1.1203 H   0  0  0  0  0  0  0  0  0  0  0  0
   -0.4988    2.7134    0.5371 H   0  0  0  0  0  0  0  0  0  0  0  0
   -1.8327    1.9904   -0.3718 H   0  0  0  0  0  0  0  0  0  0  0  0
   -0.9018    0.3370    1.2451 H   0  0  0  0  0  0  0  0  0  0  0  0
    0.9847    1.1048    2.6269 H   0  0  0  0  0  0  0  0  0  0  0  0
    3.4114    1.0222    3.0353 H   0  0  0  0  0  0  0  0  0  0  0  0
    4.9518    0.3254    1.2286 H   0  0  0  0  0  0  0  0  0  0  0  0
    4.0380   -0.2906   -0.9869 H   0  0  0  0  0  0  0  0  0  0  0  0
    1.6104   -0.2061   -1.3893 H   0  0  0  0  0  0  0  0  0  0  0  0
  1  2  3  0
  1  6  1  0
  2  3  1  0
  3  4  1  0
  3  8  1  0
  4  5  3  0
  5  9  1  0
  7 11  1  0
 10 11  1  0
 10 18  1  0
 10 19  1  0
 10 20  1  0
 11 12  1  0
 11 21  1  0
 12 13  2  0
 12 17  1  0
 13 14  1  0
 13 22  1  0
 14 15  2  0
 14 23  1  0
 15 16  1  0
 15 24  1  0
 16 17  2  0
 16 25  1  0
 17 26  1  0
M  RAD  1   3   2
M  END
>  <reaction>  (14) 
rxn_1360

>  <mol_properties>  (14) 
{"1": {"label": "*0", "atom_type": "Ct"}, "2": {"label": "*1", "atom_type": "Cs"}, "6": {"label": "*2", "atom_type": "H0"}, "10": {"label": "*3", "atom_type": "Cd"}, "11": {"label": "*4", "atom_type": "Cd"}}

>  <type>  (14) 
unop_10

>  <geom_source>  (14) 
Heuristics

$$$$

     RDKit          3D

 26 25  0  0  0  0  0  0  0  0999 V2000
    0.2050   -1.9438   -3.2945 C   0  0  0  0  0  3  0  0  0  0  0  0
    0.2050   -1.9438   -2.0990 C   0  0  0  0  0  0  0  0  0  0  0  0
    0.2050   -1.9438   -0.6360 C   0  0  0  0  0  0  0  0  0  0  0  0
   -1.1090   -1.6682   -0.0548 C   0  0  0  0  0  0  0  0  0  0  0  0
   -2.1828   -1.4430    0.4201 C   0  0  0  0  0  3  0  0  0  0  0  0
    0.2050   -1.9438   -4.3580 H   0  0  0  0  0  0  0  0  0  0  0  0
    1.0631   -1.0494   -0.2049 H   0  0  0  0  0  0  0  0  0  0  0  0
    0.5604   -2.9136   -0.2768 H   0  0  0  0  0  0  0  0  0  0  0  0
   -3.1380   -1.2426    0.8425 H   0  0  0  0  0  0  0  0  0  0  0  0
    2.4891   -0.6047    1.5723 C   0  0  0  0  0  0  0  0  0  0  0  0
    1.9205   -0.1558    0.2257 C   0  0  0  0  0  0  0  0  0  0  0  0
    0.7350    0.7593    0.3848 C   0  0  0  0  0  0  0  0  0  0  0  0
    0.9061    2.1361    0.4901 C   0  0  0  0  0  0  0  0  0  0  0  0
   -0.1789    2.9773    0.6826 C   0  0  0  0  0  0  0  0  0  0  0  0
   -1.4589    2.4521    0.7735 C   0  0  0  0  0  0  0  0  0  0  0  0
   -1.6438    1.0819    0.6693 C   0  0  0  0  0  0  0  0  0  0  0  0
   -0.5548    0.2458    0.4769 C   0  0  0  0  0  3  0  0  0  0  0  0
    1.7344   -1.1392    2.1521 H   0  0  0  0  0  0  0  0  0  0  0  0
    2.8122    0.2554    2.1618 H   0  0  0  0  0  0  0  0  0  0  0  0
    3.3463   -1.2662    1.4353 H   0  0  0  0  0  0  0  0  0  0  0  0
    2.6998    0.3539   -0.3459 H   0  0  0  0  0  0  0  0  0  0  0  0
    1.9040    2.5545    0.4169 H   0  0  0  0  0  0  0  0  0  0  0  0
   -0.0246    4.0466    0.7582 H   0  0  0  0  0  0  0  0  0  0  0  0
   -2.3081    3.1073    0.9209 H   0  0  0  0  0  0  0  0  0  0  0  0
   -2.6401    0.6624    0.7346 H   0  0  0  0  0  0  0  0  0  0  0  0
   -0.7076   -0.8247    0.3933 H   0  0  0  0  0  0  0  0  0  0  0  0
  1  2  2  0
  1  6  1  0
  2  3  2  0
  3  4  1  0
  3  8  1  0
  4  5  2  3
  4 26  1  0
  5  9  1  0
  7 11  1  0
 10 11  1  0
 10 18  1  0
 10 19  1  0
 10 20  1  0
 11 12  1  0
 11 21  1  0
 12 13  2  0
 12 17  1  0
 13 14  1  0
 13 22  1  0
 14 15  2  0
 14 23  1  0
 15 16  1  0
 15 24  1  0
 16 17  2  0
 16 25  1  0
M  CHG  2   1   1   5  -1
M  RAD  1  17   2
M  END
>  <reaction>  (15) 
rxn_1360

>  <mol_properties>  (15) 
{"1": {"label": "*0", "atom_type": "Ct"}, "2": {"label": "*1", "atom_type": "Cs"}, "6": {"label": "*2", "atom_type": "H0"}, "10": {"label": "*3", "atom_type": "Cd"}, "11": {"label": "*4", "atom_type": "Cd"}}

>  <type>  (15) 
unop_11

>  <geom_source>  (15) 
Heuristics

$$$$

     RDKit          3D

 26 25  0  0  0  0  0  0  0  0999 V2000
   -1.7607   -0.6541   -3.6906 C   0  0  0  0  0  0  0  0  0  0  0  0
   -1.7607   -0.6541   -2.4951 C   0  0  0  0  0  0  0  0  0  0  0  0
   -1.7607   -0.6541   -1.0321 C   0  0  0  0  0  3  0  0  0  0  0  0
   -3.0747   -0.3785   -0.4509 C   0  0  0  0  0  0  0  0  0  0  0  0
   -4.1484   -0.1533    0.0240 C   0  0  0  0  0  0  0  0  0  0  0  0
   -1.7607   -0.6541   -4.7541 H   0  0  0  0  0  0  0  0  0  0  0  0
   -0.9025    0.2403   -0.6010 H   0  0  0  0  0  0  0  0  0  0  0  0
   -1.4053   -1.6240   -0.6729 H   0  0  0  0  0  0  0  0  0  0  0  0
   -5.1036    0.0470    0.4464 H   0  0  0  0  0  0  0  0  0  0  0  0
    0.6151    1.8220   -1.3656 C   0  0  0  0  0  0  0  0  0  0  0  0
   -0.0452    1.1339   -0.1704 C   0  0  0  0  0  0  0  0  0  0  0  0
    0.9615    0.4698    0.7318 C   0  0  0  0  0  0  0  0  0  0  0  0
    1.5522    1.1705    1.7786 C   0  0  0  0  0  0  0  0  0  0  0  0
    2.5128    0.5766    2.5825 C   0  0  0  0  0  0  0  0  0  0  0  0
    2.9001   -0.7346    2.3508 C   0  0  0  0  0  0  0  0  0  0  0  0
    2.3186   -1.4447    1.3114 C   0  0  0  0  0  0  0  0  0  0  0  0
    1.3586   -0.8452    0.5110 C   0  0  0  0  0  0  0  0  0  0  0  0
    1.1734    1.1019   -1.9667 H   0  0  0  0  0  0  0  0  0  0  0  0
    1.3163    2.5891   -1.0316 H   0  0  0  0  0  0  0  0  0  0  0  0
   -0.1303    2.2965   -2.0062 H   0  0  0  0  0  0  0  0  0  0  0  0
   -0.6175    1.8685    0.4010 H   0  0  0  0  0  0  0  0  0  0  0  0
    1.2523    2.1954    1.9679 H   0  0  0  0  0  0  0  0  0  0  0  0
    2.9578    1.1382    3.3946 H   0  0  0  0  0  0  0  0  0  0  0  0
    3.6479   -1.2015    2.9791 H   0  0  0  0  0  0  0  0  0  0  0  0
    2.6111   -2.4707    1.1252 H   0  0  0  0  0  0  0  0  0  0  0  0
    0.9060   -1.4081   -0.2982 H   0  0  0  0  0  0  0  0  0  0  0  0
  1  2  3  0
  1  6  1  0
  2  3  1  0
  3  4  1  0
  3  8  1  0
  4  5  3  0
  5  9  1  0
  7 11  1  0
 10 11  1  0
 10 18  1  0
 10 19  1  0
 10 20  1  0
 11 12  1  0
 11 21  1  0
 12 13  2  0
 12 17  1  0
 13 14  1  0
 13 22  1  0
 14 15  2  0
 14 23  1  0
 15 16  1  0
 15 24  1  0
 16 17  2  0
 16 25  1  0
 17 26  1  0
M  RAD  1   3   2
M  END
>  <reaction>  (16) 
rxn_1360

>  <mol_properties>  (16) 
{"1": {"label": "*0", "atom_type": "Ct"}, "2": {"label": "*1", "atom_type": "Cs"}, "6": {"label": "*2", "atom_type": "H0"}, "10": {"label": "*3", "atom_type": "Cd"}, "11": {"label": "*4", "atom_type": "Cd"}}

>  <type>  (16) 
unop_12

>  <geom_source>  (16) 
Heuristics

$$$$

     RDKit          3D

 26 25  0  0  0  0  0  0  0  0999 V2000
    0.1108   -0.0548   -0.9463 C   0  0  0  0  0  0  0  0  0  0  0  0
   -0.1871   -1.2160   -1.8873 C   0  0  0  0  0  0  0  0  0  0  0  0
   -1.1002    0.2910   -0.1248 C   0  0  0  0  0  0  0  0  0  0  0  0
   -1.3167   -0.3372    1.1124 C   0  0  0  0  0  0  0  0  0  0  0  0
   -2.0504    1.2052   -0.6097 C   0  0  0  0  0  0  0  0  0  0  0  0
   -2.4577   -0.0376    1.8635 C   0  0  0  0  0  0  0  0  0  0  0  0
   -3.3926    0.8826    1.3810 C   0  0  0  0  0  0  0  0  0  0  0  0
   -3.1901    1.5020    0.1446 C   0  0  0  0  0  0  0  0  0  0  0  0
    2.2515   -0.0589    0.5972 C   0  0  0  0  0  3  0  0  0  0  0  0
    3.0327    0.8635   -0.2291 C   0  0  0  0  0  0  0  0  0  0  0  0
    3.0244   -1.2776    0.8445 C   0  0  0  0  0  0  0  0  0  0  0  0
    3.6745    1.6243   -0.9096 C   0  0  0  0  0  0  0  0  0  0  0  0
    3.6593   -2.2821    1.0491 C   0  0  0  0  0  0  0  0  0  0  0  0
    0.4352    0.8271   -1.5405 H   0  0  0  0  0  0  0  0  0  0  0  0
    1.1361   -0.3970   -0.1354 H   0  0  0  0  0  0  0  0  0  0  0  0
    0.7219   -1.4552   -2.4776 H   0  0  0  0  0  0  0  0  0  0  0  0
   -0.4798   -2.1157   -1.3052 H   0  0  0  0  0  0  0  0  0  0  0  0
   -1.0073   -0.9464   -2.5866 H   0  0  0  0  0  0  0  0  0  0  0  0
   -0.6047   -1.0587    1.4935 H   0  0  0  0  0  0  0  0  0  0  0  0
   -2.6188   -0.5214    2.8183 H   0  0  0  0  0  0  0  0  0  0  0  0
   -1.9089    1.6855   -1.5700 H   0  0  0  0  0  0  0  0  0  0  0  0
   -4.2758    1.1123    1.9631 H   0  0  0  0  0  0  0  0  0  0  0  0
   -3.9177    2.2098   -0.2309 H   0  0  0  0  0  0  0  0  0  0  0  0
    2.0066    0.4269    1.5642 H   0  0  0  0  0  0  0  0  0  0  0  0
    4.2380    2.2920   -1.5069 H   0  0  0  0  0  0  0  0  0  0  0  0
    4.2167   -3.1636    1.2286 H   0  0  0  0  0  0  0  0  0  0  0  0
  1  2  1  0
  1  3  1  0
  1 14  1  0
  1 15  1  0
  2 16  1  0
  2 17  1  0
  2 18  1  0
  3  4  2  0
  3  5  1  0
  4  6  1  0
  4 19  1  0
  5  8  2  0
  5 21  1  0
  6  7  2  0
  6 20  1  0
  7  8  1  0
  7 22  1  0
  8 23  1  0
  9 10  1  0
  9 11  1  0
  9 24  1  0
 10 12  3  0
 11 13  3  0
 12 25  1  0
 13 26  1  0
M  RAD  1   9   2
M  END
>  <reaction>  (17) 
rxn_1360

>  <mol_properties>  (17) 
{"1": {"label": "*0", "atom_type": "Ct"}, "2": {"label": "*1", "atom_type": "Cs"}, "6": {"label": "*2", "atom_type": "H0"}, "10": {"label": "*3", "atom_type": "Cd"}, "11": {"label": "*4", "atom_type": "Cd"}}

>  <type>  (17) 
unop_13

>  <geom_source>  (17) 
AutoTST

$$$$

     RDKit          3D

 26 25  0  0  0  0  0  0  0  0999 V2000
   -2.0005   -0.9664   -3.4168 C   0  0  0  0  0  0  0  0  0  0  0  0
   -2.0005   -0.9664   -2.2213 C   0  0  0  0  0  0  0  0  0  0  0  0
   -2.0005   -0.9664   -0.7583 C   0  0  0  0  0  3  0  0  0  0  0  0
   -3.3145   -0.6908   -0.1771 C   0  0  0  0  0  0  0  0  0  0  0  0
   -4.3883   -0.4656    0.2978 C   0  0  0  0  0  0  0  0  0  0  0  0
   -2.0005   -0.9664   -4.4803 H   0  0  0  0  0  0  0  0  0  0  0  0
   -1.1423   -0.0720   -0.3272 H   0  0  0  0  0  0  0  0  0  0  0  0
   -1.6451   -1.9363   -0.3991 H   0  0  0  0  0  0  0  0  0  0  0  0
   -5.3435   -0.2653    0.7202 H   0  0  0  0  0  0  0  0  0  0  0  0
   -0.1890    1.9632   -0.9093 C   0  0  0  0  0  0  0  0  0  0  0  0
   -0.2850    0.8216    0.1034 C   0  0  0  0  0  0  0  0  0  0  0  0
    1.0585    0.4541    0.6762 C   0  0  0  0  0  0  0  0  0  0  0  0
    1.5469    1.0899    1.8133 C   0  0  0  0  0  0  0  0  0  0  0  0
    2.8025    0.7867    2.3167 C   0  0  0  0  0  0  0  0  0  0  0  0
    3.5939   -0.1621    1.6873 C   0  0  0  0  0  0  0  0  0  0  0  0
    3.1190   -0.8040    0.5537 C   0  0  0  0  0  0  0  0  0  0  0  0
    1.8626   -0.4964    0.0551 C   0  0  0  0  0  0  0  0  0  0  0  0
    0.4613    1.6881   -1.7419 H   0  0  0  0  0  0  0  0  0  0  0  0
    0.2284    2.8584   -0.4447 H   0  0  0  0  0  0  0  0  0  0  0  0
   -1.1718    2.2140   -1.3121 H   0  0  0  0  0  0  0  0  0  0  0  0
   -0.9595    1.1102    0.9131 H   0  0  0  0  0  0  0  0  0  0  0  0
    0.9324    1.8309    2.3129 H   0  0  0  0  0  0  0  0  0  0  0  0
    3.1625    1.2904    3.2053 H   0  0  0  0  0  0  0  0  0  0  0  0
    4.5735   -0.4026    2.0803 H   0  0  0  0  0  0  0  0  0  0  0  0
    3.7277   -1.5497    0.0575 H   0  0  0  0  0  0  0  0  0  0  0  0
    1.4967   -1.0050   -0.8303 H   0  0  0  0  0  0  0  0  0  0  0  0
  1  2  3  0
  1  6  1  0
  2  3  1  0
  3  4  1  0
  3  8  1  0
  4  5  3  0
  5  9  1  0
  7 11  1  0
 10 11  1  0
 10 18  1  0
 10 19  1  0
 10 20  1  0
 11 12  1  0
 11 21  1  0
 12 13  2  0
 12 17  1  0
 13 14  1  0
 13 22  1  0
 14 15  2  0
 14 23  1  0
 15 16  1  0
 15 24  1  0
 16 17  2  0
 16 25  1  0
 17 26  1  0
M  RAD  1   3   2
M  END
>  <reaction>  (18) 
rxn_1360

>  <mol_properties>  (18) 
{"1": {"label": "*0", "atom_type": "Ct"}, "2": {"label": "*1", "atom_type": "Cs"}, "6": {"label": "*2", "atom_type": "H0"}, "10": {"label": "*3", "atom_type": "Cd"}, "11": {"label": "*4", "atom_type": "Cd"}}

>  <type>  (18) 
unop_14

>  <geom_source>  (18) 
gaussian_log

$$$$
