
     RDKit          3D

 16 15  0  0  0  0  0  0  0  0999 V2000
    1.7961   -0.3807    1.6176 C   0  0  0  0  0  0  0  0  0  0  0  0
    0.8562   -0.8708    0.8256 C   0  0  0  0  0  0  0  0  0  0  0  0
    0.0895   -0.0826   -0.2048 C   0  0  0  0  0  0  0  0  0  0  0  0
   -1.4061   -0.1111    0.0982 C   0  0  0  0  0  0  0  0  0  0  0  0
    0.4476   -0.5902   -1.5797 C   0  0  0  0  0  0  0  0  0  0  0  0
   -0.3793   -1.1113   -2.4728 C   0  0  0  0  0  0  0  0  0  0  0  0
    2.3110   -1.0032    2.3386 H   0  0  0  0  0  0  0  0  0  0  0  0
    2.0846    0.6643    1.5737 H   0  0  0  0  0  0  0  0  0  0  0  0
    0.5921   -1.9241    0.8925 H   0  0  0  0  0  0  0  0  0  0  0  0
    0.4358    0.9557   -0.1462 H   0  0  0  0  0  0  0  0  0  0  0  0
   -1.5968    0.3080    1.0865 H   0  0  0  0  0  0  0  0  0  0  0  0
   -1.9674    0.4693   -0.6359 H   0  0  0  0  0  0  0  0  0  0  0  0
   -1.7902   -1.1338    0.0883 H   0  0  0  0  0  0  0  0  0  0  0  0
    1.5049   -0.5197   -1.8214 H   0  0  0  0  0  0  0  0  0  0  0  0
   -1.4421   -1.2131   -2.2889 H   0  0  0  0  0  0  0  0  0  0  0  0
   -0.0162   -1.4558   -3.4328 H   0  0  0  0  0  0  0  0  0  0  0  0
  1  2  2  3
  1  7  1  0
  1  8  1  0
  2  3  1  0
  2  9  1  0
  3  4  1  0
  3  5  1  0
  3 10  1  0
  4 11  1  0
  4 12  1  0
  4 13  1  0
  5  6  2  3
  5 14  1  0
  6 15  1  0
  6 16  1  0
M  END
>  <reaction>  (1) 
rxn_1195

>  <mol_properties>  (1) 
{"2": {"label": "donator", "atom_type": "Cs"}, "9": {"label": "d_hydrogen", "atom_type": "H0"}}

>  <type>  (1) 
r1h

$$$$

     RDKit          3D

  9  8  0  0  0  0  0  0  0  0999 V2000
   -1.2704   -0.1236    0.1096 C   0  0  0  0  0  0  0  0  0  0  0  0
    0.0713   -0.5323    0.5887 C   0  0  0  0  0  0  0  0  0  0  0  0
    0.9521   -1.3639   -0.0464 C   0  0  0  0  0  0  0  0  0  0  0  0
    0.6900   -2.1109   -1.5335 S   0  0  0  0  0  1  0  0  0  0  0  0
   -1.3201    0.9657    0.0241 H   0  0  0  0  0  0  0  0  0  0  0  0
   -1.5103   -0.5706   -0.8526 H   0  0  0  0  0  0  0  0  0  0  0  0
   -2.0312   -0.4112    0.8411 H   0  0  0  0  0  0  0  0  0  0  0  0
    0.3863   -0.1265    1.5468 H   0  0  0  0  0  0  0  0  0  0  0  0
    1.8971   -1.5543    0.4552 H   0  0  0  0  0  0  0  0  0  0  0  0
  1  2  1  0
  1  5  1  0
  1  6  1  0
  1  7  1  0
  2  3  2  3
  2  8  1  0
  3  4  1  0
  3  9  1  0
M  RAD  1   4   2
M  END
>  <reaction>  (2) 
rxn_1195

>  <mol_properties>  (2) 
{"1": {"label": "acceptor", "atom_type": "Cs"}}

>  <type>  (2) 
r2

$$$$

     RDKit          3D

 10  9  0  0  0  0  0  0  0  0999 V2000
   -1.1508    0.0666    0.2839 C   0  0  0  0  0  0  0  0  0  0  0  0
    0.1022   -0.3749   -0.4771 C   0  0  0  0  0  0  0  0  0  0  0  0
    1.3428    0.1620    0.1542 C   0  0  0  0  0  0  0  0  0  0  0  0
    2.5613   -0.6971    0.7526 S   0  0  0  0  0  0  0  0  0  0  0  0
   -1.2137    1.1546    0.3481 H   0  0  0  0  0  0  0  0  0  0  0  0
   -2.0472   -0.2935   -0.2212 H   0  0  0  0  0  0  0  0  0  0  0  0
   -1.1467   -0.3334    1.2987 H   0  0  0  0  0  0  0  0  0  0  0  0
    0.1602   -1.4616   -0.5369 H   0  0  0  0  0  0  0  0  0  0  0  0
    0.0536    0.0174   -1.4997 H   0  0  0  0  0  0  0  0  0  0  0  0
    1.3824    1.2528    0.2110 H   0  0  0  0  0  0  0  0  0  0  0  0
  1  2  1  0
  1  5  1  0
  1  6  1  0
  1  7  1  0
  2  3  1  0
  2  8  1  0
  2  9  1  0
  3  4  2  0
  3 10  1  0
M  END
>  <reaction>  (3) 
rxn_1195

>  <mol_properties>  (3) 
{"1": {"label": "acceptor", "atom_type": "Cs"}, "9": {"label": "a_hydrogen", "atom_type": "H0"}}

>  <type>  (3) 
r2h

$$$$

     RDKit          3D

 25 23  0  0  0  0  0  0  0  0999 V2000
   -1.0074    1.2218   -2.1434 C   0  0  0  0  0  0  0  0  0  0  0  0
    0.0657    1.3731   -1.0958 C   0  0  0  0  0  0  0  0  0  0  0  0
   -0.1691    2.1899    0.0446 C   0  0  0  0  0  0  0  0  0  0  0  0
    0.9906    2.8194    1.0268 S   0  0  0  0  0  1  0  0  0  0  0  0
   -1.9908    1.1106   -1.6821 H   0  0  0  0  0  0  0  0  0  0  0  0
   -1.0389    2.0977   -2.7956 H   0  0  0  0  0  0  0  0  0  0  0  0
   -0.8188    0.3481   -2.7691 H   0  0  0  0  0  0  0  0  0  0  0  0
    1.0922    1.3764   -1.4582 H   0  0  0  0  0  0  0  0  0  0  0  0
   -1.2163    2.3696    0.2896 H   0  0  0  0  0  0  0  0  0  0  0  0
    0.9871   -2.5698   -1.8664 C   0  0  0  0  0  0  0  0  0  0  0  0
    0.0002   -1.9792   -1.1937 C   0  0  0  0  0  0  0  0  0  0  0  0
    0.1381   -1.0956   -0.0269 C   0  0  0  0  0  0  0  0  0  0  0  0
    1.4937   -1.0014    0.6300 C   0  0  0  0  0  0  0  0  0  0  0  0
   -1.0496   -1.0195    0.8326 C   0  0  0  0  0  0  0  0  0  0  0  0
   -1.1025   -0.4897    2.0548 C   0  0  0  0  0  0  0  0  0  0  0  0
    0.7743   -3.1901   -2.7270 H   0  0  0  0  0  0  0  0  0  0  0  0
    2.0266   -2.4716   -1.5808 H   0  0  0  0  0  0  0  0  0  0  0  0
   -1.0196   -2.1350   -1.5364 H   0  0  0  0  0  0  0  0  0  0  0  0
    0.0686    0.1258   -0.5636 H   0  0  0  0  0  0  0  0  0  0  0  0
    2.2805   -0.8665   -0.1116 H   0  0  0  0  0  0  0  0  0  0  0  0
    1.5455   -0.1499    1.3068 H   0  0  0  0  0  0  0  0  0  0  0  0
    1.7049   -1.9107    1.1980 H   0  0  0  0  0  0  0  0  0  0  0  0
   -1.9741   -1.3743    0.3847 H   0  0  0  0  0  0  0  0  0  0  0  0
   -0.2276   -0.1054    2.5624 H   0  0  0  0  0  0  0  0  0  0  0  0
   -2.0404   -0.4361    2.5918 H   0  0  0  0  0  0  0  0  0  0  0  0
  1  2  1  0
  1  5  1  0
  1  6  1  0
  1  7  1  0
  2  3  2  3
  2  8  1  0
  3  4  1  0
  3  9  1  0
 10 11  2  3
 10 16  1  0
 10 17  1  0
 11 12  1  0
 11 18  1  0
 12 13  1  0
 12 14  1  0
 12 19  1  0
 13 20  1  0
 13 21  1  0
 13 22  1  0
 14 15  2  3
 14 23  1  0
 15 24  1  0
 15 25  1  0
M  RAD  1   4   2
M  END
>  <reaction>  (4) 
rxn_1195

>  <mol_properties>  (4) 
{"1": {"label": "*3", "atom_type": "Cd"}, "2": {"label": "*4", "atom_type": "Cd"}, "10": {"label": "*0", "atom_type": "Cd"}, "11": {"label": "*1", "atom_type": "Cs"}, "18": {"label": "*2", "atom_type": "H0"}}

>  <type>  (4) 
ts

$$$$

     RDKit          3D

 25 22  0  0  0  0  0  0  0  0999 V2000
   -1.3813    2.2221   -1.2303 C   0  0  0  0  0  0  0  0  0  0  0  0
   -0.1530    1.3314   -1.4352 C   0  0  0  0  0  0  0  0  0  0  0  0
    0.9062    1.6200   -0.4249 C   0  0  0  0  0  2  0  0  0  0  0  0
    1.5167    0.5873    0.6437 S   0  0  0  0  0 15  0  0  0  0  0  0
   -1.8438    2.0247   -0.2624 H   0  0  0  0  0  0  0  0  0  0  0  0
   -1.1156    3.2802   -1.2701 H   0  0  0  0  0  0  0  0  0  0  0  0
   -2.1214    2.0312   -2.0075 H   0  0  0  0  0  0  0  0  0  0  0  0
    0.2702    1.5320   -2.4264 H   0  0  0  0  0  0  0  0  0  0  0  0
    1.2663    2.6518   -0.4334 H   0  0  0  0  0  0  0  0  0  0  0  0
   -0.2260   -1.9821   -2.0348 C   0  0  0  0  0  0  0  0  0  0  0  0
   -0.2260   -1.9821   -0.7115 C   0  0  0  0  0  0  0  0  0  0  0  0
   -0.2260   -0.7514    0.1579 C   0  0  0  0  0  3  0  0  0  0  0  0
    1.0124   -0.7216    1.0495 C   0  0  0  0  0  0  0  0  0  0  0  0
   -1.5295   -0.6828    0.9144 C   0  0  0  0  0  0  0  0  0  0  0  0
   -1.6841   -0.6825    2.2293 C   0  0  0  0  0  0  0  0  0  0  0  0
   -0.2267   -2.9048   -2.6015 H   0  0  0  0  0  0  0  0  0  0  0  0
   -0.2242   -1.0564   -2.6005 H   0  0  0  0  0  0  0  0  0  0  0  0
   -0.2307   -2.9280   -0.1739 H   0  0  0  0  0  0  0  0  0  0  0  0
   -0.1894    0.2930   -0.6409 H   0  0  0  0  0  0  0  0  0  0  0  0
    1.9152   -0.7299    0.4382 H   0  0  0  0  0  0  0  0  0  0  0  0
    1.0271    0.1742    1.6726 H   0  0  0  0  0  0  0  0  0  0  0  0
    1.0450   -1.5933    1.7071 H   0  0  0  0  0  0  0  0  0  0  0  0
   -2.4127   -0.6471    0.2819 H   0  0  0  0  0  0  0  0  0  0  0  0
   -0.8437   -0.7219    2.9119 H   0  0  0  0  0  0  0  0  0  0  0  0
   -2.6705   -0.6394    2.6736 H   0  0  0  0  0  0  0  0  0  0  0  0
  1  2  1  0
  1  5  1  0
  1  6  1  0
  1  7  1  0
  2  3  1  0
  2  8  1  0
  2 19  1  0
  3  9  1  0
 10 11  2  3
 10 16  1  0
 10 17  1  0
 11 12  1  0
 11 18  1  0
 12 13  1  0
 12 14  1  0
 13 20  1  0
 13 21  1  0
 13 22  1  0
 14 15  2  3
 14 23  1  0
 15 24  1  0
 15 25  1  0
M  RAD  2   3   3  12   2
M  END
>  <reaction>  (5) 
rxn_1195

>  <mol_properties>  (5) 
{"1": {"label": "*3", "atom_type": "Cd"}, "2": {"label": "*4", "atom_type": "Cd"}, "10": {"label": "*0", "atom_type": "Cd"}, "11": {"label": "*1", "atom_type": "Cs"}, "18": {"label": "*2", "atom_type": "H0"}}

>  <type>  (5) 
unop_1

>  <geom_source>  (5) 
Heuristics

$$$$

     RDKit          3D

 25 23  0  0  0  0  0  0  0  0999 V2000
   -0.1006    0.8441   -2.6547 C   0  0  0  0  0  0  0  0  0  0  0  0
    0.5878    1.1488   -1.3214 C   0  0  0  0  0  0  0  0  0  0  0  0
   -0.2643    2.0097   -0.4504 C   0  0  0  0  0  0  0  0  0  0  0  0
   -0.8217    1.6392    1.0102 S   0  0  0  0  0  0  0  0  0  0  0  0
   -1.0172    0.2752   -2.4942 H   0  0  0  0  0  0  0  0  0  0  0  0
   -0.3592    1.7615   -3.1868 H   0  0  0  0  0  0  0  0  0  0  0  0
    0.5577    0.2571   -3.2952 H   0  0  0  0  0  0  0  0  0  0  0  0
    1.5184    1.6938   -1.5183 H   0  0  0  0  0  0  0  0  0  0  0  0
   -0.5273    2.9744   -0.8914 H   0  0  0  0  0  0  0  0  0  0  0  0
    0.5148   -2.1648   -1.9210 C   0  0  0  0  0  0  0  0  0  0  0  0
    0.5148   -2.1648   -0.5977 C   0  0  0  0  0  0  0  0  0  0  0  0
    0.5148   -0.9340    0.2717 C   0  0  0  0  0  3  0  0  0  0  0  0
    1.7532   -0.9042    1.1633 C   0  0  0  0  0  0  0  0  0  0  0  0
   -0.7887   -0.8654    1.0282 C   0  0  0  0  0  0  0  0  0  0  0  0
   -0.9433   -0.8652    2.3431 C   0  0  0  0  0  0  0  0  0  0  0  0
    0.5141   -3.0874   -2.4877 H   0  0  0  0  0  0  0  0  0  0  0  0
    0.5166   -1.2390   -2.4867 H   0  0  0  0  0  0  0  0  0  0  0  0
    0.5101   -3.1106   -0.0601 H   0  0  0  0  0  0  0  0  0  0  0  0
    0.5514    0.1104   -0.5271 H   0  0  0  0  0  0  0  0  0  0  0  0
    2.6560   -0.9126    0.5520 H   0  0  0  0  0  0  0  0  0  0  0  0
    1.7679   -0.0084    1.7864 H   0  0  0  0  0  0  0  0  0  0  0  0
    1.7858   -1.7760    1.8209 H   0  0  0  0  0  0  0  0  0  0  0  0
   -1.6719   -0.8297    0.3957 H   0  0  0  0  0  0  0  0  0  0  0  0
   -0.1030   -0.9045    3.0257 H   0  0  0  0  0  0  0  0  0  0  0  0
   -1.9297   -0.8221    2.7874 H   0  0  0  0  0  0  0  0  0  0  0  0
  1  2  1  0
  1  5  1  0
  1  6  1  0
  1  7  1  0
  2  3  1  0
  2  8  1  0
  2 19  1  0
  3  4  2  0
  3  9  1  0
 10 11  2  3
 10 16  1  0
 10 17  1  0
 11 12  1  0
 11 18  1  0
 12 13  1  0
 12 14  1  0
 13 20  1  0
 13 21  1  0
 13 22  1  0
 14 15  2  3
 14 23  1  0
 15 24  1  0
 15 25  1  0
M  RAD  1  12   2
M  END
>  <reaction>  (6) 
rxn_1195

>  <mol_properties>  (6) 
{"1": {"label": "*3", "atom_type": "Cd"}, "2": {"label": "*4", "atom_type": "Cd"}, "10": {"label": "*0", "atom_type": "Cd"}, "11": {"label": "*1", "atom_type": "Cs"}, "18": {"label": "*2", "atom_type": "H0"}}

>  <type>  (6) 
unop_2

>  <geom_source>  (6) 
Heuristics

$$$$

     RDKit          3D

 25 23  0  0  0  0  0  0  0  0999 V2000
   -1.0795    2.5965   -0.5707 C   0  0  0  0  0  0  0  0  0  0  0  0
   -0.3696    1.3966   -1.2035 C   0  0  0  0  0  0  0  0  0  0  0  0
    1.0964    1.4209   -0.9278 C   0  0  0  0  0  0  0  0  0  0  0  0
    1.9423    0.3004   -0.1467 S   0  0  0  0  0  0  0  0  0  0  0  0
   -0.9895    2.5688    0.5159 H   0  0  0  0  0  0  0  0  0  0  0  0
   -0.6561    3.5392   -0.9225 H   0  0  0  0  0  0  0  0  0  0  0  0
   -2.1393    2.5872   -0.8257 H   0  0  0  0  0  0  0  0  0  0  0  0
   -0.5036    1.4372   -2.2908 H   0  0  0  0  0  0  0  0  0  0  0  0
    1.6082    2.3137   -1.2957 H   0  0  0  0  0  0  0  0  0  0  0  0
   -0.4426   -1.9169   -1.8031 C   0  0  0  0  0  0  0  0  0  0  0  0
   -0.4426   -1.9169   -0.4798 C   0  0  0  0  0  0  0  0  0  0  0  0
   -0.4426   -0.6861    0.3896 C   0  0  0  0  0  3  0  0  0  0  0  0
    0.7957   -0.6564    1.2812 C   0  0  0  0  0  0  0  0  0  0  0  0
   -1.7461   -0.6176    1.1461 C   0  0  0  0  0  0  0  0  0  0  0  0
   -1.9008   -0.6173    2.4610 C   0  0  0  0  0  0  0  0  0  0  0  0
   -0.4434   -2.8395   -2.3698 H   0  0  0  0  0  0  0  0  0  0  0  0
   -0.4409   -0.9911   -2.3688 H   0  0  0  0  0  0  0  0  0  0  0  0
   -0.4474   -2.8627    0.0578 H   0  0  0  0  0  0  0  0  0  0  0  0
   -0.4060    0.3582   -0.4093 H   0  0  0  0  0  0  0  0  0  0  0  0
    1.6985   -0.6647    0.6699 H   0  0  0  0  0  0  0  0  0  0  0  0
    0.8104    0.2394    1.9043 H   0  0  0  0  0  0  0  0  0  0  0  0
    0.8283   -1.5281    1.9388 H   0  0  0  0  0  0  0  0  0  0  0  0
   -2.6293   -0.5818    0.5135 H   0  0  0  0  0  0  0  0  0  0  0  0
   -1.0604   -0.6567    3.1435 H   0  0  0  0  0  0  0  0  0  0  0  0
   -2.8872   -0.5742    2.9052 H   0  0  0  0  0  0  0  0  0  0  0  0
  1  2  1  0
  1  5  1  0
  1  6  1  0
  1  7  1  0
  2  3  1  0
  2  8  1  0
  2 19  1  0
  3  4  2  0
  3  9  1  0
 10 11  2  3
 10 16  1  0
 10 17  1  0
 11 12  1  0
 11 18  1  0
 12 13  1  0
 12 14  1  0
 13 20  1  0
 13 21  1  0
 13 22  1  0
 14 15  2  3
 14 23  1  0
 15 24  1  0
 15 25  1  0
M  RAD  1  12   2
M  END
>  <reaction>  (7) 
rxn_1195

>  <mol_properties>  (7) 
{"1": {"label": "*3", "atom_type": "Cd"}, "2": {"label": "*4", "atom_type": "Cd"}, "10": {"label": "*0", "atom_type": "Cd"}, "11": {"label": "*1", "atom_type": "Cs"}, "18": {"label": "*2", "atom_type": "H0"}}

>  <type>  (7) 
unop_3

>  <geom_source>  (7) 
Heuristics

$$$$

     RDKit          3D

 25 23  0  0  0  0  0  0  0  0999 V2000
    1.9055    1.1672   -1.4217 C   0  0  0  0  0  0  0  0  0  0  0  0
    0.6467    1.1867   -0.5504 C   0  0  0  0  0  0  0  0  0  0  0  0
   -0.4557    1.9544   -1.1997 C   0  0  0  0  0  0  0  0  0  0  0  0
   -1.9021    1.3893   -1.6117 S   0  0  0  0  0  0  0  0  0  0  0  0
    1.7135    0.6549   -2.3653 H   0  0  0  0  0  0  0  0  0  0  0  0
    2.2475    2.1789   -1.6482 H   0  0  0  0  0  0  0  0  0  0  0  0
    2.7133    0.6455   -0.9083 H   0  0  0  0  0  0  0  0  0  0  0  0
    0.8800    1.6806    0.4001 H   0  0  0  0  0  0  0  0  0  0  0  0
   -0.2109    2.9976   -1.4148 H   0  0  0  0  0  0  0  0  0  0  0  0
    0.5737   -2.1268   -1.1500 C   0  0  0  0  0  0  0  0  0  0  0  0
    0.5737   -2.1268    0.1733 C   0  0  0  0  0  0  0  0  0  0  0  0
    0.5737   -0.8960    1.0427 C   0  0  0  0  0  3  0  0  0  0  0  0
    1.8121   -0.8662    1.9343 C   0  0  0  0  0  0  0  0  0  0  0  0
   -0.7298   -0.8274    1.7992 C   0  0  0  0  0  0  0  0  0  0  0  0
   -0.8844   -0.8272    3.1141 C   0  0  0  0  0  0  0  0  0  0  0  0
    0.5730   -3.0494   -1.7167 H   0  0  0  0  0  0  0  0  0  0  0  0
    0.5755   -1.2010   -1.7157 H   0  0  0  0  0  0  0  0  0  0  0  0
    0.5690   -3.0726    0.7109 H   0  0  0  0  0  0  0  0  0  0  0  0
    0.6103    0.1483    0.2438 H   0  0  0  0  0  0  0  0  0  0  0  0
    2.7148   -0.8746    1.3230 H   0  0  0  0  0  0  0  0  0  0  0  0
    1.8268    0.0295    2.5574 H   0  0  0  0  0  0  0  0  0  0  0  0
    1.8447   -1.7380    2.5919 H   0  0  0  0  0  0  0  0  0  0  0  0
   -1.6130   -0.7917    1.1666 H   0  0  0  0  0  0  0  0  0  0  0  0
   -0.0441   -0.8665    3.7966 H   0  0  0  0  0  0  0  0  0  0  0  0
   -1.8708   -0.7841    3.5583 H   0  0  0  0  0  0  0  0  0  0  0  0
  1  2  1  0
  1  5  1  0
  1  6  1  0
  1  7  1  0
  2  3  1  0
  2  8  1  0
  2 19  1  0
  3  4  2  0
  3  9  1  0
 10 11  2  3
 10 16  1  0
 10 17  1  0
 11 12  1  0
 11 18  1  0
 12 13  1  0
 12 14  1  0
 13 20  1  0
 13 21  1  0
 13 22  1  0
 14 15  2  3
 14 23  1  0
 15 24  1  0
 15 25  1  0
M  RAD  1  12   2
M  END
>  <reaction>  (8) 
rxn_1195

>  <mol_properties>  (8) 
{"1": {"label": "*3", "atom_type": "Cd"}, "2": {"label": "*4", "atom_type": "Cd"}, "10": {"label": "*0", "atom_type": "Cd"}, "11": {"label": "*1", "atom_type": "Cs"}, "18": {"label": "*2", "atom_type": "H0"}}

>  <type>  (8) 
unop_4

>  <geom_source>  (8) 
Heuristics

$$$$

     RDKit          3D

 25 23  0  0  0  0  0  0  0  0999 V2000
   -0.4112    2.7281    0.0750 C   0  0  0  0  0  0  0  0  0  0  0  0
   -0.4140    1.4238   -0.7269 C   0  0  0  0  0  0  0  0  0  0  0  0
    0.7746    1.3309   -1.6238 C   0  0  0  0  0  0  0  0  0  0  0  0
    1.9117    0.1964   -1.5917 S   0  0  0  0  0  0  0  0  0  0  0  0
    0.4545    2.7718    0.7371 H   0  0  0  0  0  0  0  0  0  0  0  0
   -0.3796    3.5987   -0.5829 H   0  0  0  0  0  0  0  0  0  0  0  0
   -1.3116    2.7994    0.6852 H   0  0  0  0  0  0  0  0  0  0  0  0
   -1.3095    1.3970   -1.3588 H   0  0  0  0  0  0  0  0  0  0  0  0
    0.8531    2.1425   -2.3515 H   0  0  0  0  0  0  0  0  0  0  0  0
   -0.4870   -1.8897   -1.3265 C   0  0  0  0  0  0  0  0  0  0  0  0
   -0.4870   -1.8897   -0.0032 C   0  0  0  0  0  0  0  0  0  0  0  0
   -0.4870   -0.6589    0.8662 C   0  0  0  0  0  3  0  0  0  0  0  0
    0.7514   -0.6291    1.7578 C   0  0  0  0  0  0  0  0  0  0  0  0
   -1.7905   -0.5903    1.6227 C   0  0  0  0  0  0  0  0  0  0  0  0
   -1.9452   -0.5901    2.9376 C   0  0  0  0  0  0  0  0  0  0  0  0
   -0.4878   -2.8123   -1.8932 H   0  0  0  0  0  0  0  0  0  0  0  0
   -0.4852   -0.9639   -1.8922 H   0  0  0  0  0  0  0  0  0  0  0  0
   -0.4918   -2.8355    0.5344 H   0  0  0  0  0  0  0  0  0  0  0  0
   -0.4504    0.3854    0.0674 H   0  0  0  0  0  0  0  0  0  0  0  0
    1.6541   -0.6375    1.1465 H   0  0  0  0  0  0  0  0  0  0  0  0
    0.7660    0.2666    2.3809 H   0  0  0  0  0  0  0  0  0  0  0  0
    0.7839   -1.5009    2.4154 H   0  0  0  0  0  0  0  0  0  0  0  0
   -2.6737   -0.5546    0.9902 H   0  0  0  0  0  0  0  0  0  0  0  0
   -1.1048   -0.6294    3.6202 H   0  0  0  0  0  0  0  0  0  0  0  0
   -2.9316   -0.5470    3.3819 H   0  0  0  0  0  0  0  0  0  0  0  0
  1  2  1  0
  1  5  1  0
  1  6  1  0
  1  7  1  0
  2  3  1  0
  2  8  1  0
  2 19  1  0
  3  4  2  0
  3  9  1  0
 10 11  2  3
 10 16  1  0
 10 17  1  0
 11 12  1  0
 11 18  1  0
 12 13  1  0
 12 14  1  0
 13 20  1  0
 13 21  1  0
 13 22  1  0
 14 15  2  3
 14 23  1  0
 15 24  1  0
 15 25  1  0
M  RAD  1  12   2
M  END
>  <reaction>  (9) 
rxn_1195

>  <mol_properties>  (9) 
{"1": {"label": "*3", "atom_type": "Cd"}, "2": {"label": "*4", "atom_type": "Cd"}, "10": {"label": "*0", "atom_type": "Cd"}, "11": {"label": "*1", "atom_type": "Cs"}, "18": {"label": "*2", "atom_type": "H0"}}

>  <type>  (9) 
unop_5

>  <geom_source>  (9) 
Heuristics

$$$$

     RDKit          3D

 25 23  0  0  0  0  0  0  0  0999 V2000
    1.9355    1.6616   -0.6920 C   0  0  0  0  0  0  0  0  0  0  0  0
    0.4915    1.2500   -0.3928 C   0  0  0  0  0  0  0  0  0  0  0  0
   -0.4590    1.8290   -1.3865 C   0  0  0  0  0  0  0  0  0  0  0  0
   -1.4339    1.0116   -2.3675 S   0  0  0  0  0  0  0  0  0  0  0  0
    2.2553    1.2714   -1.6591 H   0  0  0  0  0  0  0  0  0  0  0  0
    2.0429    2.7478   -0.7119 H   0  0  0  0  0  0  0  0  0  0  0  0
    2.6068    1.2706    0.0726 H   0  0  0  0  0  0  0  0  0  0  0  0
    0.2109    1.6311    0.5960 H   0  0  0  0  0  0  0  0  0  0  0  0
   -0.4508    2.9209   -1.4329 H   0  0  0  0  0  0  0  0  0  0  0  0
    0.4185   -2.0635   -0.9924 C   0  0  0  0  0  0  0  0  0  0  0  0
    0.4185   -2.0635    0.3308 C   0  0  0  0  0  0  0  0  0  0  0  0
    0.4185   -0.8327    1.2003 C   0  0  0  0  0  3  0  0  0  0  0  0
    1.6568   -0.8030    2.0919 C   0  0  0  0  0  0  0  0  0  0  0  0
   -0.8850   -0.7642    1.9568 C   0  0  0  0  0  0  0  0  0  0  0  0
   -1.0397   -0.7639    3.2717 C   0  0  0  0  0  0  0  0  0  0  0  0
    0.4177   -2.9861   -1.5591 H   0  0  0  0  0  0  0  0  0  0  0  0
    0.4202   -1.1377   -1.5581 H   0  0  0  0  0  0  0  0  0  0  0  0
    0.4137   -3.0093    0.8685 H   0  0  0  0  0  0  0  0  0  0  0  0
    0.4551    0.2116    0.4014 H   0  0  0  0  0  0  0  0  0  0  0  0
    2.5596   -0.8113    1.4806 H   0  0  0  0  0  0  0  0  0  0  0  0
    1.6715    0.0928    2.7150 H   0  0  0  0  0  0  0  0  0  0  0  0
    1.6894   -1.6747    2.7495 H   0  0  0  0  0  0  0  0  0  0  0  0
   -1.7682   -0.7284    1.3242 H   0  0  0  0  0  0  0  0  0  0  0  0
   -0.1993   -0.8033    3.9542 H   0  0  0  0  0  0  0  0  0  0  0  0
   -2.0261   -0.7208    3.7159 H   0  0  0  0  0  0  0  0  0  0  0  0
  1  2  1  0
  1  5  1  0
  1  6  1  0
  1  7  1  0
  2  3  1  0
  2  8  1  0
  2 19  1  0
  3  4  2  0
  3  9  1  0
 10 11  2  3
 10 16  1  0
 10 17  1  0
 11 12  1  0
 11 18  1  0
 12 13  1  0
 12 14  1  0
 13 20  1  0
 13 21  1  0
 13 22  1  0
 14 15  2  3
 14 23  1  0
 15 24  1  0
 15 25  1  0
M  RAD  1  12   2
M  END
>  <reaction>  (10) 
rxn_1195

>  <mol_properties>  (10) 
{"1": {"label": "*3", "atom_type": "Cd"}, "2": {"label": "*4", "atom_type": "Cd"}, "10": {"label": "*0", "atom_type": "Cd"}, "11": {"label": "*1", "atom_type": "Cs"}, "18": {"label": "*2", "atom_type": "H0"}}

>  <type>  (10) 
unop_6

>  <geom_source>  (10) 
Heuristics

$$$$

     RDKit          3D

 25 23  0  0  0  0  0  0  0  0999 V2000
    1.5057    2.1737   -0.0380 C   0  0  0  0  0  0  0  0  0  0  0  0
    0.2593    1.3246   -0.3018 C   0  0  0  0  0  0  0  0  0  0  0  0
   -0.3471    1.6409   -1.6278 C   0  0  0  0  0  0  0  0  0  0  0  0
   -0.5577    0.6218   -2.8517 S   0  0  0  0  0  0  0  0  0  0  0  0
    2.2834    1.9552   -0.7709 H   0  0  0  0  0  0  0  0  0  0  0  0
    1.2784    3.2401   -0.0919 H   0  0  0  0  0  0  0  0  0  0  0  0
    1.9037    1.9638    0.9549 H   0  0  0  0  0  0  0  0  0  0  0  0
   -0.4903    1.5451    0.4671 H   0  0  0  0  0  0  0  0  0  0  0  0
   -0.6516    2.6840   -1.7454 H   0  0  0  0  0  0  0  0  0  0  0  0
    0.1863   -1.9890   -0.9014 C   0  0  0  0  0  0  0  0  0  0  0  0
    0.1863   -1.9890    0.4219 C   0  0  0  0  0  0  0  0  0  0  0  0
    0.1863   -0.7582    1.2913 C   0  0  0  0  0  3  0  0  0  0  0  0
    1.4247   -0.7284    2.1829 C   0  0  0  0  0  0  0  0  0  0  0  0
   -1.1172   -0.6896    2.0478 C   0  0  0  0  0  0  0  0  0  0  0  0
   -1.2718   -0.6894    3.3627 C   0  0  0  0  0  0  0  0  0  0  0  0
    0.1856   -2.9116   -1.4681 H   0  0  0  0  0  0  0  0  0  0  0  0
    0.1881   -1.0632   -1.4671 H   0  0  0  0  0  0  0  0  0  0  0  0
    0.1816   -2.9348    0.9595 H   0  0  0  0  0  0  0  0  0  0  0  0
    0.2229    0.2862    0.4925 H   0  0  0  0  0  0  0  0  0  0  0  0
    2.3275   -0.7368    1.5716 H   0  0  0  0  0  0  0  0  0  0  0  0
    1.4394    0.1674    2.8060 H   0  0  0  0  0  0  0  0  0  0  0  0
    1.4573   -1.6002    2.8405 H   0  0  0  0  0  0  0  0  0  0  0  0
   -2.0004   -0.6539    1.4153 H   0  0  0  0  0  0  0  0  0  0  0  0
   -0.4315   -0.7287    4.0453 H   0  0  0  0  0  0  0  0  0  0  0  0
   -2.2582   -0.6463    3.8070 H   0  0  0  0  0  0  0  0  0  0  0  0
  1  2  1  0
  1  5  1  0
  1  6  1  0
  1  7  1  0
  2  3  1  0
  2  8  1  0
  2 19  1  0
  3  4  2  0
  3  9  1  0
 10 11  2  3
 10 16  1  0
 10 17  1  0
 11 12  1  0
 11 18  1  0
 12 13  1  0
 12 14  1  0
 13 20  1  0
 13 21  1  0
 13 22  1  0
 14 15  2  3
 14 23  1  0
 15 24  1  0
 15 25  1  0
M  RAD  1  12   2
M  END
>  <reaction>  (11) 
rxn_1195

>  <mol_properties>  (11) 
{"1": {"label": "*3", "atom_type": "Cd"}, "2": {"label": "*4", "atom_type": "Cd"}, "10": {"label": "*0", "atom_type": "Cd"}, "11": {"label": "*1", "atom_type": "Cs"}, "18": {"label": "*2", "atom_type": "H0"}}

>  <type>  (11) 
unop_7

>  <geom_source>  (11) 
Heuristics

$$$$

     RDKit          3D

 25 23  0  0  0  0  0  0  0  0999 V2000
   -1.3245    1.7163   -1.8834 C   0  0  0  0  0  0  0  0  0  0  0  0
    0.0890    1.2567   -1.5161 C   0  0  0  0  0  0  0  0  0  0  0  0
    0.5201    1.8126   -0.2005 C   0  0  0  0  0  3  0  0  0  0  0  0
    0.9341    0.9721    1.1046 S   0  0  0  0  0  0  0  0  0  0  0  0
   -2.0512    1.3439   -1.1602 H   0  0  0  0  0  0  0  0  0  0  0  0
   -1.3948    2.8055   -1.9051 H   0  0  0  0  0  0  0  0  0  0  0  0
   -1.6007    1.3411   -2.8689 H   0  0  0  0  0  0  0  0  0  0  0  0
    0.7899    1.6210   -2.2762 H   0  0  0  0  0  0  0  0  0  0  0  0
    0.5271    2.9045   -0.1545 H   0  0  0  0  0  0  0  0  0  0  0  0
    0.0160   -2.0569   -2.1157 C   0  0  0  0  0  0  0  0  0  0  0  0
    0.0160   -2.0569   -0.7924 C   0  0  0  0  0  0  0  0  0  0  0  0
    0.0160   -0.8261    0.0770 C   0  0  0  0  0  0  0  0  0  0  0  0
    1.2544   -0.7963    0.9686 C   0  0  0  0  0  0  0  0  0  0  0  0
   -1.2875   -0.7575    0.8335 C   0  0  0  0  0  0  0  0  0  0  0  0
   -1.4421   -0.7573    2.1484 C   0  0  0  0  0  0  0  0  0  0  0  0
    0.0153   -2.9795   -2.6824 H   0  0  0  0  0  0  0  0  0  0  0  0
    0.0178   -1.1311   -2.6814 H   0  0  0  0  0  0  0  0  0  0  0  0
    0.0113   -3.0027   -0.2548 H   0  0  0  0  0  0  0  0  0  0  0  0
    0.0526    0.2183   -0.7219 H   0  0  0  0  0  0  0  0  0  0  0  0
    2.1571   -0.8047    0.3573 H   0  0  0  0  0  0  0  0  0  0  0  0
    1.2691    0.0995    1.5917 H   0  0  0  0  0  0  0  0  0  0  0  0
    1.2870   -1.6681    1.6262 H   0  0  0  0  0  0  0  0  0  0  0  0
   -2.1707   -0.7218    0.2009 H   0  0  0  0  0  0  0  0  0  0  0  0
   -0.6018   -0.7966    2.8310 H   0  0  0  0  0  0  0  0  0  0  0  0
   -2.4285   -0.7142    2.5926 H   0  0  0  0  0  0  0  0  0  0  0  0
  1  2  1  0
  1  5  1  0
  1  6  1  0
  1  7  1  0
  2  3  1  0
  2  8  1  0
  2 19  1  0
  3  4  1  0
  3  9  1  0
  4 21  1  0
 10 11  2  3
 10 16  1  0
 10 17  1  0
 11 12  1  0
 11 18  1  0
 12 13  2  3
 12 14  1  0
 13 20  1  0
 13 22  1  0
 14 15  2  3
 14 23  1  0
 15 24  1  0
 15 25  1  0
M  RAD  1   3   2
M  END
>  <reaction>  (12) 
rxn_1195

>  <mol_properties>  (12) 
{"1": {"label": "*3", "atom_type": "Cd"}, "2": {"label": "*4", "atom_type": "Cd"}, "10": {"label": "*0", "atom_type": "Cd"}, "11": {"label": "*1", "atom_type": "Cs"}, "18": {"label": "*2", "atom_type": "H0"}}

>  <type>  (12) 
unop_8

>  <geom_source>  (12) 
Heuristics

$$$$

     RDKit          3D

 25 23  0  0  0  0  0  0  0  0999 V2000
    1.4794    0.8176   -2.0715 C   0  0  0  0  0  0  0  0  0  0  0  0
    0.7390    1.1463   -0.7723 C   0  0  0  0  0  0  0  0  0  0  0  0
   -0.4491    2.0127   -1.0243 C   0  0  0  0  0  0  0  0  0  0  0  0
   -1.9803    1.6586   -0.6907 S   0  0  0  0  0  0  0  0  0  0  0  0
    0.8411    0.2439   -2.7446 H   0  0  0  0  0  0  0  0  0  0  0  0
    1.7916    1.7254   -2.5912 H   0  0  0  0  0  0  0  0  0  0  0  0
    2.3708    0.2268   -1.8602 H   0  0  0  0  0  0  0  0  0  0  0  0
    1.4153    1.6957   -0.1070 H   0  0  0  0  0  0  0  0  0  0  0  0
   -0.2154    2.9691   -1.4988 H   0  0  0  0  0  0  0  0  0  0  0  0
    0.6660   -2.1672   -1.3718 C   0  0  0  0  0  0  0  0  0  0  0  0
    0.6660   -2.1672   -0.0486 C   0  0  0  0  0  0  0  0  0  0  0  0
    0.6660   -0.9365    0.8208 C   0  0  0  0  0  3  0  0  0  0  0  0
    1.9044   -0.9067    1.7124 C   0  0  0  0  0  0  0  0  0  0  0  0
   -0.6375   -0.8679    1.5774 C   0  0  0  0  0  0  0  0  0  0  0  0
   -0.7921   -0.8676    2.8923 C   0  0  0  0  0  0  0  0  0  0  0  0
    0.6653   -3.0899   -1.9385 H   0  0  0  0  0  0  0  0  0  0  0  0
    0.6678   -1.2415   -1.9375 H   0  0  0  0  0  0  0  0  0  0  0  0
    0.6613   -3.1131    0.4891 H   0  0  0  0  0  0  0  0  0  0  0  0
    0.7026    0.1079    0.0220 H   0  0  0  0  0  0  0  0  0  0  0  0
    2.8071   -0.9150    1.1012 H   0  0  0  0  0  0  0  0  0  0  0  0
    1.9191   -0.0109    2.3355 H   0  0  0  0  0  0  0  0  0  0  0  0
    1.9370   -1.7784    2.3701 H   0  0  0  0  0  0  0  0  0  0  0  0
   -1.5207   -0.8322    0.9448 H   0  0  0  0  0  0  0  0  0  0  0  0
    0.0482   -0.9070    3.5748 H   0  0  0  0  0  0  0  0  0  0  0  0
   -1.7785   -0.8245    3.3365 H   0  0  0  0  0  0  0  0  0  0  0  0
  1  2  1  0
  1  5  1  0
  1  6  1  0
  1  7  1  0
  2  3  1  0
  2  8  1  0
  2 19  1  0
  3  4  2  0
  3  9  1  0
 10 11  2  3
 10 16  1  0
 10 17  1  0
 11 12  1  0
 11 18  1  0
 12 13  1  0
 12 14  1  0
 13 20  1  0
 13 21  1  0
 13 22  1  0
 14 15  2  3
 14 23  1  0
 15 24  1  0
 15 25  1  0
M  RAD  1  12   2
M  END
>  <reaction>  (13) 
rxn_1195

>  <mol_properties>  (13) 
{"1": {"label": "*3", "atom_type": "Cd"}, "2": {"label": "*4", "atom_type": "Cd"}, "10": {"label": "*0", "atom_type": "Cd"}, "11": {"label": "*1", "atom_type": "Cs"}, "18": {"label": "*2", "atom_type": "H0"}}

>  <type>  (13) 
unop_9

>  <geom_source>  (13) 
Heuristics

$$$$

     RDKit          3D

 25 23  0  0  0  0  0  0  0  0999 V2000
   -0.8680    1.2138   -2.4124 C   0  0  0  0  0  0  0  0  0  0  0  0
    0.3479    1.1917   -1.4822 C   0  0  0  0  0  0  0  0  0  0  0  0
    0.0856    1.9454   -0.2216 C   0  0  0  0  0  0  0  0  0  0  0  0
    0.1252    1.3555    1.2723 S   0  0  0  0  0  0  0  0  0  0  0  0
   -1.7181    0.7127   -1.9478 H   0  0  0  0  0  0  0  0  0  0  0  0
   -1.1660    2.2362   -2.6521 H   0  0  0  0  0  0  0  0  0  0  0  0
   -0.6390    0.7016   -3.3470 H   0  0  0  0  0  0  0  0  0  0  0  0
    1.1916    1.6751   -1.9884 H   0  0  0  0  0  0  0  0  0  0  0  0
   -0.1711    2.9970   -0.3718 H   0  0  0  0  0  0  0  0  0  0  0  0
    0.2750   -2.1219   -2.0817 C   0  0  0  0  0  0  0  0  0  0  0  0
    0.2750   -2.1219   -0.7585 C   0  0  0  0  0  0  0  0  0  0  0  0
    0.2750   -0.8911    0.1109 C   0  0  0  0  0  3  0  0  0  0  0  0
    1.5133   -0.8613    1.0025 C   0  0  0  0  0  0  0  0  0  0  0  0
   -1.0286   -0.8225    0.8675 C   0  0  0  0  0  0  0  0  0  0  0  0
   -1.1832   -0.8223    2.1824 C   0  0  0  0  0  0  0  0  0  0  0  0
    0.2742   -3.0445   -2.6484 H   0  0  0  0  0  0  0  0  0  0  0  0
    0.2767   -1.1961   -2.6474 H   0  0  0  0  0  0  0  0  0  0  0  0
    0.2702   -3.0677   -0.2208 H   0  0  0  0  0  0  0  0  0  0  0  0
    0.3116    0.1533   -0.6879 H   0  0  0  0  0  0  0  0  0  0  0  0
    2.4161   -0.8697    0.3913 H   0  0  0  0  0  0  0  0  0  0  0  0
    1.5280    0.0345    1.6257 H   0  0  0  0  0  0  0  0  0  0  0  0
    1.5459   -1.7331    1.6602 H   0  0  0  0  0  0  0  0  0  0  0  0
   -1.9117   -0.7868    0.2349 H   0  0  0  0  0  0  0  0  0  0  0  0
   -0.3428   -0.8616    2.8649 H   0  0  0  0  0  0  0  0  0  0  0  0
   -2.1696   -0.7792    2.6266 H   0  0  0  0  0  0  0  0  0  0  0  0
  1  2  1  0
  1  5  1  0
  1  6  1  0
  1  7  1  0
  2  3  1  0
  2  8  1  0
  2 19  1  0
  3  4  2  0
  3  9  1  0
 10 11  2  3
 10 16  1  0
 10 17  1  0
 11 12  1  0
 11 18  1  0
 12 13  1  0
 12 14  1  0
 13 20  1  0
 13 21  1  0
 13 22  1  0
 14 15  2  3
 14 23  1  0
 15 24  1  0
 15 25  1  0
M  RAD  1  12   2
M  END
>  <reaction>  (14) 
rxn_1195

>  <mol_properties>  (14) 
{"1": {"label": "*3", "atom_type": "Cd"}, "2": {"label": "*4", "atom_type": "Cd"}, "10": {"label": "*0", "atom_type": "Cd"}, "11": {"label": "*1", "atom_type": "Cs"}, "18": {"label": "*2", "atom_type": "H0"}}

>  <type>  (14) 
unop_10

>  <geom_source>  (14) 
Heuristics

$$$$

     RDKit          3D

 25 23  0  0  0  0  0  0  0  0999 V2000
    0.6360    2.5677    0.3161 C   0  0  0  0  0  0  0  0  0  0  0  0
   -0.0829    1.3919   -0.3508 C   0  0  0  0  0  0  0  0  0  0  0  0
    0.0541    1.4384   -1.8357 C   0  0  0  0  0  0  0  0  0  0  0  0
    0.7312    0.3205   -2.7700 S   0  0  0  0  0  0  0  0  0  0  0  0
    1.7087    2.5234    0.1234 H   0  0  0  0  0  0  0  0  0  0  0  0
    0.2634    3.5238   -0.0565 H   0  0  0  0  0  0  0  0  0  0  0  0
    0.4817    2.5433    1.3949 H   0  0  0  0  0  0  0  0  0  0  0  0
   -1.1518    1.4484   -0.1141 H   0  0  0  0  0  0  0  0  0  0  0  0
   -0.3438    2.3465   -2.2955 H   0  0  0  0  0  0  0  0  0  0  0  0
   -0.1559   -1.9217   -0.9503 C   0  0  0  0  0  0  0  0  0  0  0  0
   -0.1559   -1.9217    0.3729 C   0  0  0  0  0  0  0  0  0  0  0  0
   -0.1559   -0.6909    1.2423 C   0  0  0  0  0  3  0  0  0  0  0  0
    1.0825   -0.6611    2.1339 C   0  0  0  0  0  0  0  0  0  0  0  0
   -1.4594   -0.6223    1.9988 C   0  0  0  0  0  0  0  0  0  0  0  0
   -1.6140   -0.6221    3.3138 C   0  0  0  0  0  0  0  0  0  0  0  0
   -0.1566   -2.8443   -1.5170 H   0  0  0  0  0  0  0  0  0  0  0  0
   -0.1541   -0.9959   -1.5160 H   0  0  0  0  0  0  0  0  0  0  0  0
   -0.1606   -2.8675    0.9105 H   0  0  0  0  0  0  0  0  0  0  0  0
   -0.1193    0.3535    0.4435 H   0  0  0  0  0  0  0  0  0  0  0  0
    1.9852   -0.6695    1.5227 H   0  0  0  0  0  0  0  0  0  0  0  0
    1.0972    0.2347    2.7570 H   0  0  0  0  0  0  0  0  0  0  0  0
    1.1151   -1.5329    2.7915 H   0  0  0  0  0  0  0  0  0  0  0  0
   -2.3426   -0.5866    1.3663 H   0  0  0  0  0  0  0  0  0  0  0  0
   -0.7737   -0.6614    3.9963 H   0  0  0  0  0  0  0  0  0  0  0  0
   -2.6004   -0.5790    3.7580 H   0  0  0  0  0  0  0  0  0  0  0  0
  1  2  1  0
  1  5  1  0
  1  6  1  0
  1  7  1  0
  2  3  1  0
  2  8  1  0
  2 19  1  0
  3  4  2  0
  3  9  1  0
 10 11  2  3
 10 16  1  0
 10 17  1  0
 11 12  1  0
 11 18  1  0
 12 13  1  0
 12 14  1  0
 13 20  1  0
 13 21  1  0
 13 22  1  0
 14 15  2  3
 14 23  1  0
 15 24  1  0
 15 25  1  0
M  RAD  1  12   2
M  END
>  <reaction>  (15) 
rxn_1195

>  <mol_properties>  (15) 
{"1": {"label": "*3", "atom_type": "Cd"}, "2": {"label": "*4", "atom_type": "Cd"}, "10": {"label": "*0", "atom_type": "Cd"}, "11": {"label": "*1", "atom_type": "Cs"}, "18": {"label": "*2", "atom_type": "H0"}}

>  <type>  (15) 
unop_11

>  <geom_source>  (15) 
Heuristics

$$$$

     RDKit          3D

 25 23  0  0  0  0  0  0  0  0999 V2000
    0.7603    0.7003   -2.5225 C   0  0  0  0  0  0  0  0  0  0  0  0
    0.7326    1.1333   -1.0542 C   0  0  0  0  0  0  0  0  0  0  0  0
   -0.4280    2.0265   -0.7694 C   0  0  0  0  0  0  0  0  0  0  0  0
   -1.6145    1.7499    0.2778 S   0  0  0  0  0  0  0  0  0  0  0  0
   -0.1245    0.1113   -2.7676 H   0  0  0  0  0  0  0  0  0  0  0  0
    0.7895    1.5632   -3.1905 H   0  0  0  0  0  0  0  0  0  0  0  0
    1.6418    0.0906   -2.7209 H   0  0  0  0  0  0  0  0  0  0  0  0
    1.6468    1.6961   -0.8323 H   0  0  0  0  0  0  0  0  0  0  0  0
   -0.4459    2.9435   -1.3638 H   0  0  0  0  0  0  0  0  0  0  0  0
    0.6596   -2.1802   -1.6537 C   0  0  0  0  0  0  0  0  0  0  0  0
    0.6596   -2.1802   -0.3305 C   0  0  0  0  0  0  0  0  0  0  0  0
    0.6596   -0.9494    0.5389 C   0  0  0  0  0  3  0  0  0  0  0  0
    1.8980   -0.9196    1.4305 C   0  0  0  0  0  0  0  0  0  0  0  0
   -0.6439   -0.8808    1.2954 C   0  0  0  0  0  0  0  0  0  0  0  0
   -0.7985   -0.8806    2.6104 C   0  0  0  0  0  0  0  0  0  0  0  0
    0.6589   -3.1028   -2.2204 H   0  0  0  0  0  0  0  0  0  0  0  0
    0.6614   -1.2544   -2.2194 H   0  0  0  0  0  0  0  0  0  0  0  0
    0.6549   -3.1260    0.2072 H   0  0  0  0  0  0  0  0  0  0  0  0
    0.6962    0.0949   -0.2599 H   0  0  0  0  0  0  0  0  0  0  0  0
    2.8008   -0.9280    0.8193 H   0  0  0  0  0  0  0  0  0  0  0  0
    1.9127   -0.0239    2.0536 H   0  0  0  0  0  0  0  0  0  0  0  0
    1.9306   -1.7914    2.0881 H   0  0  0  0  0  0  0  0  0  0  0  0
   -1.5271   -0.8451    0.6629 H   0  0  0  0  0  0  0  0  0  0  0  0
    0.0418   -0.9199    3.2929 H   0  0  0  0  0  0  0  0  0  0  0  0
   -1.7849   -0.8375    3.0546 H   0  0  0  0  0  0  0  0  0  0  0  0
  1  2  1  0
  1  5  1  0
  1  6  1  0
  1  7  1  0
  2  3  1  0
  2  8  1  0
  2 19  1  0
  3  4  2  0
  3  9  1  0
 10 11  2  3
 10 16  1  0
 10 17  1  0
 11 12  1  0
 11 18  1  0
 12 13  1  0
 12 14  1  0
 13 20  1  0
 13 21  1  0
 13 22  1  0
 14 15  2  3
 14 23  1  0
 15 24  1  0
 15 25  1  0
M  RAD  1  12   2
M  END
>  <reaction>  (16) 
rxn_1195

>  <mol_properties>  (16) 
{"1": {"label": "*3", "atom_type": "Cd"}, "2": {"label": "*4", "atom_type": "Cd"}, "10": {"label": "*0", "atom_type": "Cd"}, "11": {"label": "*1", "atom_type": "Cs"}, "18": {"label": "*2", "atom_type": "H0"}}

>  <type>  (16) 
unop_12

>  <geom_source>  (16) 
Heuristics

$$$$

     RDKit          3D

 25 23  0  0  0  0  0  0  0  0999 V2000
    2.0439    1.9231    1.1090 S   0  0  0  0  0  0  0  0  0  0  0  0
   -0.6646    0.4222   -0.2513 C   0  0  0  0  0  3  0  0  0  0  0  0
   -0.0785    1.3629   -1.3083 C   0  0  0  0  0  0  0  0  0  0  0  0
    2.4343   -1.5519    0.0333 C   0  0  0  0  0  0  0  0  0  0  0  0
   -1.2163   -0.8318   -0.8854 C   0  0  0  0  0  0  0  0  0  0  0  0
   -1.7164    1.1245    0.5754 C   0  0  0  0  0  0  0  0  0  0  0  0
    1.5443   -0.5325    0.7304 C   0  0  0  0  0  0  0  0  0  0  0  0
    2.3605    0.5483    1.3629 C   0  0  0  0  0  0  0  0  0  0  0  0
   -1.5206   -1.9037   -0.1487 C   0  0  0  0  0  0  0  0  0  0  0  0
   -2.8716    1.5597    0.0584 C   0  0  0  0  0  0  0  0  0  0  0  0
    0.3581    0.0648    0.5788 H   0  0  0  0  0  0  0  0  0  0  0  0
   -0.8518    1.6705   -2.0446 H   0  0  0  0  0  0  0  0  0  0  0  0
    0.7467    0.8529   -1.8493 H   0  0  0  0  0  0  0  0  0  0  0  0
    0.3361    2.2703   -0.8198 H   0  0  0  0  0  0  0  0  0  0  0  0
    3.1100   -2.0419    0.7667 H   0  0  0  0  0  0  0  0  0  0  0  0
    3.0397   -1.0547   -0.7539 H   0  0  0  0  0  0  0  0  0  0  0  0
    1.7995   -2.3272   -0.4437 H   0  0  0  0  0  0  0  0  0  0  0  0
    0.9239   -1.0337    1.5036 H   0  0  0  0  0  0  0  0  0  0  0  0
   -1.3633   -0.8771   -1.9614 H   0  0  0  0  0  0  0  0  0  0  0  0
   -1.5261    1.2738    1.6336 H   0  0  0  0  0  0  0  0  0  0  0  0
    3.1080    0.2994    2.1095 H   0  0  0  0  0  0  0  0  0  0  0  0
   -1.3831   -1.8980    0.9284 H   0  0  0  0  0  0  0  0  0  0  0  0
   -1.9119   -2.7969   -0.6248 H   0  0  0  0  0  0  0  0  0  0  0  0
   -3.5973    2.0562    0.6942 H   0  0  0  0  0  0  0  0  0  0  0  0
   -3.1034    1.4208   -0.9930 H   0  0  0  0  0  0  0  0  0  0  0  0
  1  8  2  0
  2  3  1  0
  2  5  1  0
  2  6  1  0
  3 12  1  0
  3 13  1  0
  3 14  1  0
  4  7  1  0
  4 15  1  0
  4 16  1  0
  4 17  1  0
  5  9  2  3
  5 19  1  0
  6 10  2  3
  6 20  1  0
  7  8  1  0
  7 11  1  0
  7 18  1  0
  8 21  1  0
  9 22  1  0
  9 23  1  0
 10 24  1  0
 10 25  1  0
M  RAD  1   2   2
M  END
>  <reaction>  (17) 
rxn_1195

>  <mol_properties>  (17) 
{"1": {"label": "*3", "atom_type": "Cd"}, "2": {"label": "*4", "atom_type": "Cd"}, "10": {"label": "*0", "atom_type": "Cd"}, "11": {"label": "*1", "atom_type": "Cs"}, "18": {"label": "*2", "atom_type": "H0"}}

>  <type>  (17) 
unop_13

>  <geom_source>  (17) 
AutoTST

$$$$

     RDKit          3D

 25 23  0  0  0  0  0  0  0  0999 V2000
   -0.1006    0.8441   -2.6547 C   0  0  0  0  0  0  0  0  0  0  0  0
    0.5878    1.1488   -1.3214 C   0  0  0  0  0  0  0  0  0  0  0  0
   -0.2643    2.0097   -0.4504 C   0  0  0  0  0  0  0  0  0  0  0  0
   -0.8216    1.6392    1.0102 S   0  0  0  0  0  0  0  0  0  0  0  0
   -1.0172    0.2752   -2.4942 H   0  0  0  0  0  0  0  0  0  0  0  0
   -0.3592    1.7615   -3.1868 H   0  0  0  0  0  0  0  0  0  0  0  0
    0.5577    0.2571   -3.2952 H   0  0  0  0  0  0  0  0  0  0  0  0
    1.5184    1.6938   -1.5183 H   0  0  0  0  0  0  0  0  0  0  0  0
   -0.5273    2.9744   -0.8914 H   0  0  0  0  0  0  0  0  0  0  0  0
    0.5148   -2.1648   -1.9209 C   0  0  0  0  0  0  0  0  0  0  0  0
    0.5148   -2.1648   -0.5977 C   0  0  0  0  0  0  0  0  0  0  0  0
    0.5148   -0.9340    0.2717 C   0  0  0  0  0  3  0  0  0  0  0  0
    1.7532   -0.9042    1.1633 C   0  0  0  0  0  0  0  0  0  0  0  0
   -0.7887   -0.8654    1.0282 C   0  0  0  0  0  0  0  0  0  0  0  0
   -0.9433   -0.8652    2.3431 C   0  0  0  0  0  0  0  0  0  0  0  0
    0.5141   -3.0874   -2.4877 H   0  0  0  0  0  0  0  0  0  0  0  0
    0.5166   -1.2390   -2.4867 H   0  0  0  0  0  0  0  0  0  0  0  0
    0.5101   -3.1106   -0.0601 H   0  0  0  0  0  0  0  0  0  0  0  0
    0.5514    0.1104   -0.5271 H   0  0  0  0  0  0  0  0  0  0  0  0
    2.6560   -0.9126    0.5520 H   0  0  0  0  0  0  0  0  0  0  0  0
    1.7679   -0.0084    1.7864 H   0  0  0  0  0  0  0  0  0  0  0  0
    1.7858   -1.7760    1.8209 H   0  0  0  0  0  0  0  0  0  0  0  0
   -1.6719   -0.8297    0.3957 H   0  0  0  0  0  0  0  0  0  0  0  0
   -0.1030   -0.9045    3.0257 H   0  0  0  0  0  0  0  0  0  0  0  0
   -1.9297   -0.8220    2.7873 H   0  0  0  0  0  0  0  0  0  0  0  0
  1  2  1  0
  1  5  1  0
  1  6  1  0
  1  7  1  0
  2  3  1  0
  2  8  1  0
  2 19  1  0
  3  4  2  0
  3  9  1  0
 10 11  2  3
 10 16  1  0
 10 17  1  0
 11 12  1  0
 11 18  1  0
 12 13  1  0
 12 14  1  0
 13 20  1  0
 13 21  1  0
 13 22  1  0
 14 15  2  3
 14 23  1  0
 15 24  1  0
 15 25  1  0
M  RAD  1  12   2
M  END
>  <reaction>  (18) 
rxn_1195

>  <mol_properties>  (18) 
{"1": {"label": "*3", "atom_type": "Cd"}, "2": {"label": "*4", "atom_type": "Cd"}, "10": {"label": "*0", "atom_type": "Cd"}, "11": {"label": "*1", "atom_type": "Cs"}, "18": {"label": "*2", "atom_type": "H0"}}

>  <type>  (18) 
unop_14

>  <geom_source>  (18) 
gaussian_log

$$$$
