
     RDKit          3D

 22 23  0  0  0  0  0  0  0  0999 V2000
   -2.1093   -0.3263    0.3079 C   0  0  0  0  0  0  0  0  0  0  0  0
   -1.3270    0.9803    0.4115 C   0  0  0  0  0  0  0  0  0  0  0  0
   -0.1818    0.8289   -0.6044 C   0  0  0  0  0  0  0  0  0  0  0  0
    1.1682    1.3904   -0.1341 C   0  0  0  0  0  0  0  0  0  0  0  0
    1.8508    0.2041    0.5479 C   0  0  0  0  0  0  0  0  0  0  0  0
    1.4982   -0.9663   -0.3710 C   0  0  0  0  0  0  0  0  0  0  0  0
    0.0340   -0.7124   -0.7594 C   0  0  0  0  0  0  0  0  0  0  0  0
   -0.9986   -1.3650    0.1756 C   0  0  0  0  0  0  0  0  0  0  0  0
   -2.7686   -0.5042    1.1589 H   0  0  0  0  0  0  0  0  0  0  0  0
   -2.7285   -0.3223   -0.5943 H   0  0  0  0  0  0  0  0  0  0  0  0
   -1.9339    1.8682    0.2289 H   0  0  0  0  0  0  0  0  0  0  0  0
   -0.9144    1.0729    1.4218 H   0  0  0  0  0  0  0  0  0  0  0  0
   -0.4804    1.2763   -1.5535 H   0  0  0  0  0  0  0  0  0  0  0  0
    1.7667    1.7058   -0.9931 H   0  0  0  0  0  0  0  0  0  0  0  0
    1.0540    2.2578    0.5189 H   0  0  0  0  0  0  0  0  0  0  0  0
    1.4197    0.0438    1.5410 H   0  0  0  0  0  0  0  0  0  0  0  0
    2.9248    0.3413    0.6788 H   0  0  0  0  0  0  0  0  0  0  0  0
    2.1362   -0.9329   -1.2584 H   0  0  0  0  0  0  0  0  0  0  0  0
    1.6421   -1.9421    0.0966 H   0  0  0  0  0  0  0  0  0  0  0  0
   -0.1575   -1.0299   -1.7854 H   0  0  0  0  0  0  0  0  0  0  0  0
   -1.3459   -2.3310   -0.1933 H   0  0  0  0  0  0  0  0  0  0  0  0
   -0.5489   -1.5373    1.1593 H   0  0  0  0  0  0  0  0  0  0  0  0
  1  2  1  0
  1  8  1  0
  1  9  1  0
  1 10  1  0
  2  3  1  0
  2 11  1  0
  2 12  1  0
  3  4  1  0
  3  7  1  0
  3 13  1  0
  4  5  1  0
  4 14  1  0
  4 15  1  0
  5  6  1  0
  5 16  1  0
  5 17  1  0
  6  7  1  0
  6 18  1  0
  6 19  1  0
  7  8  1  0
  7 20  1  0
  8 21  1  0
  8 22  1  0
M  END
>  <reaction>  (1) 
rxn_565

>  <mol_properties>  (1) 
{"2": {"label": "donator", "atom_type": "Cs"}, "12": {"label": "d_hydrogen", "atom_type": "H0"}}

>  <type>  (1) 
r1h

$$$$

     RDKit          3D

  9  8  0  0  0  0  0  0  0  0999 V2000
    2.3038   -0.0269    0.1590 C   0  0  0  0  0  0  0  0  0  0  0  0
    1.1426    0.1377   -0.1648 C   0  0  0  0  0  0  0  0  0  0  0  0
   -0.1694    0.3175   -0.5203 C   0  0  0  0  0  3  0  0  0  0  0  0
   -1.3163   -0.1910    0.2856 C   0  0  0  0  0  0  0  0  0  0  0  0
    3.3199   -0.1683    0.4378 H   0  0  0  0  0  0  0  0  0  0  0  0
   -0.3786    0.8584   -1.4360 H   0  0  0  0  0  0  0  0  0  0  0  0
   -1.9694    0.6309    0.5951 H   0  0  0  0  0  0  0  0  0  0  0  0
   -1.9325   -0.8770   -0.3039 H   0  0  0  0  0  0  0  0  0  0  0  0
   -0.9753   -0.7144    1.1774 H   0  0  0  0  0  0  0  0  0  0  0  0
  1  2  3  0
  1  5  1  0
  2  3  1  0
  3  4  1  0
  3  6  1  0
  4  7  1  0
  4  8  1  0
  4  9  1  0
M  RAD  1   3   2
M  END
>  <reaction>  (2) 
rxn_565

>  <mol_properties>  (2) 
{"2": {"label": "acceptor", "atom_type": "Cs"}}

>  <type>  (2) 
r2

$$$$

     RDKit          3D

 10  9  0  0  0  0  0  0  0  0999 V2000
    2.2738    0.0217   -0.0992 C   0  0  0  0  0  0  0  0  0  0  0  0
    1.1083    0.2960   -0.0695 C   0  0  0  0  0  0  0  0  0  0  0  0
   -0.3173    0.6046   -0.0227 C   0  0  0  0  0  0  0  0  0  0  0  0
   -1.1561   -0.5495    0.5292 C   0  0  0  0  0  0  0  0  0  0  0  0
    3.3097   -0.2166   -0.1277 H   0  0  0  0  0  0  0  0  0  0  0  0
   -0.6542    0.8617   -1.0302 H   0  0  0  0  0  0  0  0  0  0  0  0
   -0.4633    1.4978    0.5900 H   0  0  0  0  0  0  0  0  0  0  0  0
   -0.8485   -0.7997    1.5447 H   0  0  0  0  0  0  0  0  0  0  0  0
   -2.2115   -0.2752    0.5459 H   0  0  0  0  0  0  0  0  0  0  0  0
   -1.0409   -1.4407   -0.0879 H   0  0  0  0  0  0  0  0  0  0  0  0
  1  2  3  0
  1  5  1  0
  2  3  1  0
  3  4  1  0
  3  6  1  0
  3  7  1  0
  4  8  1  0
  4  9  1  0
  4 10  1  0
M  END
>  <reaction>  (3) 
rxn_565

>  <mol_properties>  (3) 
{"2": {"label": "acceptor", "atom_type": "Cs"}, "9": {"label": "a_hydrogen", "atom_type": "H0"}}

>  <type>  (3) 
r2h

$$$$

     RDKit          3D

 31 31  0  0  0  0  0  0  0  0999 V2000
   -2.7276    1.2707    1.7490 C   0  0  0  0  0  0  0  0  0  0  0  0
   -2.3457    0.2231    1.2965 C   0  0  0  0  0  0  0  0  0  0  0  0
   -1.8256   -0.9781    0.7248 C   0  0  0  0  0  0  0  0  0  0  0  0
   -2.4323   -1.4196   -0.5914 C   0  0  0  0  0  0  0  0  0  0  0  0
   -3.0848    2.1843    2.1586 H   0  0  0  0  0  0  0  0  0  0  0  0
   -1.7300   -1.7817    1.4545 H   0  0  0  0  0  0  0  0  0  0  0  0
   -1.8797   -2.2683   -0.9976 H   0  0  0  0  0  0  0  0  0  0  0  0
   -3.4764   -1.7186   -0.4724 H   0  0  0  0  0  0  0  0  0  0  0  0
   -2.3984   -0.6094   -1.3214 H   0  0  0  0  0  0  0  0  0  0  0  0
    1.0161   -0.8321   -2.2337 C   0  0  0  0  0  0  0  0  0  0  0  0
    1.2654   -1.3545   -0.8155 C   0  0  0  0  0  0  0  0  0  0  0  0
    0.6744   -0.2869    0.0864 C   0  0  0  0  0  3  0  0  0  0  0  0
    1.3732    0.0990    1.3741 C   0  0  0  0  0  0  0  0  0  0  0  0
    2.0817    1.4120    1.0136 C   0  0  0  0  0  0  0  0  0  0  0  0
    1.0733    2.1179    0.1024 C   0  0  0  0  0  0  0  0  0  0  0  0
    0.4681    0.9878   -0.7433 C   0  0  0  0  0  0  0  0  0  0  0  0
    1.1682    0.6809   -2.0758 C   0  0  0  0  0  0  0  0  0  0  0  0
    1.6929   -1.2609   -2.9735 H   0  0  0  0  0  0  0  0  0  0  0  0
   -0.0056   -1.0703   -2.5430 H   0  0  0  0  0  0  0  0  0  0  0  0
    0.8426   -2.3471   -0.6403 H   0  0  0  0  0  0  0  0  0  0  0  0
    2.3438   -1.4358   -0.6307 H   0  0  0  0  0  0  0  0  0  0  0  0
   -0.5752   -0.6972    0.4413 H   0  0  0  0  0  0  0  0  0  0  0  0
    0.6373    0.2894    2.1630 H   0  0  0  0  0  0  0  0  0  0  0  0
    2.0511   -0.6760    1.7356 H   0  0  0  0  0  0  0  0  0  0  0  0
    2.9996    1.1939    0.4592 H   0  0  0  0  0  0  0  0  0  0  0  0
    2.3598    2.0041    1.8863 H   0  0  0  0  0  0  0  0  0  0  0  0
    0.2920    2.5777    0.7123 H   0  0  0  0  0  0  0  0  0  0  0  0
    1.5227    2.9031   -0.5079 H   0  0  0  0  0  0  0  0  0  0  0  0
   -0.5946    1.1723   -0.9284 H   0  0  0  0  0  0  0  0  0  0  0  0
    0.7557    1.2484   -2.9110 H   0  0  0  0  0  0  0  0  0  0  0  0
    2.2310    0.9345   -1.9993 H   0  0  0  0  0  0  0  0  0  0  0  0
  1  2  3  0
  1  5  1  0
  2  3  1  0
  3  4  1  0
  3  6  1  0
  3 22  1  0
  4  7  1  0
  4  8  1  0
  4  9  1  0
 10 17  1  0
 10 11  1  0
 10 18  1  0
 10 19  1  0
 11 12  1  0
 11 20  1  0
 11 21  1  0
 12 13  1  0
 12 16  1  0
 13 14  1  0
 13 23  1  0
 13 24  1  0
 14 15  1  0
 14 25  1  0
 14 26  1  0
 15 16  1  0
 15 27  1  0
 15 28  1  0
 16 17  1  0
 16 29  1  0
 17 30  1  0
 17 31  1  0
M  RAD  1  12   2
M  END
>  <reaction>  (4) 
rxn_565

>  <mol_properties>  (4) 
{"1": {"label": "*0", "atom_type": "Ct"}, "2": {"label": "*1", "atom_type": "Cs"}, "11": {"label": "*3", "atom_type": "Cs"}, "15": {"label": "*4", "atom_type": "Cs"}, "21": {"label": "*2", "atom_type": "H0"}}

>  <type>  (4) 
ts

$$$$

     RDKit          3D

 31 31  0  0  0  0  0  0  0  0999 V2000
   -2.6674   -0.6640    2.9418 C   0  0  0  0  0  0  0  0  0  0  0  0
   -2.3301   -0.9167    1.8207 C   0  0  0  0  0  0  0  0  0  0  0  0
   -1.9277   -1.1989    0.4465 C   0  0  0  0  0  3  0  0  0  0  0  0
   -2.1977   -0.0298   -0.5024 C   0  0  0  0  0  0  0  0  0  0  0  0
   -2.9668   -0.4397    3.9371 H   0  0  0  0  0  0  0  0  0  0  0  0
   -2.4585   -2.0896    0.1011 H   0  0  0  0  0  0  0  0  0  0  0  0
   -1.8824   -0.2846   -1.5149 H   0  0  0  0  0  0  0  0  0  0  0  0
   -3.2600    0.2139   -0.5229 H   0  0  0  0  0  0  0  0  0  0  0  0
   -1.6530    0.8594   -0.1849 H   0  0  0  0  0  0  0  0  0  0  0  0
    1.4279   -1.3401   -1.8660 C   0  0  0  0  0  0  0  0  0  0  0  0
    1.4279   -1.3401   -0.3395 C   0  0  0  0  0  0  0  0  0  0  0  0
    0.4646   -0.2054    0.0488 C   0  0  0  0  0  0  0  0  0  0  0  0
    0.9173    0.6332    1.2533 C   0  0  0  0  0  0  0  0  0  0  0  0
    1.7293    1.7714    0.6339 C   0  0  0  0  0  0  0  0  0  0  0  0
    0.9173    2.1310   -0.6110 C   0  0  0  0  0  0  0  0  0  0  0  0
    0.4646    0.7742   -1.1704 C   0  0  0  0  0  0  0  0  0  0  0  0
    1.4279    0.1505   -2.1948 C   0  0  0  0  0  0  0  0  0  0  0  0
    2.2728   -1.8783   -2.2983 H   0  0  0  0  0  0  0  0  0  0  0  0
    0.5121   -1.8070   -2.2410 H   0  0  0  0  0  0  0  0  0  0  0  0
    1.1436   -2.2985    0.0971 H   0  0  0  0  0  0  0  0  0  0  0  0
    2.4361   -1.1076    0.0198 H   0  0  0  0  0  0  0  0  0  0  0  0
   -0.7305   -0.7017    0.2475 H   0  0  0  0  0  0  0  0  0  0  0  0
    0.0495    1.0500    1.7717 H   0  0  0  0  0  0  0  0  0  0  0  0
    1.4804    0.0465    1.9816 H   0  0  0  0  0  0  0  0  0  0  0  0
    2.7204    1.4095    0.3432 H   0  0  0  0  0  0  0  0  0  0  0  0
    1.8772    2.6137    1.3107 H   0  0  0  0  0  0  0  0  0  0  0  0
    0.0495    2.7270   -0.3157 H   0  0  0  0  0  0  0  0  0  0  0  0
    1.4804    2.7158   -1.3408 H   0  0  0  0  0  0  0  0  0  0  0  0
   -0.5313    0.8467   -1.6100 H   0  0  0  0  0  0  0  0  0  0  0  0
    1.1436    0.3703   -3.2247 H   0  0  0  0  0  0  0  0  0  0  0  0
    2.4361    0.5514   -2.0451 H   0  0  0  0  0  0  0  0  0  0  0  0
  1  2  3  0
  1  5  1  0
  2  3  1  0
  3  4  1  0
  3  6  1  0
  4  7  1  0
  4  8  1  0
  4  9  1  0
 10 11  1  0
 10 17  1  0
 10 18  1  0
 10 19  1  0
 11 12  1  0
 11 20  1  0
 11 21  1  0
 12 13  1  0
 12 16  1  0
 12 22  1  0
 13 14  1  0
 13 23  1  0
 13 24  1  0
 14 15  1  0
 14 25  1  0
 14 26  1  0
 15 16  1  0
 15 27  1  0
 15 28  1  0
 16 17  1  0
 16 29  1  0
 17 30  1  0
 17 31  1  0
M  RAD  1   3   2
M  END
>  <reaction>  (5) 
rxn_565

>  <mol_properties>  (5) 
{"1": {"label": "*0", "atom_type": "Ct"}, "2": {"label": "*1", "atom_type": "Cs"}, "11": {"label": "*3", "atom_type": "Cs"}, "15": {"label": "*4", "atom_type": "Cs"}, "21": {"label": "*2", "atom_type": "H0"}}

>  <type>  (5) 
unop_1

>  <geom_source>  (5) 
Heuristics

$$$$

     RDKit          3D

 31 31  0  0  0  0  0  0  0  0999 V2000
   -1.7948   -3.3055    1.3447 C   0  0  0  0  0  0  0  0  0  0  0  0
   -1.9010   -2.1876    0.9283 C   0  0  0  0  0  0  0  0  0  0  0  0
   -2.0369   -0.8165    0.4469 C   0  0  0  0  0  3  0  0  0  0  0  0
   -2.4069    0.1680    1.5577 C   0  0  0  0  0  0  0  0  0  0  0  0
   -1.7004   -4.2980    1.7143 H   0  0  0  0  0  0  0  0  0  0  0  0
   -2.7958   -0.7940   -0.3392 H   0  0  0  0  0  0  0  0  0  0  0  0
   -2.4975    1.1769    1.1536 H   0  0  0  0  0  0  0  0  0  0  0  0
   -3.3568   -0.1064    2.0168 H   0  0  0  0  0  0  0  0  0  0  0  0
   -1.6448    0.1757    2.3371 H   0  0  0  0  0  0  0  0  0  0  0  0
    1.3187   -0.9577   -1.8656 C   0  0  0  0  0  0  0  0  0  0  0  0
    1.3187   -0.9577   -0.3391 C   0  0  0  0  0  0  0  0  0  0  0  0
    0.3554    0.1770    0.0492 C   0  0  0  0  0  0  0  0  0  0  0  0
    0.8081    1.0156    1.2537 C   0  0  0  0  0  0  0  0  0  0  0  0
    1.6201    2.1538    0.6343 C   0  0  0  0  0  0  0  0  0  0  0  0
    0.8081    2.5134   -0.6106 C   0  0  0  0  0  0  0  0  0  0  0  0
    0.3554    1.1566   -1.1700 C   0  0  0  0  0  0  0  0  0  0  0  0
    1.3187    0.5329   -2.1944 C   0  0  0  0  0  0  0  0  0  0  0  0
    2.1635   -1.4959   -2.2980 H   0  0  0  0  0  0  0  0  0  0  0  0
    0.4029   -1.4246   -2.2406 H   0  0  0  0  0  0  0  0  0  0  0  0
    1.0344   -1.9161    0.0975 H   0  0  0  0  0  0  0  0  0  0  0  0
    2.3269   -0.7251    0.0201 H   0  0  0  0  0  0  0  0  0  0  0  0
   -0.8397   -0.3193    0.2479 H   0  0  0  0  0  0  0  0  0  0  0  0
   -0.0597    1.4324    1.7721 H   0  0  0  0  0  0  0  0  0  0  0  0
    1.3712    0.4289    1.9819 H   0  0  0  0  0  0  0  0  0  0  0  0
    2.6112    1.7919    0.3436 H   0  0  0  0  0  0  0  0  0  0  0  0
    1.7680    2.9961    1.3110 H   0  0  0  0  0  0  0  0  0  0  0  0
   -0.0597    3.1095   -0.3153 H   0  0  0  0  0  0  0  0  0  0  0  0
    1.3712    3.0982   -1.3405 H   0  0  0  0  0  0  0  0  0  0  0  0
   -0.6405    1.2291   -1.6096 H   0  0  0  0  0  0  0  0  0  0  0  0
    1.0344    0.7527   -3.2243 H   0  0  0  0  0  0  0  0  0  0  0  0
    2.3269    0.9338   -2.0447 H   0  0  0  0  0  0  0  0  0  0  0  0
  1  2  3  0
  1  5  1  0
  2  3  1  0
  3  4  1  0
  3  6  1  0
  4  7  1  0
  4  8  1  0
  4  9  1  0
 10 11  1  0
 10 17  1  0
 10 18  1  0
 10 19  1  0
 11 12  1  0
 11 20  1  0
 11 21  1  0
 12 13  1  0
 12 16  1  0
 12 22  1  0
 13 14  1  0
 13 23  1  0
 13 24  1  0
 14 15  1  0
 14 25  1  0
 14 26  1  0
 15 16  1  0
 15 27  1  0
 15 28  1  0
 16 17  1  0
 16 29  1  0
 17 30  1  0
 17 31  1  0
M  RAD  1   3   2
M  END
>  <reaction>  (6) 
rxn_565

>  <mol_properties>  (6) 
{"1": {"label": "*0", "atom_type": "Ct"}, "2": {"label": "*1", "atom_type": "Cs"}, "11": {"label": "*3", "atom_type": "Cs"}, "15": {"label": "*4", "atom_type": "Cs"}, "21": {"label": "*2", "atom_type": "H0"}}

>  <type>  (6) 
unop_2

>  <geom_source>  (6) 
Heuristics

$$$$

     RDKit          3D

 31 31  0  0  0  0  0  0  0  0999 V2000
   -3.1219    0.2564    2.3697 C   0  0  0  0  0  0  0  0  0  0  0  0
   -2.5477   -0.4264    1.5707 C   0  0  0  0  0  0  0  0  0  0  0  0
   -1.8600   -1.2437    0.5762 C   0  0  0  0  0  3  0  0  0  0  0  0
   -2.1851   -0.8287   -0.8599 C   0  0  0  0  0  0  0  0  0  0  0  0
   -3.6317    0.8627    3.0791 H   0  0  0  0  0  0  0  0  0  0  0  0
   -2.1328   -2.2904    0.7325 H   0  0  0  0  0  0  0  0  0  0  0  0
   -1.6509   -1.4644   -1.5669 H   0  0  0  0  0  0  0  0  0  0  0  0
   -3.2539   -0.9174   -1.0553 H   0  0  0  0  0  0  0  0  0  0  0  0
   -1.8938    0.2065   -1.0384 H   0  0  0  0  0  0  0  0  0  0  0  0
    1.4956   -1.3849   -1.7363 C   0  0  0  0  0  0  0  0  0  0  0  0
    1.4956   -1.3849   -0.2099 C   0  0  0  0  0  0  0  0  0  0  0  0
    0.5322   -0.2501    0.1785 C   0  0  0  0  0  0  0  0  0  0  0  0
    0.9850    0.5884    1.3829 C   0  0  0  0  0  0  0  0  0  0  0  0
    1.7970    1.7266    0.7636 C   0  0  0  0  0  0  0  0  0  0  0  0
    0.9850    2.0862   -0.4813 C   0  0  0  0  0  0  0  0  0  0  0  0
    0.5322    0.7294   -1.0407 C   0  0  0  0  0  0  0  0  0  0  0  0
    1.4956    0.1057   -2.0652 C   0  0  0  0  0  0  0  0  0  0  0  0
    2.3404   -1.9231   -2.1687 H   0  0  0  0  0  0  0  0  0  0  0  0
    0.5797   -1.8517   -2.1114 H   0  0  0  0  0  0  0  0  0  0  0  0
    1.2112   -2.3432    0.2267 H   0  0  0  0  0  0  0  0  0  0  0  0
    2.5037   -1.1523    0.1494 H   0  0  0  0  0  0  0  0  0  0  0  0
   -0.6628   -0.7465    0.3772 H   0  0  0  0  0  0  0  0  0  0  0  0
    0.1172    1.0052    1.9014 H   0  0  0  0  0  0  0  0  0  0  0  0
    1.5481    0.0017    2.1112 H   0  0  0  0  0  0  0  0  0  0  0  0
    2.7881    1.3648    0.4728 H   0  0  0  0  0  0  0  0  0  0  0  0
    1.9449    2.5689    1.4403 H   0  0  0  0  0  0  0  0  0  0  0  0
    0.1172    2.6823   -0.1860 H   0  0  0  0  0  0  0  0  0  0  0  0
    1.5480    2.6710   -1.2112 H   0  0  0  0  0  0  0  0  0  0  0  0
   -0.4637    0.8020   -1.4803 H   0  0  0  0  0  0  0  0  0  0  0  0
    1.2112    0.3256   -3.0951 H   0  0  0  0  0  0  0  0  0  0  0  0
    2.5037    0.5067   -1.9155 H   0  0  0  0  0  0  0  0  0  0  0  0
  1  2  3  0
  1  5  1  0
  2  3  1  0
  3  4  1  0
  3  6  1  0
  4  7  1  0
  4  8  1  0
  4  9  1  0
 10 11  1  0
 10 17  1  0
 10 18  1  0
 10 19  1  0
 11 12  1  0
 11 20  1  0
 11 21  1  0
 12 13  1  0
 12 16  1  0
 12 22  1  0
 13 14  1  0
 13 23  1  0
 13 24  1  0
 14 15  1  0
 14 25  1  0
 14 26  1  0
 15 16  1  0
 15 27  1  0
 15 28  1  0
 16 17  1  0
 16 29  1  0
 17 30  1  0
 17 31  1  0
M  RAD  1   3   2
M  END
>  <reaction>  (7) 
rxn_565

>  <mol_properties>  (7) 
{"1": {"label": "*0", "atom_type": "Ct"}, "2": {"label": "*1", "atom_type": "Cs"}, "11": {"label": "*3", "atom_type": "Cs"}, "15": {"label": "*4", "atom_type": "Cs"}, "21": {"label": "*2", "atom_type": "H0"}}

>  <type>  (7) 
unop_3

>  <geom_source>  (7) 
Heuristics

$$$$

     RDKit          3D

 31 31  0  0  0  0  0  0  0  0999 V2000
   -2.7202   -2.0071   -1.4182 C   0  0  0  0  0  0  0  0  0  0  0  0
   -2.3344   -1.4698   -0.4198 C   0  0  0  0  0  0  0  0  0  0  0  0
   -1.8808   -0.8320    0.8121 C   0  0  0  0  0  3  0  0  0  0  0  0
   -2.5311   -1.4274    2.0623 C   0  0  0  0  0  0  0  0  0  0  0  0
   -3.0628   -2.4841   -2.3046 H   0  0  0  0  0  0  0  0  0  0  0  0
   -2.0963    0.2378    0.7535 H   0  0  0  0  0  0  0  0  0  0  0  0
   -2.1639   -0.9220    2.9562 H   0  0  0  0  0  0  0  0  0  0  0  0
   -3.6149   -1.3170    2.0241 H   0  0  0  0  0  0  0  0  0  0  0  0
   -2.3025   -2.4899    2.1481 H   0  0  0  0  0  0  0  0  0  0  0  0
    1.4747   -0.9732   -1.5004 C   0  0  0  0  0  0  0  0  0  0  0  0
    1.4747   -0.9732    0.0260 C   0  0  0  0  0  0  0  0  0  0  0  0
    0.5114    0.1615    0.4144 C   0  0  0  0  0  0  0  0  0  0  0  0
    0.9641    1.0001    1.6188 C   0  0  0  0  0  0  0  0  0  0  0  0
    1.7761    2.1383    0.9995 C   0  0  0  0  0  0  0  0  0  0  0  0
    0.9641    2.4979   -0.2454 C   0  0  0  0  0  0  0  0  0  0  0  0
    0.5114    1.1411   -0.8048 C   0  0  0  0  0  0  0  0  0  0  0  0
    1.4747    0.5173   -1.8293 C   0  0  0  0  0  0  0  0  0  0  0  0
    2.3196   -1.5114   -1.9328 H   0  0  0  0  0  0  0  0  0  0  0  0
    0.5589   -1.4401   -1.8755 H   0  0  0  0  0  0  0  0  0  0  0  0
    1.1904   -1.9316    0.4626 H   0  0  0  0  0  0  0  0  0  0  0  0
    2.4829   -0.7407    0.3853 H   0  0  0  0  0  0  0  0  0  0  0  0
   -0.6837   -0.3348    0.6131 H   0  0  0  0  0  0  0  0  0  0  0  0
    0.0963    1.4169    2.1373 H   0  0  0  0  0  0  0  0  0  0  0  0
    1.5272    0.4134    2.3471 H   0  0  0  0  0  0  0  0  0  0  0  0
    2.7672    1.7764    0.7088 H   0  0  0  0  0  0  0  0  0  0  0  0
    1.9240    2.9806    1.6762 H   0  0  0  0  0  0  0  0  0  0  0  0
    0.0963    3.0939    0.0499 H   0  0  0  0  0  0  0  0  0  0  0  0
    1.5272    3.0826   -0.9753 H   0  0  0  0  0  0  0  0  0  0  0  0
   -0.4845    1.2136   -1.2444 H   0  0  0  0  0  0  0  0  0  0  0  0
    1.1904    0.7372   -2.8592 H   0  0  0  0  0  0  0  0  0  0  0  0
    2.4829    0.9183   -1.6795 H   0  0  0  0  0  0  0  0  0  0  0  0
  1  2  3  0
  1  5  1  0
  2  3  1  0
  3  4  1  0
  3  6  1  0
  4  7  1  0
  4  8  1  0
  4  9  1  0
 10 11  1  0
 10 17  1  0
 10 18  1  0
 10 19  1  0
 11 12  1  0
 11 20  1  0
 11 21  1  0
 12 13  1  0
 12 16  1  0
 12 22  1  0
 13 14  1  0
 13 23  1  0
 13 24  1  0
 14 15  1  0
 14 25  1  0
 14 26  1  0
 15 16  1  0
 15 27  1  0
 15 28  1  0
 16 17  1  0
 16 29  1  0
 17 30  1  0
 17 31  1  0
M  RAD  1   3   2
M  END
>  <reaction>  (8) 
rxn_565

>  <mol_properties>  (8) 
{"1": {"label": "*0", "atom_type": "Ct"}, "2": {"label": "*1", "atom_type": "Cs"}, "11": {"label": "*3", "atom_type": "Cs"}, "15": {"label": "*4", "atom_type": "Cs"}, "21": {"label": "*2", "atom_type": "H0"}}

>  <type>  (8) 
unop_4

>  <geom_source>  (8) 
Heuristics

$$$$

     RDKit          3D

 31 31  0  0  0  0  0  0  0  0999 V2000
   -3.4589    0.7807    1.3443 C   0  0  0  0  0  0  0  0  0  0  0  0
   -2.7039   -0.1049    1.0608 C   0  0  0  0  0  0  0  0  0  0  0  0
   -1.8005   -1.1906    0.6934 C   0  0  0  0  0  3  0  0  0  0  0  0
   -2.2628   -1.9515   -0.5506 C   0  0  0  0  0  0  0  0  0  0  0  0
   -4.1291    1.5668    1.5960 H   0  0  0  0  0  0  0  0  0  0  0  0
   -1.7141   -1.8770    1.5395 H   0  0  0  0  0  0  0  0  0  0  0  0
   -1.5599   -2.7510   -0.7874 H   0  0  0  0  0  0  0  0  0  0  0  0
   -3.2465   -2.3931   -0.3902 H   0  0  0  0  0  0  0  0  0  0  0  0
   -2.3282   -1.2838   -1.4099 H   0  0  0  0  0  0  0  0  0  0  0  0
    1.5551   -1.3318   -1.6191 C   0  0  0  0  0  0  0  0  0  0  0  0
    1.5551   -1.3318   -0.0927 C   0  0  0  0  0  0  0  0  0  0  0  0
    0.5917   -0.1970    0.2957 C   0  0  0  0  0  0  0  0  0  0  0  0
    1.0445    0.6415    1.5001 C   0  0  0  0  0  0  0  0  0  0  0  0
    1.8565    1.7797    0.8808 C   0  0  0  0  0  0  0  0  0  0  0  0
    1.0445    2.1393   -0.3641 C   0  0  0  0  0  0  0  0  0  0  0  0
    0.5917    0.7825   -0.9235 C   0  0  0  0  0  0  0  0  0  0  0  0
    1.5551    0.1588   -1.9479 C   0  0  0  0  0  0  0  0  0  0  0  0
    2.3999   -1.8700   -2.0515 H   0  0  0  0  0  0  0  0  0  0  0  0
    0.6392   -1.7986   -1.9942 H   0  0  0  0  0  0  0  0  0  0  0  0
    1.2708   -2.2901    0.3439 H   0  0  0  0  0  0  0  0  0  0  0  0
    2.5632   -1.0992    0.2666 H   0  0  0  0  0  0  0  0  0  0  0  0
   -0.6033   -0.6934    0.4944 H   0  0  0  0  0  0  0  0  0  0  0  0
    0.1767    1.0583    2.0186 H   0  0  0  0  0  0  0  0  0  0  0  0
    1.6076    0.0548    2.2284 H   0  0  0  0  0  0  0  0  0  0  0  0
    2.8476    1.4179    0.5901 H   0  0  0  0  0  0  0  0  0  0  0  0
    2.0044    2.6220    1.5575 H   0  0  0  0  0  0  0  0  0  0  0  0
    0.1767    2.7354   -0.0688 H   0  0  0  0  0  0  0  0  0  0  0  0
    1.6076    2.7241   -1.0940 H   0  0  0  0  0  0  0  0  0  0  0  0
   -0.4041    0.8551   -1.3631 H   0  0  0  0  0  0  0  0  0  0  0  0
    1.2708    0.3787   -2.9779 H   0  0  0  0  0  0  0  0  0  0  0  0
    2.5632    0.5598   -1.7982 H   0  0  0  0  0  0  0  0  0  0  0  0
  1  2  3  0
  1  5  1  0
  2  3  1  0
  3  4  1  0
  3  6  1  0
  4  7  1  0
  4  8  1  0
  4  9  1  0
 10 11  1  0
 10 17  1  0
 10 18  1  0
 10 19  1  0
 11 12  1  0
 11 20  1  0
 11 21  1  0
 12 13  1  0
 12 16  1  0
 12 22  1  0
 13 14  1  0
 13 23  1  0
 13 24  1  0
 14 15  1  0
 14 25  1  0
 14 26  1  0
 15 16  1  0
 15 27  1  0
 15 28  1  0
 16 17  1  0
 16 29  1  0
 17 30  1  0
 17 31  1  0
M  RAD  1   3   2
M  END
>  <reaction>  (9) 
rxn_565

>  <mol_properties>  (9) 
{"1": {"label": "*0", "atom_type": "Ct"}, "2": {"label": "*1", "atom_type": "Cs"}, "11": {"label": "*3", "atom_type": "Cs"}, "15": {"label": "*4", "atom_type": "Cs"}, "21": {"label": "*2", "atom_type": "H0"}}

>  <type>  (9) 
unop_5

>  <geom_source>  (9) 
Heuristics

$$$$

     RDKit          3D

 31 31  0  0  0  0  0  0  0  0999 V2000
   -3.1720   -0.9209   -1.4513 C   0  0  0  0  0  0  0  0  0  0  0  0
   -2.5565   -0.9220   -0.4238 C   0  0  0  0  0  0  0  0  0  0  0  0
   -1.8245   -0.9425    0.8386 C   0  0  0  0  0  3  0  0  0  0  0  0
   -2.4285   -1.9095    1.8586 C   0  0  0  0  0  0  0  0  0  0  0  0
   -3.7184   -0.9199   -2.3635 H   0  0  0  0  0  0  0  0  0  0  0  0
   -1.8059    0.0698    1.2502 H   0  0  0  0  0  0  0  0  0  0  0  0
   -1.8511   -1.8919    2.7837 H   0  0  0  0  0  0  0  0  0  0  0  0
   -3.4579   -1.6347    2.0892 H   0  0  0  0  0  0  0  0  0  0  0  0
   -2.4294   -2.9286    1.4717 H   0  0  0  0  0  0  0  0  0  0  0  0
    1.5310   -1.0837   -1.4739 C   0  0  0  0  0  0  0  0  0  0  0  0
    1.5310   -1.0837    0.0526 C   0  0  0  0  0  0  0  0  0  0  0  0
    0.5677    0.0510    0.4409 C   0  0  0  0  0  0  0  0  0  0  0  0
    1.0204    0.8896    1.6454 C   0  0  0  0  0  0  0  0  0  0  0  0
    1.8324    2.0278    1.0260 C   0  0  0  0  0  0  0  0  0  0  0  0
    1.0204    2.3874   -0.2189 C   0  0  0  0  0  0  0  0  0  0  0  0
    0.5677    1.0306   -0.7783 C   0  0  0  0  0  0  0  0  0  0  0  0
    1.5310    0.4069   -1.8027 C   0  0  0  0  0  0  0  0  0  0  0  0
    2.3759   -1.6219   -1.9063 H   0  0  0  0  0  0  0  0  0  0  0  0
    0.6152   -1.5506   -1.8490 H   0  0  0  0  0  0  0  0  0  0  0  0
    1.2467   -2.0421    0.4891 H   0  0  0  0  0  0  0  0  0  0  0  0
    2.5392   -0.8512    0.4118 H   0  0  0  0  0  0  0  0  0  0  0  0
   -0.6274   -0.4453    0.6396 H   0  0  0  0  0  0  0  0  0  0  0  0
    0.1526    1.3064    2.1638 H   0  0  0  0  0  0  0  0  0  0  0  0
    1.5835    0.3029    2.3736 H   0  0  0  0  0  0  0  0  0  0  0  0
    2.8235    1.6659    0.7353 H   0  0  0  0  0  0  0  0  0  0  0  0
    1.9804    2.8701    1.7027 H   0  0  0  0  0  0  0  0  0  0  0  0
    0.1526    2.9835    0.0764 H   0  0  0  0  0  0  0  0  0  0  0  0
    1.5835    2.9722   -0.9488 H   0  0  0  0  0  0  0  0  0  0  0  0
   -0.4282    1.1031   -1.2179 H   0  0  0  0  0  0  0  0  0  0  0  0
    1.2467    0.6267   -2.8327 H   0  0  0  0  0  0  0  0  0  0  0  0
    2.5392    0.8078   -1.6530 H   0  0  0  0  0  0  0  0  0  0  0  0
  1  2  3  0
  1  5  1  0
  2  3  1  0
  3  4  1  0
  3  6  1  0
  4  7  1  0
  4  8  1  0
  4  9  1  0
 10 11  1  0
 10 17  1  0
 10 18  1  0
 10 19  1  0
 11 12  1  0
 11 20  1  0
 11 21  1  0
 12 13  1  0
 12 16  1  0
 12 22  1  0
 13 14  1  0
 13 23  1  0
 13 24  1  0
 14 15  1  0
 14 25  1  0
 14 26  1  0
 15 16  1  0
 15 27  1  0
 15 28  1  0
 16 17  1  0
 16 29  1  0
 17 30  1  0
 17 31  1  0
M  RAD  1   3   2
M  END
>  <reaction>  (10) 
rxn_565

>  <mol_properties>  (10) 
{"1": {"label": "*0", "atom_type": "Ct"}, "2": {"label": "*1", "atom_type": "Cs"}, "11": {"label": "*3", "atom_type": "Cs"}, "15": {"label": "*4", "atom_type": "Cs"}, "21": {"label": "*2", "atom_type": "H0"}}

>  <type>  (10) 
unop_6

>  <geom_source>  (10) 
Heuristics

$$$$

     RDKit          3D

 31 31  0  0  0  0  0  0  0  0999 V2000
   -3.4949    0.0797   -0.8934 C   0  0  0  0  0  0  0  0  0  0  0  0
   -2.7176   -0.4163   -0.1290 C   0  0  0  0  0  0  0  0  0  0  0  0
   -1.7886   -1.0420    0.8066 C   0  0  0  0  0  3  0  0  0  0  0  0
   -2.3213   -2.3555    1.3822 C   0  0  0  0  0  0  0  0  0  0  0  0
   -4.1849    0.5200   -1.5721 H   0  0  0  0  0  0  0  0  0  0  0  0
   -1.5784   -0.3384    1.6161 H   0  0  0  0  0  0  0  0  0  0  0  0
   -1.5965   -2.7863    2.0740 H   0  0  0  0  0  0  0  0  0  0  0  0
   -3.2556   -2.1913    1.9193 H   0  0  0  0  0  0  0  0  0  0  0  0
   -2.5108   -3.0771    0.5874 H   0  0  0  0  0  0  0  0  0  0  0  0
    1.5669   -1.1832   -1.5059 C   0  0  0  0  0  0  0  0  0  0  0  0
    1.5669   -1.1832    0.0206 C   0  0  0  0  0  0  0  0  0  0  0  0
    0.6036   -0.0485    0.4089 C   0  0  0  0  0  0  0  0  0  0  0  0
    1.0563    0.7901    1.6134 C   0  0  0  0  0  0  0  0  0  0  0  0
    1.8683    1.9283    0.9940 C   0  0  0  0  0  0  0  0  0  0  0  0
    1.0563    2.2879   -0.2509 C   0  0  0  0  0  0  0  0  0  0  0  0
    0.6036    0.9311   -0.8103 C   0  0  0  0  0  0  0  0  0  0  0  0
    1.5669    0.3074   -1.8347 C   0  0  0  0  0  0  0  0  0  0  0  0
    2.4118   -1.7214   -1.9382 H   0  0  0  0  0  0  0  0  0  0  0  0
    0.6511   -1.6501   -1.8809 H   0  0  0  0  0  0  0  0  0  0  0  0
    1.2826   -2.1416    0.4572 H   0  0  0  0  0  0  0  0  0  0  0  0
    2.5751   -0.9506    0.3799 H   0  0  0  0  0  0  0  0  0  0  0  0
   -0.5915   -0.5448    0.6076 H   0  0  0  0  0  0  0  0  0  0  0  0
    0.1885    1.2069    2.1318 H   0  0  0  0  0  0  0  0  0  0  0  0
    1.6194    0.2034    2.3417 H   0  0  0  0  0  0  0  0  0  0  0  0
    2.8595    1.5664    0.7033 H   0  0  0  0  0  0  0  0  0  0  0  0
    2.0163    2.7706    1.6708 H   0  0  0  0  0  0  0  0  0  0  0  0
    0.1885    2.8840    0.0444 H   0  0  0  0  0  0  0  0  0  0  0  0
    1.6194    2.8727   -0.9807 H   0  0  0  0  0  0  0  0  0  0  0  0
   -0.3923    1.0036   -1.2498 H   0  0  0  0  0  0  0  0  0  0  0  0
    1.2826    0.5272   -2.8646 H   0  0  0  0  0  0  0  0  0  0  0  0
    2.5751    0.7083   -1.6850 H   0  0  0  0  0  0  0  0  0  0  0  0
  1  2  3  0
  1  5  1  0
  2  3  1  0
  3  4  1  0
  3  6  1  0
  4  7  1  0
  4  8  1  0
  4  9  1  0
 10 11  1  0
 10 17  1  0
 10 18  1  0
 10 19  1  0
 11 12  1  0
 11 20  1  0
 11 21  1  0
 12 13  1  0
 12 16  1  0
 12 22  1  0
 13 14  1  0
 13 23  1  0
 13 24  1  0
 14 15  1  0
 14 25  1  0
 14 26  1  0
 15 16  1  0
 15 27  1  0
 15 28  1  0
 16 17  1  0
 16 29  1  0
 17 30  1  0
 17 31  1  0
M  RAD  1   3   2
M  END
>  <reaction>  (11) 
rxn_565

>  <mol_properties>  (11) 
{"1": {"label": "*0", "atom_type": "Ct"}, "2": {"label": "*1", "atom_type": "Cs"}, "11": {"label": "*3", "atom_type": "Cs"}, "15": {"label": "*4", "atom_type": "Cs"}, "21": {"label": "*2", "atom_type": "H0"}}

>  <type>  (11) 
unop_7

>  <geom_source>  (11) 
Heuristics

$$$$

     RDKit          3D

 31 31  0  0  0  0  0  0  0  0999 V2000
   -2.2191   -1.7470    2.9346 C   0  0  0  0  0  0  0  0  0  0  0  0
   -2.1120   -1.4603    1.7767 C   0  0  0  0  0  0  0  0  0  0  0  0
   -1.9880   -1.0843    0.3720 C   0  0  0  0  0  3  0  0  0  0  0  0
   -2.2678    0.3999    0.1285 C   0  0  0  0  0  0  0  0  0  0  0  0
   -2.3142   -2.0015    3.9626 H   0  0  0  0  0  0  0  0  0  0  0  0
   -2.6769   -1.6950   -0.2171 H   0  0  0  0  0  0  0  0  0  0  0  0
   -2.1640    0.6349   -0.9314 H   0  0  0  0  0  0  0  0  0  0  0  0
   -3.2792    0.6590    0.4419 H   0  0  0  0  0  0  0  0  0  0  0  0
   -1.5703    1.0218    0.6898 H   0  0  0  0  0  0  0  0  0  0  0  0
    1.3675   -1.2255   -1.9405 C   0  0  0  0  0  0  0  0  0  0  0  0
    1.3675   -1.2255   -0.4141 C   0  0  0  0  0  0  0  0  0  0  0  0
    0.4042   -0.0907   -0.0257 C   0  0  0  0  0  0  0  0  0  0  0  0
    0.8569    0.7478    1.1787 C   0  0  0  0  0  0  0  0  0  0  0  0
    1.6689    1.8860    0.5594 C   0  0  0  0  0  0  0  0  0  0  0  0
    0.8569    2.2456   -0.6855 C   0  0  0  0  0  0  0  0  0  0  0  0
    0.4042    0.8888   -1.2449 C   0  0  0  0  0  0  0  0  0  0  0  0
    1.3675    0.2651   -2.2694 C   0  0  0  0  0  0  0  0  0  0  0  0
    2.2124   -1.7637   -2.3729 H   0  0  0  0  0  0  0  0  0  0  0  0
    0.4517   -1.6923   -2.3156 H   0  0  0  0  0  0  0  0  0  0  0  0
    1.0832   -2.1838    0.0225 H   0  0  0  0  0  0  0  0  0  0  0  0
    2.3757   -0.9929   -0.0548 H   0  0  0  0  0  0  0  0  0  0  0  0
   -0.7909   -0.5871    0.1730 H   0  0  0  0  0  0  0  0  0  0  0  0
   -0.0109    1.1646    1.6972 H   0  0  0  0  0  0  0  0  0  0  0  0
    1.4200    0.1611    1.9070 H   0  0  0  0  0  0  0  0  0  0  0  0
    2.6600    1.5242    0.2686 H   0  0  0  0  0  0  0  0  0  0  0  0
    1.8169    2.7284    1.2361 H   0  0  0  0  0  0  0  0  0  0  0  0
   -0.0109    2.8417   -0.3902 H   0  0  0  0  0  0  0  0  0  0  0  0
    1.4200    2.8304   -1.4154 H   0  0  0  0  0  0  0  0  0  0  0  0
   -0.5917    0.9614   -1.6845 H   0  0  0  0  0  0  0  0  0  0  0  0
    1.0832    0.4850   -3.2993 H   0  0  0  0  0  0  0  0  0  0  0  0
    2.3757    0.6661   -2.1197 H   0  0  0  0  0  0  0  0  0  0  0  0
  1  2  3  0
  1  5  1  0
  2  3  1  0
  3  4  1  0
  3  6  1  0
  4  7  1  0
  4  8  1  0
  4  9  1  0
 10 11  1  0
 10 17  1  0
 10 18  1  0
 10 19  1  0
 11 12  1  0
 11 20  1  0
 11 21  1  0
 12 13  1  0
 12 16  1  0
 12 22  1  0
 13 14  1  0
 13 23  1  0
 13 24  1  0
 14 15  1  0
 14 25  1  0
 14 26  1  0
 15 16  1  0
 15 27  1  0
 15 28  1  0
 16 17  1  0
 16 29  1  0
 17 30  1  0
 17 31  1  0
M  RAD  1   3   2
M  END
>  <reaction>  (12) 
rxn_565

>  <mol_properties>  (12) 
{"1": {"label": "*0", "atom_type": "Ct"}, "2": {"label": "*1", "atom_type": "Cs"}, "11": {"label": "*3", "atom_type": "Cs"}, "15": {"label": "*4", "atom_type": "Cs"}, "21": {"label": "*2", "atom_type": "H0"}}

>  <type>  (12) 
unop_8

>  <geom_source>  (12) 
Heuristics

$$$$

     RDKit          3D

 31 31  0  0  0  0  0  0  0  0999 V2000
   -2.2644   -2.8973   -0.8182 C   0  0  0  0  0  0  0  0  0  0  0  0
   -2.1152   -1.9241   -0.1361 C   0  0  0  0  0  0  0  0  0  0  0  0
   -1.9470   -0.7514    0.7161 C   0  0  0  0  0  3  0  0  0  0  0  0
   -2.5584   -0.9359    2.1062 C   0  0  0  0  0  0  0  0  0  0  0  0
   -2.3969   -3.7612   -1.4237 H   0  0  0  0  0  0  0  0  0  0  0  0
   -2.4009    0.1106    0.2207 H   0  0  0  0  0  0  0  0  0  0  0  0
   -2.4095   -0.0376    2.7066 H   0  0  0  0  0  0  0  0  0  0  0  0
   -3.6288   -1.1298    2.0350 H   0  0  0  0  0  0  0  0  0  0  0  0
   -2.0963   -1.7770    2.6231 H   0  0  0  0  0  0  0  0  0  0  0  0
    1.4085   -0.8926   -1.5964 C   0  0  0  0  0  0  0  0  0  0  0  0
    1.4085   -0.8926   -0.0699 C   0  0  0  0  0  0  0  0  0  0  0  0
    0.4452    0.2422    0.3184 C   0  0  0  0  0  0  0  0  0  0  0  0
    0.8979    1.0808    1.5229 C   0  0  0  0  0  0  0  0  0  0  0  0
    1.7099    2.2189    0.9035 C   0  0  0  0  0  0  0  0  0  0  0  0
    0.8979    2.5786   -0.3414 C   0  0  0  0  0  0  0  0  0  0  0  0
    0.4452    1.2217   -0.9008 C   0  0  0  0  0  0  0  0  0  0  0  0
    1.4085    0.5980   -1.9252 C   0  0  0  0  0  0  0  0  0  0  0  0
    2.2534   -1.4307   -2.0288 H   0  0  0  0  0  0  0  0  0  0  0  0
    0.4927   -1.3594   -1.9714 H   0  0  0  0  0  0  0  0  0  0  0  0
    1.1242   -1.8509    0.3667 H   0  0  0  0  0  0  0  0  0  0  0  0
    2.4167   -0.6600    0.2893 H   0  0  0  0  0  0  0  0  0  0  0  0
   -0.7499   -0.2541    0.5171 H   0  0  0  0  0  0  0  0  0  0  0  0
    0.0301    1.4976    2.0413 H   0  0  0  0  0  0  0  0  0  0  0  0
    1.4610    0.4940    2.2511 H   0  0  0  0  0  0  0  0  0  0  0  0
    2.7010    1.8571    0.6128 H   0  0  0  0  0  0  0  0  0  0  0  0
    1.8579    3.0613    1.5802 H   0  0  0  0  0  0  0  0  0  0  0  0
    0.0301    3.1746   -0.0461 H   0  0  0  0  0  0  0  0  0  0  0  0
    1.4610    3.1633   -1.0713 H   0  0  0  0  0  0  0  0  0  0  0  0
   -0.5507    1.2943   -1.3404 H   0  0  0  0  0  0  0  0  0  0  0  0
    1.1242    0.8179   -2.9551 H   0  0  0  0  0  0  0  0  0  0  0  0
    2.4167    0.9990   -1.7755 H   0  0  0  0  0  0  0  0  0  0  0  0
  1  2  3  0
  1  5  1  0
  2  3  1  0
  3  4  1  0
  3  6  1  0
  4  7  1  0
  4  8  1  0
  4  9  1  0
 10 11  1  0
 10 17  1  0
 10 18  1  0
 10 19  1  0
 11 12  1  0
 11 20  1  0
 11 21  1  0
 12 13  1  0
 12 16  1  0
 12 22  1  0
 13 14  1  0
 13 23  1  0
 13 24  1  0
 14 15  1  0
 14 25  1  0
 14 26  1  0
 15 16  1  0
 15 27  1  0
 15 28  1  0
 16 17  1  0
 16 29  1  0
 17 30  1  0
 17 31  1  0
M  RAD  1   3   2
M  END
>  <reaction>  (13) 
rxn_565

>  <mol_properties>  (13) 
{"1": {"label": "*0", "atom_type": "Ct"}, "2": {"label": "*1", "atom_type": "Cs"}, "11": {"label": "*3", "atom_type": "Cs"}, "15": {"label": "*4", "atom_type": "Cs"}, "21": {"label": "*2", "atom_type": "H0"}}

>  <type>  (13) 
unop_9

>  <geom_source>  (13) 
Heuristics

$$$$

     RDKit          3D

 31 31  0  0  0  0  0  0  0  0999 V2000
   -1.9004   -2.7132    2.3504 C   0  0  0  0  0  0  0  0  0  0  0  0
   -1.9558   -1.9247    1.4505 C   0  0  0  0  0  0  0  0  0  0  0  0
   -2.0289   -0.9436    0.3726 C   0  0  0  0  0  3  0  0  0  0  0  0
   -2.3366    0.4680    0.8755 C   0  0  0  0  0  0  0  0  0  0  0  0
   -1.8512   -3.4131    3.1493 H   0  0  0  0  0  0  0  0  0  0  0  0
   -2.7949   -1.2607   -0.3395 H   0  0  0  0  0  0  0  0  0  0  0  0
   -2.3816    1.1658    0.0386 H   0  0  0  0  0  0  0  0  0  0  0  0
   -3.2936    0.4925    1.3970 H   0  0  0  0  0  0  0  0  0  0  0  0
   -1.5660    0.8083    1.5674 H   0  0  0  0  0  0  0  0  0  0  0  0
    1.3267   -1.0848   -1.9399 C   0  0  0  0  0  0  0  0  0  0  0  0
    1.3267   -1.0848   -0.4134 C   0  0  0  0  0  0  0  0  0  0  0  0
    0.3633    0.0500   -0.0251 C   0  0  0  0  0  0  0  0  0  0  0  0
    0.8161    0.8885    1.1794 C   0  0  0  0  0  0  0  0  0  0  0  0
    1.6281    2.0267    0.5600 C   0  0  0  0  0  0  0  0  0  0  0  0
    0.8161    2.3864   -0.6849 C   0  0  0  0  0  0  0  0  0  0  0  0
    0.3633    1.0295   -1.2443 C   0  0  0  0  0  0  0  0  0  0  0  0
    1.3267    0.4058   -2.2687 C   0  0  0  0  0  0  0  0  0  0  0  0
    2.1715   -1.6230   -2.3723 H   0  0  0  0  0  0  0  0  0  0  0  0
    0.4108   -1.5516   -2.3149 H   0  0  0  0  0  0  0  0  0  0  0  0
    1.0423   -2.0431    0.0232 H   0  0  0  0  0  0  0  0  0  0  0  0
    2.3348   -0.8522   -0.0541 H   0  0  0  0  0  0  0  0  0  0  0  0
   -0.8317   -0.4464    0.1736 H   0  0  0  0  0  0  0  0  0  0  0  0
   -0.0517    1.3054    1.6978 H   0  0  0  0  0  0  0  0  0  0  0  0
    1.3792    0.3018    1.9076 H   0  0  0  0  0  0  0  0  0  0  0  0
    2.6192    1.6649    0.2693 H   0  0  0  0  0  0  0  0  0  0  0  0
    1.7760    2.8691    1.2367 H   0  0  0  0  0  0  0  0  0  0  0  0
   -0.0517    2.9824   -0.3896 H   0  0  0  0  0  0  0  0  0  0  0  0
    1.3792    2.9711   -1.4148 H   0  0  0  0  0  0  0  0  0  0  0  0
   -0.6326    1.1021   -1.6839 H   0  0  0  0  0  0  0  0  0  0  0  0
    1.0423    0.6257   -3.2986 H   0  0  0  0  0  0  0  0  0  0  0  0
    2.3348    0.8068   -2.1190 H   0  0  0  0  0  0  0  0  0  0  0  0
  1  2  3  0
  1  5  1  0
  2  3  1  0
  3  4  1  0
  3  6  1  0
  4  7  1  0
  4  8  1  0
  4  9  1  0
 10 11  1  0
 10 17  1  0
 10 18  1  0
 10 19  1  0
 11 12  1  0
 11 20  1  0
 11 21  1  0
 12 13  1  0
 12 16  1  0
 12 22  1  0
 13 14  1  0
 13 23  1  0
 13 24  1  0
 14 15  1  0
 14 25  1  0
 14 26  1  0
 15 16  1  0
 15 27  1  0
 15 28  1  0
 16 17  1  0
 16 29  1  0
 17 30  1  0
 17 31  1  0
M  RAD  1   3   2
M  END
>  <reaction>  (14) 
rxn_565

>  <mol_properties>  (14) 
{"1": {"label": "*0", "atom_type": "Ct"}, "2": {"label": "*1", "atom_type": "Cs"}, "11": {"label": "*3", "atom_type": "Cs"}, "15": {"label": "*4", "atom_type": "Cs"}, "21": {"label": "*2", "atom_type": "H0"}}

>  <type>  (14) 
unop_10

>  <geom_source>  (14) 
Heuristics

$$$$

     RDKit          3D

 31 31  0  0  0  0  0  0  0  0999 V2000
   -3.5984    0.7174    0.1285 C   0  0  0  0  0  0  0  0  0  0  0  0
   -2.7697   -0.0992    0.4130 C   0  0  0  0  0  0  0  0  0  0  0  0
   -1.7780   -1.1148    0.7520 C   0  0  0  0  0  3  0  0  0  0  0  0
   -2.2806   -2.5390    0.5089 C   0  0  0  0  0  0  0  0  0  0  0  0
   -4.3340    1.4424   -0.1240 H   0  0  0  0  0  0  0  0  0  0  0  0
   -1.4953   -0.9932    1.8007 H   0  0  0  0  0  0  0  0  0  0  0  0
   -1.5092   -3.2625    0.7751 H   0  0  0  0  0  0  0  0  0  0  0  0
   -3.1674   -2.7436    1.1091 H   0  0  0  0  0  0  0  0  0  0  0  0
   -2.5417   -2.6830   -0.5396 H   0  0  0  0  0  0  0  0  0  0  0  0
    1.5776   -1.2560   -1.5605 C   0  0  0  0  0  0  0  0  0  0  0  0
    1.5776   -1.2560   -0.0340 C   0  0  0  0  0  0  0  0  0  0  0  0
    0.6142   -0.1212    0.3543 C   0  0  0  0  0  0  0  0  0  0  0  0
    1.0670    0.7173    1.5588 C   0  0  0  0  0  0  0  0  0  0  0  0
    1.8790    1.8555    0.9394 C   0  0  0  0  0  0  0  0  0  0  0  0
    1.0670    2.2151   -0.3055 C   0  0  0  0  0  0  0  0  0  0  0  0
    0.6142    0.8583   -0.8649 C   0  0  0  0  0  0  0  0  0  0  0  0
    1.5776    0.2346   -1.8893 C   0  0  0  0  0  0  0  0  0  0  0  0
    2.4224   -1.7942   -1.9929 H   0  0  0  0  0  0  0  0  0  0  0  0
    0.6618   -1.7228   -1.9355 H   0  0  0  0  0  0  0  0  0  0  0  0
    1.2933   -2.2143    0.4026 H   0  0  0  0  0  0  0  0  0  0  0  0
    2.5857   -1.0234    0.3252 H   0  0  0  0  0  0  0  0  0  0  0  0
   -0.5808   -0.6176    0.5530 H   0  0  0  0  0  0  0  0  0  0  0  0
    0.1992    1.1341    2.0772 H   0  0  0  0  0  0  0  0  0  0  0  0
    1.6301    0.1306    2.2870 H   0  0  0  0  0  0  0  0  0  0  0  0
    2.8701    1.4937    0.6487 H   0  0  0  0  0  0  0  0  0  0  0  0
    2.0269    2.6978    1.6161 H   0  0  0  0  0  0  0  0  0  0  0  0
    0.1992    2.8112   -0.0102 H   0  0  0  0  0  0  0  0  0  0  0  0
    1.6301    2.7999   -1.0354 H   0  0  0  0  0  0  0  0  0  0  0  0
   -0.3816    0.9309   -1.3045 H   0  0  0  0  0  0  0  0  0  0  0  0
    1.2933    0.4545   -2.9192 H   0  0  0  0  0  0  0  0  0  0  0  0
    2.5857    0.6356   -1.7396 H   0  0  0  0  0  0  0  0  0  0  0  0
  1  2  3  0
  1  5  1  0
  2  3  1  0
  3  4  1  0
  3  6  1  0
  4  7  1  0
  4  8  1  0
  4  9  1  0
 10 11  1  0
 10 17  1  0
 10 18  1  0
 10 19  1  0
 11 12  1  0
 11 20  1  0
 11 21  1  0
 12 13  1  0
 12 16  1  0
 12 22  1  0
 13 14  1  0
 13 23  1  0
 13 24  1  0
 14 15  1  0
 14 25  1  0
 14 26  1  0
 15 16  1  0
 15 27  1  0
 15 28  1  0
 16 17  1  0
 16 29  1  0
 17 30  1  0
 17 31  1  0
M  RAD  1   3   2
M  END
>  <reaction>  (15) 
rxn_565

>  <mol_properties>  (15) 
{"1": {"label": "*0", "atom_type": "Ct"}, "2": {"label": "*1", "atom_type": "Cs"}, "11": {"label": "*3", "atom_type": "Cs"}, "15": {"label": "*4", "atom_type": "Cs"}, "21": {"label": "*2", "atom_type": "H0"}}

>  <type>  (15) 
unop_11

>  <geom_source>  (15) 
Heuristics

$$$$

     RDKit          3D

 31 31  0  0  0  0  0  0  0  0999 V2000
   -1.9272   -3.3700    0.1879 C   0  0  0  0  0  0  0  0  0  0  0  0
   -1.9585   -2.1839    0.3511 C   0  0  0  0  0  0  0  0  0  0  0  0
   -2.0060   -0.7427    0.5762 C   0  0  0  0  0  3  0  0  0  0  0  0
   -2.4961   -0.3774    1.9785 C   0  0  0  0  0  0  0  0  0  0  0  0
   -1.8995   -4.4230    0.0430 H   0  0  0  0  0  0  0  0  0  0  0  0
   -2.6579   -0.2912   -0.1759 H   0  0  0  0  0  0  0  0  0  0  0  0
   -2.5154    0.7061    2.1016 H   0  0  0  0  0  0  0  0  0  0  0  0
   -3.5018   -0.7620    2.1488 H   0  0  0  0  0  0  0  0  0  0  0  0
   -1.8396   -0.7995    2.7395 H   0  0  0  0  0  0  0  0  0  0  0  0
    1.3496   -0.8839   -1.7363 C   0  0  0  0  0  0  0  0  0  0  0  0
    1.3496   -0.8839   -0.2099 C   0  0  0  0  0  0  0  0  0  0  0  0
    0.3862    0.2508    0.1785 C   0  0  0  0  0  0  0  0  0  0  0  0
    0.8390    1.0894    1.3829 C   0  0  0  0  0  0  0  0  0  0  0  0
    1.6510    2.2276    0.7635 C   0  0  0  0  0  0  0  0  0  0  0  0
    0.8390    2.5872   -0.4814 C   0  0  0  0  0  0  0  0  0  0  0  0
    0.3862    1.2304   -1.0407 C   0  0  0  0  0  0  0  0  0  0  0  0
    1.3496    0.6067   -2.0652 C   0  0  0  0  0  0  0  0  0  0  0  0
    2.1944   -1.4221   -2.1687 H   0  0  0  0  0  0  0  0  0  0  0  0
    0.4337   -1.3508   -2.1114 H   0  0  0  0  0  0  0  0  0  0  0  0
    1.0653   -1.8423    0.2267 H   0  0  0  0  0  0  0  0  0  0  0  0
    2.3577   -0.6513    0.1494 H   0  0  0  0  0  0  0  0  0  0  0  0
   -0.8088   -0.2455    0.3772 H   0  0  0  0  0  0  0  0  0  0  0  0
   -0.0288    1.5062    1.9014 H   0  0  0  0  0  0  0  0  0  0  0  0
    1.4021    0.5027    2.1112 H   0  0  0  0  0  0  0  0  0  0  0  0
    2.6421    1.8657    0.4728 H   0  0  0  0  0  0  0  0  0  0  0  0
    1.7989    3.0699    1.4403 H   0  0  0  0  0  0  0  0  0  0  0  0
   -0.0288    3.1833   -0.1860 H   0  0  0  0  0  0  0  0  0  0  0  0
    1.4021    3.1720   -1.2112 H   0  0  0  0  0  0  0  0  0  0  0  0
   -0.6096    1.3030   -1.4803 H   0  0  0  0  0  0  0  0  0  0  0  0
    1.0653    0.8265   -3.0951 H   0  0  0  0  0  0  0  0  0  0  0  0
    2.3577    1.0076   -1.9155 H   0  0  0  0  0  0  0  0  0  0  0  0
  1  2  3  0
  1  5  1  0
  2  3  1  0
  3  4  1  0
  3  6  1  0
  4  7  1  0
  4  8  1  0
  4  9  1  0
 10 11  1  0
 10 17  1  0
 10 18  1  0
 10 19  1  0
 11 12  1  0
 11 20  1  0
 11 21  1  0
 12 13  1  0
 12 16  1  0
 12 22  1  0
 13 14  1  0
 13 23  1  0
 13 24  1  0
 14 15  1  0
 14 25  1  0
 14 26  1  0
 15 16  1  0
 15 27  1  0
 15 28  1  0
 16 17  1  0
 16 29  1  0
 17 30  1  0
 17 31  1  0
M  RAD  1   3   2
M  END
>  <reaction>  (16) 
rxn_565

>  <mol_properties>  (16) 
{"1": {"label": "*0", "atom_type": "Ct"}, "2": {"label": "*1", "atom_type": "Cs"}, "11": {"label": "*3", "atom_type": "Cs"}, "15": {"label": "*4", "atom_type": "Cs"}, "21": {"label": "*2", "atom_type": "H0"}}

>  <type>  (16) 
unop_12

>  <geom_source>  (16) 
Heuristics

$$$$

     RDKit          3D

 31 31  0  0  0  0  0  0  0  0999 V2000
   -1.2316    0.2502    0.5850 C   0  0  0  0  0  0  0  0  0  0  0  0
   -2.2007    1.1876   -0.1425 C   0  0  0  0  0  0  0  0  0  0  0  0
   -1.8885   -0.9626    1.2519 C   0  0  0  0  0  0  0  0  0  0  0  0
   -1.5080    1.5469   -1.4468 C   0  0  0  0  0  0  0  0  0  0  0  0
   -0.9734   -2.1356    0.9414 C   0  0  0  0  0  0  0  0  0  0  0  0
   -0.6693    0.3311   -1.8038 C   0  0  0  0  0  0  0  0  0  0  0  0
   -0.3574   -1.8171   -0.4107 C   0  0  0  0  0  0  0  0  0  0  0  0
    2.1511    0.6063   -0.0912 C   0  0  0  0  0  3  0  0  0  0  0  0
    2.3442    1.7519    0.8929 C   0  0  0  0  0  0  0  0  0  0  0  0
   -0.2740   -0.2916   -0.4649 C   0  0  0  0  0  0  0  0  0  0  0  0
    3.1006   -0.4772    0.1855 C   0  0  0  0  0  0  0  0  0  0  0  0
    3.8804   -1.3682    0.4123 C   0  0  0  0  0  0  0  0  0  0  0  0
   -0.6374    0.8211    1.3323 H   0  0  0  0  0  0  0  0  0  0  0  0
   -3.1648    0.6863   -0.3785 H   0  0  0  0  0  0  0  0  0  0  0  0
   -2.4086    2.0969    0.4619 H   0  0  0  0  0  0  0  0  0  0  0  0
   -0.8436    2.4250   -1.2864 H   0  0  0  0  0  0  0  0  0  0  0  0
   -2.2428    1.7841   -2.2466 H   0  0  0  0  0  0  0  0  0  0  0  0
   -2.8945   -1.1749    0.8286 H   0  0  0  0  0  0  0  0  0  0  0  0
   -1.9862   -0.8129    2.3489 H   0  0  0  0  0  0  0  0  0  0  0  0
   -1.5344   -3.0951    0.9176 H   0  0  0  0  0  0  0  0  0  0  0  0
   -0.1724   -2.1976    1.7114 H   0  0  0  0  0  0  0  0  0  0  0  0
    0.2362    0.6253   -2.3754 H   0  0  0  0  0  0  0  0  0  0  0  0
   -1.2828   -0.3608   -2.4213 H   0  0  0  0  0  0  0  0  0  0  0  0
   -1.0117   -2.2282   -1.2102 H   0  0  0  0  0  0  0  0  0  0  0  0
    0.6555   -2.2628   -0.5024 H   0  0  0  0  0  0  0  0  0  0  0  0
    2.3091    0.9730   -1.1273 H   0  0  0  0  0  0  0  0  0  0  0  0
    0.8816    0.1256    0.0188 H   0  0  0  0  0  0  0  0  0  0  0  0
    1.6148    2.5577    0.6671 H   0  0  0  0  0  0  0  0  0  0  0  0
    3.3717    2.1667    0.8088 H   0  0  0  0  0  0  0  0  0  0  0  0
    2.1720    1.3991    1.9323 H   0  0  0  0  0  0  0  0  0  0  0  0
    4.5649   -2.1503    0.6115 H   0  0  0  0  0  0  0  0  0  0  0  0
  1  2  1  0
  1  3  1  0
  1 10  1  0
  1 13  1  0
  2  4  1  0
  2 14  1  0
  2 15  1  0
  3  5  1  0
  3 18  1  0
  3 19  1  0
  4  6  1  0
  4 16  1  0
  4 17  1  0
  5  7  1  0
  5 20  1  0
  5 21  1  0
  6 10  1  0
  6 22  1  0
  6 23  1  0
  7 10  1  0
  7 24  1  0
  7 25  1  0
  8  9  1  0
  8 11  1  0
  8 26  1  0
  9 28  1  0
  9 29  1  0
  9 30  1  0
 10 27  1  0
 11 12  3  0
 12 31  1  0
M  RAD  1   8   2
M  END
>  <reaction>  (17) 
rxn_565

>  <mol_properties>  (17) 
{"1": {"label": "*0", "atom_type": "Ct"}, "2": {"label": "*1", "atom_type": "Cs"}, "11": {"label": "*3", "atom_type": "Cs"}, "15": {"label": "*4", "atom_type": "Cs"}, "21": {"label": "*2", "atom_type": "H0"}}

>  <type>  (17) 
unop_13

>  <geom_source>  (17) 
AutoTST

$$$$
