
     RDKit          3D

  6  5  0  0  0  0  0  0  0  0999 V2000
   -0.5072   -0.0291   -0.0097 C   0  0  0  0  0  0  0  0  0  0  0  0
    1.1321   -0.1527   -0.7687 S   0  0  0  0  0  0  0  0  0  0  0  0
   -0.6174   -0.7330    0.8127 H   0  0  0  0  0  0  0  0  0  0  0  0
   -0.5863    0.9827    0.3845 H   0  0  0  0  0  0  0  0  0  0  0  0
   -1.2962   -0.1800   -0.7434 H   0  0  0  0  0  0  0  0  0  0  0  0
    1.0312   -1.4237   -1.1764 H   0  0  0  0  0  0  0  0  0  0  0  0
  1  2  1  0
  1  3  1  0
  1  4  1  0
  1  5  1  0
  2  6  1  0
M  END
>  <reaction>  (1) 
rxn_1815

>  <mol_properties>  (1) 
{"0": {"label": "donator", "atom_type": "Cs"}, "2": {"label": "d_hydrogen", "atom_type": "H0"}}

>  <type>  (1) 
r1h

$$$$

     RDKit          3D

 15 14  0  0  0  0  0  0  0  0999 V2000
    2.4381    0.5770   -0.2356 C   0  0  0  0  0  0  0  0  0  0  0  0
    1.4430   -0.3367   -0.1409 C   0  0  0  0  0  0  0  0  0  0  0  0
    0.0521   -0.0957   -0.0045 C   0  0  0  0  0  3  0  0  0  0  0  0
   -0.5167    1.2867    0.0548 C   0  0  0  0  0  0  0  0  0  0  0  0
   -0.8226   -1.2147    0.0778 C   0  0  0  0  0  0  0  0  0  0  0  0
   -2.1666   -1.1669    0.2092 C   0  0  0  0  0  0  0  0  0  0  0  0
    3.4666    0.2585   -0.3369 H   0  0  0  0  0  0  0  0  0  0  0  0
    2.2594    1.6438   -0.2152 H   0  0  0  0  0  0  0  0  0  0  0  0
    1.7306   -1.3845   -0.1719 H   0  0  0  0  0  0  0  0  0  0  0  0
   -1.2300    1.4469   -0.7583 H   0  0  0  0  0  0  0  0  0  0  0  0
    0.2481    2.0557   -0.0178 H   0  0  0  0  0  0  0  0  0  0  0  0
   -1.0592    1.4421    0.9914 H   0  0  0  0  0  0  0  0  0  0  0  0
   -0.3519   -2.1929    0.0292 H   0  0  0  0  0  0  0  0  0  0  0  0
   -2.7080   -0.2310    0.2646 H   0  0  0  0  0  0  0  0  0  0  0  0
   -2.7513   -2.0751    0.2638 H   0  0  0  0  0  0  0  0  0  0  0  0
  1  2  2  3
  1  7  1  0
  1  8  1  0
  2  3  1  0
  2  9  1  0
  3  4  1  0
  3  5  1  0
  4 10  1  0
  4 11  1  0
  4 12  1  0
  5  6  2  3
  5 13  1  0
  6 14  1  0
  6 15  1  0
M  RAD  1   3   2
M  END
>  <reaction>  (2) 
rxn_1815

>  <mol_properties>  (2) 
{"2": {"label": "acceptor", "atom_type": "Cs"}}

>  <type>  (2) 
r2

$$$$

     RDKit          3D

 16 15  0  0  0  0  0  0  0  0999 V2000
    1.7961   -0.3807    1.6176 C   0  0  0  0  0  0  0  0  0  0  0  0
    0.8562   -0.8708    0.8256 C   0  0  0  0  0  0  0  0  0  0  0  0
    0.0895   -0.0826   -0.2048 C   0  0  0  0  0  0  0  0  0  0  0  0
   -1.4061   -0.1111    0.0982 C   0  0  0  0  0  0  0  0  0  0  0  0
    0.4476   -0.5902   -1.5797 C   0  0  0  0  0  0  0  0  0  0  0  0
   -0.3793   -1.1113   -2.4728 C   0  0  0  0  0  0  0  0  0  0  0  0
    2.3110   -1.0032    2.3386 H   0  0  0  0  0  0  0  0  0  0  0  0
    2.0846    0.6643    1.5737 H   0  0  0  0  0  0  0  0  0  0  0  0
    0.5921   -1.9241    0.8925 H   0  0  0  0  0  0  0  0  0  0  0  0
    0.4358    0.9557   -0.1462 H   0  0  0  0  0  0  0  0  0  0  0  0
   -1.5968    0.3080    1.0865 H   0  0  0  0  0  0  0  0  0  0  0  0
   -1.9674    0.4693   -0.6359 H   0  0  0  0  0  0  0  0  0  0  0  0
   -1.7902   -1.1338    0.0883 H   0  0  0  0  0  0  0  0  0  0  0  0
    1.5049   -0.5197   -1.8214 H   0  0  0  0  0  0  0  0  0  0  0  0
   -1.4421   -1.2131   -2.2889 H   0  0  0  0  0  0  0  0  0  0  0  0
   -0.0162   -1.4558   -3.4328 H   0  0  0  0  0  0  0  0  0  0  0  0
  1  2  2  3
  1  7  1  0
  1  8  1  0
  2  3  1  0
  2  9  1  0
  3  4  1  0
  3  5  1  0
  3 10  1  0
  4 11  1  0
  4 12  1  0
  4 13  1  0
  5  6  2  3
  5 14  1  0
  6 15  1  0
  6 16  1  0
M  END
>  <reaction>  (3) 
rxn_1815

>  <mol_properties>  (3) 
{"0": {"label": "a_hydrogen", "atom_type": "H0"}, "3": {"label": "acceptor", "atom_type": "Cs"}}

>  <type>  (3) 
r2h

$$$$

     RDKit          3D

 21 19  0  0  0  0  0  0  0  0999 V2000
   -0.6354   -1.1921   -1.2190 C   0  0  0  0  0  3  0  0  0  0  0  0
    0.0290   -0.6195   -2.7367 S   0  0  0  0  0  0  0  0  0  0  0  0
   -0.3132   -0.2231   -0.1704 H   0  0  0  0  0  0  0  0  0  0  0  0
   -1.7208   -1.1840   -1.2351 H   0  0  0  0  0  0  0  0  0  0  0  0
   -0.2053   -2.1060   -0.8214 H   0  0  0  0  0  0  0  0  0  0  0  0
    1.3219   -0.8068   -2.4394 H   0  0  0  0  0  0  0  0  0  0  0  0
    2.4306    0.9889    0.9064 C   0  0  0  0  0  0  0  0  0  0  0  0
    1.2746    1.1410    0.2662 C   0  0  0  0  0  0  0  0  0  0  0  0
   -0.0631    0.6695    0.6935 C   0  0  0  0  0  0  0  0  0  0  0  0
   -1.1653    1.6790    0.4395 C   0  0  0  0  0  0  0  0  0  0  0  0
   -0.1223   -0.0702    1.9716 C   0  0  0  0  0  0  0  0  0  0  0  0
   -1.0653    0.0347    2.9018 C   0  0  0  0  0  0  0  0  0  0  0  0
    3.3531    1.3592    0.4777 H   0  0  0  0  0  0  0  0  0  0  0  0
    2.4992    0.5158    1.8782 H   0  0  0  0  0  0  0  0  0  0  0  0
    1.2810    1.6510   -0.6943 H   0  0  0  0  0  0  0  0  0  0  0  0
   -2.1509    1.2218    0.5435 H   0  0  0  0  0  0  0  0  0  0  0  0
   -1.0851    2.0781   -0.5731 H   0  0  0  0  0  0  0  0  0  0  0  0
   -1.1038    2.5173    1.1386 H   0  0  0  0  0  0  0  0  0  0  0  0
    0.6724   -0.7952    2.1257 H   0  0  0  0  0  0  0  0  0  0  0  0
   -1.8847    0.7383    2.8185 H   0  0  0  0  0  0  0  0  0  0  0  0
   -1.0403   -0.5815    3.7914 H   0  0  0  0  0  0  0  0  0  0  0  0
  1  2  1  0
  1  4  1  0
  1  5  1  0
  2  6  1  0
  3  9  1  0
  7  8  2  3
  7 13  1  0
  7 14  1  0
  8  9  1  0
  8 15  1  0
  9 10  1  0
  9 11  1  0
 10 16  1  0
 10 17  1  0
 10 18  1  0
 11 12  2  3
 11 19  1  0
 12 20  1  0
 12 21  1  0
M  RAD  1   1   2
M  END
>  <reaction>  (4) 
rxn_1815

>  <mol_properties>  (4) 
{"0": {"label": "*3", "atom_type": "Cs"}, "1": {"label": "*4", "atom_type": "S2s"}, "2": {"label": "*2", "atom_type": "H0"}, "7": {"label": "*0", "atom_type": "Cd"}, "8": {"label": "*1", "atom_type": "Cs"}}

>  <type>  (4) 
ts

$$$$

     RDKit          3D

 21 19  0  0  0  0  0  0  0  0999 V2000
    0.0411   -1.7891   -0.3012 C   0  0  0  0  0  0  0  0  0  0  0  0
    0.0411   -1.7891   -2.1119 S   0  0  0  0  0  0  0  0  0  0  0  0
    0.0411   -0.5732    0.1745 H   0  0  0  0  0  0  0  0  0  0  0  0
   -0.8796   -2.2832    0.0047 H   0  0  0  0  0  0  0  0  0  0  0  0
    0.8855   -2.3491    0.0952 H   0  0  0  0  0  0  0  0  0  0  0  0
    1.2114   -1.1609   -2.2783 H   0  0  0  0  0  0  0  0  0  0  0  0
   -2.3956    0.3209    1.1788 C   0  0  0  0  0  0  0  0  0  0  0  0
   -1.2046    0.8079    1.4873 C   0  0  0  0  0  0  0  0  0  0  0  0
    0.0411    0.6517    0.6539 C   0  0  0  0  0  3  0  0  0  0  0  0
    1.1268   -0.0788    1.4394 C   0  0  0  0  0  0  0  0  0  0  0  0
    0.4616    2.0057    0.1381 C   0  0  0  0  0  0  0  0  0  0  0  0
    1.6113    2.6202    0.3692 C   0  0  0  0  0  0  0  0  0  0  0  0
   -3.2530    0.4699    1.8230 H   0  0  0  0  0  0  0  0  0  0  0  0
   -2.5561   -0.2470    0.2683 H   0  0  0  0  0  0  0  0  0  0  0  0
   -1.0776    1.3757    2.4066 H   0  0  0  0  0  0  0  0  0  0  0  0
    2.0279   -0.2084    0.8378 H   0  0  0  0  0  0  0  0  0  0  0  0
    0.7717   -1.0638    1.7434 H   0  0  0  0  0  0  0  0  0  0  0  0
    1.3979    0.4730    2.3425 H   0  0  0  0  0  0  0  0  0  0  0  0
   -0.2883    2.5058   -0.4694 H   0  0  0  0  0  0  0  0  0  0  0  0
    2.3954    2.1761    0.9705 H   0  0  0  0  0  0  0  0  0  0  0  0
    1.8107    3.6010   -0.0436 H   0  0  0  0  0  0  0  0  0  0  0  0
  1  2  1  0
  1  3  1  0
  1  4  1  0
  1  5  1  0
  2  6  1  0
  7  8  2  3
  7 13  1  0
  7 14  1  0
  8  9  1  0
  8 15  1  0
  9 10  1  0
  9 11  1  0
 10 16  1  0
 10 17  1  0
 10 18  1  0
 11 12  2  3
 11 19  1  0
 12 20  1  0
 12 21  1  0
M  RAD  1   9   2
M  END
>  <reaction>  (5) 
rxn_1815

>  <mol_properties>  (5) 
{"0": {"label": "*3", "atom_type": "Cs"}, "1": {"label": "*4", "atom_type": "S2s"}, "2": {"label": "*2", "atom_type": "H0"}, "7": {"label": "*0", "atom_type": "Cd"}, "8": {"label": "*1", "atom_type": "Cs"}}

>  <type>  (5) 
unop_1

>  <geom_source>  (5) 
Heuristics

$$$$

     RDKit          3D

 21 19  0  0  0  0  0  0  0  0999 V2000
   -0.0291   -1.8369   -0.1592 C   0  0  0  0  0  0  0  0  0  0  0  0
   -0.0291   -1.8369   -1.9698 S   0  0  0  0  0  0  0  0  0  0  0  0
   -0.0291   -0.6211    0.3166 H   0  0  0  0  0  0  0  0  0  0  0  0
   -0.9498   -2.3311    0.1468 H   0  0  0  0  0  0  0  0  0  0  0  0
    0.8153   -2.3969    0.2373 H   0  0  0  0  0  0  0  0  0  0  0  0
    1.1412   -1.2088   -2.1362 H   0  0  0  0  0  0  0  0  0  0  0  0
   -0.9447    1.1777   -1.4745 C   0  0  0  0  0  0  0  0  0  0  0  0
   -0.7483    1.4761   -0.2004 C   0  0  0  0  0  0  0  0  0  0  0  0
   -0.0291    0.6038    0.7959 C   0  0  0  0  0  3  0  0  0  0  0  0
   -0.9535    0.2311    1.9517 C   0  0  0  0  0  0  0  0  0  0  0  0
    1.2435    1.2916    1.2243 C   0  0  0  0  0  0  0  0  0  0  0  0
    1.5726    1.6563    2.4538 C   0  0  0  0  0  0  0  0  0  0  0  0
   -1.4706    1.8510   -2.1396 H   0  0  0  0  0  0  0  0  0  0  0  0
   -0.5864    0.2458   -1.8990 H   0  0  0  0  0  0  0  0  0  0  0  0
   -1.1179    2.4203    0.1938 H   0  0  0  0  0  0  0  0  0  0  0  0
   -0.4443   -0.4124    2.6710 H   0  0  0  0  0  0  0  0  0  0  0  0
   -1.8291   -0.2989    1.5760 H   0  0  0  0  0  0  0  0  0  0  0  0
   -1.3021    1.1216    2.4799 H   0  0  0  0  0  0  0  0  0  0  0  0
    1.9306    1.5087    0.4106 H   0  0  0  0  0  0  0  0  0  0  0  0
    0.9282    1.4725    3.3051 H   0  0  0  0  0  0  0  0  0  0  0  0
    2.5123    2.1555    2.6534 H   0  0  0  0  0  0  0  0  0  0  0  0
  1  2  1  0
  1  3  1  0
  1  4  1  0
  1  5  1  0
  2  6  1  0
  7  8  2  3
  7 13  1  0
  7 14  1  0
  8  9  1  0
  8 15  1  0
  9 10  1  0
  9 11  1  0
 10 16  1  0
 10 17  1  0
 10 18  1  0
 11 12  2  3
 11 19  1  0
 12 20  1  0
 12 21  1  0
M  RAD  1   9   2
M  END
>  <reaction>  (6) 
rxn_1815

>  <mol_properties>  (6) 
{"0": {"label": "*3", "atom_type": "Cs"}, "1": {"label": "*4", "atom_type": "S2s"}, "2": {"label": "*2", "atom_type": "H0"}, "7": {"label": "*0", "atom_type": "Cd"}, "8": {"label": "*1", "atom_type": "Cs"}}

>  <type>  (6) 
unop_2

>  <geom_source>  (6) 
Heuristics

$$$$

     RDKit          3D

 21 19  0  0  0  0  0  0  0  0999 V2000
    0.0516   -1.7913   -0.2937 C   0  0  0  0  0  0  0  0  0  0  0  0
    0.0516   -1.7913   -2.1044 S   0  0  0  0  0  0  0  0  0  0  0  0
    0.0516   -0.5755    0.1820 H   0  0  0  0  0  0  0  0  0  0  0  0
   -0.8691   -2.2855    0.0122 H   0  0  0  0  0  0  0  0  0  0  0  0
    0.8960   -2.3513    0.1027 H   0  0  0  0  0  0  0  0  0  0  0  0
    1.2219   -1.1632   -2.2708 H   0  0  0  0  0  0  0  0  0  0  0  0
   -1.6175   -0.2464    2.3149 C   0  0  0  0  0  0  0  0  0  0  0  0
   -0.6676    0.6138    1.9851 C   0  0  0  0  0  0  0  0  0  0  0  0
    0.0516    0.6494    0.6614 C   0  0  0  0  0  3  0  0  0  0  0  0
    1.5508    0.4404    0.8570 C   0  0  0  0  0  0  0  0  0  0  0  0
   -0.3019    1.9282   -0.0569 C   0  0  0  0  0  0  0  0  0  0  0  0
    0.5351    2.8797   -0.4405 C   0  0  0  0  0  0  0  0  0  0  0  0
   -2.0961   -0.2173    3.2857 H   0  0  0  0  0  0  0  0  0  0  0  0
   -1.9508   -1.0135    1.6239 H   0  0  0  0  0  0  0  0  0  0  0  0
   -0.3580    1.3731    2.7000 H   0  0  0  0  0  0  0  0  0  0  0  0
    2.0774    0.4509   -0.0987 H   0  0  0  0  0  0  0  0  0  0  0  0
    1.7359   -0.5188    1.3410 H   0  0  0  0  0  0  0  0  0  0  0  0
    1.9780    1.2226    1.4888 H   0  0  0  0  0  0  0  0  0  0  0  0
   -1.3643    2.0548   -0.2485 H   0  0  0  0  0  0  0  0  0  0  0  0
    1.6034    2.8139   -0.2735 H   0  0  0  0  0  0  0  0  0  0  0  0
    0.1748    3.7678   -0.9441 H   0  0  0  0  0  0  0  0  0  0  0  0
  1  2  1  0
  1  3  1  0
  1  4  1  0
  1  5  1  0
  2  6  1  0
  7  8  2  3
  7 13  1  0
  7 14  1  0
  8  9  1  0
  8 15  1  0
  9 10  1  0
  9 11  1  0
 10 16  1  0
 10 17  1  0
 10 18  1  0
 11 12  2  3
 11 19  1  0
 12 20  1  0
 12 21  1  0
M  RAD  1   9   2
M  END
>  <reaction>  (7) 
rxn_1815

>  <mol_properties>  (7) 
{"0": {"label": "*3", "atom_type": "Cs"}, "1": {"label": "*4", "atom_type": "S2s"}, "2": {"label": "*2", "atom_type": "H0"}, "7": {"label": "*0", "atom_type": "Cd"}, "8": {"label": "*1", "atom_type": "Cs"}}

>  <type>  (7) 
unop_3

>  <geom_source>  (7) 
Heuristics

$$$$

     RDKit          3D

 21 19  0  0  0  0  0  0  0  0999 V2000
   -0.2230   -1.6265   -0.3340 C   0  0  0  0  0  0  0  0  0  0  0  0
   -0.2230   -1.6265   -2.1446 S   0  0  0  0  0  0  0  0  0  0  0  0
   -0.2230   -0.4107    0.1418 H   0  0  0  0  0  0  0  0  0  0  0  0
   -1.1436   -2.1206   -0.0281 H   0  0  0  0  0  0  0  0  0  0  0  0
    0.6214   -2.1865    0.0625 H   0  0  0  0  0  0  0  0  0  0  0  0
    0.9473   -0.9984   -2.3110 H   0  0  0  0  0  0  0  0  0  0  0  0
    1.6254    1.2285   -1.0325 C   0  0  0  0  0  0  0  0  0  0  0  0
    1.0227    1.4946    0.1151 C   0  0  0  0  0  0  0  0  0  0  0  0
   -0.2230    0.8142    0.6211 C   0  0  0  0  0  3  0  0  0  0  0  0
   -1.3457    1.8278    0.8245 C   0  0  0  0  0  0  0  0  0  0  0  0
    0.1178    0.0186    1.8569 C   0  0  0  0  0  0  0  0  0  0  0  0
   -0.3943    0.1761    3.0676 C   0  0  0  0  0  0  0  0  0  0  0  0
    2.5209    1.7552   -1.3378 H   0  0  0  0  0  0  0  0  0  0  0  0
    1.2429    0.4727   -1.7104 H   0  0  0  0  0  0  0  0  0  0  0  0
    1.4334    2.2566    0.7740 H   0  0  0  0  0  0  0  0  0  0  0  0
   -2.2562    1.3409    1.1777 H   0  0  0  0  0  0  0  0  0  0  0  0
   -1.5690    2.3341   -0.1149 H   0  0  0  0  0  0  0  0  0  0  0  0
   -1.0617    2.5883    1.5556 H   0  0  0  0  0  0  0  0  0  0  0  0
    0.8777   -0.7432    1.7032 H   0  0  0  0  0  0  0  0  0  0  0  0
   -1.1504    0.9209    3.2848 H   0  0  0  0  0  0  0  0  0  0  0  0
   -0.0720   -0.4456    3.8933 H   0  0  0  0  0  0  0  0  0  0  0  0
  1  2  1  0
  1  3  1  0
  1  4  1  0
  1  5  1  0
  2  6  1  0
  7  8  2  3
  7 13  1  0
  7 14  1  0
  8  9  1  0
  8 15  1  0
  9 10  1  0
  9 11  1  0
 10 16  1  0
 10 17  1  0
 10 18  1  0
 11 12  2  3
 11 19  1  0
 12 20  1  0
 12 21  1  0
M  RAD  1   9   2
M  END
>  <reaction>  (8) 
rxn_1815

>  <mol_properties>  (8) 
{"0": {"label": "*3", "atom_type": "Cs"}, "1": {"label": "*4", "atom_type": "S2s"}, "2": {"label": "*2", "atom_type": "H0"}, "7": {"label": "*0", "atom_type": "Cd"}, "8": {"label": "*1", "atom_type": "Cs"}}

>  <type>  (8) 
unop_4

>  <geom_source>  (8) 
Heuristics

$$$$

     RDKit          3D

 21 19  0  0  0  0  0  0  0  0999 V2000
    0.1315   -1.7428   -0.3131 C   0  0  0  0  0  0  0  0  0  0  0  0
    0.1315   -1.7428   -2.1238 S   0  0  0  0  0  0  0  0  0  0  0  0
    0.1315   -0.5269    0.1626 H   0  0  0  0  0  0  0  0  0  0  0  0
   -0.7892   -2.2369   -0.0072 H   0  0  0  0  0  0  0  0  0  0  0  0
    0.9758   -2.3028    0.0833 H   0  0  0  0  0  0  0  0  0  0  0  0
    1.3018   -1.1146   -2.2902 H   0  0  0  0  0  0  0  0  0  0  0  0
    0.1000   -0.5392    2.8308 C   0  0  0  0  0  0  0  0  0  0  0  0
    0.1315    0.5921    2.1451 C   0  0  0  0  0  0  0  0  0  0  0  0
    0.1315    0.6980    0.6420 C   0  0  0  0  0  3  0  0  0  0  0  0
    1.3900    1.4088    0.1519 C   0  0  0  0  0  0  0  0  0  0  0  0
   -1.1546    1.3471    0.1940 C   0  0  0  0  0  0  0  0  0  0  0  0
   -1.2779    2.4757   -0.4873 C   0  0  0  0  0  0  0  0  0  0  0  0
    0.1012   -0.5458    3.9135 H   0  0  0  0  0  0  0  0  0  0  0  0
    0.0727   -1.5023    2.3321 H   0  0  0  0  0  0  0  0  0  0  0  0
    0.1554    1.5417    2.6755 H   0  0  0  0  0  0  0  0  0  0  0  0
    1.4045    1.4771   -0.9371 H   0  0  0  0  0  0  0  0  0  0  0  0
    2.2780    0.8643    0.4740 H   0  0  0  0  0  0  0  0  0  0  0  0
    1.4529    2.4216    0.5567 H   0  0  0  0  0  0  0  0  0  0  0  0
   -2.0531    0.8135    0.4930 H   0  0  0  0  0  0  0  0  0  0  0  0
   -0.4210    3.0551   -0.8091 H   0  0  0  0  0  0  0  0  0  0  0  0
   -2.2540    2.8618   -0.7523 H   0  0  0  0  0  0  0  0  0  0  0  0
  1  2  1  0
  1  3  1  0
  1  4  1  0
  1  5  1  0
  2  6  1  0
  7  8  2  3
  7 13  1  0
  7 14  1  0
  8  9  1  0
  8 15  1  0
  9 10  1  0
  9 11  1  0
 10 16  1  0
 10 17  1  0
 10 18  1  0
 11 12  2  3
 11 19  1  0
 12 20  1  0
 12 21  1  0
M  RAD  1   9   2
M  END
>  <reaction>  (9) 
rxn_1815

>  <mol_properties>  (9) 
{"0": {"label": "*3", "atom_type": "Cs"}, "1": {"label": "*4", "atom_type": "S2s"}, "2": {"label": "*2", "atom_type": "H0"}, "7": {"label": "*0", "atom_type": "Cd"}, "8": {"label": "*1", "atom_type": "Cs"}}

>  <type>  (9) 
unop_5

>  <geom_source>  (9) 
Heuristics

$$$$

     RDKit          3D

 21 19  0  0  0  0  0  0  0  0999 V2000
   -0.1307   -1.5649   -0.4166 C   0  0  0  0  0  0  0  0  0  0  0  0
   -0.1307   -1.5649   -2.2272 S   0  0  0  0  0  0  0  0  0  0  0  0
   -0.1307   -0.3491    0.0592 H   0  0  0  0  0  0  0  0  0  0  0  0
   -1.0514   -2.0590   -0.1106 H   0  0  0  0  0  0  0  0  0  0  0  0
    0.7136   -2.1249   -0.0201 H   0  0  0  0  0  0  0  0  0  0  0  0
    1.0396   -0.9368   -2.3936 H   0  0  0  0  0  0  0  0  0  0  0  0
    2.2941    0.9738   -0.1195 C   0  0  0  0  0  0  0  0  0  0  0  0
    1.3076    1.2941    0.7022 C   0  0  0  0  0  0  0  0  0  0  0  0
   -0.1307    0.8758    0.5385 C   0  0  0  0  0  3  0  0  0  0  0  0
   -1.0360    2.0979    0.4109 C   0  0  0  0  0  0  0  0  0  0  0  0
   -0.5056   -0.0513    1.6682 C   0  0  0  0  0  0  0  0  0  0  0  0
   -1.4584    0.1395    2.5675 C   0  0  0  0  0  0  0  0  0  0  0  0
    3.3091    1.3073    0.0564 H   0  0  0  0  0  0  0  0  0  0  0  0
    2.1212    0.3653   -1.0009 H   0  0  0  0  0  0  0  0  0  0  0  0
    1.5149    1.9036    1.5793 H   0  0  0  0  0  0  0  0  0  0  0  0
   -2.0783    1.8033    0.2779 H   0  0  0  0  0  0  0  0  0  0  0  0
   -0.7364    2.6988   -0.4480 H   0  0  0  0  0  0  0  0  0  0  0  0
   -0.9724    2.7294    1.3001 H   0  0  0  0  0  0  0  0  0  0  0  0
    0.1009   -0.9511    1.7287 H   0  0  0  0  0  0  0  0  0  0  0  0
   -2.0923    1.0180    2.5631 H   0  0  0  0  0  0  0  0  0  0  0  0
   -1.6409   -0.5886    3.3477 H   0  0  0  0  0  0  0  0  0  0  0  0
  1  2  1  0
  1  3  1  0
  1  4  1  0
  1  5  1  0
  2  6  1  0
  7  8  2  3
  7 13  1  0
  7 14  1  0
  8  9  1  0
  8 15  1  0
  9 10  1  0
  9 11  1  0
 10 16  1  0
 10 17  1  0
 10 18  1  0
 11 12  2  3
 11 19  1  0
 12 20  1  0
 12 21  1  0
M  RAD  1   9   2
M  END
>  <reaction>  (10) 
rxn_1815

>  <mol_properties>  (10) 
{"0": {"label": "*3", "atom_type": "Cs"}, "1": {"label": "*4", "atom_type": "S2s"}, "2": {"label": "*2", "atom_type": "H0"}, "7": {"label": "*0", "atom_type": "Cd"}, "8": {"label": "*1", "atom_type": "Cs"}}

>  <type>  (10) 
unop_6

>  <geom_source>  (10) 
Heuristics

$$$$

     RDKit          3D

 21 19  0  0  0  0  0  0  0  0999 V2000
    0.0075   -1.5567   -0.4430 C   0  0  0  0  0  0  0  0  0  0  0  0
    0.0075   -1.5567   -2.2536 S   0  0  0  0  0  0  0  0  0  0  0  0
    0.0075   -0.3409    0.0328 H   0  0  0  0  0  0  0  0  0  0  0  0
   -0.9132   -2.0508   -0.1370 H   0  0  0  0  0  0  0  0  0  0  0  0
    0.8519   -2.1167   -0.0465 H   0  0  0  0  0  0  0  0  0  0  0  0
    1.1778   -0.9286   -2.4200 H   0  0  0  0  0  0  0  0  0  0  0  0
    2.4294    0.5010    1.0689 C   0  0  0  0  0  0  0  0  0  0  0  0
    1.2532    1.0403    1.3455 C   0  0  0  0  0  0  0  0  0  0  0  0
    0.0075    0.8840    0.5121 C   0  0  0  0  0  3  0  0  0  0  0  0
   -0.4876    2.2425    0.0234 C   0  0  0  0  0  0  0  0  0  0  0  0
   -1.0164    0.1034    1.2985 C   0  0  0  0  0  0  0  0  0  0  0  0
   -2.2240    0.5134    1.6544 C   0  0  0  0  0  0  0  0  0  0  0  0
    3.2875    0.6522    1.7118 H   0  0  0  0  0  0  0  0  0  0  0  0
    2.5771   -0.1121    0.1861 H   0  0  0  0  0  0  0  0  0  0  0  0
    1.1374    1.6479    2.2406 H   0  0  0  0  0  0  0  0  0  0  0  0
   -1.3820    2.1368   -0.5929 H   0  0  0  0  0  0  0  0  0  0  0  0
    0.2841    2.7313   -0.5717 H   0  0  0  0  0  0  0  0  0  0  0  0
   -0.7292    2.8986    0.8628 H   0  0  0  0  0  0  0  0  0  0  0  0
   -0.6882   -0.8877    1.6007 H   0  0  0  0  0  0  0  0  0  0  0  0
   -2.6060    1.4916    1.3881 H   0  0  0  0  0  0  0  0  0  0  0  0
   -2.8815   -0.1259    2.2299 H   0  0  0  0  0  0  0  0  0  0  0  0
  1  2  1  0
  1  3  1  0
  1  4  1  0
  1  5  1  0
  2  6  1  0
  7  8  2  3
  7 13  1  0
  7 14  1  0
  8  9  1  0
  8 15  1  0
  9 10  1  0
  9 11  1  0
 10 16  1  0
 10 17  1  0
 10 18  1  0
 11 12  2  3
 11 19  1  0
 12 20  1  0
 12 21  1  0
M  RAD  1   9   2
M  END
>  <reaction>  (11) 
rxn_1815

>  <mol_properties>  (11) 
{"0": {"label": "*3", "atom_type": "Cs"}, "1": {"label": "*4", "atom_type": "S2s"}, "2": {"label": "*2", "atom_type": "H0"}, "7": {"label": "*0", "atom_type": "Cd"}, "8": {"label": "*1", "atom_type": "Cs"}}

>  <type>  (11) 
unop_7

>  <geom_source>  (11) 
Heuristics

$$$$

     RDKit          3D

 21 19  0  0  0  0  0  0  0  0999 V2000
    0.0616   -1.7998   -0.2733 C   0  0  0  0  0  0  0  0  0  0  0  0
    0.0616   -1.7998   -2.0839 S   0  0  0  0  0  0  0  0  0  0  0  0
    0.0616   -0.5840    0.2025 H   0  0  0  0  0  0  0  0  0  0  0  0
   -0.8590   -2.2939    0.0326 H   0  0  0  0  0  0  0  0  0  0  0  0
    0.9060   -2.3598    0.1232 H   0  0  0  0  0  0  0  0  0  0  0  0
    1.2320   -1.1716   -2.2503 H   0  0  0  0  0  0  0  0  0  0  0  0
   -2.3515    0.7917   -0.0084 C   0  0  0  0  0  0  0  0  0  0  0  0
   -1.3767    1.0592    0.8455 C   0  0  0  0  0  0  0  0  0  0  0  0
    0.0616    0.6409    0.6818 C   0  0  0  0  0  3  0  0  0  0  0  0
    0.4995   -0.2485    1.8423 C   0  0  0  0  0  0  0  0  0  0  0  0
    0.9143    1.8716    0.4952 C   0  0  0  0  0  0  0  0  0  0  0  0
    1.9128    2.2690    1.2684 C   0  0  0  0  0  0  0  0  0  0  0  0
   -3.3670    1.1231    0.1688 H   0  0  0  0  0  0  0  0  0  0  0  0
   -2.1684    0.2290   -0.9178 H   0  0  0  0  0  0  0  0  0  0  0  0
   -1.5929    1.6285    1.7471 H   0  0  0  0  0  0  0  0  0  0  0  0
    1.5364   -0.5674    1.7241 H   0  0  0  0  0  0  0  0  0  0  0  0
   -0.1300   -1.1373    1.8921 H   0  0  0  0  0  0  0  0  0  0  0  0
    0.4125    0.2775    2.7958 H   0  0  0  0  0  0  0  0  0  0  0  0
    0.6414    2.4790   -0.3638 H   0  0  0  0  0  0  0  0  0  0  0  0
    2.2284    1.7099    2.1410 H   0  0  0  0  0  0  0  0  0  0  0  0
    2.4579    3.1786    1.0497 H   0  0  0  0  0  0  0  0  0  0  0  0
  1  2  1  0
  1  3  1  0
  1  4  1  0
  1  5  1  0
  2  6  1  0
  7  8  2  3
  7 13  1  0
  7 14  1  0
  8  9  1  0
  8 15  1  0
  9 10  1  0
  9 11  1  0
 10 16  1  0
 10 17  1  0
 10 18  1  0
 11 12  2  3
 11 19  1  0
 12 20  1  0
 12 21  1  0
M  RAD  1   9   2
M  END
>  <reaction>  (12) 
rxn_1815

>  <mol_properties>  (12) 
{"0": {"label": "*3", "atom_type": "Cs"}, "1": {"label": "*4", "atom_type": "S2s"}, "2": {"label": "*2", "atom_type": "H0"}, "7": {"label": "*0", "atom_type": "Cd"}, "8": {"label": "*1", "atom_type": "Cs"}}

>  <type>  (12) 
unop_8

>  <geom_source>  (12) 
Heuristics

$$$$

     RDKit          3D

 21 19  0  0  0  0  0  0  0  0999 V2000
   -0.2313   -1.7187   -0.2313 C   0  0  0  0  0  0  0  0  0  0  0  0
   -0.2313   -1.7187   -2.0419 S   0  0  0  0  0  0  0  0  0  0  0  0
   -0.2313   -0.5028    0.2445 H   0  0  0  0  0  0  0  0  0  0  0  0
   -1.1520   -2.2128    0.0747 H   0  0  0  0  0  0  0  0  0  0  0  0
    0.6130   -2.2787    0.1652 H   0  0  0  0  0  0  0  0  0  0  0  0
    0.9390   -1.0905   -2.2083 H   0  0  0  0  0  0  0  0  0  0  0  0
    0.7391    1.2693   -1.5304 C   0  0  0  0  0  0  0  0  0  0  0  0
    0.4879    1.5943   -0.2725 C   0  0  0  0  0  0  0  0  0  0  0  0
   -0.2313    0.7221    0.7238 C   0  0  0  0  0  3  0  0  0  0  0  0
   -1.4945    1.4123    1.2311 C   0  0  0  0  0  0  0  0  0  0  0  0
    0.7315    0.3236    1.8148 C   0  0  0  0  0  0  0  0  0  0  0  0
    0.6167    0.5842    3.1078 C   0  0  0  0  0  0  0  0  0  0  0  0
    1.2627    1.9438   -2.1962 H   0  0  0  0  0  0  0  0  0  0  0  0
    0.4281    0.3144   -1.9409 H   0  0  0  0  0  0  0  0  0  0  0  0
    0.8158    2.5588    0.1093 H   0  0  0  0  0  0  0  0  0  0  0  0
   -2.0289    0.7810    1.9430 H   0  0  0  0  0  0  0  0  0  0  0  0
   -2.1623    1.6323    0.3979 H   0  0  0  0  0  0  0  0  0  0  0  0
   -1.2552    2.3560    1.7269 H   0  0  0  0  0  0  0  0  0  0  0  0
    1.6061   -0.2181    1.4640 H   0  0  0  0  0  0  0  0  0  0  0  0
   -0.2284    1.1242    3.5176 H   0  0  0  0  0  0  0  0  0  0  0  0
    1.3736    0.2590    3.8103 H   0  0  0  0  0  0  0  0  0  0  0  0
  1  2  1  0
  1  3  1  0
  1  4  1  0
  1  5  1  0
  2  6  1  0
  7  8  2  3
  7 13  1  0
  7 14  1  0
  8  9  1  0
  8 15  1  0
  9 10  1  0
  9 11  1  0
 10 16  1  0
 10 17  1  0
 10 18  1  0
 11 12  2  3
 11 19  1  0
 12 20  1  0
 12 21  1  0
M  RAD  1   9   2
M  END
>  <reaction>  (13) 
rxn_1815

>  <mol_properties>  (13) 
{"0": {"label": "*3", "atom_type": "Cs"}, "1": {"label": "*4", "atom_type": "S2s"}, "2": {"label": "*2", "atom_type": "H0"}, "7": {"label": "*0", "atom_type": "Cd"}, "8": {"label": "*1", "atom_type": "Cs"}}

>  <type>  (13) 
unop_9

>  <geom_source>  (13) 
Heuristics

$$$$

     RDKit          3D

 21 19  0  0  0  0  0  0  0  0999 V2000
    0.0488   -1.8244   -0.2133 C   0  0  0  0  0  0  0  0  0  0  0  0
    0.0488   -1.8244   -2.0239 S   0  0  0  0  0  0  0  0  0  0  0  0
    0.0488   -0.6085    0.2625 H   0  0  0  0  0  0  0  0  0  0  0  0
   -0.8719   -2.3185    0.0926 H   0  0  0  0  0  0  0  0  0  0  0  0
    0.8931   -2.3844    0.1832 H   0  0  0  0  0  0  0  0  0  0  0  0
    1.2191   -1.1962   -2.1903 H   0  0  0  0  0  0  0  0  0  0  0  0
   -1.7642    1.0752   -0.9390 C   0  0  0  0  0  0  0  0  0  0  0  0
   -1.1969    1.2967    0.2358 C   0  0  0  0  0  0  0  0  0  0  0  0
    0.0488    0.6163    0.7418 C   0  0  0  0  0  3  0  0  0  0  0  0
   -0.2408   -0.1487    2.0303 C   0  0  0  0  0  0  0  0  0  0  0  0
    1.1512    1.6384    0.8688 C   0  0  0  0  0  0  0  0  0  0  0  0
    1.8017    1.9701    1.9732 C   0  0  0  0  0  0  0  0  0  0  0  0
   -2.6611    1.6000   -1.2431 H   0  0  0  0  0  0  0  0  0  0  0  0
   -1.3512    0.3579   -1.6404 H   0  0  0  0  0  0  0  0  0  0  0  0
   -1.6345    2.0249    0.9154 H   0  0  0  0  0  0  0  0  0  0  0  0
    0.6534   -0.6562    2.3960 H   0  0  0  0  0  0  0  0  0  0  0  0
   -1.0141   -0.8975    1.8564 H   0  0  0  0  0  0  0  0  0  0  0  0
   -0.5954    0.5228    2.8156 H   0  0  0  0  0  0  0  0  0  0  0  0
    1.3996    2.1464   -0.0595 H   0  0  0  0  0  0  0  0  0  0  0  0
    1.5962    1.5038    2.9292 H   0  0  0  0  0  0  0  0  0  0  0  0
    2.5747    2.7279    1.9573 H   0  0  0  0  0  0  0  0  0  0  0  0
  1  2  1  0
  1  3  1  0
  1  4  1  0
  1  5  1  0
  2  6  1  0
  7  8  2  3
  7 13  1  0
  7 14  1  0
  8  9  1  0
  8 15  1  0
  9 10  1  0
  9 11  1  0
 10 16  1  0
 10 17  1  0
 10 18  1  0
 11 12  2  3
 11 19  1  0
 12 20  1  0
 12 21  1  0
M  RAD  1   9   2
M  END
>  <reaction>  (14) 
rxn_1815

>  <mol_properties>  (14) 
{"0": {"label": "*3", "atom_type": "Cs"}, "1": {"label": "*4", "atom_type": "S2s"}, "2": {"label": "*2", "atom_type": "H0"}, "7": {"label": "*0", "atom_type": "Cd"}, "8": {"label": "*1", "atom_type": "Cs"}}

>  <type>  (14) 
unop_10

>  <geom_source>  (14) 
Heuristics

$$$$

     RDKit          3D

 21 19  0  0  0  0  0  0  0  0999 V2000
    0.1294   -1.6223   -0.3968 C   0  0  0  0  0  0  0  0  0  0  0  0
    0.1294   -1.6223   -2.2074 S   0  0  0  0  0  0  0  0  0  0  0  0
    0.1294   -0.4065    0.0790 H   0  0  0  0  0  0  0  0  0  0  0  0
   -0.7913   -2.1165   -0.0909 H   0  0  0  0  0  0  0  0  0  0  0  0
    0.9737   -2.1823   -0.0003 H   0  0  0  0  0  0  0  0  0  0  0  0
    1.2997   -0.9942   -2.3738 H   0  0  0  0  0  0  0  0  0  0  0  0
    1.7539   -0.1154    2.2351 C   0  0  0  0  0  0  0  0  0  0  0  0
    0.8486    0.7827    1.8820 C   0  0  0  0  0  0  0  0  0  0  0  0
    0.1294    0.8184    0.5583 C   0  0  0  0  0  3  0  0  0  0  0  0
    0.4108    2.1283   -0.1727 C   0  0  0  0  0  0  0  0  0  0  0  0
   -1.3366    0.5450    0.7868 C   0  0  0  0  0  0  0  0  0  0  0  0
   -2.3480    1.3478    0.4940 C   0  0  0  0  0  0  0  0  0  0  0  0
    2.2343   -0.0848    3.2049 H   0  0  0  0  0  0  0  0  0  0  0  0
    2.0487   -0.9155    1.5641 H   0  0  0  0  0  0  0  0  0  0  0  0
    0.5729    1.5710    2.5793 H   0  0  0  0  0  0  0  0  0  0  0  0
   -0.0954    2.1562   -1.1390 H   0  0  0  0  0  0  0  0  0  0  0  0
    1.4819    2.2407   -0.3423 H   0  0  0  0  0  0  0  0  0  0  0  0
    0.0725    2.9863    0.4129 H   0  0  0  0  0  0  0  0  0  0  0  0
   -1.5454   -0.4126    1.2567 H   0  0  0  0  0  0  0  0  0  0  0  0
   -2.2040    2.3161    0.0301 H   0  0  0  0  0  0  0  0  0  0  0  0
   -3.3687    1.0578    0.7090 H   0  0  0  0  0  0  0  0  0  0  0  0
  1  2  1  0
  1  3  1  0
  1  4  1  0
  1  5  1  0
  2  6  1  0
  7  8  2  3
  7 13  1  0
  7 14  1  0
  8  9  1  0
  8 15  1  0
  9 10  1  0
  9 11  1  0
 10 16  1  0
 10 17  1  0
 10 18  1  0
 11 12  2  3
 11 19  1  0
 12 20  1  0
 12 21  1  0
M  RAD  1   9   2
M  END
>  <reaction>  (15) 
rxn_1815

>  <mol_properties>  (15) 
{"0": {"label": "*3", "atom_type": "Cs"}, "1": {"label": "*4", "atom_type": "S2s"}, "2": {"label": "*2", "atom_type": "H0"}, "7": {"label": "*0", "atom_type": "Cd"}, "8": {"label": "*1", "atom_type": "Cs"}}

>  <type>  (15) 
unop_11

>  <geom_source>  (15) 
Heuristics

$$$$

     RDKit          3D

 21 19  0  0  0  0  0  0  0  0999 V2000
   -0.1485   -1.8027   -0.1600 C   0  0  0  0  0  0  0  0  0  0  0  0
   -0.1485   -1.8027   -1.9706 S   0  0  0  0  0  0  0  0  0  0  0  0
   -0.1485   -0.5869    0.3158 H   0  0  0  0  0  0  0  0  0  0  0  0
   -1.0692   -2.2968    0.1460 H   0  0  0  0  0  0  0  0  0  0  0  0
    0.6958   -2.3627    0.2365 H   0  0  0  0  0  0  0  0  0  0  0  0
    1.0218   -1.1746   -2.1370 H   0  0  0  0  0  0  0  0  0  0  0  0
   -0.1170    1.2151   -1.6520 C   0  0  0  0  0  0  0  0  0  0  0  0
   -0.1485    1.5805   -0.3806 C   0  0  0  0  0  0  0  0  0  0  0  0
   -0.1485    0.6380    0.7951 C   0  0  0  0  0  3  0  0  0  0  0  0
   -1.4071    0.8275    1.6375 C   0  0  0  0  0  0  0  0  0  0  0  0
    1.1376    0.8107    1.5647 C   0  0  0  0  0  0  0  0  0  0  0  0
    1.2608    1.1771    2.8310 C   0  0  0  0  0  0  0  0  0  0  0  0
   -0.1183    1.9450   -2.4517 H   0  0  0  0  0  0  0  0  0  0  0  0
   -0.0898    0.1692   -1.9395 H   0  0  0  0  0  0  0  0  0  0  0  0
   -0.1725    2.6379   -0.1256 H   0  0  0  0  0  0  0  0  0  0  0  0
   -1.4216    0.1385    2.4836 H   0  0  0  0  0  0  0  0  0  0  0  0
   -2.2951    0.6462    1.0314 H   0  0  0  0  0  0  0  0  0  0  0  0
   -1.4700    1.8460    2.0276 H   0  0  0  0  0  0  0  0  0  0  0  0
    2.0360    0.6218    0.9830 H   0  0  0  0  0  0  0  0  0  0  0  0
    0.4039    1.3843    3.4606 H   0  0  0  0  0  0  0  0  0  0  0  0
    2.2369    1.2808    3.2877 H   0  0  0  0  0  0  0  0  0  0  0  0
  1  2  1  0
  1  3  1  0
  1  4  1  0
  1  5  1  0
  2  6  1  0
  7  8  2  3
  7 13  1  0
  7 14  1  0
  8  9  1  0
  8 15  1  0
  9 10  1  0
  9 11  1  0
 10 16  1  0
 10 17  1  0
 10 18  1  0
 11 12  2  3
 11 19  1  0
 12 20  1  0
 12 21  1  0
M  RAD  1   9   2
M  END
>  <reaction>  (16) 
rxn_1815

>  <mol_properties>  (16) 
{"0": {"label": "*3", "atom_type": "Cs"}, "1": {"label": "*4", "atom_type": "S2s"}, "2": {"label": "*2", "atom_type": "H0"}, "7": {"label": "*0", "atom_type": "Cd"}, "8": {"label": "*1", "atom_type": "Cs"}}

>  <type>  (16) 
unop_12

>  <geom_source>  (16) 
Heuristics

$$$$

     RDKit          3D

 21 19  0  0  0  0  0  0  0  0999 V2000
    3.3266    1.7882   -0.3207 S   0  0  0  0  0  0  0  0  0  0  0  0
   -0.2156   -0.0800   -0.1769 C   0  0  0  0  0  3  0  0  0  0  0  0
    0.4149   -0.5411   -1.4943 C   0  0  0  0  0  0  0  0  0  0  0  0
   -1.6156    0.4404   -0.3970 C   0  0  0  0  0  0  0  0  0  0  0  0
   -0.2003   -1.1895    0.8486 C   0  0  0  0  0  0  0  0  0  0  0  0
   -2.2490    1.1434    0.5458 C   0  0  0  0  0  0  0  0  0  0  0  0
   -0.8976   -2.3221    0.6997 C   0  0  0  0  0  0  0  0  0  0  0  0
    1.7115    1.5352    0.4661 C   0  0  0  0  0  0  0  0  0  0  0  0
    0.5474    0.9422    0.2953 H   0  0  0  0  0  0  0  0  0  0  0  0
    1.4488   -0.9044   -1.3127 H   0  0  0  0  0  0  0  0  0  0  0  0
   -0.1785   -1.3578   -1.9587 H   0  0  0  0  0  0  0  0  0  0  0  0
    0.4668    0.3110   -2.2048 H   0  0  0  0  0  0  0  0  0  0  0  0
   -2.1226    0.2535   -1.3401 H   0  0  0  0  0  0  0  0  0  0  0  0
    0.3968   -1.0552    1.7452 H   0  0  0  0  0  0  0  0  0  0  0  0
   -3.2536    1.5121    0.3657 H   0  0  0  0  0  0  0  0  0  0  0  0
   -1.7734    1.3543    1.4989 H   0  0  0  0  0  0  0  0  0  0  0  0
   -1.5141   -2.4901   -0.1779 H   0  0  0  0  0  0  0  0  0  0  0  0
   -0.8564   -3.0890    1.4662 H   0  0  0  0  0  0  0  0  0  0  0  0
    1.8130    0.8088    1.2987 H   0  0  0  0  0  0  0  0  0  0  0  0
    1.3393    2.5016    0.8638 H   0  0  0  0  0  0  0  0  0  0  0  0
    3.4117    0.4385   -0.7108 H   0  0  0  0  0  0  0  0  0  0  0  0
  1  8  1  0
  1 21  1  0
  2  3  1  0
  2  4  1  0
  2  5  1  0
  3 10  1  0
  3 11  1  0
  3 12  1  0
  4  6  2  3
  4 13  1  0
  5  7  2  3
  5 14  1  0
  6 15  1  0
  6 16  1  0
  7 17  1  0
  7 18  1  0
  8  9  1  0
  8 19  1  0
  8 20  1  0
M  RAD  1   2   2
M  END
>  <reaction>  (17) 
rxn_1815

>  <mol_properties>  (17) 
{"0": {"label": "*3", "atom_type": "Cs"}, "1": {"label": "*4", "atom_type": "S2s"}, "2": {"label": "*2", "atom_type": "H0"}, "7": {"label": "*0", "atom_type": "Cd"}, "8": {"label": "*1", "atom_type": "Cs"}}

>  <type>  (17) 
unop_13

>  <geom_source>  (17) 
AutoTST

$$$$
