
     RDKit          3D

  9  8  0  0  0  0  0  0  0  0999 V2000
   -2.1022   -0.6873    0.3932 C   0  0  0  0  0  0  0  0  0  0  0  0
   -1.2072   -0.1086   -0.1482 C   0  0  0  0  0  0  0  0  0  0  0  0
   -0.1242    0.6105   -0.8193 C   0  0  0  0  0  0  0  0  0  0  0  0
    1.2067    0.1106   -0.4741 C   0  0  0  0  0  0  0  0  0  0  0  0
    2.3005   -0.2875   -0.2012 C   0  0  0  0  0  0  0  0  0  0  0  0
   -2.8942   -1.2059    0.8778 H   0  0  0  0  0  0  0  0  0  0  0  0
   -0.1862    1.6723   -0.5649 H   0  0  0  0  0  0  0  0  0  0  0  0
   -0.2641    0.5418   -1.9017 H   0  0  0  0  0  0  0  0  0  0  0  0
    3.2709   -0.6459    0.0455 H   0  0  0  0  0  0  0  0  0  0  0  0
  1  2  3  0
  1  6  1  0
  2  3  1  0
  3  4  1  0
  3  7  1  0
  3  8  1  0
  4  5  3  0
  5  9  1  0
M  END
>  <reaction>  (1) 
rxn_1371

>  <mol_properties>  (1) 
{"2": {"label": "donator", "atom_type": "Cs"}, "6": {"label": "d_hydrogen", "atom_type": "H0"}}

>  <type>  (1) 
r1h

$$$$

     RDKit          3D

  9  8  0  0  0  0  0  0  0  0999 V2000
   -1.2704   -0.1236    0.1096 C   0  0  0  0  0  0  0  0  0  0  0  0
    0.0713   -0.5323    0.5887 C   0  0  0  0  0  0  0  0  0  0  0  0
    0.9521   -1.3639   -0.0464 C   0  0  0  0  0  0  0  0  0  0  0  0
    0.6900   -2.1109   -1.5335 S   0  0  0  0  0  1  0  0  0  0  0  0
   -1.3201    0.9657    0.0241 H   0  0  0  0  0  0  0  0  0  0  0  0
   -1.5103   -0.5706   -0.8526 H   0  0  0  0  0  0  0  0  0  0  0  0
   -2.0312   -0.4112    0.8411 H   0  0  0  0  0  0  0  0  0  0  0  0
    0.3863   -0.1265    1.5468 H   0  0  0  0  0  0  0  0  0  0  0  0
    1.8971   -1.5543    0.4552 H   0  0  0  0  0  0  0  0  0  0  0  0
  1  2  1  0
  1  5  1  0
  1  6  1  0
  1  7  1  0
  2  3  2  3
  2  8  1  0
  3  4  1  0
  3  9  1  0
M  RAD  1   4   2
M  END
>  <reaction>  (2) 
rxn_1371

>  <mol_properties>  (2) 
{"1": {"label": "acceptor", "atom_type": "Cs"}}

>  <type>  (2) 
r2

$$$$

     RDKit          3D

 10  9  0  0  0  0  0  0  0  0999 V2000
   -1.1508    0.0666    0.2839 C   0  0  0  0  0  0  0  0  0  0  0  0
    0.1022   -0.3749   -0.4771 C   0  0  0  0  0  0  0  0  0  0  0  0
    1.3428    0.1620    0.1542 C   0  0  0  0  0  0  0  0  0  0  0  0
    2.5613   -0.6971    0.7526 S   0  0  0  0  0  0  0  0  0  0  0  0
   -1.2137    1.1546    0.3481 H   0  0  0  0  0  0  0  0  0  0  0  0
   -2.0472   -0.2935   -0.2212 H   0  0  0  0  0  0  0  0  0  0  0  0
   -1.1467   -0.3334    1.2987 H   0  0  0  0  0  0  0  0  0  0  0  0
    0.1602   -1.4616   -0.5369 H   0  0  0  0  0  0  0  0  0  0  0  0
    0.0536    0.0174   -1.4997 H   0  0  0  0  0  0  0  0  0  0  0  0
    1.3824    1.2528    0.2110 H   0  0  0  0  0  0  0  0  0  0  0  0
  1  2  1  0
  1  5  1  0
  1  6  1  0
  1  7  1  0
  2  3  1  0
  2  8  1  0
  2  9  1  0
  3  4  2  0
  3 10  1  0
M  END
>  <reaction>  (3) 
rxn_1371

>  <mol_properties>  (3) 
{"0": {"label": "a_hydrogen", "atom_type": "H0"}, "2": {"label": "acceptor", "atom_type": "Cs"}}

>  <type>  (3) 
r2h

$$$$

     RDKit          3D

 18 16  0  0  0  0  0  0  0  0999 V2000
   -2.9049    0.7292   -0.4981 C   0  0  0  0  0  0  0  0  0  0  0  0
   -2.0073   -0.0681   -0.5088 C   0  0  0  0  0  0  0  0  0  0  0  0
   -0.9035   -0.9695   -0.5075 C   0  0  0  0  0  3  0  0  0  0  0  0
   -0.9737   -2.1293    0.3148 C   0  0  0  0  0  0  0  0  0  0  0  0
   -0.9433   -3.0652    1.0663 C   0  0  0  0  0  0  0  0  0  0  0  0
   -3.7108    1.4233   -0.4882 H   0  0  0  0  0  0  0  0  0  0  0  0
    0.1352   -0.2781    0.1119 H   0  0  0  0  0  0  0  0  0  0  0  0
   -0.4514   -1.1306   -1.4845 H   0  0  0  0  0  0  0  0  0  0  0  0
   -0.9424   -3.9001    1.7256 H   0  0  0  0  0  0  0  0  0  0  0  0
    0.4495    1.7958    0.8439 C   0  0  0  0  0  0  0  0  0  0  0  0
    1.0779    0.4364    0.7091 C   0  0  0  0  0  0  0  0  0  0  0  0
    1.3435   -0.3800    1.8631 C   0  0  0  0  0  0  0  0  0  0  0  0
    0.7165   -0.1750    3.3569 S   0  0  0  0  0  0  0  0  0  0  0  0
   -0.4294    1.7580    1.4864 H   0  0  0  0  0  0  0  0  0  0  0  0
    1.1577    2.4967    1.2923 H   0  0  0  0  0  0  0  0  0  0  0  0
    0.1557    2.1817   -0.1324 H   0  0  0  0  0  0  0  0  0  0  0  0
    1.8459    0.3578   -0.0612 H   0  0  0  0  0  0  0  0  0  0  0  0
    1.9921   -1.2359    1.6810 H   0  0  0  0  0  0  0  0  0  0  0  0
  1  2  3  0
  1  6  1  0
  2  3  1  0
  3  4  1  0
  3  8  1  0
  4  5  3  0
  5  9  1  0
  7 11  1  0
 10 11  1  0
 10 14  1  0
 10 15  1  0
 10 16  1  0
 11 12  1  0
 11 17  1  0
 12 13  2  0
 12 18  1  0
M  RAD  1   3   2
M  END
>  <reaction>  (4) 
rxn_1371

>  <mol_properties>  (4) 
{"1": {"label": "*4", "atom_type": "Ct"}, "2": {"label": "*3", "atom_type": "Cs"}, "6": {"label": "*2", "atom_type": "H0"}, "10": {"label": "*1", "atom_type": "Cs"}, "11": {"label": "*0", "atom_type": "CS"}}

>  <type>  (4) 
ts

$$$$

     RDKit          3D

 18 16  0  0  0  0  0  0  0  0999 V2000
   -0.4882   -0.4027   -3.1890 C   0  0  0  0  0  0  0  0  0  0  0  0
   -0.4882   -0.4027   -1.9935 C   0  0  0  0  0  0  0  0  0  0  0  0
   -0.4882   -0.4027   -0.5305 C   0  0  0  0  0  3  0  0  0  0  0  0
   -1.8022   -0.1271    0.0506 C   0  0  0  0  0  0  0  0  0  0  0  0
   -2.8760    0.0981    0.5255 C   0  0  0  0  0  0  0  0  0  0  0  0
   -0.4882   -0.4027   -4.2525 H   0  0  0  0  0  0  0  0  0  0  0  0
    0.3699    0.4917   -0.0995 H   0  0  0  0  0  0  0  0  0  0  0  0
   -0.1329   -1.3726   -0.1713 H   0  0  0  0  0  0  0  0  0  0  0  0
   -3.8312    0.2984    0.9480 H   0  0  0  0  0  0  0  0  0  0  0  0
    0.5281    2.4446    1.1853 C   0  0  0  0  0  0  0  0  0  0  0  0
    1.2251    1.3830    0.3301 C   0  0  0  0  0  0  0  0  0  0  0  0
    1.5506    0.1653    1.1282 C   0  0  0  0  0  0  0  0  0  0  0  0
    1.0233   -1.3275    0.8551 S   0  0  0  0  0  0  0  0  0  0  0  0
   -0.4301    2.0754    1.5530 H   0  0  0  0  0  0  0  0  0  0  0  0
    1.1377    2.7234    2.0470 H   0  0  0  0  0  0  0  0  0  0  0  0
    0.3446    3.3439    0.5973 H   0  0  0  0  0  0  0  0  0  0  0  0
    2.1685    1.7942   -0.0477 H   0  0  0  0  0  0  0  0  0  0  0  0
    2.2030    0.3507    1.9853 H   0  0  0  0  0  0  0  0  0  0  0  0
  1  2  3  0
  1  6  1  0
  2  3  1  0
  3  4  1  0
  3  8  1  0
  4  5  3  0
  5  9  1  0
  7 11  1  0
 10 11  1  0
 10 14  1  0
 10 15  1  0
 10 16  1  0
 11 12  1  0
 11 17  1  0
 12 13  2  0
 12 18  1  0
M  RAD  1   3   2
M  END
>  <reaction>  (5) 
rxn_1371

>  <mol_properties>  (5) 
{"1": {"label": "*4", "atom_type": "Ct"}, "2": {"label": "*3", "atom_type": "Cs"}, "6": {"label": "*2", "atom_type": "H0"}, "10": {"label": "*1", "atom_type": "Cs"}, "11": {"label": "*0", "atom_type": "CS"}}

>  <type>  (5) 
unop_1

>  <geom_source>  (5) 
Heuristics

$$$$

     RDKit          3D

 18 16  0  0  0  0  0  0  0  0999 V2000
   -0.0151   -1.1294   -3.2898 C   0  0  0  0  0  0  0  0  0  0  0  0
   -0.0151   -1.1294   -2.0943 C   0  0  0  0  0  0  0  0  0  0  0  0
   -0.0151   -1.1294   -0.6313 C   0  0  0  0  0  3  0  0  0  0  0  0
   -1.3291   -0.8538   -0.0502 C   0  0  0  0  0  0  0  0  0  0  0  0
   -2.4028   -0.6286    0.4247 C   0  0  0  0  0  0  0  0  0  0  0  0
   -0.0151   -1.1294   -4.3533 H   0  0  0  0  0  0  0  0  0  0  0  0
    0.8431   -0.2350   -0.2003 H   0  0  0  0  0  0  0  0  0  0  0  0
    0.3403   -2.0993   -0.2722 H   0  0  0  0  0  0  0  0  0  0  0  0
   -3.3580   -0.4282    0.8472 H   0  0  0  0  0  0  0  0  0  0  0  0
    1.8228    1.8185   -0.7597 C   0  0  0  0  0  0  0  0  0  0  0  0
    1.6983    0.6564    0.2293 C   0  0  0  0  0  0  0  0  0  0  0  0
    0.8958    1.0412    1.4267 C   0  0  0  0  0  0  0  0  0  0  0  0
   -0.4728    0.3602    1.9211 S   0  0  0  0  0  0  0  0  0  0  0  0
    0.8434    2.1018   -1.1472 H   0  0  0  0  0  0  0  0  0  0  0  0
    2.2678    2.6962   -0.2871 H   0  0  0  0  0  0  0  0  0  0  0  0
    2.4535    1.5331   -1.6018 H   0  0  0  0  0  0  0  0  0  0  0  0
    2.6997    0.3765    0.5767 H   0  0  0  0  0  0  0  0  0  0  0  0
    1.3038    1.8848    1.9890 H   0  0  0  0  0  0  0  0  0  0  0  0
  1  2  3  0
  1  6  1  0
  2  3  1  0
  3  4  1  0
  3  8  1  0
  4  5  3  0
  5  9  1  0
  7 11  1  0
 10 11  1  0
 10 14  1  0
 10 15  1  0
 10 16  1  0
 11 12  1  0
 11 17  1  0
 12 13  2  0
 12 18  1  0
M  RAD  1   3   2
M  END
>  <reaction>  (6) 
rxn_1371

>  <mol_properties>  (6) 
{"1": {"label": "*4", "atom_type": "Ct"}, "2": {"label": "*3", "atom_type": "Cs"}, "6": {"label": "*2", "atom_type": "H0"}, "10": {"label": "*1", "atom_type": "Cs"}, "11": {"label": "*0", "atom_type": "CS"}}

>  <type>  (6) 
unop_2

>  <geom_source>  (6) 
Heuristics

$$$$

     RDKit          3D

 18 16  0  0  0  0  0  0  0  0999 V2000
   -0.7898   -0.3702   -2.9833 C   0  0  0  0  0  0  0  0  0  0  0  0
   -0.7898   -0.3702   -1.7878 C   0  0  0  0  0  0  0  0  0  0  0  0
   -0.7898   -0.3702   -0.3248 C   0  0  0  0  0  3  0  0  0  0  0  0
   -2.1038   -0.0946    0.2564 C   0  0  0  0  0  0  0  0  0  0  0  0
   -3.1775    0.1306    0.7313 C   0  0  0  0  0  0  0  0  0  0  0  0
   -0.7898   -0.3702   -4.0468 H   0  0  0  0  0  0  0  0  0  0  0  0
    0.0684    0.5242    0.1062 H   0  0  0  0  0  0  0  0  0  0  0  0
   -0.4344   -1.3401    0.0344 H   0  0  0  0  0  0  0  0  0  0  0  0
   -4.1327    0.3309    1.1537 H   0  0  0  0  0  0  0  0  0  0  0  0
    0.4851    1.9909    1.8852 C   0  0  0  0  0  0  0  0  0  0  0  0
    0.9236    1.4155    0.5358 C   0  0  0  0  0  0  0  0  0  0  0  0
    1.8650    0.2711    0.7093 C   0  0  0  0  0  0  0  0  0  0  0  0
    1.6410   -1.2376    0.2048 S   0  0  0  0  0  0  0  0  0  0  0  0
   -0.0674    1.2469    2.4605 H   0  0  0  0  0  0  0  0  0  0  0  0
    1.3440    2.3097    2.4789 H   0  0  0  0  0  0  0  0  0  0  0  0
   -0.1612    2.8559    1.7361 H   0  0  0  0  0  0  0  0  0  0  0  0
    1.4487    2.1946   -0.0290 H   0  0  0  0  0  0  0  0  0  0  0  0
    2.7800    0.5203    1.2525 H   0  0  0  0  0  0  0  0  0  0  0  0
  1  2  3  0
  1  6  1  0
  2  3  1  0
  3  4  1  0
  3  8  1  0
  4  5  3  0
  5  9  1  0
  7 11  1  0
 10 11  1  0
 10 14  1  0
 10 15  1  0
 10 16  1  0
 11 12  1  0
 11 17  1  0
 12 13  2  0
 12 18  1  0
M  RAD  1   3   2
M  END
>  <reaction>  (7) 
rxn_1371

>  <mol_properties>  (7) 
{"1": {"label": "*4", "atom_type": "Ct"}, "2": {"label": "*3", "atom_type": "Cs"}, "6": {"label": "*2", "atom_type": "H0"}, "10": {"label": "*1", "atom_type": "Cs"}, "11": {"label": "*0", "atom_type": "CS"}}

>  <type>  (7) 
unop_3

>  <geom_source>  (7) 
Heuristics

$$$$

     RDKit          3D

 18 16  0  0  0  0  0  0  0  0999 V2000
   -0.4389   -1.6963   -2.7735 C   0  0  0  0  0  0  0  0  0  0  0  0
   -0.4389   -1.6963   -1.5780 C   0  0  0  0  0  0  0  0  0  0  0  0
   -0.4389   -1.6963   -0.1150 C   0  0  0  0  0  3  0  0  0  0  0  0
   -1.7529   -1.4207    0.4661 C   0  0  0  0  0  0  0  0  0  0  0  0
   -2.8266   -1.1955    0.9410 C   0  0  0  0  0  0  0  0  0  0  0  0
   -0.4389   -1.6963   -3.8370 H   0  0  0  0  0  0  0  0  0  0  0  0
    0.4193   -0.8019    0.3160 H   0  0  0  0  0  0  0  0  0  0  0  0
   -0.0835   -2.6661    0.2442 H   0  0  0  0  0  0  0  0  0  0  0  0
   -3.7818   -0.9951    1.3635 H   0  0  0  0  0  0  0  0  0  0  0  0
    2.6890   -0.2242    0.2507 C   0  0  0  0  0  0  0  0  0  0  0  0
    1.2745    0.0895    0.7456 C   0  0  0  0  0  0  0  0  0  0  0  0
    1.1042    1.5445    1.0279 C   0  0  0  0  0  0  0  0  0  0  0  0
    0.0543    2.5390    0.3280 S   0  0  0  0  0  0  0  0  0  0  0  0
    2.8866    0.2789   -0.6966 H   0  0  0  0  0  0  0  0  0  0  0  0
    3.4427    0.0999    0.9709 H   0  0  0  0  0  0  0  0  0  0  0  0
    2.8077   -1.2971    0.0986 H   0  0  0  0  0  0  0  0  0  0  0  0
    1.0968   -0.4532    1.6814 H   0  0  0  0  0  0  0  0  0  0  0  0
    1.7911    1.9397    1.7806 H   0  0  0  0  0  0  0  0  0  0  0  0
  1  2  3  0
  1  6  1  0
  2  3  1  0
  3  4  1  0
  3  8  1  0
  4  5  3  0
  5  9  1  0
  7 11  1  0
 10 11  1  0
 10 14  1  0
 10 15  1  0
 10 16  1  0
 11 12  1  0
 11 17  1  0
 12 13  2  0
 12 18  1  0
M  RAD  1   3   2
M  END
>  <reaction>  (8) 
rxn_1371

>  <mol_properties>  (8) 
{"1": {"label": "*4", "atom_type": "Ct"}, "2": {"label": "*3", "atom_type": "Cs"}, "6": {"label": "*2", "atom_type": "H0"}, "10": {"label": "*1", "atom_type": "Cs"}, "11": {"label": "*0", "atom_type": "CS"}}

>  <type>  (8) 
unop_4

>  <geom_source>  (8) 
Heuristics

$$$$

     RDKit          3D

 18 16  0  0  0  0  0  0  0  0999 V2000
   -1.1180   -0.6576   -2.6606 C   0  0  0  0  0  0  0  0  0  0  0  0
   -1.1180   -0.6576   -1.4651 C   0  0  0  0  0  0  0  0  0  0  0  0
   -1.1180   -0.6576   -0.0021 C   0  0  0  0  0  3  0  0  0  0  0  0
   -2.4320   -0.3820    0.5790 C   0  0  0  0  0  0  0  0  0  0  0  0
   -3.5058   -0.1568    1.0539 C   0  0  0  0  0  0  0  0  0  0  0  0
   -1.1180   -0.6576   -3.7241 H   0  0  0  0  0  0  0  0  0  0  0  0
   -0.2599    0.2368    0.4289 H   0  0  0  0  0  0  0  0  0  0  0  0
   -0.7626   -1.6275    0.3571 H   0  0  0  0  0  0  0  0  0  0  0  0
   -4.4610    0.0436    1.4764 H   0  0  0  0  0  0  0  0  0  0  0  0
    0.6291    1.1633    2.3888 C   0  0  0  0  0  0  0  0  0  0  0  0
    0.5954    1.1282    0.8585 C   0  0  0  0  0  0  0  0  0  0  0  0
    1.9451    0.8474    0.2882 C   0  0  0  0  0  0  0  0  0  0  0  0
    2.3517   -0.3992   -0.6401 S   0  0  0  0  0  0  0  0  0  0  0  0
    0.9159    0.1907    2.7906 H   0  0  0  0  0  0  0  0  0  0  0  0
    1.3424    1.9050    2.7533 H   0  0  0  0  0  0  0  0  0  0  0  0
   -0.3543    1.4191    2.7834 H   0  0  0  0  0  0  0  0  0  0  0  0
    0.2757    2.1089    0.4874 H   0  0  0  0  0  0  0  0  0  0  0  0
    2.7106    1.5767    0.5651 H   0  0  0  0  0  0  0  0  0  0  0  0
  1  2  3  0
  1  6  1  0
  2  3  1  0
  3  4  1  0
  3  8  1  0
  4  5  3  0
  5  9  1  0
  7 11  1  0
 10 11  1  0
 10 14  1  0
 10 15  1  0
 10 16  1  0
 11 12  1  0
 11 17  1  0
 12 13  2  0
 12 18  1  0
M  RAD  1   3   2
M  END
>  <reaction>  (9) 
rxn_1371

>  <mol_properties>  (9) 
{"1": {"label": "*4", "atom_type": "Ct"}, "2": {"label": "*3", "atom_type": "Cs"}, "6": {"label": "*2", "atom_type": "H0"}, "10": {"label": "*1", "atom_type": "Cs"}, "11": {"label": "*0", "atom_type": "CS"}}

>  <type>  (9) 
unop_5

>  <geom_source>  (9) 
Heuristics

$$$$

     RDKit          3D

 18 16  0  0  0  0  0  0  0  0999 V2000
   -0.6427   -1.6595   -2.6157 C   0  0  0  0  0  0  0  0  0  0  0  0
   -0.6427   -1.6595   -1.4202 C   0  0  0  0  0  0  0  0  0  0  0  0
   -0.6427   -1.6595    0.0428 C   0  0  0  0  0  3  0  0  0  0  0  0
   -1.9567   -1.3839    0.6239 C   0  0  0  0  0  0  0  0  0  0  0  0
   -3.0305   -1.1587    1.0988 C   0  0  0  0  0  0  0  0  0  0  0  0
   -0.6427   -1.6595   -3.6792 H   0  0  0  0  0  0  0  0  0  0  0  0
    0.2155   -0.7651    0.4738 H   0  0  0  0  0  0  0  0  0  0  0  0
   -0.2873   -2.6293    0.4020 H   0  0  0  0  0  0  0  0  0  0  0  0
   -3.9856   -0.9583    1.5213 H   0  0  0  0  0  0  0  0  0  0  0  0
    2.4609   -0.4894    1.0836 C   0  0  0  0  0  0  0  0  0  0  0  0
    1.0707    0.1263    0.9034 C   0  0  0  0  0  0  0  0  0  0  0  0
    1.1365    1.6154    0.8387 C   0  0  0  0  0  0  0  0  0  0  0  0
    0.6620    2.5424   -0.3847 S   0  0  0  0  0  0  0  0  0  0  0  0
    3.0961   -0.2652    0.2257 H   0  0  0  0  0  0  0  0  0  0  0  0
    2.9523   -0.1051    1.9795 H   0  0  0  0  0  0  0  0  0  0  0  0
    2.3858   -1.5727    1.1788 H   0  0  0  0  0  0  0  0  0  0  0  0
    0.4489   -0.1414    1.7657 H   0  0  0  0  0  0  0  0  0  0  0  0
    1.5713    2.0849    1.7247 H   0  0  0  0  0  0  0  0  0  0  0  0
  1  2  3  0
  1  6  1  0
  2  3  1  0
  3  4  1  0
  3  8  1  0
  4  5  3  0
  5  9  1  0
  7 11  1  0
 10 11  1  0
 10 14  1  0
 10 15  1  0
 10 16  1  0
 11 12  1  0
 11 17  1  0
 12 13  2  0
 12 18  1  0
M  RAD  1   3   2
M  END
>  <reaction>  (10) 
rxn_1371

>  <mol_properties>  (10) 
{"1": {"label": "*4", "atom_type": "Ct"}, "2": {"label": "*3", "atom_type": "Cs"}, "6": {"label": "*2", "atom_type": "H0"}, "10": {"label": "*1", "atom_type": "Cs"}, "11": {"label": "*0", "atom_type": "CS"}}

>  <type>  (10) 
unop_6

>  <geom_source>  (10) 
Heuristics

$$$$

     RDKit          3D

 18 16  0  0  0  0  0  0  0  0999 V2000
   -0.8641   -1.5124   -2.4888 C   0  0  0  0  0  0  0  0  0  0  0  0
   -0.8641   -1.5124   -1.2933 C   0  0  0  0  0  0  0  0  0  0  0  0
   -0.8641   -1.5124    0.1697 C   0  0  0  0  0  3  0  0  0  0  0  0
   -2.1781   -1.2368    0.7508 C   0  0  0  0  0  0  0  0  0  0  0  0
   -3.2519   -1.0116    1.2257 C   0  0  0  0  0  0  0  0  0  0  0  0
   -0.8641   -1.5124   -3.5523 H   0  0  0  0  0  0  0  0  0  0  0  0
   -0.0060   -0.6180    0.6007 H   0  0  0  0  0  0  0  0  0  0  0  0
   -0.5087   -2.4823    0.5289 H   0  0  0  0  0  0  0  0  0  0  0  0
   -4.2071   -0.8113    1.6482 H   0  0  0  0  0  0  0  0  0  0  0  0
    1.9387   -0.3792    1.8855 C   0  0  0  0  0  0  0  0  0  0  0  0
    0.8493    0.2733    1.0303 C   0  0  0  0  0  0  0  0  0  0  0  0
    1.2596    1.6298    0.5638 C   0  0  0  0  0  0  0  0  0  0  0  0
    1.4136    2.1117   -0.9611 S   0  0  0  0  0  0  0  0  0  0  0  0
    2.8456   -0.5369    1.3003 H   0  0  0  0  0  0  0  0  0  0  0  0
    2.1938    0.2426    2.7459 H   0  0  0  0  0  0  0  0  0  0  0  0
    1.5999   -1.3462    2.2573 H   0  0  0  0  0  0  0  0  0  0  0  0
   -0.0562    0.3908    1.6370 H   0  0  0  0  0  0  0  0  0  0  0  0
    1.4845    2.3332    1.3695 H   0  0  0  0  0  0  0  0  0  0  0  0
  1  2  3  0
  1  6  1  0
  2  3  1  0
  3  4  1  0
  3  8  1  0
  4  5  3  0
  5  9  1  0
  7 11  1  0
 10 11  1  0
 10 14  1  0
 10 15  1  0
 10 16  1  0
 11 12  1  0
 11 17  1  0
 12 13  2  0
 12 18  1  0
M  RAD  1   3   2
M  END
>  <reaction>  (11) 
rxn_1371

>  <mol_properties>  (11) 
{"1": {"label": "*4", "atom_type": "Ct"}, "2": {"label": "*3", "atom_type": "Cs"}, "6": {"label": "*2", "atom_type": "H0"}, "10": {"label": "*1", "atom_type": "Cs"}, "11": {"label": "*0", "atom_type": "CS"}}

>  <type>  (11) 
unop_7

>  <geom_source>  (11) 
Heuristics

$$$$

     RDKit          3D

 18 16  0  0  0  0  0  0  0  0999 V2000
   -0.2650   -0.5644   -3.3098 C   0  0  0  0  0  0  0  0  0  0  0  0
   -0.2650   -0.5644   -2.1143 C   0  0  0  0  0  0  0  0  0  0  0  0
   -0.2650   -0.5644   -0.6513 C   0  0  0  0  0  3  0  0  0  0  0  0
   -1.5791   -0.2888   -0.0701 C   0  0  0  0  0  0  0  0  0  0  0  0
   -2.6528   -0.0636    0.4048 C   0  0  0  0  0  0  0  0  0  0  0  0
   -0.2650   -0.5644   -4.3733 H   0  0  0  0  0  0  0  0  0  0  0  0
    0.5931    0.3300   -0.2202 H   0  0  0  0  0  0  0  0  0  0  0  0
    0.0903   -1.5343   -0.2921 H   0  0  0  0  0  0  0  0  0  0  0  0
   -3.6080    0.1368    0.8272 H   0  0  0  0  0  0  0  0  0  0  0  0
    0.7756    2.5849    0.3895 C   0  0  0  0  0  0  0  0  0  0  0  0
    1.4483    1.2214    0.2093 C   0  0  0  0  0  0  0  0  0  0  0  0
    1.2356    0.3454    1.3982 C   0  0  0  0  0  0  0  0  0  0  0  0
    0.5009   -1.0832    1.4155 S   0  0  0  0  0  0  0  0  0  0  0  0
   -0.3059    2.4729    0.4761 H   0  0  0  0  0  0  0  0  0  0  0  0
    1.1375    3.0907    1.2867 H   0  0  0  0  0  0  0  0  0  0  0  0
    0.9849    3.2265   -0.4665 H   0  0  0  0  0  0  0  0  0  0  0  0
    2.5285    1.3702    0.0957 H   0  0  0  0  0  0  0  0  0  0  0  0
    1.6178    0.7586    2.3350 H   0  0  0  0  0  0  0  0  0  0  0  0
  1  2  3  0
  1  6  1  0
  2  3  1  0
  3  4  1  0
  3  8  1  0
  4  5  3  0
  5  9  1  0
  7 11  1  0
 10 11  1  0
 10 14  1  0
 10 15  1  0
 10 16  1  0
 11 12  1  0
 11 17  1  0
 12 13  2  0
 12 18  1  0
M  RAD  1   3   2
M  END
>  <reaction>  (12) 
rxn_1371

>  <mol_properties>  (12) 
{"1": {"label": "*4", "atom_type": "Ct"}, "2": {"label": "*3", "atom_type": "Cs"}, "6": {"label": "*2", "atom_type": "H0"}, "10": {"label": "*1", "atom_type": "Cs"}, "11": {"label": "*0", "atom_type": "CS"}}

>  <type>  (12) 
unop_8

>  <geom_source>  (12) 
Heuristics

$$$$

     RDKit          3D

 18 16  0  0  0  0  0  0  0  0999 V2000
   -0.2376   -1.6298   -2.9499 C   0  0  0  0  0  0  0  0  0  0  0  0
   -0.2376   -1.6298   -1.7544 C   0  0  0  0  0  0  0  0  0  0  0  0
   -0.2376   -1.6298   -0.2914 C   0  0  0  0  0  3  0  0  0  0  0  0
   -1.5516   -1.3542    0.2898 C   0  0  0  0  0  0  0  0  0  0  0  0
   -2.6254   -1.1290    0.7647 C   0  0  0  0  0  0  0  0  0  0  0  0
   -0.2376   -1.6298   -4.0133 H   0  0  0  0  0  0  0  0  0  0  0  0
    0.6205   -0.7354    0.1397 H   0  0  0  0  0  0  0  0  0  0  0  0
    0.1178   -2.5997    0.0678 H   0  0  0  0  0  0  0  0  0  0  0  0
   -3.5806   -0.9287    1.1872 H   0  0  0  0  0  0  0  0  0  0  0  0
    2.6317    0.3285   -0.4198 C   0  0  0  0  0  0  0  0  0  0  0  0
    1.4758    0.1559    0.5692 C   0  0  0  0  0  0  0  0  0  0  0  0
    1.0557    1.4633    1.1526 C   0  0  0  0  0  0  0  0  0  0  0  0
   -0.3972    2.1395    1.0393 S   0  0  0  0  0  0  0  0  0  0  0  0
    2.3241    0.9387   -1.2699 H   0  0  0  0  0  0  0  0  0  0  0  0
    3.4894    0.8115    0.0522 H   0  0  0  0  0  0  0  0  0  0  0  0
    2.9563   -0.6418   -0.7958 H   0  0  0  0  0  0  0  0  0  0  0  0
    1.8069   -0.4848    1.3948 H   0  0  0  0  0  0  0  0  0  0  0  0
    1.8477    1.9909    1.6900 H   0  0  0  0  0  0  0  0  0  0  0  0
  1  2  3  0
  1  6  1  0
  2  3  1  0
  3  4  1  0
  3  8  1  0
  4  5  3  0
  5  9  1  0
  7 11  1  0
 10 11  1  0
 10 14  1  0
 10 15  1  0
 10 16  1  0
 11 12  1  0
 11 17  1  0
 12 13  2  0
 12 18  1  0
M  RAD  1   3   2
M  END
>  <reaction>  (13) 
rxn_1371

>  <mol_properties>  (13) 
{"1": {"label": "*4", "atom_type": "Ct"}, "2": {"label": "*3", "atom_type": "Cs"}, "6": {"label": "*2", "atom_type": "H0"}, "10": {"label": "*1", "atom_type": "Cs"}, "11": {"label": "*0", "atom_type": "CS"}}

>  <type>  (13) 
unop_9

>  <geom_source>  (13) 
Heuristics

$$$$

     RDKit          3D

 18 16  0  0  0  0  0  0  0  0999 V2000
   -0.0965   -0.8149   -3.3497 C   0  0  0  0  0  0  0  0  0  0  0  0
   -0.0965   -0.8149   -2.1542 C   0  0  0  0  0  0  0  0  0  0  0  0
   -0.0965   -0.8149   -0.6912 C   0  0  0  0  0  3  0  0  0  0  0  0
   -1.4105   -0.5393   -0.1101 C   0  0  0  0  0  0  0  0  0  0  0  0
   -2.4842   -0.3141    0.3648 C   0  0  0  0  0  0  0  0  0  0  0  0
   -0.0965   -0.8149   -4.4132 H   0  0  0  0  0  0  0  0  0  0  0  0
    0.7617    0.0795   -0.2602 H   0  0  0  0  0  0  0  0  0  0  0  0
    0.2589   -1.7847   -0.3320 H   0  0  0  0  0  0  0  0  0  0  0  0
   -3.4394   -0.1137    0.7873 H   0  0  0  0  0  0  0  0  0  0  0  0
    1.2449    2.3712   -0.3255 C   0  0  0  0  0  0  0  0  0  0  0  0
    1.6169    0.9709    0.1694 C   0  0  0  0  0  0  0  0  0  0  0  0
    0.9938    0.6751    1.4923 C   0  0  0  0  0  0  0  0  0  0  0  0
   -0.0318   -0.5166    1.8225 S   0  0  0  0  0  0  0  0  0  0  0  0
    0.1693    2.4495   -0.4887 H   0  0  0  0  0  0  0  0  0  0  0  0
    1.5354    3.1374    0.3958 H   0  0  0  0  0  0  0  0  0  0  0  0
    1.7497    2.5865   -1.2673 H   0  0  0  0  0  0  0  0  0  0  0  0
    2.7045    0.9155    0.2950 H   0  0  0  0  0  0  0  0  0  0  0  0
    1.2756    1.3702    2.2873 H   0  0  0  0  0  0  0  0  0  0  0  0
  1  2  3  0
  1  6  1  0
  2  3  1  0
  3  4  1  0
  3  8  1  0
  4  5  3  0
  5  9  1  0
  7 11  1  0
 10 11  1  0
 10 14  1  0
 10 15  1  0
 10 16  1  0
 11 12  1  0
 11 17  1  0
 12 13  2  0
 12 18  1  0
M  RAD  1   3   2
M  END
>  <reaction>  (14) 
rxn_1371

>  <mol_properties>  (14) 
{"1": {"label": "*4", "atom_type": "Ct"}, "2": {"label": "*3", "atom_type": "Cs"}, "6": {"label": "*2", "atom_type": "H0"}, "10": {"label": "*1", "atom_type": "Cs"}, "11": {"label": "*0", "atom_type": "CS"}}

>  <type>  (14) 
unop_10

>  <geom_source>  (14) 
Heuristics

$$$$

     RDKit          3D

 18 16  0  0  0  0  0  0  0  0999 V2000
   -1.0921   -1.1872   -2.4561 C   0  0  0  0  0  0  0  0  0  0  0  0
   -1.0921   -1.1872   -1.2606 C   0  0  0  0  0  0  0  0  0  0  0  0
   -1.0921   -1.1872    0.2024 C   0  0  0  0  0  3  0  0  0  0  0  0
   -2.4061   -0.9116    0.7835 C   0  0  0  0  0  0  0  0  0  0  0  0
   -3.4799   -0.6863    1.2584 C   0  0  0  0  0  0  0  0  0  0  0  0
   -1.0921   -1.1872   -3.5196 H   0  0  0  0  0  0  0  0  0  0  0  0
   -0.2340   -0.2928    0.6334 H   0  0  0  0  0  0  0  0  0  0  0  0
   -0.7367   -2.1570    0.5616 H   0  0  0  0  0  0  0  0  0  0  0  0
   -4.4351   -0.4860    1.6809 H   0  0  0  0  0  0  0  0  0  0  0  0
    1.2142    0.1843    2.4124 C   0  0  0  0  0  0  0  0  0  0  0  0
    0.6213    0.5986    1.0630 C   0  0  0  0  0  0  0  0  0  0  0  0
    1.5723    1.4443    0.2844 C   0  0  0  0  0  0  0  0  0  0  0  0
    2.1858    1.1110   -1.1626 S   0  0  0  0  0  0  0  0  0  0  0  0
    2.1012   -0.4344    2.2703 H   0  0  0  0  0  0  0  0  0  0  0  0
    1.4995    1.0556    3.0051 H   0  0  0  0  0  0  0  0  0  0  0  0
    0.4861   -0.3895    2.9858 H   0  0  0  0  0  0  0  0  0  0  0  0
   -0.2831    1.1926    1.2395 H   0  0  0  0  0  0  0  0  0  0  0  0
    1.8701    2.3669    0.7889 H   0  0  0  0  0  0  0  0  0  0  0  0
  1  2  3  0
  1  6  1  0
  2  3  1  0
  3  4  1  0
  3  8  1  0
  4  5  3  0
  5  9  1  0
  7 11  1  0
 10 11  1  0
 10 14  1  0
 10 15  1  0
 10 16  1  0
 11 12  1  0
 11 17  1  0
 12 13  2  0
 12 18  1  0
M  RAD  1   3   2
M  END
>  <reaction>  (15) 
rxn_1371

>  <mol_properties>  (15) 
{"1": {"label": "*4", "atom_type": "Ct"}, "2": {"label": "*3", "atom_type": "Cs"}, "6": {"label": "*2", "atom_type": "H0"}, "10": {"label": "*1", "atom_type": "Cs"}, "11": {"label": "*0", "atom_type": "CS"}}

>  <type>  (15) 
unop_11

>  <geom_source>  (15) 
Heuristics

$$$$

     RDKit          3D

 18 16  0  0  0  0  0  0  0  0999 V2000
   -0.0695   -1.4336   -3.1378 C   0  0  0  0  0  0  0  0  0  0  0  0
   -0.0695   -1.4336   -1.9423 C   0  0  0  0  0  0  0  0  0  0  0  0
   -0.0695   -1.4336   -0.4793 C   0  0  0  0  0  3  0  0  0  0  0  0
   -1.3835   -1.1580    0.1019 C   0  0  0  0  0  0  0  0  0  0  0  0
   -2.4573   -0.9328    0.5768 C   0  0  0  0  0  0  0  0  0  0  0  0
   -0.0695   -1.4336   -4.2012 H   0  0  0  0  0  0  0  0  0  0  0  0
    0.7886   -0.5392   -0.0482 H   0  0  0  0  0  0  0  0  0  0  0  0
    0.2858   -2.4035   -0.1201 H   0  0  0  0  0  0  0  0  0  0  0  0
   -3.4125   -0.7324    0.9993 H   0  0  0  0  0  0  0  0  0  0  0  0
    2.3276    1.0649   -0.7885 C   0  0  0  0  0  0  0  0  0  0  0  0
    1.6438    0.3522    0.3813 C   0  0  0  0  0  0  0  0  0  0  0  0
    0.9532    1.3199    1.2827 C   0  0  0  0  0  0  0  0  0  0  0  0
   -0.6157    1.3552    1.6272 S   0  0  0  0  0  0  0  0  0  0  0  0
    1.5918    1.5695   -1.4160 H   0  0  0  0  0  0  0  0  0  0  0  0
    3.0420    1.8112   -0.4360 H   0  0  0  0  0  0  0  0  0  0  0  0
    2.8676    0.3469   -1.4059 H   0  0  0  0  0  0  0  0  0  0  0  0
    2.4049   -0.1685    0.9742 H   0  0  0  0  0  0  0  0  0  0  0  0
    1.6113    2.0744    1.7209 H   0  0  0  0  0  0  0  0  0  0  0  0
  1  2  3  0
  1  6  1  0
  2  3  1  0
  3  4  1  0
  3  8  1  0
  4  5  3  0
  5  9  1  0
  7 11  1  0
 10 11  1  0
 10 14  1  0
 10 15  1  0
 10 16  1  0
 11 12  1  0
 11 17  1  0
 12 13  2  0
 12 18  1  0
M  RAD  1   3   2
M  END
>  <reaction>  (16) 
rxn_1371

>  <mol_properties>  (16) 
{"1": {"label": "*4", "atom_type": "Ct"}, "2": {"label": "*3", "atom_type": "Cs"}, "6": {"label": "*2", "atom_type": "H0"}, "10": {"label": "*1", "atom_type": "Cs"}, "11": {"label": "*0", "atom_type": "CS"}}

>  <type>  (16) 
unop_12

>  <geom_source>  (16) 
Heuristics

$$$$

     RDKit          3D

 18 16  0  0  0  0  0  0  0  0999 V2000
   -1.8985   -2.0598   -1.4608 S   0  0  0  0  0  0  0  0  0  0  0  0
   -1.2924    0.0898   -0.2206 C   0  0  0  0  0  0  0  0  0  0  0  0
   -1.6657    0.0014    1.2545 C   0  0  0  0  0  0  0  0  0  0  0  0
   -2.2355   -0.7225   -1.0601 C   0  0  0  0  0  0  0  0  0  0  0  0
    1.2979   -0.1427   -0.6580 C   0  0  0  0  0  3  0  0  0  0  0  0
    2.0872   -0.8101    0.3790 C   0  0  0  0  0  0  0  0  0  0  0  0
    1.7062    1.2593   -0.7653 C   0  0  0  0  0  0  0  0  0  0  0  0
    2.7361   -1.3613    1.2328 C   0  0  0  0  0  0  0  0  0  0  0  0
    2.0410    2.4142   -0.8550 C   0  0  0  0  0  0  0  0  0  0  0  0
   -1.3479    1.1502   -0.5469 H   0  0  0  0  0  0  0  0  0  0  0  0
   -0.0177   -0.3281   -0.3827 H   0  0  0  0  0  0  0  0  0  0  0  0
   -2.6996    0.3755    1.4153 H   0  0  0  0  0  0  0  0  0  0  0  0
   -0.9644    0.6220    1.8504 H   0  0  0  0  0  0  0  0  0  0  0  0
   -1.5953   -1.0501    1.6053 H   0  0  0  0  0  0  0  0  0  0  0  0
   -3.2515   -0.3696   -1.2056 H   0  0  0  0  0  0  0  0  0  0  0  0
    1.4595   -0.6509   -1.6309 H   0  0  0  0  0  0  0  0  0  0  0  0
    3.3057   -1.8450    1.9822 H   0  0  0  0  0  0  0  0  0  0  0  0
    2.3349    3.4278   -0.9336 H   0  0  0  0  0  0  0  0  0  0  0  0
  1  4  2  0
  2  3  1  0
  2  4  1  0
  2 10  1  0
  2 11  1  0
  3 12  1  0
  3 13  1  0
  3 14  1  0
  4 15  1  0
  5  6  1  0
  5  7  1  0
  5 16  1  0
  6  8  3  0
  7  9  3  0
  8 17  1  0
  9 18  1  0
M  RAD  1   5   2
M  END
>  <reaction>  (17) 
rxn_1371

>  <mol_properties>  (17) 
{"1": {"label": "*4", "atom_type": "Ct"}, "2": {"label": "*3", "atom_type": "Cs"}, "6": {"label": "*2", "atom_type": "H0"}, "10": {"label": "*1", "atom_type": "Cs"}, "11": {"label": "*0", "atom_type": "CS"}}

>  <type>  (17) 
unop_13

>  <geom_source>  (17) 
AutoTST

$$$$

     RDKit          3D

 18 16  0  0  0  0  0  0  0  0999 V2000
   -0.0150   -1.1294   -3.2898 C   0  0  0  0  0  0  0  0  0  0  0  0
   -0.0150   -1.1294   -2.0943 C   0  0  0  0  0  0  0  0  0  0  0  0
   -0.0150   -1.1294   -0.6313 C   0  0  0  0  0  3  0  0  0  0  0  0
   -1.3291   -0.8538   -0.0502 C   0  0  0  0  0  0  0  0  0  0  0  0
   -2.4028   -0.6286    0.4247 C   0  0  0  0  0  0  0  0  0  0  0  0
   -0.0150   -1.1294   -4.3533 H   0  0  0  0  0  0  0  0  0  0  0  0
    0.8431   -0.2350   -0.2003 H   0  0  0  0  0  0  0  0  0  0  0  0
    0.3403   -2.0993   -0.2722 H   0  0  0  0  0  0  0  0  0  0  0  0
   -3.3580   -0.4282    0.8472 H   0  0  0  0  0  0  0  0  0  0  0  0
    1.8229    1.8185   -0.7598 C   0  0  0  0  0  0  0  0  0  0  0  0
    1.6983    0.6564    0.2293 C   0  0  0  0  0  0  0  0  0  0  0  0
    0.8958    1.0412    1.4267 C   0  0  0  0  0  0  0  0  0  0  0  0
   -0.4728    0.3602    1.9211 S   0  0  0  0  0  0  0  0  0  0  0  0
    0.8434    2.1018   -1.1472 H   0  0  0  0  0  0  0  0  0  0  0  0
    2.2678    2.6962   -0.2871 H   0  0  0  0  0  0  0  0  0  0  0  0
    2.4535    1.5331   -1.6018 H   0  0  0  0  0  0  0  0  0  0  0  0
    2.6997    0.3765    0.5767 H   0  0  0  0  0  0  0  0  0  0  0  0
    1.3038    1.8848    1.9890 H   0  0  0  0  0  0  0  0  0  0  0  0
  1  2  3  0
  1  6  1  0
  2  3  1  0
  3  4  1  0
  3  8  1  0
  4  5  3  0
  5  9  1  0
  7 11  1  0
 10 11  1  0
 10 14  1  0
 10 15  1  0
 10 16  1  0
 11 12  1  0
 11 17  1  0
 12 13  2  0
 12 18  1  0
M  RAD  1   3   2
M  END
>  <reaction>  (18) 
rxn_1371

>  <mol_properties>  (18) 
{"1": {"label": "*4", "atom_type": "Ct"}, "2": {"label": "*3", "atom_type": "Cs"}, "6": {"label": "*2", "atom_type": "H0"}, "10": {"label": "*1", "atom_type": "Cs"}, "11": {"label": "*0", "atom_type": "CS"}}

>  <type>  (18) 
unop_14

>  <geom_source>  (18) 
gaussian_log

$$$$
