
     RDKit          3D

 15 15  0  0  0  0  0  0  0  0999 V2000
    2.2031   -0.2111   -0.1693 C   0  0  0  0  0  0  0  0  0  0  0  0
    0.7140   -0.0314   -0.0623 C   0  0  0  0  0  0  0  0  0  0  0  0
   -0.0114    0.5491   -1.0982 C   0  0  0  0  0  0  0  0  0  0  0  0
   -1.3882    0.6886   -1.0150 C   0  0  0  0  0  0  0  0  0  0  0  0
   -2.0661    0.2493    0.1118 C   0  0  0  0  0  0  0  0  0  0  0  0
   -1.3551   -0.3278    1.1528 C   0  0  0  0  0  0  0  0  0  0  0  0
    0.0216   -0.4648    1.0642 C   0  0  0  0  0  0  0  0  0  0  0  0
    2.6776   -0.1836    0.8122 H   0  0  0  0  0  0  0  0  0  0  0  0
    2.4446   -1.1749   -0.6249 H   0  0  0  0  0  0  0  0  0  0  0  0
    2.6532    0.5664   -0.7875 H   0  0  0  0  0  0  0  0  0  0  0  0
    0.5104    0.8989   -1.9819 H   0  0  0  0  0  0  0  0  0  0  0  0
   -1.9328    1.1452   -1.8322 H   0  0  0  0  0  0  0  0  0  0  0  0
   -3.1409    0.3597    0.1800 H   0  0  0  0  0  0  0  0  0  0  0  0
   -1.8736   -0.6702    2.0398 H   0  0  0  0  0  0  0  0  0  0  0  0
    0.5695   -0.9141    1.8849 H   0  0  0  0  0  0  0  0  0  0  0  0
  1  2  1  0
  1  8  1  0
  1  9  1  0
  1 10  1  0
  2  3  2  0
  2  7  1  0
  3  4  1  0
  3 11  1  0
  4  5  2  0
  4 12  1  0
  5  6  1  0
  5 13  1  0
  6  7  2  0
  6 14  1  0
  7 15  1  0
M  END
>  <reaction>  (1) 
rxn_1462

>  <mol_properties>  (1) 
{"0": {"label": "donator", "atom_type": "Cs"}, "7": {"label": "d_hydrogen", "atom_type": "H0"}}

>  <type>  (1) 
r1h

$$$$

     RDKit          3D

  7  6  0  0  0  0  0  0  0  0999 V2000
   -1.3496    0.0255    0.0758 C   0  0  0  0  0  0  0  0  0  0  0  0
   -0.0636   -0.0704   -0.0033 C   0  0  0  0  0  0  0  0  0  0  0  0
    1.2597   -0.1602   -0.0839 C   0  0  0  0  0  0  0  0  0  0  0  0
    2.2616    1.2090   -0.0064 S   0  0  0  0  0  1  0  0  0  0  0  0
   -1.8547   -0.0180    1.0345 H   0  0  0  0  0  0  0  0  0  0  0  0
   -1.9552    0.1601   -0.8138 H   0  0  0  0  0  0  0  0  0  0  0  0
    1.7017   -1.1460   -0.2029 H   0  0  0  0  0  0  0  0  0  0  0  0
  1  2  2  0
  1  5  1  0
  1  6  1  0
  2  3  2  0
  3  4  1  0
  3  7  1  0
M  RAD  1   4   2
M  END
>  <reaction>  (2) 
rxn_1462

>  <mol_properties>  (2) 
{"1": {"label": "acceptor", "atom_type": "Cd"}}

>  <type>  (2) 
r2

$$$$

     RDKit          3D

  8  7  0  0  0  0  0  0  0  0999 V2000
   -1.1617    0.0338    0.5053 C   0  0  0  0  0  0  0  0  0  0  0  0
   -0.1023    0.4503   -0.1863 C   0  0  0  0  0  0  0  0  0  0  0  0
    1.0978   -0.3557   -0.3104 C   0  0  0  0  0  0  0  0  0  0  0  0
    2.4251    0.0667   -1.1256 S   0  0  0  0  0  0  0  0  0  0  0  0
   -1.1653   -0.9292    1.0039 H   0  0  0  0  0  0  0  0  0  0  0  0
   -2.0546    0.6389    0.5948 H   0  0  0  0  0  0  0  0  0  0  0  0
   -0.0991    1.4132   -0.6847 H   0  0  0  0  0  0  0  0  0  0  0  0
    1.0601   -1.3180    0.2032 H   0  0  0  0  0  0  0  0  0  0  0  0
  1  2  2  3
  1  5  1  0
  1  6  1  0
  2  3  1  0
  2  7  1  0
  3  4  2  0
  3  8  1  0
M  END
>  <reaction>  (3) 
rxn_1462

>  <mol_properties>  (3) 
{"1": {"label": "acceptor", "atom_type": "Cd"}, "7": {"label": "a_hydrogen", "atom_type": "H0"}}

>  <type>  (3) 
r2h

$$$$

     RDKit          3D

 22 21  0  0  0  0  0  0  0  0999 V2000
   -2.0369   -0.8664    0.8841 C   0  0  0  0  0  0  0  0  0  0  0  0
   -1.0798   -0.7146    1.7726 C   0  0  0  0  0  0  0  0  0  0  0  0
   -0.6987   -1.2745    3.0193 C   0  0  0  0  0  0  0  0  0  0  0  0
    0.6842   -2.1031    3.2711 S   0  0  0  0  0  0  0  0  0  0  0  0
   -2.7968   -1.6342    0.9888 H   0  0  0  0  0  0  0  0  0  0  0  0
   -2.0725   -0.2476   -0.0063 H   0  0  0  0  0  0  0  0  0  0  0  0
   -1.3558   -1.0542    3.8622 H   0  0  0  0  0  0  0  0  0  0  0  0
    0.7628    0.8847    0.7413 C   0  0  0  0  0  0  0  0  0  0  0  0
    0.3628    0.9875   -0.6556 C   0  0  0  0  0  0  0  0  0  0  0  0
   -0.4000    2.0690   -1.1099 C   0  0  0  0  0  3  0  0  0  0  0  0
   -0.8268    2.1326   -2.4241 C   0  0  0  0  0  0  0  0  0  0  0  0
   -0.5062    1.1140   -3.3116 C   0  0  0  0  0  0  0  0  0  0  0  0
    0.2468    0.0321   -2.8746 C   0  0  0  0  0  0  0  0  0  0  0  0
    0.6755   -0.0324   -1.5615 C   0  0  0  0  0  0  0  0  0  0  0  0
   -0.1693    0.1390    1.3435 H   0  0  0  0  0  0  0  0  0  0  0  0
    1.6325    0.2708    0.9572 H   0  0  0  0  0  0  0  0  0  0  0  0
    0.7160    1.7976    1.3286 H   0  0  0  0  0  0  0  0  0  0  0  0
   -0.6550    2.8645   -0.4193 H   0  0  0  0  0  0  0  0  0  0  0  0
   -1.4115    2.9797   -2.7599 H   0  0  0  0  0  0  0  0  0  0  0  0
   -0.8406    1.1638   -4.3398 H   0  0  0  0  0  0  0  0  0  0  0  0
    0.4993   -0.7649   -3.5624 H   0  0  0  0  0  0  0  0  0  0  0  0
    1.2543   -0.8823   -1.2199 H   0  0  0  0  0  0  0  0  0  0  0  0
  1  2  2  3
  1  5  1  0
  1  6  1  0
  2  3  1  0
  2 15  1  0
  3  4  2  0
  3  7  1  0
  8  9  2  3
  8 16  1  0
  8 17  1  0
  9 10  1  0
  9 14  1  0
 10 11  1  0
 10 18  1  0
 11 12  2  0
 11 19  1  0
 12 13  1  0
 12 20  1  0
 13 14  2  0
 13 21  1  0
 14 22  1  0
M  RAD  1  10   2
M  END
>  <reaction>  (4) 
rxn_1462

>  <mol_properties>  (4) 
{"1": {"label": "*1", "atom_type": "Cd"}, "2": {"label": "*0", "atom_type": "CS"}, "7": {"label": "*3", "atom_type": "Cd"}, "8": {"label": "*4", "atom_type": "Cd"}, "14": {"label": "*2", "atom_type": "H0"}}

>  <type>  (4) 
ts

$$$$

     RDKit          3D

 22 21  0  0  0  0  0  0  0  0999 V2000
    0.4557   -2.3095    2.7084 C   0  0  0  0  0  0  0  0  0  0  0  0
   -0.1961   -1.4503    1.9267 C   0  0  0  0  0  0  0  0  0  0  0  0
   -1.5339   -0.9871    2.2444 C   0  0  0  0  0  0  0  0  0  0  0  0
   -2.3971    0.0497    1.3587 S   0  0  0  0  0  0  0  0  0  0  0  0
    0.0068   -2.6963    3.6166 H   0  0  0  0  0  0  0  0  0  0  0  0
    1.4535   -2.6520    2.4668 H   0  0  0  0  0  0  0  0  0  0  0  0
   -1.9553   -1.3959    3.1646 H   0  0  0  0  0  0  0  0  0  0  0  0
    0.9803    0.6770    0.9773 C   0  0  0  0  0  0  0  0  0  0  0  0
    0.9803    0.6770   -0.5265 C   0  0  0  0  0  0  0  0  0  0  0  0
    0.9803    1.8713   -1.2405 C   0  0  0  0  0  3  0  0  0  0  0  0
    1.0107    1.8746   -2.6265 C   0  0  0  0  0  0  0  0  0  0  0  0
    1.0403    0.6776   -3.3255 C   0  0  0  0  0  0  0  0  0  0  0  0
    1.0371   -0.5197   -2.6265 C   0  0  0  0  0  0  0  0  0  0  0  0
    1.0066   -0.5171   -1.2405 C   0  0  0  0  0  0  0  0  0  0  0  0
    0.3904   -0.3897    1.4533 H   0  0  0  0  0  0  0  0  0  0  0  0
    2.0025    0.6882    1.3640 H   0  0  0  0  0  0  0  0  0  0  0  0
    0.4693    1.5549    1.3740 H   0  0  0  0  0  0  0  0  0  0  0  0
    0.9537    2.8124   -0.7027 H   0  0  0  0  0  0  0  0  0  0  0  0
    1.0081    2.8159   -3.1622 H   0  0  0  0  0  0  0  0  0  0  0  0
    1.0614    0.6779   -4.4079 H   0  0  0  0  0  0  0  0  0  0  0  0
    1.0553   -1.4608   -3.1622 H   0  0  0  0  0  0  0  0  0  0  0  0
    1.0008   -1.4585   -0.7027 H   0  0  0  0  0  0  0  0  0  0  0  0
  1  2  2  3
  1  5  1  0
  1  6  1  0
  2  3  1  0
  2 15  1  0
  3  4  2  0
  3  7  1  0
  8  9  2  3
  8 16  1  0
  8 17  1  0
  9 10  1  0
  9 14  1  0
 10 11  1  0
 10 18  1  0
 11 12  2  0
 11 19  1  0
 12 13  1  0
 12 20  1  0
 13 14  2  0
 13 21  1  0
 14 22  1  0
M  RAD  1  10   2
M  END
>  <reaction>  (5) 
rxn_1462

>  <mol_properties>  (5) 
{"1": {"label": "*1", "atom_type": "Cd"}, "2": {"label": "*0", "atom_type": "CS"}, "7": {"label": "*3", "atom_type": "Cd"}, "8": {"label": "*4", "atom_type": "Cd"}, "14": {"label": "*2", "atom_type": "H0"}}

>  <type>  (5) 
unop_1

>  <geom_source>  (5) 
Heuristics

$$$$

     RDKit          3D

 22 21  0  0  0  0  0  0  0  0999 V2000
   -0.5694   -2.5236    0.7442 C   0  0  0  0  0  0  0  0  0  0  0  0
   -0.5826   -1.3709    1.4114 C   0  0  0  0  0  0  0  0  0  0  0  0
   -0.8980   -1.3071    2.8262 C   0  0  0  0  0  0  0  0  0  0  0  0
   -0.9378    0.0405    3.7134 S   0  0  0  0  0  0  0  0  0  0  0  0
   -0.7955   -3.4622    1.2378 H   0  0  0  0  0  0  0  0  0  0  0  0
   -0.3335   -2.5656   -0.3113 H   0  0  0  0  0  0  0  0  0  0  0  0
   -1.1203   -2.2693    3.2912 H   0  0  0  0  0  0  0  0  0  0  0  0
    0.5938    0.7565    0.4619 C   0  0  0  0  0  0  0  0  0  0  0  0
    0.5938    0.7565   -1.0418 C   0  0  0  0  0  0  0  0  0  0  0  0
    0.5938    1.9508   -1.7558 C   0  0  0  0  0  3  0  0  0  0  0  0
    0.6243    1.9541   -3.1418 C   0  0  0  0  0  0  0  0  0  0  0  0
    0.6538    0.7571   -3.8409 C   0  0  0  0  0  0  0  0  0  0  0  0
    0.6507   -0.4403   -3.1418 C   0  0  0  0  0  0  0  0  0  0  0  0
    0.6201   -0.4376   -1.7558 C   0  0  0  0  0  0  0  0  0  0  0  0
    0.0039   -0.3103    0.9380 H   0  0  0  0  0  0  0  0  0  0  0  0
    1.6160    0.7677    0.8487 H   0  0  0  0  0  0  0  0  0  0  0  0
    0.0828    1.6344    0.8587 H   0  0  0  0  0  0  0  0  0  0  0  0
    0.5672    2.8919   -1.2180 H   0  0  0  0  0  0  0  0  0  0  0  0
    0.6216    2.8953   -3.6775 H   0  0  0  0  0  0  0  0  0  0  0  0
    0.6749    0.7574   -4.9232 H   0  0  0  0  0  0  0  0  0  0  0  0
    0.6688   -1.3813   -3.6775 H   0  0  0  0  0  0  0  0  0  0  0  0
    0.6143   -1.3790   -1.2180 H   0  0  0  0  0  0  0  0  0  0  0  0
  1  2  2  3
  1  5  1  0
  1  6  1  0
  2  3  1  0
  2 15  1  0
  3  4  2  0
  3  7  1  0
  8  9  2  3
  8 16  1  0
  8 17  1  0
  9 10  1  0
  9 14  1  0
 10 11  1  0
 10 18  1  0
 11 12  2  0
 11 19  1  0
 12 13  1  0
 12 20  1  0
 13 14  2  0
 13 21  1  0
 14 22  1  0
M  RAD  1  10   2
M  END
>  <reaction>  (6) 
rxn_1462

>  <mol_properties>  (6) 
{"1": {"label": "*1", "atom_type": "Cd"}, "2": {"label": "*0", "atom_type": "CS"}, "7": {"label": "*3", "atom_type": "Cd"}, "8": {"label": "*4", "atom_type": "Cd"}, "14": {"label": "*2", "atom_type": "H0"}}

>  <type>  (6) 
unop_2

>  <geom_source>  (6) 
Heuristics

$$$$

     RDKit          3D

 22 21  0  0  0  0  0  0  0  0999 V2000
    0.1396   -1.8025    3.3701 C   0  0  0  0  0  0  0  0  0  0  0  0
   -0.2207   -1.2777    2.2001 C   0  0  0  0  0  0  0  0  0  0  0  0
   -1.6050   -1.2492    1.7661 C   0  0  0  0  0  0  0  0  0  0  0  0
   -2.1325   -0.6357    0.3697 S   0  0  0  0  0  0  0  0  0  0  0  0
   -0.5936   -2.2303    4.0449 H   0  0  0  0  0  0  0  0  0  0  0  0
    1.1737   -1.8213    3.6891 H   0  0  0  0  0  0  0  0  0  0  0  0
   -2.3159   -1.6876    2.4688 H   0  0  0  0  0  0  0  0  0  0  0  0
    0.9556    0.8496    1.2507 C   0  0  0  0  0  0  0  0  0  0  0  0
    0.9556    0.8496   -0.2530 C   0  0  0  0  0  0  0  0  0  0  0  0
    0.9556    2.0439   -0.9671 C   0  0  0  0  0  3  0  0  0  0  0  0
    0.9861    2.0473   -2.3530 C   0  0  0  0  0  0  0  0  0  0  0  0
    1.0156    0.8503   -3.0521 C   0  0  0  0  0  0  0  0  0  0  0  0
    1.0125   -0.3471   -2.3530 C   0  0  0  0  0  0  0  0  0  0  0  0
    0.9820   -0.3444   -0.9671 C   0  0  0  0  0  0  0  0  0  0  0  0
    0.3658   -0.2171    1.7268 H   0  0  0  0  0  0  0  0  0  0  0  0
    1.9779    0.8609    1.6375 H   0  0  0  0  0  0  0  0  0  0  0  0
    0.4446    1.7275    1.6475 H   0  0  0  0  0  0  0  0  0  0  0  0
    0.9290    2.9850   -0.4292 H   0  0  0  0  0  0  0  0  0  0  0  0
    0.9834    2.9885   -2.8888 H   0  0  0  0  0  0  0  0  0  0  0  0
    1.0368    0.8505   -4.1344 H   0  0  0  0  0  0  0  0  0  0  0  0
    1.0306   -1.2881   -2.8888 H   0  0  0  0  0  0  0  0  0  0  0  0
    0.9761   -1.2859   -0.4292 H   0  0  0  0  0  0  0  0  0  0  0  0
  1  2  2  3
  1  5  1  0
  1  6  1  0
  2  3  1  0
  2 15  1  0
  3  4  2  0
  3  7  1  0
  8  9  2  3
  8 16  1  0
  8 17  1  0
  9 10  1  0
  9 14  1  0
 10 11  1  0
 10 18  1  0
 11 12  2  0
 11 19  1  0
 12 13  1  0
 12 20  1  0
 13 14  2  0
 13 21  1  0
 14 22  1  0
M  RAD  1  10   2
M  END
>  <reaction>  (7) 
rxn_1462

>  <mol_properties>  (7) 
{"1": {"label": "*1", "atom_type": "Cd"}, "2": {"label": "*0", "atom_type": "CS"}, "7": {"label": "*3", "atom_type": "Cd"}, "8": {"label": "*4", "atom_type": "Cd"}, "14": {"label": "*2", "atom_type": "H0"}}

>  <type>  (7) 
unop_3

>  <geom_source>  (7) 
Heuristics

$$$$

     RDKit          3D

 22 21  0  0  0  0  0  0  0  0999 V2000
   -2.2983   -1.3927    1.2274 C   0  0  0  0  0  0  0  0  0  0  0  0
   -1.0236   -1.1254    1.5063 C   0  0  0  0  0  0  0  0  0  0  0  0
   -0.4214   -1.4973    2.7729 C   0  0  0  0  0  0  0  0  0  0  0  0
    1.1102   -1.2149    3.1964 S   0  0  0  0  0  0  0  0  0  0  0  0
   -2.9361   -1.9013    1.9417 H   0  0  0  0  0  0  0  0  0  0  0  0
   -2.7427   -1.1131    0.2810 H   0  0  0  0  0  0  0  0  0  0  0  0
   -1.0910   -2.0071    3.4680 H   0  0  0  0  0  0  0  0  0  0  0  0
    0.1528    1.0019    0.5569 C   0  0  0  0  0  0  0  0  0  0  0  0
    0.1528    1.0019   -0.9468 C   0  0  0  0  0  0  0  0  0  0  0  0
    0.1528    2.1963   -1.6609 C   0  0  0  0  0  3  0  0  0  0  0  0
    0.1832    2.1996   -3.0468 C   0  0  0  0  0  0  0  0  0  0  0  0
    0.2128    1.0026   -3.7459 C   0  0  0  0  0  0  0  0  0  0  0  0
    0.2096   -0.1948   -3.0468 C   0  0  0  0  0  0  0  0  0  0  0  0
    0.1791   -0.1921   -1.6609 C   0  0  0  0  0  0  0  0  0  0  0  0
   -0.4371   -0.0648    1.0330 H   0  0  0  0  0  0  0  0  0  0  0  0
    1.1750    1.0132    0.9437 H   0  0  0  0  0  0  0  0  0  0  0  0
   -0.3583    1.8798    0.9537 H   0  0  0  0  0  0  0  0  0  0  0  0
    0.1261    3.1374   -1.1230 H   0  0  0  0  0  0  0  0  0  0  0  0
    0.1806    3.1408   -3.5826 H   0  0  0  0  0  0  0  0  0  0  0  0
    0.2339    1.0028   -4.8282 H   0  0  0  0  0  0  0  0  0  0  0  0
    0.2277   -1.1358   -3.5826 H   0  0  0  0  0  0  0  0  0  0  0  0
    0.1732   -1.1335   -1.1230 H   0  0  0  0  0  0  0  0  0  0  0  0
  1  2  2  3
  1  5  1  0
  1  6  1  0
  2  3  1  0
  2 15  1  0
  3  4  2  0
  3  7  1  0
  8  9  2  3
  8 16  1  0
  8 17  1  0
  9 10  1  0
  9 14  1  0
 10 11  1  0
 10 18  1  0
 11 12  2  0
 11 19  1  0
 12 13  1  0
 12 20  1  0
 13 14  2  0
 13 21  1  0
 14 22  1  0
M  RAD  1  10   2
M  END
>  <reaction>  (8) 
rxn_1462

>  <mol_properties>  (8) 
{"1": {"label": "*1", "atom_type": "Cd"}, "2": {"label": "*0", "atom_type": "CS"}, "7": {"label": "*3", "atom_type": "Cd"}, "8": {"label": "*4", "atom_type": "Cd"}, "14": {"label": "*2", "atom_type": "H0"}}

>  <type>  (8) 
unop_4

>  <geom_source>  (8) 
Heuristics

$$$$

     RDKit          3D

 22 21  0  0  0  0  0  0  0  0999 V2000
   -0.6485   -1.1475    3.6887 C   0  0  0  0  0  0  0  0  0  0  0  0
   -0.5375   -0.9468    2.3767 C   0  0  0  0  0  0  0  0  0  0  0  0
   -1.0607   -1.8929    1.4090 C   0  0  0  0  0  0  0  0  0  0  0  0
   -0.9721   -1.7328   -0.1945 S   0  0  0  0  0  0  0  0  0  0  0  0
   -1.1372   -2.0313    4.0835 H   0  0  0  0  0  0  0  0  0  0  0  0
   -0.2564   -0.4385    4.4064 H   0  0  0  0  0  0  0  0  0  0  0  0
   -1.5459   -2.7704    1.8404 H   0  0  0  0  0  0  0  0  0  0  0  0
    0.6389    1.1805    1.4273 C   0  0  0  0  0  0  0  0  0  0  0  0
    0.6389    1.1805   -0.0765 C   0  0  0  0  0  0  0  0  0  0  0  0
    0.6389    2.3749   -0.7905 C   0  0  0  0  0  3  0  0  0  0  0  0
    0.6694    2.3782   -2.1765 C   0  0  0  0  0  0  0  0  0  0  0  0
    0.6989    1.1812   -2.8755 C   0  0  0  0  0  0  0  0  0  0  0  0
    0.6958   -0.0162   -2.1765 C   0  0  0  0  0  0  0  0  0  0  0  0
    0.6652   -0.0135   -0.7905 C   0  0  0  0  0  0  0  0  0  0  0  0
    0.0490    0.1138    1.9033 H   0  0  0  0  0  0  0  0  0  0  0  0
    1.6611    1.1918    1.8140 H   0  0  0  0  0  0  0  0  0  0  0  0
    0.1279    2.0584    1.8240 H   0  0  0  0  0  0  0  0  0  0  0  0
    0.6123    3.3159   -0.2527 H   0  0  0  0  0  0  0  0  0  0  0  0
    0.6667    3.3194   -2.7122 H   0  0  0  0  0  0  0  0  0  0  0  0
    0.7200    1.1814   -3.9579 H   0  0  0  0  0  0  0  0  0  0  0  0
    0.7139   -0.9572   -2.7122 H   0  0  0  0  0  0  0  0  0  0  0  0
    0.6594   -0.9550   -0.2527 H   0  0  0  0  0  0  0  0  0  0  0  0
  1  2  2  3
  1  5  1  0
  1  6  1  0
  2  3  1  0
  2 15  1  0
  3  4  2  0
  3  7  1  0
  8  9  2  3
  8 16  1  0
  8 17  1  0
  9 10  1  0
  9 14  1  0
 10 11  1  0
 10 18  1  0
 11 12  2  0
 11 19  1  0
 12 13  1  0
 12 20  1  0
 13 14  2  0
 13 21  1  0
 14 22  1  0
M  RAD  1  10   2
M  END
>  <reaction>  (9) 
rxn_1462

>  <mol_properties>  (9) 
{"1": {"label": "*1", "atom_type": "Cd"}, "2": {"label": "*0", "atom_type": "CS"}, "7": {"label": "*3", "atom_type": "Cd"}, "8": {"label": "*4", "atom_type": "Cd"}, "14": {"label": "*2", "atom_type": "H0"}}

>  <type>  (9) 
unop_5

>  <geom_source>  (9) 
Heuristics

$$$$

     RDKit          3D

 22 21  0  0  0  0  0  0  0  0999 V2000
   -2.4420   -1.0368    1.9339 C   0  0  0  0  0  0  0  0  0  0  0  0
   -1.1341   -1.0246    1.6825 C   0  0  0  0  0  0  0  0  0  0  0  0
   -0.1731   -1.6236    2.5897 C   0  0  0  0  0  0  0  0  0  0  0  0
    1.4251   -1.6560    2.3675 S   0  0  0  0  0  0  0  0  0  0  0  0
   -2.8384   -1.4981    2.8317 H   0  0  0  0  0  0  0  0  0  0  0  0
   -3.1547   -0.5885    1.2539 H   0  0  0  0  0  0  0  0  0  0  0  0
   -0.6058   -2.0786    3.4825 H   0  0  0  0  0  0  0  0  0  0  0  0
    0.0423    1.1027    0.7331 C   0  0  0  0  0  0  0  0  0  0  0  0
    0.0423    1.1027   -0.7706 C   0  0  0  0  0  0  0  0  0  0  0  0
    0.0423    2.2970   -1.4847 C   0  0  0  0  0  3  0  0  0  0  0  0
    0.0727    2.3004   -2.8707 C   0  0  0  0  0  0  0  0  0  0  0  0
    0.1023    1.1034   -3.5697 C   0  0  0  0  0  0  0  0  0  0  0  0
    0.0991   -0.0940   -2.8707 C   0  0  0  0  0  0  0  0  0  0  0  0
    0.0686   -0.0913   -1.4847 C   0  0  0  0  0  0  0  0  0  0  0  0
   -0.5476    0.0360    1.2092 H   0  0  0  0  0  0  0  0  0  0  0  0
    1.0645    1.1140    1.1199 H   0  0  0  0  0  0  0  0  0  0  0  0
   -0.4687    1.9806    1.1298 H   0  0  0  0  0  0  0  0  0  0  0  0
    0.0157    3.2381   -0.9469 H   0  0  0  0  0  0  0  0  0  0  0  0
    0.0701    3.2416   -3.4064 H   0  0  0  0  0  0  0  0  0  0  0  0
    0.1234    1.1036   -4.6521 H   0  0  0  0  0  0  0  0  0  0  0  0
    0.1173   -1.0350   -3.4064 H   0  0  0  0  0  0  0  0  0  0  0  0
    0.0628   -1.0328   -0.9469 H   0  0  0  0  0  0  0  0  0  0  0  0
  1  2  2  3
  1  5  1  0
  1  6  1  0
  2  3  1  0
  2 15  1  0
  3  4  2  0
  3  7  1  0
  8  9  2  3
  8 16  1  0
  8 17  1  0
  9 10  1  0
  9 14  1  0
 10 11  1  0
 10 18  1  0
 11 12  2  0
 11 19  1  0
 12 13  1  0
 12 20  1  0
 13 14  2  0
 13 21  1  0
 14 22  1  0
M  RAD  1  10   2
M  END
>  <reaction>  (10) 
rxn_1462

>  <mol_properties>  (10) 
{"1": {"label": "*1", "atom_type": "Cd"}, "2": {"label": "*0", "atom_type": "CS"}, "7": {"label": "*3", "atom_type": "Cd"}, "8": {"label": "*4", "atom_type": "Cd"}, "14": {"label": "*2", "atom_type": "H0"}}

>  <type>  (10) 
unop_6

>  <geom_source>  (10) 
Heuristics

$$$$

     RDKit          3D

 22 21  0  0  0  0  0  0  0  0999 V2000
   -2.2197   -0.8301    2.7084 C   0  0  0  0  0  0  0  0  0  0  0  0
   -1.1455   -0.9254    1.9267 C   0  0  0  0  0  0  0  0  0  0  0  0
   -0.0418   -1.8121    2.2444 C   0  0  0  0  0  0  0  0  0  0  0  0
    1.2952   -1.9920    1.3587 S   0  0  0  0  0  0  0  0  0  0  0  0
   -2.3086   -1.4159    3.6166 H   0  0  0  0  0  0  0  0  0  0  0  0
   -3.0402   -0.1670    2.4668 H   0  0  0  0  0  0  0  0  0  0  0  0
   -0.1641   -2.3864    3.1646 H   0  0  0  0  0  0  0  0  0  0  0  0
    0.0309    1.2020    0.9773 C   0  0  0  0  0  0  0  0  0  0  0  0
    0.0309    1.2020   -0.5265 C   0  0  0  0  0  0  0  0  0  0  0  0
    0.0309    2.3963   -1.2405 C   0  0  0  0  0  3  0  0  0  0  0  0
    0.0614    2.3996   -2.6265 C   0  0  0  0  0  0  0  0  0  0  0  0
    0.0909    1.2026   -3.3255 C   0  0  0  0  0  0  0  0  0  0  0  0
    0.0878    0.0053   -2.6265 C   0  0  0  0  0  0  0  0  0  0  0  0
    0.0572    0.0079   -1.2405 C   0  0  0  0  0  0  0  0  0  0  0  0
   -0.5590    0.1352    1.4533 H   0  0  0  0  0  0  0  0  0  0  0  0
    1.0531    1.2132    1.3640 H   0  0  0  0  0  0  0  0  0  0  0  0
   -0.4801    2.0799    1.3740 H   0  0  0  0  0  0  0  0  0  0  0  0
    0.0043    3.3374   -0.7027 H   0  0  0  0  0  0  0  0  0  0  0  0
    0.0587    3.3408   -3.1622 H   0  0  0  0  0  0  0  0  0  0  0  0
    0.1120    1.2029   -4.4079 H   0  0  0  0  0  0  0  0  0  0  0  0
    0.1059   -0.9358   -3.1622 H   0  0  0  0  0  0  0  0  0  0  0  0
    0.0514   -0.9335   -0.7027 H   0  0  0  0  0  0  0  0  0  0  0  0
  1  2  2  3
  1  5  1  0
  1  6  1  0
  2  3  1  0
  2 15  1  0
  3  4  2  0
  3  7  1  0
  8  9  2  3
  8 16  1  0
  8 17  1  0
  9 10  1  0
  9 14  1  0
 10 11  1  0
 10 18  1  0
 11 12  2  0
 11 19  1  0
 12 13  1  0
 12 20  1  0
 13 14  2  0
 13 21  1  0
 14 22  1  0
M  RAD  1  10   2
M  END
>  <reaction>  (11) 
rxn_1462

>  <mol_properties>  (11) 
{"1": {"label": "*1", "atom_type": "Cd"}, "2": {"label": "*0", "atom_type": "CS"}, "7": {"label": "*3", "atom_type": "Cd"}, "8": {"label": "*4", "atom_type": "Cd"}, "14": {"label": "*2", "atom_type": "H0"}}

>  <type>  (11) 
unop_7

>  <geom_source>  (11) 
Heuristics

$$$$

     RDKit          3D

 22 21  0  0  0  0  0  0  0  0999 V2000
    0.3988   -2.6078    1.9339 C   0  0  0  0  0  0  0  0  0  0  0  0
   -0.2862   -1.4935    1.6825 C   0  0  0  0  0  0  0  0  0  0  0  0
   -1.3045   -0.9980    2.5897 C   0  0  0  0  0  0  0  0  0  0  0  0
   -2.1816    0.3384    2.3675 S   0  0  0  0  0  0  0  0  0  0  0  0
    0.2189   -3.1887    2.8317 H   0  0  0  0  0  0  0  0  0  0  0  0
    1.1574   -2.9730    1.2539 H   0  0  0  0  0  0  0  0  0  0  0  0
   -1.4598   -1.6064    3.4825 H   0  0  0  0  0  0  0  0  0  0  0  0
    0.8902    0.6339    0.7331 C   0  0  0  0  0  0  0  0  0  0  0  0
    0.8902    0.6339   -0.7706 C   0  0  0  0  0  0  0  0  0  0  0  0
    0.8902    1.8282   -1.4847 C   0  0  0  0  0  3  0  0  0  0  0  0
    0.9206    1.8315   -2.8707 C   0  0  0  0  0  0  0  0  0  0  0  0
    0.9502    0.6345   -3.5697 C   0  0  0  0  0  0  0  0  0  0  0  0
    0.9470   -0.5629   -2.8707 C   0  0  0  0  0  0  0  0  0  0  0  0
    0.9165   -0.5602   -1.4847 C   0  0  0  0  0  0  0  0  0  0  0  0
    0.3003   -0.4329    1.2092 H   0  0  0  0  0  0  0  0  0  0  0  0
    1.9124    0.6451    1.1199 H   0  0  0  0  0  0  0  0  0  0  0  0
    0.3792    1.5117    1.1298 H   0  0  0  0  0  0  0  0  0  0  0  0
    0.8636    2.7693   -0.9469 H   0  0  0  0  0  0  0  0  0  0  0  0
    0.9180    2.7727   -3.4064 H   0  0  0  0  0  0  0  0  0  0  0  0
    0.9713    0.6347   -4.6521 H   0  0  0  0  0  0  0  0  0  0  0  0
    0.9651   -1.5039   -3.4064 H   0  0  0  0  0  0  0  0  0  0  0  0
    0.9107   -1.5016   -0.9469 H   0  0  0  0  0  0  0  0  0  0  0  0
  1  2  2  3
  1  5  1  0
  1  6  1  0
  2  3  1  0
  2 15  1  0
  3  4  2  0
  3  7  1  0
  8  9  2  3
  8 16  1  0
  8 17  1  0
  9 10  1  0
  9 14  1  0
 10 11  1  0
 10 18  1  0
 11 12  2  0
 11 19  1  0
 12 13  1  0
 12 20  1  0
 13 14  2  0
 13 21  1  0
 14 22  1  0
M  RAD  1  10   2
M  END
>  <reaction>  (12) 
rxn_1462

>  <mol_properties>  (12) 
{"1": {"label": "*1", "atom_type": "Cd"}, "2": {"label": "*0", "atom_type": "CS"}, "7": {"label": "*3", "atom_type": "Cd"}, "8": {"label": "*4", "atom_type": "Cd"}, "14": {"label": "*2", "atom_type": "H0"}}

>  <type>  (12) 
unop_8

>  <geom_source>  (12) 
Heuristics

$$$$

     RDKit          3D

 22 21  0  0  0  0  0  0  0  0999 V2000
   -1.8560   -1.8121    0.7442 C   0  0  0  0  0  0  0  0  0  0  0  0
   -0.8727   -1.2104    1.4114 C   0  0  0  0  0  0  0  0  0  0  0  0
   -0.6510   -1.4437    2.8262 C   0  0  0  0  0  0  0  0  0  0  0  0
    0.5115   -0.7610    3.7134 S   0  0  0  0  0  0  0  0  0  0  0  0
   -2.5308   -2.5026    1.2378 H   0  0  0  0  0  0  0  0  0  0  0  0
   -2.0170   -1.6346   -0.3113 H   0  0  0  0  0  0  0  0  0  0  0  0
   -1.3477   -2.1435    3.2912 H   0  0  0  0  0  0  0  0  0  0  0  0
    0.3037    0.9169    0.4619 C   0  0  0  0  0  0  0  0  0  0  0  0
    0.3037    0.9169   -1.0418 C   0  0  0  0  0  0  0  0  0  0  0  0
    0.3037    2.1112   -1.7558 C   0  0  0  0  0  3  0  0  0  0  0  0
    0.3341    2.1146   -3.1418 C   0  0  0  0  0  0  0  0  0  0  0  0
    0.3637    0.9175   -3.8409 C   0  0  0  0  0  0  0  0  0  0  0  0
    0.3606   -0.2798   -3.1418 C   0  0  0  0  0  0  0  0  0  0  0  0
    0.3300   -0.2771   -1.7558 C   0  0  0  0  0  0  0  0  0  0  0  0
   -0.2862   -0.1498    0.9380 H   0  0  0  0  0  0  0  0  0  0  0  0
    1.3259    0.9281    0.8487 H   0  0  0  0  0  0  0  0  0  0  0  0
   -0.2073    1.7948    0.8587 H   0  0  0  0  0  0  0  0  0  0  0  0
    0.2771    3.0523   -1.2180 H   0  0  0  0  0  0  0  0  0  0  0  0
    0.3315    3.0558   -3.6775 H   0  0  0  0  0  0  0  0  0  0  0  0
    0.3848    0.9178   -4.9232 H   0  0  0  0  0  0  0  0  0  0  0  0
    0.3787   -1.2209   -3.6775 H   0  0  0  0  0  0  0  0  0  0  0  0
    0.3242   -1.2186   -1.2180 H   0  0  0  0  0  0  0  0  0  0  0  0
  1  2  2  3
  1  5  1  0
  1  6  1  0
  2  3  1  0
  2 15  1  0
  3  4  2  0
  3  7  1  0
  8  9  2  3
  8 16  1  0
  8 17  1  0
  9 10  1  0
  9 14  1  0
 10 11  1  0
 10 18  1  0
 11 12  2  0
 11 19  1  0
 12 13  1  0
 12 20  1  0
 13 14  2  0
 13 21  1  0
 14 22  1  0
M  RAD  1  10   2
M  END
>  <reaction>  (13) 
rxn_1462

>  <mol_properties>  (13) 
{"1": {"label": "*1", "atom_type": "Cd"}, "2": {"label": "*0", "atom_type": "CS"}, "7": {"label": "*3", "atom_type": "Cd"}, "8": {"label": "*4", "atom_type": "Cd"}, "14": {"label": "*2", "atom_type": "H0"}}

>  <type>  (13) 
unop_9

>  <geom_source>  (13) 
Heuristics

$$$$

     RDKit          3D

 22 21  0  0  0  0  0  0  0  0999 V2000
    0.0210   -2.6752    1.2274 C   0  0  0  0  0  0  0  0  0  0  0  0
   -0.4303   -1.4535    1.5063 C   0  0  0  0  0  0  0  0  0  0  0  0
   -1.0654   -1.1411    2.7729 C   0  0  0  0  0  0  0  0  0  0  0  0
   -1.6405    0.3062    3.1964 S   0  0  0  0  0  0  0  0  0  0  0  0
   -0.0707   -3.4858    1.9417 H   0  0  0  0  0  0  0  0  0  0  0  0
    0.4941   -2.9030    0.2810 H   0  0  0  0  0  0  0  0  0  0  0  0
   -1.1413   -1.9793    3.4680 H   0  0  0  0  0  0  0  0  0  0  0  0
    0.7461    0.6738    0.5569 C   0  0  0  0  0  0  0  0  0  0  0  0
    0.7461    0.6738   -0.9468 C   0  0  0  0  0  0  0  0  0  0  0  0
    0.7461    1.8682   -1.6609 C   0  0  0  0  0  3  0  0  0  0  0  0
    0.7765    1.8715   -3.0468 C   0  0  0  0  0  0  0  0  0  0  0  0
    0.8061    0.6745   -3.7459 C   0  0  0  0  0  0  0  0  0  0  0  0
    0.8029   -0.5229   -3.0468 C   0  0  0  0  0  0  0  0  0  0  0  0
    0.7724   -0.5202   -1.6609 C   0  0  0  0  0  0  0  0  0  0  0  0
    0.1562   -0.3929    1.0330 H   0  0  0  0  0  0  0  0  0  0  0  0
    1.7683    0.6851    0.9437 H   0  0  0  0  0  0  0  0  0  0  0  0
    0.2351    1.5517    0.9537 H   0  0  0  0  0  0  0  0  0  0  0  0
    0.7195    2.8093   -1.1230 H   0  0  0  0  0  0  0  0  0  0  0  0
    0.7739    2.8127   -3.5826 H   0  0  0  0  0  0  0  0  0  0  0  0
    0.8272    0.6747   -4.8282 H   0  0  0  0  0  0  0  0  0  0  0  0
    0.8211   -1.4639   -3.5826 H   0  0  0  0  0  0  0  0  0  0  0  0
    0.7666   -1.4616   -1.1230 H   0  0  0  0  0  0  0  0  0  0  0  0
  1  2  2  3
  1  5  1  0
  1  6  1  0
  2  3  1  0
  2 15  1  0
  3  4  2  0
  3  7  1  0
  8  9  2  3
  8 16  1  0
  8 17  1  0
  9 10  1  0
  9 14  1  0
 10 11  1  0
 10 18  1  0
 11 12  2  0
 11 19  1  0
 12 13  1  0
 12 20  1  0
 13 14  2  0
 13 21  1  0
 14 22  1  0
M  RAD  1  10   2
M  END
>  <reaction>  (14) 
rxn_1462

>  <mol_properties>  (14) 
{"1": {"label": "*1", "atom_type": "Cd"}, "2": {"label": "*0", "atom_type": "CS"}, "7": {"label": "*3", "atom_type": "Cd"}, "8": {"label": "*4", "atom_type": "Cd"}, "14": {"label": "*2", "atom_type": "H0"}}

>  <type>  (14) 
unop_10

>  <geom_source>  (14) 
Heuristics

$$$$

     RDKit          3D

 22 21  0  0  0  0  0  0  0  0999 V2000
   -1.6222   -0.8282    3.3701 C   0  0  0  0  0  0  0  0  0  0  0  0
   -0.9861   -0.8545    2.2001 C   0  0  0  0  0  0  0  0  0  0  0  0
   -0.2261   -2.0117    1.7661 C   0  0  0  0  0  0  0  0  0  0  0  0
    0.5740   -2.1323    0.3697 S   0  0  0  0  0  0  0  0  0  0  0  0
   -1.5947   -1.6767    4.0449 H   0  0  0  0  0  0  0  0  0  0  0  0
   -2.1879    0.0376    3.6891 H   0  0  0  0  0  0  0  0  0  0  0  0
   -0.2194   -2.8470    2.4688 H   0  0  0  0  0  0  0  0  0  0  0  0
    0.1902    1.2729    1.2507 C   0  0  0  0  0  0  0  0  0  0  0  0
    0.1902    1.2729   -0.2530 C   0  0  0  0  0  0  0  0  0  0  0  0
    0.1902    2.4672   -0.9671 C   0  0  0  0  0  3  0  0  0  0  0  0
    0.2207    2.4705   -2.3530 C   0  0  0  0  0  0  0  0  0  0  0  0
    0.2502    1.2735   -3.0521 C   0  0  0  0  0  0  0  0  0  0  0  0
    0.2471    0.0761   -2.3530 C   0  0  0  0  0  0  0  0  0  0  0  0
    0.2166    0.0788   -0.9671 C   0  0  0  0  0  0  0  0  0  0  0  0
   -0.3997    0.2061    1.7268 H   0  0  0  0  0  0  0  0  0  0  0  0
    1.2124    1.2841    1.6375 H   0  0  0  0  0  0  0  0  0  0  0  0
   -0.3208    2.1507    1.6475 H   0  0  0  0  0  0  0  0  0  0  0  0
    0.1636    3.4083   -0.4292 H   0  0  0  0  0  0  0  0  0  0  0  0
    0.2180    3.4117   -2.8888 H   0  0  0  0  0  0  0  0  0  0  0  0
    0.2714    1.2738   -4.1344 H   0  0  0  0  0  0  0  0  0  0  0  0
    0.2652   -0.8649   -2.8888 H   0  0  0  0  0  0  0  0  0  0  0  0
    0.2107   -0.8626   -0.4292 H   0  0  0  0  0  0  0  0  0  0  0  0
  1  2  2  3
  1  5  1  0
  1  6  1  0
  2  3  1  0
  2 15  1  0
  3  4  2  0
  3  7  1  0
  8  9  2  3
  8 16  1  0
  8 17  1  0
  9 10  1  0
  9 14  1  0
 10 11  1  0
 10 18  1  0
 11 12  2  0
 11 19  1  0
 12 13  1  0
 12 20  1  0
 13 14  2  0
 13 21  1  0
 14 22  1  0
M  RAD  1  10   2
M  END
>  <reaction>  (15) 
rxn_1462

>  <mol_properties>  (15) 
{"1": {"label": "*1", "atom_type": "Cd"}, "2": {"label": "*0", "atom_type": "CS"}, "7": {"label": "*3", "atom_type": "Cd"}, "8": {"label": "*4", "atom_type": "Cd"}, "14": {"label": "*2", "atom_type": "H0"}}

>  <type>  (15) 
unop_11

>  <geom_source>  (15) 
Heuristics

$$$$

     RDKit          3D

 22 21  0  0  0  0  0  0  0  0999 V2000
   -1.2370   -2.2119    0.5746 C   0  0  0  0  0  0  0  0  0  0  0  0
   -0.7251   -1.2861    1.3839 C   0  0  0  0  0  0  0  0  0  0  0  0
   -0.7925   -1.4079    2.8282 C   0  0  0  0  0  0  0  0  0  0  0  0
   -0.2014   -0.3391    3.8832 S   0  0  0  0  0  0  0  0  0  0  0  0
   -1.7259   -3.0959    0.9688 H   0  0  0  0  0  0  0  0  0  0  0  0
   -1.1841   -2.1162   -0.5021 H   0  0  0  0  0  0  0  0  0  0  0  0
   -1.2907   -2.3089    3.1906 H   0  0  0  0  0  0  0  0  0  0  0  0
    0.4513    0.8412    0.4345 C   0  0  0  0  0  0  0  0  0  0  0  0
    0.4513    0.8412   -1.0692 C   0  0  0  0  0  0  0  0  0  0  0  0
    0.4513    2.0355   -1.7833 C   0  0  0  0  0  3  0  0  0  0  0  0
    0.4817    2.0389   -3.1693 C   0  0  0  0  0  0  0  0  0  0  0  0
    0.5113    0.8419   -3.8683 C   0  0  0  0  0  0  0  0  0  0  0  0
    0.5081   -0.3555   -3.1693 C   0  0  0  0  0  0  0  0  0  0  0  0
    0.4776   -0.3528   -1.7833 C   0  0  0  0  0  0  0  0  0  0  0  0
   -0.1386   -0.2255    0.9106 H   0  0  0  0  0  0  0  0  0  0  0  0
    1.4735    0.8525    0.8213 H   0  0  0  0  0  0  0  0  0  0  0  0
   -0.0597    1.7191    0.8312 H   0  0  0  0  0  0  0  0  0  0  0  0
    0.4247    2.9766   -1.2454 H   0  0  0  0  0  0  0  0  0  0  0  0
    0.4791    2.9801   -3.7050 H   0  0  0  0  0  0  0  0  0  0  0  0
    0.5324    0.8421   -4.9506 H   0  0  0  0  0  0  0  0  0  0  0  0
    0.5262   -1.2965   -3.7050 H   0  0  0  0  0  0  0  0  0  0  0  0
    0.4718   -1.2943   -1.2454 H   0  0  0  0  0  0  0  0  0  0  0  0
  1  2  2  3
  1  5  1  0
  1  6  1  0
  2  3  1  0
  2 15  1  0
  3  4  2  0
  3  7  1  0
  8  9  2  3
  8 16  1  0
  8 17  1  0
  9 10  1  0
  9 14  1  0
 10 11  1  0
 10 18  1  0
 11 12  2  0
 11 19  1  0
 12 13  1  0
 12 20  1  0
 13 14  2  0
 13 21  1  0
 14 22  1  0
M  RAD  1  10   2
M  END
>  <reaction>  (16) 
rxn_1462

>  <mol_properties>  (16) 
{"1": {"label": "*1", "atom_type": "Cd"}, "2": {"label": "*0", "atom_type": "CS"}, "7": {"label": "*3", "atom_type": "Cd"}, "8": {"label": "*4", "atom_type": "Cd"}, "14": {"label": "*2", "atom_type": "H0"}}

>  <type>  (16) 
unop_12

>  <geom_source>  (16) 
Heuristics

$$$$

     RDKit          3D

 22 21  0  0  0  0  0  0  0  0999 V2000
    4.7182    1.7927   -0.4677 S   0  0  0  0  0  0  0  0  0  0  0  0
   -0.9435   -0.2027    0.4746 C   0  0  0  0  0  0  0  0  0  0  0  0
   -1.2385    0.1011   -0.8613 C   0  0  0  0  0  3  0  0  0  0  0  0
   -1.9796   -0.2706    1.4181 C   0  0  0  0  0  0  0  0  0  0  0  0
   -2.5614    0.3354   -1.2511 C   0  0  0  0  0  0  0  0  0  0  0  0
   -3.5922    0.2671   -0.3086 C   0  0  0  0  0  0  0  0  0  0  0  0
   -3.3014   -0.0358    1.0252 C   0  0  0  0  0  0  0  0  0  0  0  0
    2.6937   -0.0556   -0.3964 C   0  0  0  0  0  0  0  0  0  0  0  0
    0.4705   -0.4517    0.8842 C   0  0  0  0  0  0  0  0  0  0  0  0
    3.4334   -1.0222   -0.9387 C   0  0  0  0  0  0  0  0  0  0  0  0
    3.1894    1.3072   -0.1277 C   0  0  0  0  0  0  0  0  0  0  0  0
    1.4907   -0.3172   -0.0910 H   0  0  0  0  0  0  0  0  0  0  0  0
   -0.4467    0.1562   -1.5982 H   0  0  0  0  0  0  0  0  0  0  0  0
   -2.7875    0.5699   -2.2833 H   0  0  0  0  0  0  0  0  0  0  0  0
   -1.7633   -0.5045    2.4533 H   0  0  0  0  0  0  0  0  0  0  0  0
   -4.6152    0.4486   -0.6116 H   0  0  0  0  0  0  0  0  0  0  0  0
   -4.0998   -0.0885    1.7541 H   0  0  0  0  0  0  0  0  0  0  0  0
    4.4655   -0.8657   -1.2221 H   0  0  0  0  0  0  0  0  0  0  0  0
    2.9968   -1.9979   -1.1048 H   0  0  0  0  0  0  0  0  0  0  0  0
    2.5100    2.0223    0.3160 H   0  0  0  0  0  0  0  0  0  0  0  0
    0.5761   -1.4797    1.2903 H   0  0  0  0  0  0  0  0  0  0  0  0
    0.7847    0.2915    1.6469 H   0  0  0  0  0  0  0  0  0  0  0  0
  1 11  2  0
  2  9  2  3
  2  3  1  0
  2  4  1  0
  3  5  1  0
  3 13  1  0
  4  7  2  0
  4 15  1  0
  5  6  2  0
  5 14  1  0
  6  7  1  0
  6 16  1  0
  7 17  1  0
  8 10  2  3
  8 11  1  0
  8 12  1  0
  9 21  1  0
  9 22  1  0
 10 18  1  0
 10 19  1  0
 11 20  1  0
M  RAD  1   3   2
M  END
>  <reaction>  (17) 
rxn_1462

>  <mol_properties>  (17) 
{"1": {"label": "*1", "atom_type": "Cd"}, "2": {"label": "*0", "atom_type": "CS"}, "7": {"label": "*3", "atom_type": "Cd"}, "8": {"label": "*4", "atom_type": "Cd"}, "14": {"label": "*2", "atom_type": "H0"}}

>  <type>  (17) 
unop_13

>  <geom_source>  (17) 
AutoTST

$$$$

     RDKit          3D

 22 21  0  0  0  0  0  0  0  0999 V2000
   -0.5694   -2.5236    0.7442 C   0  0  0  0  0  0  0  0  0  0  0  0
   -0.5826   -1.3709    1.4114 C   0  0  0  0  0  0  0  0  0  0  0  0
   -0.8980   -1.3071    2.8262 C   0  0  0  0  0  0  0  0  0  0  0  0
   -0.9378    0.0405    3.7134 S   0  0  0  0  0  0  0  0  0  0  0  0
   -0.7955   -3.4622    1.2378 H   0  0  0  0  0  0  0  0  0  0  0  0
   -0.3335   -2.5656   -0.3113 H   0  0  0  0  0  0  0  0  0  0  0  0
   -1.1203   -2.2693    3.2912 H   0  0  0  0  0  0  0  0  0  0  0  0
    0.5938    0.7565    0.4619 C   0  0  0  0  0  0  0  0  0  0  0  0
    0.5938    0.7565   -1.0418 C   0  0  0  0  0  0  0  0  0  0  0  0
    0.5938    1.9508   -1.7558 C   0  0  0  0  0  3  0  0  0  0  0  0
    0.6243    1.9541   -3.1418 C   0  0  0  0  0  0  0  0  0  0  0  0
    0.6538    0.7571   -3.8409 C   0  0  0  0  0  0  0  0  0  0  0  0
    0.6507   -0.4402   -3.1418 C   0  0  0  0  0  0  0  0  0  0  0  0
    0.6201   -0.4376   -1.7558 C   0  0  0  0  0  0  0  0  0  0  0  0
    0.0039   -0.3103    0.9380 H   0  0  0  0  0  0  0  0  0  0  0  0
    1.6160    0.7677    0.8487 H   0  0  0  0  0  0  0  0  0  0  0  0
    0.0828    1.6343    0.8587 H   0  0  0  0  0  0  0  0  0  0  0  0
    0.5672    2.8919   -1.2180 H   0  0  0  0  0  0  0  0  0  0  0  0
    0.6216    2.8953   -3.6776 H   0  0  0  0  0  0  0  0  0  0  0  0
    0.6750    0.7573   -4.9232 H   0  0  0  0  0  0  0  0  0  0  0  0
    0.6688   -1.3813   -3.6776 H   0  0  0  0  0  0  0  0  0  0  0  0
    0.6143   -1.3790   -1.2180 H   0  0  0  0  0  0  0  0  0  0  0  0
  1  2  2  3
  1  5  1  0
  1  6  1  0
  2  3  1  0
  2 15  1  0
  3  4  2  0
  3  7  1  0
  8  9  2  3
  8 16  1  0
  8 17  1  0
  9 10  1  0
  9 14  1  0
 10 11  1  0
 10 18  1  0
 11 12  2  0
 11 19  1  0
 12 13  1  0
 12 20  1  0
 13 14  2  0
 13 21  1  0
 14 22  1  0
M  RAD  1  10   2
M  END
>  <reaction>  (18) 
rxn_1462

>  <mol_properties>  (18) 
{"1": {"label": "*1", "atom_type": "Cd"}, "2": {"label": "*0", "atom_type": "CS"}, "7": {"label": "*3", "atom_type": "Cd"}, "8": {"label": "*4", "atom_type": "Cd"}, "14": {"label": "*2", "atom_type": "H0"}}

>  <type>  (18) 
unop_14

>  <geom_source>  (18) 
gaussian_log

$$$$
