
     RDKit          3D

 13 12  0  0  0  0  0  0  0  0999 V2000
    2.2975   -0.6134    0.7685 C   0  0  0  0  0  0  0  0  0  0  0  0
    1.1676   -0.5248    0.3802 C   0  0  0  0  0  0  0  0  0  0  0  0
   -0.2109   -0.3926   -0.0948 C   0  0  0  0  0  0  0  0  0  0  0  0
   -0.2501    0.2584   -1.4808 C   0  0  0  0  0  0  0  0  0  0  0  0
   -1.0633    0.3831    0.9141 C   0  0  0  0  0  0  0  0  0  0  0  0
    3.2999   -0.6974    1.1133 H   0  0  0  0  0  0  0  0  0  0  0  0
   -0.6209   -1.4038   -0.1814 H   0  0  0  0  0  0  0  0  0  0  0  0
    0.3402   -0.3102   -2.1992 H   0  0  0  0  0  0  0  0  0  0  0  0
    0.1511    1.2724   -1.4369 H   0  0  0  0  0  0  0  0  0  0  0  0
   -1.2791    0.3109   -1.8407 H   0  0  0  0  0  0  0  0  0  0  0  0
   -0.6861    1.4008    1.0287 H   0  0  0  0  0  0  0  0  0  0  0  0
   -1.0492   -0.0971    1.8924 H   0  0  0  0  0  0  0  0  0  0  0  0
   -2.0971    0.4363    0.5680 H   0  0  0  0  0  0  0  0  0  0  0  0
  1  2  3  0
  1  6  1  0
  2  3  1  0
  3  4  1  0
  3  5  1  0
  3  7  1  0
  4  8  1  0
  4  9  1  0
  4 10  1  0
  5 11  1  0
  5 12  1  0
  5 13  1  0
M  END
>  <reaction>  (1) 
rxn_1327

>  <mol_properties>  (1) 
{"2": {"label": "donator", "atom_type": "Cs"}, "6": {"label": "d_hydrogen", "atom_type": "H0"}}

>  <type>  (1) 
r1h

$$$$

     RDKit          3D

  9  8  0  0  0  0  0  0  0  0999 V2000
   -1.2704   -0.1236    0.1096 C   0  0  0  0  0  0  0  0  0  0  0  0
    0.0713   -0.5323    0.5887 C   0  0  0  0  0  0  0  0  0  0  0  0
    0.9521   -1.3639   -0.0464 C   0  0  0  0  0  0  0  0  0  0  0  0
    0.6900   -2.1109   -1.5335 S   0  0  0  0  0  1  0  0  0  0  0  0
   -1.3201    0.9657    0.0241 H   0  0  0  0  0  0  0  0  0  0  0  0
   -1.5103   -0.5706   -0.8526 H   0  0  0  0  0  0  0  0  0  0  0  0
   -2.0312   -0.4112    0.8411 H   0  0  0  0  0  0  0  0  0  0  0  0
    0.3863   -0.1265    1.5468 H   0  0  0  0  0  0  0  0  0  0  0  0
    1.8971   -1.5543    0.4552 H   0  0  0  0  0  0  0  0  0  0  0  0
  1  2  1  0
  1  5  1  0
  1  6  1  0
  1  7  1  0
  2  3  2  3
  2  8  1  0
  3  4  1  0
  3  9  1  0
M  RAD  1   4   2
M  END
>  <reaction>  (2) 
rxn_1327

>  <mol_properties>  (2) 
{"1": {"label": "acceptor", "atom_type": "Cs"}}

>  <type>  (2) 
r2

$$$$

     RDKit          3D

 10  9  0  0  0  0  0  0  0  0999 V2000
   -1.1508    0.0666    0.2839 C   0  0  0  0  0  0  0  0  0  0  0  0
    0.1022   -0.3749   -0.4771 C   0  0  0  0  0  0  0  0  0  0  0  0
    1.3428    0.1620    0.1542 C   0  0  0  0  0  0  0  0  0  0  0  0
    2.5613   -0.6971    0.7526 S   0  0  0  0  0  0  0  0  0  0  0  0
   -1.2137    1.1546    0.3481 H   0  0  0  0  0  0  0  0  0  0  0  0
   -2.0472   -0.2935   -0.2212 H   0  0  0  0  0  0  0  0  0  0  0  0
   -1.1467   -0.3334    1.2987 H   0  0  0  0  0  0  0  0  0  0  0  0
    0.1602   -1.4616   -0.5369 H   0  0  0  0  0  0  0  0  0  0  0  0
    0.0536    0.0174   -1.4997 H   0  0  0  0  0  0  0  0  0  0  0  0
    1.3824    1.2528    0.2110 H   0  0  0  0  0  0  0  0  0  0  0  0
  1  2  1  0
  1  5  1  0
  1  6  1  0
  1  7  1  0
  2  3  1  0
  2  8  1  0
  2  9  1  0
  3  4  2  0
  3 10  1  0
M  END
>  <reaction>  (3) 
rxn_1327

>  <mol_properties>  (3) 
{"0": {"label": "a_hydrogen", "atom_type": "H0"}, "2": {"label": "acceptor", "atom_type": "Cs"}}

>  <type>  (3) 
r2h

$$$$

     RDKit          3D

 22 20  0  0  0  0  0  0  0  0999 V2000
   -2.3526    1.9846   -1.3439 C   0  0  0  0  0  0  0  0  0  0  0  0
   -1.3810    1.8830   -0.6408 C   0  0  0  0  0  0  0  0  0  0  0  0
   -0.2555    1.7036    0.2086 C   0  0  0  0  0  3  0  0  0  0  0  0
   -0.1835    2.5844    1.4320 C   0  0  0  0  0  0  0  0  0  0  0  0
    1.0620    1.4111   -0.4675 C   0  0  0  0  0  0  0  0  0  0  0  0
   -3.2048    2.0908   -1.9713 H   0  0  0  0  0  0  0  0  0  0  0  0
   -0.5271    0.4733    0.8277 H   0  0  0  0  0  0  0  0  0  0  0  0
   -1.1545    2.6696    1.9193 H   0  0  0  0  0  0  0  0  0  0  0  0
    0.1490    3.5895    1.1572 H   0  0  0  0  0  0  0  0  0  0  0  0
    0.5377    2.1770    2.1441 H   0  0  0  0  0  0  0  0  0  0  0  0
    1.5052    2.3375   -0.8455 H   0  0  0  0  0  0  0  0  0  0  0  0
    0.9358    0.7281   -1.3062 H   0  0  0  0  0  0  0  0  0  0  0  0
    1.7605    0.9683    0.2453 H   0  0  0  0  0  0  0  0  0  0  0  0
   -0.3721   -1.6191    0.1666 C   0  0  0  0  0  0  0  0  0  0  0  0
   -0.7042   -0.7081    1.3191 C   0  0  0  0  0  0  0  0  0  0  0  0
    0.1119   -0.6888    2.5054 C   0  0  0  0  0  0  0  0  0  0  0  0
    1.6480   -1.2295    2.6509 S   0  0  0  0  0  0  0  0  0  0  0  0
    0.6932   -1.5915   -0.0590 H   0  0  0  0  0  0  0  0  0  0  0  0
   -0.6298   -2.6519    0.4116 H   0  0  0  0  0  0  0  0  0  0  0  0
   -0.9353   -1.3280   -0.7214 H   0  0  0  0  0  0  0  0  0  0  0  0
   -1.7707   -0.6220    1.5318 H   0  0  0  0  0  0  0  0  0  0  0  0
   -0.3528   -0.2120    3.3688 H   0  0  0  0  0  0  0  0  0  0  0  0
  1  2  3  0
  1  6  1  0
  2  3  1  0
  3  4  1  0
  3  5  1  0
  4  8  1  0
  4  9  1  0
  4 10  1  0
  5 11  1  0
  5 12  1  0
  5 13  1  0
  7 15  1  0
 14 15  1  0
 14 18  1  0
 14 19  1  0
 14 20  1  0
 15 16  1  0
 15 21  1  0
 16 17  2  0
 16 22  1  0
M  RAD  1   3   2
M  END
>  <reaction>  (4) 
rxn_1327

>  <mol_properties>  (4) 
{"1": {"label": "*4", "atom_type": "Ct"}, "2": {"label": "*3", "atom_type": "Cs"}, "6": {"label": "*2", "atom_type": "H0"}, "14": {"label": "*1", "atom_type": "Cs"}, "15": {"label": "*0", "atom_type": "CS"}}

>  <type>  (4) 
ts

$$$$

     RDKit          3D

 22 20  0  0  0  0  0  0  0  0999 V2000
    0.3584    0.6405   -3.1291 C   0  0  0  0  0  3  0  0  0  0  0  0
    0.3584    0.6405   -1.9310 C   0  0  0  0  0  0  0  0  0  0  0  0
    0.3584    0.6645   -0.4672 C   0  0  0  0  0  3  0  0  0  0  0  0
   -0.9077    1.3409    0.0672 C   0  0  0  0  0  0  0  0  0  0  0  0
    1.6245    1.3409    0.0672 C   0  0  0  0  0  0  0  0  0  0  0  0
    0.3584    0.6405   -4.1924 H   0  0  0  0  0  0  0  0  0  0  0  0
    0.3584   -0.5842   -0.0593 H   0  0  0  0  0  0  0  0  0  0  0  0
   -1.8048    0.8416   -0.2988 H   0  0  0  0  0  0  0  0  0  0  0  0
   -0.9450    2.3844   -0.2504 H   0  0  0  0  0  0  0  0  0  0  0  0
   -0.9150    1.3129    1.1582 H   0  0  0  0  0  0  0  0  0  0  0  0
    1.6619    2.3844   -0.2504 H   0  0  0  0  0  0  0  0  0  0  0  0
    2.5216    0.8416   -0.2988 H   0  0  0  0  0  0  0  0  0  0  0  0
    1.6319    1.3129    1.1582 H   0  0  0  0  0  0  0  0  0  0  0  0
    1.5963   -2.1270    1.1965 C   0  0  0  0  0  0  0  0  0  0  0  0
    0.3584   -1.8274    0.3468 C   0  0  0  0  0  0  0  0  0  0  0  0
   -0.7196   -1.1892    1.1571 C   0  0  0  0  0  3  0  0  0  0  0  0
   -1.3726    0.2579    0.9114 S   0  0  0  0  0  0  0  0  0  0  0  0
    2.0322   -1.2043    1.5817 H   0  0  0  0  0  0  0  0  0  0  0  0
    1.3494   -2.7664    2.0462 H   0  0  0  0  0  0  0  0  0  0  0  0
    2.3513   -2.6377    0.5987 H   0  0  0  0  0  0  0  0  0  0  0  0
   -0.0377   -2.7699   -0.0490 H   0  0  0  0  0  0  0  0  0  0  0  0
   -1.0620   -1.7908    2.0029 H   0  0  0  0  0  0  0  0  0  0  0  0
  1  2  2  0
  1  6  1  0
  2  3  2  0
  3  5  1  0
  4 17  1  0
  4  8  1  0
  4  9  1  0
  4 10  1  0
  5 11  1  0
  5 12  1  0
  5 13  1  0
  7 15  1  0
 14 15  1  0
 14 18  1  0
 14 19  1  0
 14 20  1  0
 15 16  1  0
 15 21  1  0
 16 17  1  0
 16 22  1  0
M  CHG  2   1   1   3  -1
M  RAD  1  16   2
M  END
>  <reaction>  (5) 
rxn_1327

>  <mol_properties>  (5) 
{"1": {"label": "*4", "atom_type": "Ct"}, "2": {"label": "*3", "atom_type": "Cs"}, "6": {"label": "*2", "atom_type": "H0"}, "14": {"label": "*1", "atom_type": "Cs"}, "15": {"label": "*0", "atom_type": "CS"}}

>  <type>  (5) 
unop_1

>  <geom_source>  (5) 
Heuristics

$$$$

     RDKit          3D

 22 20  0  0  0  0  0  0  0  0999 V2000
   -0.4620    0.8335   -3.2234 C   0  0  0  0  0  0  0  0  0  0  0  0
   -0.4620    0.8335   -2.0253 C   0  0  0  0  0  0  0  0  0  0  0  0
   -0.4620    0.8574   -0.5615 C   0  0  0  0  0  3  0  0  0  0  0  0
   -1.7281    1.5339   -0.0272 C   0  0  0  0  0  0  0  0  0  0  0  0
    0.8041    1.5339   -0.0272 C   0  0  0  0  0  0  0  0  0  0  0  0
   -0.4620    0.8335   -4.2867 H   0  0  0  0  0  0  0  0  0  0  0  0
   -0.4620   -0.3912   -0.1536 H   0  0  0  0  0  0  0  0  0  0  0  0
   -2.6252    1.0346   -0.3931 H   0  0  0  0  0  0  0  0  0  0  0  0
   -1.7654    2.5774   -0.3447 H   0  0  0  0  0  0  0  0  0  0  0  0
   -1.7354    1.5059    1.0639 H   0  0  0  0  0  0  0  0  0  0  0  0
    0.8415    2.5774   -0.3447 H   0  0  0  0  0  0  0  0  0  0  0  0
    1.7012    1.0345   -0.3931 H   0  0  0  0  0  0  0  0  0  0  0  0
    0.8115    1.5059    1.0639 H   0  0  0  0  0  0  0  0  0  0  0  0
    0.2527   -2.5403   -0.7539 C   0  0  0  0  0  0  0  0  0  0  0  0
   -0.4620   -1.6344    0.2525 C   0  0  0  0  0  0  0  0  0  0  0  0
    0.3834   -1.3793    1.4550 C   0  0  0  0  0  0  0  0  0  0  0  0
    0.8996    0.0500    1.9765 S   0  0  0  0  0  0  0  0  0  0  0  0
    1.1556   -2.0594   -1.1323 H   0  0  0  0  0  0  0  0  0  0  0  0
    0.5392   -3.4905   -0.2991 H   0  0  0  0  0  0  0  0  0  0  0  0
   -0.4000   -2.7550   -1.6002 H   0  0  0  0  0  0  0  0  0  0  0  0
   -1.3784   -2.1322    0.5906 H   0  0  0  0  0  0  0  0  0  0  0  0
    0.6731   -2.2810    2.0003 H   0  0  0  0  0  0  0  0  0  0  0  0
  1  2  3  0
  1  6  1  0
  2  3  1  0
  3  4  1  0
  3  5  1  0
  4  8  1  0
  4  9  1  0
  4 10  1  0
  5 11  1  0
  5 12  1  0
  5 13  1  0
  7 15  1  0
 14 15  1  0
 14 18  1  0
 14 19  1  0
 14 20  1  0
 15 16  1  0
 15 21  1  0
 16 17  2  0
 16 22  1  0
M  RAD  1   3   2
M  END
>  <reaction>  (6) 
rxn_1327

>  <mol_properties>  (6) 
{"1": {"label": "*4", "atom_type": "Ct"}, "2": {"label": "*3", "atom_type": "Cs"}, "6": {"label": "*2", "atom_type": "H0"}, "14": {"label": "*1", "atom_type": "Cs"}, "15": {"label": "*0", "atom_type": "CS"}}

>  <type>  (6) 
unop_2

>  <geom_source>  (6) 
Heuristics

$$$$

     RDKit          3D

 22 20  0  0  0  0  0  0  0  0999 V2000
    0.5916    0.8167   -2.9259 C   0  0  0  0  0  0  0  0  0  0  0  0
    0.5916    0.8167   -1.7278 C   0  0  0  0  0  0  0  0  0  0  0  0
    0.5916    0.8407   -0.2640 C   0  0  0  0  0  3  0  0  0  0  0  0
   -0.6745    1.5171    0.2704 C   0  0  0  0  0  0  0  0  0  0  0  0
    1.8577    1.5171    0.2704 C   0  0  0  0  0  0  0  0  0  0  0  0
    0.5916    0.8167   -3.9892 H   0  0  0  0  0  0  0  0  0  0  0  0
    0.5916   -0.4080    0.1439 H   0  0  0  0  0  0  0  0  0  0  0  0
   -1.5716    1.0178   -0.0956 H   0  0  0  0  0  0  0  0  0  0  0  0
   -0.7118    2.5606   -0.0471 H   0  0  0  0  0  0  0  0  0  0  0  0
   -0.6818    1.4891    1.3614 H   0  0  0  0  0  0  0  0  0  0  0  0
    1.8951    2.5606   -0.0471 H   0  0  0  0  0  0  0  0  0  0  0  0
    2.7548    1.0178   -0.0956 H   0  0  0  0  0  0  0  0  0  0  0  0
    1.8651    1.4891    1.3614 H   0  0  0  0  0  0  0  0  0  0  0  0
    1.3063   -1.7884    1.8971 C   0  0  0  0  0  0  0  0  0  0  0  0
    0.5916   -1.6512    0.5500 C   0  0  0  0  0  0  0  0  0  0  0  0
   -0.8800   -1.4805    0.7268 C   0  0  0  0  0  0  0  0  0  0  0  0
   -1.7629   -0.2274    0.2459 S   0  0  0  0  0  0  0  0  0  0  0  0
    1.1899   -0.8800    2.4896 H   0  0  0  0  0  0  0  0  0  0  0  0
    0.9073   -2.6241    2.4750 H   0  0  0  0  0  0  0  0  0  0  0  0
    2.3715   -1.9623    1.7446 H   0  0  0  0  0  0  0  0  0  0  0  0
    0.7520   -2.5661   -0.0322 H   0  0  0  0  0  0  0  0  0  0  0  0
   -1.3678   -2.3039    1.2545 H   0  0  0  0  0  0  0  0  0  0  0  0
  1  2  3  0
  1  6  1  0
  2  3  1  0
  3  4  1  0
  3  5  1  0
  4  8  1  0
  4  9  1  0
  4 10  1  0
  5 11  1  0
  5 12  1  0
  5 13  1  0
  7 15  1  0
 14 15  1  0
 14 18  1  0
 14 19  1  0
 14 20  1  0
 15 16  1  0
 15 21  1  0
 16 17  2  0
 16 22  1  0
M  RAD  1   3   2
M  END
>  <reaction>  (7) 
rxn_1327

>  <mol_properties>  (7) 
{"1": {"label": "*4", "atom_type": "Ct"}, "2": {"label": "*3", "atom_type": "Cs"}, "6": {"label": "*2", "atom_type": "H0"}, "14": {"label": "*1", "atom_type": "Cs"}, "15": {"label": "*0", "atom_type": "CS"}}

>  <type>  (7) 
unop_3

>  <geom_source>  (7) 
Heuristics

$$$$

     RDKit          3D

 22 20  0  0  0  0  0  0  0  0999 V2000
   -0.5462    1.5063   -2.7090 C   0  0  0  0  0  0  0  0  0  0  0  0
   -0.5462    1.5063   -1.5109 C   0  0  0  0  0  0  0  0  0  0  0  0
   -0.5462    1.5302   -0.0471 C   0  0  0  0  0  3  0  0  0  0  0  0
   -1.8123    2.2067    0.4872 C   0  0  0  0  0  0  0  0  0  0  0  0
    0.7200    2.2067    0.4872 C   0  0  0  0  0  0  0  0  0  0  0  0
   -0.5462    1.5063   -3.7723 H   0  0  0  0  0  0  0  0  0  0  0  0
   -0.5462    0.2816    0.3608 H   0  0  0  0  0  0  0  0  0  0  0  0
   -2.7093    1.7074    0.1213 H   0  0  0  0  0  0  0  0  0  0  0  0
   -1.8496    3.2502    0.1697 H   0  0  0  0  0  0  0  0  0  0  0  0
   -1.8196    2.1787    1.5783 H   0  0  0  0  0  0  0  0  0  0  0  0
    0.7573    3.2502    0.1697 H   0  0  0  0  0  0  0  0  0  0  0  0
    1.6170    1.7073    0.1213 H   0  0  0  0  0  0  0  0  0  0  0  0
    0.7273    2.1786    1.5783 H   0  0  0  0  0  0  0  0  0  0  0  0
   -1.7841   -1.7051    0.2579 C   0  0  0  0  0  0  0  0  0  0  0  0
   -0.5462   -0.9616    0.7669 C   0  0  0  0  0  0  0  0  0  0  0  0
    0.5840   -1.8989    1.0315 C   0  0  0  0  0  0  0  0  0  0  0  0
    2.0301   -1.8764    0.3319 S   0  0  0  0  0  0  0  0  0  0  0  0
   -1.5783   -2.1869   -0.6988 H   0  0  0  0  0  0  0  0  0  0  0  0
   -2.1035   -2.4742    0.9636 H   0  0  0  0  0  0  0  0  0  0  0  0
   -2.6125   -1.0103    0.1189 H   0  0  0  0  0  0  0  0  0  0  0  0
   -0.7937   -0.4648    1.7122 H   0  0  0  0  0  0  0  0  0  0  0  0
    0.3620   -2.6737    1.7696 H   0  0  0  0  0  0  0  0  0  0  0  0
  1  2  3  0
  1  6  1  0
  2  3  1  0
  3  4  1  0
  3  5  1  0
  4  8  1  0
  4  9  1  0
  4 10  1  0
  5 11  1  0
  5 12  1  0
  5 13  1  0
  7 15  1  0
 14 15  1  0
 14 18  1  0
 14 19  1  0
 14 20  1  0
 15 16  1  0
 15 21  1  0
 16 17  2  0
 16 22  1  0
M  RAD  1   3   2
M  END
>  <reaction>  (8) 
rxn_1327

>  <mol_properties>  (8) 
{"1": {"label": "*4", "atom_type": "Ct"}, "2": {"label": "*3", "atom_type": "Cs"}, "6": {"label": "*2", "atom_type": "H0"}, "14": {"label": "*1", "atom_type": "Cs"}, "15": {"label": "*0", "atom_type": "CS"}}

>  <type>  (8) 
unop_4

>  <geom_source>  (8) 
Heuristics

$$$$

     RDKit          3D

 22 20  0  0  0  0  0  0  0  0999 V2000
    0.6284    1.2329   -2.6045 C   0  0  0  0  0  0  0  0  0  0  0  0
    0.6284    1.2329   -1.4064 C   0  0  0  0  0  0  0  0  0  0  0  0
    0.6284    1.2568    0.0574 C   0  0  0  0  0  3  0  0  0  0  0  0
   -0.6377    1.9333    0.5917 C   0  0  0  0  0  0  0  0  0  0  0  0
    1.8946    1.9333    0.5917 C   0  0  0  0  0  0  0  0  0  0  0  0
    0.6284    1.2329   -3.6678 H   0  0  0  0  0  0  0  0  0  0  0  0
    0.6284    0.0082    0.4653 H   0  0  0  0  0  0  0  0  0  0  0  0
   -1.5347    1.4340    0.2258 H   0  0  0  0  0  0  0  0  0  0  0  0
   -0.6750    2.9768    0.2742 H   0  0  0  0  0  0  0  0  0  0  0  0
   -0.6450    1.9053    1.6828 H   0  0  0  0  0  0  0  0  0  0  0  0
    1.9319    2.9768    0.2742 H   0  0  0  0  0  0  0  0  0  0  0  0
    2.7916    1.4339    0.2258 H   0  0  0  0  0  0  0  0  0  0  0  0
    1.9019    1.9053    1.6828 H   0  0  0  0  0  0  0  0  0  0  0  0
    0.6284   -1.3127    2.4005 C   0  0  0  0  0  0  0  0  0  0  0  0
    0.6284   -1.2350    0.8714 C   0  0  0  0  0  0  0  0  0  0  0  0
   -0.5400   -1.9560    0.2874 C   0  0  0  0  0  0  0  0  0  0  0  0
   -1.6964   -1.3204   -0.6291 S   0  0  0  0  0  0  0  0  0  0  0  0
   -0.2519   -0.8171    2.8118 H   0  0  0  0  0  0  0  0  0  0  0  0
    0.6272   -2.3484    2.7455 H   0  0  0  0  0  0  0  0  0  0  0  0
    1.5151   -0.8241    2.8045 H   0  0  0  0  0  0  0  0  0  0  0  0
    1.5380   -1.7143    0.4912 H   0  0  0  0  0  0  0  0  0  0  0  0
   -0.5875   -3.0172    0.5442 H   0  0  0  0  0  0  0  0  0  0  0  0
  1  2  3  0
  1  6  1  0
  2  3  1  0
  3  4  1  0
  3  5  1  0
  4  8  1  0
  4  9  1  0
  4 10  1  0
  5 11  1  0
  5 12  1  0
  5 13  1  0
  7 15  1  0
 14 15  1  0
 14 18  1  0
 14 19  1  0
 14 20  1  0
 15 16  1  0
 15 21  1  0
 16 17  2  0
 16 22  1  0
M  RAD  1   3   2
M  END
>  <reaction>  (9) 
rxn_1327

>  <mol_properties>  (9) 
{"1": {"label": "*4", "atom_type": "Ct"}, "2": {"label": "*3", "atom_type": "Cs"}, "6": {"label": "*2", "atom_type": "H0"}, "14": {"label": "*1", "atom_type": "Cs"}, "15": {"label": "*0", "atom_type": "CS"}}

>  <type>  (9) 
unop_5

>  <geom_source>  (9) 
Heuristics

$$$$

     RDKit          3D

 22 20  0  0  0  0  0  0  0  0999 V2000
   -0.3786    1.6146   -2.5536 C   0  0  0  0  0  0  0  0  0  0  0  0
   -0.3786    1.6146   -1.3556 C   0  0  0  0  0  0  0  0  0  0  0  0
   -0.3786    1.6386    0.1082 C   0  0  0  0  0  3  0  0  0  0  0  0
   -1.6447    2.3150    0.6426 C   0  0  0  0  0  0  0  0  0  0  0  0
    0.8876    2.3150    0.6426 C   0  0  0  0  0  0  0  0  0  0  0  0
   -0.3786    1.6146   -3.6170 H   0  0  0  0  0  0  0  0  0  0  0  0
   -0.3786    0.3899    0.5161 H   0  0  0  0  0  0  0  0  0  0  0  0
   -2.5417    1.8157    0.2767 H   0  0  0  0  0  0  0  0  0  0  0  0
   -1.6820    3.3585    0.3251 H   0  0  0  0  0  0  0  0  0  0  0  0
   -1.6520    2.2870    1.7337 H   0  0  0  0  0  0  0  0  0  0  0  0
    0.9249    3.3585    0.3251 H   0  0  0  0  0  0  0  0  0  0  0  0
    1.7846    1.8157    0.2767 H   0  0  0  0  0  0  0  0  0  0  0  0
    0.8949    2.2870    1.7337 H   0  0  0  0  0  0  0  0  0  0  0  0
   -1.8080   -1.3748    1.0926 C   0  0  0  0  0  0  0  0  0  0  0  0
   -0.3786   -0.8533    0.9222 C   0  0  0  0  0  0  0  0  0  0  0  0
    0.6049   -1.9719    0.8364 C   0  0  0  0  0  0  0  0  0  0  0  0
    1.5890   -2.2892   -0.3932 S   0  0  0  0  0  0  0  0  0  0  0  0
   -2.1112   -1.9600    0.2235 H   0  0  0  0  0  0  0  0  0  0  0  0
   -1.8966   -2.0091    1.9766 H   0  0  0  0  0  0  0  0  0  0  0  0
   -2.5038   -0.5431    1.2036 H   0  0  0  0  0  0  0  0  0  0  0  0
   -0.1152   -0.2461    1.7962 H   0  0  0  0  0  0  0  0  0  0  0  0
    0.6161   -2.6285    1.7101 H   0  0  0  0  0  0  0  0  0  0  0  0
  1  2  3  0
  1  6  1  0
  2  3  1  0
  3  4  1  0
  3  5  1  0
  4  8  1  0
  4  9  1  0
  4 10  1  0
  5 11  1  0
  5 12  1  0
  5 13  1  0
  7 15  1  0
 14 15  1  0
 14 18  1  0
 14 19  1  0
 14 20  1  0
 15 16  1  0
 15 21  1  0
 16 17  2  0
 16 22  1  0
M  RAD  1   3   2
M  END
>  <reaction>  (10) 
rxn_1327

>  <mol_properties>  (10) 
{"1": {"label": "*4", "atom_type": "Ct"}, "2": {"label": "*3", "atom_type": "Cs"}, "6": {"label": "*2", "atom_type": "H0"}, "14": {"label": "*1", "atom_type": "Cs"}, "15": {"label": "*0", "atom_type": "CS"}}

>  <type>  (10) 
unop_6

>  <geom_source>  (10) 
Heuristics

$$$$

     RDKit          3D

 22 20  0  0  0  0  0  0  0  0999 V2000
   -0.1244    1.6581   -2.4295 C   0  0  0  0  0  0  0  0  0  0  0  0
   -0.1244    1.6581   -1.2314 C   0  0  0  0  0  0  0  0  0  0  0  0
   -0.1244    1.6821    0.2324 C   0  0  0  0  0  3  0  0  0  0  0  0
   -1.3905    2.3585    0.7667 C   0  0  0  0  0  0  0  0  0  0  0  0
    1.1417    2.3585    0.7667 C   0  0  0  0  0  0  0  0  0  0  0  0
   -0.1244    1.6581   -3.4928 H   0  0  0  0  0  0  0  0  0  0  0  0
   -0.1245    0.4334    0.6403 H   0  0  0  0  0  0  0  0  0  0  0  0
   -2.2876    1.8592    0.4008 H   0  0  0  0  0  0  0  0  0  0  0  0
   -1.4279    3.4020    0.4492 H   0  0  0  0  0  0  0  0  0  0  0  0
   -1.3979    2.3305    1.8578 H   0  0  0  0  0  0  0  0  0  0  0  0
    1.1791    3.4020    0.4492 H   0  0  0  0  0  0  0  0  0  0  0  0
    2.0387    1.8592    0.4008 H   0  0  0  0  0  0  0  0  0  0  0  0
    1.1490    2.3305    1.8578 H   0  0  0  0  0  0  0  0  0  0  0  0
   -1.3624   -1.1094    1.8961 C   0  0  0  0  0  0  0  0  0  0  0  0
   -0.1245   -0.8098    1.0464 C   0  0  0  0  0  0  0  0  0  0  0  0
    0.5185   -2.0636    0.5560 C   0  0  0  0  0  0  0  0  0  0  0  0
    0.7410   -2.4890   -0.9771 S   0  0  0  0  0  0  0  0  0  0  0  0
   -2.1260   -1.6122    1.3013 H   0  0  0  0  0  0  0  0  0  0  0  0
   -1.1160   -1.7508    2.7444 H   0  0  0  0  0  0  0  0  0  0  0  0
   -1.7874   -0.1842    2.2854 H   0  0  0  0  0  0  0  0  0  0  0  0
    0.6102   -0.2793    1.6633 H   0  0  0  0  0  0  0  0  0  0  0  0
    0.8432   -2.7420    1.3490 H   0  0  0  0  0  0  0  0  0  0  0  0
  1  2  3  0
  1  6  1  0
  2  3  1  0
  3  4  1  0
  3  5  1  0
  4  8  1  0
  4  9  1  0
  4 10  1  0
  5 11  1  0
  5 12  1  0
  5 13  1  0
  7 15  1  0
 14 15  1  0
 14 18  1  0
 14 19  1  0
 14 20  1  0
 15 16  1  0
 15 21  1  0
 16 17  2  0
 16 22  1  0
M  RAD  1   3   2
M  END
>  <reaction>  (11) 
rxn_1327

>  <mol_properties>  (11) 
{"1": {"label": "*4", "atom_type": "Ct"}, "2": {"label": "*3", "atom_type": "Cs"}, "6": {"label": "*2", "atom_type": "H0"}, "14": {"label": "*1", "atom_type": "Cs"}, "15": {"label": "*0", "atom_type": "CS"}}

>  <type>  (11) 
unop_7

>  <geom_source>  (11) 
Heuristics

$$$$

     RDKit          3D

 22 20  0  0  0  0  0  0  0  0999 V2000
    0.0932    0.6060   -3.2471 C   0  0  0  0  0  0  0  0  0  0  0  0
    0.0932    0.6060   -2.0490 C   0  0  0  0  0  0  0  0  0  0  0  0
    0.0932    0.6299   -0.5852 C   0  0  0  0  0  0  0  0  0  0  0  0
   -1.1729    1.3064   -0.0508 C   0  0  0  0  0  0  0  0  0  0  0  0
    1.3594    1.3064   -0.0508 C   0  0  0  0  0  0  0  0  0  0  0  0
    0.0932    0.6060   -4.3104 H   0  0  0  0  0  0  0  0  0  0  0  0
    0.0932   -0.6187   -0.1773 H   0  0  0  0  0  0  0  0  0  0  0  0
   -2.0699    0.8071   -0.4168 H   0  0  0  0  0  0  0  0  0  0  0  0
   -1.2102    2.3499   -0.3684 H   0  0  0  0  0  0  0  0  0  0  0  0
   -1.1802    1.2784    1.0402 H   0  0  0  0  0  0  0  0  0  0  0  0
    1.3967    2.3499   -0.3684 H   0  0  0  0  0  0  0  0  0  0  0  0
    2.2564    0.8070   -0.4168 H   0  0  0  0  0  0  0  0  0  0  0  0
    1.3667    1.2784    1.0402 H   0  0  0  0  0  0  0  0  0  0  0  0
    1.5226   -2.3835    0.3992 C   0  0  0  0  0  0  0  0  0  0  0  0
    0.0932   -1.8619    0.2288 C   0  0  0  0  0  0  0  0  0  0  0  0
   -0.3597   -1.1053    1.4322 C   0  0  0  0  0  3  0  0  0  0  0  0
   -0.8187    0.4337    1.4787 S   0  0  0  0  0  0  0  0  0  0  0  0
    2.2255   -1.5557    0.5014 H   0  0  0  0  0  0  0  0  0  0  0  0
    1.6117   -3.0159    1.2846 H   0  0  0  0  0  0  0  0  0  0  0  0
    1.8157   -2.9750   -0.4682 H   0  0  0  0  0  0  0  0  0  0  0  0
   -0.5832   -2.7148    0.0990 H   0  0  0  0  0  0  0  0  0  0  0  0
   -0.3494   -1.6856    2.3582 H   0  0  0  0  0  0  0  0  0  0  0  0
  1  2  3  0
  1  6  1  0
  2  3  1  0
  3  4  2  3
  3  5  1  0
  4  8  1  0
  4  9  1  0
  5 11  1  0
  5 12  1  0
  5 13  1  0
  7 15  1  0
 10 17  1  0
 14 15  1  0
 14 18  1  0
 14 19  1  0
 14 20  1  0
 15 16  1  0
 15 21  1  0
 16 17  1  0
 16 22  1  0
M  RAD  1  16   2
M  END
>  <reaction>  (12) 
rxn_1327

>  <mol_properties>  (12) 
{"1": {"label": "*4", "atom_type": "Ct"}, "2": {"label": "*3", "atom_type": "Cs"}, "6": {"label": "*2", "atom_type": "H0"}, "14": {"label": "*1", "atom_type": "Cs"}, "15": {"label": "*0", "atom_type": "CS"}}

>  <type>  (12) 
unop_8

>  <geom_source>  (12) 
Heuristics

$$$$

     RDKit          3D

 22 20  0  0  0  0  0  0  0  0999 V2000
   -0.6426    1.3276   -2.8837 C   0  0  0  0  0  0  0  0  0  0  0  0
   -0.6426    1.3276   -1.6856 C   0  0  0  0  0  0  0  0  0  0  0  0
   -0.6426    1.3515   -0.2218 C   0  0  0  0  0  3  0  0  0  0  0  0
   -1.9087    2.0280    0.3125 C   0  0  0  0  0  0  0  0  0  0  0  0
    0.6236    2.0280    0.3125 C   0  0  0  0  0  0  0  0  0  0  0  0
   -0.6426    1.3276   -3.9470 H   0  0  0  0  0  0  0  0  0  0  0  0
   -0.6426    0.1029    0.1861 H   0  0  0  0  0  0  0  0  0  0  0  0
   -2.8057    1.5287   -0.0534 H   0  0  0  0  0  0  0  0  0  0  0  0
   -1.9460    3.0715   -0.0050 H   0  0  0  0  0  0  0  0  0  0  0  0
   -1.9160    2.0000    1.4036 H   0  0  0  0  0  0  0  0  0  0  0  0
    0.6610    3.0715   -0.0050 H   0  0  0  0  0  0  0  0  0  0  0  0
    1.5206    1.5286   -0.0534 H   0  0  0  0  0  0  0  0  0  0  0  0
    0.6309    2.0000    1.4036 H   0  0  0  0  0  0  0  0  0  0  0  0
   -1.3573   -2.0462   -0.4142 C   0  0  0  0  0  0  0  0  0  0  0  0
   -0.6426   -1.1403    0.5922 C   0  0  0  0  0  0  0  0  0  0  0  0
    0.5656   -1.8038    1.1631 C   0  0  0  0  0  0  0  0  0  0  0  0
    2.0822   -1.2839    1.0595 S   0  0  0  0  0  0  0  0  0  0  0  0
   -0.7129   -2.2575   -1.2684 H   0  0  0  0  0  0  0  0  0  0  0  0
   -1.6417   -2.9974    0.0399 H   0  0  0  0  0  0  0  0  0  0  0  0
   -2.2633   -1.5637   -0.7812 H   0  0  0  0  0  0  0  0  0  0  0  0
   -1.3252   -0.9229    1.4220 H   0  0  0  0  0  0  0  0  0  0  0  0
    0.3593   -2.7429    1.6828 H   0  0  0  0  0  0  0  0  0  0  0  0
  1  2  3  0
  1  6  1  0
  2  3  1  0
  3  4  1  0
  3  5  1  0
  4  8  1  0
  4  9  1  0
  4 10  1  0
  5 11  1  0
  5 12  1  0
  5 13  1  0
  7 15  1  0
 14 15  1  0
 14 18  1  0
 14 19  1  0
 14 20  1  0
 15 16  1  0
 15 21  1  0
 16 17  2  0
 16 22  1  0
M  RAD  1   3   2
M  END
>  <reaction>  (13) 
rxn_1327

>  <mol_properties>  (13) 
{"1": {"label": "*4", "atom_type": "Ct"}, "2": {"label": "*3", "atom_type": "Cs"}, "6": {"label": "*2", "atom_type": "H0"}, "14": {"label": "*1", "atom_type": "Cs"}, "15": {"label": "*0", "atom_type": "CS"}}

>  <type>  (13) 
unop_9

>  <geom_source>  (13) 
Heuristics

$$$$

     RDKit          3D

 22 20  0  0  0  0  0  0  0  0999 V2000
   -0.1934    0.6689   -3.2847 C   0  0  0  0  0  0  0  0  0  0  0  0
   -0.1934    0.6689   -2.0866 C   0  0  0  0  0  0  0  0  0  0  0  0
   -0.1934    0.6929   -0.6228 C   0  0  0  0  0  3  0  0  0  0  0  0
   -1.4595    1.3693   -0.0884 C   0  0  0  0  0  0  0  0  0  0  0  0
    1.0727    1.3693   -0.0884 C   0  0  0  0  0  0  0  0  0  0  0  0
   -0.1934    0.6689   -4.3480 H   0  0  0  0  0  0  0  0  0  0  0  0
   -0.1934   -0.5558   -0.2149 H   0  0  0  0  0  0  0  0  0  0  0  0
   -2.3566    0.8700   -0.4544 H   0  0  0  0  0  0  0  0  0  0  0  0
   -1.4969    2.4128   -0.4060 H   0  0  0  0  0  0  0  0  0  0  0  0
   -1.4669    1.3413    1.0026 H   0  0  0  0  0  0  0  0  0  0  0  0
    1.1101    2.4128   -0.4060 H   0  0  0  0  0  0  0  0  0  0  0  0
    1.9698    0.8700   -0.4544 H   0  0  0  0  0  0  0  0  0  0  0  0
    1.0800    1.3413    1.0026 H   0  0  0  0  0  0  0  0  0  0  0  0
    1.0444   -2.5425   -0.3178 C   0  0  0  0  0  0  0  0  0  0  0  0
   -0.1935   -1.7990    0.1912 C   0  0  0  0  0  0  0  0  0  0  0  0
    0.0514   -1.1794    1.5261 C   0  0  0  0  0  0  0  0  0  0  0  0
   -0.0336    0.3841    1.8859 S   0  0  0  0  0  0  0  0  0  0  0  0
    1.8748   -1.8513   -0.4680 H   0  0  0  0  0  0  0  0  0  0  0  0
    1.3653   -3.3100    0.3891 H   0  0  0  0  0  0  0  0  0  0  0  0
    0.8292   -3.0293   -1.2691 H   0  0  0  0  0  0  0  0  0  0  0  0
   -1.0166   -2.5143    0.3032 H   0  0  0  0  0  0  0  0  0  0  0  0
    0.3293   -1.8910    2.3077 H   0  0  0  0  0  0  0  0  0  0  0  0
  1  2  3  0
  1  6  1  0
  2  3  1  0
  3  4  1  0
  3  5  1  0
  4  8  1  0
  4  9  1  0
  4 10  1  0
  5 11  1  0
  5 12  1  0
  5 13  1  0
  7 15  1  0
 14 15  1  0
 14 18  1  0
 14 19  1  0
 14 20  1  0
 15 16  1  0
 15 21  1  0
 16 17  2  0
 16 22  1  0
M  RAD  1   3   2
M  END
>  <reaction>  (14) 
rxn_1327

>  <mol_properties>  (14) 
{"1": {"label": "*4", "atom_type": "Ct"}, "2": {"label": "*3", "atom_type": "Cs"}, "6": {"label": "*2", "atom_type": "H0"}, "14": {"label": "*1", "atom_type": "Cs"}, "15": {"label": "*0", "atom_type": "CS"}}

>  <type>  (14) 
unop_10

>  <geom_source>  (14) 
Heuristics

$$$$

     RDKit          3D

 22 20  0  0  0  0  0  0  0  0999 V2000
    0.2541    1.5829   -2.3992 C   0  0  0  0  0  0  0  0  0  0  0  0
    0.2541    1.5829   -1.2011 C   0  0  0  0  0  0  0  0  0  0  0  0
    0.2541    1.6068    0.2627 C   0  0  0  0  0  3  0  0  0  0  0  0
   -1.0120    2.2833    0.7971 C   0  0  0  0  0  0  0  0  0  0  0  0
    1.5203    2.2832    0.7971 C   0  0  0  0  0  0  0  0  0  0  0  0
    0.2541    1.5829   -3.4625 H   0  0  0  0  0  0  0  0  0  0  0  0
    0.2541    0.3581    0.6706 H   0  0  0  0  0  0  0  0  0  0  0  0
   -1.9090    1.7840    0.4311 H   0  0  0  0  0  0  0  0  0  0  0  0
   -1.0493    3.3268    0.4796 H   0  0  0  0  0  0  0  0  0  0  0  0
   -1.0193    2.2553    1.8881 H   0  0  0  0  0  0  0  0  0  0  0  0
    1.5576    3.3267    0.4796 H   0  0  0  0  0  0  0  0  0  0  0  0
    2.4173    1.7839    0.4311 H   0  0  0  0  0  0  0  0  0  0  0  0
    1.5276    2.2552    1.8881 H   0  0  0  0  0  0  0  0  0  0  0  0
   -0.4606   -1.0222    2.4238 C   0  0  0  0  0  0  0  0  0  0  0  0
    0.2541   -0.8851    1.0767 C   0  0  0  0  0  0  0  0  0  0  0  0
    0.1533   -2.1388    0.2742 C   0  0  0  0  0  0  0  0  0  0  0  0
   -0.5201   -2.2955   -1.1760 S   0  0  0  0  0  0  0  0  0  0  0  0
   -1.5290   -1.1871    2.2785 H   0  0  0  0  0  0  0  0  0  0  0  0
   -0.0633   -1.8595    3.0007 H   0  0  0  0  0  0  0  0  0  0  0  0
   -0.3325   -0.1151    3.0145 H   0  0  0  0  0  0  0  0  0  0  0  0
    1.3179   -0.6910    1.2569 H   0  0  0  0  0  0  0  0  0  0  0  0
    0.5772   -3.0200    0.7622 H   0  0  0  0  0  0  0  0  0  0  0  0
  1  2  3  0
  1  6  1  0
  2  3  1  0
  3  4  1  0
  3  5  1  0
  4  8  1  0
  4  9  1  0
  4 10  1  0
  5 11  1  0
  5 12  1  0
  5 13  1  0
  7 15  1  0
 14 15  1  0
 14 18  1  0
 14 19  1  0
 14 20  1  0
 15 16  1  0
 15 21  1  0
 16 17  2  0
 16 22  1  0
M  RAD  1   3   2
M  END
>  <reaction>  (15) 
rxn_1327

>  <mol_properties>  (15) 
{"1": {"label": "*4", "atom_type": "Ct"}, "2": {"label": "*3", "atom_type": "Cs"}, "6": {"label": "*2", "atom_type": "H0"}, "14": {"label": "*1", "atom_type": "Cs"}, "15": {"label": "*0", "atom_type": "CS"}}

>  <type>  (15) 
unop_11

>  <geom_source>  (15) 
Heuristics

$$$$

     RDKit          3D

 22 20  0  0  0  0  0  0  0  0999 V2000
   -0.6284    1.0805   -3.0710 C   0  0  0  0  0  0  0  0  0  0  0  0
   -0.6284    1.0805   -1.8729 C   0  0  0  0  0  0  0  0  0  0  0  0
   -0.6284    1.1045   -0.4091 C   0  0  0  0  0  3  0  0  0  0  0  0
   -1.8945    1.7809    0.1253 C   0  0  0  0  0  0  0  0  0  0  0  0
    0.6377    1.7809    0.1253 C   0  0  0  0  0  0  0  0  0  0  0  0
   -0.6284    1.0805   -4.1343 H   0  0  0  0  0  0  0  0  0  0  0  0
   -0.6284   -0.1442   -0.0012 H   0  0  0  0  0  0  0  0  0  0  0  0
   -2.7916    1.2816   -0.2407 H   0  0  0  0  0  0  0  0  0  0  0  0
   -1.9318    2.8244   -0.1922 H   0  0  0  0  0  0  0  0  0  0  0  0
   -1.9018    1.7529    1.2163 H   0  0  0  0  0  0  0  0  0  0  0  0
    0.6751    2.8244   -0.1922 H   0  0  0  0  0  0  0  0  0  0  0  0
    1.5348    1.2816   -0.2407 H   0  0  0  0  0  0  0  0  0  0  0  0
    0.6451    1.7529    1.2163 H   0  0  0  0  0  0  0  0  0  0  0  0
   -0.6284   -2.3528   -0.7835 C   0  0  0  0  0  0  0  0  0  0  0  0
   -0.6284   -1.3874    0.4049 C   0  0  0  0  0  0  0  0  0  0  0  0
    0.5399   -1.6246    1.3019 C   0  0  0  0  0  0  0  0  0  0  0  0
    1.6964   -0.5706    1.6665 S   0  0  0  0  0  0  0  0  0  0  0  0
    0.2519   -2.1956   -1.4080 H   0  0  0  0  0  0  0  0  0  0  0  0
   -0.6272   -3.3924   -0.4505 H   0  0  0  0  0  0  0  0  0  0  0  0
   -1.5152   -2.1968   -1.3980 H   0  0  0  0  0  0  0  0  0  0  0  0
   -1.5381   -1.5498    0.9948 H   0  0  0  0  0  0  0  0  0  0  0  0
    0.5874   -2.6328    1.7211 H   0  0  0  0  0  0  0  0  0  0  0  0
  1  2  3  0
  1  6  1  0
  2  3  1  0
  3  4  1  0
  3  5  1  0
  4  8  1  0
  4  9  1  0
  4 10  1  0
  5 11  1  0
  5 12  1  0
  5 13  1  0
  7 15  1  0
 14 15  1  0
 14 18  1  0
 14 19  1  0
 14 20  1  0
 15 16  1  0
 15 21  1  0
 16 17  2  0
 16 22  1  0
M  RAD  1   3   2
M  END
>  <reaction>  (16) 
rxn_1327

>  <mol_properties>  (16) 
{"1": {"label": "*4", "atom_type": "Ct"}, "2": {"label": "*3", "atom_type": "Cs"}, "6": {"label": "*2", "atom_type": "H0"}, "14": {"label": "*1", "atom_type": "Cs"}, "15": {"label": "*0", "atom_type": "CS"}}

>  <type>  (16) 
unop_12

>  <geom_source>  (16) 
Heuristics

$$$$

     RDKit          3D

 22 20  0  0  0  0  0  0  0  0999 V2000
    3.6644    0.1654    0.9980 S   0  0  0  0  0  1  0  0  0  0  0  0
    1.4842    0.0076   -0.3432 C   0  0  0  0  0  0  0  0  0  0  0  0
    1.9107   -0.8458   -1.5342 C   0  0  0  0  0  0  0  0  0  0  0  0
   -1.9740   -0.8388   -0.4417 C   0  0  0  0  0  0  0  0  0  0  0  0
   -1.2900    0.0932    1.8049 C   0  0  0  0  0  0  0  0  0  0  0  0
   -1.0498    0.1284    0.2964 C   0  0  0  0  0  0  0  0  0  0  0  0
    2.3072   -0.2938    0.8786 C   0  0  0  0  0  0  0  0  0  0  0  0
   -1.2126    1.4953   -0.2210 C   0  0  0  0  0  0  0  0  0  0  0  0
   -1.3453    2.6160   -0.6455 C   0  0  0  0  0  0  0  0  0  0  0  0
    1.5562    1.0864   -0.6045 H   0  0  0  0  0  0  0  0  0  0  0  0
    0.1770   -0.2689   -0.0647 H   0  0  0  0  0  0  0  0  0  0  0  0
    1.2441   -0.6338   -2.3960 H   0  0  0  0  0  0  0  0  0  0  0  0
    1.8314   -1.9242   -1.2804 H   0  0  0  0  0  0  0  0  0  0  0  0
    2.9560   -0.6112   -1.8277 H   0  0  0  0  0  0  0  0  0  0  0  0
   -1.7507   -0.8202   -1.5297 H   0  0  0  0  0  0  0  0  0  0  0  0
   -3.0395   -0.5635   -0.2847 H   0  0  0  0  0  0  0  0  0  0  0  0
   -1.8094   -1.8733   -0.0734 H   0  0  0  0  0  0  0  0  0  0  0  0
   -0.5793    0.7758    2.3177 H   0  0  0  0  0  0  0  0  0  0  0  0
   -2.3299    0.4034    2.0460 H   0  0  0  0  0  0  0  0  0  0  0  0
   -1.1202   -0.9343    2.1902 H   0  0  0  0  0  0  0  0  0  0  0  0
    1.8313   -0.7631    1.7330 H   0  0  0  0  0  0  0  0  0  0  0  0
   -1.4619    3.5996   -1.0181 H   0  0  0  0  0  0  0  0  0  0  0  0
  1  7  1  0
  2  3  1  0
  2  7  2  3
  2 10  1  0
  3 12  1  0
  3 13  1  0
  3 14  1  0
  4  6  1  0
  4 15  1  0
  4 16  1  0
  4 17  1  0
  5  6  1  0
  5 18  1  0
  5 19  1  0
  5 20  1  0
  6  8  1  0
  6 11  1  0
  7 21  1  0
  8  9  3  0
  9 22  1  0
M  RAD  1   1   2
M  END
>  <reaction>  (17) 
rxn_1327

>  <mol_properties>  (17) 
{"1": {"label": "*4", "atom_type": "Ct"}, "2": {"label": "*3", "atom_type": "Cs"}, "6": {"label": "*2", "atom_type": "H0"}, "14": {"label": "*1", "atom_type": "Cs"}, "15": {"label": "*0", "atom_type": "CS"}}

>  <type>  (17) 
unop_13

>  <geom_source>  (17) 
AutoTST

$$$$

     RDKit          3D

 22 20  0  0  0  0  0  0  0  0999 V2000
   -0.4620    0.8335   -3.2234 C   0  0  0  0  0  0  0  0  0  0  0  0
   -0.4620    0.8335   -2.0253 C   0  0  0  0  0  0  0  0  0  0  0  0
   -0.4620    0.8575   -0.5615 C   0  0  0  0  0  3  0  0  0  0  0  0
   -1.7281    1.5339   -0.0272 C   0  0  0  0  0  0  0  0  0  0  0  0
    0.8041    1.5339   -0.0272 C   0  0  0  0  0  0  0  0  0  0  0  0
   -0.4620    0.8335   -4.2867 H   0  0  0  0  0  0  0  0  0  0  0  0
   -0.4620   -0.3912   -0.1536 H   0  0  0  0  0  0  0  0  0  0  0  0
   -2.6252    1.0346   -0.3931 H   0  0  0  0  0  0  0  0  0  0  0  0
   -1.7654    2.5774   -0.3447 H   0  0  0  0  0  0  0  0  0  0  0  0
   -1.7354    1.5059    1.0639 H   0  0  0  0  0  0  0  0  0  0  0  0
    0.8415    2.5774   -0.3447 H   0  0  0  0  0  0  0  0  0  0  0  0
    1.7012    1.0345   -0.3931 H   0  0  0  0  0  0  0  0  0  0  0  0
    0.8115    1.5059    1.0639 H   0  0  0  0  0  0  0  0  0  0  0  0
    0.2526   -2.5403   -0.7539 C   0  0  0  0  0  0  0  0  0  0  0  0
   -0.4620   -1.6344    0.2525 C   0  0  0  0  0  0  0  0  0  0  0  0
    0.3834   -1.3793    1.4550 C   0  0  0  0  0  0  0  0  0  0  0  0
    0.8996    0.0500    1.9765 S   0  0  0  0  0  0  0  0  0  0  0  0
    1.1556   -2.0594   -1.1323 H   0  0  0  0  0  0  0  0  0  0  0  0
    0.5392   -3.4905   -0.2992 H   0  0  0  0  0  0  0  0  0  0  0  0
   -0.4000   -2.7550   -1.6002 H   0  0  0  0  0  0  0  0  0  0  0  0
   -1.3784   -2.1322    0.5906 H   0  0  0  0  0  0  0  0  0  0  0  0
    0.6731   -2.2810    2.0003 H   0  0  0  0  0  0  0  0  0  0  0  0
  1  2  3  0
  1  6  1  0
  2  3  1  0
  3  4  1  0
  3  5  1  0
  4  8  1  0
  4  9  1  0
  4 10  1  0
  5 11  1  0
  5 12  1  0
  5 13  1  0
  7 15  1  0
 14 15  1  0
 14 18  1  0
 14 19  1  0
 14 20  1  0
 15 16  1  0
 15 21  1  0
 16 17  2  0
 16 22  1  0
M  RAD  1   3   2
M  END
>  <reaction>  (18) 
rxn_1327

>  <mol_properties>  (18) 
{"1": {"label": "*4", "atom_type": "Ct"}, "2": {"label": "*3", "atom_type": "Cs"}, "6": {"label": "*2", "atom_type": "H0"}, "14": {"label": "*1", "atom_type": "Cs"}, "15": {"label": "*0", "atom_type": "CS"}}

>  <type>  (18) 
unop_14

>  <geom_source>  (18) 
gaussian_log

$$$$
