
     RDKit          3D

 22 23  0  0  0  0  0  0  0  0999 V2000
   -2.1093   -0.3263    0.3079 C   0  0  0  0  0  0  0  0  0  0  0  0
   -1.3270    0.9803    0.4115 C   0  0  0  0  0  0  0  0  0  0  0  0
   -0.1818    0.8289   -0.6044 C   0  0  0  0  0  0  0  0  0  0  0  0
    1.1682    1.3904   -0.1341 C   0  0  0  0  0  0  0  0  0  0  0  0
    1.8508    0.2041    0.5479 C   0  0  0  0  0  0  0  0  0  0  0  0
    1.4982   -0.9663   -0.3710 C   0  0  0  0  0  0  0  0  0  0  0  0
    0.0340   -0.7124   -0.7594 C   0  0  0  0  0  0  0  0  0  0  0  0
   -0.9986   -1.3650    0.1756 C   0  0  0  0  0  0  0  0  0  0  0  0
   -2.7686   -0.5042    1.1589 H   0  0  0  0  0  0  0  0  0  0  0  0
   -2.7285   -0.3223   -0.5943 H   0  0  0  0  0  0  0  0  0  0  0  0
   -1.9339    1.8682    0.2289 H   0  0  0  0  0  0  0  0  0  0  0  0
   -0.9144    1.0729    1.4218 H   0  0  0  0  0  0  0  0  0  0  0  0
   -0.4804    1.2763   -1.5535 H   0  0  0  0  0  0  0  0  0  0  0  0
    1.7667    1.7058   -0.9931 H   0  0  0  0  0  0  0  0  0  0  0  0
    1.0540    2.2578    0.5189 H   0  0  0  0  0  0  0  0  0  0  0  0
    1.4197    0.0438    1.5410 H   0  0  0  0  0  0  0  0  0  0  0  0
    2.9248    0.3413    0.6788 H   0  0  0  0  0  0  0  0  0  0  0  0
    2.1362   -0.9329   -1.2584 H   0  0  0  0  0  0  0  0  0  0  0  0
    1.6421   -1.9421    0.0966 H   0  0  0  0  0  0  0  0  0  0  0  0
   -0.1575   -1.0299   -1.7854 H   0  0  0  0  0  0  0  0  0  0  0  0
   -1.3459   -2.3310   -0.1933 H   0  0  0  0  0  0  0  0  0  0  0  0
   -0.5489   -1.5373    1.1593 H   0  0  0  0  0  0  0  0  0  0  0  0
  1  2  1  0
  1  8  1  0
  1  9  1  0
  1 10  1  0
  2  3  1  0
  2 11  1  0
  2 12  1  0
  3  4  1  0
  3  7  1  0
  3 13  1  0
  4  5  1  0
  4 14  1  0
  4 15  1  0
  5  6  1  0
  5 16  1  0
  5 17  1  0
  6  7  1  0
  6 18  1  0
  6 19  1  0
  7  8  1  0
  7 20  1  0
  8 21  1  0
  8 22  1  0
M  END
>  <reaction>  (1) 
rxn_556

>  <mol_properties>  (1) 
{"2": {"label": "donator", "atom_type": "Cs"}, "12": {"label": "d_hydrogen", "atom_type": "H0"}}

>  <type>  (1) 
r1h

$$$$

     RDKit          3D

  7  6  0  0  0  0  0  0  0  0999 V2000
   -0.6201    0.0189   -0.0017 C   0  0  0  0  0  0  0  0  0  0  0  0
    0.8589   -0.0553    0.0500 C   0  0  0  0  0  3  0  0  0  0  0  0
   -1.0738   -0.9730   -0.0559 H   0  0  0  0  0  0  0  0  0  0  0  0
   -0.9680    0.5706   -0.8872 H   0  0  0  0  0  0  0  0  0  0  0  0
   -1.0303    0.5369    0.8678 H   0  0  0  0  0  0  0  0  0  0  0  0
    1.3939   -0.8386   -0.4695 H   0  0  0  0  0  0  0  0  0  0  0  0
    1.4394    0.7404    0.4965 H   0  0  0  0  0  0  0  0  0  0  0  0
  1  2  1  0
  1  3  1  0
  1  4  1  0
  1  5  1  0
  2  6  1  0
  2  7  1  0
M  RAD  1   2   2
M  END
>  <reaction>  (2) 
rxn_556

>  <mol_properties>  (2) 
{"1": {"label": "acceptor", "atom_type": "Cs"}}

>  <type>  (2) 
r2

$$$$

     RDKit          3D

  8  7  0  0  0  0  0  0  0  0999 V2000
    0.7610    0.0250    0.0051 C   0  0  0  0  0  0  0  0  0  0  0  0
   -0.7610   -0.0250   -0.0051 C   0  0  0  0  0  0  0  0  0  0  0  0
    1.1904   -0.9237   -0.3217 H   0  0  0  0  0  0  0  0  0  0  0  0
    1.1359    0.8041   -0.6609 H   0  0  0  0  0  0  0  0  0  0  0  0
    1.1435    0.2336    1.0058 H   0  0  0  0  0  0  0  0  0  0  0  0
   -1.1435   -0.2336   -1.0058 H   0  0  0  0  0  0  0  0  0  0  0  0
   -1.1904    0.9237    0.3216 H   0  0  0  0  0  0  0  0  0  0  0  0
   -1.1359   -0.8041    0.6609 H   0  0  0  0  0  0  0  0  0  0  0  0
  1  2  1  0
  1  3  1  0
  1  4  1  0
  1  5  1  0
  2  6  1  0
  2  7  1  0
  2  8  1  0
M  END
>  <reaction>  (3) 
rxn_556

>  <mol_properties>  (3) 
{"1": {"label": "acceptor", "atom_type": "Cs"}, "7": {"label": "a_hydrogen", "atom_type": "H0"}}

>  <type>  (3) 
r2h

$$$$

     RDKit          3D

 29 29  0  0  0  0  0  0  0  0999 V2000
   -2.4826   -2.1344    0.0128 C   0  0  0  0  0  0  0  0  0  0  0  0
   -2.2466   -1.1424    1.1190 C   0  0  0  0  0  3  0  0  0  0  0  0
   -3.4485   -2.6402    0.1146 H   0  0  0  0  0  0  0  0  0  0  0  0
   -1.7108   -2.9071    0.0033 H   0  0  0  0  0  0  0  0  0  0  0  0
   -2.4733   -1.6461   -0.9642 H   0  0  0  0  0  0  0  0  0  0  0  0
   -2.1304   -1.5729    2.1117 H   0  0  0  0  0  0  0  0  0  0  0  0
   -2.9188   -0.2862    1.1244 H   0  0  0  0  0  0  0  0  0  0  0  0
    1.0166   -1.3607   -1.3000 C   0  0  0  0  0  0  0  0  0  0  0  0
    1.0604   -1.2358    0.2247 C   0  0  0  0  0  0  0  0  0  0  0  0
    0.1340   -0.0691    0.5381 C   0  0  0  0  0  0  0  0  0  0  0  0
    0.5416    0.9119    1.6256 C   0  0  0  0  0  0  0  0  0  0  0  0
    1.1474    2.0858    0.8469 C   0  0  0  0  0  0  0  0  0  0  0  0
    0.2419    2.1947   -0.3829 C   0  0  0  0  0  0  0  0  0  0  0  0
   -0.0584    0.7365   -0.7619 C   0  0  0  0  0  0  0  0  0  0  0  0
    0.9175    0.0932   -1.7593 C   0  0  0  0  0  0  0  0  0  0  0  0
    1.8780   -1.8871   -1.7131 H   0  0  0  0  0  0  0  0  0  0  0  0
    0.1187   -1.9067   -1.6028 H   0  0  0  0  0  0  0  0  0  0  0  0
    0.7718   -2.1550    0.7407 H   0  0  0  0  0  0  0  0  0  0  0  0
    2.0811   -0.9980    0.5482 H   0  0  0  0  0  0  0  0  0  0  0  0
   -1.0163   -0.5766    0.8643 H   0  0  0  0  0  0  0  0  0  0  0  0
   -0.3389    1.2567    2.1784 H   0  0  0  0  0  0  0  0  0  0  0  0
    1.2291    0.4740    2.3514 H   0  0  0  0  0  0  0  0  0  0  0  0
    2.1672    1.8360    0.5388 H   0  0  0  0  0  0  0  0  0  0  0  0
    1.1988    3.0088    1.4261 H   0  0  0  0  0  0  0  0  0  0  0  0
   -0.6828    2.7090   -0.1081 H   0  0  0  0  0  0  0  0  0  0  0  0
    0.6953    2.7552   -1.2025 H   0  0  0  0  0  0  0  0  0  0  0  0
   -1.0790    0.6340   -1.1426 H   0  0  0  0  0  0  0  0  0  0  0  0
    0.5954    0.2012   -2.7961 H   0  0  0  0  0  0  0  0  0  0  0  0
    1.8997    0.5699   -1.6707 H   0  0  0  0  0  0  0  0  0  0  0  0
  1  2  1  0
  1  3  1  0
  1  4  1  0
  1  5  1  0
  2  6  1  0
  2  7  1  0
  8  9  1  0
  8 15  1  0
  8 16  1  0
  8 17  1  0
  9 10  1  0
  9 18  1  0
  9 19  1  0
 10 11  1  0
 10 14  1  0
 10 20  1  0
 11 12  1  0
 11 21  1  0
 11 22  1  0
 12 13  1  0
 12 23  1  0
 12 24  1  0
 13 14  1  0
 13 25  1  0
 13 26  1  0
 14 15  1  0
 14 27  1  0
 15 28  1  0
 15 29  1  0
M  RAD  1   2   2
M  END
>  <reaction>  (4) 
rxn_556

>  <mol_properties>  (4) 
{"0": {"label": "*4", "atom_type": "Cs"}, "1": {"label": "*3", "atom_type": "Cs"}, "9": {"label": "*1", "atom_type": "Cs"}, "13": {"label": "*0", "atom_type": "Cs"}, "19": {"label": "*2", "atom_type": "H0"}}

>  <type>  (4) 
ts

$$$$

     RDKit          3D

 29 29  0  0  0  0  0  0  0  0999 V2000
   -2.8179   -0.9704    2.0403 C   0  0  0  0  0  0  0  0  0  0  0  0
   -2.3400   -1.2334    0.6185 C   0  0  0  0  0  3  0  0  0  0  0  0
   -3.8777   -0.7102    2.0599 H   0  0  0  0  0  0  0  0  0  0  0  0
   -2.2669   -0.1464    2.4971 H   0  0  0  0  0  0  0  0  0  0  0  0
   -2.6818   -1.8495    2.6726 H   0  0  0  0  0  0  0  0  0  0  0  0
   -2.4761   -0.3542   -0.0138 H   0  0  0  0  0  0  0  0  0  0  0  0
   -2.8910   -2.0573    0.1617 H   0  0  0  0  0  0  0  0  0  0  0  0
    1.0139   -1.3752   -1.6937 C   0  0  0  0  0  0  0  0  0  0  0  0
    1.0139   -1.3752   -0.1673 C   0  0  0  0  0  0  0  0  0  0  0  0
    0.0505   -0.2405    0.2211 C   0  0  0  0  0  0  0  0  0  0  0  0
    0.5033    0.5981    1.4255 C   0  0  0  0  0  0  0  0  0  0  0  0
    1.3153    1.7363    0.8062 C   0  0  0  0  0  0  0  0  0  0  0  0
    0.5033    2.0959   -0.4387 C   0  0  0  0  0  0  0  0  0  0  0  0
    0.0505    0.7391   -0.9981 C   0  0  0  0  0  0  0  0  0  0  0  0
    1.0139    0.1154   -2.0225 C   0  0  0  0  0  0  0  0  0  0  0  0
    1.8587   -1.9134   -2.1261 H   0  0  0  0  0  0  0  0  0  0  0  0
    0.0980   -1.8421   -2.0688 H   0  0  0  0  0  0  0  0  0  0  0  0
    0.7296   -2.3336    0.2693 H   0  0  0  0  0  0  0  0  0  0  0  0
    2.0220   -1.1427    0.1920 H   0  0  0  0  0  0  0  0  0  0  0  0
   -1.1445   -0.7368    0.4198 H   0  0  0  0  0  0  0  0  0  0  0  0
   -0.3645    1.0149    1.9440 H   0  0  0  0  0  0  0  0  0  0  0  0
    1.0664    0.0114    2.1538 H   0  0  0  0  0  0  0  0  0  0  0  0
    2.3064    1.3744    0.5155 H   0  0  0  0  0  0  0  0  0  0  0  0
    1.4632    2.5786    1.4829 H   0  0  0  0  0  0  0  0  0  0  0  0
   -0.3645    2.6919   -0.1434 H   0  0  0  0  0  0  0  0  0  0  0  0
    1.0664    2.6807   -1.1686 H   0  0  0  0  0  0  0  0  0  0  0  0
   -0.9453    0.8116   -1.4377 H   0  0  0  0  0  0  0  0  0  0  0  0
    0.7296    0.3352   -3.0525 H   0  0  0  0  0  0  0  0  0  0  0  0
    2.0220    0.5163   -1.8728 H   0  0  0  0  0  0  0  0  0  0  0  0
  1  2  1  0
  1  3  1  0
  1  4  1  0
  1  5  1  0
  2  6  1  0
  2  7  1  0
  8  9  1  0
  8 15  1  0
  8 16  1  0
  8 17  1  0
  9 10  1  0
  9 18  1  0
  9 19  1  0
 10 11  1  0
 10 14  1  0
 10 20  1  0
 11 12  1  0
 11 21  1  0
 11 22  1  0
 12 13  1  0
 12 23  1  0
 12 24  1  0
 13 14  1  0
 13 25  1  0
 13 26  1  0
 14 15  1  0
 14 27  1  0
 15 28  1  0
 15 29  1  0
M  RAD  1   2   2
M  END
>  <reaction>  (5) 
rxn_556

>  <mol_properties>  (5) 
{"0": {"label": "*4", "atom_type": "Cs"}, "1": {"label": "*3", "atom_type": "Cs"}, "9": {"label": "*1", "atom_type": "Cs"}, "13": {"label": "*0", "atom_type": "Cs"}, "19": {"label": "*2", "atom_type": "H0"}}

>  <type>  (5) 
unop_1

>  <geom_source>  (5) 
Heuristics

$$$$

     RDKit          3D

 29 29  0  0  0  0  0  0  0  0999 V2000
   -2.3258   -2.4806    1.2193 C   0  0  0  0  0  0  0  0  0  0  0  0
   -2.4006   -1.0460    0.7143 C   0  0  0  0  0  3  0  0  0  0  0  0
   -3.2663   -2.7875    1.6803 H   0  0  0  0  0  0  0  0  0  0  0  0
   -1.5384   -2.5969    1.9661 H   0  0  0  0  0  0  0  0  0  0  0  0
   -2.1144   -3.1763    0.4053 H   0  0  0  0  0  0  0  0  0  0  0  0
   -2.6120   -0.3503    1.5283 H   0  0  0  0  0  0  0  0  0  0  0  0
   -3.1880   -0.9297   -0.0325 H   0  0  0  0  0  0  0  0  0  0  0  0
    0.9533   -1.1878   -1.5979 C   0  0  0  0  0  0  0  0  0  0  0  0
    0.9533   -1.1878   -0.0715 C   0  0  0  0  0  0  0  0  0  0  0  0
   -0.0100   -0.0531    0.3169 C   0  0  0  0  0  0  0  0  0  0  0  0
    0.4428    0.7855    1.5213 C   0  0  0  0  0  0  0  0  0  0  0  0
    1.2547    1.9237    0.9020 C   0  0  0  0  0  0  0  0  0  0  0  0
    0.4428    2.2833   -0.3429 C   0  0  0  0  0  0  0  0  0  0  0  0
   -0.0100    0.9265   -0.9023 C   0  0  0  0  0  0  0  0  0  0  0  0
    0.9533    0.3028   -1.9268 C   0  0  0  0  0  0  0  0  0  0  0  0
    1.7982   -1.7260   -2.0303 H   0  0  0  0  0  0  0  0  0  0  0  0
    0.0375   -1.6547   -1.9730 H   0  0  0  0  0  0  0  0  0  0  0  0
    0.6690   -2.1462    0.3651 H   0  0  0  0  0  0  0  0  0  0  0  0
    1.9615   -0.9553    0.2878 H   0  0  0  0  0  0  0  0  0  0  0  0
   -1.2051   -0.5494    0.5156 H   0  0  0  0  0  0  0  0  0  0  0  0
   -0.4251    1.2023    2.0398 H   0  0  0  0  0  0  0  0  0  0  0  0
    1.0058    0.1988    2.2496 H   0  0  0  0  0  0  0  0  0  0  0  0
    2.2459    1.5618    0.6112 H   0  0  0  0  0  0  0  0  0  0  0  0
    1.4027    2.7660    1.5787 H   0  0  0  0  0  0  0  0  0  0  0  0
   -0.4251    2.8793   -0.0476 H   0  0  0  0  0  0  0  0  0  0  0  0
    1.0058    2.8680   -1.0728 H   0  0  0  0  0  0  0  0  0  0  0  0
   -1.0059    0.9990   -1.3419 H   0  0  0  0  0  0  0  0  0  0  0  0
    0.6690    0.5226   -2.9567 H   0  0  0  0  0  0  0  0  0  0  0  0
    1.9615    0.7037   -1.7771 H   0  0  0  0  0  0  0  0  0  0  0  0
  1  2  1  0
  1  3  1  0
  1  4  1  0
  1  5  1  0
  2  6  1  0
  2  7  1  0
  8  9  1  0
  8 15  1  0
  8 16  1  0
  8 17  1  0
  9 10  1  0
  9 18  1  0
  9 19  1  0
 10 11  1  0
 10 14  1  0
 10 20  1  0
 11 12  1  0
 11 21  1  0
 11 22  1  0
 12 13  1  0
 12 23  1  0
 12 24  1  0
 13 14  1  0
 13 25  1  0
 13 26  1  0
 14 15  1  0
 14 27  1  0
 15 28  1  0
 15 29  1  0
M  RAD  1   2   2
M  END
>  <reaction>  (6) 
rxn_556

>  <mol_properties>  (6) 
{"0": {"label": "*4", "atom_type": "Cs"}, "1": {"label": "*3", "atom_type": "Cs"}, "9": {"label": "*1", "atom_type": "Cs"}, "13": {"label": "*0", "atom_type": "Cs"}, "19": {"label": "*2", "atom_type": "H0"}}

>  <type>  (6) 
unop_2

>  <geom_source>  (6) 
Heuristics

$$$$

     RDKit          3D

 29 29  0  0  0  0  0  0  0  0999 V2000
   -3.0792   -0.4781    1.6940 C   0  0  0  0  0  0  0  0  0  0  0  0
   -2.3083   -1.2904    0.6621 C   0  0  0  0  0  3  0  0  0  0  0  0
   -4.1546   -0.5286    1.5145 H   0  0  0  0  0  0  0  0  0  0  0  0
   -2.7888    0.5736    1.6671 H   0  0  0  0  0  0  0  0  0  0  0  0
   -2.8953   -0.8459    2.7050 H   0  0  0  0  0  0  0  0  0  0  0  0
   -2.4921   -0.9226   -0.3489 H   0  0  0  0  0  0  0  0  0  0  0  0
   -2.5987   -2.3422    0.6889 H   0  0  0  0  0  0  0  0  0  0  0  0
    1.0456   -1.4323   -1.6502 C   0  0  0  0  0  0  0  0  0  0  0  0
    1.0456   -1.4323   -0.1237 C   0  0  0  0  0  0  0  0  0  0  0  0
    0.0823   -0.2975    0.2646 C   0  0  0  0  0  0  0  0  0  0  0  0
    0.5350    0.5410    1.4691 C   0  0  0  0  0  0  0  0  0  0  0  0
    1.3470    1.6792    0.8497 C   0  0  0  0  0  0  0  0  0  0  0  0
    0.5350    2.0388   -0.3952 C   0  0  0  0  0  0  0  0  0  0  0  0
    0.0823    0.6820   -0.9546 C   0  0  0  0  0  0  0  0  0  0  0  0
    1.0456    0.0583   -1.9790 C   0  0  0  0  0  0  0  0  0  0  0  0
    1.8905   -1.9705   -2.0826 H   0  0  0  0  0  0  0  0  0  0  0  0
    0.1298   -1.8991   -2.0252 H   0  0  0  0  0  0  0  0  0  0  0  0
    0.7613   -2.3906    0.3129 H   0  0  0  0  0  0  0  0  0  0  0  0
    2.0538   -1.1997    0.2356 H   0  0  0  0  0  0  0  0  0  0  0  0
   -1.1128   -0.7939    0.4633 H   0  0  0  0  0  0  0  0  0  0  0  0
   -0.3328    0.9578    1.9875 H   0  0  0  0  0  0  0  0  0  0  0  0
    1.0981   -0.0457    2.1974 H   0  0  0  0  0  0  0  0  0  0  0  0
    2.3381    1.3174    0.5590 H   0  0  0  0  0  0  0  0  0  0  0  0
    1.4949    2.5215    1.5265 H   0  0  0  0  0  0  0  0  0  0  0  0
   -0.3328    2.6349   -0.0999 H   0  0  0  0  0  0  0  0  0  0  0  0
    1.0981    2.6236   -1.1250 H   0  0  0  0  0  0  0  0  0  0  0  0
   -0.9136    0.7546   -1.3942 H   0  0  0  0  0  0  0  0  0  0  0  0
    0.7613    0.2782   -3.0089 H   0  0  0  0  0  0  0  0  0  0  0  0
    2.0538    0.4593   -1.8293 H   0  0  0  0  0  0  0  0  0  0  0  0
  1  2  1  0
  1  3  1  0
  1  4  1  0
  1  5  1  0
  2  6  1  0
  2  7  1  0
  8  9  1  0
  8 15  1  0
  8 16  1  0
  8 17  1  0
  9 10  1  0
  9 18  1  0
  9 19  1  0
 10 11  1  0
 10 14  1  0
 10 20  1  0
 11 12  1  0
 11 21  1  0
 11 22  1  0
 12 13  1  0
 12 23  1  0
 12 24  1  0
 13 14  1  0
 13 25  1  0
 13 26  1  0
 14 15  1  0
 14 27  1  0
 15 28  1  0
 15 29  1  0
M  RAD  1   2   2
M  END
>  <reaction>  (7) 
rxn_556

>  <mol_properties>  (7) 
{"0": {"label": "*4", "atom_type": "Cs"}, "1": {"label": "*3", "atom_type": "Cs"}, "9": {"label": "*1", "atom_type": "Cs"}, "13": {"label": "*0", "atom_type": "Cs"}, "19": {"label": "*2", "atom_type": "H0"}}

>  <type>  (7) 
unop_3

>  <geom_source>  (7) 
Heuristics

$$$$

     RDKit          3D

 29 29  0  0  0  0  0  0  0  0999 V2000
   -2.8646   -1.8118   -0.3461 C   0  0  0  0  0  0  0  0  0  0  0  0
   -2.3342   -1.1301    0.9081 C   0  0  0  0  0  3  0  0  0  0  0  0
   -3.9508   -1.7287   -0.4125 H   0  0  0  0  0  0  0  0  0  0  0  0
   -2.6133   -2.8738   -0.3557 H   0  0  0  0  0  0  0  0  0  0  0  0
   -2.4433   -1.3644   -1.2481 H   0  0  0  0  0  0  0  0  0  0  0  0
   -2.7555   -1.5774    1.8100 H   0  0  0  0  0  0  0  0  0  0  0  0
   -2.5855   -0.0680    0.9177 H   0  0  0  0  0  0  0  0  0  0  0  0
    1.0197   -1.2720   -1.4042 C   0  0  0  0  0  0  0  0  0  0  0  0
    1.0197   -1.2720    0.1223 C   0  0  0  0  0  0  0  0  0  0  0  0
    0.0564   -0.1372    0.5106 C   0  0  0  0  0  0  0  0  0  0  0  0
    0.5091    0.7014    1.7151 C   0  0  0  0  0  0  0  0  0  0  0  0
    1.3211    1.8395    1.0957 C   0  0  0  0  0  0  0  0  0  0  0  0
    0.5091    2.1992   -0.1492 C   0  0  0  0  0  0  0  0  0  0  0  0
    0.0564    0.8423   -0.7086 C   0  0  0  0  0  0  0  0  0  0  0  0
    1.0197    0.2186   -1.7330 C   0  0  0  0  0  0  0  0  0  0  0  0
    1.8646   -1.8101   -1.8366 H   0  0  0  0  0  0  0  0  0  0  0  0
    0.1039   -1.7388   -1.7792 H   0  0  0  0  0  0  0  0  0  0  0  0
    0.7354   -2.2303    0.5589 H   0  0  0  0  0  0  0  0  0  0  0  0
    2.0279   -1.0394    0.4816 H   0  0  0  0  0  0  0  0  0  0  0  0
   -1.1387   -0.6335    0.7093 H   0  0  0  0  0  0  0  0  0  0  0  0
   -0.3587    1.1182    2.2335 H   0  0  0  0  0  0  0  0  0  0  0  0
    1.0722    0.1146    2.4433 H   0  0  0  0  0  0  0  0  0  0  0  0
    2.3123    1.4777    0.8050 H   0  0  0  0  0  0  0  0  0  0  0  0
    1.4691    2.6819    1.7724 H   0  0  0  0  0  0  0  0  0  0  0  0
   -0.3587    2.7952    0.1461 H   0  0  0  0  0  0  0  0  0  0  0  0
    1.0722    2.7839   -0.8790 H   0  0  0  0  0  0  0  0  0  0  0  0
   -0.9395    0.9149   -1.1482 H   0  0  0  0  0  0  0  0  0  0  0  0
    0.7354    0.4385   -2.7629 H   0  0  0  0  0  0  0  0  0  0  0  0
    2.0279    0.6196   -1.5833 H   0  0  0  0  0  0  0  0  0  0  0  0
  1  2  1  0
  1  3  1  0
  1  4  1  0
  1  5  1  0
  2  6  1  0
  2  7  1  0
  8  9  1  0
  8 15  1  0
  8 16  1  0
  8 17  1  0
  9 10  1  0
  9 18  1  0
  9 19  1  0
 10 11  1  0
 10 14  1  0
 10 20  1  0
 11 12  1  0
 11 21  1  0
 11 22  1  0
 12 13  1  0
 12 23  1  0
 12 24  1  0
 13 14  1  0
 13 25  1  0
 13 26  1  0
 14 15  1  0
 14 27  1  0
 15 28  1  0
 15 29  1  0
M  RAD  1   2   2
M  END
>  <reaction>  (8) 
rxn_556

>  <mol_properties>  (8) 
{"0": {"label": "*4", "atom_type": "Cs"}, "1": {"label": "*3", "atom_type": "Cs"}, "9": {"label": "*1", "atom_type": "Cs"}, "13": {"label": "*0", "atom_type": "Cs"}, "19": {"label": "*2", "atom_type": "H0"}}

>  <type>  (8) 
unop_4

>  <geom_source>  (8) 
Heuristics

$$$$

     RDKit          3D

 29 29  0  0  0  0  0  0  0  0999 V2000
   -3.2773   -0.2296    1.1171 C   0  0  0  0  0  0  0  0  0  0  0  0
   -2.2850   -1.3175    0.7291 C   0  0  0  0  0  3  0  0  0  0  0  0
   -4.2736   -0.6434    1.2827 H   0  0  0  0  0  0  0  0  0  0  0  0
   -3.3599    0.5278    0.3357 H   0  0  0  0  0  0  0  0  0  0  0  0
   -2.9724    0.2751    2.0355 H   0  0  0  0  0  0  0  0  0  0  0  0
   -2.5899   -1.8223   -0.1893 H   0  0  0  0  0  0  0  0  0  0  0  0
   -2.2024   -2.0750    1.5105 H   0  0  0  0  0  0  0  0  0  0  0  0
    1.0690   -1.4594   -1.5831 C   0  0  0  0  0  0  0  0  0  0  0  0
    1.0690   -1.4594   -0.0567 C   0  0  0  0  0  0  0  0  0  0  0  0
    0.1056   -0.3247    0.3317 C   0  0  0  0  0  0  0  0  0  0  0  0
    0.5584    0.5139    1.5361 C   0  0  0  0  0  0  0  0  0  0  0  0
    1.3704    1.6521    0.9167 C   0  0  0  0  0  0  0  0  0  0  0  0
    0.5584    2.0117   -0.3282 C   0  0  0  0  0  0  0  0  0  0  0  0
    0.1056    0.6549   -0.8876 C   0  0  0  0  0  0  0  0  0  0  0  0
    1.0690    0.0312   -1.9120 C   0  0  0  0  0  0  0  0  0  0  0  0
    1.9138   -1.9976   -2.0155 H   0  0  0  0  0  0  0  0  0  0  0  0
    0.1531   -1.9263   -1.9582 H   0  0  0  0  0  0  0  0  0  0  0  0
    0.7847   -2.4178    0.3799 H   0  0  0  0  0  0  0  0  0  0  0  0
    2.0771   -1.2268    0.3026 H   0  0  0  0  0  0  0  0  0  0  0  0
   -1.0894   -0.8210    0.5303 H   0  0  0  0  0  0  0  0  0  0  0  0
   -0.3094    0.9307    2.0545 H   0  0  0  0  0  0  0  0  0  0  0  0
    1.1215   -0.0728    2.2644 H   0  0  0  0  0  0  0  0  0  0  0  0
    2.3615    1.2902    0.6260 H   0  0  0  0  0  0  0  0  0  0  0  0
    1.5183    2.4944    1.5935 H   0  0  0  0  0  0  0  0  0  0  0  0
   -0.3094    2.6078   -0.0328 H   0  0  0  0  0  0  0  0  0  0  0  0
    1.1215    2.5965   -1.0580 H   0  0  0  0  0  0  0  0  0  0  0  0
   -0.8903    0.7274   -1.3271 H   0  0  0  0  0  0  0  0  0  0  0  0
    0.7847    0.2510   -2.9419 H   0  0  0  0  0  0  0  0  0  0  0  0
    2.0771    0.4321   -1.7623 H   0  0  0  0  0  0  0  0  0  0  0  0
  1  2  1  0
  1  3  1  0
  1  4  1  0
  1  5  1  0
  2  6  1  0
  2  7  1  0
  8  9  1  0
  8 15  1  0
  8 16  1  0
  8 17  1  0
  9 10  1  0
  9 18  1  0
  9 19  1  0
 10 11  1  0
 10 14  1  0
 10 20  1  0
 11 12  1  0
 11 21  1  0
 11 22  1  0
 12 13  1  0
 12 23  1  0
 12 24  1  0
 13 14  1  0
 13 25  1  0
 13 26  1  0
 14 15  1  0
 14 27  1  0
 15 28  1  0
 15 29  1  0
M  RAD  1   2   2
M  END
>  <reaction>  (9) 
rxn_556

>  <mol_properties>  (9) 
{"0": {"label": "*4", "atom_type": "Cs"}, "1": {"label": "*3", "atom_type": "Cs"}, "9": {"label": "*1", "atom_type": "Cs"}, "13": {"label": "*0", "atom_type": "Cs"}, "19": {"label": "*2", "atom_type": "H0"}}

>  <type>  (9) 
unop_5

>  <geom_source>  (9) 
Heuristics

$$$$

     RDKit          3D

 29 29  0  0  0  0  0  0  0  0999 V2000
   -3.1200   -1.2102   -0.3759 C   0  0  0  0  0  0  0  0  0  0  0  0
   -2.3036   -1.2044    0.9096 C   0  0  0  0  0  3  0  0  0  0  0  0
   -4.1605   -0.9413   -0.1853 H   0  0  0  0  0  0  0  0  0  0  0  0
   -3.1140   -2.1960   -0.8442 H   0  0  0  0  0  0  0  0  0  0  0  0
   -2.7221   -0.4977   -1.1007 H   0  0  0  0  0  0  0  0  0  0  0  0
   -2.7015   -1.9169    1.6344 H   0  0  0  0  0  0  0  0  0  0  0  0
   -2.3096   -0.2186    1.3779 H   0  0  0  0  0  0  0  0  0  0  0  0
    1.0503   -1.3463   -1.4026 C   0  0  0  0  0  0  0  0  0  0  0  0
    1.0503   -1.3463    0.1238 C   0  0  0  0  0  0  0  0  0  0  0  0
    0.0869   -0.2115    0.5122 C   0  0  0  0  0  0  0  0  0  0  0  0
    0.5397    0.6270    1.7166 C   0  0  0  0  0  0  0  0  0  0  0  0
    1.3517    1.7652    1.0972 C   0  0  0  0  0  0  0  0  0  0  0  0
    0.5397    2.1248   -0.1477 C   0  0  0  0  0  0  0  0  0  0  0  0
    0.0869    0.7680   -0.7071 C   0  0  0  0  0  0  0  0  0  0  0  0
    1.0503    0.1443   -1.7315 C   0  0  0  0  0  0  0  0  0  0  0  0
    1.8951   -1.8845   -1.8350 H   0  0  0  0  0  0  0  0  0  0  0  0
    0.1344   -1.8131   -1.7777 H   0  0  0  0  0  0  0  0  0  0  0  0
    0.7660   -2.3046    0.5604 H   0  0  0  0  0  0  0  0  0  0  0  0
    2.0584   -1.1137    0.4831 H   0  0  0  0  0  0  0  0  0  0  0  0
   -1.1081   -0.7079    0.7108 H   0  0  0  0  0  0  0  0  0  0  0  0
   -0.3281    1.0438    2.2350 H   0  0  0  0  0  0  0  0  0  0  0  0
    1.1028    0.0403    2.4449 H   0  0  0  0  0  0  0  0  0  0  0  0
    2.3428    1.4034    0.8065 H   0  0  0  0  0  0  0  0  0  0  0  0
    1.4996    2.6076    1.7740 H   0  0  0  0  0  0  0  0  0  0  0  0
   -0.3281    2.7209    0.1477 H   0  0  0  0  0  0  0  0  0  0  0  0
    1.1028    2.7096   -0.8775 H   0  0  0  0  0  0  0  0  0  0  0  0
   -0.9089    0.8406   -1.1466 H   0  0  0  0  0  0  0  0  0  0  0  0
    0.7660    0.3642   -2.7614 H   0  0  0  0  0  0  0  0  0  0  0  0
    2.0584    0.5453   -1.5818 H   0  0  0  0  0  0  0  0  0  0  0  0
  1  2  1  0
  1  3  1  0
  1  4  1  0
  1  5  1  0
  2  6  1  0
  2  7  1  0
  8  9  1  0
  8 15  1  0
  8 16  1  0
  8 17  1  0
  9 10  1  0
  9 18  1  0
  9 19  1  0
 10 11  1  0
 10 14  1  0
 10 20  1  0
 11 12  1  0
 11 21  1  0
 11 22  1  0
 12 13  1  0
 12 23  1  0
 12 24  1  0
 13 14  1  0
 13 25  1  0
 13 26  1  0
 14 15  1  0
 14 27  1  0
 15 28  1  0
 15 29  1  0
M  RAD  1   2   2
M  END
>  <reaction>  (10) 
rxn_556

>  <mol_properties>  (10) 
{"0": {"label": "*4", "atom_type": "Cs"}, "1": {"label": "*3", "atom_type": "Cs"}, "9": {"label": "*1", "atom_type": "Cs"}, "13": {"label": "*0", "atom_type": "Cs"}, "19": {"label": "*2", "atom_type": "H0"}}

>  <type>  (10) 
unop_6

>  <geom_source>  (10) 
Heuristics

$$$$

     RDKit          3D

 29 29  0  0  0  0  0  0  0  0999 V2000
   -3.3011   -0.6553   -0.0788 C   0  0  0  0  0  0  0  0  0  0  0  0
   -2.2825   -1.2709    0.8711 C   0  0  0  0  0  3  0  0  0  0  0  0
   -4.2502   -0.4673    0.4262 H   0  0  0  0  0  0  0  0  0  0  0  0
   -3.5021   -1.3146   -0.9251 H   0  0  0  0  0  0  0  0  0  0  0  0
   -2.9453    0.2960   -0.4784 H   0  0  0  0  0  0  0  0  0  0  0  0
   -2.6382   -2.2222    1.2706 H   0  0  0  0  0  0  0  0  0  0  0  0
   -2.0815   -0.6116    1.7173 H   0  0  0  0  0  0  0  0  0  0  0  0
    1.0715   -1.4128   -1.4411 C   0  0  0  0  0  0  0  0  0  0  0  0
    1.0715   -1.4128    0.0853 C   0  0  0  0  0  0  0  0  0  0  0  0
    0.1081   -0.2780    0.4737 C   0  0  0  0  0  0  0  0  0  0  0  0
    0.5609    0.5605    1.6781 C   0  0  0  0  0  0  0  0  0  0  0  0
    1.3729    1.6987    1.0587 C   0  0  0  0  0  0  0  0  0  0  0  0
    0.5609    2.0583   -0.1862 C   0  0  0  0  0  0  0  0  0  0  0  0
    0.1081    0.7015   -0.7456 C   0  0  0  0  0  0  0  0  0  0  0  0
    1.0715    0.0778   -1.7700 C   0  0  0  0  0  0  0  0  0  0  0  0
    1.9163   -1.9510   -1.8735 H   0  0  0  0  0  0  0  0  0  0  0  0
    0.1556   -1.8796   -1.8162 H   0  0  0  0  0  0  0  0  0  0  0  0
    0.7871   -2.3711    0.5219 H   0  0  0  0  0  0  0  0  0  0  0  0
    2.0796   -1.1802    0.4446 H   0  0  0  0  0  0  0  0  0  0  0  0
   -1.0869   -0.7744    0.6723 H   0  0  0  0  0  0  0  0  0  0  0  0
   -0.3069    0.9773    2.1965 H   0  0  0  0  0  0  0  0  0  0  0  0
    1.1239   -0.0262    2.4064 H   0  0  0  0  0  0  0  0  0  0  0  0
    2.3640    1.3369    0.7680 H   0  0  0  0  0  0  0  0  0  0  0  0
    1.5208    2.5411    1.7355 H   0  0  0  0  0  0  0  0  0  0  0  0
   -0.3069    2.6544    0.1091 H   0  0  0  0  0  0  0  0  0  0  0  0
    1.1239    2.6431   -0.9160 H   0  0  0  0  0  0  0  0  0  0  0  0
   -0.8878    0.7741   -1.1851 H   0  0  0  0  0  0  0  0  0  0  0  0
    0.7871    0.2977   -2.7999 H   0  0  0  0  0  0  0  0  0  0  0  0
    2.0796    0.4788   -1.6203 H   0  0  0  0  0  0  0  0  0  0  0  0
  1  2  1  0
  1  3  1  0
  1  4  1  0
  1  5  1  0
  2  6  1  0
  2  7  1  0
  8  9  1  0
  8 15  1  0
  8 16  1  0
  8 17  1  0
  9 10  1  0
  9 18  1  0
  9 19  1  0
 10 11  1  0
 10 14  1  0
 10 20  1  0
 11 12  1  0
 11 21  1  0
 11 22  1  0
 12 13  1  0
 12 23  1  0
 12 24  1  0
 13 14  1  0
 13 25  1  0
 13 26  1  0
 14 15  1  0
 14 27  1  0
 15 28  1  0
 15 29  1  0
M  RAD  1   2   2
M  END
>  <reaction>  (11) 
rxn_556

>  <mol_properties>  (11) 
{"0": {"label": "*4", "atom_type": "Cs"}, "1": {"label": "*3", "atom_type": "Cs"}, "9": {"label": "*1", "atom_type": "Cs"}, "13": {"label": "*0", "atom_type": "Cs"}, "19": {"label": "*2", "atom_type": "H0"}}

>  <type>  (11) 
unop_7

>  <geom_source>  (11) 
Heuristics

$$$$

     RDKit          3D

 29 29  0  0  0  0  0  0  0  0999 V2000
   -2.5633   -1.5732    2.0658 C   0  0  0  0  0  0  0  0  0  0  0  0
   -2.3713   -1.1603    0.6127 C   0  0  0  0  0  3  0  0  0  0  0  0
   -3.5670   -1.3284    2.4177 H   0  0  0  0  0  0  0  0  0  0  0  0
   -1.8513   -1.0657    2.7190 H   0  0  0  0  0  0  0  0  0  0  0  0
   -2.4213   -2.6478    2.1940 H   0  0  0  0  0  0  0  0  0  0  0  0
   -2.5133   -0.0857    0.4845 H   0  0  0  0  0  0  0  0  0  0  0  0
   -3.0833   -1.6678   -0.0404 H   0  0  0  0  0  0  0  0  0  0  0  0
    0.9826   -1.3021   -1.6995 C   0  0  0  0  0  0  0  0  0  0  0  0
    0.9826   -1.3021   -0.1730 C   0  0  0  0  0  0  0  0  0  0  0  0
    0.0193   -0.1674    0.2153 C   0  0  0  0  0  0  0  0  0  0  0  0
    0.4720    0.6712    1.4198 C   0  0  0  0  0  0  0  0  0  0  0  0
    1.2840    1.8094    0.8004 C   0  0  0  0  0  0  0  0  0  0  0  0
    0.4720    2.1690   -0.4445 C   0  0  0  0  0  0  0  0  0  0  0  0
    0.0193    0.8122   -1.0039 C   0  0  0  0  0  0  0  0  0  0  0  0
    0.9826    0.1884   -2.0283 C   0  0  0  0  0  0  0  0  0  0  0  0
    1.8275   -1.8403   -2.1319 H   0  0  0  0  0  0  0  0  0  0  0  0
    0.0668   -1.7690   -2.0745 H   0  0  0  0  0  0  0  0  0  0  0  0
    0.6983   -2.2605    0.2636 H   0  0  0  0  0  0  0  0  0  0  0  0
    1.9908   -1.0696    0.1862 H   0  0  0  0  0  0  0  0  0  0  0  0
   -1.1758   -0.6637    0.4140 H   0  0  0  0  0  0  0  0  0  0  0  0
   -0.3958    1.0880    1.9382 H   0  0  0  0  0  0  0  0  0  0  0  0
    1.0351    0.0844    2.1480 H   0  0  0  0  0  0  0  0  0  0  0  0
    2.2751    1.4475    0.5097 H   0  0  0  0  0  0  0  0  0  0  0  0
    1.4319    2.6517    1.4771 H   0  0  0  0  0  0  0  0  0  0  0  0
   -0.3958    2.7650   -0.1492 H   0  0  0  0  0  0  0  0  0  0  0  0
    1.0351    2.7537   -1.1744 H   0  0  0  0  0  0  0  0  0  0  0  0
   -0.9766    0.8847   -1.4435 H   0  0  0  0  0  0  0  0  0  0  0  0
    0.6983    0.4083   -3.0582 H   0  0  0  0  0  0  0  0  0  0  0  0
    1.9908    0.5894   -1.8786 H   0  0  0  0  0  0  0  0  0  0  0  0
  1  2  1  0
  1  3  1  0
  1  4  1  0
  1  5  1  0
  2  6  1  0
  2  7  1  0
  8  9  1  0
  8 15  1  0
  8 16  1  0
  8 17  1  0
  9 10  1  0
  9 18  1  0
  9 19  1  0
 10 11  1  0
 10 14  1  0
 10 20  1  0
 11 12  1  0
 11 21  1  0
 11 22  1  0
 12 13  1  0
 12 23  1  0
 12 24  1  0
 13 14  1  0
 13 25  1  0
 13 26  1  0
 14 15  1  0
 14 27  1  0
 15 28  1  0
 15 29  1  0
M  RAD  1   2   2
M  END
>  <reaction>  (12) 
rxn_556

>  <mol_properties>  (12) 
{"0": {"label": "*4", "atom_type": "Cs"}, "1": {"label": "*3", "atom_type": "Cs"}, "9": {"label": "*1", "atom_type": "Cs"}, "13": {"label": "*0", "atom_type": "Cs"}, "19": {"label": "*2", "atom_type": "H0"}}

>  <type>  (12) 
unop_8

>  <geom_source>  (12) 
Heuristics

$$$$

     RDKit          3D

 29 29  0  0  0  0  0  0  0  0999 V2000
   -2.6034   -2.2996    0.0018 C   0  0  0  0  0  0  0  0  0  0  0  0
   -2.3660   -1.0685    0.8661 C   0  0  0  0  0  3  0  0  0  0  0  0
   -3.6679   -2.5256   -0.0813 H   0  0  0  0  0  0  0  0  0  0  0  0
   -2.1108   -3.1786    0.4211 H   0  0  0  0  0  0  0  0  0  0  0  0
   -2.2166   -2.1546   -1.0084 H   0  0  0  0  0  0  0  0  0  0  0  0
   -2.7528   -1.2135    1.8763 H   0  0  0  0  0  0  0  0  0  0  0  0
   -2.8586   -0.1895    0.4468 H   0  0  0  0  0  0  0  0  0  0  0  0
    0.9880   -1.2104   -1.4461 C   0  0  0  0  0  0  0  0  0  0  0  0
    0.9880   -1.2104    0.0803 C   0  0  0  0  0  0  0  0  0  0  0  0
    0.0246   -0.0757    0.4687 C   0  0  0  0  0  0  0  0  0  0  0  0
    0.4774    0.7629    1.6731 C   0  0  0  0  0  0  0  0  0  0  0  0
    1.2894    1.9011    1.0537 C   0  0  0  0  0  0  0  0  0  0  0  0
    0.4774    2.2607   -0.1912 C   0  0  0  0  0  0  0  0  0  0  0  0
    0.0246    0.9039   -0.7506 C   0  0  0  0  0  0  0  0  0  0  0  0
    0.9880    0.2802   -1.7750 C   0  0  0  0  0  0  0  0  0  0  0  0
    1.8328   -1.7486   -1.8785 H   0  0  0  0  0  0  0  0  0  0  0  0
    0.0721   -1.6772   -1.8212 H   0  0  0  0  0  0  0  0  0  0  0  0
    0.7036   -2.1688    0.5169 H   0  0  0  0  0  0  0  0  0  0  0  0
    1.9961   -0.9778    0.4396 H   0  0  0  0  0  0  0  0  0  0  0  0
   -1.1704   -0.5720    0.6673 H   0  0  0  0  0  0  0  0  0  0  0  0
   -0.3905    1.1797    2.1915 H   0  0  0  0  0  0  0  0  0  0  0  0
    1.0404    0.1762    2.4014 H   0  0  0  0  0  0  0  0  0  0  0  0
    2.2805    1.5393    0.7630 H   0  0  0  0  0  0  0  0  0  0  0  0
    1.4373    2.7434    1.7305 H   0  0  0  0  0  0  0  0  0  0  0  0
   -0.3905    2.8568    0.1042 H   0  0  0  0  0  0  0  0  0  0  0  0
    1.0404    2.8455   -0.9210 H   0  0  0  0  0  0  0  0  0  0  0  0
   -0.9713    0.9765   -1.1901 H   0  0  0  0  0  0  0  0  0  0  0  0
    0.7036    0.5001   -2.8049 H   0  0  0  0  0  0  0  0  0  0  0  0
    1.9961    0.6811   -1.6253 H   0  0  0  0  0  0  0  0  0  0  0  0
  1  2  1  0
  1  3  1  0
  1  4  1  0
  1  5  1  0
  2  6  1  0
  2  7  1  0
  8  9  1  0
  8 15  1  0
  8 16  1  0
  8 17  1  0
  9 10  1  0
  9 18  1  0
  9 19  1  0
 10 11  1  0
 10 14  1  0
 10 20  1  0
 11 12  1  0
 11 21  1  0
 11 22  1  0
 12 13  1  0
 12 23  1  0
 12 24  1  0
 13 14  1  0
 13 25  1  0
 13 26  1  0
 14 15  1  0
 14 27  1  0
 15 28  1  0
 15 29  1  0
M  RAD  1   2   2
M  END
>  <reaction>  (13) 
rxn_556

>  <mol_properties>  (13) 
{"0": {"label": "*4", "atom_type": "Cs"}, "1": {"label": "*3", "atom_type": "Cs"}, "9": {"label": "*1", "atom_type": "Cs"}, "13": {"label": "*0", "atom_type": "Cs"}, "19": {"label": "*2", "atom_type": "H0"}}

>  <type>  (13) 
unop_9

>  <geom_source>  (13) 
Heuristics

$$$$

     RDKit          3D

 29 29  0  0  0  0  0  0  0  0999 V2000
   -2.3832   -2.1257    1.7651 C   0  0  0  0  0  0  0  0  0  0  0  0
   -2.3936   -1.0914    0.6476 C   0  0  0  0  0  3  0  0  0  0  0  0
   -3.3309   -2.1330    2.3065 H   0  0  0  0  0  0  0  0  0  0  0  0
   -1.5916   -1.9199    2.4877 H   0  0  0  0  0  0  0  0  0  0  0  0
   -2.2192   -3.1308    1.3727 H   0  0  0  0  0  0  0  0  0  0  0  0
   -2.5576   -0.0862    1.0400 H   0  0  0  0  0  0  0  0  0  0  0  0
   -3.1853   -1.2972   -0.0750 H   0  0  0  0  0  0  0  0  0  0  0  0
    0.9604   -1.2332   -1.6646 C   0  0  0  0  0  0  0  0  0  0  0  0
    0.9604   -1.2332   -0.1382 C   0  0  0  0  0  0  0  0  0  0  0  0
   -0.0030   -0.0985    0.2502 C   0  0  0  0  0  0  0  0  0  0  0  0
    0.4498    0.7401    1.4546 C   0  0  0  0  0  0  0  0  0  0  0  0
    1.2618    1.8783    0.8352 C   0  0  0  0  0  0  0  0  0  0  0  0
    0.4498    2.2379   -0.4097 C   0  0  0  0  0  0  0  0  0  0  0  0
   -0.0030    0.8811   -0.9691 C   0  0  0  0  0  0  0  0  0  0  0  0
    0.9604    0.2574   -1.9935 C   0  0  0  0  0  0  0  0  0  0  0  0
    1.8052   -1.7714   -2.0970 H   0  0  0  0  0  0  0  0  0  0  0  0
    0.0445   -1.7001   -2.0397 H   0  0  0  0  0  0  0  0  0  0  0  0
    0.6760   -2.1916    0.2984 H   0  0  0  0  0  0  0  0  0  0  0  0
    1.9685   -1.0007    0.2211 H   0  0  0  0  0  0  0  0  0  0  0  0
   -1.1980   -0.5948    0.4488 H   0  0  0  0  0  0  0  0  0  0  0  0
   -0.4181    1.1569    1.9730 H   0  0  0  0  0  0  0  0  0  0  0  0
    1.0128    0.1534    2.1829 H   0  0  0  0  0  0  0  0  0  0  0  0
    2.2529    1.5164    0.5445 H   0  0  0  0  0  0  0  0  0  0  0  0
    1.4097    2.7206    1.5120 H   0  0  0  0  0  0  0  0  0  0  0  0
   -0.4181    2.8339   -0.1143 H   0  0  0  0  0  0  0  0  0  0  0  0
    1.0128    2.8227   -1.1395 H   0  0  0  0  0  0  0  0  0  0  0  0
   -0.9989    0.9536   -1.4086 H   0  0  0  0  0  0  0  0  0  0  0  0
    0.6760    0.4772   -3.0234 H   0  0  0  0  0  0  0  0  0  0  0  0
    1.9685    0.6583   -1.8438 H   0  0  0  0  0  0  0  0  0  0  0  0
  1  2  1  0
  1  3  1  0
  1  4  1  0
  1  5  1  0
  2  6  1  0
  2  7  1  0
  8  9  1  0
  8 15  1  0
  8 16  1  0
  8 17  1  0
  9 10  1  0
  9 18  1  0
  9 19  1  0
 10 11  1  0
 10 14  1  0
 10 20  1  0
 11 12  1  0
 11 21  1  0
 11 22  1  0
 12 13  1  0
 12 23  1  0
 12 24  1  0
 13 14  1  0
 13 25  1  0
 13 26  1  0
 14 15  1  0
 14 27  1  0
 15 28  1  0
 15 29  1  0
M  RAD  1   2   2
M  END
>  <reaction>  (14) 
rxn_556

>  <mol_properties>  (14) 
{"0": {"label": "*4", "atom_type": "Cs"}, "1": {"label": "*3", "atom_type": "Cs"}, "9": {"label": "*1", "atom_type": "Cs"}, "13": {"label": "*0", "atom_type": "Cs"}, "19": {"label": "*2", "atom_type": "H0"}}

>  <type>  (14) 
unop_10

>  <geom_source>  (14) 
Heuristics

$$$$

     RDKit          3D

 29 29  0  0  0  0  0  0  0  0999 V2000
   -3.3589   -0.2957    0.4669 C   0  0  0  0  0  0  0  0  0  0  0  0
   -2.2759   -1.3116    0.8043 C   0  0  0  0  0  3  0  0  0  0  0  0
   -4.2572   -0.4616    1.0642 H   0  0  0  0  0  0  0  0  0  0  0  0
   -3.6453   -0.3568   -0.5845 H   0  0  0  0  0  0  0  0  0  0  0  0
   -3.0189    0.7237    0.6579 H   0  0  0  0  0  0  0  0  0  0  0  0
   -2.6160   -2.3309    0.6133 H   0  0  0  0  0  0  0  0  0  0  0  0
   -1.9895   -1.2504    1.8557 H   0  0  0  0  0  0  0  0  0  0  0  0
    1.0780   -1.4534   -1.5079 C   0  0  0  0  0  0  0  0  0  0  0  0
    1.0780   -1.4534    0.0185 C   0  0  0  0  0  0  0  0  0  0  0  0
    0.1147   -0.3187    0.4069 C   0  0  0  0  0  0  0  0  0  0  0  0
    0.5675    0.5199    1.6113 C   0  0  0  0  0  0  0  0  0  0  0  0
    1.3794    1.6581    0.9919 C   0  0  0  0  0  0  0  0  0  0  0  0
    0.5675    2.0177   -0.2530 C   0  0  0  0  0  0  0  0  0  0  0  0
    0.1147    0.6609   -0.8124 C   0  0  0  0  0  0  0  0  0  0  0  0
    1.0780    0.0371   -1.8368 C   0  0  0  0  0  0  0  0  0  0  0  0
    1.9229   -1.9916   -1.9403 H   0  0  0  0  0  0  0  0  0  0  0  0
    0.1622   -1.9203   -1.8830 H   0  0  0  0  0  0  0  0  0  0  0  0
    0.7937   -2.4118    0.4551 H   0  0  0  0  0  0  0  0  0  0  0  0
    2.0862   -1.2209    0.3778 H   0  0  0  0  0  0  0  0  0  0  0  0
   -1.0803   -0.8150    0.6055 H   0  0  0  0  0  0  0  0  0  0  0  0
   -0.3004    0.9367    2.1297 H   0  0  0  0  0  0  0  0  0  0  0  0
    1.1305   -0.0668    2.3396 H   0  0  0  0  0  0  0  0  0  0  0  0
    2.3706    1.2962    0.7012 H   0  0  0  0  0  0  0  0  0  0  0  0
    1.5274    2.5004    1.6687 H   0  0  0  0  0  0  0  0  0  0  0  0
   -0.3004    2.6137    0.0423 H   0  0  0  0  0  0  0  0  0  0  0  0
    1.1305    2.6024   -0.9828 H   0  0  0  0  0  0  0  0  0  0  0  0
   -0.8812    0.7334   -1.2519 H   0  0  0  0  0  0  0  0  0  0  0  0
    0.7937    0.2570   -2.8667 H   0  0  0  0  0  0  0  0  0  0  0  0
    2.0862    0.4381   -1.6871 H   0  0  0  0  0  0  0  0  0  0  0  0
  1  2  1  0
  1  3  1  0
  1  4  1  0
  1  5  1  0
  2  6  1  0
  2  7  1  0
  8  9  1  0
  8 15  1  0
  8 16  1  0
  8 17  1  0
  9 10  1  0
  9 18  1  0
  9 19  1  0
 10 11  1  0
 10 14  1  0
 10 20  1  0
 11 12  1  0
 11 21  1  0
 11 22  1  0
 12 13  1  0
 12 23  1  0
 12 24  1  0
 13 14  1  0
 13 25  1  0
 13 26  1  0
 14 15  1  0
 14 27  1  0
 15 28  1  0
 15 29  1  0
M  RAD  1   2   2
M  END
>  <reaction>  (15) 
rxn_556

>  <mol_properties>  (15) 
{"0": {"label": "*4", "atom_type": "Cs"}, "1": {"label": "*3", "atom_type": "Cs"}, "9": {"label": "*1", "atom_type": "Cs"}, "13": {"label": "*0", "atom_type": "Cs"}, "19": {"label": "*2", "atom_type": "H0"}}

>  <type>  (15) 
unop_11

>  <geom_source>  (15) 
Heuristics

$$$$

     RDKit          3D

 29 29  0  0  0  0  0  0  0  0999 V2000
   -2.4063   -2.5441    0.5744 C   0  0  0  0  0  0  0  0  0  0  0  0
   -2.3904   -1.0374    0.7948 C   0  0  0  0  0  3  0  0  0  0  0  0
   -3.4026   -2.9579    0.7400 H   0  0  0  0  0  0  0  0  0  0  0  0
   -1.7206   -3.0511    1.2555 H   0  0  0  0  0  0  0  0  0  0  0  0
   -2.1082   -2.7983   -0.4443 H   0  0  0  0  0  0  0  0  0  0  0  0
   -2.6885   -0.7832    1.8134 H   0  0  0  0  0  0  0  0  0  0  0  0
   -3.0761   -0.5304    0.1136 H   0  0  0  0  0  0  0  0  0  0  0  0
    0.9635   -1.1793   -1.5174 C   0  0  0  0  0  0  0  0  0  0  0  0
    0.9635   -1.1793    0.0090 C   0  0  0  0  0  0  0  0  0  0  0  0
    0.0002   -0.0445    0.3973 C   0  0  0  0  0  0  0  0  0  0  0  0
    0.4529    0.7940    1.6018 C   0  0  0  0  0  0  0  0  0  0  0  0
    1.2649    1.9322    0.9824 C   0  0  0  0  0  0  0  0  0  0  0  0
    0.4529    2.2918   -0.2625 C   0  0  0  0  0  0  0  0  0  0  0  0
    0.0002    0.9350   -0.8219 C   0  0  0  0  0  0  0  0  0  0  0  0
    0.9635    0.3113   -1.8463 C   0  0  0  0  0  0  0  0  0  0  0  0
    1.8084   -1.7175   -1.9498 H   0  0  0  0  0  0  0  0  0  0  0  0
    0.0477   -1.6461   -1.8925 H   0  0  0  0  0  0  0  0  0  0  0  0
    0.6792   -2.1376    0.4456 H   0  0  0  0  0  0  0  0  0  0  0  0
    1.9717   -0.9467    0.3683 H   0  0  0  0  0  0  0  0  0  0  0  0
   -1.1949   -0.5409    0.5960 H   0  0  0  0  0  0  0  0  0  0  0  0
   -0.4149    1.2108    2.1202 H   0  0  0  0  0  0  0  0  0  0  0  0
    1.0160    0.2073    2.3301 H   0  0  0  0  0  0  0  0  0  0  0  0
    2.2561    1.5704    0.6917 H   0  0  0  0  0  0  0  0  0  0  0  0
    1.4129    2.7745    1.6592 H   0  0  0  0  0  0  0  0  0  0  0  0
   -0.4149    2.8879    0.0328 H   0  0  0  0  0  0  0  0  0  0  0  0
    1.0160    2.8766   -0.9923 H   0  0  0  0  0  0  0  0  0  0  0  0
   -0.9957    1.0076   -1.2614 H   0  0  0  0  0  0  0  0  0  0  0  0
    0.6792    0.5312   -2.8762 H   0  0  0  0  0  0  0  0  0  0  0  0
    1.9717    0.7123   -1.6966 H   0  0  0  0  0  0  0  0  0  0  0  0
  1  2  1  0
  1  3  1  0
  1  4  1  0
  1  5  1  0
  2  6  1  0
  2  7  1  0
  8  9  1  0
  8 15  1  0
  8 16  1  0
  8 17  1  0
  9 10  1  0
  9 18  1  0
  9 19  1  0
 10 11  1  0
 10 14  1  0
 10 20  1  0
 11 12  1  0
 11 21  1  0
 11 22  1  0
 12 13  1  0
 12 23  1  0
 12 24  1  0
 13 14  1  0
 13 25  1  0
 13 26  1  0
 14 15  1  0
 14 27  1  0
 15 28  1  0
 15 29  1  0
M  RAD  1   2   2
M  END
>  <reaction>  (16) 
rxn_556

>  <mol_properties>  (16) 
{"0": {"label": "*4", "atom_type": "Cs"}, "1": {"label": "*3", "atom_type": "Cs"}, "9": {"label": "*1", "atom_type": "Cs"}, "13": {"label": "*0", "atom_type": "Cs"}, "19": {"label": "*2", "atom_type": "H0"}}

>  <type>  (16) 
unop_12

>  <geom_source>  (16) 
Heuristics

$$$$

     RDKit          3D

 29 29  0  0  0  0  0  0  0  0999 V2000
   -1.4682   -0.0305   -0.0523 C   0  0  0  0  0  0  0  0  0  0  0  0
   -1.4161    1.3486    0.5669 C   0  0  0  0  0  0  0  0  0  0  0  0
   -1.3889   -1.3047    0.7588 C   0  0  0  0  0  0  0  0  0  0  0  0
   -0.7740    2.2043   -0.5535 C   0  0  0  0  0  0  0  0  0  0  0  0
   -0.7279   -2.2995   -0.2278 C   0  0  0  0  0  0  0  0  0  0  0  0
   -0.1478    1.2193   -1.5653 C   0  0  0  0  0  0  0  0  0  0  0  0
   -0.1204   -1.4578   -1.3717 C   0  0  0  0  0  0  0  0  0  0  0  0
    2.8140   -0.2971    1.2278 C   0  0  0  0  0  0  0  0  0  0  0  0
    1.6033    0.5806    0.9645 C   0  0  0  0  0  0  0  0  0  0  0  0
   -0.1898   -0.0710   -0.7933 C   0  0  0  0  0  3  0  0  0  0  0  0
   -2.3371   -0.0901   -0.7535 H   0  0  0  0  0  0  0  0  0  0  0  0
   -0.7709    1.3500    1.4738 H   0  0  0  0  0  0  0  0  0  0  0  0
   -2.4337    1.7115    0.8269 H   0  0  0  0  0  0  0  0  0  0  0  0
    0.0046    2.8721   -0.1248 H   0  0  0  0  0  0  0  0  0  0  0  0
   -1.5459    2.8258   -1.0575 H   0  0  0  0  0  0  0  0  0  0  0  0
   -0.7452   -1.1626    1.6555 H   0  0  0  0  0  0  0  0  0  0  0  0
   -2.3994   -1.6471    1.0698 H   0  0  0  0  0  0  0  0  0  0  0  0
    0.0635   -2.8827    0.2914 H   0  0  0  0  0  0  0  0  0  0  0  0
   -1.4863   -3.0027   -0.6360 H   0  0  0  0  0  0  0  0  0  0  0  0
   -0.7678    1.1471   -2.4862 H   0  0  0  0  0  0  0  0  0  0  0  0
    0.8981    1.4949   -1.8166 H   0  0  0  0  0  0  0  0  0  0  0  0
   -0.7403   -1.5314   -2.2925 H   0  0  0  0  0  0  0  0  0  0  0  0
    0.9312   -1.7453   -1.5822 H   0  0  0  0  0  0  0  0  0  0  0  0
    3.3139   -0.5435    0.2677 H   0  0  0  0  0  0  0  0  0  0  0  0
    2.4941   -1.2378    1.7230 H   0  0  0  0  0  0  0  0  0  0  0  0
    3.5310    0.2368    1.8865 H   0  0  0  0  0  0  0  0  0  0  0  0
    1.9207    1.5214    0.4674 H   0  0  0  0  0  0  0  0  0  0  0  0
    1.1005    0.8268    1.9234 H   0  0  0  0  0  0  0  0  0  0  0  0
    0.7849   -0.0353    0.2096 H   0  0  0  0  0  0  0  0  0  0  0  0
  1  2  1  0
  1  3  1  0
  1 10  1  0
  1 11  1  0
  2  4  1  0
  2 12  1  0
  2 13  1  0
  3  5  1  0
  3 16  1  0
  3 17  1  0
  4  6  1  0
  4 14  1  0
  4 15  1  0
  5  7  1  0
  5 18  1  0
  5 19  1  0
  6 10  1  0
  6 20  1  0
  6 21  1  0
  7 10  1  0
  7 22  1  0
  7 23  1  0
  8  9  1  0
  8 24  1  0
  8 25  1  0
  8 26  1  0
  9 27  1  0
  9 28  1  0
  9 29  1  0
M  RAD  1  10   2
M  END
>  <reaction>  (17) 
rxn_556

>  <mol_properties>  (17) 
{"0": {"label": "*4", "atom_type": "Cs"}, "1": {"label": "*3", "atom_type": "Cs"}, "9": {"label": "*1", "atom_type": "Cs"}, "13": {"label": "*0", "atom_type": "Cs"}, "19": {"label": "*2", "atom_type": "H0"}}

>  <type>  (17) 
unop_13

>  <geom_source>  (17) 
AutoTST

$$$$
