
     RDKit          3D

 12 11  0  0  0  0  0  0  0  0999 V2000
    1.9877    0.1011    0.4814 C   0  0  0  0  0  0  0  0  0  0  0  0
    0.8179    0.5502    0.0525 C   0  0  0  0  0  0  0  0  0  0  0  0
   -0.2939   -0.2692   -0.5320 C   0  0  0  0  0  0  0  0  0  0  0  0
   -0.0292   -1.7631   -0.6328 C   0  0  0  0  0  0  0  0  0  0  0  0
    2.2522   -0.9490    0.4436 H   0  0  0  0  0  0  0  0  0  0  0  0
    2.7295    0.7757    0.8896 H   0  0  0  0  0  0  0  0  0  0  0  0
    0.6162    1.6164    0.1190 H   0  0  0  0  0  0  0  0  0  0  0  0
   -0.5268    0.1319   -1.5245 H   0  0  0  0  0  0  0  0  0  0  0  0
   -1.1959   -0.0938    0.0644 H   0  0  0  0  0  0  0  0  0  0  0  0
    0.1590   -2.1992    0.3502 H   0  0  0  0  0  0  0  0  0  0  0  0
    0.8382   -1.9701   -1.2626 H   0  0  0  0  0  0  0  0  0  0  0  0
   -0.8879   -2.2759   -1.0672 H   0  0  0  0  0  0  0  0  0  0  0  0
  1  2  2  3
  1  5  1  0
  1  6  1  0
  2  3  1  0
  2  7  1  0
  3  4  1  0
  3  8  1  0
  3  9  1  0
  4 10  1  0
  4 11  1  0
  4 12  1  0
M  END
>  <reaction>  (1) 
rxn_1061

>  <mol_properties>  (1) 
{"2": {"label": "donator", "atom_type": "Cs"}, "7": {"label": "d_hydrogen", "atom_type": "H0"}}

>  <type>  (1) 
r1h

$$$$

     RDKit          3D

 11 10  0  0  0  0  0  0  0  0999 V2000
    1.0781   -1.0166   -0.1159 C   0  0  0  0  0  0  0  0  0  0  0  0
    0.2180    0.1942   -0.2297 C   0  0  0  0  0  3  0  0  0  0  0  0
    0.9343    1.7769   -0.3011 S   0  0  0  0  0  0  0  0  0  0  0  0
   -1.1949    0.1490    0.2439 C   0  0  0  0  0  0  0  0  0  0  0  0
    1.4718   -1.1461    0.9024 H   0  0  0  0  0  0  0  0  0  0  0  0
    1.9367   -0.9751   -0.7902 H   0  0  0  0  0  0  0  0  0  0  0  0
    0.5033   -1.9136   -0.3576 H   0  0  0  0  0  0  0  0  0  0  0  0
    2.1166    1.4195   -0.8209 H   0  0  0  0  0  0  0  0  0  0  0  0
   -1.2620    0.0939    1.3399 H   0  0  0  0  0  0  0  0  0  0  0  0
   -1.7600    1.0270   -0.0739 H   0  0  0  0  0  0  0  0  0  0  0  0
   -1.6972   -0.7380   -0.1506 H   0  0  0  0  0  0  0  0  0  0  0  0
  1  2  1  0
  1  5  1  0
  1  6  1  0
  1  7  1  0
  2  4  1  0
  2  3  1  0
  3  8  1  0
  4  9  1  0
  4 10  1  0
  4 11  1  0
M  RAD  1   2   2
M  END
>  <reaction>  (2) 
rxn_1061

>  <mol_properties>  (2) 
{"1": {"label": "acceptor", "atom_type": "Cs"}}

>  <type>  (2) 
r2

$$$$

     RDKit          3D

 12 11  0  0  0  0  0  0  0  0999 V2000
    1.2394   -0.3763   -0.3020 C   0  0  0  0  0  0  0  0  0  0  0  0
    0.1007    0.3023    0.4464 C   0  0  0  0  0  0  0  0  0  0  0  0
   -0.1187    2.0399   -0.0725 S   0  0  0  0  0  0  0  0  0  0  0  0
   -1.1974   -0.4877    0.3552 C   0  0  0  0  0  0  0  0  0  0  0  0
    2.1681    0.1849   -0.2048 H   0  0  0  0  0  0  0  0  0  0  0  0
    1.0031   -0.4606   -1.3656 H   0  0  0  0  0  0  0  0  0  0  0  0
    1.3994   -1.3856    0.0860 H   0  0  0  0  0  0  0  0  0  0  0  0
    0.3796    0.4050    1.4981 H   0  0  0  0  0  0  0  0  0  0  0  0
   -0.4500    1.7779   -1.3452 H   0  0  0  0  0  0  0  0  0  0  0  0
   -1.0545   -1.4978    0.7479 H   0  0  0  0  0  0  0  0  0  0  0  0
   -1.5206   -0.5759   -0.6849 H   0  0  0  0  0  0  0  0  0  0  0  0
   -1.9957   -0.0054    0.9183 H   0  0  0  0  0  0  0  0  0  0  0  0
  1  2  1  0
  1  5  1  0
  1  6  1  0
  1  7  1  0
  2  4  1  0
  2  3  1  0
  2  8  1  0
  3  9  1  0
  4 10  1  0
  4 11  1  0
  4 12  1  0
M  END
>  <reaction>  (3) 
rxn_1061

>  <mol_properties>  (3) 
{"1": {"label": "acceptor", "atom_type": "Cs"}, "11": {"label": "a_hydrogen", "atom_type": "H0"}}

>  <type>  (3) 
r2h

$$$$

     RDKit          3D

 23 21  0  0  0  0  0  0  0  0999 V2000
    1.9946   -0.3709   -0.2261 C   0  0  0  0  0  0  0  0  0  0  0  0
    0.9419    0.1461    0.7191 C   0  0  0  0  0  3  0  0  0  0  0  0
    0.3473   -1.0279    1.9235 S   0  0  0  0  0  0  0  0  0  0  0  0
    1.2278    1.4851    1.3488 C   0  0  0  0  0  0  0  0  0  0  0  0
    1.6352   -1.2424   -0.7772 H   0  0  0  0  0  0  0  0  0  0  0  0
    2.9024   -0.6610    0.3126 H   0  0  0  0  0  0  0  0  0  0  0  0
    2.2613    0.4023   -0.9503 H   0  0  0  0  0  0  0  0  0  0  0  0
    0.1470   -2.0403    1.0679 H   0  0  0  0  0  0  0  0  0  0  0  0
    1.4247    2.2242    0.5694 H   0  0  0  0  0  0  0  0  0  0  0  0
    0.3844    1.8351    1.9461 H   0  0  0  0  0  0  0  0  0  0  0  0
    2.1094    1.4442    1.9976 H   0  0  0  0  0  0  0  0  0  0  0  0
   -1.4377   -1.6593   -2.1349 C   0  0  0  0  0  0  0  0  0  0  0  0
   -1.6807   -0.8155   -1.1266 C   0  0  0  0  0  0  0  0  0  0  0  0
   -1.1250    0.5253   -0.9668 C   0  0  0  0  0  0  0  0  0  0  0  0
   -0.4860    1.1971   -2.1570 C   0  0  0  0  0  0  0  0  0  0  0  0
   -0.8205   -1.3839   -2.9817 H   0  0  0  0  0  0  0  0  0  0  0  0
   -1.8697   -2.6514   -2.1483 H   0  0  0  0  0  0  0  0  0  0  0  0
   -2.3155   -1.1568   -0.3137 H   0  0  0  0  0  0  0  0  0  0  0  0
   -0.1489    0.3614   -0.1009 H   0  0  0  0  0  0  0  0  0  0  0  0
   -1.7747    1.1847   -0.3913 H   0  0  0  0  0  0  0  0  0  0  0  0
   -1.2153    1.3758   -2.9525 H   0  0  0  0  0  0  0  0  0  0  0  0
    0.3152    0.5873   -2.5793 H   0  0  0  0  0  0  0  0  0  0  0  0
   -0.0559    2.1590   -1.8743 H   0  0  0  0  0  0  0  0  0  0  0  0
  1  2  1  0
  1  5  1  0
  1  6  1  0
  1  7  1  0
  2  4  1  0
  2  3  1  0
  3  8  1  0
  4  9  1  0
  4 10  1  0
  4 11  1  0
 12 13  2  3
 12 16  1  0
 12 17  1  0
 13 14  1  0
 13 18  1  0
 14 15  1  0
 14 19  1  0
 14 20  1  0
 15 21  1  0
 15 22  1  0
 15 23  1  0
M  RAD  1   2   2
M  END
>  <reaction>  (4) 
rxn_1061

>  <mol_properties>  (4) 
{"1": {"label": "*3", "atom_type": "Cs"}, "2": {"label": "*4", "atom_type": "S2s"}, "12": {"label": "*0", "atom_type": "Cd"}, "13": {"label": "*1", "atom_type": "Cs"}, "18": {"label": "*2", "atom_type": "H0"}}

>  <type>  (4) 
ts

$$$$

     RDKit          3D

 23 21  0  0  0  0  0  0  0  0999 V2000
    1.5701    1.4163    0.6220 C   0  0  0  0  0  0  0  0  0  0  0  0
    0.6790    0.2034    0.8509 C   0  0  0  0  0  0  0  0  0  0  0  0
    1.6341   -1.2517    1.4051 S   0  0  0  0  0  0  0  0  0  0  0  0
   -0.4822    0.5124    1.7856 C   0  0  0  0  0  0  0  0  0  0  0  0
    2.3798    1.1885   -0.0704 H   0  0  0  0  0  0  0  0  0  0  0  0
    2.0121    1.7508    1.5637 H   0  0  0  0  0  0  0  0  0  0  0  0
    0.9849    2.2446    0.2142 H   0  0  0  0  0  0  0  0  0  0  0  0
    2.0578   -0.7236    2.5626 H   0  0  0  0  0  0  0  0  0  0  0  0
   -1.0817    1.3344    1.3860 H   0  0  0  0  0  0  0  0  0  0  0  0
   -1.1268   -0.3559    1.9179 H   0  0  0  0  0  0  0  0  0  0  0  0
   -0.1133    0.8147    2.7688 H   0  0  0  0  0  0  0  0  0  0  0  0
   -1.4051   -0.8382   -2.9565 C   0  0  0  0  0  0  0  0  0  0  0  0
   -1.4051   -0.8382   -1.6322 C   0  0  0  0  0  0  0  0  0  0  0  0
   -1.4051    0.3663   -0.7387 C   0  0  0  0  0  3  0  0  0  0  0  0
   -1.4051    1.7121   -1.4464 C   0  0  0  0  0  0  0  0  0  0  0  0
   -1.4051    0.0787   -3.5340 H   0  0  0  0  0  0  0  0  0  0  0  0
   -1.4051   -1.7655   -3.5152 H   0  0  0  0  0  0  0  0  0  0  0  0
   -1.4051   -1.7939   -1.1140 H   0  0  0  0  0  0  0  0  0  0  0  0
   -0.3619    0.2847    0.0570 H   0  0  0  0  0  0  0  0  0  0  0  0
   -2.2745    0.2983   -0.0756 H   0  0  0  0  0  0  0  0  0  0  0  0
   -2.2876    1.8271   -2.0789 H   0  0  0  0  0  0  0  0  0  0  0  0
   -0.5227    1.8271   -2.0789 H   0  0  0  0  0  0  0  0  0  0  0  0
   -1.4051    2.5264   -0.7211 H   0  0  0  0  0  0  0  0  0  0  0  0
  1  2  1  0
  1  5  1  0
  1  6  1  0
  1  7  1  0
  2  4  1  0
  2  3  1  0
  2 19  1  0
  3  8  1  0
  4  9  1  0
  4 10  1  0
  4 11  1  0
 12 13  2  3
 12 16  1  0
 12 17  1  0
 13 14  1  0
 13 18  1  0
 14 15  1  0
 14 20  1  0
 15 21  1  0
 15 22  1  0
 15 23  1  0
M  RAD  1  14   2
M  END
>  <reaction>  (5) 
rxn_1061

>  <mol_properties>  (5) 
{"1": {"label": "*3", "atom_type": "Cs"}, "2": {"label": "*4", "atom_type": "S2s"}, "12": {"label": "*0", "atom_type": "Cd"}, "13": {"label": "*1", "atom_type": "Cs"}, "18": {"label": "*2", "atom_type": "H0"}}

>  <type>  (5) 
unop_1

>  <geom_source>  (5) 
Heuristics

$$$$

     RDKit          3D

 23 21  0  0  0  0  0  0  0  0999 V2000
    1.9034   -0.6546    0.0245 C   0  0  0  0  0  0  0  0  0  0  0  0
    0.7920    0.0971    0.7437 C   0  0  0  0  0  0  0  0  0  0  0  0
    0.4979   -0.5597    2.4226 S   0  0  0  0  0  0  0  0  0  0  0  0
    1.0291    1.6008    0.7537 C   0  0  0  0  0  0  0  0  0  0  0  0
    1.7066   -1.7258    0.0004 H   0  0  0  0  0  0  0  0  0  0  0  0
    2.8609   -0.4961    0.5267 H   0  0  0  0  0  0  0  0  0  0  0  0
    2.0009   -0.2945   -1.0029 H   0  0  0  0  0  0  0  0  0  0  0  0
    1.7048   -0.2525    2.9197 H   0  0  0  0  0  0  0  0  0  0  0  0
    1.1205    1.9767   -0.2687 H   0  0  0  0  0  0  0  0  0  0  0  0
    0.2128    2.1279    1.2463 H   0  0  0  0  0  0  0  0  0  0  0  0
    1.9555    1.8396    1.2818 H   0  0  0  0  0  0  0  0  0  0  0  0
   -1.2921   -0.9445   -3.0637 C   0  0  0  0  0  0  0  0  0  0  0  0
   -1.2921   -0.9445   -1.7394 C   0  0  0  0  0  0  0  0  0  0  0  0
   -1.2921    0.2600   -0.8459 C   0  0  0  0  0  3  0  0  0  0  0  0
   -1.2921    1.6058   -1.5536 C   0  0  0  0  0  0  0  0  0  0  0  0
   -1.2921   -0.0275   -3.6412 H   0  0  0  0  0  0  0  0  0  0  0  0
   -1.2921   -1.8718   -3.6224 H   0  0  0  0  0  0  0  0  0  0  0  0
   -1.2921   -1.9002   -1.2212 H   0  0  0  0  0  0  0  0  0  0  0  0
   -0.2489    0.1785   -0.0502 H   0  0  0  0  0  0  0  0  0  0  0  0
   -2.1615    0.1921   -0.1828 H   0  0  0  0  0  0  0  0  0  0  0  0
   -2.1746    1.7208   -2.1861 H   0  0  0  0  0  0  0  0  0  0  0  0
   -0.4097    1.7208   -2.1861 H   0  0  0  0  0  0  0  0  0  0  0  0
   -1.2921    2.4202   -0.8283 H   0  0  0  0  0  0  0  0  0  0  0  0
  1  2  1  0
  1  5  1  0
  1  6  1  0
  1  7  1  0
  2  4  1  0
  2  3  1  0
  2 19  1  0
  3  8  1  0
  4  9  1  0
  4 10  1  0
  4 11  1  0
 12 13  2  3
 12 16  1  0
 12 17  1  0
 13 14  1  0
 13 18  1  0
 14 15  1  0
 14 20  1  0
 15 21  1  0
 15 22  1  0
 15 23  1  0
M  RAD  1  14   2
M  END
>  <reaction>  (6) 
rxn_1061

>  <mol_properties>  (6) 
{"1": {"label": "*3", "atom_type": "Cs"}, "2": {"label": "*4", "atom_type": "S2s"}, "12": {"label": "*0", "atom_type": "Cd"}, "13": {"label": "*1", "atom_type": "Cs"}, "18": {"label": "*2", "atom_type": "H0"}}

>  <type>  (6) 
unop_2

>  <geom_source>  (6) 
Heuristics

$$$$

     RDKit          3D

 23 21  0  0  0  0  0  0  0  0999 V2000
    1.0581    1.6130    1.3331 C   0  0  0  0  0  0  0  0  0  0  0  0
    0.5940    0.2062    0.9825 C   0  0  0  0  0  0  0  0  0  0  0  0
    1.9987   -0.9235    0.6876 S   0  0  0  0  0  0  0  0  0  0  0  0
   -0.3786   -0.3508    2.0126 C   0  0  0  0  0  0  0  0  0  0  0  0
    1.7309    2.0096    0.5735 H   0  0  0  0  0  0  0  0  0  0  0  0
    1.5864    1.6154    2.2897 H   0  0  0  0  0  0  0  0  0  0  0  0
    0.1997    2.2836    1.4234 H   0  0  0  0  0  0  0  0  0  0  0  0
    2.5045   -0.8643    1.9282 H   0  0  0  0  0  0  0  0  0  0  0  0
   -1.2471    0.3061    2.1077 H   0  0  0  0  0  0  0  0  0  0  0  0
   -0.7240   -1.3460    1.7346 H   0  0  0  0  0  0  0  0  0  0  0  0
    0.0985   -0.4184    2.9934 H   0  0  0  0  0  0  0  0  0  0  0  0
   -1.4901   -0.8353   -2.8250 C   0  0  0  0  0  0  0  0  0  0  0  0
   -1.4901   -0.8353   -1.5007 C   0  0  0  0  0  0  0  0  0  0  0  0
   -1.4901    0.3692   -0.6072 C   0  0  0  0  0  3  0  0  0  0  0  0
   -1.4901    1.7149   -1.3149 C   0  0  0  0  0  0  0  0  0  0  0  0
   -1.4901    0.0816   -3.4024 H   0  0  0  0  0  0  0  0  0  0  0  0
   -1.4901   -1.7627   -3.3837 H   0  0  0  0  0  0  0  0  0  0  0  0
   -1.4901   -1.7911   -0.9825 H   0  0  0  0  0  0  0  0  0  0  0  0
   -0.4469    0.2876    0.1886 H   0  0  0  0  0  0  0  0  0  0  0  0
   -2.3595    0.3012    0.0559 H   0  0  0  0  0  0  0  0  0  0  0  0
   -2.3726    1.8299   -1.9473 H   0  0  0  0  0  0  0  0  0  0  0  0
   -0.6077    1.8299   -1.9473 H   0  0  0  0  0  0  0  0  0  0  0  0
   -1.4901    2.5293   -0.5896 H   0  0  0  0  0  0  0  0  0  0  0  0
  1  2  1  0
  1  5  1  0
  1  6  1  0
  1  7  1  0
  2  4  1  0
  2  3  1  0
  2 19  1  0
  3  8  1  0
  4  9  1  0
  4 10  1  0
  4 11  1  0
 12 13  2  3
 12 16  1  0
 12 17  1  0
 13 14  1  0
 13 18  1  0
 14 15  1  0
 14 20  1  0
 15 21  1  0
 15 22  1  0
 15 23  1  0
M  RAD  1  14   2
M  END
>  <reaction>  (7) 
rxn_1061

>  <mol_properties>  (7) 
{"1": {"label": "*3", "atom_type": "Cs"}, "2": {"label": "*4", "atom_type": "S2s"}, "12": {"label": "*0", "atom_type": "Cd"}, "13": {"label": "*1", "atom_type": "Cs"}, "18": {"label": "*2", "atom_type": "H0"}}

>  <type>  (7) 
unop_3

>  <geom_source>  (7) 
Heuristics

$$$$

     RDKit          3D

 23 21  0  0  0  0  0  0  0  0999 V2000
    0.8721   -1.4875    1.6538 C   0  0  0  0  0  0  0  0  0  0  0  0
    0.9803   -0.2134    0.8277 C   0  0  0  0  0  0  0  0  0  0  0  0
   -0.0402    1.1362    1.5159 S   0  0  0  0  0  0  0  0  0  0  0  0
    2.4263    0.2149    0.6198 C   0  0  0  0  0  0  0  0  0  0  0  0
   -0.1657   -1.7976    1.7707 H   0  0  0  0  0  0  0  0  0  0  0  0
    1.2957   -1.3361    2.6497 H   0  0  0  0  0  0  0  0  0  0  0  0
    1.4267   -2.2982    1.1742 H   0  0  0  0  0  0  0  0  0  0  0  0
    0.6160    1.2445    2.6803 H   0  0  0  0  0  0  0  0  0  0  0  0
    2.9917   -0.5839    0.1329 H   0  0  0  0  0  0  0  0  0  0  0  0
    2.4898    1.1112    0.0038 H   0  0  0  0  0  0  0  0  0  0  0  0
    2.9052    0.4269    1.5788 H   0  0  0  0  0  0  0  0  0  0  0  0
   -1.1038   -1.2550   -2.9797 C   0  0  0  0  0  0  0  0  0  0  0  0
   -1.1038   -1.2550   -1.6554 C   0  0  0  0  0  0  0  0  0  0  0  0
   -1.1038   -0.0505   -0.7619 C   0  0  0  0  0  3  0  0  0  0  0  0
   -1.1038    1.2953   -1.4696 C   0  0  0  0  0  0  0  0  0  0  0  0
   -1.1038   -0.3381   -3.5572 H   0  0  0  0  0  0  0  0  0  0  0  0
   -1.1038   -2.1823   -3.5384 H   0  0  0  0  0  0  0  0  0  0  0  0
   -1.1038   -2.2107   -1.1372 H   0  0  0  0  0  0  0  0  0  0  0  0
   -0.0606   -0.1321    0.0338 H   0  0  0  0  0  0  0  0  0  0  0  0
   -1.9732   -0.1185   -0.0988 H   0  0  0  0  0  0  0  0  0  0  0  0
   -1.9863    1.4103   -2.1021 H   0  0  0  0  0  0  0  0  0  0  0  0
   -0.2214    1.4103   -2.1021 H   0  0  0  0  0  0  0  0  0  0  0  0
   -1.1038    2.1096   -0.7443 H   0  0  0  0  0  0  0  0  0  0  0  0
  1  2  1  0
  1  5  1  0
  1  6  1  0
  1  7  1  0
  2  4  1  0
  2  3  1  0
  2 19  1  0
  3  8  1  0
  4  9  1  0
  4 10  1  0
  4 11  1  0
 12 13  2  3
 12 16  1  0
 12 17  1  0
 13 14  1  0
 13 18  1  0
 14 15  1  0
 14 20  1  0
 15 21  1  0
 15 22  1  0
 15 23  1  0
M  RAD  1  14   2
M  END
>  <reaction>  (8) 
rxn_1061

>  <mol_properties>  (8) 
{"1": {"label": "*3", "atom_type": "Cs"}, "2": {"label": "*4", "atom_type": "S2s"}, "12": {"label": "*0", "atom_type": "Cd"}, "13": {"label": "*1", "atom_type": "Cs"}, "18": {"label": "*2", "atom_type": "H0"}}

>  <type>  (8) 
unop_4

>  <geom_source>  (8) 
Heuristics

$$$$

     RDKit          3D

 23 21  0  0  0  0  0  0  0  0999 V2000
    0.5562    1.2489    2.0858 C   0  0  0  0  0  0  0  0  0  0  0  0
    0.5385    0.0333    1.1695 C   0  0  0  0  0  0  0  0  0  0  0  0
    1.9332    0.0458   -0.0100 S   0  0  0  0  0  0  0  0  0  0  0  0
    0.4634   -1.2722    1.9491 C   0  0  0  0  0  0  0  0  0  0  0  0
    0.5815    2.1760    1.5143 H   0  0  0  0  0  0  0  0  0  0  0  0
    1.4342    1.2264    2.7360 H   0  0  0  0  0  0  0  0  0  0  0  0
   -0.3318    1.2559    2.7231 H   0  0  0  0  0  0  0  0  0  0  0  0
    2.9082   -0.0398    0.9066 H   0  0  0  0  0  0  0  0  0  0  0  0
   -0.4253   -1.2827    2.5855 H   0  0  0  0  0  0  0  0  0  0  0  0
    0.4228   -2.1315    1.2808 H   0  0  0  0  0  0  0  0  0  0  0  0
    1.3380   -1.3845    2.5944 H   0  0  0  0  0  0  0  0  0  0  0  0
   -1.5456   -1.0083   -2.6379 C   0  0  0  0  0  0  0  0  0  0  0  0
   -1.5456   -1.0083   -1.3136 C   0  0  0  0  0  0  0  0  0  0  0  0
   -1.5456    0.1962   -0.4201 C   0  0  0  0  0  3  0  0  0  0  0  0
   -1.5456    1.5420   -1.1278 C   0  0  0  0  0  0  0  0  0  0  0  0
   -1.5456   -0.0914   -3.2154 H   0  0  0  0  0  0  0  0  0  0  0  0
   -1.5456   -1.9356   -3.1966 H   0  0  0  0  0  0  0  0  0  0  0  0
   -1.5456   -1.9640   -0.7954 H   0  0  0  0  0  0  0  0  0  0  0  0
   -0.5024    0.1146    0.3756 H   0  0  0  0  0  0  0  0  0  0  0  0
   -2.4150    0.1282    0.2430 H   0  0  0  0  0  0  0  0  0  0  0  0
   -2.4281    1.6570   -1.7602 H   0  0  0  0  0  0  0  0  0  0  0  0
   -0.6632    1.6570   -1.7602 H   0  0  0  0  0  0  0  0  0  0  0  0
   -1.5456    2.3563   -0.4025 H   0  0  0  0  0  0  0  0  0  0  0  0
  1  2  1  0
  1  5  1  0
  1  6  1  0
  1  7  1  0
  2  4  1  0
  2  3  1  0
  2 19  1  0
  3  8  1  0
  4  9  1  0
  4 10  1  0
  4 11  1  0
 12 13  2  3
 12 16  1  0
 12 17  1  0
 13 14  1  0
 13 18  1  0
 14 15  1  0
 14 20  1  0
 15 21  1  0
 15 22  1  0
 15 23  1  0
M  RAD  1  14   2
M  END
>  <reaction>  (9) 
rxn_1061

>  <mol_properties>  (9) 
{"1": {"label": "*3", "atom_type": "Cs"}, "2": {"label": "*4", "atom_type": "S2s"}, "12": {"label": "*0", "atom_type": "Cd"}, "13": {"label": "*1", "atom_type": "Cs"}, "18": {"label": "*2", "atom_type": "H0"}}

>  <type>  (9) 
unop_5

>  <geom_source>  (9) 
Heuristics

$$$$

     RDKit          3D

 23 21  0  0  0  0  0  0  0  0999 V2000
    0.5226   -1.0601    2.2245 C   0  0  0  0  0  0  0  0  0  0  0  0
    0.9238   -0.3131    0.9602 C   0  0  0  0  0  0  0  0  0  0  0  0
    0.2391    1.3798    0.9200 S   0  0  0  0  0  0  0  0  0  0  0  0
    2.4302   -0.3238    0.7407 C   0  0  0  0  0  0  0  0  0  0  0  0
   -0.5591   -1.0686    2.3539 H   0  0  0  0  0  0  0  0  0  0  0  0
    0.9665   -0.5896    3.1053 H   0  0  0  0  0  0  0  0  0  0  0  0
    0.8772   -2.0932    2.1828 H   0  0  0  0  0  0  0  0  0  0  0  0
    0.8989    1.8362    1.9946 H   0  0  0  0  0  0  0  0  0  0  0  0
    2.7981   -1.3518    0.6886 H   0  0  0  0  0  0  0  0  0  0  0  0
    2.7004    0.1894   -0.1815 H   0  0  0  0  0  0  0  0  0  0  0  0
    2.9420    0.1730    1.5686 H   0  0  0  0  0  0  0  0  0  0  0  0
   -1.1603   -1.3547   -2.8473 C   0  0  0  0  0  0  0  0  0  0  0  0
   -1.1603   -1.3547   -1.5229 C   0  0  0  0  0  0  0  0  0  0  0  0
   -1.1603   -0.1502   -0.6295 C   0  0  0  0  0  3  0  0  0  0  0  0
   -1.1603    1.1956   -1.3372 C   0  0  0  0  0  0  0  0  0  0  0  0
   -1.1603   -0.4378   -3.4247 H   0  0  0  0  0  0  0  0  0  0  0  0
   -1.1603   -2.2820   -3.4060 H   0  0  0  0  0  0  0  0  0  0  0  0
   -1.1603   -2.3104   -1.0047 H   0  0  0  0  0  0  0  0  0  0  0  0
   -0.1170   -0.2318    0.1663 H   0  0  0  0  0  0  0  0  0  0  0  0
   -2.0297   -0.2182    0.0337 H   0  0  0  0  0  0  0  0  0  0  0  0
   -2.0427    1.3106   -1.9696 H   0  0  0  0  0  0  0  0  0  0  0  0
   -0.2778    1.3106   -1.9696 H   0  0  0  0  0  0  0  0  0  0  0  0
   -1.1603    2.0099   -0.6119 H   0  0  0  0  0  0  0  0  0  0  0  0
  1  2  1  0
  1  5  1  0
  1  6  1  0
  1  7  1  0
  2  4  1  0
  2  3  1  0
  2 19  1  0
  3  8  1  0
  4  9  1  0
  4 10  1  0
  4 11  1  0
 12 13  2  3
 12 16  1  0
 12 17  1  0
 13 14  1  0
 13 18  1  0
 14 15  1  0
 14 20  1  0
 15 21  1  0
 15 22  1  0
 15 23  1  0
M  RAD  1  14   2
M  END
>  <reaction>  (10) 
rxn_1061

>  <mol_properties>  (10) 
{"1": {"label": "*3", "atom_type": "Cs"}, "2": {"label": "*4", "atom_type": "S2s"}, "12": {"label": "*0", "atom_type": "Cd"}, "13": {"label": "*1", "atom_type": "Cs"}, "18": {"label": "*2", "atom_type": "H0"}}

>  <type>  (10) 
unop_6

>  <geom_source>  (10) 
Heuristics

$$$$

     RDKit          3D

 23 21  0  0  0  0  0  0  0  0999 V2000
    0.3277   -0.3549    2.5513 C   0  0  0  0  0  0  0  0  0  0  0  0
    0.8096   -0.3270    1.1075 C   0  0  0  0  0  0  0  0  0  0  0  0
    0.6592    1.3367    0.3687 S   0  0  0  0  0  0  0  0  0  0  0  0
    2.2161   -0.8906    0.9608 C   0  0  0  0  0  0  0  0  0  0  0  0
   -0.6898    0.0247    2.6373 H   0  0  0  0  0  0  0  0  0  0  0  0
    0.9740    0.2590    3.1833 H   0  0  0  0  0  0  0  0  0  0  0  0
    0.3531   -1.3765    2.9394 H   0  0  0  0  0  0  0  0  0  0  0  0
    1.5250    1.9471    1.1910 H   0  0  0  0  0  0  0  0  0  0  0  0
    2.2546   -1.9159    1.3378 H   0  0  0  0  0  0  0  0  0  0  0  0
    2.5368   -0.8906   -0.0804 H   0  0  0  0  0  0  0  0  0  0  0  0
    2.9297   -0.2957    1.5361 H   0  0  0  0  0  0  0  0  0  0  0  0
   -1.2745   -1.3686   -2.7000 C   0  0  0  0  0  0  0  0  0  0  0  0
   -1.2745   -1.3686   -1.3756 C   0  0  0  0  0  0  0  0  0  0  0  0
   -1.2745   -0.1641   -0.4822 C   0  0  0  0  0  3  0  0  0  0  0  0
   -1.2745    1.1817   -1.1899 C   0  0  0  0  0  0  0  0  0  0  0  0
   -1.2745   -0.4517   -3.2774 H   0  0  0  0  0  0  0  0  0  0  0  0
   -1.2745   -2.2959   -3.2587 H   0  0  0  0  0  0  0  0  0  0  0  0
   -1.2745   -2.3243   -0.8574 H   0  0  0  0  0  0  0  0  0  0  0  0
   -0.2313   -0.2456    0.3136 H   0  0  0  0  0  0  0  0  0  0  0  0
   -2.1439   -0.2320    0.1810 H   0  0  0  0  0  0  0  0  0  0  0  0
   -2.1570    1.2967   -1.8223 H   0  0  0  0  0  0  0  0  0  0  0  0
   -0.3921    1.2967   -1.8223 H   0  0  0  0  0  0  0  0  0  0  0  0
   -1.2745    1.9960   -0.4646 H   0  0  0  0  0  0  0  0  0  0  0  0
  1  2  1  0
  1  5  1  0
  1  6  1  0
  1  7  1  0
  2  4  1  0
  2  3  1  0
  2 19  1  0
  3  8  1  0
  4  9  1  0
  4 10  1  0
  4 11  1  0
 12 13  2  3
 12 16  1  0
 12 17  1  0
 13 14  1  0
 13 18  1  0
 14 15  1  0
 14 20  1  0
 15 21  1  0
 15 22  1  0
 15 23  1  0
M  RAD  1  14   2
M  END
>  <reaction>  (11) 
rxn_1061

>  <mol_properties>  (11) 
{"1": {"label": "*3", "atom_type": "Cs"}, "2": {"label": "*4", "atom_type": "S2s"}, "12": {"label": "*0", "atom_type": "Cd"}, "13": {"label": "*1", "atom_type": "Cs"}, "18": {"label": "*2", "atom_type": "H0"}}

>  <type>  (11) 
unop_7

>  <geom_source>  (11) 
Heuristics

$$$$

     RDKit          3D

 23 21  0  0  0  0  0  0  0  0999 V2000
    1.9043    0.8385    0.1245 C   0  0  0  0  0  0  0  0  0  0  0  0
    0.7202    0.1527    0.7917 C   0  0  0  0  0  0  0  0  0  0  0  0
    1.2501   -1.1842    1.9178 S   0  0  0  0  0  0  0  0  0  0  0  0
   -0.2042    1.1460    1.4818 C   0  0  0  0  0  0  0  0  0  0  0  0
    2.5414    0.1193   -0.3890 H   0  0  0  0  0  0  0  0  0  0  0  0
    2.5121    1.3622    0.8663 H   0  0  0  0  0  0  0  0  0  0  0  0
    1.5545    1.5762   -0.6024 H   0  0  0  0  0  0  0  0  0  0  0  0
    1.9181   -0.4023    2.7784 H   0  0  0  0  0  0  0  0  0  0  0  0
   -0.5687    1.8858    0.7645 H   0  0  0  0  0  0  0  0  0  0  0  0
   -1.0613    0.6448    1.9303 H   0  0  0  0  0  0  0  0  0  0  0  0
    0.3285    1.6807    2.2720 H   0  0  0  0  0  0  0  0  0  0  0  0
   -1.3640   -0.8888   -3.0158 C   0  0  0  0  0  0  0  0  0  0  0  0
   -1.3640   -0.8888   -1.6914 C   0  0  0  0  0  0  0  0  0  0  0  0
   -1.3640    0.3157   -0.7980 C   0  0  0  0  0  3  0  0  0  0  0  0
   -1.3640    1.6614   -1.5057 C   0  0  0  0  0  0  0  0  0  0  0  0
   -1.3640    0.0281   -3.5932 H   0  0  0  0  0  0  0  0  0  0  0  0
   -1.3640   -1.8161   -3.5745 H   0  0  0  0  0  0  0  0  0  0  0  0
   -1.3640   -1.8445   -1.1733 H   0  0  0  0  0  0  0  0  0  0  0  0
   -0.3207    0.2341   -0.0022 H   0  0  0  0  0  0  0  0  0  0  0  0
   -2.2334    0.2477   -0.1349 H   0  0  0  0  0  0  0  0  0  0  0  0
   -2.2464    1.7765   -2.1381 H   0  0  0  0  0  0  0  0  0  0  0  0
   -0.4815    1.7765   -2.1381 H   0  0  0  0  0  0  0  0  0  0  0  0
   -1.3640    2.4758   -0.7804 H   0  0  0  0  0  0  0  0  0  0  0  0
  1  2  1  0
  1  5  1  0
  1  6  1  0
  1  7  1  0
  2  4  1  0
  2  3  1  0
  2 19  1  0
  3  8  1  0
  4  9  1  0
  4 10  1  0
  4 11  1  0
 12 13  2  3
 12 16  1  0
 12 17  1  0
 13 14  1  0
 13 18  1  0
 14 15  1  0
 14 20  1  0
 15 21  1  0
 15 22  1  0
 15 23  1  0
M  RAD  1  14   2
M  END
>  <reaction>  (12) 
rxn_1061

>  <mol_properties>  (12) 
{"1": {"label": "*3", "atom_type": "Cs"}, "2": {"label": "*4", "atom_type": "S2s"}, "12": {"label": "*0", "atom_type": "Cd"}, "13": {"label": "*1", "atom_type": "Cs"}, "18": {"label": "*2", "atom_type": "H0"}}

>  <type>  (12) 
unop_8

>  <geom_source>  (12) 
Heuristics

$$$$

     RDKit          3D

 23 21  0  0  0  0  0  0  0  0999 V2000
    1.2810   -1.5404    0.9901 C   0  0  0  0  0  0  0  0  0  0  0  0
    0.9623   -0.0724    0.7436 C   0  0  0  0  0  0  0  0  0  0  0  0
   -0.1072    0.6238    2.0505 S   0  0  0  0  0  0  0  0  0  0  0  0
    2.2191    0.7603    0.5322 C   0  0  0  0  0  0  0  0  0  0  0  0
    0.3722   -2.1287    1.1114 H   0  0  0  0  0  0  0  0  0  0  0  0
    1.8836   -1.6555    1.8944 H   0  0  0  0  0  0  0  0  0  0  0  0
    1.8525   -1.9497    0.1530 H   0  0  0  0  0  0  0  0  0  0  0  0
    0.7639    0.4692    3.0582 H   0  0  0  0  0  0  0  0  0  0  0  0
    2.7971    0.3670   -0.3081 H   0  0  0  0  0  0  0  0  0  0  0  0
    1.9749    1.8024    0.3290 H   0  0  0  0  0  0  0  0  0  0  0  0
    2.8550    0.7271    1.4202 H   0  0  0  0  0  0  0  0  0  0  0  0
   -1.1218   -1.1139   -3.0639 C   0  0  0  0  0  0  0  0  0  0  0  0
   -1.1218   -1.1139   -1.7395 C   0  0  0  0  0  0  0  0  0  0  0  0
   -1.1218    0.0906   -0.8461 C   0  0  0  0  0  3  0  0  0  0  0  0
   -1.1218    1.4363   -1.5538 C   0  0  0  0  0  0  0  0  0  0  0  0
   -1.1218   -0.1970   -3.6413 H   0  0  0  0  0  0  0  0  0  0  0  0
   -1.1218   -2.0413   -3.6226 H   0  0  0  0  0  0  0  0  0  0  0  0
   -1.1218   -2.0697   -1.2214 H   0  0  0  0  0  0  0  0  0  0  0  0
   -0.0786    0.0090   -0.0503 H   0  0  0  0  0  0  0  0  0  0  0  0
   -1.9912    0.0226   -0.1830 H   0  0  0  0  0  0  0  0  0  0  0  0
   -2.0043    1.5513   -2.1862 H   0  0  0  0  0  0  0  0  0  0  0  0
   -0.2394    1.5513   -2.1862 H   0  0  0  0  0  0  0  0  0  0  0  0
   -1.1218    2.2507   -0.8285 H   0  0  0  0  0  0  0  0  0  0  0  0
  1  2  1  0
  1  5  1  0
  1  6  1  0
  1  7  1  0
  2  4  1  0
  2  3  1  0
  2 19  1  0
  3  8  1  0
  4  9  1  0
  4 10  1  0
  4 11  1  0
 12 13  2  3
 12 16  1  0
 12 17  1  0
 13 14  1  0
 13 18  1  0
 14 15  1  0
 14 20  1  0
 15 21  1  0
 15 22  1  0
 15 23  1  0
M  RAD  1  14   2
M  END
>  <reaction>  (13) 
rxn_1061

>  <mol_properties>  (13) 
{"1": {"label": "*3", "atom_type": "Cs"}, "2": {"label": "*4", "atom_type": "S2s"}, "12": {"label": "*0", "atom_type": "Cd"}, "13": {"label": "*1", "atom_type": "Cs"}, "18": {"label": "*2", "atom_type": "H0"}}

>  <type>  (13) 
unop_9

>  <geom_source>  (13) 
Heuristics

$$$$

     RDKit          3D

 23 21  0  0  0  0  0  0  0  0999 V2000
    2.0091    0.0841   -0.0802 C   0  0  0  0  0  0  0  0  0  0  0  0
    0.7443    0.1174    0.7664 C   0  0  0  0  0  0  0  0  0  0  0  0
    0.8878   -0.9364    2.2515 S   0  0  0  0  0  0  0  0  0  0  0  0
    0.3239    1.5385    1.1147 C   0  0  0  0  0  0  0  0  0  0  0  0
    2.2821   -0.9367   -0.3454 H   0  0  0  0  0  0  0  0  0  0  0  0
    2.8461    0.5295    0.4630 H   0  0  0  0  0  0  0  0  0  0  0  0
    1.8644    0.6568   -0.9999 H   0  0  0  0  0  0  0  0  0  0  0  0
    1.8869   -0.2521    2.8276 H   0  0  0  0  0  0  0  0  0  0  0  0
    0.1675    2.1213    0.2033 H   0  0  0  0  0  0  0  0  0  0  0  0
   -0.5973    1.5483    1.6962 H   0  0  0  0  0  0  0  0  0  0  0  0
    1.1009    2.0358    1.7004 H   0  0  0  0  0  0  0  0  0  0  0  0
   -1.3398   -0.9242   -3.0410 C   0  0  0  0  0  0  0  0  0  0  0  0
   -1.3398   -0.9242   -1.7167 C   0  0  0  0  0  0  0  0  0  0  0  0
   -1.3398    0.2803   -0.8232 C   0  0  0  0  0  3  0  0  0  0  0  0
   -1.3398    1.6261   -1.5309 C   0  0  0  0  0  0  0  0  0  0  0  0
   -1.3398   -0.0073   -3.6185 H   0  0  0  0  0  0  0  0  0  0  0  0
   -1.3398   -1.8515   -3.5997 H   0  0  0  0  0  0  0  0  0  0  0  0
   -1.3398   -1.8799   -1.1985 H   0  0  0  0  0  0  0  0  0  0  0  0
   -0.2965    0.1988   -0.0275 H   0  0  0  0  0  0  0  0  0  0  0  0
   -2.2092    0.2124   -0.1601 H   0  0  0  0  0  0  0  0  0  0  0  0
   -2.2223    1.7411   -2.1633 H   0  0  0  0  0  0  0  0  0  0  0  0
   -0.4574    1.7411   -2.1633 H   0  0  0  0  0  0  0  0  0  0  0  0
   -1.3398    2.4404   -0.8056 H   0  0  0  0  0  0  0  0  0  0  0  0
  1  2  1  0
  1  5  1  0
  1  6  1  0
  1  7  1  0
  2  4  1  0
  2  3  1  0
  2 19  1  0
  3  8  1  0
  4  9  1  0
  4 10  1  0
  4 11  1  0
 12 13  2  3
 12 16  1  0
 12 17  1  0
 13 14  1  0
 13 18  1  0
 14 15  1  0
 14 20  1  0
 15 21  1  0
 15 22  1  0
 15 23  1  0
M  RAD  1  14   2
M  END
>  <reaction>  (14) 
rxn_1061

>  <mol_properties>  (14) 
{"1": {"label": "*3", "atom_type": "Cs"}, "2": {"label": "*4", "atom_type": "S2s"}, "12": {"label": "*0", "atom_type": "Cd"}, "13": {"label": "*1", "atom_type": "Cs"}, "18": {"label": "*2", "atom_type": "H0"}}

>  <type>  (14) 
unop_10

>  <geom_source>  (14) 
Heuristics

$$$$

     RDKit          3D

 23 21  0  0  0  0  0  0  0  0999 V2000
    0.3264    0.4733    2.5313 C   0  0  0  0  0  0  0  0  0  0  0  0
    0.6549   -0.2171    1.2149 C   0  0  0  0  0  0  0  0  0  0  0  0
    1.2532    0.9624   -0.0450 S   0  0  0  0  0  0  0  0  0  0  0  0
    1.6133   -1.3849    1.4027 C   0  0  0  0  0  0  0  0  0  0  0  0
   -0.3817    1.2884    2.3858 H   0  0  0  0  0  0  0  0  0  0  0  0
    1.2312    0.8860    2.9843 H   0  0  0  0  0  0  0  0  0  0  0  0
   -0.1047   -0.2417    3.2368 H   0  0  0  0  0  0  0  0  0  0  0  0
    2.3632    1.3337    0.6093 H   0  0  0  0  0  0  0  0  0  0  0  0
    1.1912   -2.1129    2.1004 H   0  0  0  0  0  0  0  0  0  0  0  0
    1.8171   -1.8867    0.4575 H   0  0  0  0  0  0  0  0  0  0  0  0
    2.5639   -1.0385    1.8155 H   0  0  0  0  0  0  0  0  0  0  0  0
   -1.4292   -1.2587   -2.5926 C   0  0  0  0  0  0  0  0  0  0  0  0
   -1.4292   -1.2587   -1.2682 C   0  0  0  0  0  0  0  0  0  0  0  0
   -1.4292   -0.0542   -0.3748 C   0  0  0  0  0  3  0  0  0  0  0  0
   -1.4292    1.2916   -1.0825 C   0  0  0  0  0  0  0  0  0  0  0  0
   -1.4292   -0.3417   -3.1700 H   0  0  0  0  0  0  0  0  0  0  0  0
   -1.4292   -2.1860   -3.1512 H   0  0  0  0  0  0  0  0  0  0  0  0
   -1.4292   -2.2144   -0.7500 H   0  0  0  0  0  0  0  0  0  0  0  0
   -0.3859   -0.1357    0.4210 H   0  0  0  0  0  0  0  0  0  0  0  0
   -2.2986   -0.1221    0.2884 H   0  0  0  0  0  0  0  0  0  0  0  0
   -2.3117    1.4066   -1.7149 H   0  0  0  0  0  0  0  0  0  0  0  0
   -0.5468    1.4066   -1.7149 H   0  0  0  0  0  0  0  0  0  0  0  0
   -1.4292    2.1060   -0.3572 H   0  0  0  0  0  0  0  0  0  0  0  0
  1  2  1  0
  1  5  1  0
  1  6  1  0
  1  7  1  0
  2  4  1  0
  2  3  1  0
  2 19  1  0
  3  8  1  0
  4  9  1  0
  4 10  1  0
  4 11  1  0
 12 13  2  3
 12 16  1  0
 12 17  1  0
 13 14  1  0
 13 18  1  0
 14 15  1  0
 14 20  1  0
 15 21  1  0
 15 22  1  0
 15 23  1  0
M  RAD  1  14   2
M  END
>  <reaction>  (15) 
rxn_1061

>  <mol_properties>  (15) 
{"1": {"label": "*3", "atom_type": "Cs"}, "2": {"label": "*4", "atom_type": "S2s"}, "12": {"label": "*0", "atom_type": "Cd"}, "13": {"label": "*1", "atom_type": "Cs"}, "18": {"label": "*2", "atom_type": "H0"}}

>  <type>  (15) 
unop_11

>  <geom_source>  (15) 
Heuristics

$$$$

     RDKit          3D

 23 21  0  0  0  0  0  0  0  0999 V2000
    1.6449   -1.2319    0.4042 C   0  0  0  0  0  0  0  0  0  0  0  0
    0.8797    0.0449    0.7234 C   0  0  0  0  0  0  0  0  0  0  0  0
    0.1073   -0.0163    2.3775 S   0  0  0  0  0  0  0  0  0  0  0  0
    1.7377    1.2891    0.5409 C   0  0  0  0  0  0  0  0  0  0  0  0
    1.0111   -2.1115    0.5116 H   0  0  0  0  0  0  0  0  0  0  0  0
    2.4996   -1.3449    1.0757 H   0  0  0  0  0  0  0  0  0  0  0  0
    2.0259   -1.1993   -0.6197 H   0  0  0  0  0  0  0  0  0  0  0  0
    1.2493   -0.0963    3.0757 H   0  0  0  0  0  0  0  0  0  0  0  0
    2.1195    1.3393   -0.4821 H   0  0  0  0  0  0  0  0  0  0  0  0
    1.1697    2.1960    0.7451 H   0  0  0  0  0  0  0  0  0  0  0  0
    2.5957    1.2659    1.2172 H   0  0  0  0  0  0  0  0  0  0  0  0
   -1.2044   -0.9967   -3.0841 C   0  0  0  0  0  0  0  0  0  0  0  0
   -1.2044   -0.9967   -1.7598 C   0  0  0  0  0  0  0  0  0  0  0  0
   -1.2044    0.2078   -0.8663 C   0  0  0  0  0  3  0  0  0  0  0  0
   -1.2044    1.5536   -1.5740 C   0  0  0  0  0  0  0  0  0  0  0  0
   -1.2044   -0.0798   -3.6616 H   0  0  0  0  0  0  0  0  0  0  0  0
   -1.2044   -1.9240   -3.6428 H   0  0  0  0  0  0  0  0  0  0  0  0
   -1.2044   -1.9524   -1.2416 H   0  0  0  0  0  0  0  0  0  0  0  0
   -0.1611    0.1263   -0.0706 H   0  0  0  0  0  0  0  0  0  0  0  0
   -2.0738    0.1399   -0.2032 H   0  0  0  0  0  0  0  0  0  0  0  0
   -2.0869    1.6686   -2.2064 H   0  0  0  0  0  0  0  0  0  0  0  0
   -0.3220    1.6686   -2.2064 H   0  0  0  0  0  0  0  0  0  0  0  0
   -1.2044    2.3679   -0.8487 H   0  0  0  0  0  0  0  0  0  0  0  0
  1  2  1  0
  1  5  1  0
  1  6  1  0
  1  7  1  0
  2  4  1  0
  2  3  1  0
  2 19  1  0
  3  8  1  0
  4  9  1  0
  4 10  1  0
  4 11  1  0
 12 13  2  3
 12 16  1  0
 12 17  1  0
 13 14  1  0
 13 18  1  0
 14 15  1  0
 14 20  1  0
 15 21  1  0
 15 22  1  0
 15 23  1  0
M  RAD  1  14   2
M  END
>  <reaction>  (16) 
rxn_1061

>  <mol_properties>  (16) 
{"1": {"label": "*3", "atom_type": "Cs"}, "2": {"label": "*4", "atom_type": "S2s"}, "12": {"label": "*0", "atom_type": "Cd"}, "13": {"label": "*1", "atom_type": "Cs"}, "18": {"label": "*2", "atom_type": "H0"}}

>  <type>  (16) 
unop_12

>  <geom_source>  (16) 
Heuristics

$$$$

     RDKit          3D

 23 21  0  0  0  0  0  0  0  0999 V2000
   -1.9552   -1.5958    0.7399 S   0  0  0  0  0  0  0  0  0  0  0  0
   -1.2883    0.0420    0.2880 C   0  0  0  0  0  0  0  0  0  0  0  0
   -1.7225    1.0910    1.3106 C   0  0  0  0  0  0  0  0  0  0  0  0
   -1.7352    0.4249   -1.1221 C   0  0  0  0  0  0  0  0  0  0  0  0
    1.1962   -1.7476    0.5576 C   0  0  0  0  0  0  0  0  0  0  0  0
    1.1894   -0.5039   -0.3216 C   0  0  0  0  0  3  0  0  0  0  0  0
    2.5312    0.1694   -0.3426 C   0  0  0  0  0  0  0  0  0  0  0  0
    2.6970    1.3289   -0.9807 C   0  0  0  0  0  0  0  0  0  0  0  0
    0.0109   -0.0342    0.3021 H   0  0  0  0  0  0  0  0  0  0  0  0
   -2.8285    1.1948    1.3233 H   0  0  0  0  0  0  0  0  0  0  0  0
   -1.3763    0.7947    2.3232 H   0  0  0  0  0  0  0  0  0  0  0  0
   -1.2703    2.0743    1.0615 H   0  0  0  0  0  0  0  0  0  0  0  0
   -2.8416    0.5108   -1.1752 H   0  0  0  0  0  0  0  0  0  0  0  0
   -1.3980   -0.3467   -1.8458 H   0  0  0  0  0  0  0  0  0  0  0  0
   -1.2832    1.3968   -1.4130 H   0  0  0  0  0  0  0  0  0  0  0  0
    1.4674   -1.4765    1.5999 H   0  0  0  0  0  0  0  0  0  0  0  0
    0.1828   -2.2000    0.5611 H   0  0  0  0  0  0  0  0  0  0  0  0
    1.9215   -2.4931    0.1670 H   0  0  0  0  0  0  0  0  0  0  0  0
    0.8865   -0.7765   -1.3557 H   0  0  0  0  0  0  0  0  0  0  0  0
    3.3784   -0.2762    0.1723 H   0  0  0  0  0  0  0  0  0  0  0  0
    1.8696    1.8037   -1.4998 H   0  0  0  0  0  0  0  0  0  0  0  0
    3.6688    1.8118   -0.9865 H   0  0  0  0  0  0  0  0  0  0  0  0
   -3.3008   -1.1925    0.6365 H   0  0  0  0  0  0  0  0  0  0  0  0
  1  2  1  0
  1 23  1  0
  2  3  1  0
  2  4  1  0
  2  9  1  0
  3 10  1  0
  3 11  1  0
  3 12  1  0
  4 13  1  0
  4 14  1  0
  4 15  1  0
  5  6  1  0
  5 16  1  0
  5 17  1  0
  5 18  1  0
  6  7  1  0
  6 19  1  0
  7  8  2  3
  7 20  1  0
  8 21  1  0
  8 22  1  0
M  RAD  1   6   2
M  END
>  <reaction>  (17) 
rxn_1061

>  <mol_properties>  (17) 
{"1": {"label": "*3", "atom_type": "Cs"}, "2": {"label": "*4", "atom_type": "S2s"}, "12": {"label": "*0", "atom_type": "Cd"}, "13": {"label": "*1", "atom_type": "Cs"}, "18": {"label": "*2", "atom_type": "H0"}}

>  <type>  (17) 
unop_13

>  <geom_source>  (17) 
AutoTST

$$$$
