
     RDKit          3D

 13 12  0  0  0  0  0  0  0  0999 V2000
    2.2975   -0.6134    0.7685 C   0  0  0  0  0  0  0  0  0  0  0  0
    1.1676   -0.5248    0.3802 C   0  0  0  0  0  0  0  0  0  0  0  0
   -0.2109   -0.3926   -0.0948 C   0  0  0  0  0  0  0  0  0  0  0  0
   -0.2501    0.2584   -1.4808 C   0  0  0  0  0  0  0  0  0  0  0  0
   -1.0633    0.3831    0.9141 C   0  0  0  0  0  0  0  0  0  0  0  0
    3.2999   -0.6974    1.1133 H   0  0  0  0  0  0  0  0  0  0  0  0
   -0.6209   -1.4038   -0.1814 H   0  0  0  0  0  0  0  0  0  0  0  0
    0.3402   -0.3102   -2.1992 H   0  0  0  0  0  0  0  0  0  0  0  0
    0.1511    1.2724   -1.4369 H   0  0  0  0  0  0  0  0  0  0  0  0
   -1.2791    0.3109   -1.8407 H   0  0  0  0  0  0  0  0  0  0  0  0
   -0.6861    1.4008    1.0287 H   0  0  0  0  0  0  0  0  0  0  0  0
   -1.0492   -0.0971    1.8924 H   0  0  0  0  0  0  0  0  0  0  0  0
   -2.0971    0.4363    0.5680 H   0  0  0  0  0  0  0  0  0  0  0  0
  1  2  3  0
  1  6  1  0
  2  3  1  0
  3  4  1  0
  3  5  1  0
  3  7  1  0
  4  8  1  0
  4  9  1  0
  4 10  1  0
  5 11  1  0
  5 12  1  0
  5 13  1  0
M  END
>  <reaction>  (1) 
rxn_1316

>  <mol_properties>  (1) 
{"2": {"label": "donator", "atom_type": "Cs"}, "5": {"label": "d_hydrogen", "atom_type": "H0"}}

>  <type>  (1) 
r1h

$$$$

     RDKit          3D

 17 17  0  0  0  0  0  0  0  0999 V2000
    2.7069    0.2860   -0.1817 C   0  0  0  0  0  0  0  0  0  0  0  0
    1.6304   -0.7245    0.0085 C   0  0  0  0  0  0  0  0  0  0  0  0
    1.4786   -1.8800   -0.7837 C   0  0  0  0  0  0  0  0  0  0  0  0
    0.4231   -2.7891   -0.5312 C   0  0  0  0  0  3  0  0  0  0  0  0
    0.2582   -3.9235   -1.2940 C   0  0  0  0  0  0  0  0  0  0  0  0
    1.1348   -4.2030   -2.3401 C   0  0  0  0  0  0  0  0  0  0  0  0
    2.1804   -3.3260   -2.6093 C   0  0  0  0  0  0  0  0  0  0  0  0
    2.3549   -2.1866   -1.8513 C   0  0  0  0  0  0  0  0  0  0  0  0
    2.6698    0.7343   -1.1808 H   0  0  0  0  0  0  0  0  0  0  0  0
    3.7029   -0.1584   -0.0766 H   0  0  0  0  0  0  0  0  0  0  0  0
    2.6250    1.0917    0.5463 H   0  0  0  0  0  0  0  0  0  0  0  0
    0.9136   -0.5677    0.8059 H   0  0  0  0  0  0  0  0  0  0  0  0
   -0.2629   -2.5783    0.2811 H   0  0  0  0  0  0  0  0  0  0  0  0
   -0.5582   -4.6017   -1.0785 H   0  0  0  0  0  0  0  0  0  0  0  0
    1.0033   -5.0952   -2.9384 H   0  0  0  0  0  0  0  0  0  0  0  0
    2.8650   -3.5382   -3.4214 H   0  0  0  0  0  0  0  0  0  0  0  0
    3.1750   -1.5169   -2.0772 H   0  0  0  0  0  0  0  0  0  0  0  0
  1  2  1  0
  1  9  1  0
  1 10  1  0
  1 11  1  0
  2  3  2  3
  2 12  1  0
  3  4  1  0
  3  8  1  0
  4  5  1  0
  4 13  1  0
  5  6  2  0
  5 14  1  0
  6  7  1  0
  6 15  1  0
  7  8  2  0
  7 16  1  0
  8 17  1  0
M  RAD  1   4   2
M  END
>  <reaction>  (2) 
rxn_1316

>  <mol_properties>  (2) 
{"0": {"label": "acceptor", "atom_type": "Cs"}}

>  <type>  (2) 
r2

$$$$

     RDKit          3D

 18 18  0  0  0  0  0  0  0  0999 V2000
   -2.4852    0.3210   -0.3966 C   0  0  0  0  0  0  0  0  0  0  0  0
   -1.5917   -0.2708    0.6941 C   0  0  0  0  0  0  0  0  0  0  0  0
   -0.1292   -0.1692    0.3493 C   0  0  0  0  0  0  0  0  0  0  0  0
    0.6099    0.9558    0.7015 C   0  0  0  0  0  0  0  0  0  0  0  0
    1.9447    1.0728    0.3458 C   0  0  0  0  0  0  0  0  0  0  0  0
    2.5646    0.0613   -0.3720 C   0  0  0  0  0  0  0  0  0  0  0  0
    1.8399   -1.0657   -0.7287 C   0  0  0  0  0  0  0  0  0  0  0  0
    0.5055   -1.1769   -0.3700 C   0  0  0  0  0  0  0  0  0  0  0  0
   -2.3325   -0.1971   -1.3452 H   0  0  0  0  0  0  0  0  0  0  0  0
   -2.2554    1.3763   -0.5546 H   0  0  0  0  0  0  0  0  0  0  0  0
   -3.5397    0.2376   -0.1280 H   0  0  0  0  0  0  0  0  0  0  0  0
   -1.7801    0.2462    1.6380 H   0  0  0  0  0  0  0  0  0  0  0  0
   -1.8568   -1.3190    0.8516 H   0  0  0  0  0  0  0  0  0  0  0  0
    0.1327    1.7497    1.2656 H   0  0  0  0  0  0  0  0  0  0  0  0
    2.5033    1.9550    0.6330 H   0  0  0  0  0  0  0  0  0  0  0  0
    3.6077    0.1491   -0.6484 H   0  0  0  0  0  0  0  0  0  0  0  0
    2.3163   -1.8632   -1.2854 H   0  0  0  0  0  0  0  0  0  0  0  0
   -0.0540   -2.0629   -0.6500 H   0  0  0  0  0  0  0  0  0  0  0  0
  1  2  1  0
  1  9  1  0
  1 10  1  0
  1 11  1  0
  2  3  1  0
  2 12  1  0
  2 13  1  0
  3  4  2  0
  3  8  1  0
  4  5  1  0
  4 14  1  0
  5  6  2  0
  5 15  1  0
  6  7  1  0
  6 16  1  0
  7  8  2  0
  7 17  1  0
  8 18  1  0
M  END
>  <reaction>  (3) 
rxn_1316

>  <mol_properties>  (3) 
{"0": {"label": "acceptor", "atom_type": "Cs"}, "9": {"label": "a_hydrogen", "atom_type": "H0"}}

>  <type>  (3) 
r2h

$$$$

     RDKit          3D

 30 29  0  0  0  0  0  0  0  0999 V2000
    0.2490   -0.1161   -1.3585 C   0  0  0  0  0  0  0  0  0  0  0  0
   -0.0286   -1.4512   -1.9970 C   0  0  0  0  0  0  0  0  0  0  0  0
   -1.5783   -0.6332    1.3611 C   0  0  0  0  0  0  0  0  0  0  0  0
   -1.8891    1.7371    0.4688 C   0  0  0  0  0  0  0  0  0  0  0  0
    1.3591    0.0329   -0.4111 C   0  0  0  0  0  0  0  0  0  0  0  0
   -1.9247    0.2506    0.1813 C   0  0  0  0  0  0  0  0  0  0  0  0
    1.9443   -1.0596    0.2367 C   0  0  0  0  0  3  0  0  0  0  0  0
    1.8228    1.3122   -0.0793 C   0  0  0  0  0  0  0  0  0  0  0  0
    2.9441   -0.8785    1.1781 C   0  0  0  0  0  0  0  0  0  0  0  0
    3.3853    0.3964    1.4994 C   0  0  0  0  0  0  0  0  0  0  0  0
    2.8193    1.4929    0.8616 C   0  0  0  0  0  0  0  0  0  0  0  0
   -3.0303   -0.1915   -0.6093 C   0  0  0  0  0  0  0  0  0  0  0  0
   -3.9293   -0.5732   -1.3123 C   0  0  0  0  0  0  0  0  0  0  0  0
    0.1625    0.7252   -2.0451 H   0  0  0  0  0  0  0  0  0  0  0  0
   -0.8602    0.0881   -0.6210 H   0  0  0  0  0  0  0  0  0  0  0  0
    0.8189   -1.7920   -2.5997 H   0  0  0  0  0  0  0  0  0  0  0  0
   -0.2346   -2.2213   -1.2506 H   0  0  0  0  0  0  0  0  0  0  0  0
   -0.9037   -1.3863   -2.6431 H   0  0  0  0  0  0  0  0  0  0  0  0
   -2.3245   -0.5312    2.1548 H   0  0  0  0  0  0  0  0  0  0  0  0
   -1.5387   -1.6831    1.0695 H   0  0  0  0  0  0  0  0  0  0  0  0
   -0.6061   -0.3498    1.7688 H   0  0  0  0  0  0  0  0  0  0  0  0
   -2.6701    2.0142    1.1831 H   0  0  0  0  0  0  0  0  0  0  0  0
   -0.9239    2.0094    0.9007 H   0  0  0  0  0  0  0  0  0  0  0  0
   -2.0425    2.3187   -0.4406 H   0  0  0  0  0  0  0  0  0  0  0  0
    1.6156   -2.0637    0.0016 H   0  0  0  0  0  0  0  0  0  0  0  0
    3.3832   -1.7410    1.6642 H   0  0  0  0  0  0  0  0  0  0  0  0
    1.3872    2.1733   -0.5739 H   0  0  0  0  0  0  0  0  0  0  0  0
    4.1666    0.5354    2.2354 H   0  0  0  0  0  0  0  0  0  0  0  0
    3.1604    2.4932    1.0980 H   0  0  0  0  0  0  0  0  0  0  0  0
   -4.7337   -0.9080   -1.9214 H   0  0  0  0  0  0  0  0  0  0  0  0
  1  2  1  0
  1  5  2  3
  1 14  1  0
  2 16  1  0
  2 17  1  0
  2 18  1  0
  3  6  1  0
  3 19  1  0
  3 20  1  0
  3 21  1  0
  4  6  1  0
  4 22  1  0
  4 23  1  0
  4 24  1  0
  5  7  1  0
  5  8  1  0
  6 12  1  0
  6 15  1  0
  7  9  1  0
  7 25  1  0
  8 11  2  0
  8 27  1  0
  9 10  2  0
  9 26  1  0
 10 11  1  0
 10 28  1  0
 11 29  1  0
 12 13  3  0
 13 30  1  0
M  RAD  1   7   2
M  END
>  <reaction>  (4) 
rxn_1316

>  <mol_properties>  (4) 
{"0": {"label": "*3", "atom_type": "Cd"}, "4": {"label": "*4", "atom_type": "Cd"}, "5": {"label": "*1", "atom_type": "Cs"}, "11": {"label": "*0", "atom_type": "Ct"}, "14": {"label": "*2", "atom_type": "H0"}}

>  <type>  (4) 
ts

$$$$

     RDKit          3D

 30 29  0  0  0  0  0  0  0  0999 V2000
    0.4082    2.5175   -2.5902 C   0  0  0  0  0  0  0  0  0  0  0  0
    0.4082    2.5175   -1.3921 C   0  0  0  0  0  0  0  0  0  0  0  0
    0.4082    2.5414    0.0717 C   0  0  0  0  0  3  0  0  0  0  0  0
   -0.8579    3.2179    0.6061 C   0  0  0  0  0  0  0  0  0  0  0  0
    1.6744    3.2179    0.6061 C   0  0  0  0  0  0  0  0  0  0  0  0
    0.4082    2.5175   -3.6535 H   0  0  0  0  0  0  0  0  0  0  0  0
    0.4082    1.2928    0.4796 H   0  0  0  0  0  0  0  0  0  0  0  0
   -1.7549    2.7186    0.2401 H   0  0  0  0  0  0  0  0  0  0  0  0
   -0.8952    4.2614    0.2885 H   0  0  0  0  0  0  0  0  0  0  0  0
   -0.8652    3.1899    1.6971 H   0  0  0  0  0  0  0  0  0  0  0  0
    1.7117    4.2614    0.2885 H   0  0  0  0  0  0  0  0  0  0  0  0
    2.5714    2.7185    0.2401 H   0  0  0  0  0  0  0  0  0  0  0  0
    1.6817    3.1899    1.6971 H   0  0  0  0  0  0  0  0  0  0  0  0
    1.6572   -0.2127    1.7300 C   0  0  0  0  0  0  0  0  0  0  0  0
    0.4082    0.0465    0.8867 C   0  0  0  0  0  0  0  0  0  0  0  0
   -0.2051   -1.2286    0.3706 C   0  0  0  0  0  0  0  0  0  0  0  0
   -1.1559   -1.9160    1.1183 C   0  0  0  0  0  0  0  0  0  0  0  0
   -1.6888   -3.1138    0.6673 C   0  0  0  0  0  0  0  0  0  0  0  0
   -1.2767   -3.6459   -0.5450 C   0  0  0  0  0  0  0  0  0  0  0  0
   -0.3303   -2.9705   -1.3007 C   0  0  0  0  0  0  0  0  0  0  0  0
    0.1988   -1.7732   -0.8443 C   0  0  0  0  0  0  0  0  0  0  0  0
    2.4181   -0.7323    1.1447 H   0  0  0  0  0  0  0  0  0  0  0  0
    1.4187   -0.8377    2.5926 H   0  0  0  0  0  0  0  0  0  0  0  0
    2.0859    0.7226    2.0939 H   0  0  0  0  0  0  0  0  0  0  0  0
   -0.3279    0.5885    1.4851 H   0  0  0  0  0  0  0  0  0  0  0  0
   -1.4854   -1.5045    2.0661 H   0  0  0  0  0  0  0  0  0  0  0  0
   -2.4307   -3.6313    1.2627 H   0  0  0  0  0  0  0  0  0  0  0  0
   -1.6935   -4.5795   -0.9007 H   0  0  0  0  0  0  0  0  0  0  0  0
   -0.0053   -3.3756   -2.2510 H   0  0  0  0  0  0  0  0  0  0  0  0
    0.9364   -1.2492   -1.4424 H   0  0  0  0  0  0  0  0  0  0  0  0
  1  2  3  0
  1  6  1  0
  2  3  1  0
  3  4  1  0
  3  5  1  0
  4  8  1  0
  4  9  1  0
  4 10  1  0
  5 11  1  0
  5 12  1  0
  5 13  1  0
  7 15  1  0
 14 15  1  0
 14 22  1  0
 14 23  1  0
 14 24  1  0
 15 16  1  0
 15 25  1  0
 16 17  2  0
 16 21  1  0
 17 18  1  0
 17 26  1  0
 18 19  2  0
 18 27  1  0
 19 20  1  0
 19 28  1  0
 20 21  2  0
 20 29  1  0
 21 30  1  0
M  RAD  1   3   2
M  END
>  <reaction>  (5) 
rxn_1316

>  <mol_properties>  (5) 
{"0": {"label": "*3", "atom_type": "Cd"}, "4": {"label": "*4", "atom_type": "Cd"}, "5": {"label": "*1", "atom_type": "Cs"}, "11": {"label": "*0", "atom_type": "Ct"}, "14": {"label": "*2", "atom_type": "H0"}}

>  <type>  (5) 
unop_1

>  <geom_source>  (5) 
Heuristics

$$$$

     RDKit          3D

 30 29  0  0  0  0  0  0  0  0999 V2000
    0.9903    2.0598   -3.3342 C   0  0  0  0  0  0  0  0  0  0  0  0
    0.9903    2.0598   -2.1361 C   0  0  0  0  0  0  0  0  0  0  0  0
    0.9903    2.0837   -0.6723 C   0  0  0  0  0  3  0  0  0  0  0  0
   -0.2758    2.7602   -0.1380 C   0  0  0  0  0  0  0  0  0  0  0  0
    2.2564    2.7601   -0.1380 C   0  0  0  0  0  0  0  0  0  0  0  0
    0.9903    2.0598   -4.3975 H   0  0  0  0  0  0  0  0  0  0  0  0
    0.9903    0.8351   -0.2644 H   0  0  0  0  0  0  0  0  0  0  0  0
   -1.1729    2.2609   -0.5039 H   0  0  0  0  0  0  0  0  0  0  0  0
   -0.3131    3.8037   -0.4555 H   0  0  0  0  0  0  0  0  0  0  0  0
   -0.2831    2.7322    0.9531 H   0  0  0  0  0  0  0  0  0  0  0  0
    2.2938    3.8037   -0.4555 H   0  0  0  0  0  0  0  0  0  0  0  0
    3.1535    2.2608   -0.5039 H   0  0  0  0  0  0  0  0  0  0  0  0
    2.2638    2.7321    0.9531 H   0  0  0  0  0  0  0  0  0  0  0  0
    1.7113   -1.2822   -0.8867 C   0  0  0  0  0  0  0  0  0  0  0  0
    0.9903   -0.4113    0.1427 C   0  0  0  0  0  0  0  0  0  0  0  0
   -0.2337   -1.0869    0.7028 C   0  0  0  0  0  0  0  0  0  0  0  0
   -0.1458   -1.9052    1.8246 C   0  0  0  0  0  0  0  0  0  0  0  0
   -1.2618   -2.5651    2.3156 C   0  0  0  0  0  0  0  0  0  0  0  0
   -2.4897   -2.4165    1.6889 C   0  0  0  0  0  0  0  0  0  0  0  0
   -2.5914   -1.6033    0.5705 C   0  0  0  0  0  0  0  0  0  0  0  0
   -1.4719   -0.9460    0.0842 C   0  0  0  0  0  0  0  0  0  0  0  0
    1.0517   -1.5180   -1.7239 H   0  0  0  0  0  0  0  0  0  0  0  0
    2.0300   -2.2257   -0.4398 H   0  0  0  0  0  0  0  0  0  0  0  0
    2.5942   -0.7752   -1.2800 H   0  0  0  0  0  0  0  0  0  0  0  0
    1.6768   -0.1679    0.9571 H   0  0  0  0  0  0  0  0  0  0  0  0
    0.8106   -2.0239    2.3220 H   0  0  0  0  0  0  0  0  0  0  0  0
   -1.1729   -3.1945    3.1925 H   0  0  0  0  0  0  0  0  0  0  0  0
   -3.3632   -2.9285    2.0723 H   0  0  0  0  0  0  0  0  0  0  0  0
   -3.5470   -1.4772    0.0766 H   0  0  0  0  0  0  0  0  0  0  0  0
   -1.5600   -0.3091   -0.7892 H   0  0  0  0  0  0  0  0  0  0  0  0
  1  2  3  0
  1  6  1  0
  2  3  1  0
  3  4  1  0
  3  5  1  0
  4  8  1  0
  4  9  1  0
  4 10  1  0
  5 11  1  0
  5 12  1  0
  5 13  1  0
  7 15  1  0
 14 15  1  0
 14 22  1  0
 14 23  1  0
 14 24  1  0
 15 16  1  0
 15 25  1  0
 16 17  2  0
 16 21  1  0
 17 18  1  0
 17 26  1  0
 18 19  2  0
 18 27  1  0
 19 20  1  0
 19 28  1  0
 20 21  2  0
 20 29  1  0
 21 30  1  0
M  RAD  1   3   2
M  END
>  <reaction>  (6) 
rxn_1316

>  <mol_properties>  (6) 
{"0": {"label": "*3", "atom_type": "Cd"}, "4": {"label": "*4", "atom_type": "Cd"}, "5": {"label": "*1", "atom_type": "Cs"}, "11": {"label": "*0", "atom_type": "Ct"}, "14": {"label": "*2", "atom_type": "H0"}}

>  <type>  (6) 
unop_2

>  <geom_source>  (6) 
Heuristics

$$$$

     RDKit          3D

 30 29  0  0  0  0  0  0  0  0999 V2000
   -0.1969    2.4879   -2.3803 C   0  0  0  0  0  0  0  0  0  0  0  0
   -0.1969    2.4879   -1.1822 C   0  0  0  0  0  0  0  0  0  0  0  0
   -0.1969    2.5118    0.2816 C   0  0  0  0  0  3  0  0  0  0  0  0
   -1.4630    3.1883    0.8159 C   0  0  0  0  0  0  0  0  0  0  0  0
    1.0692    3.1882    0.8159 C   0  0  0  0  0  0  0  0  0  0  0  0
   -0.1969    2.4879   -3.4436 H   0  0  0  0  0  0  0  0  0  0  0  0
   -0.1970    1.2631    0.6895 H   0  0  0  0  0  0  0  0  0  0  0  0
   -2.3601    2.6890    0.4500 H   0  0  0  0  0  0  0  0  0  0  0  0
   -1.5004    4.2318    0.4984 H   0  0  0  0  0  0  0  0  0  0  0  0
   -1.4704    3.1603    1.9070 H   0  0  0  0  0  0  0  0  0  0  0  0
    1.1066    4.2317    0.4984 H   0  0  0  0  0  0  0  0  0  0  0  0
    1.9662    2.6889    0.4500 H   0  0  0  0  0  0  0  0  0  0  0  0
    1.0765    3.1602    1.9070 H   0  0  0  0  0  0  0  0  0  0  0  0
    0.5241   -0.0785    2.4416 C   0  0  0  0  0  0  0  0  0  0  0  0
   -0.1970    0.0168    1.0966 C   0  0  0  0  0  0  0  0  0  0  0  0
   -0.0523   -1.2420    0.2825 C   0  0  0  0  0  0  0  0  0  0  0  0
   -0.9631   -2.2854    0.4152 C   0  0  0  0  0  0  0  0  0  0  0  0
   -0.8073   -3.4636   -0.2985 C   0  0  0  0  0  0  0  0  0  0  0  0
    0.2677   -3.6179   -1.1606 C   0  0  0  0  0  0  0  0  0  0  0  0
    1.1824   -2.5855   -1.3030 C   0  0  0  0  0  0  0  0  0  0  0  0
    1.0212   -1.4097   -0.5865 C   0  0  0  0  0  0  0  0  0  0  0  0
    1.5911   -0.2576    2.2967 H   0  0  0  0  0  0  0  0  0  0  0  0
    0.1272   -0.9037    3.0357 H   0  0  0  0  0  0  0  0  0  0  0  0
    0.4073    0.8425    3.0155 H   0  0  0  0  0  0  0  0  0  0  0  0
   -1.2568    0.2209    1.2664 H   0  0  0  0  0  0  0  0  0  0  0  0
   -1.8082   -2.1710    1.0853 H   0  0  0  0  0  0  0  0  0  0  0  0
   -1.5296   -4.2624   -0.1837 H   0  0  0  0  0  0  0  0  0  0  0  0
    0.3898   -4.5359   -1.7213 H   0  0  0  0  0  0  0  0  0  0  0  0
    2.0228   -2.6945   -1.9772 H   0  0  0  0  0  0  0  0  0  0  0  0
    1.7390   -0.6054   -0.7055 H   0  0  0  0  0  0  0  0  0  0  0  0
  1  2  3  0
  1  6  1  0
  2  3  1  0
  3  4  1  0
  3  5  1  0
  4  8  1  0
  4  9  1  0
  4 10  1  0
  5 11  1  0
  5 12  1  0
  5 13  1  0
  7 15  1  0
 14 15  1  0
 14 22  1  0
 14 23  1  0
 14 24  1  0
 15 16  1  0
 15 25  1  0
 16 17  2  0
 16 21  1  0
 17 18  1  0
 17 26  1  0
 18 19  2  0
 18 27  1  0
 19 20  1  0
 19 28  1  0
 20 21  2  0
 20 29  1  0
 21 30  1  0
M  RAD  1   3   2
M  END
>  <reaction>  (7) 
rxn_1316

>  <mol_properties>  (7) 
{"0": {"label": "*3", "atom_type": "Cd"}, "4": {"label": "*4", "atom_type": "Cd"}, "5": {"label": "*1", "atom_type": "Cs"}, "11": {"label": "*0", "atom_type": "Ct"}, "14": {"label": "*2", "atom_type": "H0"}}

>  <type>  (7) 
unop_3

>  <geom_source>  (7) 
Heuristics

$$$$

     RDKit          3D

 30 28  0  0  0  0  0  0  0  0999 V2000
    0.3308    0.8988   -4.0695 C   0  0  0  0  0  3  0  0  0  0  0  0
    0.3308    0.8988   -2.8714 C   0  0  0  0  0  0  0  0  0  0  0  0
    0.3308    0.9227   -1.4076 C   0  0  0  0  0  3  0  0  0  0  0  0
   -0.9353    1.5992   -0.8732 C   0  0  0  0  0  3  0  0  0  0  0  0
    1.5969    1.5992   -0.8732 C   0  0  0  0  0  0  0  0  0  0  0  0
    0.3308    0.8988   -5.1328 H   0  0  0  0  0  0  0  0  0  0  0  0
    0.3308   -0.3259   -0.9997 H   0  0  0  0  0  0  0  0  0  0  0  0
   -1.8324    1.0999   -1.2392 H   0  0  0  0  0  0  0  0  0  0  0  0
   -0.9727    2.6427   -1.1908 H   0  0  0  0  0  0  0  0  0  0  0  0
   -0.9427    1.5712    0.2178 H   0  0  0  0  0  0  0  0  0  0  0  0
    1.6343    2.6427   -1.1908 H   0  0  0  0  0  0  0  0  0  0  0  0
    2.4940    1.0998   -1.2392 H   0  0  0  0  0  0  0  0  0  0  0  0
    1.6042    1.5711    0.2178 H   0  0  0  0  0  0  0  0  0  0  0  0
   -0.9182   -2.2792   -1.1202 C   0  0  0  0  0  0  0  0  0  0  0  0
    0.3307   -1.5722   -0.5926 C   0  0  0  0  0  0  0  0  0  0  0  0
    0.0989   -0.9345    0.7519 C   0  0  0  0  0  0  0  0  0  0  0  0
    0.3109   -1.6497    1.9264 C   0  0  0  0  0  0  0  0  0  0  0  0
    0.0547   -1.0809    3.1644 C   0  0  0  0  0  0  0  0  0  0  0  0
   -0.4204    0.2191    3.2478 C   0  0  0  0  0  0  0  0  0  0  0  0
   -0.6353    0.9435    2.0851 C   0  0  0  0  0  0  0  0  0  0  0  0
   -0.3772    0.3691    0.8501 C   0  0  0  0  0  0  0  0  0  0  0  0
   -1.7455   -1.5750   -1.2267 H   0  0  0  0  0  0  0  0  0  0  0  0
   -1.2378   -3.0645   -0.4326 H   0  0  0  0  0  0  0  0  0  0  0  0
   -0.7296   -2.7341   -2.0942 H   0  0  0  0  0  0  0  0  0  0  0  0
    1.1506   -2.2906   -0.5184 H   0  0  0  0  0  0  0  0  0  0  0  0
    0.6853   -2.6660    1.8692 H   0  0  0  0  0  0  0  0  0  0  0  0
    0.2300   -1.6533    4.0668 H   0  0  0  0  0  0  0  0  0  0  0  0
   -0.6184    0.6665    4.2136 H   0  0  0  0  0  0  0  0  0  0  0  0
   -1.0019    1.9611    2.1399 H   0  0  0  0  0  0  0  0  0  0  0  0
   -0.5448    0.9431   -0.0548 H   0  0  0  0  0  0  0  0  0  0  0  0
  1  2  2  0
  1  6  1  0
  2  3  2  0
  3  5  1  0
  4  8  1  0
  4  9  1  0
  4 10  1  0
  5 11  1  0
  5 12  1  0
  5 13  1  0
  7 15  1  0
 14 15  1  0
 14 22  1  0
 14 23  1  0
 14 24  1  0
 15 16  1  0
 15 25  1  0
 16 17  2  0
 16 21  1  0
 17 18  1  0
 17 26  1  0
 18 19  2  0
 18 27  1  0
 19 20  1  0
 19 28  1  0
 20 21  2  0
 20 29  1  0
 21 30  1  0
M  CHG  2   1   1   3  -1
M  RAD  1   4   2
M  END
>  <reaction>  (8) 
rxn_1316

>  <mol_properties>  (8) 
{"0": {"label": "*3", "atom_type": "Cd"}, "4": {"label": "*4", "atom_type": "Cd"}, "5": {"label": "*1", "atom_type": "Cs"}, "11": {"label": "*0", "atom_type": "Ct"}, "14": {"label": "*2", "atom_type": "H0"}}

>  <type>  (8) 
unop_4

>  <geom_source>  (8) 
Heuristics

$$$$

     RDKit          3D

 30 29  0  0  0  0  0  0  0  0999 V2000
   -1.0324    2.0135   -2.5960 C   0  0  0  0  0  0  0  0  0  0  0  0
   -1.0324    2.0135   -1.3979 C   0  0  0  0  0  0  0  0  0  0  0  0
   -1.0324    2.0374    0.0659 C   0  0  0  0  0  3  0  0  0  0  0  0
   -2.2985    2.7139    0.6002 C   0  0  0  0  0  0  0  0  0  0  0  0
    0.2337    2.7139    0.6002 C   0  0  0  0  0  0  0  0  0  0  0  0
   -1.0324    2.0135   -3.6593 H   0  0  0  0  0  0  0  0  0  0  0  0
   -1.0324    0.7888    0.4737 H   0  0  0  0  0  0  0  0  0  0  0  0
   -3.1956    2.2146    0.2343 H   0  0  0  0  0  0  0  0  0  0  0  0
   -2.3358    3.7574    0.2827 H   0  0  0  0  0  0  0  0  0  0  0  0
   -2.3058    2.6859    1.6913 H   0  0  0  0  0  0  0  0  0  0  0  0
    0.2711    3.7574    0.2827 H   0  0  0  0  0  0  0  0  0  0  0  0
    1.1308    2.2145    0.2343 H   0  0  0  0  0  0  0  0  0  0  0  0
    0.2411    2.6859    1.6913 H   0  0  0  0  0  0  0  0  0  0  0  0
   -1.0324   -0.4928    2.4096 C   0  0  0  0  0  0  0  0  0  0  0  0
   -1.0324   -0.4575    0.8809 C   0  0  0  0  0  0  0  0  0  0  0  0
    0.1537   -1.1771    0.2947 C   0  0  0  0  0  0  0  0  0  0  0  0
    0.0948   -2.5388    0.0155 C   0  0  0  0  0  0  0  0  0  0  0  0
    1.1992   -3.2138   -0.4812 C   0  0  0  0  0  0  0  0  0  0  0  0
    2.3863   -2.5340   -0.7073 C   0  0  0  0  0  0  0  0  0  0  0  0
    2.4585   -1.1765   -0.4342 C   0  0  0  0  0  0  0  0  0  0  0  0
    1.3507   -0.5070    0.0624 C   0  0  0  0  0  0  0  0  0  0  0  0
   -0.1310   -0.0229    2.8073 H   0  0  0  0  0  0  0  0  0  0  0  0
   -1.0575   -1.5219    2.7728 H   0  0  0  0  0  0  0  0  0  0  0  0
   -1.8988    0.0334    2.8141 H   0  0  0  0  0  0  0  0  0  0  0  0
   -1.9540   -0.9100    0.5072 H   0  0  0  0  0  0  0  0  0  0  0  0
   -0.8312   -3.0768    0.1869 H   0  0  0  0  0  0  0  0  0  0  0  0
    1.1314   -4.2732   -0.6956 H   0  0  0  0  0  0  0  0  0  0  0  0
    3.2492   -3.0583   -1.0979 H   0  0  0  0  0  0  0  0  0  0  0  0
    3.3798   -0.6356   -0.6116 H   0  0  0  0  0  0  0  0  0  0  0  0
    1.4138    0.5554    0.2707 H   0  0  0  0  0  0  0  0  0  0  0  0
  1  2  3  0
  1  6  1  0
  2  3  1  0
  3  4  1  0
  3  5  1  0
  4  8  1  0
  4  9  1  0
  4 10  1  0
  5 11  1  0
  5 12  1  0
  5 13  1  0
  7 15  1  0
 14 15  1  0
 14 22  1  0
 14 23  1  0
 14 24  1  0
 15 16  1  0
 15 25  1  0
 16 17  2  0
 16 21  1  0
 17 18  1  0
 17 26  1  0
 18 19  2  0
 18 27  1  0
 19 20  1  0
 19 28  1  0
 20 21  2  0
 20 29  1  0
 21 30  1  0
M  RAD  1   3   2
M  END
>  <reaction>  (9) 
rxn_1316

>  <mol_properties>  (9) 
{"0": {"label": "*3", "atom_type": "Cd"}, "4": {"label": "*4", "atom_type": "Cd"}, "5": {"label": "*1", "atom_type": "Cs"}, "11": {"label": "*0", "atom_type": "Ct"}, "14": {"label": "*2", "atom_type": "H0"}}

>  <type>  (9) 
unop_5

>  <geom_source>  (9) 
Heuristics

$$$$

     RDKit          3D

 30 27  0  0  0  0  0  0  0  0999 V2000
   -0.2693    0.7626   -4.0183 C   0  0  0  0  0  2  0  0  0  0  0  0
   -0.2693    0.7626   -2.8203 C   0  0  0  0  0  2  0  0  0  0  0  0
   -0.2693    0.7866   -1.3564 C   0  0  0  0  0  1  0  0  0  0  0  0
   -1.5355    1.4630   -0.8221 C   0  0  0  0  0  3  0  0  0  0  0  0
    0.9968    1.4630   -0.8221 C   0  0  0  0  0  3  0  0  0  0  0  0
   -0.2693    0.7626   -5.0817 H   0  0  0  0  0  0  0  0  0  0  0  0
   -0.2694   -0.4621   -0.9486 H   0  0  0  0  0  0  0  0  0  0  0  0
   -2.4325    0.9637   -1.1880 H   0  0  0  0  0  0  0  0  0  0  0  0
   -1.5728    2.5066   -1.1396 H   0  0  0  0  0  0  0  0  0  0  0  0
   -1.5428    1.4350    0.2690 H   0  0  0  0  0  0  0  0  0  0  0  0
    1.0342    2.5065   -1.1396 H   0  0  0  0  0  0  0  0  0  0  0  0
    1.8938    0.9637   -1.1880 H   0  0  0  0  0  0  0  0  0  0  0  0
    1.0041    1.4350    0.2690 H   0  0  0  0  0  0  0  0  0  0  0  0
   -1.7116   -2.1915   -0.3836 C   0  0  0  0  0  0  0  0  0  0  0  0
   -0.2694   -1.7084   -0.5414 C   0  0  0  0  0  0  0  0  0  0  0  0
    0.2092   -0.9413    0.6630 C   0  0  0  0  0  3  0  0  0  0  0  0
    0.8086   -1.5968    1.7338 C   0  0  0  0  0  3  0  0  0  0  0  0
    1.2088   -0.9001    2.8636 C   0  0  0  0  0  3  0  0  0  0  0  0
    1.0144    0.4707    2.9407 C   0  0  0  0  0  3  0  0  0  0  0  0
    0.4190    1.1366    1.8802 C   0  0  0  0  0  3  0  0  0  0  0  0
    0.0210    0.4343    0.7532 C   0  0  0  0  0  3  0  0  0  0  0  0
   -2.3886   -1.3475   -0.2388 H   0  0  0  0  0  0  0  0  0  0  0  0
   -1.8075   -2.8460    0.4847 H   0  0  0  0  0  0  0  0  0  0  0  0
   -2.0389   -2.7443   -1.2659 H   0  0  0  0  0  0  0  0  0  0  0  0
    0.3848   -2.5671   -0.7099 H   0  0  0  0  0  0  0  0  0  0  0  0
    0.9668   -2.6684    1.6795 H   0  0  0  0  0  0  0  0  0  0  0  0
    1.6770   -1.4286    3.6847 H   0  0  0  0  0  0  0  0  0  0  0  0
    1.3288    1.0174    3.8207 H   0  0  0  0  0  0  0  0  0  0  0  0
    0.2669    2.2078    1.9290 H   0  0  0  0  0  0  0  0  0  0  0  0
   -0.4413    0.9626   -0.0735 H   0  0  0  0  0  0  0  0  0  0  0  0
  1  2  1  0
  1  6  1  0
  2  3  1  0
  4  9  1  0
  4  8  1  0
  4 10  1  0
  5 13  1  0
  5 12  1  0
  5 11  1  0
  7 15  1  0
 14 23  1  0
 14 22  1  0
 14 24  1  0
 14 15  1  0
 15 25  1  0
 15 16  1  0
 16 21  1  0
 16 17  1  0
 17 18  1  0
 17 26  1  0
 18 27  1  0
 18 19  1  0
 19 28  1  0
 19 20  1  0
 20 29  1  0
 20 21  1  0
 21 30  1  0
M  RAD  8   1   3   2   3   3   2   4   2   5   2  16   2  17   2  18   2
M  RAD  3  19   2  20   2  21   2
M  END
>  <reaction>  (10) 
rxn_1316

>  <mol_properties>  (10) 
{"0": {"label": "*3", "atom_type": "Cd"}, "4": {"label": "*4", "atom_type": "Cd"}, "5": {"label": "*1", "atom_type": "Cs"}, "11": {"label": "*0", "atom_type": "Ct"}, "14": {"label": "*2", "atom_type": "H0"}}

>  <type>  (10) 
unop_6

>  <geom_source>  (10) 
Heuristics

$$$$

     RDKit          3D

 30 28  0  0  0  0  0  0  0  0999 V2000
   -0.8370    0.8545   -3.7365 C   0  0  0  0  0  3  0  0  0  0  0  0
   -0.8370    0.8545   -2.5384 C   0  0  0  0  0  0  0  0  0  0  0  0
   -0.8370    0.8784   -1.0746 C   0  0  0  0  0  3  0  0  0  0  0  0
   -2.1031    1.5549   -0.5402 C   0  0  0  0  0  0  0  0  0  0  0  0
    0.4291    1.5548   -0.5402 C   0  0  0  0  0  3  0  0  0  0  0  0
   -0.8370    0.8545   -4.7998 H   0  0  0  0  0  0  0  0  0  0  0  0
   -0.8370   -0.3703   -0.6667 H   0  0  0  0  0  0  0  0  0  0  0  0
   -3.0002    1.0556   -0.9061 H   0  0  0  0  0  0  0  0  0  0  0  0
   -2.1405    2.5984   -0.8577 H   0  0  0  0  0  0  0  0  0  0  0  0
   -2.1104    1.5269    0.5508 H   0  0  0  0  0  0  0  0  0  0  0  0
    0.4665    2.5983   -0.8577 H   0  0  0  0  0  0  0  0  0  0  0  0
    1.3262    1.0555   -0.9061 H   0  0  0  0  0  0  0  0  0  0  0  0
    0.4365    1.5268    0.5508 H   0  0  0  0  0  0  0  0  0  0  0  0
   -2.0860   -1.8757    0.5837 C   0  0  0  0  0  0  0  0  0  0  0  0
   -0.8370   -1.6166   -0.2596 C   0  0  0  0  0  0  0  0  0  0  0  0
    0.2689   -0.9810    0.5412 C   0  0  0  0  0  0  0  0  0  0  0  0
    1.1952   -1.7633    1.2236 C   0  0  0  0  0  0  0  0  0  0  0  0
    2.1868   -1.1821    1.9988 C   0  0  0  0  0  0  0  0  0  0  0  0
    2.2678    0.1981    2.1045 C   0  0  0  0  0  0  0  0  0  0  0  0
    1.3514    0.9896    1.4289 C   0  0  0  0  0  0  0  0  0  0  0  0
    0.3621    0.4025    0.6553 C   0  0  0  0  0  0  0  0  0  0  0  0
   -2.4726   -0.9433    0.9992 H   0  0  0  0  0  0  0  0  0  0  0  0
   -1.8579   -2.5411    1.4185 H   0  0  0  0  0  0  0  0  0  0  0  0
   -2.8745   -2.3360   -0.0142 H   0  0  0  0  0  0  0  0  0  0  0  0
   -0.4837   -2.5591   -0.6844 H   0  0  0  0  0  0  0  0  0  0  0  0
    1.1402   -2.8435    1.1433 H   0  0  0  0  0  0  0  0  0  0  0  0
    2.9006   -1.8088    2.5190 H   0  0  0  0  0  0  0  0  0  0  0  0
    3.0430    0.6544    2.7069 H   0  0  0  0  0  0  0  0  0  0  0  0
    1.4090    2.0686    1.5015 H   0  0  0  0  0  0  0  0  0  0  0  0
   -0.3492    1.0282    0.1273 H   0  0  0  0  0  0  0  0  0  0  0  0
  1  2  2  0
  1  6  1  0
  2  3  2  0
  3  4  1  0
  4  8  1  0
  4  9  1  0
  4 10  1  0
  5 11  1  0
  5 12  1  0
  5 13  1  0
  7 15  1  0
 14 15  1  0
 14 22  1  0
 14 23  1  0
 14 24  1  0
 15 16  1  0
 15 25  1  0
 16 17  2  0
 16 21  1  0
 17 18  1  0
 17 26  1  0
 18 19  2  0
 18 27  1  0
 19 20  1  0
 19 28  1  0
 20 21  2  0
 20 29  1  0
 21 30  1  0
M  CHG  2   1   1   3  -1
M  RAD  1   5   2
M  END
>  <reaction>  (11) 
rxn_1316

>  <mol_properties>  (11) 
{"0": {"label": "*3", "atom_type": "Cd"}, "4": {"label": "*4", "atom_type": "Cd"}, "5": {"label": "*1", "atom_type": "Cs"}, "11": {"label": "*0", "atom_type": "Ct"}, "14": {"label": "*2", "atom_type": "H0"}}

>  <type>  (11) 
unop_7

>  <geom_source>  (11) 
Heuristics

$$$$

     RDKit          3D

 30 29  0  0  0  0  0  0  0  0999 V2000
    0.7009    2.4252   -2.8724 C   0  0  0  0  0  0  0  0  0  0  0  0
    0.7009    2.4252   -1.6743 C   0  0  0  0  0  0  0  0  0  0  0  0
    0.7009    2.4491   -0.2105 C   0  0  0  0  0  3  0  0  0  0  0  0
   -0.5652    3.1256    0.3238 C   0  0  0  0  0  0  0  0  0  0  0  0
    1.9670    3.1256    0.3238 C   0  0  0  0  0  0  0  0  0  0  0  0
    0.7009    2.4252   -3.9357 H   0  0  0  0  0  0  0  0  0  0  0  0
    0.7009    1.2005    0.1974 H   0  0  0  0  0  0  0  0  0  0  0  0
   -1.4622    2.6263   -0.0421 H   0  0  0  0  0  0  0  0  0  0  0  0
   -0.6025    4.1691    0.0063 H   0  0  0  0  0  0  0  0  0  0  0  0
   -0.5725    3.0976    1.4149 H   0  0  0  0  0  0  0  0  0  0  0  0
    2.0044    4.1691    0.0063 H   0  0  0  0  0  0  0  0  0  0  0  0
    2.8641    2.6262   -0.0421 H   0  0  0  0  0  0  0  0  0  0  0  0
    1.9744    3.0976    1.4149 H   0  0  0  0  0  0  0  0  0  0  0  0
    2.1431   -0.5289    0.7623 C   0  0  0  0  0  0  0  0  0  0  0  0
    0.7009   -0.0458    0.6045 C   0  0  0  0  0  0  0  0  0  0  0  0
   -0.2735   -1.1888    0.4924 C   0  0  0  0  0  0  0  0  0  0  0  0
   -0.8483   -1.7496    1.6286 C   0  0  0  0  0  0  0  0  0  0  0  0
   -1.7101   -2.8312    1.5325 C   0  0  0  0  0  0  0  0  0  0  0  0
   -2.0119   -3.3722    0.2920 C   0  0  0  0  0  0  0  0  0  0  0  0
   -1.4466   -2.8224   -0.8486 C   0  0  0  0  0  0  0  0  0  0  0  0
   -0.5855   -1.7408   -0.7460 C   0  0  0  0  0  0  0  0  0  0  0  0
    2.4433   -1.1366   -0.0934 H   0  0  0  0  0  0  0  0  0  0  0  0
    2.2494   -1.1431    1.6585 H   0  0  0  0  0  0  0  0  0  0  0  0
    2.8325    0.3134    0.8417 H   0  0  0  0  0  0  0  0  0  0  0  0
    0.4319    0.5796    1.4590 H   0  0  0  0  0  0  0  0  0  0  0  0
   -0.6194   -1.3299    2.6021 H   0  0  0  0  0  0  0  0  0  0  0  0
   -2.1500   -3.2507    2.4288 H   0  0  0  0  0  0  0  0  0  0  0  0
   -2.6869   -4.2151    0.2141 H   0  0  0  0  0  0  0  0  0  0  0  0
   -1.6796   -3.2349   -1.8224 H   0  0  0  0  0  0  0  0  0  0  0  0
   -0.1497   -1.3142   -1.6428 H   0  0  0  0  0  0  0  0  0  0  0  0
  1  2  3  0
  1  6  1  0
  2  3  1  0
  3  4  1  0
  3  5  1  0
  4  8  1  0
  4  9  1  0
  4 10  1  0
  5 11  1  0
  5 12  1  0
  5 13  1  0
  7 15  1  0
 14 15  1  0
 14 22  1  0
 14 23  1  0
 14 24  1  0
 15 16  1  0
 15 25  1  0
 16 17  2  0
 16 21  1  0
 17 18  1  0
 17 26  1  0
 18 19  2  0
 18 27  1  0
 19 20  1  0
 19 28  1  0
 20 21  2  0
 20 29  1  0
 21 30  1  0
M  RAD  1   3   2
M  END
>  <reaction>  (12) 
rxn_1316

>  <mol_properties>  (12) 
{"0": {"label": "*3", "atom_type": "Cd"}, "4": {"label": "*4", "atom_type": "Cd"}, "5": {"label": "*1", "atom_type": "Cs"}, "11": {"label": "*0", "atom_type": "Ct"}, "14": {"label": "*2", "atom_type": "H0"}}

>  <type>  (12) 
unop_8

>  <geom_source>  (12) 
Heuristics

$$$$

     RDKit          3D

 30 28  0  0  0  0  0  0  0  0999 V2000
    0.8158    1.2357   -3.9022 C   0  0  0  0  0  3  0  0  0  0  0  0
    0.8158    1.2357   -2.7041 C   0  0  0  0  0  0  0  0  0  0  0  0
    0.8158    1.2597   -1.2403 C   0  0  0  0  0  3  0  0  0  0  0  0
   -0.4503    1.9361   -0.7059 C   0  0  0  0  0  3  0  0  0  0  0  0
    2.0820    1.9361   -0.7059 C   0  0  0  0  0  0  0  0  0  0  0  0
    0.8158    1.2357   -4.9655 H   0  0  0  0  0  0  0  0  0  0  0  0
    0.8158    0.0110   -0.8324 H   0  0  0  0  0  0  0  0  0  0  0  0
   -1.3473    1.4368   -1.0719 H   0  0  0  0  0  0  0  0  0  0  0  0
   -0.4876    2.9797   -1.0235 H   0  0  0  0  0  0  0  0  0  0  0  0
   -0.4576    1.9081    0.3851 H   0  0  0  0  0  0  0  0  0  0  0  0
    2.1193    2.9796   -1.0235 H   0  0  0  0  0  0  0  0  0  0  0  0
    2.9790    1.4368   -1.0719 H   0  0  0  0  0  0  0  0  0  0  0  0
    2.0893    1.9081    0.3851 H   0  0  0  0  0  0  0  0  0  0  0  0
    0.0947   -2.1062   -1.4547 C   0  0  0  0  0  0  0  0  0  0  0  0
    0.8158   -1.2353   -0.4253 C   0  0  0  0  0  0  0  0  0  0  0  0
   -0.0352   -0.9643    0.7874 C   0  0  0  0  0  0  0  0  0  0  0  0
   -0.0202   -1.8295    1.8768 C   0  0  0  0  0  0  0  0  0  0  0  0
   -0.8362   -1.6080    2.9754 C   0  0  0  0  0  0  0  0  0  0  0  0
   -1.6850   -0.5118    3.0018 C   0  0  0  0  0  0  0  0  0  0  0  0
   -1.7094    0.3590    1.9230 C   0  0  0  0  0  0  0  0  0  0  0  0
   -0.8909    0.1321    0.8273 C   0  0  0  0  0  0  0  0  0  0  0  0
   -0.8225   -1.6226   -1.7959 H   0  0  0  0  0  0  0  0  0  0  0  0
   -0.1801   -3.0698   -1.0216 H   0  0  0  0  0  0  0  0  0  0  0  0
    0.7274   -2.2907   -2.3246 H   0  0  0  0  0  0  0  0  0  0  0  0
    1.7415   -1.7276   -0.1179 H   0  0  0  0  0  0  0  0  0  0  0  0
    0.6434   -2.6873    1.8648 H   0  0  0  0  0  0  0  0  0  0  0  0
   -0.8066   -2.2914    3.8149 H   0  0  0  0  0  0  0  0  0  0  0  0
   -2.3210   -0.3351    3.8598 H   0  0  0  0  0  0  0  0  0  0  0  0
   -2.3656    1.2204    1.9359 H   0  0  0  0  0  0  0  0  0  0  0  0
   -0.9133    0.8193   -0.0114 H   0  0  0  0  0  0  0  0  0  0  0  0
  1  2  2  0
  1  6  1  0
  2  3  2  0
  3  5  1  0
  4  8  1  0
  4  9  1  0
  4 10  1  0
  5 11  1  0
  5 12  1  0
  5 13  1  0
  7 15  1  0
 14 15  1  0
 14 22  1  0
 14 23  1  0
 14 24  1  0
 15 16  1  0
 15 25  1  0
 16 17  2  0
 16 21  1  0
 17 18  1  0
 17 26  1  0
 18 19  2  0
 18 27  1  0
 19 20  1  0
 19 28  1  0
 20 21  2  0
 20 29  1  0
 21 30  1  0
M  CHG  2   1   1   3  -1
M  RAD  1   4   2
M  END
>  <reaction>  (13) 
rxn_1316

>  <mol_properties>  (13) 
{"0": {"label": "*3", "atom_type": "Cd"}, "4": {"label": "*4", "atom_type": "Cd"}, "5": {"label": "*1", "atom_type": "Cs"}, "11": {"label": "*0", "atom_type": "Ct"}, "14": {"label": "*2", "atom_type": "H0"}}

>  <type>  (13) 
unop_9

>  <geom_source>  (13) 
Heuristics

$$$$

     RDKit          3D

 30 29  0  0  0  0  0  0  0  0999 V2000
    0.8600    2.2877   -3.1121 C   0  0  0  0  0  0  0  0  0  0  0  0
    0.8600    2.2877   -1.9140 C   0  0  0  0  0  0  0  0  0  0  0  0
    0.8600    2.3117   -0.4502 C   0  0  0  0  0  3  0  0  0  0  0  0
   -0.4061    2.9882    0.0841 C   0  0  0  0  0  0  0  0  0  0  0  0
    2.1261    2.9881    0.0841 C   0  0  0  0  0  0  0  0  0  0  0  0
    0.8600    2.2877   -4.1754 H   0  0  0  0  0  0  0  0  0  0  0  0
    0.8599    1.0630   -0.0424 H   0  0  0  0  0  0  0  0  0  0  0  0
   -1.3032    2.4889   -0.2818 H   0  0  0  0  0  0  0  0  0  0  0  0
   -0.4435    4.0317   -0.2334 H   0  0  0  0  0  0  0  0  0  0  0  0
   -0.4135    2.9602    1.1752 H   0  0  0  0  0  0  0  0  0  0  0  0
    2.1635    4.0316   -0.2334 H   0  0  0  0  0  0  0  0  0  0  0  0
    3.0231    2.4888   -0.2818 H   0  0  0  0  0  0  0  0  0  0  0  0
    2.1334    2.9601    1.1752 H   0  0  0  0  0  0  0  0  0  0  0  0
    2.1089   -0.8903   -0.1629 C   0  0  0  0  0  0  0  0  0  0  0  0
    0.8599   -0.1833    0.3648 C   0  0  0  0  0  0  0  0  0  0  0  0
   -0.2761   -1.1413    0.6094 C   0  0  0  0  0  0  0  0  0  0  0  0
   -0.4203   -1.7773    1.8384 C   0  0  0  0  0  0  0  0  0  0  0  0
   -1.4378   -2.6942    2.0523 C   0  0  0  0  0  0  0  0  0  0  0  0
   -2.3319   -2.9914    1.0349 C   0  0  0  0  0  0  0  0  0  0  0  0
   -2.2001   -2.3640   -0.1946 C   0  0  0  0  0  0  0  0  0  0  0  0
   -1.1805   -1.4480   -0.4024 C   0  0  0  0  0  0  0  0  0  0  0  0
    1.8965   -1.3988   -1.1052 H   0  0  0  0  0  0  0  0  0  0  0  0
    2.4574   -1.6418    0.5480 H   0  0  0  0  0  0  0  0  0  0  0  0
    2.9194   -0.1796   -0.3334 H   0  0  0  0  0  0  0  0  0  0  0  0
    1.1030    0.3382    1.2936 H   0  0  0  0  0  0  0  0  0  0  0  0
    0.2732   -1.5477    2.6400 H   0  0  0  0  0  0  0  0  0  0  0  0
   -1.5350   -3.1756    3.0176 H   0  0  0  0  0  0  0  0  0  0  0  0
   -3.1290   -3.7049    1.2005 H   0  0  0  0  0  0  0  0  0  0  0  0
   -2.8961   -2.5860   -0.9942 H   0  0  0  0  0  0  0  0  0  0  0  0
   -1.0858   -0.9590   -1.3658 H   0  0  0  0  0  0  0  0  0  0  0  0
  1  2  3  0
  1  6  1  0
  2  3  1  0
  3  4  1  0
  3  5  1  0
  4  8  1  0
  4  9  1  0
  4 10  1  0
  5 11  1  0
  5 12  1  0
  5 13  1  0
  7 15  1  0
 14 15  1  0
 14 22  1  0
 14 23  1  0
 14 24  1  0
 15 16  1  0
 15 25  1  0
 16 17  2  0
 16 21  1  0
 17 18  1  0
 17 26  1  0
 18 19  2  0
 18 27  1  0
 19 20  1  0
 19 28  1  0
 20 21  2  0
 20 29  1  0
 21 30  1  0
M  RAD  1   3   2
M  END
>  <reaction>  (14) 
rxn_1316

>  <mol_properties>  (14) 
{"0": {"label": "*3", "atom_type": "Cd"}, "4": {"label": "*4", "atom_type": "Cd"}, "5": {"label": "*1", "atom_type": "Cs"}, "11": {"label": "*0", "atom_type": "Ct"}, "14": {"label": "*2", "atom_type": "H0"}}

>  <type>  (14) 
unop_10

>  <geom_source>  (14) 
Heuristics

$$$$

     RDKit          3D

 30 28  0  0  0  0  0  0  0  0999 V2000
   -1.2250    1.2552   -3.2300 C   0  0  0  0  0  3  0  0  0  0  0  0
   -1.2250    1.2552   -2.0319 C   0  0  0  0  0  0  0  0  0  0  0  0
   -1.2250    1.2791   -0.5681 C   0  0  0  0  0  3  0  0  0  0  0  0
   -2.4911    1.9556   -0.0337 C   0  0  0  0  0  0  0  0  0  0  0  0
    0.0411    1.9555   -0.0337 C   0  0  0  0  0  0  0  0  0  0  0  0
   -1.2250    1.2552   -4.2933 H   0  0  0  0  0  0  0  0  0  0  0  0
   -1.2250    0.0304   -0.1602 H   0  0  0  0  0  0  0  0  0  0  0  0
   -3.3882    1.4563   -0.3997 H   0  0  0  0  0  0  0  0  0  0  0  0
   -2.5284    2.9991   -0.3512 H   0  0  0  0  0  0  0  0  0  0  0  0
   -2.4984    1.9276    1.0573 H   0  0  0  0  0  0  0  0  0  0  0  0
    0.0785    2.9990   -0.3512 H   0  0  0  0  0  0  0  0  0  0  0  0
    0.9382    1.4562   -0.3997 H   0  0  0  0  0  0  0  0  0  0  0  0
    0.0485    1.9275    1.0573 H   0  0  0  0  0  0  0  0  0  0  0  0
   -1.9461   -1.3111    1.5920 C   0  0  0  0  0  0  0  0  0  0  0  0
   -1.2250   -1.2159    0.2469 C   0  0  0  0  0  0  0  0  0  0  0  0
    0.2640   -1.0585    0.4090 C   0  0  0  0  0  0  0  0  0  0  0  0
    1.0936   -2.1722    0.4933 C   0  0  0  0  0  0  0  0  0  0  0  0
    2.4590   -2.0318    0.6885 C   0  0  0  0  0  0  0  0  0  0  0  0
    3.0191   -0.7686    0.8033 C   0  0  0  0  0  0  0  0  0  0  0  0
    2.2038    0.3500    0.7203 C   0  0  0  0  0  0  0  0  0  0  0  0
    0.8391    0.2030    0.5251 C   0  0  0  0  0  3  0  0  0  0  0  0
   -1.7716   -0.4140    2.1889 H   0  0  0  0  0  0  0  0  0  0  0  0
   -1.5838   -2.1664    2.1654 H   0  0  0  0  0  0  0  0  0  0  0  0
   -3.0226   -1.4246    1.4528 H   0  0  0  0  0  0  0  0  0  0  0  0
   -1.4346   -2.1122   -0.3417 H   0  0  0  0  0  0  0  0  0  0  0  0
    0.6633   -3.1634    0.4013 H   0  0  0  0  0  0  0  0  0  0  0  0
    3.0879   -2.9115    0.7474 H   0  0  0  0  0  0  0  0  0  0  0  0
    4.0854   -0.6563    0.9528 H   0  0  0  0  0  0  0  0  0  0  0  0
    2.6323    1.3410    0.8043 H   0  0  0  0  0  0  0  0  0  0  0  0
    0.2083    1.0827    0.4581 H   0  0  0  0  0  0  0  0  0  0  0  0
  1  2  2  0
  1  6  1  0
  2  3  2  0
  3  4  1  0
  4  8  1  0
  4  9  1  0
  4 10  1  0
  5 11  1  0
  5 12  1  0
  5 13  1  0
  5 30  1  0
  7 15  1  0
 14 15  1  0
 14 22  1  0
 14 23  1  0
 14 24  1  0
 15 16  1  0
 15 25  1  0
 16 17  2  0
 16 21  1  0
 17 18  1  0
 17 26  1  0
 18 19  2  0
 18 27  1  0
 19 20  1  0
 19 28  1  0
 20 21  2  0
 20 29  1  0
M  CHG  2   1   1   3  -1
M  RAD  1  21   2
M  END
>  <reaction>  (15) 
rxn_1316

>  <mol_properties>  (15) 
{"0": {"label": "*3", "atom_type": "Cd"}, "4": {"label": "*4", "atom_type": "Cd"}, "5": {"label": "*1", "atom_type": "Cs"}, "11": {"label": "*0", "atom_type": "Ct"}, "14": {"label": "*2", "atom_type": "H0"}}

>  <type>  (15) 
unop_11

>  <geom_source>  (15) 
Heuristics

$$$$

     RDKit          3D

 30 29  0  0  0  0  0  0  0  0999 V2000
    1.0324    1.6826   -3.6088 C   0  0  0  0  0  0  0  0  0  0  0  0
    1.0324    1.6826   -2.4107 C   0  0  0  0  0  0  0  0  0  0  0  0
    1.0324    1.7066   -0.9469 C   0  0  0  0  0  3  0  0  0  0  0  0
   -0.2337    2.3830   -0.4126 C   0  0  0  0  0  0  0  0  0  0  0  0
    2.2986    2.3830   -0.4126 C   0  0  0  0  0  0  0  0  0  0  0  0
    1.0324    1.6826   -4.6721 H   0  0  0  0  0  0  0  0  0  0  0  0
    1.0324    0.4579   -0.5390 H   0  0  0  0  0  0  0  0  0  0  0  0
   -1.1307    1.8837   -0.7785 H   0  0  0  0  0  0  0  0  0  0  0  0
   -0.2710    3.4266   -0.7301 H   0  0  0  0  0  0  0  0  0  0  0  0
   -0.2410    2.3550    0.6785 H   0  0  0  0  0  0  0  0  0  0  0  0
    2.3359    3.4265   -0.7301 H   0  0  0  0  0  0  0  0  0  0  0  0
    3.1956    1.8837   -0.7785 H   0  0  0  0  0  0  0  0  0  0  0  0
    2.3059    2.3550    0.6785 H   0  0  0  0  0  0  0  0  0  0  0  0
    1.0324   -1.7193   -1.3450 C   0  0  0  0  0  0  0  0  0  0  0  0
    1.0324   -0.7884   -0.1319 C   0  0  0  0  0  0  0  0  0  0  0  0
   -0.1537   -1.0232    0.7660 C   0  0  0  0  0  0  0  0  0  0  0  0
   -0.0949   -1.9575    1.7952 C   0  0  0  0  0  0  0  0  0  0  0  0
   -1.1993   -2.2091    2.5946 C   0  0  0  0  0  0  0  0  0  0  0  0
   -2.3864   -1.5268    2.3758 C   0  0  0  0  0  0  0  0  0  0  0  0
   -2.4585   -0.5923    1.3539 C   0  0  0  0  0  0  0  0  0  0  0  0
   -1.3507   -0.3451    0.5580 C   0  0  0  0  0  0  0  0  0  0  0  0
    0.1310   -1.5748   -1.9435 H   0  0  0  0  0  0  0  0  0  0  0  0
    1.0575   -2.7643   -1.0307 H   0  0  0  0  0  0  0  0  0  0  0  0
    1.8988   -1.5334   -1.9822 H   0  0  0  0  0  0  0  0  0  0  0  0
    1.9540   -0.9331    0.4368 H   0  0  0  0  0  0  0  0  0  0  0  0
    0.8311   -2.4928    1.9745 H   0  0  0  0  0  0  0  0  0  0  0  0
   -1.1315   -2.9376    3.3930 H   0  0  0  0  0  0  0  0  0  0  0  0
   -3.2493   -1.7194    3.0005 H   0  0  0  0  0  0  0  0  0  0  0  0
   -3.3798   -0.0510    1.1779 H   0  0  0  0  0  0  0  0  0  0  0  0
   -1.4138    0.3895   -0.2374 H   0  0  0  0  0  0  0  0  0  0  0  0
  1  2  3  0
  1  6  1  0
  2  3  1  0
  3  4  1  0
  3  5  1  0
  4  8  1  0
  4  9  1  0
  4 10  1  0
  5 11  1  0
  5 12  1  0
  5 13  1  0
  7 15  1  0
 14 15  1  0
 14 22  1  0
 14 23  1  0
 14 24  1  0
 15 16  1  0
 15 25  1  0
 16 17  2  0
 16 21  1  0
 17 18  1  0
 17 26  1  0
 18 19  2  0
 18 27  1  0
 19 20  1  0
 19 28  1  0
 20 21  2  0
 20 29  1  0
 21 30  1  0
M  RAD  1   3   2
M  END
>  <reaction>  (16) 
rxn_1316

>  <mol_properties>  (16) 
{"0": {"label": "*3", "atom_type": "Cd"}, "4": {"label": "*4", "atom_type": "Cd"}, "5": {"label": "*1", "atom_type": "Cs"}, "11": {"label": "*0", "atom_type": "Ct"}, "14": {"label": "*2", "atom_type": "H0"}}

>  <type>  (16) 
unop_12

>  <geom_source>  (16) 
Heuristics

$$$$

     RDKit          3D

 30 29  0  0  0  0  0  0  0  0999 V2000
    0.0693   -0.2664   -0.9914 C   0  0  0  0  0  0  0  0  0  0  0  0
    0.2776   -1.5734   -1.7469 C   0  0  0  0  0  0  0  0  0  0  0  0
   -2.7841   -1.4571    0.9932 C   0  0  0  0  0  0  0  0  0  0  0  0
   -1.9849    0.8304    1.7090 C   0  0  0  0  0  0  0  0  0  0  0  0
    1.3636    0.2224   -0.4028 C   0  0  0  0  0  0  0  0  0  0  0  0
   -2.0230   -0.1983    0.5800 C   0  0  0  0  0  0  0  0  0  0  0  0
    1.7477   -0.1775    0.8873 C   0  0  0  0  0  3  0  0  0  0  0  0
    2.2229    1.0399   -1.1559 C   0  0  0  0  0  0  0  0  0  0  0  0
    2.9651    0.2531    1.4242 C   0  0  0  0  0  0  0  0  0  0  0  0
    3.8094    1.0769    0.6744 C   0  0  0  0  0  0  0  0  0  0  0  0
    3.4394    1.4684   -0.6153 C   0  0  0  0  0  0  0  0  0  0  0  0
   -2.6130    0.3874   -0.6331 C   0  0  0  0  0  0  0  0  0  0  0  0
   -3.0958    0.8674   -1.6282 C   0  0  0  0  0  0  0  0  0  0  0  0
   -0.3493    0.4967   -1.6832 H   0  0  0  0  0  0  0  0  0  0  0  0
   -0.8469   -0.4673    0.0001 H   0  0  0  0  0  0  0  0  0  0  0  0
    0.9969   -1.4276   -2.5810 H   0  0  0  0  0  0  0  0  0  0  0  0
    0.6636   -2.3560   -1.0597 H   0  0  0  0  0  0  0  0  0  0  0  0
   -0.6915   -1.9156   -2.1662 H   0  0  0  0  0  0  0  0  0  0  0  0
   -3.8416   -1.2163    1.2374 H   0  0  0  0  0  0  0  0  0  0  0  0
   -2.7622   -2.2009    0.1684 H   0  0  0  0  0  0  0  0  0  0  0  0
   -2.3023   -1.9145    1.8829 H   0  0  0  0  0  0  0  0  0  0  0  0
   -3.0125    1.1568    1.9800 H   0  0  0  0  0  0  0  0  0  0  0  0
   -1.4970    0.3904    2.6042 H   0  0  0  0  0  0  0  0  0  0  0  0
   -1.3936    1.7166    1.3942 H   0  0  0  0  0  0  0  0  0  0  0  0
    1.1070   -0.8230    1.4753 H   0  0  0  0  0  0  0  0  0  0  0  0
    3.2555   -0.0545    2.4205 H   0  0  0  0  0  0  0  0  0  0  0  0
    1.9511    1.3433   -2.1594 H   0  0  0  0  0  0  0  0  0  0  0  0
    4.7518    1.4084    1.0910 H   0  0  0  0  0  0  0  0  0  0  0  0
    4.0967    2.1014   -1.1974 H   0  0  0  0  0  0  0  0  0  0  0  0
   -3.5198    1.2888   -2.5014 H   0  0  0  0  0  0  0  0  0  0  0  0
  1  2  1  0
  1  5  2  3
  1 14  1  0
  2 16  1  0
  2 17  1  0
  2 18  1  0
  3  6  1  0
  3 19  1  0
  3 20  1  0
  3 21  1  0
  4  6  1  0
  4 22  1  0
  4 23  1  0
  4 24  1  0
  5  7  1  0
  5  8  1  0
  6 12  1  0
  6 15  1  0
  7  9  1  0
  7 25  1  0
  8 11  2  0
  8 27  1  0
  9 10  2  0
  9 26  1  0
 10 11  1  0
 10 28  1  0
 11 29  1  0
 12 13  3  0
 13 30  1  0
M  RAD  1   7   2
M  END
>  <reaction>  (17) 
rxn_1316

>  <mol_properties>  (17) 
{"0": {"label": "*3", "atom_type": "Cd"}, "4": {"label": "*4", "atom_type": "Cd"}, "5": {"label": "*1", "atom_type": "Cs"}, "11": {"label": "*0", "atom_type": "Ct"}, "14": {"label": "*2", "atom_type": "H0"}}

>  <type>  (17) 
unop_13

>  <geom_source>  (17) 
AutoTST

$$$$
