
     RDKit          3D

  8  7  0  0  0  0  0  0  0  0999 V2000
    0.7610    0.0250    0.0051 C   0  0  0  0  0  0  0  0  0  0  0  0
   -0.7610   -0.0250   -0.0051 C   0  0  0  0  0  0  0  0  0  0  0  0
    1.1904   -0.9237   -0.3217 H   0  0  0  0  0  0  0  0  0  0  0  0
    1.1359    0.8041   -0.6609 H   0  0  0  0  0  0  0  0  0  0  0  0
    1.1435    0.2336    1.0058 H   0  0  0  0  0  0  0  0  0  0  0  0
   -1.1435   -0.2336   -1.0058 H   0  0  0  0  0  0  0  0  0  0  0  0
   -1.1904    0.9237    0.3216 H   0  0  0  0  0  0  0  0  0  0  0  0
   -1.1359   -0.8041    0.6609 H   0  0  0  0  0  0  0  0  0  0  0  0
  1  2  1  0
  1  3  1  0
  1  4  1  0
  1  5  1  0
  2  6  1  0
  2  7  1  0
  2  8  1  0
M  END
>  <reaction>  (1) 
rxn_51

>  <mol_properties>  (1) 
{"1": {"label": "donator", "atom_type": "Cs"}, "5": {"label": "d_hydrogen", "atom_type": "H0"}}

>  <type>  (1) 
r1h

$$$$

     RDKit          3D

  2  1  0  0  0  0  0  0  0  0999 V2000
    0.0000    0.0000    0.6715 S   0  0  0  0  0  1  0  0  0  0  0  0
    0.0000    0.0000   -0.6715 H   0  0  0  0  0  0  0  0  0  0  0  0
  1  2  1  0
M  RAD  1   1   2
M  END
>  <reaction>  (2) 
rxn_51

>  <mol_properties>  (2) 
{"0": {"label": "acceptor", "atom_type": "S2s"}}

>  <type>  (2) 
r2

$$$$

     RDKit          3D

  3  2  0  0  0  0  0  0  0  0999 V2000
   -0.0007    0.6157    0.0000 S   0  0  0  0  0  0  0  0  0  0  0  0
   -0.9686   -0.3090    0.0000 H   0  0  0  0  0  0  0  0  0  0  0  0
    0.9693   -0.3067    0.0000 H   0  0  0  0  0  0  0  0  0  0  0  0
  1  2  1  0
  1  3  1  0
M  END
>  <reaction>  (3) 
rxn_51

>  <mol_properties>  (3) 
{"0": {"label": "a_hydrogen", "atom_type": "H0"}, "1": {"label": "acceptor", "atom_type": "S2s"}}

>  <type>  (3) 
r2h

$$$$

     RDKit          3D

 10  8  0  0  0  0  0  0  0  0999 V2000
    0.1899   -1.5923   -1.7567 C   0  0  0  0  0  0  0  0  0  0  0  0
   -0.1751   -1.4216   -0.3205 C   0  0  0  0  0  3  0  0  0  0  0  0
   -0.4882   -1.0409   -2.4094 H   0  0  0  0  0  0  0  0  0  0  0  0
    1.2094   -1.2570   -1.9523 H   0  0  0  0  0  0  0  0  0  0  0  0
    0.1327   -2.6489   -2.0438 H   0  0  0  0  0  0  0  0  0  0  0  0
   -0.0378    0.0938   -0.1136 H   0  0  0  0  0  0  0  0  0  0  0  0
    0.5334   -1.7679    0.4252 H   0  0  0  0  0  0  0  0  0  0  0  0
   -1.2179   -1.5448   -0.0464 H   0  0  0  0  0  0  0  0  0  0  0  0
    0.1049    1.5475    0.0437 S   0  0  0  0  0  0  0  0  0  0  0  0
   -0.2513    1.4758    1.3328 H   0  0  0  0  0  0  0  0  0  0  0  0
  1  2  1  0
  1  3  1  0
  1  4  1  0
  1  5  1  0
  2  7  1  0
  2  8  1  0
  6  9  1  0
  9 10  1  0
M  RAD  1   2   2
M  END
>  <reaction>  (4) 
rxn_51

>  <mol_properties>  (4) 
{"0": {"label": "*4", "atom_type": "Cs"}, "1": {"label": "*3", "atom_type": "Cs"}, "5": {"label": "*2", "atom_type": "H0"}, "8": {"label": "*1", "atom_type": "S2s"}, "9": {"label": "*0", "atom_type": "H0"}}

>  <type>  (4) 
ts

$$$$

     RDKit          3D

 10  8  0  0  0  0  0  0  0  0999 V2000
    0.0185   -1.4223   -1.7248 C   0  0  0  0  0  0  0  0  0  0  0  0
    0.0185   -1.4223   -0.2020 C   0  0  0  0  0  0  0  0  0  0  0  0
   -0.8623   -0.9138   -2.1207 H   0  0  0  0  0  0  0  0  0  0  0  0
    0.8994   -0.9138   -2.1207 H   0  0  0  0  0  0  0  0  0  0  0  0
    0.0185   -2.4394   -2.1207 H   0  0  0  0  0  0  0  0  0  0  0  0
    0.0185   -0.2018    0.2730 H   0  0  0  0  0  0  0  0  0  0  0  0
    0.8994   -1.9309    0.1938 H   0  0  0  0  0  0  0  0  0  0  0  0
   -0.8623   -1.9309    0.1938 H   0  0  0  0  0  0  0  0  0  0  0  0
    0.0185    1.2952    0.8556 S   0  0  0  0  0  1  0  0  0  0  0  0
   -1.1394    1.1126    1.5019 H   0  0  0  0  0  0  0  0  0  0  0  0
  1  2  1  0
  1  3  1  0
  1  4  1  0
  1  5  1  0
  2  6  1  0
  2  7  1  0
  2  8  1  0
  9 10  1  0
M  RAD  1   9   2
M  END
>  <reaction>  (5) 
rxn_51

>  <mol_properties>  (5) 
{"0": {"label": "*4", "atom_type": "Cs"}, "1": {"label": "*3", "atom_type": "Cs"}, "5": {"label": "*2", "atom_type": "H0"}, "8": {"label": "*1", "atom_type": "S2s"}, "9": {"label": "*0", "atom_type": "H0"}}

>  <type>  (5) 
unop_1

>  <geom_source>  (5) 
Heuristics

$$$$

     RDKit          3D

 10  8  0  0  0  0  0  0  0  0999 V2000
    0.0107   -1.4329   -1.6976 C   0  0  0  0  0  0  0  0  0  0  0  0
    0.0107   -1.4329   -0.1748 C   0  0  0  0  0  0  0  0  0  0  0  0
   -0.8702   -0.9243   -2.0935 H   0  0  0  0  0  0  0  0  0  0  0  0
    0.8915   -0.9244   -2.0935 H   0  0  0  0  0  0  0  0  0  0  0  0
    0.0107   -2.4500   -2.0935 H   0  0  0  0  0  0  0  0  0  0  0  0
    0.0107   -0.2124    0.3002 H   0  0  0  0  0  0  0  0  0  0  0  0
    0.8915   -1.9415    0.2210 H   0  0  0  0  0  0  0  0  0  0  0  0
   -0.8702   -1.9415    0.2210 H   0  0  0  0  0  0  0  0  0  0  0  0
    0.0107    1.2846    0.8828 S   0  0  0  0  0  1  0  0  0  0  0  0
   -0.6578    1.7644   -0.1730 H   0  0  0  0  0  0  0  0  0  0  0  0
  1  2  1  0
  1  3  1  0
  1  4  1  0
  1  5  1  0
  2  6  1  0
  2  7  1  0
  2  8  1  0
  9 10  1  0
M  RAD  1   9   2
M  END
>  <reaction>  (6) 
rxn_51

>  <mol_properties>  (6) 
{"0": {"label": "*4", "atom_type": "Cs"}, "1": {"label": "*3", "atom_type": "Cs"}, "5": {"label": "*2", "atom_type": "H0"}, "8": {"label": "*1", "atom_type": "S2s"}, "9": {"label": "*0", "atom_type": "H0"}}

>  <type>  (6) 
unop_2

>  <geom_source>  (6) 
Heuristics

$$$$

     RDKit          3D

 10  8  0  0  0  0  0  0  0  0999 V2000
    0.0107   -1.4195   -1.7321 C   0  0  0  0  0  0  0  0  0  0  0  0
    0.0107   -1.4195   -0.2093 C   0  0  0  0  0  0  0  0  0  0  0  0
   -0.8702   -0.9109   -2.1280 H   0  0  0  0  0  0  0  0  0  0  0  0
    0.8915   -0.9109   -2.1280 H   0  0  0  0  0  0  0  0  0  0  0  0
    0.0107   -2.4366   -2.1280 H   0  0  0  0  0  0  0  0  0  0  0  0
    0.0107   -0.1989    0.2657 H   0  0  0  0  0  0  0  0  0  0  0  0
    0.8915   -1.9280    0.1865 H   0  0  0  0  0  0  0  0  0  0  0  0
   -0.8702   -1.9280    0.1865 H   0  0  0  0  0  0  0  0  0  0  0  0
    0.0107    1.2980    0.8483 S   0  0  0  0  0  1  0  0  0  0  0  0
   -0.6578    0.9379    1.9507 H   0  0  0  0  0  0  0  0  0  0  0  0
  1  2  1  0
  1  3  1  0
  1  4  1  0
  1  5  1  0
  2  6  1  0
  2  7  1  0
  2  8  1  0
  9 10  1  0
M  RAD  1   9   2
M  END
>  <reaction>  (7) 
rxn_51

>  <mol_properties>  (7) 
{"0": {"label": "*4", "atom_type": "Cs"}, "1": {"label": "*3", "atom_type": "Cs"}, "5": {"label": "*2", "atom_type": "H0"}, "8": {"label": "*1", "atom_type": "S2s"}, "9": {"label": "*0", "atom_type": "H0"}}

>  <type>  (7) 
unop_3

>  <geom_source>  (7) 
Heuristics

$$$$

     RDKit          3D

 10  8  0  0  0  0  0  0  0  0999 V2000
   -0.0185   -1.4301   -1.7049 C   0  0  0  0  0  0  0  0  0  0  0  0
   -0.0185   -1.4301   -0.1821 C   0  0  0  0  0  0  0  0  0  0  0  0
   -0.8994   -0.9215   -2.1007 H   0  0  0  0  0  0  0  0  0  0  0  0
    0.8623   -0.9215   -2.1007 H   0  0  0  0  0  0  0  0  0  0  0  0
   -0.0185   -2.4472   -2.1007 H   0  0  0  0  0  0  0  0  0  0  0  0
   -0.0185   -0.2095    0.2929 H   0  0  0  0  0  0  0  0  0  0  0  0
    0.8623   -1.9386    0.2137 H   0  0  0  0  0  0  0  0  0  0  0  0
   -0.8994   -1.9386    0.2137 H   0  0  0  0  0  0  0  0  0  0  0  0
   -0.0185    1.2874    0.8755 S   0  0  0  0  0  1  0  0  0  0  0  0
    1.1394    1.5898    0.2758 H   0  0  0  0  0  0  0  0  0  0  0  0
  1  2  1  0
  1  3  1  0
  1  4  1  0
  1  5  1  0
  2  6  1  0
  2  7  1  0
  2  8  1  0
  9 10  1  0
M  RAD  1   9   2
M  END
>  <reaction>  (8) 
rxn_51

>  <mol_properties>  (8) 
{"0": {"label": "*4", "atom_type": "Cs"}, "1": {"label": "*3", "atom_type": "Cs"}, "5": {"label": "*2", "atom_type": "H0"}, "8": {"label": "*1", "atom_type": "S2s"}, "9": {"label": "*0", "atom_type": "H0"}}

>  <type>  (8) 
unop_4

>  <geom_source>  (8) 
Heuristics

$$$$

     RDKit          3D

 10  8  0  0  0  0  0  0  0  0999 V2000
   -0.0000   -1.4184   -1.7348 C   0  0  0  0  0  0  0  0  0  0  0  0
   -0.0000   -1.4184   -0.2120 C   0  0  0  0  0  0  0  0  0  0  0  0
   -0.8808   -0.9099   -2.1306 H   0  0  0  0  0  0  0  0  0  0  0  0
    0.8808   -0.9099   -2.1306 H   0  0  0  0  0  0  0  0  0  0  0  0
   -0.0000   -2.4355   -2.1306 H   0  0  0  0  0  0  0  0  0  0  0  0
   -0.0000   -0.1979    0.2630 H   0  0  0  0  0  0  0  0  0  0  0  0
    0.8808   -1.9270    0.1838 H   0  0  0  0  0  0  0  0  0  0  0  0
   -0.8808   -1.9270    0.1838 H   0  0  0  0  0  0  0  0  0  0  0  0
   -0.0000    1.2991    0.8456 S   0  0  0  0  0  1  0  0  0  0  0  0
   -0.0000    0.8740    2.1150 H   0  0  0  0  0  0  0  0  0  0  0  0
  1  2  1  0
  1  3  1  0
  1  4  1  0
  1  5  1  0
  2  6  1  0
  2  7  1  0
  2  8  1  0
  9 10  1  0
M  RAD  1   9   2
M  END
>  <reaction>  (9) 
rxn_51

>  <mol_properties>  (9) 
{"0": {"label": "*4", "atom_type": "Cs"}, "1": {"label": "*3", "atom_type": "Cs"}, "5": {"label": "*2", "atom_type": "H0"}, "8": {"label": "*1", "atom_type": "S2s"}, "9": {"label": "*0", "atom_type": "H0"}}

>  <type>  (9) 
unop_5

>  <geom_source>  (9) 
Heuristics

$$$$

     RDKit          3D

 10  8  0  0  0  0  0  0  0  0999 V2000
   -0.0214   -1.4262   -1.7149 C   0  0  0  0  0  0  0  0  0  0  0  0
   -0.0214   -1.4262   -0.1921 C   0  0  0  0  0  0  0  0  0  0  0  0
   -0.9022   -0.9176   -2.1107 H   0  0  0  0  0  0  0  0  0  0  0  0
    0.8595   -0.9176   -2.1107 H   0  0  0  0  0  0  0  0  0  0  0  0
   -0.0214   -2.4433   -2.1107 H   0  0  0  0  0  0  0  0  0  0  0  0
   -0.0214   -0.2057    0.2829 H   0  0  0  0  0  0  0  0  0  0  0  0
    0.8595   -1.9347    0.2038 H   0  0  0  0  0  0  0  0  0  0  0  0
   -0.9022   -1.9347    0.2038 H   0  0  0  0  0  0  0  0  0  0  0  0
   -0.0214    1.2913    0.8655 S   0  0  0  0  0  1  0  0  0  0  0  0
    1.3157    1.3512    0.8888 H   0  0  0  0  0  0  0  0  0  0  0  0
  1  2  1  0
  1  3  1  0
  1  4  1  0
  1  5  1  0
  2  6  1  0
  2  7  1  0
  2  8  1  0
  9 10  1  0
M  RAD  1   9   2
M  END
>  <reaction>  (10) 
rxn_51

>  <mol_properties>  (10) 
{"0": {"label": "*4", "atom_type": "Cs"}, "1": {"label": "*3", "atom_type": "Cs"}, "5": {"label": "*2", "atom_type": "H0"}, "8": {"label": "*1", "atom_type": "S2s"}, "9": {"label": "*0", "atom_type": "H0"}}

>  <type>  (10) 
unop_6

>  <geom_source>  (10) 
Heuristics

$$$$

     RDKit          3D

 10  8  0  0  0  0  0  0  0  0999 V2000
   -0.0185   -1.4223   -1.7248 C   0  0  0  0  0  0  0  0  0  0  0  0
   -0.0185   -1.4223   -0.2020 C   0  0  0  0  0  0  0  0  0  0  0  0
   -0.8994   -0.9138   -2.1207 H   0  0  0  0  0  0  0  0  0  0  0  0
    0.8623   -0.9138   -2.1207 H   0  0  0  0  0  0  0  0  0  0  0  0
   -0.0185   -2.4394   -2.1207 H   0  0  0  0  0  0  0  0  0  0  0  0
   -0.0185   -0.2018    0.2730 H   0  0  0  0  0  0  0  0  0  0  0  0
    0.8623   -1.9309    0.1938 H   0  0  0  0  0  0  0  0  0  0  0  0
   -0.8994   -1.9309    0.1938 H   0  0  0  0  0  0  0  0  0  0  0  0
   -0.0185    1.2952    0.8556 S   0  0  0  0  0  1  0  0  0  0  0  0
    1.1394    1.1126    1.5019 H   0  0  0  0  0  0  0  0  0  0  0  0
  1  2  1  0
  1  3  1  0
  1  4  1  0
  1  5  1  0
  2  6  1  0
  2  7  1  0
  2  8  1  0
  9 10  1  0
M  RAD  1   9   2
M  END
>  <reaction>  (11) 
rxn_51

>  <mol_properties>  (11) 
{"0": {"label": "*4", "atom_type": "Cs"}, "1": {"label": "*3", "atom_type": "Cs"}, "5": {"label": "*2", "atom_type": "H0"}, "8": {"label": "*1", "atom_type": "S2s"}, "9": {"label": "*0", "atom_type": "H0"}}

>  <type>  (11) 
unop_7

>  <geom_source>  (11) 
Heuristics

$$$$

     RDKit          3D

 10  8  0  0  0  0  0  0  0  0999 V2000
    0.0214   -1.4262   -1.7149 C   0  0  0  0  0  0  0  0  0  0  0  0
    0.0214   -1.4262   -0.1921 C   0  0  0  0  0  0  0  0  0  0  0  0
   -0.8595   -0.9176   -2.1107 H   0  0  0  0  0  0  0  0  0  0  0  0
    0.9022   -0.9176   -2.1107 H   0  0  0  0  0  0  0  0  0  0  0  0
    0.0214   -2.4433   -2.1107 H   0  0  0  0  0  0  0  0  0  0  0  0
    0.0214   -0.2057    0.2829 H   0  0  0  0  0  0  0  0  0  0  0  0
    0.9022   -1.9347    0.2038 H   0  0  0  0  0  0  0  0  0  0  0  0
   -0.8595   -1.9347    0.2038 H   0  0  0  0  0  0  0  0  0  0  0  0
    0.0214    1.2913    0.8655 S   0  0  0  0  0  1  0  0  0  0  0  0
   -1.3157    1.3512    0.8888 H   0  0  0  0  0  0  0  0  0  0  0  0
  1  2  1  0
  1  3  1  0
  1  4  1  0
  1  5  1  0
  2  6  1  0
  2  7  1  0
  2  8  1  0
  9 10  1  0
M  RAD  1   9   2
M  END
>  <reaction>  (12) 
rxn_51

>  <mol_properties>  (12) 
{"0": {"label": "*4", "atom_type": "Cs"}, "1": {"label": "*3", "atom_type": "Cs"}, "5": {"label": "*2", "atom_type": "H0"}, "8": {"label": "*1", "atom_type": "S2s"}, "9": {"label": "*0", "atom_type": "H0"}}

>  <type>  (12) 
unop_8

>  <geom_source>  (12) 
Heuristics

$$$$

     RDKit          3D

 10  8  0  0  0  0  0  0  0  0999 V2000
   -0.0107   -1.4329   -1.6976 C   0  0  0  0  0  0  0  0  0  0  0  0
   -0.0107   -1.4329   -0.1748 C   0  0  0  0  0  0  0  0  0  0  0  0
   -0.8915   -0.9243   -2.0935 H   0  0  0  0  0  0  0  0  0  0  0  0
    0.8702   -0.9244   -2.0935 H   0  0  0  0  0  0  0  0  0  0  0  0
   -0.0107   -2.4500   -2.0935 H   0  0  0  0  0  0  0  0  0  0  0  0
   -0.0107   -0.2124    0.3002 H   0  0  0  0  0  0  0  0  0  0  0  0
    0.8702   -1.9415    0.2210 H   0  0  0  0  0  0  0  0  0  0  0  0
   -0.8915   -1.9415    0.2210 H   0  0  0  0  0  0  0  0  0  0  0  0
   -0.0107    1.2846    0.8828 S   0  0  0  0  0  1  0  0  0  0  0  0
    0.6578    1.7644   -0.1730 H   0  0  0  0  0  0  0  0  0  0  0  0
  1  2  1  0
  1  3  1  0
  1  4  1  0
  1  5  1  0
  2  6  1  0
  2  7  1  0
  2  8  1  0
  9 10  1  0
M  RAD  1   9   2
M  END
>  <reaction>  (13) 
rxn_51

>  <mol_properties>  (13) 
{"0": {"label": "*4", "atom_type": "Cs"}, "1": {"label": "*3", "atom_type": "Cs"}, "5": {"label": "*2", "atom_type": "H0"}, "8": {"label": "*1", "atom_type": "S2s"}, "9": {"label": "*0", "atom_type": "H0"}}

>  <type>  (13) 
unop_9

>  <geom_source>  (13) 
Heuristics

$$$$

     RDKit          3D

 10  8  0  0  0  0  0  0  0  0999 V2000
    0.0185   -1.4301   -1.7049 C   0  0  0  0  0  0  0  0  0  0  0  0
    0.0185   -1.4301   -0.1821 C   0  0  0  0  0  0  0  0  0  0  0  0
   -0.8623   -0.9215   -2.1007 H   0  0  0  0  0  0  0  0  0  0  0  0
    0.8994   -0.9215   -2.1007 H   0  0  0  0  0  0  0  0  0  0  0  0
    0.0185   -2.4472   -2.1007 H   0  0  0  0  0  0  0  0  0  0  0  0
    0.0185   -0.2095    0.2929 H   0  0  0  0  0  0  0  0  0  0  0  0
    0.8994   -1.9386    0.2137 H   0  0  0  0  0  0  0  0  0  0  0  0
   -0.8623   -1.9386    0.2137 H   0  0  0  0  0  0  0  0  0  0  0  0
    0.0185    1.2874    0.8755 S   0  0  0  0  0  1  0  0  0  0  0  0
   -1.1394    1.5898    0.2758 H   0  0  0  0  0  0  0  0  0  0  0  0
  1  2  1  0
  1  3  1  0
  1  4  1  0
  1  5  1  0
  2  6  1  0
  2  7  1  0
  2  8  1  0
  9 10  1  0
M  RAD  1   9   2
M  END
>  <reaction>  (14) 
rxn_51

>  <mol_properties>  (14) 
{"0": {"label": "*4", "atom_type": "Cs"}, "1": {"label": "*3", "atom_type": "Cs"}, "5": {"label": "*2", "atom_type": "H0"}, "8": {"label": "*1", "atom_type": "S2s"}, "9": {"label": "*0", "atom_type": "H0"}}

>  <type>  (14) 
unop_10

>  <geom_source>  (14) 
Heuristics

$$$$

     RDKit          3D

 10  8  0  0  0  0  0  0  0  0999 V2000
   -0.0107   -1.4195   -1.7321 C   0  0  0  0  0  0  0  0  0  0  0  0
   -0.0107   -1.4195   -0.2093 C   0  0  0  0  0  0  0  0  0  0  0  0
   -0.8915   -0.9109   -2.1280 H   0  0  0  0  0  0  0  0  0  0  0  0
    0.8702   -0.9109   -2.1280 H   0  0  0  0  0  0  0  0  0  0  0  0
   -0.0107   -2.4366   -2.1280 H   0  0  0  0  0  0  0  0  0  0  0  0
   -0.0107   -0.1989    0.2657 H   0  0  0  0  0  0  0  0  0  0  0  0
    0.8702   -1.9280    0.1865 H   0  0  0  0  0  0  0  0  0  0  0  0
   -0.8915   -1.9280    0.1865 H   0  0  0  0  0  0  0  0  0  0  0  0
   -0.0107    1.2980    0.8483 S   0  0  0  0  0  1  0  0  0  0  0  0
    0.6578    0.9379    1.9507 H   0  0  0  0  0  0  0  0  0  0  0  0
  1  2  1  0
  1  3  1  0
  1  4  1  0
  1  5  1  0
  2  6  1  0
  2  7  1  0
  2  8  1  0
  9 10  1  0
M  RAD  1   9   2
M  END
>  <reaction>  (15) 
rxn_51

>  <mol_properties>  (15) 
{"0": {"label": "*4", "atom_type": "Cs"}, "1": {"label": "*3", "atom_type": "Cs"}, "5": {"label": "*2", "atom_type": "H0"}, "8": {"label": "*1", "atom_type": "S2s"}, "9": {"label": "*0", "atom_type": "H0"}}

>  <type>  (15) 
unop_11

>  <geom_source>  (15) 
Heuristics

$$$$

     RDKit          3D

 10  8  0  0  0  0  0  0  0  0999 V2000
   -0.0000   -1.4339   -1.6949 C   0  0  0  0  0  0  0  0  0  0  0  0
   -0.0000   -1.4339   -0.1721 C   0  0  0  0  0  0  0  0  0  0  0  0
   -0.8808   -0.9254   -2.0908 H   0  0  0  0  0  0  0  0  0  0  0  0
    0.8808   -0.9254   -2.0908 H   0  0  0  0  0  0  0  0  0  0  0  0
   -0.0000   -2.4511   -2.0908 H   0  0  0  0  0  0  0  0  0  0  0  0
   -0.0000   -0.2134    0.3029 H   0  0  0  0  0  0  0  0  0  0  0  0
    0.8808   -1.9425    0.2237 H   0  0  0  0  0  0  0  0  0  0  0  0
   -0.8808   -1.9425    0.2237 H   0  0  0  0  0  0  0  0  0  0  0  0
   -0.0000    1.2836    0.8855 S   0  0  0  0  0  1  0  0  0  0  0  0
   -0.0000    1.8284   -0.3373 H   0  0  0  0  0  0  0  0  0  0  0  0
  1  2  1  0
  1  3  1  0
  1  4  1  0
  1  5  1  0
  2  6  1  0
  2  7  1  0
  2  8  1  0
  9 10  1  0
M  RAD  1   9   2
M  END
>  <reaction>  (16) 
rxn_51

>  <mol_properties>  (16) 
{"0": {"label": "*4", "atom_type": "Cs"}, "1": {"label": "*3", "atom_type": "Cs"}, "5": {"label": "*2", "atom_type": "H0"}, "8": {"label": "*1", "atom_type": "S2s"}, "9": {"label": "*0", "atom_type": "H0"}}

>  <type>  (16) 
unop_12

>  <geom_source>  (16) 
Heuristics

$$$$
