
     RDKit          3D

 21 21  0  0  0  0  0  0  0  0999 V2000
   -1.3695    1.3367   -1.0719 C   0  0  0  0  0  0  0  0  0  0  0  0
   -1.4091   -0.0981   -0.5428 C   0  0  0  0  0  0  0  0  0  0  0  0
   -0.1819   -0.3999    0.3191 C   0  0  0  0  0  0  0  0  0  0  0  0
   -1.5636   -1.1028   -1.6652 C   0  0  0  0  0  0  0  0  0  0  0  0
   -0.5920   -1.2314   -2.6553 C   0  0  0  0  0  0  0  0  0  0  0  0
   -0.7353   -2.1509   -3.6809 C   0  0  0  0  0  0  0  0  0  0  0  0
   -1.8582   -2.9642   -3.7377 C   0  0  0  0  0  0  0  0  0  0  0  0
   -2.8325   -2.8475   -2.7602 C   0  0  0  0  0  0  0  0  0  0  0  0
   -2.6828   -1.9241   -1.7351 C   0  0  0  0  0  0  0  0  0  0  0  0
   -0.4920    1.4974   -1.7025 H   0  0  0  0  0  0  0  0  0  0  0  0
   -2.2553    1.5607   -1.6679 H   0  0  0  0  0  0  0  0  0  0  0  0
   -1.3211    2.0496   -0.2461 H   0  0  0  0  0  0  0  0  0  0  0  0
   -2.2930   -0.1918    0.0948 H   0  0  0  0  0  0  0  0  0  0  0  0
   -0.1215    0.2955    1.1588 H   0  0  0  0  0  0  0  0  0  0  0  0
   -0.2200   -1.4155    0.7159 H   0  0  0  0  0  0  0  0  0  0  0  0
    0.7383   -0.3016   -0.2615 H   0  0  0  0  0  0  0  0  0  0  0  0
    0.2915   -0.6040   -2.6263 H   0  0  0  0  0  0  0  0  0  0  0  0
    0.0326   -2.2338   -4.4401 H   0  0  0  0  0  0  0  0  0  0  0  0
   -1.9712   -3.6833   -4.5391 H   0  0  0  0  0  0  0  0  0  0  0  0
   -3.7135   -3.4765   -2.7932 H   0  0  0  0  0  0  0  0  0  0  0  0
   -3.4509   -1.8400   -0.9743 H   0  0  0  0  0  0  0  0  0  0  0  0
  1  2  1  0
  1 10  1  0
  1 11  1  0
  1 12  1  0
  2  3  1  0
  2  4  1  0
  2 13  1  0
  3 14  1  0
  3 15  1  0
  3 16  1  0
  4  5  2  0
  4  9  1  0
  5  6  1  0
  5 17  1  0
  6  7  2  0
  6 18  1  0
  7  8  1  0
  7 19  1  0
  8  9  2  0
  8 20  1  0
  9 21  1  0
M  END
>  <reaction>  (1) 
rxn_1523

>  <mol_properties>  (1) 
{"1": {"label": "donator", "atom_type": "Cs"}, "12": {"label": "d_hydrogen", "atom_type": "H0"}}

>  <type>  (1) 
r1h

$$$$

     RDKit          3D

  7  6  0  0  0  0  0  0  0  0999 V2000
   -0.6201    0.0189   -0.0017 C   0  0  0  0  0  0  0  0  0  0  0  0
    0.8589   -0.0553    0.0500 C   0  0  0  0  0  3  0  0  0  0  0  0
   -1.0738   -0.9730   -0.0559 H   0  0  0  0  0  0  0  0  0  0  0  0
   -0.9680    0.5706   -0.8872 H   0  0  0  0  0  0  0  0  0  0  0  0
   -1.0303    0.5369    0.8678 H   0  0  0  0  0  0  0  0  0  0  0  0
    1.3939   -0.8386   -0.4695 H   0  0  0  0  0  0  0  0  0  0  0  0
    1.4394    0.7404    0.4965 H   0  0  0  0  0  0  0  0  0  0  0  0
  1  2  1  0
  1  3  1  0
  1  4  1  0
  1  5  1  0
  2  6  1  0
  2  7  1  0
M  RAD  1   2   2
M  END
>  <reaction>  (2) 
rxn_1523

>  <mol_properties>  (2) 
{"1": {"label": "acceptor", "atom_type": "Cs"}}

>  <type>  (2) 
r2

$$$$

     RDKit          3D

  8  7  0  0  0  0  0  0  0  0999 V2000
    0.7610    0.0250    0.0051 C   0  0  0  0  0  0  0  0  0  0  0  0
   -0.7610   -0.0250   -0.0051 C   0  0  0  0  0  0  0  0  0  0  0  0
    1.1904   -0.9237   -0.3217 H   0  0  0  0  0  0  0  0  0  0  0  0
    1.1359    0.8041   -0.6609 H   0  0  0  0  0  0  0  0  0  0  0  0
    1.1435    0.2336    1.0058 H   0  0  0  0  0  0  0  0  0  0  0  0
   -1.1435   -0.2336   -1.0058 H   0  0  0  0  0  0  0  0  0  0  0  0
   -1.1904    0.9237    0.3216 H   0  0  0  0  0  0  0  0  0  0  0  0
   -1.1359   -0.8041    0.6609 H   0  0  0  0  0  0  0  0  0  0  0  0
  1  2  1  0
  1  3  1  0
  1  4  1  0
  1  5  1  0
  2  6  1  0
  2  7  1  0
  2  8  1  0
M  END
>  <reaction>  (3) 
rxn_1523

>  <mol_properties>  (3) 
{"1": {"label": "acceptor", "atom_type": "Cs"}, "7": {"label": "a_hydrogen", "atom_type": "H0"}}

>  <type>  (3) 
r2h

$$$$

     RDKit          3D

 28 27  0  0  0  0  0  0  0  0999 V2000
   -2.5534   -1.4036   -0.9147 C   0  0  0  0  0  0  0  0  0  0  0  0
   -2.9464   -0.1481   -0.1928 C   0  0  0  0  0  3  0  0  0  0  0  0
   -3.3735   -2.1295   -0.9423 H   0  0  0  0  0  0  0  0  0  0  0  0
   -1.7027   -1.8863   -0.4295 H   0  0  0  0  0  0  0  0  0  0  0  0
   -2.2708   -1.1936   -1.9484 H   0  0  0  0  0  0  0  0  0  0  0  0
   -3.1359   -0.2515    0.8732 H   0  0  0  0  0  0  0  0  0  0  0  0
   -3.6796    0.4829   -0.6898 H   0  0  0  0  0  0  0  0  0  0  0  0
   -0.6552    1.8046   -1.7280 C   0  0  0  0  0  0  0  0  0  0  0  0
   -0.6662    1.2956   -0.3034 C   0  0  0  0  0  0  0  0  0  0  0  0
   -0.8237    2.4150    0.7095 C   0  0  0  0  0  0  0  0  0  0  0  0
    0.3661    0.2749    0.0427 C   0  0  0  0  0  0  0  0  0  0  0  0
    1.3583   -0.1244   -0.8523 C   0  0  0  0  0  0  0  0  0  0  0  0
    2.2775   -1.1073   -0.5147 C   0  0  0  0  0  0  0  0  0  0  0  0
    2.2229   -1.7234    0.7241 C   0  0  0  0  0  0  0  0  0  0  0  0
    1.2375   -1.3442    1.6257 C   0  0  0  0  0  0  0  0  0  0  0  0
    0.3265   -0.3601    1.2886 C   0  0  0  0  0  0  0  0  0  0  0  0
    0.2374    2.4038   -1.9371 H   0  0  0  0  0  0  0  0  0  0  0  0
   -0.6893    0.9878   -2.4511 H   0  0  0  0  0  0  0  0  0  0  0  0
   -1.5243    2.4412   -1.9026 H   0  0  0  0  0  0  0  0  0  0  0  0
   -1.7628    0.6502   -0.2191 H   0  0  0  0  0  0  0  0  0  0  0  0
   -1.7066    3.0155    0.4804 H   0  0  0  0  0  0  0  0  0  0  0  0
   -0.9303    2.0398    1.7272 H   0  0  0  0  0  0  0  0  0  0  0  0
    0.0476    3.0776    0.6909 H   0  0  0  0  0  0  0  0  0  0  0  0
    1.4252    0.3400   -1.8272 H   0  0  0  0  0  0  0  0  0  0  0  0
    3.0410   -1.3919   -1.2284 H   0  0  0  0  0  0  0  0  0  0  0  0
    2.9380   -2.4926    0.9860 H   0  0  0  0  0  0  0  0  0  0  0  0
    1.1773   -1.8217    2.5959 H   0  0  0  0  0  0  0  0  0  0  0  0
   -0.4455   -0.0903    1.9993 H   0  0  0  0  0  0  0  0  0  0  0  0
  1  2  1  0
  1  3  1  0
  1  4  1  0
  1  5  1  0
  2  6  1  0
  2  7  1  0
  8  9  1  0
  8 17  1  0
  8 18  1  0
  8 19  1  0
  9 10  1  0
  9 11  1  0
  9 20  1  0
 10 21  1  0
 10 22  1  0
 10 23  1  0
 11 12  2  0
 11 16  1  0
 12 13  1  0
 12 24  1  0
 13 14  2  0
 13 25  1  0
 14 15  1  0
 14 26  1  0
 15 16  2  0
 15 27  1  0
 16 28  1  0
M  RAD  1   2   2
M  END
>  <reaction>  (4) 
rxn_1523

>  <mol_properties>  (4) 
{"0": {"label": "*4", "atom_type": "Cs"}, "1": {"label": "*3", "atom_type": "Cs"}, "8": {"label": "*1", "atom_type": "Cs"}, "10": {"label": "*0", "atom_type": "Cd"}, "19": {"label": "*2", "atom_type": "H0"}}

>  <type>  (4) 
ts

$$$$

     RDKit          3D

 28 27  0  0  0  0  0  0  0  0999 V2000
   -2.6647   -1.3676    0.9306 C   0  0  0  0  0  0  0  0  0  0  0  0
   -2.9576   -0.1341    0.0871 C   0  0  0  0  0  0  0  0  0  0  0  0
   -3.3546   -1.4442    1.7729 H   0  0  0  0  0  0  0  0  0  0  0  0
   -1.6514   -1.3391    1.3352 H   0  0  0  0  0  0  0  0  0  0  0  0
   -2.7596   -2.2816    0.3417 H   0  0  0  0  0  0  0  0  0  0  0  0
   -2.8627    0.7798    0.6761 H   0  0  0  0  0  0  0  0  0  0  0  0
   -3.9709   -0.1627   -0.3174 H   0  0  0  0  0  0  0  0  0  0  0  0
   -0.7424    1.0228   -2.2370 C   0  0  0  0  0  0  0  0  0  0  0  0
   -0.7424    1.0228   -0.7073 C   0  0  0  0  0  3  0  0  0  0  0  0
   -0.7424    2.4504   -0.1578 C   0  0  0  0  0  0  0  0  0  0  0  0
    0.4070    0.2100   -0.1492 C   0  0  0  0  0  0  0  0  0  0  0  0
    1.7300    0.5697   -0.3962 C   0  0  0  0  0  0  0  0  0  0  0  0
    2.7797   -0.1750    0.1152 C   0  0  0  0  0  0  0  0  0  0  0  0
    2.5266   -1.2998    0.8875 C   0  0  0  0  0  0  0  0  0  0  0  0
    1.2162   -1.6696    1.1414 C   0  0  0  0  0  0  0  0  0  0  0  0
    0.1689   -0.9189    0.6260 C   0  0  0  0  0  0  0  0  0  0  0  0
    0.1519    1.5131   -2.6286 H   0  0  0  0  0  0  0  0  0  0  0  0
   -0.7654    0.0055   -2.6304 H   0  0  0  0  0  0  0  0  0  0  0  0
   -1.6119    1.5601   -2.6213 H   0  0  0  0  0  0  0  0  0  0  0  0
   -1.8512    0.4437   -0.3096 H   0  0  0  0  0  0  0  0  0  0  0  0
   -1.6119    3.0021   -0.5212 H   0  0  0  0  0  0  0  0  0  0  0  0
   -0.7654    2.4521    0.9329 H   0  0  0  0  0  0  0  0  0  0  0  0
    0.1519    2.9920   -0.4747 H   0  0  0  0  0  0  0  0  0  0  0  0
    1.9458    1.4455   -0.9975 H   0  0  0  0  0  0  0  0  0  0  0  0
    3.8005    0.1231   -0.0895 H   0  0  0  0  0  0  0  0  0  0  0  0
    3.3464   -1.8827    1.2877 H   0  0  0  0  0  0  0  0  0  0  0  0
    1.0054   -2.5453    1.7427 H   0  0  0  0  0  0  0  0  0  0  0  0
   -0.8537   -1.2163    0.8301 H   0  0  0  0  0  0  0  0  0  0  0  0
  1  2  1  0
  1  3  1  0
  1  4  1  0
  1  5  1  0
  2  6  1  0
  2  7  1  0
  2 20  1  0
  8  9  1  0
  8 17  1  0
  8 18  1  0
  8 19  1  0
  9 10  1  0
  9 11  1  0
 10 21  1  0
 10 22  1  0
 10 23  1  0
 11 12  2  0
 11 16  1  0
 12 13  1  0
 12 24  1  0
 13 14  2  0
 13 25  1  0
 14 15  1  0
 14 26  1  0
 15 16  2  0
 15 27  1  0
 16 28  1  0
M  RAD  1   9   2
M  END
>  <reaction>  (5) 
rxn_1523

>  <mol_properties>  (5) 
{"0": {"label": "*4", "atom_type": "Cs"}, "1": {"label": "*3", "atom_type": "Cs"}, "8": {"label": "*1", "atom_type": "Cs"}, "10": {"label": "*0", "atom_type": "Cd"}, "19": {"label": "*2", "atom_type": "H0"}}

>  <type>  (5) 
unop_1

>  <geom_source>  (5) 
Heuristics

$$$$

     RDKit          3D

 28 27  0  0  0  0  0  0  0  0999 V2000
   -3.3488   -1.1939   -0.7281 C   0  0  0  0  0  0  0  0  0  0  0  0
   -2.8808   -0.1490    0.2759 C   0  0  0  0  0  0  0  0  0  0  0  0
   -4.0628   -1.8849   -0.2764 H   0  0  0  0  0  0  0  0  0  0  0  0
   -2.5114   -1.7838   -1.1050 H   0  0  0  0  0  0  0  0  0  0  0  0
   -3.8373   -0.7280   -1.5857 H   0  0  0  0  0  0  0  0  0  0  0  0
   -2.3923   -0.6149    1.1335 H   0  0  0  0  0  0  0  0  0  0  0  0
   -3.7182    0.4409    0.6528 H   0  0  0  0  0  0  0  0  0  0  0  0
   -0.6655    1.0080   -2.0482 C   0  0  0  0  0  0  0  0  0  0  0  0
   -0.6655    1.0080   -0.5185 C   0  0  0  0  0  3  0  0  0  0  0  0
   -0.6655    2.4356    0.0309 C   0  0  0  0  0  0  0  0  0  0  0  0
    0.4838    0.1951    0.0396 C   0  0  0  0  0  0  0  0  0  0  0  0
    1.8068    0.5549   -0.2074 C   0  0  0  0  0  0  0  0  0  0  0  0
    2.8565   -0.1899    0.3039 C   0  0  0  0  0  0  0  0  0  0  0  0
    2.6034   -1.3147    1.0762 C   0  0  0  0  0  0  0  0  0  0  0  0
    1.2930   -1.6844    1.3301 C   0  0  0  0  0  0  0  0  0  0  0  0
    0.2458   -0.9338    0.8147 C   0  0  0  0  0  0  0  0  0  0  0  0
    0.2287    1.4982   -2.4399 H   0  0  0  0  0  0  0  0  0  0  0  0
   -0.6886   -0.0093   -2.4416 H   0  0  0  0  0  0  0  0  0  0  0  0
   -1.5351    1.5452   -2.4325 H   0  0  0  0  0  0  0  0  0  0  0  0
   -1.7744    0.4289   -0.1209 H   0  0  0  0  0  0  0  0  0  0  0  0
   -1.5351    2.9872   -0.3324 H   0  0  0  0  0  0  0  0  0  0  0  0
   -0.6886    2.4373    1.1217 H   0  0  0  0  0  0  0  0  0  0  0  0
    0.2287    2.9772   -0.2859 H   0  0  0  0  0  0  0  0  0  0  0  0
    2.0227    1.4306   -0.8087 H   0  0  0  0  0  0  0  0  0  0  0  0
    3.8774    0.1083    0.0992 H   0  0  0  0  0  0  0  0  0  0  0  0
    3.4233   -1.8975    1.4764 H   0  0  0  0  0  0  0  0  0  0  0  0
    1.0823   -2.5601    1.9314 H   0  0  0  0  0  0  0  0  0  0  0  0
   -0.7769   -1.2311    1.0189 H   0  0  0  0  0  0  0  0  0  0  0  0
  1  2  1  0
  1  3  1  0
  1  4  1  0
  1  5  1  0
  2  6  1  0
  2  7  1  0
  2 20  1  0
  8  9  1  0
  8 17  1  0
  8 18  1  0
  8 19  1  0
  9 10  1  0
  9 11  1  0
 10 21  1  0
 10 22  1  0
 10 23  1  0
 11 12  2  0
 11 16  1  0
 12 13  1  0
 12 24  1  0
 13 14  2  0
 13 25  1  0
 14 15  1  0
 14 26  1  0
 15 16  2  0
 15 27  1  0
 16 28  1  0
M  RAD  1   9   2
M  END
>  <reaction>  (6) 
rxn_1523

>  <mol_properties>  (6) 
{"0": {"label": "*4", "atom_type": "Cs"}, "1": {"label": "*3", "atom_type": "Cs"}, "8": {"label": "*1", "atom_type": "Cs"}, "10": {"label": "*0", "atom_type": "Cd"}, "19": {"label": "*2", "atom_type": "H0"}}

>  <type>  (6) 
unop_2

>  <geom_source>  (6) 
Heuristics

$$$$

     RDKit          3D

 28 27  0  0  0  0  0  0  0  0999 V2000
   -2.7539   -0.8884    1.3776 C   0  0  0  0  0  0  0  0  0  0  0  0
   -2.9458   -0.1881    0.0391 C   0  0  0  0  0  0  0  0  0  0  0  0
   -3.6860   -0.9211    1.9445 H   0  0  0  0  0  0  0  0  0  0  0  0
   -2.0121   -0.3737    1.9909 H   0  0  0  0  0  0  0  0  0  0  0  0
   -2.4138   -1.9165    1.2414 H   0  0  0  0  0  0  0  0  0  0  0  0
   -3.2858    0.8400    0.1754 H   0  0  0  0  0  0  0  0  0  0  0  0
   -3.6875   -0.7029   -0.5742 H   0  0  0  0  0  0  0  0  0  0  0  0
   -0.7305    0.9688   -2.2850 C   0  0  0  0  0  0  0  0  0  0  0  0
   -0.7305    0.9688   -0.7553 C   0  0  0  0  0  3  0  0  0  0  0  0
   -0.7305    2.3964   -0.2058 C   0  0  0  0  0  0  0  0  0  0  0  0
    0.4188    0.1560   -0.1972 C   0  0  0  0  0  0  0  0  0  0  0  0
    1.7418    0.5157   -0.4442 C   0  0  0  0  0  0  0  0  0  0  0  0
    2.7915   -0.2290    0.0672 C   0  0  0  0  0  0  0  0  0  0  0  0
    2.5384   -1.3538    0.8395 C   0  0  0  0  0  0  0  0  0  0  0  0
    1.2280   -1.7236    1.0934 C   0  0  0  0  0  0  0  0  0  0  0  0
    0.1808   -0.9730    0.5780 C   0  0  0  0  0  0  0  0  0  0  0  0
    0.1637    1.4591   -2.6766 H   0  0  0  0  0  0  0  0  0  0  0  0
   -0.7536   -0.0485   -2.6784 H   0  0  0  0  0  0  0  0  0  0  0  0
   -1.6001    1.5061   -2.6693 H   0  0  0  0  0  0  0  0  0  0  0  0
   -1.8394    0.3897   -0.3576 H   0  0  0  0  0  0  0  0  0  0  0  0
   -1.6001    2.9481   -0.5692 H   0  0  0  0  0  0  0  0  0  0  0  0
   -0.7536    2.3981    0.8849 H   0  0  0  0  0  0  0  0  0  0  0  0
    0.1637    2.9380   -0.5227 H   0  0  0  0  0  0  0  0  0  0  0  0
    1.9576    1.3915   -1.0455 H   0  0  0  0  0  0  0  0  0  0  0  0
    3.8123    0.0691   -0.1375 H   0  0  0  0  0  0  0  0  0  0  0  0
    3.3582   -1.9367    1.2397 H   0  0  0  0  0  0  0  0  0  0  0  0
    1.0172   -2.5993    1.6947 H   0  0  0  0  0  0  0  0  0  0  0  0
   -0.8419   -1.2703    0.7821 H   0  0  0  0  0  0  0  0  0  0  0  0
  1  2  1  0
  1  3  1  0
  1  4  1  0
  1  5  1  0
  2  6  1  0
  2  7  1  0
  2 20  1  0
  8  9  1  0
  8 17  1  0
  8 18  1  0
  8 19  1  0
  9 10  1  0
  9 11  1  0
 10 21  1  0
 10 22  1  0
 10 23  1  0
 11 12  2  0
 11 16  1  0
 12 13  1  0
 12 24  1  0
 13 14  2  0
 13 25  1  0
 14 15  1  0
 14 26  1  0
 15 16  2  0
 15 27  1  0
 16 28  1  0
M  RAD  1   9   2
M  END
>  <reaction>  (7) 
rxn_1523

>  <mol_properties>  (7) 
{"0": {"label": "*4", "atom_type": "Cs"}, "1": {"label": "*3", "atom_type": "Cs"}, "8": {"label": "*1", "atom_type": "Cs"}, "10": {"label": "*0", "atom_type": "Cd"}, "19": {"label": "*2", "atom_type": "H0"}}

>  <type>  (7) 
unop_3

>  <geom_source>  (7) 
Heuristics

$$$$

     RDKit          3D

 28 27  0  0  0  0  0  0  0  0999 V2000
   -4.0297    0.4126   -0.2846 C   0  0  0  0  0  0  0  0  0  0  0  0
   -2.8036   -0.3335    0.2243 C   0  0  0  0  0  0  0  0  0  0  0  0
   -4.8610    0.3338    0.4181 H   0  0  0  0  0  0  0  0  0  0  0  0
   -4.3674    0.0124   -1.2422 H   0  0  0  0  0  0  0  0  0  0  0  0
   -3.8166    1.4736   -0.4266 H   0  0  0  0  0  0  0  0  0  0  0  0
   -3.0166   -1.3945    0.3663 H   0  0  0  0  0  0  0  0  0  0  0  0
   -2.4659    0.0666    1.1819 H   0  0  0  0  0  0  0  0  0  0  0  0
   -0.5884    0.8234   -2.0998 C   0  0  0  0  0  0  0  0  0  0  0  0
   -0.5884    0.8234   -0.5701 C   0  0  0  0  0  3  0  0  0  0  0  0
   -0.5884    2.2510   -0.0206 C   0  0  0  0  0  0  0  0  0  0  0  0
    0.5609    0.0106   -0.0120 C   0  0  0  0  0  0  0  0  0  0  0  0
    1.8840    0.3703   -0.2590 C   0  0  0  0  0  0  0  0  0  0  0  0
    2.9336   -0.3745    0.2524 C   0  0  0  0  0  0  0  0  0  0  0  0
    2.6805   -1.4992    1.0247 C   0  0  0  0  0  0  0  0  0  0  0  0
    1.3702   -1.8690    1.2786 C   0  0  0  0  0  0  0  0  0  0  0  0
    0.3229   -1.1184    0.7632 C   0  0  0  0  0  0  0  0  0  0  0  0
    0.3059    1.3137   -2.4914 H   0  0  0  0  0  0  0  0  0  0  0  0
   -0.6114   -0.1939   -2.4932 H   0  0  0  0  0  0  0  0  0  0  0  0
   -1.4579    1.3607   -2.4841 H   0  0  0  0  0  0  0  0  0  0  0  0
   -1.6973    0.2443   -0.1725 H   0  0  0  0  0  0  0  0  0  0  0  0
   -1.4579    2.8027   -0.3840 H   0  0  0  0  0  0  0  0  0  0  0  0
   -0.6114    2.2527    1.0701 H   0  0  0  0  0  0  0  0  0  0  0  0
    0.3059    2.7926   -0.3375 H   0  0  0  0  0  0  0  0  0  0  0  0
    2.0998    1.2461   -0.8603 H   0  0  0  0  0  0  0  0  0  0  0  0
    3.9545   -0.0763    0.0477 H   0  0  0  0  0  0  0  0  0  0  0  0
    3.5004   -2.0821    1.4249 H   0  0  0  0  0  0  0  0  0  0  0  0
    1.1594   -2.7447    1.8799 H   0  0  0  0  0  0  0  0  0  0  0  0
   -0.6997   -1.4157    0.9673 H   0  0  0  0  0  0  0  0  0  0  0  0
  1  2  1  0
  1  3  1  0
  1  4  1  0
  1  5  1  0
  2  6  1  0
  2  7  1  0
  2 20  1  0
  8  9  1  0
  8 17  1  0
  8 18  1  0
  8 19  1  0
  9 10  1  0
  9 11  1  0
 10 21  1  0
 10 22  1  0
 10 23  1  0
 11 12  2  0
 11 16  1  0
 12 13  1  0
 12 24  1  0
 13 14  2  0
 13 25  1  0
 14 15  1  0
 14 26  1  0
 15 16  2  0
 15 27  1  0
 16 28  1  0
M  RAD  1   9   2
M  END
>  <reaction>  (8) 
rxn_1523

>  <mol_properties>  (8) 
{"0": {"label": "*4", "atom_type": "Cs"}, "1": {"label": "*3", "atom_type": "Cs"}, "8": {"label": "*1", "atom_type": "Cs"}, "10": {"label": "*0", "atom_type": "Cd"}, "19": {"label": "*2", "atom_type": "H0"}}

>  <type>  (8) 
unop_4

>  <geom_source>  (8) 
Heuristics

$$$$

     RDKit          3D

 28 27  0  0  0  0  0  0  0  0999 V2000
   -3.0034   -0.2958    1.5422 C   0  0  0  0  0  0  0  0  0  0  0  0
   -2.9179   -0.2512    0.0224 C   0  0  0  0  0  0  0  0  0  0  0  0
   -3.9254   -0.7773    1.8728 H   0  0  0  0  0  0  0  0  0  0  0  0
   -2.9836    0.7083    1.9694 H   0  0  0  0  0  0  0  0  0  0  0  0
   -2.1680   -0.8532    1.9694 H   0  0  0  0  0  0  0  0  0  0  0  0
   -3.7533    0.3063   -0.4048 H   0  0  0  0  0  0  0  0  0  0  0  0
   -2.9378   -1.2553   -0.4048 H   0  0  0  0  0  0  0  0  0  0  0  0
   -0.7027    0.9058   -2.3017 C   0  0  0  0  0  0  0  0  0  0  0  0
   -0.7027    0.9058   -0.7720 C   0  0  0  0  0  3  0  0  0  0  0  0
   -0.7027    2.3334   -0.2225 C   0  0  0  0  0  0  0  0  0  0  0  0
    0.4466    0.0930   -0.2138 C   0  0  0  0  0  0  0  0  0  0  0  0
    1.7697    0.4527   -0.4608 C   0  0  0  0  0  0  0  0  0  0  0  0
    2.8194   -0.2921    0.0505 C   0  0  0  0  0  0  0  0  0  0  0  0
    2.5663   -1.4169    0.8228 C   0  0  0  0  0  0  0  0  0  0  0  0
    1.2559   -1.7866    1.0767 C   0  0  0  0  0  0  0  0  0  0  0  0
    0.2086   -1.0360    0.5613 C   0  0  0  0  0  0  0  0  0  0  0  0
    0.1916    1.3961   -2.6933 H   0  0  0  0  0  0  0  0  0  0  0  0
   -0.7257   -0.1115   -2.6950 H   0  0  0  0  0  0  0  0  0  0  0  0
   -1.5722    1.4430   -2.6860 H   0  0  0  0  0  0  0  0  0  0  0  0
   -1.8116    0.3267   -0.3743 H   0  0  0  0  0  0  0  0  0  0  0  0
   -1.5722    2.8850   -0.5858 H   0  0  0  0  0  0  0  0  0  0  0  0
   -0.7257    2.3351    0.8682 H   0  0  0  0  0  0  0  0  0  0  0  0
    0.1916    2.8750   -0.5393 H   0  0  0  0  0  0  0  0  0  0  0  0
    1.9855    1.3284   -1.0621 H   0  0  0  0  0  0  0  0  0  0  0  0
    3.8402    0.0061   -0.1542 H   0  0  0  0  0  0  0  0  0  0  0  0
    3.3861   -1.9997    1.2230 H   0  0  0  0  0  0  0  0  0  0  0  0
    1.0451   -2.6623    1.6780 H   0  0  0  0  0  0  0  0  0  0  0  0
   -0.8140   -1.3333    0.7655 H   0  0  0  0  0  0  0  0  0  0  0  0
  1  2  1  0
  1  3  1  0
  1  4  1  0
  1  5  1  0
  2  6  1  0
  2  7  1  0
  2 20  1  0
  8  9  1  0
  8 17  1  0
  8 18  1  0
  8 19  1  0
  9 10  1  0
  9 11  1  0
 10 21  1  0
 10 22  1  0
 10 23  1  0
 11 12  2  0
 11 16  1  0
 12 13  1  0
 12 24  1  0
 13 14  2  0
 13 25  1  0
 14 15  1  0
 14 26  1  0
 15 16  2  0
 15 27  1  0
 16 28  1  0
M  RAD  1   9   2
M  END
>  <reaction>  (9) 
rxn_1523

>  <mol_properties>  (9) 
{"0": {"label": "*4", "atom_type": "Cs"}, "1": {"label": "*3", "atom_type": "Cs"}, "8": {"label": "*1", "atom_type": "Cs"}, "10": {"label": "*0", "atom_type": "Cd"}, "19": {"label": "*2", "atom_type": "H0"}}

>  <type>  (9) 
unop_5

>  <geom_source>  (9) 
Heuristics

$$$$

     RDKit          3D

 28 27  0  0  0  0  0  0  0  0999 V2000
   -3.9390    0.6546    0.3223 C   0  0  0  0  0  0  0  0  0  0  0  0
   -2.8155   -0.3596    0.1550 C   0  0  0  0  0  0  0  0  0  0  0  0
   -4.5452    0.4323    1.2022 H   0  0  0  0  0  0  0  0  0  0  0  0
   -4.6026    0.6567   -0.5442 H   0  0  0  0  0  0  0  0  0  0  0  0
   -3.5453    1.6658    0.4393 H   0  0  0  0  0  0  0  0  0  0  0  0
   -3.2092   -1.3708    0.0379 H   0  0  0  0  0  0  0  0  0  0  0  0
   -2.1518   -0.3617    1.0214 H   0  0  0  0  0  0  0  0  0  0  0  0
   -0.6002    0.7974   -2.1691 C   0  0  0  0  0  0  0  0  0  0  0  0
   -0.6002    0.7974   -0.6394 C   0  0  0  0  0  3  0  0  0  0  0  0
   -0.6002    2.2250   -0.0900 C   0  0  0  0  0  0  0  0  0  0  0  0
    0.5491   -0.0155   -0.0813 C   0  0  0  0  0  0  0  0  0  0  0  0
    1.8721    0.3443   -0.3283 C   0  0  0  0  0  0  0  0  0  0  0  0
    2.9218   -0.4005    0.1831 C   0  0  0  0  0  0  0  0  0  0  0  0
    2.6687   -1.5253    0.9554 C   0  0  0  0  0  0  0  0  0  0  0  0
    1.3583   -1.8950    1.2093 C   0  0  0  0  0  0  0  0  0  0  0  0
    0.3111   -1.1444    0.6938 C   0  0  0  0  0  0  0  0  0  0  0  0
    0.2940    1.2876   -2.5608 H   0  0  0  0  0  0  0  0  0  0  0  0
   -0.6233   -0.2199   -2.5625 H   0  0  0  0  0  0  0  0  0  0  0  0
   -1.4698    1.3346   -2.5534 H   0  0  0  0  0  0  0  0  0  0  0  0
   -1.7091    0.2182   -0.2418 H   0  0  0  0  0  0  0  0  0  0  0  0
   -1.4698    2.7766   -0.4533 H   0  0  0  0  0  0  0  0  0  0  0  0
   -0.6233    2.2267    1.0008 H   0  0  0  0  0  0  0  0  0  0  0  0
    0.2940    2.7666   -0.4068 H   0  0  0  0  0  0  0  0  0  0  0  0
    2.0880    1.2200   -0.9296 H   0  0  0  0  0  0  0  0  0  0  0  0
    3.9427   -0.1023   -0.0217 H   0  0  0  0  0  0  0  0  0  0  0  0
    3.4886   -2.1081    1.3556 H   0  0  0  0  0  0  0  0  0  0  0  0
    1.1476   -2.7708    1.8105 H   0  0  0  0  0  0  0  0  0  0  0  0
   -0.7116   -1.4417    0.8980 H   0  0  0  0  0  0  0  0  0  0  0  0
  1  2  1  0
  1  3  1  0
  1  4  1  0
  1  5  1  0
  2  6  1  0
  2  7  1  0
  2 20  1  0
  8  9  1  0
  8 17  1  0
  8 18  1  0
  8 19  1  0
  9 10  1  0
  9 11  1  0
 10 21  1  0
 10 22  1  0
 10 23  1  0
 11 12  2  0
 11 16  1  0
 12 13  1  0
 12 24  1  0
 13 14  2  0
 13 25  1  0
 14 15  1  0
 14 26  1  0
 15 16  2  0
 15 27  1  0
 16 28  1  0
M  RAD  1   9   2
M  END
>  <reaction>  (10) 
rxn_1523

>  <mol_properties>  (10) 
{"0": {"label": "*4", "atom_type": "Cs"}, "1": {"label": "*3", "atom_type": "Cs"}, "8": {"label": "*1", "atom_type": "Cs"}, "10": {"label": "*0", "atom_type": "Cd"}, "19": {"label": "*2", "atom_type": "H0"}}

>  <type>  (10) 
unop_6

>  <geom_source>  (10) 
Heuristics

$$$$

     RDKit          3D

 28 27  0  0  0  0  0  0  0  0999 V2000
   -3.6895    0.5946    0.9306 C   0  0  0  0  0  0  0  0  0  0  0  0
   -2.8446   -0.3506    0.0871 C   0  0  0  0  0  0  0  0  0  0  0  0
   -4.1466    0.0721    1.7729 H   0  0  0  0  0  0  0  0  0  0  0  0
   -4.4938    1.0389    0.3417 H   0  0  0  0  0  0  0  0  0  0  0  0
   -3.0871    1.4099    1.3352 H   0  0  0  0  0  0  0  0  0  0  0  0
   -3.4470   -1.1659   -0.3174 H   0  0  0  0  0  0  0  0  0  0  0  0
   -2.0402   -0.7949    0.6761 H   0  0  0  0  0  0  0  0  0  0  0  0
   -0.6293    0.8064   -2.2370 C   0  0  0  0  0  0  0  0  0  0  0  0
   -0.6293    0.8064   -0.7073 C   0  0  0  0  0  3  0  0  0  0  0  0
   -0.6293    2.2340   -0.1578 C   0  0  0  0  0  0  0  0  0  0  0  0
    0.5200   -0.0065   -0.1492 C   0  0  0  0  0  0  0  0  0  0  0  0
    1.8431    0.3533   -0.3962 C   0  0  0  0  0  0  0  0  0  0  0  0
    2.8927   -0.3915    0.1152 C   0  0  0  0  0  0  0  0  0  0  0  0
    2.6396   -1.5163    0.8875 C   0  0  0  0  0  0  0  0  0  0  0  0
    1.3293   -1.8861    1.1414 C   0  0  0  0  0  0  0  0  0  0  0  0
    0.2820   -1.1354    0.6260 C   0  0  0  0  0  0  0  0  0  0  0  0
    0.2650    1.2966   -2.6286 H   0  0  0  0  0  0  0  0  0  0  0  0
   -0.6524   -0.2110   -2.6304 H   0  0  0  0  0  0  0  0  0  0  0  0
   -1.4988    1.3436   -2.6213 H   0  0  0  0  0  0  0  0  0  0  0  0
   -1.7382    0.2272   -0.3096 H   0  0  0  0  0  0  0  0  0  0  0  0
   -1.4988    2.7856   -0.5212 H   0  0  0  0  0  0  0  0  0  0  0  0
   -0.6524    2.2357    0.9329 H   0  0  0  0  0  0  0  0  0  0  0  0
    0.2650    2.7756   -0.4747 H   0  0  0  0  0  0  0  0  0  0  0  0
    2.0589    1.2290   -0.9975 H   0  0  0  0  0  0  0  0  0  0  0  0
    3.9136   -0.0934   -0.0895 H   0  0  0  0  0  0  0  0  0  0  0  0
    3.4595   -2.0991    1.2877 H   0  0  0  0  0  0  0  0  0  0  0  0
    1.1185   -2.7618    1.7427 H   0  0  0  0  0  0  0  0  0  0  0  0
   -0.7406   -1.4327    0.8301 H   0  0  0  0  0  0  0  0  0  0  0  0
  1  2  1  0
  1  3  1  0
  1  4  1  0
  1  5  1  0
  2  6  1  0
  2  7  1  0
  2 20  1  0
  8  9  1  0
  8 17  1  0
  8 18  1  0
  8 19  1  0
  9 10  1  0
  9 11  1  0
 10 21  1  0
 10 22  1  0
 10 23  1  0
 11 12  2  0
 11 16  1  0
 12 13  1  0
 12 24  1  0
 13 14  2  0
 13 25  1  0
 14 15  1  0
 14 26  1  0
 15 16  2  0
 15 27  1  0
 16 28  1  0
M  RAD  1   9   2
M  END
>  <reaction>  (11) 
rxn_1523

>  <mol_properties>  (11) 
{"0": {"label": "*4", "atom_type": "Cs"}, "1": {"label": "*3", "atom_type": "Cs"}, "8": {"label": "*1", "atom_type": "Cs"}, "10": {"label": "*0", "atom_type": "Cd"}, "19": {"label": "*2", "atom_type": "H0"}}

>  <type>  (11) 
unop_7

>  <geom_source>  (11) 
Heuristics

$$$$

     RDKit          3D

 28 27  0  0  0  0  0  0  0  0999 V2000
   -2.7580   -1.6067    0.3223 C   0  0  0  0  0  0  0  0  0  0  0  0
   -2.9484   -0.1051    0.1550 C   0  0  0  0  0  0  0  0  0  0  0  0
   -3.2868   -1.9772    1.2022 H   0  0  0  0  0  0  0  0  0  0  0  0
   -1.7031   -1.8613    0.4393 H   0  0  0  0  0  0  0  0  0  0  0  0
   -3.1354   -2.1525   -0.5442 H   0  0  0  0  0  0  0  0  0  0  0  0
   -2.5709    0.4407    1.0214 H   0  0  0  0  0  0  0  0  0  0  0  0
   -4.0032    0.1495    0.0379 H   0  0  0  0  0  0  0  0  0  0  0  0
   -0.7331    1.0518   -2.1691 C   0  0  0  0  0  0  0  0  0  0  0  0
   -0.7331    1.0518   -0.6394 C   0  0  0  0  0  3  0  0  0  0  0  0
   -0.7331    2.4794   -0.0900 C   0  0  0  0  0  0  0  0  0  0  0  0
    0.4162    0.2390   -0.0813 C   0  0  0  0  0  0  0  0  0  0  0  0
    1.7393    0.5987   -0.3283 C   0  0  0  0  0  0  0  0  0  0  0  0
    2.7889   -0.1460    0.1831 C   0  0  0  0  0  0  0  0  0  0  0  0
    2.5358   -1.2708    0.9554 C   0  0  0  0  0  0  0  0  0  0  0  0
    1.2254   -1.6406    1.2093 C   0  0  0  0  0  0  0  0  0  0  0  0
    0.1782   -0.8900    0.6938 C   0  0  0  0  0  0  0  0  0  0  0  0
    0.1612    1.5421   -2.5608 H   0  0  0  0  0  0  0  0  0  0  0  0
   -0.7562    0.0345   -2.5625 H   0  0  0  0  0  0  0  0  0  0  0  0
   -1.6027    1.5891   -2.5534 H   0  0  0  0  0  0  0  0  0  0  0  0
   -1.8420    0.4727   -0.2418 H   0  0  0  0  0  0  0  0  0  0  0  0
   -1.6027    3.0311   -0.4533 H   0  0  0  0  0  0  0  0  0  0  0  0
   -0.7562    2.4811    1.0008 H   0  0  0  0  0  0  0  0  0  0  0  0
    0.1611    3.0210   -0.4068 H   0  0  0  0  0  0  0  0  0  0  0  0
    1.9551    1.4745   -0.9296 H   0  0  0  0  0  0  0  0  0  0  0  0
    3.8098    0.1521   -0.0217 H   0  0  0  0  0  0  0  0  0  0  0  0
    3.3557   -1.8537    1.3556 H   0  0  0  0  0  0  0  0  0  0  0  0
    1.0147   -2.5163    1.8105 H   0  0  0  0  0  0  0  0  0  0  0  0
   -0.8444   -1.1873    0.8980 H   0  0  0  0  0  0  0  0  0  0  0  0
  1  2  1  0
  1  3  1  0
  1  4  1  0
  1  5  1  0
  2  6  1  0
  2  7  1  0
  2 20  1  0
  8  9  1  0
  8 17  1  0
  8 18  1  0
  8 19  1  0
  9 10  1  0
  9 11  1  0
 10 21  1  0
 10 22  1  0
 10 23  1  0
 11 12  2  0
 11 16  1  0
 12 13  1  0
 12 24  1  0
 13 14  2  0
 13 25  1  0
 14 15  1  0
 14 26  1  0
 15 16  2  0
 15 27  1  0
 16 28  1  0
M  RAD  1   9   2
M  END
>  <reaction>  (12) 
rxn_1523

>  <mol_properties>  (12) 
{"0": {"label": "*4", "atom_type": "Cs"}, "1": {"label": "*3", "atom_type": "Cs"}, "8": {"label": "*1", "atom_type": "Cs"}, "10": {"label": "*0", "atom_type": "Cd"}, "19": {"label": "*2", "atom_type": "H0"}}

>  <type>  (12) 
unop_8

>  <geom_source>  (12) 
Heuristics

$$$$

     RDKit          3D

 28 27  0  0  0  0  0  0  0  0999 V2000
   -3.9379   -0.0661   -0.7281 C   0  0  0  0  0  0  0  0  0  0  0  0
   -2.8128   -0.2791    0.2759 C   0  0  0  0  0  0  0  0  0  0  0  0
   -4.9129   -0.2573   -0.2764 H   0  0  0  0  0  0  0  0  0  0  0  0
   -3.8346   -0.7332   -1.5857 H   0  0  0  0  0  0  0  0  0  0  0  0
   -3.9435    0.9581   -1.1050 H   0  0  0  0  0  0  0  0  0  0  0  0
   -2.8072   -1.3033    0.6528 H   0  0  0  0  0  0  0  0  0  0  0  0
   -2.9161    0.3880    1.1335 H   0  0  0  0  0  0  0  0  0  0  0  0
   -0.5976    0.8779   -2.0482 C   0  0  0  0  0  0  0  0  0  0  0  0
   -0.5976    0.8779   -0.5185 C   0  0  0  0  0  3  0  0  0  0  0  0
   -0.5976    2.3055    0.0309 C   0  0  0  0  0  0  0  0  0  0  0  0
    0.5517    0.0650    0.0396 C   0  0  0  0  0  0  0  0  0  0  0  0
    1.8748    0.4248   -0.2074 C   0  0  0  0  0  0  0  0  0  0  0  0
    2.9244   -0.3200    0.3039 C   0  0  0  0  0  0  0  0  0  0  0  0
    2.6713   -1.4448    1.0762 C   0  0  0  0  0  0  0  0  0  0  0  0
    1.3610   -1.8145    1.3301 C   0  0  0  0  0  0  0  0  0  0  0  0
    0.3137   -1.0639    0.8147 C   0  0  0  0  0  0  0  0  0  0  0  0
    0.2967    1.3681   -2.4399 H   0  0  0  0  0  0  0  0  0  0  0  0
   -0.6206   -0.1394   -2.4416 H   0  0  0  0  0  0  0  0  0  0  0  0
   -1.4671    1.4151   -2.4325 H   0  0  0  0  0  0  0  0  0  0  0  0
   -1.7065    0.2988   -0.1209 H   0  0  0  0  0  0  0  0  0  0  0  0
   -1.4671    2.8571   -0.3324 H   0  0  0  0  0  0  0  0  0  0  0  0
   -0.6206    2.3072    1.1217 H   0  0  0  0  0  0  0  0  0  0  0  0
    0.2967    2.8471   -0.2859 H   0  0  0  0  0  0  0  0  0  0  0  0
    2.0906    1.3005   -0.8087 H   0  0  0  0  0  0  0  0  0  0  0  0
    3.9453   -0.0218    0.0992 H   0  0  0  0  0  0  0  0  0  0  0  0
    3.4912   -2.0276    1.4764 H   0  0  0  0  0  0  0  0  0  0  0  0
    1.1502   -2.6902    1.9314 H   0  0  0  0  0  0  0  0  0  0  0  0
   -0.7089   -1.3612    1.0189 H   0  0  0  0  0  0  0  0  0  0  0  0
  1  2  1  0
  1  3  1  0
  1  4  1  0
  1  5  1  0
  2  6  1  0
  2  7  1  0
  2 20  1  0
  8  9  1  0
  8 17  1  0
  8 18  1  0
  8 19  1  0
  9 10  1  0
  9 11  1  0
 10 21  1  0
 10 22  1  0
 10 23  1  0
 11 12  2  0
 11 16  1  0
 12 13  1  0
 12 24  1  0
 13 14  2  0
 13 25  1  0
 14 15  1  0
 14 26  1  0
 15 16  2  0
 15 27  1  0
 16 28  1  0
M  RAD  1   9   2
M  END
>  <reaction>  (13) 
rxn_1523

>  <mol_properties>  (13) 
{"0": {"label": "*4", "atom_type": "Cs"}, "1": {"label": "*3", "atom_type": "Cs"}, "8": {"label": "*1", "atom_type": "Cs"}, "10": {"label": "*0", "atom_type": "Cd"}, "19": {"label": "*2", "atom_type": "H0"}}

>  <type>  (13) 
unop_9

>  <geom_source>  (13) 
Heuristics

$$$$

     RDKit          3D

 28 27  0  0  0  0  0  0  0  0999 V2000
   -3.0084   -1.5428   -0.2846 C   0  0  0  0  0  0  0  0  0  0  0  0
   -2.9202   -0.1103    0.2243 C   0  0  0  0  0  0  0  0  0  0  0  0
   -3.5481   -2.1800    0.4181 H   0  0  0  0  0  0  0  0  0  0  0  0
   -2.0159   -1.9742   -0.4266 H   0  0  0  0  0  0  0  0  0  0  0  0
   -3.5298   -1.5913   -1.2422 H   0  0  0  0  0  0  0  0  0  0  0  0
   -2.3988   -0.0618    1.1819 H   0  0  0  0  0  0  0  0  0  0  0  0
   -3.9127    0.3211    0.3663 H   0  0  0  0  0  0  0  0  0  0  0  0
   -0.7050    1.0467   -2.0998 C   0  0  0  0  0  0  0  0  0  0  0  0
   -0.7050    1.0467   -0.5701 C   0  0  0  0  0  3  0  0  0  0  0  0
   -0.7050    2.4743   -0.0206 C   0  0  0  0  0  0  0  0  0  0  0  0
    0.4443    0.2338   -0.0120 C   0  0  0  0  0  0  0  0  0  0  0  0
    1.7674    0.5936   -0.2590 C   0  0  0  0  0  0  0  0  0  0  0  0
    2.8170   -0.1512    0.2524 C   0  0  0  0  0  0  0  0  0  0  0  0
    2.5639   -1.2760    1.0247 C   0  0  0  0  0  0  0  0  0  0  0  0
    1.2536   -1.6457    1.2786 C   0  0  0  0  0  0  0  0  0  0  0  0
    0.2063   -0.8951    0.7632 C   0  0  0  0  0  0  0  0  0  0  0  0
    0.1893    1.5369   -2.4914 H   0  0  0  0  0  0  0  0  0  0  0  0
   -0.7280    0.0294   -2.4932 H   0  0  0  0  0  0  0  0  0  0  0  0
   -1.5745    1.5839   -2.4841 H   0  0  0  0  0  0  0  0  0  0  0  0
   -1.8139    0.4675   -0.1725 H   0  0  0  0  0  0  0  0  0  0  0  0
   -1.5745    3.0259   -0.3840 H   0  0  0  0  0  0  0  0  0  0  0  0
   -0.7280    2.4760    1.0701 H   0  0  0  0  0  0  0  0  0  0  0  0
    0.1893    3.0159   -0.3375 H   0  0  0  0  0  0  0  0  0  0  0  0
    1.9832    1.4693   -0.8603 H   0  0  0  0  0  0  0  0  0  0  0  0
    3.8379    0.1469    0.0477 H   0  0  0  0  0  0  0  0  0  0  0  0
    3.3838   -1.8588    1.4249 H   0  0  0  0  0  0  0  0  0  0  0  0
    1.0428   -2.5215    1.8799 H   0  0  0  0  0  0  0  0  0  0  0  0
   -0.8163   -1.1924    0.9673 H   0  0  0  0  0  0  0  0  0  0  0  0
  1  2  1  0
  1  3  1  0
  1  4  1  0
  1  5  1  0
  2  6  1  0
  2  7  1  0
  2 20  1  0
  8  9  1  0
  8 17  1  0
  8 18  1  0
  8 19  1  0
  9 10  1  0
  9 11  1  0
 10 21  1  0
 10 22  1  0
 10 23  1  0
 11 12  2  0
 11 16  1  0
 12 13  1  0
 12 24  1  0
 13 14  2  0
 13 25  1  0
 14 15  1  0
 14 26  1  0
 15 16  2  0
 15 27  1  0
 16 28  1  0
M  RAD  1   9   2
M  END
>  <reaction>  (14) 
rxn_1523

>  <mol_properties>  (14) 
{"0": {"label": "*4", "atom_type": "Cs"}, "1": {"label": "*3", "atom_type": "Cs"}, "8": {"label": "*1", "atom_type": "Cs"}, "10": {"label": "*0", "atom_type": "Cd"}, "19": {"label": "*2", "atom_type": "H0"}}

>  <type>  (14) 
unop_10

>  <geom_source>  (14) 
Heuristics

$$$$

     RDKit          3D

 28 27  0  0  0  0  0  0  0  0999 V2000
   -3.3472    0.2476    1.3776 C   0  0  0  0  0  0  0  0  0  0  0  0
   -2.8821   -0.3100    0.0391 C   0  0  0  0  0  0  0  0  0  0  0  0
   -3.9066   -0.4987    1.9445 H   0  0  0  0  0  0  0  0  0  0  0  0
   -3.9966    1.1141    1.2414 H   0  0  0  0  0  0  0  0  0  0  0  0
   -2.5009    0.5622    1.9909 H   0  0  0  0  0  0  0  0  0  0  0  0
   -3.7284   -0.6247   -0.5742 H   0  0  0  0  0  0  0  0  0  0  0  0
   -2.2327   -1.1765    0.1754 H   0  0  0  0  0  0  0  0  0  0  0  0
   -0.6669    0.8469   -2.2850 C   0  0  0  0  0  0  0  0  0  0  0  0
   -0.6669    0.8469   -0.7553 C   0  0  0  0  0  3  0  0  0  0  0  0
   -0.6669    2.2745   -0.2058 C   0  0  0  0  0  0  0  0  0  0  0  0
    0.4824    0.0341   -0.1972 C   0  0  0  0  0  0  0  0  0  0  0  0
    1.8055    0.3938   -0.4442 C   0  0  0  0  0  0  0  0  0  0  0  0
    2.8551   -0.3509    0.0672 C   0  0  0  0  0  0  0  0  0  0  0  0
    2.6020   -1.4757    0.8395 C   0  0  0  0  0  0  0  0  0  0  0  0
    1.2917   -1.8455    1.0934 C   0  0  0  0  0  0  0  0  0  0  0  0
    0.2444   -1.0949    0.5780 C   0  0  0  0  0  0  0  0  0  0  0  0
    0.2274    1.3372   -2.6766 H   0  0  0  0  0  0  0  0  0  0  0  0
   -0.6899   -0.1704   -2.6784 H   0  0  0  0  0  0  0  0  0  0  0  0
   -1.5364    1.3842   -2.6693 H   0  0  0  0  0  0  0  0  0  0  0  0
   -1.7758    0.2678   -0.3576 H   0  0  0  0  0  0  0  0  0  0  0  0
   -1.5364    2.8262   -0.5692 H   0  0  0  0  0  0  0  0  0  0  0  0
   -0.6899    2.2762    0.8849 H   0  0  0  0  0  0  0  0  0  0  0  0
    0.2274    2.8161   -0.5227 H   0  0  0  0  0  0  0  0  0  0  0  0
    2.0213    1.2696   -1.0455 H   0  0  0  0  0  0  0  0  0  0  0  0
    3.8760   -0.0528   -0.1375 H   0  0  0  0  0  0  0  0  0  0  0  0
    3.4219   -2.0586    1.2397 H   0  0  0  0  0  0  0  0  0  0  0  0
    1.0809   -2.7212    1.6947 H   0  0  0  0  0  0  0  0  0  0  0  0
   -0.7782   -1.3922    0.7821 H   0  0  0  0  0  0  0  0  0  0  0  0
  1  2  1  0
  1  3  1  0
  1  4  1  0
  1  5  1  0
  2  6  1  0
  2  7  1  0
  2 20  1  0
  8  9  1  0
  8 17  1  0
  8 18  1  0
  8 19  1  0
  9 10  1  0
  9 11  1  0
 10 21  1  0
 10 22  1  0
 10 23  1  0
 11 12  2  0
 11 16  1  0
 12 13  1  0
 12 24  1  0
 13 14  2  0
 13 25  1  0
 14 15  1  0
 14 26  1  0
 15 16  2  0
 15 27  1  0
 16 28  1  0
M  RAD  1   9   2
M  END
>  <reaction>  (15) 
rxn_1523

>  <mol_properties>  (15) 
{"0": {"label": "*4", "atom_type": "Cs"}, "1": {"label": "*3", "atom_type": "Cs"}, "8": {"label": "*1", "atom_type": "Cs"}, "10": {"label": "*0", "atom_type": "Cd"}, "19": {"label": "*2", "atom_type": "H0"}}

>  <type>  (15) 
unop_11

>  <geom_source>  (15) 
Heuristics

$$$$

     RDKit          3D

 28 27  0  0  0  0  0  0  0  0999 V2000
   -3.6887   -0.6537   -0.8902 C   0  0  0  0  0  0  0  0  0  0  0  0
   -2.8411   -0.2111    0.2949 C   0  0  0  0  0  0  0  0  0  0  0  0
   -4.6107   -1.1353   -0.5596 H   0  0  0  0  0  0  0  0  0  0  0  0
   -3.1505   -1.3664   -1.5176 H   0  0  0  0  0  0  0  0  0  0  0  0
   -3.9660    0.1952   -1.5176 H   0  0  0  0  0  0  0  0  0  0  0  0
   -2.5639   -1.0600    0.9223 H   0  0  0  0  0  0  0  0  0  0  0  0
   -3.3794    0.5016    0.9223 H   0  0  0  0  0  0  0  0  0  0  0  0
   -0.6259    0.9459   -2.0292 C   0  0  0  0  0  0  0  0  0  0  0  0
   -0.6259    0.9459   -0.4995 C   0  0  0  0  0  3  0  0  0  0  0  0
   -0.6259    2.3735    0.0500 C   0  0  0  0  0  0  0  0  0  0  0  0
    0.5234    0.1331    0.0586 C   0  0  0  0  0  0  0  0  0  0  0  0
    1.8465    0.4928   -0.1884 C   0  0  0  0  0  0  0  0  0  0  0  0
    2.8961   -0.2520    0.3230 C   0  0  0  0  0  0  0  0  0  0  0  0
    2.6430   -1.3768    1.0953 C   0  0  0  0  0  0  0  0  0  0  0  0
    1.3327   -1.7465    1.3492 C   0  0  0  0  0  0  0  0  0  0  0  0
    0.2854   -0.9959    0.8338 C   0  0  0  0  0  0  0  0  0  0  0  0
    0.2684    1.4361   -2.4208 H   0  0  0  0  0  0  0  0  0  0  0  0
   -0.6490   -0.0714   -2.4225 H   0  0  0  0  0  0  0  0  0  0  0  0
   -1.4954    1.4831   -2.4135 H   0  0  0  0  0  0  0  0  0  0  0  0
   -1.7348    0.3668   -0.1018 H   0  0  0  0  0  0  0  0  0  0  0  0
   -1.4954    2.9251   -0.3133 H   0  0  0  0  0  0  0  0  0  0  0  0
   -0.6490    2.3752    1.1407 H   0  0  0  0  0  0  0  0  0  0  0  0
    0.2684    2.9151   -0.2668 H   0  0  0  0  0  0  0  0  0  0  0  0
    2.0623    1.3685   -0.7897 H   0  0  0  0  0  0  0  0  0  0  0  0
    3.9170    0.0462    0.1183 H   0  0  0  0  0  0  0  0  0  0  0  0
    3.4629   -1.9596    1.4955 H   0  0  0  0  0  0  0  0  0  0  0  0
    1.1219   -2.6222    1.9505 H   0  0  0  0  0  0  0  0  0  0  0  0
   -0.7372   -1.2932    1.0379 H   0  0  0  0  0  0  0  0  0  0  0  0
  1  2  1  0
  1  3  1  0
  1  4  1  0
  1  5  1  0
  2  6  1  0
  2  7  1  0
  2 20  1  0
  8  9  1  0
  8 17  1  0
  8 18  1  0
  8 19  1  0
  9 10  1  0
  9 11  1  0
 10 21  1  0
 10 22  1  0
 10 23  1  0
 11 12  2  0
 11 16  1  0
 12 13  1  0
 12 24  1  0
 13 14  2  0
 13 25  1  0
 14 15  1  0
 14 26  1  0
 15 16  2  0
 15 27  1  0
 16 28  1  0
M  RAD  1   9   2
M  END
>  <reaction>  (16) 
rxn_1523

>  <mol_properties>  (16) 
{"0": {"label": "*4", "atom_type": "Cs"}, "1": {"label": "*3", "atom_type": "Cs"}, "8": {"label": "*1", "atom_type": "Cs"}, "10": {"label": "*0", "atom_type": "Cd"}, "19": {"label": "*2", "atom_type": "H0"}}

>  <type>  (16) 
unop_12

>  <geom_source>  (16) 
Heuristics

$$$$

     RDKit          3D

 28 27  0  0  0  0  0  0  0  0999 V2000
    3.2770    0.6416   -0.4453 C   0  0  0  0  0  0  0  0  0  0  0  0
    1.8202    0.3689   -0.7754 C   0  0  0  0  0  0  0  0  0  0  0  0
   -0.2979   -2.1173    1.5263 C   0  0  0  0  0  0  0  0  0  0  0  0
    0.7846    0.1639    1.8139 C   0  0  0  0  0  0  0  0  0  0  0  0
    0.1738   -0.8382    0.8331 C   0  0  0  0  0  3  0  0  0  0  0  0
   -0.9034   -0.2197   -0.0182 C   0  0  0  0  0  0  0  0  0  0  0  0
   -0.7103   -0.1366   -1.4044 C   0  0  0  0  0  0  0  0  0  0  0  0
   -2.0943    0.2745    0.5444 C   0  0  0  0  0  0  0  0  0  0  0  0
   -1.6935    0.4327   -2.2199 C   0  0  0  0  0  0  0  0  0  0  0  0
   -2.8749    0.9222   -1.6554 C   0  0  0  0  0  0  0  0  0  0  0  0
   -3.0750    0.8431   -0.2744 C   0  0  0  0  0  0  0  0  0  0  0  0
    3.7836   -0.3081   -0.1739 H   0  0  0  0  0  0  0  0  0  0  0  0
    3.7859    1.0886   -1.3252 H   0  0  0  0  0  0  0  0  0  0  0  0
    3.3416    1.3457    0.4106 H   0  0  0  0  0  0  0  0  0  0  0  0
    1.3108    1.3179   -1.0454 H   0  0  0  0  0  0  0  0  0  0  0  0
    1.7531   -0.3368   -1.6301 H   0  0  0  0  0  0  0  0  0  0  0  0
    1.2403   -0.1442    0.2379 H   0  0  0  0  0  0  0  0  0  0  0  0
    0.5587   -2.6048    2.0373 H   0  0  0  0  0  0  0  0  0  0  0  0
   -1.0851   -1.8934    2.2774 H   0  0  0  0  0  0  0  0  0  0  0  0
   -0.7035   -2.8268    0.7744 H   0  0  0  0  0  0  0  0  0  0  0  0
    0.0395    0.4764    2.5761 H   0  0  0  0  0  0  0  0  0  0  0  0
    1.1413    1.0606    1.2643 H   0  0  0  0  0  0  0  0  0  0  0  0
    1.6539   -0.2970    2.3281 H   0  0  0  0  0  0  0  0  0  0  0  0
    0.2012   -0.5127   -1.8527 H   0  0  0  0  0  0  0  0  0  0  0  0
   -1.5396    0.4945   -3.2894 H   0  0  0  0  0  0  0  0  0  0  0  0
   -2.2632    0.2201    1.6123 H   0  0  0  0  0  0  0  0  0  0  0  0
   -3.6348    1.3625   -2.2879 H   0  0  0  0  0  0  0  0  0  0  0  0
   -3.9901    1.2224    0.1616 H   0  0  0  0  0  0  0  0  0  0  0  0
  1  2  1  0
  1 12  1  0
  1 13  1  0
  1 14  1  0
  2 15  1  0
  2 16  1  0
  2 17  1  0
  3  5  1  0
  3 18  1  0
  3 19  1  0
  3 20  1  0
  4  5  1  0
  4 21  1  0
  4 22  1  0
  4 23  1  0
  5  6  1  0
  6  7  2  0
  6  8  1  0
  7  9  1  0
  7 24  1  0
  8 11  2  0
  8 26  1  0
  9 10  2  0
  9 25  1  0
 10 11  1  0
 10 27  1  0
 11 28  1  0
M  RAD  1   5   2
M  END
>  <reaction>  (17) 
rxn_1523

>  <mol_properties>  (17) 
{"0": {"label": "*4", "atom_type": "Cs"}, "1": {"label": "*3", "atom_type": "Cs"}, "8": {"label": "*1", "atom_type": "Cs"}, "10": {"label": "*0", "atom_type": "Cd"}, "19": {"label": "*2", "atom_type": "H0"}}

>  <type>  (17) 
unop_13

>  <geom_source>  (17) 
AutoTST

$$$$

     RDKit          3D

 28 27  0  0  0  0  0  0  0  0999 V2000
   -3.3489   -1.1939   -0.7281 C   0  0  0  0  0  0  0  0  0  0  0  0
   -2.8808   -0.1490    0.2759 C   0  0  0  0  0  0  0  0  0  0  0  0
   -4.0628   -1.8849   -0.2764 H   0  0  0  0  0  0  0  0  0  0  0  0
   -2.5114   -1.7838   -1.1050 H   0  0  0  0  0  0  0  0  0  0  0  0
   -3.8373   -0.7280   -1.5857 H   0  0  0  0  0  0  0  0  0  0  0  0
   -2.3923   -0.6149    1.1335 H   0  0  0  0  0  0  0  0  0  0  0  0
   -3.7182    0.4409    0.6528 H   0  0  0  0  0  0  0  0  0  0  0  0
   -0.6655    1.0080   -2.0482 C   0  0  0  0  0  0  0  0  0  0  0  0
   -0.6655    1.0080   -0.5185 C   0  0  0  0  0  3  0  0  0  0  0  0
   -0.6655    2.4356    0.0309 C   0  0  0  0  0  0  0  0  0  0  0  0
    0.4838    0.1951    0.0396 C   0  0  0  0  0  0  0  0  0  0  0  0
    1.8068    0.5549   -0.2074 C   0  0  0  0  0  0  0  0  0  0  0  0
    2.8565   -0.1899    0.3039 C   0  0  0  0  0  0  0  0  0  0  0  0
    2.6034   -1.3147    1.0762 C   0  0  0  0  0  0  0  0  0  0  0  0
    1.2930   -1.6844    1.3301 C   0  0  0  0  0  0  0  0  0  0  0  0
    0.2458   -0.9338    0.8147 C   0  0  0  0  0  0  0  0  0  0  0  0
    0.2287    1.4982   -2.4399 H   0  0  0  0  0  0  0  0  0  0  0  0
   -0.6886   -0.0093   -2.4416 H   0  0  0  0  0  0  0  0  0  0  0  0
   -1.5351    1.5452   -2.4325 H   0  0  0  0  0  0  0  0  0  0  0  0
   -1.7744    0.4289   -0.1209 H   0  0  0  0  0  0  0  0  0  0  0  0
   -1.5351    2.9872   -0.3324 H   0  0  0  0  0  0  0  0  0  0  0  0
   -0.6886    2.4373    1.1217 H   0  0  0  0  0  0  0  0  0  0  0  0
    0.2287    2.9772   -0.2859 H   0  0  0  0  0  0  0  0  0  0  0  0
    2.0227    1.4306   -0.8087 H   0  0  0  0  0  0  0  0  0  0  0  0
    3.8773    0.1083    0.0992 H   0  0  0  0  0  0  0  0  0  0  0  0
    3.4233   -1.8975    1.4765 H   0  0  0  0  0  0  0  0  0  0  0  0
    1.0823   -2.5602    1.9314 H   0  0  0  0  0  0  0  0  0  0  0  0
   -0.7769   -1.2311    1.0189 H   0  0  0  0  0  0  0  0  0  0  0  0
  1  2  1  0
  1  3  1  0
  1  4  1  0
  1  5  1  0
  2  6  1  0
  2  7  1  0
  2 20  1  0
  8  9  1  0
  8 17  1  0
  8 18  1  0
  8 19  1  0
  9 10  1  0
  9 11  1  0
 10 21  1  0
 10 22  1  0
 10 23  1  0
 11 12  2  0
 11 16  1  0
 12 13  1  0
 12 24  1  0
 13 14  2  0
 13 25  1  0
 14 15  1  0
 14 26  1  0
 15 16  2  0
 15 27  1  0
 16 28  1  0
M  RAD  1   9   2
M  END
>  <reaction>  (18) 
rxn_1523

>  <mol_properties>  (18) 
{"0": {"label": "*4", "atom_type": "Cs"}, "1": {"label": "*3", "atom_type": "Cs"}, "8": {"label": "*1", "atom_type": "Cs"}, "10": {"label": "*0", "atom_type": "Cd"}, "19": {"label": "*2", "atom_type": "H0"}}

>  <type>  (18) 
unop_14

>  <geom_source>  (18) 
gaussian_log

$$$$
