
     RDKit          3D

 12 11  0  0  0  0  0  0  0  0999 V2000
    2.1696    0.6854    1.1310 C   0  0  0  0  0  0  0  0  0  0  0  0
    1.2518    0.4145    0.4134 C   0  0  0  0  0  0  0  0  0  0  0  0
    0.1391    0.0443   -0.4683 C   0  0  0  0  0  0  0  0  0  0  0  0
   -0.2054   -1.4492   -0.3339 C   0  0  0  0  0  0  0  0  0  0  0  0
   -1.0375    0.8853   -0.2222 C   0  0  0  0  0  0  0  0  0  0  0  0
   -2.0160    1.5463   -0.0311 C   0  0  0  0  0  0  0  0  0  0  0  0
    2.9819    0.9356    1.7702 H   0  0  0  0  0  0  0  0  0  0  0  0
    0.4629    0.2285   -1.4981 H   0  0  0  0  0  0  0  0  0  0  0  0
   -0.5327   -1.6703    0.6812 H   0  0  0  0  0  0  0  0  0  0  0  0
    0.6727   -2.0535   -0.5593 H   0  0  0  0  0  0  0  0  0  0  0  0
   -1.0064   -1.7081   -1.0256 H   0  0  0  0  0  0  0  0  0  0  0  0
   -2.8802    2.1413    0.1426 H   0  0  0  0  0  0  0  0  0  0  0  0
  1  2  3  0
  1  7  1  0
  2  3  1  0
  3  4  1  0
  3  5  1  0
  3  8  1  0
  4  9  1  0
  4 10  1  0
  4 11  1  0
  5  6  3  0
  6 12  1  0
M  END
>  <reaction>  (1) 
rxn_1416

>  <mol_properties>  (1) 
{"2": {"label": "donator", "atom_type": "Cs"}, "7": {"label": "d_hydrogen", "atom_type": "H0"}}

>  <type>  (1) 
r1h

$$$$

     RDKit          3D

 12 11  0  0  0  0  0  0  0  0999 V2000
    2.7049    0.9350   -0.4404 S   0  0  0  0  0  1  0  0  0  0  0  0
    1.0313    1.0813   -0.4080 C   0  0  0  0  0  0  0  0  0  0  0  0
    0.1364    0.1019   -0.0473 C   0  0  0  0  0  0  0  0  0  0  0  0
    0.5360   -1.2679    0.3784 C   0  0  0  0  0  0  0  0  0  0  0  0
   -1.3304    0.3842   -0.0689 C   0  0  0  0  0  0  0  0  0  0  0  0
    0.6069    2.0398   -0.6990 H   0  0  0  0  0  0  0  0  0  0  0  0
    0.1578   -1.4699    1.3849 H   0  0  0  0  0  0  0  0  0  0  0  0
    0.0783   -2.0109   -0.2814 H   0  0  0  0  0  0  0  0  0  0  0  0
    1.6154   -1.3973    0.3689 H   0  0  0  0  0  0  0  0  0  0  0  0
   -1.8406   -0.3126   -0.7406 H   0  0  0  0  0  0  0  0  0  0  0  0
   -1.5514    1.4016   -0.3887 H   0  0  0  0  0  0  0  0  0  0  0  0
   -1.7610    0.2281    0.9247 H   0  0  0  0  0  0  0  0  0  0  0  0
  1  2  1  0
  2  3  2  3
  2  6  1  0
  3  4  1  0
  3  5  1  0
  4  7  1  0
  4  8  1  0
  4  9  1  0
  5 10  1  0
  5 11  1  0
  5 12  1  0
M  RAD  1   1   2
M  END
>  <reaction>  (2) 
rxn_1416

>  <mol_properties>  (2) 
{"2": {"label": "acceptor", "atom_type": "Cs"}}

>  <type>  (2) 
r2

$$$$

     RDKit          3D

 13 12  0  0  0  0  0  0  0  0999 V2000
    2.7452   -1.1134   -0.3601 S   0  0  0  0  0  0  0  0  0  0  0  0
    1.4120   -0.4899    0.2856 C   0  0  0  0  0  0  0  0  0  0  0  0
    0.1714   -0.0257   -0.4180 C   0  0  0  0  0  0  0  0  0  0  0  0
   -0.0717    1.4493   -0.0658 C   0  0  0  0  0  0  0  0  0  0  0  0
    0.1609   -0.2576   -1.9191 C   0  0  0  0  0  0  0  0  0  0  0  0
    1.3665   -0.3550    1.3690 H   0  0  0  0  0  0  0  0  0  0  0  0
   -0.6453   -0.6023    0.0382 H   0  0  0  0  0  0  0  0  0  0  0  0
    0.7161    2.0755   -0.4895 H   0  0  0  0  0  0  0  0  0  0  0  0
   -0.0915    1.6095    1.0136 H   0  0  0  0  0  0  0  0  0  0  0  0
   -1.0268    1.7797   -0.4755 H   0  0  0  0  0  0  0  0  0  0  0  0
    0.3131   -1.3093   -2.1616 H   0  0  0  0  0  0  0  0  0  0  0  0
    0.9567    0.3095   -2.4051 H   0  0  0  0  0  0  0  0  0  0  0  0
   -0.7945    0.0619   -2.3384 H   0  0  0  0  0  0  0  0  0  0  0  0
  1  2  2  0
  2  3  1  0
  2  6  1  0
  3  4  1  0
  3  5  1  0
  3  7  1  0
  4  8  1  0
  4  9  1  0
  4 10  1  0
  5 11  1  0
  5 12  1  0
  5 13  1  0
M  END
>  <reaction>  (3) 
rxn_1416

>  <mol_properties>  (3) 
{"0": {"label": "a_hydrogen", "atom_type": "H0"}, "3": {"label": "acceptor", "atom_type": "Cs"}}

>  <type>  (3) 
r2h

$$$$

     RDKit          3D

 24 22  0  0  0  0  0  0  0  0999 V2000
   -1.4036   -1.0040   -2.4174 C   0  0  0  0  0  0  0  0  0  0  0  0
   -1.5650   -0.5562   -1.3152 C   0  0  0  0  0  0  0  0  0  0  0  0
   -1.6602    0.0175   -0.0088 C   0  0  0  0  0  3  0  0  0  0  0  0
   -1.9633    1.5034    0.0534 C   0  0  0  0  0  0  0  0  0  0  0  0
   -2.2572   -0.8003    0.9996 C   0  0  0  0  0  0  0  0  0  0  0  0
   -2.7211   -1.4656    1.8858 C   0  0  0  0  0  0  0  0  0  0  0  0
   -1.2903   -1.4045   -3.3963 H   0  0  0  0  0  0  0  0  0  0  0  0
   -0.3086    0.0247    0.3419 H   0  0  0  0  0  0  0  0  0  0  0  0
   -2.9822    1.6964   -0.2881 H   0  0  0  0  0  0  0  0  0  0  0  0
   -1.2717    2.0523   -0.5853 H   0  0  0  0  0  0  0  0  0  0  0  0
   -1.8649    1.8630    1.0767 H   0  0  0  0  0  0  0  0  0  0  0  0
   -3.1492   -2.0594    2.6575 H   0  0  0  0  0  0  0  0  0  0  0  0
    1.9602    2.2688   -0.3627 S   0  0  0  0  0  0  0  0  0  0  0  0
    1.5853    0.6817   -0.2942 C   0  0  0  0  0  0  0  0  0  0  0  0
    0.9234   -0.0202    0.7829 C   0  0  0  0  0  0  0  0  0  0  0  0
    1.1398   -1.5180    0.8222 C   0  0  0  0  0  0  0  0  0  0  0  0
    0.8037    0.6449    2.1304 C   0  0  0  0  0  0  0  0  0  0  0  0
    1.8050    0.0598   -1.1627 H   0  0  0  0  0  0  0  0  0  0  0  0
    2.1089   -1.7487    1.2730 H   0  0  0  0  0  0  0  0  0  0  0  0
    0.3673   -2.0011    1.4227 H   0  0  0  0  0  0  0  0  0  0  0  0
    1.1154   -1.9499   -0.1793 H   0  0  0  0  0  0  0  0  0  0  0  0
    0.0214    0.1639    2.7204 H   0  0  0  0  0  0  0  0  0  0  0  0
    0.5839    1.7067    2.0318 H   0  0  0  0  0  0  0  0  0  0  0  0
    1.7459    0.5514    2.6774 H   0  0  0  0  0  0  0  0  0  0  0  0
  1  2  3  0
  1  7  1  0
  2  3  1  0
  3  4  1  0
  3  5  1  0
  4  9  1  0
  4 10  1  0
  4 11  1  0
  5  6  3  0
  6 12  1  0
  8 15  1  0
 13 14  2  0
 14 15  1  0
 14 18  1  0
 15 16  1  0
 15 17  1  0
 16 19  1  0
 16 20  1  0
 16 21  1  0
 17 22  1  0
 17 23  1  0
 17 24  1  0
M  RAD  1   3   2
M  END
>  <reaction>  (4) 
rxn_1416

>  <mol_properties>  (4) 
{"1": {"label": "*4", "atom_type": "Ct"}, "2": {"label": "*3", "atom_type": "Cs"}, "7": {"label": "*2", "atom_type": "H0"}, "13": {"label": "*0", "atom_type": "CS"}, "14": {"label": "*1", "atom_type": "Cs"}}

>  <type>  (4) 
ts

$$$$

     RDKit          3D

 24 22  0  0  0  0  0  0  0  0999 V2000
   -1.1911   -0.1261   -3.4579 C   0  0  0  0  0  0  0  0  0  0  0  0
   -1.1911   -0.1261   -2.2617 C   0  0  0  0  0  0  0  0  0  0  0  0
   -1.1911   -0.0860   -0.7952 C   0  0  0  0  0  0  0  0  0  0  0  0
   -1.8291    1.2132   -0.2732 C   0  0  0  0  0  0  0  0  0  0  0  0
   -1.8529   -1.2672   -0.2304 C   0  0  0  0  0  0  0  0  0  0  0  0
   -2.4012   -2.2125    0.2561 C   0  0  0  0  0  0  0  0  0  0  0  0
   -1.1911   -0.1261   -4.5214 H   0  0  0  0  0  0  0  0  0  0  0  0
    0.0625   -0.1132   -0.4021 H   0  0  0  0  0  0  0  0  0  0  0  0
   -2.8724    1.2705   -0.5810 H   0  0  0  0  0  0  0  0  0  0  0  0
   -1.2965    2.0747   -0.6749 H   0  0  0  0  0  0  0  0  0  0  0  0
   -1.7819    1.2377    0.8150 H   0  0  0  0  0  0  0  0  0  0  0  0
   -2.8886   -3.0529    0.6886 H   0  0  0  0  0  0  0  0  0  0  0  0
    1.2188    1.3995    2.3224 S   0  0  0  0  0  1  0  0  0  0  0  0
    1.5111    1.1308    0.7650 C   0  0  0  0  0  0  0  0  0  0  0  0
    1.3205   -0.1406   -0.0075 C   0  0  0  0  0  0  0  0  0  0  0  0
    2.6651   -0.5446   -0.6302 C   0  0  0  0  0  0  0  0  0  0  0  0
    0.6962   -1.2808    0.7783 C   0  0  0  0  0  0  0  0  0  0  0  0
    1.9146    1.9450    0.1581 H   0  0  0  0  0  0  0  0  0  0  0  0
    3.3773   -0.8199    0.1503 H   0  0  0  0  0  0  0  0  0  0  0  0
    2.5304   -1.4046   -1.2871 H   0  0  0  0  0  0  0  0  0  0  0  0
    3.0991    0.2667   -1.2174 H   0  0  0  0  0  0  0  0  0  0  0  0
    0.5489   -2.1444    0.1277 H   0  0  0  0  0  0  0  0  0  0  0  0
   -0.2672   -0.9943    1.1999 H   0  0  0  0  0  0  0  0  0  0  0  0
    1.3407   -1.5801    1.6065 H   0  0  0  0  0  0  0  0  0  0  0  0
  1  2  3  0
  1  7  1  0
  2  3  1  0
  3  4  1  0
  3  5  1  0
  3  8  1  0
  4  9  1  0
  4 10  1  0
  4 11  1  0
  5  6  3  0
  6 12  1  0
 13 14  1  0
 14 15  2  3
 14 18  1  0
 15 16  1  0
 15 17  1  0
 16 19  1  0
 16 20  1  0
 16 21  1  0
 17 22  1  0
 17 23  1  0
 17 24  1  0
M  RAD  1  13   2
M  END
>  <reaction>  (5) 
rxn_1416

>  <mol_properties>  (5) 
{"1": {"label": "*4", "atom_type": "Ct"}, "2": {"label": "*3", "atom_type": "Cs"}, "7": {"label": "*2", "atom_type": "H0"}, "13": {"label": "*0", "atom_type": "CS"}, "14": {"label": "*1", "atom_type": "Cs"}}

>  <type>  (5) 
unop_1

>  <geom_source>  (5) 
Heuristics

$$$$

     RDKit          3D

 24 22  0  0  0  0  0  0  0  0999 V2000
   -1.5005   -0.2936   -2.7790 C   0  0  0  0  0  0  0  0  0  0  0  0
   -1.5005   -0.2936   -1.5829 C   0  0  0  0  0  0  0  0  0  0  0  0
   -1.5005   -0.2536   -0.1163 C   0  0  0  0  0  0  0  0  0  0  0  0
   -2.1385    1.0457    0.4057 C   0  0  0  0  0  0  0  0  0  0  0  0
   -2.1624   -1.4348    0.4485 C   0  0  0  0  0  0  0  0  0  0  0  0
   -2.7106   -2.3801    0.9350 C   0  0  0  0  0  0  0  0  0  0  0  0
   -1.5005   -0.2936   -3.8425 H   0  0  0  0  0  0  0  0  0  0  0  0
   -0.2469   -0.2808    0.2768 H   0  0  0  0  0  0  0  0  0  0  0  0
   -3.1818    1.1029    0.0979 H   0  0  0  0  0  0  0  0  0  0  0  0
   -1.6059    1.9071    0.0040 H   0  0  0  0  0  0  0  0  0  0  0  0
   -2.0913    1.0701    1.4939 H   0  0  0  0  0  0  0  0  0  0  0  0
   -3.1980   -3.2205    1.3675 H   0  0  0  0  0  0  0  0  0  0  0  0
    2.4136    1.8391   -0.4389 S   0  0  0  0  0  1  0  0  0  0  0  0
    1.7762    0.3638   -0.4298 C   0  0  0  0  0  0  0  0  0  0  0  0
    1.0111   -0.3082    0.6714 C   0  0  0  0  0  0  0  0  0  0  0  0
    1.7294   -1.6134    1.0445 C   0  0  0  0  0  0  0  0  0  0  0  0
    0.7460    0.5594    1.8897 C   0  0  0  0  0  0  0  0  0  0  0  0
    1.9058   -0.2699   -1.3105 H   0  0  0  0  0  0  0  0  0  0  0  0
    2.6990   -1.3969    1.4975 H   0  0  0  0  0  0  0  0  0  0  0  0
    1.1345   -2.1753    1.7655 H   0  0  0  0  0  0  0  0  0  0  0  0
    1.8943   -2.2481    0.1721 H   0  0  0  0  0  0  0  0  0  0  0  0
    0.1436    0.0093    2.6144 H   0  0  0  0  0  0  0  0  0  0  0  0
    0.2177    1.4741    1.6210 H   0  0  0  0  0  0  0  0  0  0  0  0
    1.6817    0.8502    2.3703 H   0  0  0  0  0  0  0  0  0  0  0  0
  1  2  3  0
  1  7  1  0
  2  3  1  0
  3  4  1  0
  3  5  1  0
  3  8  1  0
  4  9  1  0
  4 10  1  0
  4 11  1  0
  5  6  3  0
  6 12  1  0
 13 14  1  0
 14 15  2  3
 14 18  1  0
 15 16  1  0
 15 17  1  0
 16 19  1  0
 16 20  1  0
 16 21  1  0
 17 22  1  0
 17 23  1  0
 17 24  1  0
M  RAD  1  13   2
M  END
>  <reaction>  (6) 
rxn_1416

>  <mol_properties>  (6) 
{"1": {"label": "*4", "atom_type": "Ct"}, "2": {"label": "*3", "atom_type": "Cs"}, "7": {"label": "*2", "atom_type": "H0"}, "13": {"label": "*0", "atom_type": "CS"}, "14": {"label": "*1", "atom_type": "Cs"}}

>  <type>  (6) 
unop_2

>  <geom_source>  (6) 
Heuristics

$$$$

     RDKit          3D

 24 22  0  0  0  0  0  0  0  0999 V2000
   -1.2285    0.1373   -3.5113 C   0  0  0  0  0  0  0  0  0  0  0  0
   -1.2285    0.1373   -2.3152 C   0  0  0  0  0  0  0  0  0  0  0  0
   -1.2285    0.1774   -0.8486 C   0  0  0  0  0  0  0  0  0  0  0  0
   -1.8665    1.4766   -0.3266 C   0  0  0  0  0  0  0  0  0  0  0  0
   -1.8903   -1.0039   -0.2839 C   0  0  0  0  0  0  0  0  0  0  0  0
   -2.4386   -1.9492    0.2026 C   0  0  0  0  0  0  0  0  0  0  0  0
   -1.2285    0.1373   -4.5748 H   0  0  0  0  0  0  0  0  0  0  0  0
    0.0251    0.1501   -0.4555 H   0  0  0  0  0  0  0  0  0  0  0  0
   -2.9098    1.5338   -0.6344 H   0  0  0  0  0  0  0  0  0  0  0  0
   -1.3339    2.3380   -0.7283 H   0  0  0  0  0  0  0  0  0  0  0  0
   -1.8193    1.5010    0.7616 H   0  0  0  0  0  0  0  0  0  0  0  0
   -2.9260   -2.7896    0.6351 H   0  0  0  0  0  0  0  0  0  0  0  0
    1.2673    0.2971    2.7283 S   0  0  0  0  0  1  0  0  0  0  0  0
    1.2994    0.8828    1.2319 C   0  0  0  0  0  0  0  0  0  0  0  0
    1.2832    0.1228   -0.0610 C   0  0  0  0  0  0  0  0  0  0  0  0
    2.5331    0.5003   -0.8697 C   0  0  0  0  0  0  0  0  0  0  0  0
    1.1355   -1.3823    0.0819 C   0  0  0  0  0  0  0  0  0  0  0  0
    1.3555    1.9651    1.0925 H   0  0  0  0  0  0  0  0  0  0  0  0
    3.4331    0.1390   -0.3681 H   0  0  0  0  0  0  0  0  0  0  0  0
    2.4896    0.0460   -1.8602 H   0  0  0  0  0  0  0  0  0  0  0  0
    2.6227    1.5807   -0.9952 H   0  0  0  0  0  0  0  0  0  0  0  0
    1.0824   -1.8463   -0.9043 H   0  0  0  0  0  0  0  0  0  0  0  0
    0.2358   -1.6440    0.6386 H   0  0  0  0  0  0  0  0  0  0  0  0
    1.9871   -1.8069    0.6163 H   0  0  0  0  0  0  0  0  0  0  0  0
  1  2  3  0
  1  7  1  0
  2  3  1  0
  3  4  1  0
  3  5  1  0
  3  8  1  0
  4  9  1  0
  4 10  1  0
  4 11  1  0
  5  6  3  0
  6 12  1  0
 13 14  1  0
 14 15  2  3
 14 18  1  0
 15 16  1  0
 15 17  1  0
 16 19  1  0
 16 20  1  0
 16 21  1  0
 17 22  1  0
 17 23  1  0
 17 24  1  0
M  RAD  1  13   2
M  END
>  <reaction>  (7) 
rxn_1416

>  <mol_properties>  (7) 
{"1": {"label": "*4", "atom_type": "Ct"}, "2": {"label": "*3", "atom_type": "Cs"}, "7": {"label": "*2", "atom_type": "H0"}, "13": {"label": "*0", "atom_type": "CS"}, "14": {"label": "*1", "atom_type": "Cs"}}

>  <type>  (7) 
unop_3

>  <geom_source>  (7) 
Heuristics

$$$$

     RDKit          3D

 24 22  0  0  0  0  0  0  0  0999 V2000
   -1.5915    0.4776   -2.8618 C   0  0  0  0  0  0  0  0  0  0  0  0
   -1.5915    0.4776   -1.6657 C   0  0  0  0  0  0  0  0  0  0  0  0
   -1.5915    0.5177   -0.1991 C   0  0  0  0  0  0  0  0  0  0  0  0
   -2.2295    1.8169    0.3229 C   0  0  0  0  0  0  0  0  0  0  0  0
   -2.2533   -0.6636    0.3657 C   0  0  0  0  0  0  0  0  0  0  0  0
   -2.8015   -1.6089    0.8522 C   0  0  0  0  0  0  0  0  0  0  0  0
   -1.5915    0.4776   -3.9253 H   0  0  0  0  0  0  0  0  0  0  0  0
   -0.3379    0.4904    0.1940 H   0  0  0  0  0  0  0  0  0  0  0  0
   -3.2727    1.8741    0.0151 H   0  0  0  0  0  0  0  0  0  0  0  0
   -1.6969    2.6783   -0.0788 H   0  0  0  0  0  0  0  0  0  0  0  0
   -2.1823    1.8413    1.4111 H   0  0  0  0  0  0  0  0  0  0  0  0
   -3.2890   -2.4493    1.2847 H   0  0  0  0  0  0  0  0  0  0  0  0
    2.9956   -1.1904   -0.2885 S   0  0  0  0  0  1  0  0  0  0  0  0
    1.4671   -0.8243    0.0473 C   0  0  0  0  0  0  0  0  0  0  0  0
    0.9202    0.4631    0.5886 C   0  0  0  0  0  0  0  0  0  0  0  0
    0.1752    0.1693    1.8991 C   0  0  0  0  0  0  0  0  0  0  0  0
    1.9427    1.5738    0.7563 C   0  0  0  0  0  0  0  0  0  0  0  0
    0.6982   -1.5849   -0.1089 H   0  0  0  0  0  0  0  0  0  0  0  0
    0.8766   -0.1583    2.6691 H   0  0  0  0  0  0  0  0  0  0  0  0
   -0.3255    1.0702    2.2555 H   0  0  0  0  0  0  0  0  0  0  0  0
   -0.5784   -0.6097    1.7703 H   0  0  0  0  0  0  0  0  0  0  0  0
    1.4505    2.4833    1.1047 H   0  0  0  0  0  0  0  0  0  0  0  0
    2.4528    1.7917   -0.1818 H   0  0  0  0  0  0  0  0  0  0  0  0
    2.7040    1.2936    1.4864 H   0  0  0  0  0  0  0  0  0  0  0  0
  1  2  3  0
  1  7  1  0
  2  3  1  0
  3  4  1  0
  3  5  1  0
  3  8  1  0
  4  9  1  0
  4 10  1  0
  4 11  1  0
  5  6  3  0
  6 12  1  0
 13 14  1  0
 14 15  2  3
 14 18  1  0
 15 16  1  0
 15 17  1  0
 16 19  1  0
 16 20  1  0
 16 21  1  0
 17 22  1  0
 17 23  1  0
 17 24  1  0
M  RAD  1  13   2
M  END
>  <reaction>  (8) 
rxn_1416

>  <mol_properties>  (8) 
{"1": {"label": "*4", "atom_type": "Ct"}, "2": {"label": "*3", "atom_type": "Cs"}, "7": {"label": "*2", "atom_type": "H0"}, "13": {"label": "*0", "atom_type": "CS"}, "14": {"label": "*1", "atom_type": "Cs"}}

>  <type>  (8) 
unop_4

>  <geom_source>  (8) 
Heuristics

$$$$

     RDKit          3D

 24 22  0  0  0  0  0  0  0  0999 V2000
   -1.3518    0.3088   -3.4443 C   0  0  0  0  0  0  0  0  0  0  0  0
   -1.3518    0.3088   -2.2481 C   0  0  0  0  0  0  0  0  0  0  0  0
   -1.3518    0.3489   -0.7816 C   0  0  0  0  0  0  0  0  0  0  0  0
   -1.9898    1.6481   -0.2596 C   0  0  0  0  0  0  0  0  0  0  0  0
   -2.0136   -0.8323   -0.2168 C   0  0  0  0  0  0  0  0  0  0  0  0
   -2.5619   -1.7776    0.2697 C   0  0  0  0  0  0  0  0  0  0  0  0
   -1.3518    0.3088   -4.5078 H   0  0  0  0  0  0  0  0  0  0  0  0
   -0.0982    0.3217   -0.3884 H   0  0  0  0  0  0  0  0  0  0  0  0
   -3.0331    1.7054   -0.5673 H   0  0  0  0  0  0  0  0  0  0  0  0
   -1.4572    2.5095   -0.6612 H   0  0  0  0  0  0  0  0  0  0  0  0
   -1.9426    1.6726    0.8286 H   0  0  0  0  0  0  0  0  0  0  0  0
   -3.0493   -2.6180    0.7022 H   0  0  0  0  0  0  0  0  0  0  0  0
    1.7208   -0.7066    2.5544 S   0  0  0  0  0  1  0  0  0  0  0  0
    1.0962    0.3372    1.5039 C   0  0  0  0  0  0  0  0  0  0  0  0
    1.1598    0.2943    0.0061 C   0  0  0  0  0  0  0  0  0  0  0  0
    1.8141    1.5899   -0.4962 C   0  0  0  0  0  0  0  0  0  0  0  0
    1.8318   -0.9393   -0.5720 C   0  0  0  0  0  0  0  0  0  0  0  0
    0.5628    1.2111    1.8856 H   0  0  0  0  0  0  0  0  0  0  0  0
    2.8625    1.6278   -0.1933 H   0  0  0  0  0  0  0  0  0  0  0  0
    1.7724    1.6328   -1.5851 H   0  0  0  0  0  0  0  0  0  0  0  0
    1.3127    2.4755   -0.1019 H   0  0  0  0  0  0  0  0  0  0  0  0
    1.7880   -0.9106   -1.6620 H   0  0  0  0  0  0  0  0  0  0  0  0
    1.3497   -1.8543   -0.2283 H   0  0  0  0  0  0  0  0  0  0  0  0
    2.8797   -0.9875   -0.2711 H   0  0  0  0  0  0  0  0  0  0  0  0
  1  2  3  0
  1  7  1  0
  2  3  1  0
  3  4  1  0
  3  5  1  0
  3  8  1  0
  4  9  1  0
  4 10  1  0
  4 11  1  0
  5  6  3  0
  6 12  1  0
 13 14  1  0
 14 15  2  3
 14 18  1  0
 15 16  1  0
 15 17  1  0
 16 19  1  0
 16 20  1  0
 16 21  1  0
 17 22  1  0
 17 23  1  0
 17 24  1  0
M  RAD  1  13   2
M  END
>  <reaction>  (9) 
rxn_1416

>  <mol_properties>  (9) 
{"1": {"label": "*4", "atom_type": "Ct"}, "2": {"label": "*3", "atom_type": "Cs"}, "7": {"label": "*2", "atom_type": "H0"}, "13": {"label": "*0", "atom_type": "CS"}, "14": {"label": "*1", "atom_type": "Cs"}}

>  <type>  (9) 
unop_5

>  <geom_source>  (9) 
Heuristics

$$$$

     RDKit          3D

 24 22  0  0  0  0  0  0  0  0999 V2000
   -1.5214    0.5349   -3.0839 C   0  0  0  0  0  0  0  0  0  0  0  0
   -1.5214    0.5349   -1.8878 C   0  0  0  0  0  0  0  0  0  0  0  0
   -1.5214    0.5750   -0.4212 C   0  0  0  0  0  0  0  0  0  0  0  0
   -2.1594    1.8742    0.1008 C   0  0  0  0  0  0  0  0  0  0  0  0
   -2.1832   -0.6063    0.1436 C   0  0  0  0  0  0  0  0  0  0  0  0
   -2.7315   -1.5515    0.6301 C   0  0  0  0  0  0  0  0  0  0  0  0
   -1.5214    0.5349   -4.1474 H   0  0  0  0  0  0  0  0  0  0  0  0
   -0.2678    0.5477   -0.0281 H   0  0  0  0  0  0  0  0  0  0  0  0
   -3.2027    1.9315   -0.2070 H   0  0  0  0  0  0  0  0  0  0  0  0
   -1.6268    2.7356   -0.3009 H   0  0  0  0  0  0  0  0  0  0  0  0
   -2.1122    1.8986    1.1890 H   0  0  0  0  0  0  0  0  0  0  0  0
   -3.2189   -2.3920    1.0626 H   0  0  0  0  0  0  0  0  0  0  0  0
    2.7640   -1.6282    0.5850 S   0  0  0  0  0  1  0  0  0  0  0  0
    1.3151   -0.9356    0.5216 C   0  0  0  0  0  0  0  0  0  0  0  0
    0.9903    0.5204    0.3665 C   0  0  0  0  0  0  0  0  0  0  0  0
    0.1347    0.9642    1.5622 C   0  0  0  0  0  0  0  0  0  0  0  0
    2.1918    1.4273    0.1635 C   0  0  0  0  0  0  0  0  0  0  0  0
    0.4271   -1.5655    0.6148 H   0  0  0  0  0  0  0  0  0  0  0  0
    0.7205    0.9261    2.4829 H   0  0  0  0  0  0  0  0  0  0  0  0
   -0.2071    1.9897    1.4182 H   0  0  0  0  0  0  0  0  0  0  0  0
   -0.7431    0.3283    1.6898 H   0  0  0  0  0  0  0  0  0  0  0  0
    1.8604    2.4555    0.0097 H   0  0  0  0  0  0  0  0  0  0  0  0
    2.7830    1.1195   -0.6988 H   0  0  0  0  0  0  0  0  0  0  0  0
    2.8474    1.4041    1.0358 H   0  0  0  0  0  0  0  0  0  0  0  0
  1  2  3  0
  1  7  1  0
  2  3  1  0
  3  4  1  0
  3  5  1  0
  3  8  1  0
  4  9  1  0
  4 10  1  0
  4 11  1  0
  5  6  3  0
  6 12  1  0
 13 14  1  0
 14 15  2  3
 14 18  1  0
 15 16  1  0
 15 17  1  0
 16 19  1  0
 16 20  1  0
 16 21  1  0
 17 22  1  0
 17 23  1  0
 17 24  1  0
M  RAD  1  13   2
M  END
>  <reaction>  (10) 
rxn_1416

>  <mol_properties>  (10) 
{"1": {"label": "*4", "atom_type": "Ct"}, "2": {"label": "*3", "atom_type": "Cs"}, "7": {"label": "*2", "atom_type": "H0"}, "13": {"label": "*0", "atom_type": "CS"}, "14": {"label": "*1", "atom_type": "Cs"}}

>  <type>  (10) 
unop_6

>  <geom_source>  (10) 
Heuristics

$$$$

     RDKit          3D

 24 22  0  0  0  0  0  0  0  0999 V2000
   -1.4658    0.4726   -3.2658 C   0  0  0  0  0  0  0  0  0  0  0  0
   -1.4658    0.4726   -2.0696 C   0  0  0  0  0  0  0  0  0  0  0  0
   -1.4658    0.5126   -0.6031 C   0  0  0  0  0  0  0  0  0  0  0  0
   -2.1039    1.8118   -0.0811 C   0  0  0  0  0  0  0  0  0  0  0  0
   -2.1277   -0.6686   -0.0383 C   0  0  0  0  0  0  0  0  0  0  0  0
   -2.6759   -1.6139    0.4482 C   0  0  0  0  0  0  0  0  0  0  0  0
   -1.4658    0.4726   -4.3293 H   0  0  0  0  0  0  0  0  0  0  0  0
   -0.2122    0.4854   -0.2099 H   0  0  0  0  0  0  0  0  0  0  0  0
   -3.1471    1.8691   -0.3888 H   0  0  0  0  0  0  0  0  0  0  0  0
   -1.5712    2.6733   -0.4827 H   0  0  0  0  0  0  0  0  0  0  0  0
   -2.0567    1.8363    1.0071 H   0  0  0  0  0  0  0  0  0  0  0  0
   -3.1633   -2.4543    0.8807 H   0  0  0  0  0  0  0  0  0  0  0  0
    2.4912   -1.5817    1.4339 S   0  0  0  0  0  1  0  0  0  0  0  0
    1.1603   -0.7785    1.0256 C   0  0  0  0  0  0  0  0  0  0  0  0
    1.0458    0.4580    0.1846 C   0  0  0  0  0  0  0  0  0  0  0  0
    0.3470    1.5503    1.0077 C   0  0  0  0  0  0  0  0  0  0  0  0
    2.3526    0.9499   -0.4135 C   0  0  0  0  0  0  0  0  0  0  0  0
    0.1968   -1.1343    1.3984 H   0  0  0  0  0  0  0  0  0  0  0  0
    0.9805    1.8614    1.8408 H   0  0  0  0  0  0  0  0  0  0  0  0
    0.1525    2.4230    0.3833 H   0  0  0  0  0  0  0  0  0  0  0  0
   -0.6051    1.2041    1.4136 H   0  0  0  0  0  0  0  0  0  0  0  0
    2.1681    1.8186   -1.0476 H   0  0  0  0  0  0  0  0  0  0  0  0
    2.8329    0.1770   -1.0134 H   0  0  0  0  0  0  0  0  0  0  0  0
    3.0539    1.2395    0.3710 H   0  0  0  0  0  0  0  0  0  0  0  0
  1  2  3  0
  1  7  1  0
  2  3  1  0
  3  4  1  0
  3  5  1  0
  3  8  1  0
  4  9  1  0
  4 10  1  0
  4 11  1  0
  5  6  3  0
  6 12  1  0
 13 14  1  0
 14 15  2  3
 14 18  1  0
 15 16  1  0
 15 17  1  0
 16 19  1  0
 16 20  1  0
 16 21  1  0
 17 22  1  0
 17 23  1  0
 17 24  1  0
M  RAD  1  13   2
M  END
>  <reaction>  (11) 
rxn_1416

>  <mol_properties>  (11) 
{"1": {"label": "*4", "atom_type": "Ct"}, "2": {"label": "*3", "atom_type": "Cs"}, "7": {"label": "*2", "atom_type": "H0"}, "13": {"label": "*0", "atom_type": "CS"}, "14": {"label": "*1", "atom_type": "Cs"}}

>  <type>  (11) 
unop_7

>  <geom_source>  (11) 
Heuristics

$$$$

     RDKit          3D

 24 22  0  0  0  0  0  0  0  0999 V2000
   -1.2478   -0.3328   -3.2736 C   0  0  0  0  0  0  0  0  0  0  0  0
   -1.2478   -0.3328   -2.0774 C   0  0  0  0  0  0  0  0  0  0  0  0
   -1.2478   -0.2927   -0.6109 C   0  0  0  0  0  0  0  0  0  0  0  0
   -1.8859    1.0065   -0.0889 C   0  0  0  0  0  0  0  0  0  0  0  0
   -1.9097   -1.4740   -0.0461 C   0  0  0  0  0  0  0  0  0  0  0  0
   -2.4579   -2.4193    0.4404 C   0  0  0  0  0  0  0  0  0  0  0  0
   -1.2478   -0.3328   -4.3371 H   0  0  0  0  0  0  0  0  0  0  0  0
    0.0057   -0.3200   -0.2178 H   0  0  0  0  0  0  0  0  0  0  0  0
   -2.9291    1.0637   -0.3967 H   0  0  0  0  0  0  0  0  0  0  0  0
   -1.3533    1.8679   -0.4906 H   0  0  0  0  0  0  0  0  0  0  0  0
   -1.8387    1.0309    0.9993 H   0  0  0  0  0  0  0  0  0  0  0  0
   -2.9454   -3.2597    0.8729 H   0  0  0  0  0  0  0  0  0  0  0  0
    1.4825    2.1176    1.4755 S   0  0  0  0  0  1  0  0  0  0  0  0
    1.6764    1.0926    0.2528 C   0  0  0  0  0  0  0  0  0  0  0  0
    1.2638   -0.3473    0.1768 C   0  0  0  0  0  0  0  0  0  0  0  0
    2.5070   -1.2010   -0.1138 C   0  0  0  0  0  0  0  0  0  0  0  0
    0.4961   -0.8589    1.3836 C   0  0  0  0  0  0  0  0  0  0  0  0
    2.1811    1.4424   -0.6509 H   0  0  0  0  0  0  0  0  0  0  0  0
    3.1936   -1.1727    0.7348 H   0  0  0  0  0  0  0  0  0  0  0  0
    2.2176   -2.2387   -0.2832 H   0  0  0  0  0  0  0  0  0  0  0  0
    3.0420   -0.8490   -0.9975 H   0  0  0  0  0  0  0  0  0  0  0  0
    0.1940   -1.8947    1.2208 H   0  0  0  0  0  0  0  0  0  0  0  0
   -0.3959   -0.2617    1.5717 H   0  0  0  0  0  0  0  0  0  0  0  0
    1.1138   -0.8181    2.2824 H   0  0  0  0  0  0  0  0  0  0  0  0
  1  2  3  0
  1  7  1  0
  2  3  1  0
  3  4  1  0
  3  5  1  0
  3  8  1  0
  4  9  1  0
  4 10  1  0
  4 11  1  0
  5  6  3  0
  6 12  1  0
 13 14  1  0
 14 15  2  3
 14 18  1  0
 15 16  1  0
 15 17  1  0
 16 19  1  0
 16 20  1  0
 16 21  1  0
 17 22  1  0
 17 23  1  0
 17 24  1  0
M  RAD  1  13   2
M  END
>  <reaction>  (12) 
rxn_1416

>  <mol_properties>  (12) 
{"1": {"label": "*4", "atom_type": "Ct"}, "2": {"label": "*3", "atom_type": "Cs"}, "7": {"label": "*2", "atom_type": "H0"}, "13": {"label": "*0", "atom_type": "CS"}, "14": {"label": "*1", "atom_type": "Cs"}}

>  <type>  (12) 
unop_8

>  <geom_source>  (12) 
Heuristics

$$$$

     RDKit          3D

 24 22  0  0  0  0  0  0  0  0999 V2000
   -1.6373    0.2692   -2.6849 C   0  0  0  0  0  0  0  0  0  0  0  0
   -1.6373    0.2692   -1.4888 C   0  0  0  0  0  0  0  0  0  0  0  0
   -1.6373    0.3093   -0.0222 C   0  0  0  0  0  0  0  0  0  0  0  0
   -2.2753    1.6085    0.4998 C   0  0  0  0  0  0  0  0  0  0  0  0
   -2.2991   -0.8719    0.5426 C   0  0  0  0  0  0  0  0  0  0  0  0
   -2.8473   -1.8172    1.0291 C   0  0  0  0  0  0  0  0  0  0  0  0
   -1.6373    0.2692   -3.7484 H   0  0  0  0  0  0  0  0  0  0  0  0
   -0.3837    0.2821    0.3709 H   0  0  0  0  0  0  0  0  0  0  0  0
   -3.3186    1.6658    0.1920 H   0  0  0  0  0  0  0  0  0  0  0  0
   -1.7427    2.4699    0.0981 H   0  0  0  0  0  0  0  0  0  0  0  0
   -2.2281    1.6330    1.5880 H   0  0  0  0  0  0  0  0  0  0  0  0
   -3.3348   -2.6576    1.4616 H   0  0  0  0  0  0  0  0  0  0  0  0
    3.0657   -0.2602   -0.8909 S   0  0  0  0  0  1  0  0  0  0  0  0
    1.5956   -0.5213   -0.2962 C   0  0  0  0  0  0  0  0  0  0  0  0
    0.8744    0.2547    0.7654 C   0  0  0  0  0  0  0  0  0  0  0  0
    0.5063   -0.7012    1.9098 C   0  0  0  0  0  0  0  0  0  0  0  0
    1.6084    1.4850    1.2706 C   0  0  0  0  0  0  0  0  0  0  0  0
    1.0194   -1.3697   -0.6733 H   0  0  0  0  0  0  0  0  0  0  0  0
    1.4080   -1.0542    2.4144 H   0  0  0  0  0  0  0  0  0  0  0  0
   -0.1148   -0.1859    2.6432 H   0  0  0  0  0  0  0  0  0  0  0  0
   -0.0453   -1.5710    1.5488 H   0  0  0  0  0  0  0  0  0  0  0  0
    0.9916    2.0133    1.9994 H   0  0  0  0  0  0  0  0  0  0  0  0
    1.8481    2.1689    0.4565 H   0  0  0  0  0  0  0  0  0  0  0  0
    2.5472    1.2063    1.7522 H   0  0  0  0  0  0  0  0  0  0  0  0
  1  2  3  0
  1  7  1  0
  2  3  1  0
  3  4  1  0
  3  5  1  0
  3  8  1  0
  4  9  1  0
  4 10  1  0
  4 11  1  0
  5  6  3  0
  6 12  1  0
 13 14  1  0
 14 15  2  3
 14 18  1  0
 15 16  1  0
 15 17  1  0
 16 19  1  0
 16 20  1  0
 16 21  1  0
 17 22  1  0
 17 23  1  0
 17 24  1  0
M  RAD  1  13   2
M  END
>  <reaction>  (13) 
rxn_1416

>  <mol_properties>  (13) 
{"1": {"label": "*4", "atom_type": "Ct"}, "2": {"label": "*3", "atom_type": "Cs"}, "7": {"label": "*2", "atom_type": "H0"}, "13": {"label": "*0", "atom_type": "CS"}, "14": {"label": "*1", "atom_type": "Cs"}}

>  <type>  (13) 
unop_9

>  <geom_source>  (13) 
Heuristics

$$$$

     RDKit          3D

 24 22  0  0  0  0  0  0  0  0999 V2000
   -1.3630   -0.3998   -3.0194 C   0  0  0  0  0  0  0  0  0  0  0  0
   -1.3630   -0.3998   -1.8232 C   0  0  0  0  0  0  0  0  0  0  0  0
   -1.3630   -0.3598   -0.3567 C   0  0  0  0  0  0  0  0  0  0  0  0
   -2.0010    0.9394    0.1653 C   0  0  0  0  0  0  0  0  0  0  0  0
   -2.0248   -1.5410    0.2081 C   0  0  0  0  0  0  0  0  0  0  0  0
   -2.5731   -2.4863    0.6946 C   0  0  0  0  0  0  0  0  0  0  0  0
   -1.3630   -0.3998   -4.0828 H   0  0  0  0  0  0  0  0  0  0  0  0
   -0.1094   -0.3870    0.0365 H   0  0  0  0  0  0  0  0  0  0  0  0
   -3.0443    0.9967   -0.1424 H   0  0  0  0  0  0  0  0  0  0  0  0
   -1.4684    1.8009   -0.2363 H   0  0  0  0  0  0  0  0  0  0  0  0
   -1.9538    0.9639    1.2535 H   0  0  0  0  0  0  0  0  0  0  0  0
   -3.0605   -3.3267    1.1271 H   0  0  0  0  0  0  0  0  0  0  0  0
    1.9137    2.2734    0.4616 S   0  0  0  0  0  1  0  0  0  0  0  0
    1.7715    0.8062   -0.1788 C   0  0  0  0  0  0  0  0  0  0  0  0
    1.1487   -0.4144    0.4310 C   0  0  0  0  0  0  0  0  0  0  0  0
    2.1976   -1.5355    0.4695 C   0  0  0  0  0  0  0  0  0  0  0  0
    0.5054   -0.1952    1.7895 C   0  0  0  0  0  0  0  0  0  0  0  0
    2.1799    0.6264   -1.1762 H   0  0  0  0  0  0  0  0  0  0  0  0
    3.0007   -1.2802    1.1638 H   0  0  0  0  0  0  0  0  0  0  0  0
    1.7392   -2.4660    0.8063 H   0  0  0  0  0  0  0  0  0  0  0  0
    2.6389   -1.7106   -0.5133 H   0  0  0  0  0  0  0  0  0  0  0  0
    0.0358   -1.1187    2.1323 H   0  0  0  0  0  0  0  0  0  0  0  0
   -0.2526    0.5870    1.7507 H   0  0  0  0  0  0  0  0  0  0  0  0
    1.2505    0.1063    2.5277 H   0  0  0  0  0  0  0  0  0  0  0  0
  1  2  3  0
  1  7  1  0
  2  3  1  0
  3  4  1  0
  3  5  1  0
  3  8  1  0
  4  9  1  0
  4 10  1  0
  4 11  1  0
  5  6  3  0
  6 12  1  0
 13 14  1  0
 14 15  2  3
 14 18  1  0
 15 16  1  0
 15 17  1  0
 16 19  1  0
 16 20  1  0
 16 21  1  0
 17 22  1  0
 17 23  1  0
 17 24  1  0
M  RAD  1  13   2
M  END
>  <reaction>  (14) 
rxn_1416

>  <mol_properties>  (14) 
{"1": {"label": "*4", "atom_type": "Ct"}, "2": {"label": "*3", "atom_type": "Cs"}, "7": {"label": "*2", "atom_type": "H0"}, "13": {"label": "*0", "atom_type": "CS"}, "14": {"label": "*1", "atom_type": "Cs"}}

>  <type>  (14) 
unop_10

>  <geom_source>  (14) 
Heuristics

$$$$

     RDKit          3D

 24 22  0  0  0  0  0  0  0  0999 V2000
   -1.4298    0.3773   -3.3694 C   0  0  0  0  0  0  0  0  0  0  0  0
   -1.4298    0.3773   -2.1733 C   0  0  0  0  0  0  0  0  0  0  0  0
   -1.4298    0.4174   -0.7067 C   0  0  0  0  0  0  0  0  0  0  0  0
   -2.0678    1.7166   -0.1847 C   0  0  0  0  0  0  0  0  0  0  0  0
   -2.0917   -0.7638   -0.1419 C   0  0  0  0  0  0  0  0  0  0  0  0
   -2.6399   -1.7091    0.3446 C   0  0  0  0  0  0  0  0  0  0  0  0
   -1.4298    0.3773   -4.4329 H   0  0  0  0  0  0  0  0  0  0  0  0
   -0.1762    0.3902   -0.3136 H   0  0  0  0  0  0  0  0  0  0  0  0
   -3.1111    1.7739   -0.4925 H   0  0  0  0  0  0  0  0  0  0  0  0
   -1.5352    2.5781   -0.5864 H   0  0  0  0  0  0  0  0  0  0  0  0
   -2.0207    1.7411    0.9035 H   0  0  0  0  0  0  0  0  0  0  0  0
   -3.1273   -2.5495    0.7771 H   0  0  0  0  0  0  0  0  0  0  0  0
    2.1913   -1.2451    2.0795 S   0  0  0  0  0  1  0  0  0  0  0  0
    1.0541   -0.3251    1.4134 C   0  0  0  0  0  0  0  0  0  0  0  0
    1.0818    0.3628    0.0810 C   0  0  0  0  0  0  0  0  0  0  0  0
    0.8782    1.8692    0.3003 C   0  0  0  0  0  0  0  0  0  0  0  0
    2.3114    0.0756   -0.7634 C   0  0  0  0  0  0  0  0  0  0  0  0
    0.1347   -0.1383    1.9735 H   0  0  0  0  0  0  0  0  0  0  0  0
    1.7333    2.2947    0.8293 H   0  0  0  0  0  0  0  0  0  0  0  0
    0.7840    2.3781   -0.6597 H   0  0  0  0  0  0  0  0  0  0  0  0
   -0.0210    2.0753    0.8836 H   0  0  0  0  0  0  0  0  0  0  0  0
    2.2235    0.5736   -1.7304 H   0  0  0  0  0  0  0  0  0  0  0  0
    2.4384   -0.9935   -0.9328 H   0  0  0  0  0  0  0  0  0  0  0  0
    3.2146    0.4392   -0.2703 H   0  0  0  0  0  0  0  0  0  0  0  0
  1  2  3  0
  1  7  1  0
  2  3  1  0
  3  4  1  0
  3  5  1  0
  3  8  1  0
  4  9  1  0
  4 10  1  0
  4 11  1  0
  5  6  3  0
  6 12  1  0
 13 14  1  0
 14 15  2  3
 14 18  1  0
 15 16  1  0
 15 17  1  0
 16 19  1  0
 16 20  1  0
 16 21  1  0
 17 22  1  0
 17 23  1  0
 17 24  1  0
M  RAD  1  13   2
M  END
>  <reaction>  (15) 
rxn_1416

>  <mol_properties>  (15) 
{"1": {"label": "*4", "atom_type": "Ct"}, "2": {"label": "*3", "atom_type": "Cs"}, "7": {"label": "*2", "atom_type": "H0"}, "13": {"label": "*0", "atom_type": "CS"}, "14": {"label": "*1", "atom_type": "Cs"}}

>  <type>  (15) 
unop_11

>  <geom_source>  (15) 
Heuristics

$$$$

     RDKit          3D

 24 22  0  0  0  0  0  0  0  0999 V2000
   -1.6094   -0.0343   -2.6467 C   0  0  0  0  0  0  0  0  0  0  0  0
   -1.6094   -0.0343   -1.4505 C   0  0  0  0  0  0  0  0  0  0  0  0
   -1.6094    0.0058    0.0160 C   0  0  0  0  0  0  0  0  0  0  0  0
   -2.2474    1.3050    0.5380 C   0  0  0  0  0  0  0  0  0  0  0  0
   -2.2712   -1.1755    0.5808 C   0  0  0  0  0  0  0  0  0  0  0  0
   -2.8195   -2.1208    1.0673 C   0  0  0  0  0  0  0  0  0  0  0  0
   -1.6094   -0.0343   -3.7101 H   0  0  0  0  0  0  0  0  0  0  0  0
   -0.3558   -0.0215    0.4092 H   0  0  0  0  0  0  0  0  0  0  0  0
   -3.2907    1.3622    0.2303 H   0  0  0  0  0  0  0  0  0  0  0  0
   -1.7148    2.1664    0.1364 H   0  0  0  0  0  0  0  0  0  0  0  0
   -2.2002    1.3294    1.6263 H   0  0  0  0  0  0  0  0  0  0  0  0
   -3.3069   -2.9612    1.4998 H   0  0  0  0  0  0  0  0  0  0  0  0
    2.8565    0.8974   -0.9559 S   0  0  0  0  0  1  0  0  0  0  0  0
    1.7033   -0.1077   -0.4629 C   0  0  0  0  0  0  0  0  0  0  0  0
    0.9022   -0.0488    0.8037 C   0  0  0  0  0  0  0  0  0  0  0  0
    1.1009   -1.3629    1.5734 C   0  0  0  0  0  0  0  0  0  0  0  0
    1.1721    1.1643    1.6772 C   0  0  0  0  0  0  0  0  0  0  0  0
    1.4492   -0.9645   -1.0916 H   0  0  0  0  0  0  0  0  0  0  0  0
    2.1321   -1.4460    1.9227 H   0  0  0  0  0  0  0  0  0  0  0  0
    0.4434   -1.3907    2.4431 H   0  0  0  0  0  0  0  0  0  0  0  0
    0.8797   -2.2329    0.9526 H   0  0  0  0  0  0  0  0  0  0  0  0
    0.5130    1.1509    2.5467 H   0  0  0  0  0  0  0  0  0  0  0  0
    1.0092    2.0934    1.1312 H   0  0  0  0  0  0  0  0  0  0  0  0
    2.2053    1.1673    2.0288 H   0  0  0  0  0  0  0  0  0  0  0  0
  1  2  3  0
  1  7  1  0
  2  3  1  0
  3  4  1  0
  3  5  1  0
  3  8  1  0
  4  9  1  0
  4 10  1  0
  4 11  1  0
  5  6  3  0
  6 12  1  0
 13 14  1  0
 14 15  2  3
 14 18  1  0
 15 16  1  0
 15 17  1  0
 16 19  1  0
 16 20  1  0
 16 21  1  0
 17 22  1  0
 17 23  1  0
 17 24  1  0
M  RAD  1  13   2
M  END
>  <reaction>  (16) 
rxn_1416

>  <mol_properties>  (16) 
{"1": {"label": "*4", "atom_type": "Ct"}, "2": {"label": "*3", "atom_type": "Cs"}, "7": {"label": "*2", "atom_type": "H0"}, "13": {"label": "*0", "atom_type": "CS"}, "14": {"label": "*1", "atom_type": "Cs"}}

>  <type>  (16) 
unop_12

>  <geom_source>  (16) 
Heuristics

$$$$

     RDKit          3D

 24 22  0  0  0  0  0  0  0  0999 V2000
   -1.3133    2.6843   -0.8901 S   0  0  0  0  0  0  0  0  0  0  0  0
   -1.2830    0.2797    0.0017 C   0  0  0  0  0  0  0  0  0  0  0  0
   -1.3381    0.5078    1.5170 C   0  0  0  0  0  0  0  0  0  0  0  0
   -1.9350   -1.0587   -0.3581 C   0  0  0  0  0  0  0  0  0  0  0  0
    1.6589   -0.7302   -1.6225 C   0  0  0  0  0  0  0  0  0  0  0  0
    1.2520   -0.2013   -0.2501 C   0  0  0  0  0  3  0  0  0  0  0  0
   -1.9601    1.4100   -0.7370 C   0  0  0  0  0  0  0  0  0  0  0  0
    1.8681    1.1061    0.0063 C   0  0  0  0  0  0  0  0  0  0  0  0
    1.6380   -1.1453    0.8057 C   0  0  0  0  0  0  0  0  0  0  0  0
    2.3730    2.1809    0.2161 C   0  0  0  0  0  0  0  0  0  0  0  0
    1.9536   -1.9216    1.6728 C   0  0  0  0  0  0  0  0  0  0  0  0
   -0.0086    0.2161   -0.3700 H   0  0  0  0  0  0  0  0  0  0  0  0
   -2.3914    0.5768    1.8653 H   0  0  0  0  0  0  0  0  0  0  0  0
   -0.8082    1.4467    1.7835 H   0  0  0  0  0  0  0  0  0  0  0  0
   -0.8367   -0.3295    2.0472 H   0  0  0  0  0  0  0  0  0  0  0  0
   -1.8708   -1.2291   -1.4540 H   0  0  0  0  0  0  0  0  0  0  0  0
   -3.0036   -1.0723   -0.0522 H   0  0  0  0  0  0  0  0  0  0  0  0
   -1.4037   -1.8904    0.1515 H   0  0  0  0  0  0  0  0  0  0  0  0
    1.1634   -1.7059   -1.8134 H   0  0  0  0  0  0  0  0  0  0  0  0
    1.3358   -0.0190   -2.4123 H   0  0  0  0  0  0  0  0  0  0  0  0
    2.7611   -0.8651   -1.6850 H   0  0  0  0  0  0  0  0  0  0  0  0
   -2.8985    1.2387   -1.2563 H   0  0  0  0  0  0  0  0  0  0  0  0
    2.8162    3.1241    0.4003 H   0  0  0  0  0  0  0  0  0  0  0  0
    2.2308   -2.6028    2.4337 H   0  0  0  0  0  0  0  0  0  0  0  0
  1  7  2  0
  2  3  1  0
  2  4  1  0
  2  7  1  0
  2 12  1  0
  3 13  1  0
  3 14  1  0
  3 15  1  0
  4 16  1  0
  4 17  1  0
  4 18  1  0
  5  6  1  0
  5 19  1  0
  5 20  1  0
  5 21  1  0
  6  8  1  0
  6  9  1  0
  7 22  1  0
  8 10  3  0
  9 11  3  0
 10 23  1  0
 11 24  1  0
M  RAD  1   6   2
M  END
>  <reaction>  (17) 
rxn_1416

>  <mol_properties>  (17) 
{"1": {"label": "*4", "atom_type": "Ct"}, "2": {"label": "*3", "atom_type": "Cs"}, "7": {"label": "*2", "atom_type": "H0"}, "13": {"label": "*0", "atom_type": "CS"}, "14": {"label": "*1", "atom_type": "Cs"}}

>  <type>  (17) 
unop_13

>  <geom_source>  (17) 
AutoTST

$$$$
