
     RDKit          3D

  7  6  0  0  0  0  0  0  0  0999 V2000
    1.2985   -0.0065   -0.2721 C   0  0  0  0  0  0  0  0  0  0  0  0
    0.0000    0.0000   -0.2926 C   0  0  0  0  0  0  0  0  0  0  0  0
   -1.2985    0.0065   -0.3130 C   0  0  0  0  0  0  0  0  0  0  0  0
    1.8444   -0.7551    0.2895 H   0  0  0  0  0  0  0  0  0  0  0  0
    1.8693    0.7364   -0.8162 H   0  0  0  0  0  0  0  0  0  0  0  0
   -1.8658    0.5623    0.4239 H   0  0  0  0  0  0  0  0  0  0  0  0
   -1.8479   -0.5437   -1.0675 H   0  0  0  0  0  0  0  0  0  0  0  0
  1  2  2  0
  1  4  1  0
  1  5  1  0
  2  3  2  0
  3  6  1  0
  3  7  1  0
M  END
>  <reaction>  (1) 
rxn_1814

>  <mol_properties>  (1) 
{"0": {"label": "donator", "atom_type": "Cd"}, "3": {"label": "d_hydrogen", "atom_type": "H0"}}

>  <type>  (1) 
r1h

$$$$

     RDKit          3D

  7  6  0  0  0  0  0  0  0  0999 V2000
   -1.3496    0.0255    0.0758 C   0  0  0  0  0  0  0  0  0  0  0  0
   -0.0636   -0.0704   -0.0033 C   0  0  0  0  0  0  0  0  0  0  0  0
    1.2597   -0.1602   -0.0839 C   0  0  0  0  0  0  0  0  0  0  0  0
    2.2616    1.2090   -0.0064 S   0  0  0  0  0  1  0  0  0  0  0  0
   -1.8547   -0.0180    1.0345 H   0  0  0  0  0  0  0  0  0  0  0  0
   -1.9552    0.1601   -0.8138 H   0  0  0  0  0  0  0  0  0  0  0  0
    1.7017   -1.1460   -0.2029 H   0  0  0  0  0  0  0  0  0  0  0  0
  1  2  2  0
  1  5  1  0
  1  6  1  0
  2  3  2  0
  3  4  1  0
  3  7  1  0
M  RAD  1   4   2
M  END
>  <reaction>  (2) 
rxn_1814

>  <mol_properties>  (2) 
{"1": {"label": "acceptor", "atom_type": "Cd"}}

>  <type>  (2) 
r2

$$$$

     RDKit          3D

  8  7  0  0  0  0  0  0  0  0999 V2000
   -1.1617    0.0338    0.5053 C   0  0  0  0  0  0  0  0  0  0  0  0
   -0.1023    0.4503   -0.1863 C   0  0  0  0  0  0  0  0  0  0  0  0
    1.0978   -0.3557   -0.3104 C   0  0  0  0  0  0  0  0  0  0  0  0
    2.4251    0.0667   -1.1256 S   0  0  0  0  0  0  0  0  0  0  0  0
   -1.1653   -0.9292    1.0039 H   0  0  0  0  0  0  0  0  0  0  0  0
   -2.0546    0.6389    0.5948 H   0  0  0  0  0  0  0  0  0  0  0  0
   -0.0991    1.4132   -0.6847 H   0  0  0  0  0  0  0  0  0  0  0  0
    1.0601   -1.3180    0.2032 H   0  0  0  0  0  0  0  0  0  0  0  0
  1  2  2  3
  1  5  1  0
  1  6  1  0
  2  3  1  0
  2  7  1  0
  3  4  2  0
  3  8  1  0
M  END
>  <reaction>  (3) 
rxn_1814

>  <mol_properties>  (3) 
{"1": {"label": "acceptor", "atom_type": "Cd"}, "7": {"label": "a_hydrogen", "atom_type": "H0"}}

>  <type>  (3) 
r2h

$$$$

     RDKit          3D

 14 12  0  0  0  0  0  0  0  0999 V2000
   -1.2251   -1.6513   -0.5780 C   0  0  0  0  0  0  0  0  0  0  0  0
   -0.6117   -0.8246    0.2483 C   0  0  0  0  0  0  0  0  0  0  0  0
   -0.6035   -0.8138    1.6847 C   0  0  0  0  0  0  0  0  0  0  0  0
    0.1772    0.2382    2.6279 S   0  0  0  0  0  1  0  0  0  0  0  0
   -1.8361   -2.4750   -0.2131 H   0  0  0  0  0  0  0  0  0  0  0  0
   -1.1391   -1.5352   -1.6536 H   0  0  0  0  0  0  0  0  0  0  0  0
   -1.1961   -1.6126    2.1431 H   0  0  0  0  0  0  0  0  0  0  0  0
    0.7636    1.0292   -1.0975 C   0  0  0  0  0  0  0  0  0  0  0  0
    0.6731    0.9073   -2.3697 C   0  0  0  0  0  0  0  0  0  0  0  0
    0.5325    0.7180   -3.6577 C   0  0  0  0  0  0  0  0  0  0  0  0
    0.1478    0.1990   -0.4088 H   0  0  0  0  0  0  0  0  0  0  0  0
    1.3055    1.7595   -0.5153 H   0  0  0  0  0  0  0  0  0  0  0  0
   -0.2654    1.2012   -4.2084 H   0  0  0  0  0  0  0  0  0  0  0  0
    1.2264    0.0945   -4.2085 H   0  0  0  0  0  0  0  0  0  0  0  0
  1  2  2  0
  1  5  1  0
  1  6  1  0
  2  3  2  0
  3  4  1  0
  3  7  1  0
  8  9  2  0
  8 11  1  0
  8 12  1  0
  9 10  2  0
 10 13  1  0
 10 14  1  0
M  RAD  1   4   2
M  END
>  <reaction>  (4) 
rxn_1814

>  <mol_properties>  (4) 
{"1": {"label": "*3", "atom_type": "Cdd"}, "2": {"label": "*4", "atom_type": "Cd"}, "7": {"label": "*1", "atom_type": "Cd"}, "8": {"label": "*0", "atom_type": "Cdd"}, "10": {"label": "*2", "atom_type": "H0"}}

>  <type>  (4) 
ts

$$$$

     RDKit          3D

 14 12  0  0  0  0  0  0  0  0999 V2000
    0.7898   -1.9279    1.8043 C   0  0  0  0  0  0  0  0  0  0  0  0
    0.1756   -1.1006    0.9602 C   0  0  0  0  0  0  0  0  0  0  0  0
   -1.0551   -0.4184    1.3142 C   0  0  0  0  0  0  0  0  0  0  0  0
   -1.8662    0.5983    0.3586 S   0  0  0  0  0  1  0  0  0  0  0  0
    0.3894   -2.1226    2.7930 H   0  0  0  0  0  0  0  0  0  0  0  0
    1.7077   -2.4344    1.5353 H   0  0  0  0  0  0  0  0  0  0  0  0
   -1.4298   -0.6369    2.3158 H   0  0  0  0  0  0  0  0  0  0  0  0
    1.5034    0.6899   -0.3805 C   0  0  0  0  0  0  0  0  0  0  0  0
    1.5034    0.6899   -1.6792 C   0  0  0  0  0  0  0  0  0  0  0  0
    1.5034    0.6899   -2.9778 C   0  0  0  0  0  0  0  0  0  0  0  0
    0.8397   -0.2050    0.2896 H   0  0  0  0  0  0  0  0  0  0  0  0
    2.0564    1.4357    0.1779 H   0  0  0  0  0  0  0  0  0  0  0  0
    0.7576    1.2429   -3.5363 H   0  0  0  0  0  0  0  0  0  0  0  0
    2.2491    0.1369   -3.5363 H   0  0  0  0  0  0  0  0  0  0  0  0
  1  2  2  0
  1  5  1  0
  1  6  1  0
  2  3  2  0
  3  4  1  0
  3  7  1  0
  8  9  2  0
  8 11  1  0
  8 12  1  0
  9 10  2  0
 10 13  1  0
 10 14  1  0
M  RAD  1   4   2
M  END
>  <reaction>  (5) 
rxn_1814

>  <mol_properties>  (5) 
{"1": {"label": "*3", "atom_type": "Cdd"}, "2": {"label": "*4", "atom_type": "Cd"}, "7": {"label": "*1", "atom_type": "Cd"}, "8": {"label": "*0", "atom_type": "Cdd"}, "10": {"label": "*2", "atom_type": "H0"}}

>  <type>  (5) 
unop_1

>  <geom_source>  (5) 
Heuristics

$$$$

     RDKit          3D

 14 12  0  0  0  0  0  0  0  0999 V2000
   -0.6440   -2.2331   -0.2457 C   0  0  0  0  0  0  0  0  0  0  0  0
   -0.4459   -1.0100    0.2432 C   0  0  0  0  0  0  0  0  0  0  0  0
   -0.6074   -0.7126    1.6542 C   0  0  0  0  0  0  0  0  0  0  0  0
   -0.3892    0.7350    2.3335 S   0  0  0  0  0  1  0  0  0  0  0  0
   -0.9351   -3.0561    0.3976 H   0  0  0  0  0  0  0  0  0  0  0  0
   -0.5222   -2.4496   -1.2991 H   0  0  0  0  0  0  0  0  0  0  0  0
   -0.9006   -1.5631    2.2724 H   0  0  0  0  0  0  0  0  0  0  0  0
    0.8818    0.7805   -1.0975 C   0  0  0  0  0  0  0  0  0  0  0  0
    0.8818    0.7805   -2.3961 C   0  0  0  0  0  0  0  0  0  0  0  0
    0.8818    0.7805   -3.6948 C   0  0  0  0  0  0  0  0  0  0  0  0
    0.2182   -0.1144   -0.4274 H   0  0  0  0  0  0  0  0  0  0  0  0
    1.4348    1.5262   -0.5391 H   0  0  0  0  0  0  0  0  0  0  0  0
    0.1360    1.3335   -4.2532 H   0  0  0  0  0  0  0  0  0  0  0  0
    1.6276    0.2275   -4.2532 H   0  0  0  0  0  0  0  0  0  0  0  0
  1  2  2  0
  1  5  1  0
  1  6  1  0
  2  3  2  0
  3  4  1  0
  3  7  1  0
  8  9  2  0
  8 11  1  0
  8 12  1  0
  9 10  2  0
 10 13  1  0
 10 14  1  0
M  RAD  1   4   2
M  END
>  <reaction>  (6) 
rxn_1814

>  <mol_properties>  (6) 
{"1": {"label": "*3", "atom_type": "Cdd"}, "2": {"label": "*4", "atom_type": "Cd"}, "7": {"label": "*1", "atom_type": "Cd"}, "8": {"label": "*0", "atom_type": "Cdd"}, "10": {"label": "*2", "atom_type": "H0"}}

>  <type>  (6) 
unop_2

>  <geom_source>  (6) 
Heuristics

$$$$

     RDKit          3D

 14 12  0  0  0  0  0  0  0  0999 V2000
    0.6193   -1.1990    2.5229 C   0  0  0  0  0  0  0  0  0  0  0  0
    0.2119   -0.7926    1.3217 C   0  0  0  0  0  0  0  0  0  0  0  0
   -1.1944   -0.6321    1.0025 C   0  0  0  0  0  0  0  0  0  0  0  0
   -1.7784   -0.1462   -0.4215 S   0  0  0  0  0  1  0  0  0  0  0  0
   -0.0903   -1.4262    3.3108 H   0  0  0  0  0  0  0  0  0  0  0  0
    1.6696   -1.3171    2.7559 H   0  0  0  0  0  0  0  0  0  0  0  0
   -1.8806   -0.8691    1.8176 H   0  0  0  0  0  0  0  0  0  0  0  0
    1.5396    0.9980   -0.0190 C   0  0  0  0  0  0  0  0  0  0  0  0
    1.5396    0.9980   -1.3177 C   0  0  0  0  0  0  0  0  0  0  0  0
    1.5396    0.9980   -2.6164 C   0  0  0  0  0  0  0  0  0  0  0  0
    0.8760    0.1030    0.6511 H   0  0  0  0  0  0  0  0  0  0  0  0
    2.0926    1.7437    0.5394 H   0  0  0  0  0  0  0  0  0  0  0  0
    0.7938    1.5510   -3.1748 H   0  0  0  0  0  0  0  0  0  0  0  0
    2.2854    0.4449   -3.1748 H   0  0  0  0  0  0  0  0  0  0  0  0
  1  2  2  0
  1  5  1  0
  1  6  1  0
  2  3  2  0
  3  4  1  0
  3  7  1  0
  8  9  2  0
  8 11  1  0
  8 12  1  0
  9 10  2  0
 10 13  1  0
 10 14  1  0
M  RAD  1   4   2
M  END
>  <reaction>  (7) 
rxn_1814

>  <mol_properties>  (7) 
{"1": {"label": "*3", "atom_type": "Cdd"}, "2": {"label": "*4", "atom_type": "Cd"}, "7": {"label": "*1", "atom_type": "Cd"}, "8": {"label": "*0", "atom_type": "Cdd"}, "10": {"label": "*2", "atom_type": "H0"}}

>  <type>  (7) 
unop_3

>  <geom_source>  (7) 
Heuristics

$$$$

     RDKit          3D

 14 12  0  0  0  0  0  0  0  0999 V2000
   -2.3458   -0.6720    0.2487 C   0  0  0  0  0  0  0  0  0  0  0  0
   -1.0262   -0.5480    0.3804 C   0  0  0  0  0  0  0  0  0  0  0  0
   -0.3513   -0.8248    1.6347 C   0  0  0  0  0  0  0  0  0  0  0  0
    1.2383   -0.7019    1.8857 S   0  0  0  0  0  1  0  0  0  0  0  0
   -2.9674   -0.9863    1.0797 H   0  0  0  0  0  0  0  0  0  0  0  0
   -2.8444   -0.4643   -0.6892 H   0  0  0  0  0  0  0  0  0  0  0  0
   -1.0063   -1.1386    2.4494 H   0  0  0  0  0  0  0  0  0  0  0  0
    0.3015    1.2425   -0.9603 C   0  0  0  0  0  0  0  0  0  0  0  0
    0.3015    1.2425   -2.2590 C   0  0  0  0  0  0  0  0  0  0  0  0
    0.3015    1.2425   -3.5577 C   0  0  0  0  0  0  0  0  0  0  0  0
   -0.3621    0.3476   -0.2902 H   0  0  0  0  0  0  0  0  0  0  0  0
    0.8546    1.9883   -0.4019 H   0  0  0  0  0  0  0  0  0  0  0  0
   -0.4442    1.7955   -4.1161 H   0  0  0  0  0  0  0  0  0  0  0  0
    1.0473    0.6895   -4.1161 H   0  0  0  0  0  0  0  0  0  0  0  0
  1  2  2  0
  1  5  1  0
  1  6  1  0
  2  3  2  0
  3  4  1  0
  3  7  1  0
  8  9  2  0
  8 11  1  0
  8 12  1  0
  9 10  2  0
 10 13  1  0
 10 14  1  0
M  RAD  1   4   2
M  END
>  <reaction>  (8) 
rxn_1814

>  <mol_properties>  (8) 
{"1": {"label": "*3", "atom_type": "Cdd"}, "2": {"label": "*4", "atom_type": "Cd"}, "7": {"label": "*1", "atom_type": "Cd"}, "8": {"label": "*0", "atom_type": "Cdd"}, "10": {"label": "*2", "atom_type": "H0"}}

>  <type>  (8) 
unop_4

>  <geom_source>  (8) 
Heuristics

$$$$

     RDKit          3D

 14 12  0  0  0  0  0  0  0  0999 V2000
   -0.1636   -0.2206    2.8755 C   0  0  0  0  0  0  0  0  0  0  0  0
   -0.1605   -0.2164    1.5436 C   0  0  0  0  0  0  0  0  0  0  0  0
   -0.8923   -1.2033    0.7718 C   0  0  0  0  0  0  0  0  0  0  0  0
   -0.9456   -1.2753   -0.8397 S   0  0  0  0  0  1  0  0  0  0  0  0
   -0.7170   -0.9669    3.4347 H   0  0  0  0  0  0  0  0  0  0  0  0
    0.3840    0.5179    3.4465 H   0  0  0  0  0  0  0  0  0  0  0  0
   -1.4378   -1.9389    1.3658 H   0  0  0  0  0  0  0  0  0  0  0  0
    1.1673    1.5741    0.2028 C   0  0  0  0  0  0  0  0  0  0  0  0
    1.1673    1.5741   -1.0958 C   0  0  0  0  0  0  0  0  0  0  0  0
    1.1673    1.5741   -2.3945 C   0  0  0  0  0  0  0  0  0  0  0  0
    0.5036    0.6792    0.8729 H   0  0  0  0  0  0  0  0  0  0  0  0
    1.7203    2.3199    0.7613 H   0  0  0  0  0  0  0  0  0  0  0  0
    0.4215    2.1271   -2.9529 H   0  0  0  0  0  0  0  0  0  0  0  0
    1.9130    1.0211   -2.9529 H   0  0  0  0  0  0  0  0  0  0  0  0
  1  2  2  0
  1  5  1  0
  1  6  1  0
  2  3  2  0
  3  4  1  0
  3  7  1  0
  8  9  2  0
  8 11  1  0
  8 12  1  0
  9 10  2  0
 10 13  1  0
 10 14  1  0
M  RAD  1   4   2
M  END
>  <reaction>  (9) 
rxn_1814

>  <mol_properties>  (9) 
{"1": {"label": "*3", "atom_type": "Cdd"}, "2": {"label": "*4", "atom_type": "Cd"}, "7": {"label": "*1", "atom_type": "Cd"}, "8": {"label": "*0", "atom_type": "Cdd"}, "10": {"label": "*2", "atom_type": "H0"}}

>  <type>  (9) 
unop_5

>  <geom_source>  (9) 
Heuristics

$$$$

     RDKit          3D

 14 12  0  0  0  0  0  0  0  0999 V2000
   -2.4092   -0.1428    0.9830 C   0  0  0  0  0  0  0  0  0  0  0  0
   -1.1419   -0.3454    0.6269 C   0  0  0  0  0  0  0  0  0  0  0  0
   -0.1773   -0.9432    1.5310 C   0  0  0  0  0  0  0  0  0  0  0  0
    1.3739   -1.2257    1.1866 S   0  0  0  0  0  1  0  0  0  0  0  0
   -2.7681   -0.4192    1.9682 H   0  0  0  0  0  0  0  0  0  0  0  0
   -3.1248    0.3036    0.3047 H   0  0  0  0  0  0  0  0  0  0  0  0
   -0.5718   -1.2091    2.5134 H   0  0  0  0  0  0  0  0  0  0  0  0
    0.1859    1.4451   -0.7139 C   0  0  0  0  0  0  0  0  0  0  0  0
    0.1859    1.4451   -2.0125 C   0  0  0  0  0  0  0  0  0  0  0  0
    0.1859    1.4451   -3.3112 C   0  0  0  0  0  0  0  0  0  0  0  0
   -0.4778    0.5502   -0.0438 H   0  0  0  0  0  0  0  0  0  0  0  0
    0.7389    2.1909   -0.1554 H   0  0  0  0  0  0  0  0  0  0  0  0
   -0.5599    1.9981   -3.8696 H   0  0  0  0  0  0  0  0  0  0  0  0
    0.9316    0.8921   -3.8696 H   0  0  0  0  0  0  0  0  0  0  0  0
  1  2  2  0
  1  5  1  0
  1  6  1  0
  2  3  2  0
  3  4  1  0
  3  7  1  0
  8  9  2  0
  8 11  1  0
  8 12  1  0
  9 10  2  0
 10 13  1  0
 10 14  1  0
M  RAD  1   4   2
M  END
>  <reaction>  (10) 
rxn_1814

>  <mol_properties>  (10) 
{"1": {"label": "*3", "atom_type": "Cdd"}, "2": {"label": "*4", "atom_type": "Cd"}, "7": {"label": "*1", "atom_type": "Cd"}, "8": {"label": "*0", "atom_type": "Cdd"}, "10": {"label": "*2", "atom_type": "H0"}}

>  <type>  (10) 
unop_6

>  <geom_source>  (10) 
Heuristics

$$$$

     RDKit          3D

 14 12  0  0  0  0  0  0  0  0999 V2000
   -2.0742    0.1959    1.8043 C   0  0  0  0  0  0  0  0  0  0  0  0
   -1.1042   -0.1516    0.9602 C   0  0  0  0  0  0  0  0  0  0  0  0
   -0.0939   -1.1311    1.3142 C   0  0  0  0  0  0  0  0  0  0  0  0
    1.1145   -1.6120    0.3586 S   0  0  0  0  0  1  0  0  0  0  0  0
   -2.1442   -0.2438    2.7930 H   0  0  0  0  0  0  0  0  0  0  0  0
   -2.8254    0.9271    1.5353 H   0  0  0  0  0  0  0  0  0  0  0  0
   -0.1942   -1.5532    2.3158 H   0  0  0  0  0  0  0  0  0  0  0  0
    0.2236    1.6389   -0.3805 C   0  0  0  0  0  0  0  0  0  0  0  0
    0.2236    1.6389   -1.6792 C   0  0  0  0  0  0  0  0  0  0  0  0
    0.2236    1.6389   -2.9778 C   0  0  0  0  0  0  0  0  0  0  0  0
   -0.4401    0.7440    0.2896 H   0  0  0  0  0  0  0  0  0  0  0  0
    0.7766    2.3847    0.1779 H   0  0  0  0  0  0  0  0  0  0  0  0
   -0.5222    2.1919   -3.5363 H   0  0  0  0  0  0  0  0  0  0  0  0
    0.9693    1.0859   -3.5363 H   0  0  0  0  0  0  0  0  0  0  0  0
  1  2  2  0
  1  5  1  0
  1  6  1  0
  2  3  2  0
  3  4  1  0
  3  7  1  0
  8  9  2  0
  8 11  1  0
  8 12  1  0
  9 10  2  0
 10 13  1  0
 10 14  1  0
M  RAD  1   4   2
M  END
>  <reaction>  (11) 
rxn_1814

>  <mol_properties>  (11) 
{"1": {"label": "*3", "atom_type": "Cdd"}, "2": {"label": "*4", "atom_type": "Cd"}, "7": {"label": "*1", "atom_type": "Cd"}, "8": {"label": "*0", "atom_type": "Cdd"}, "10": {"label": "*2", "atom_type": "H0"}}

>  <type>  (11) 
unop_7

>  <geom_source>  (11) 
Heuristics

$$$$

     RDKit          3D

 14 12  0  0  0  0  0  0  0  0999 V2000
    0.5631   -2.3468    0.9830 C   0  0  0  0  0  0  0  0  0  0  0  0
    0.0011   -1.1930    0.6269 C   0  0  0  0  0  0  0  0  0  0  0  0
   -0.8510   -0.4436    1.5310 C   0  0  0  0  0  0  0  0  0  0  0  0
   -1.5719    0.9587    1.1866 S   0  0  0  0  0  1  0  0  0  0  0  0
    0.4028   -2.7705    1.9682 H   0  0  0  0  0  0  0  0  0  0  0  0
    1.1980   -2.9020    0.3047 H   0  0  0  0  0  0  0  0  0  0  0  0
   -0.9909   -0.8983    2.5134 H   0  0  0  0  0  0  0  0  0  0  0  0
    1.3289    0.5975   -0.7139 C   0  0  0  0  0  0  0  0  0  0  0  0
    1.3289    0.5975   -2.0125 C   0  0  0  0  0  0  0  0  0  0  0  0
    1.3289    0.5975   -3.3112 C   0  0  0  0  0  0  0  0  0  0  0  0
    0.6652   -0.2974   -0.0438 H   0  0  0  0  0  0  0  0  0  0  0  0
    1.8819    1.3433   -0.1554 H   0  0  0  0  0  0  0  0  0  0  0  0
    0.5831    1.1506   -3.8696 H   0  0  0  0  0  0  0  0  0  0  0  0
    2.0746    0.0445   -3.8696 H   0  0  0  0  0  0  0  0  0  0  0  0
  1  2  2  0
  1  5  1  0
  1  6  1  0
  2  3  2  0
  3  4  1  0
  3  7  1  0
  8  9  2  0
  8 11  1  0
  8 12  1  0
  9 10  2  0
 10 13  1  0
 10 14  1  0
M  RAD  1   4   2
M  END
>  <reaction>  (12) 
rxn_1814

>  <mol_properties>  (12) 
{"1": {"label": "*3", "atom_type": "Cdd"}, "2": {"label": "*4", "atom_type": "Cd"}, "7": {"label": "*1", "atom_type": "Cd"}, "8": {"label": "*0", "atom_type": "Cdd"}, "10": {"label": "*2", "atom_type": "H0"}}

>  <type>  (12) 
unop_8

>  <geom_source>  (12) 
Heuristics

$$$$

     RDKit          3D

 14 12  0  0  0  0  0  0  0  0999 V2000
   -1.9498   -1.2648   -0.2457 C   0  0  0  0  0  0  0  0  0  0  0  0
   -0.8370   -0.7200    0.2432 C   0  0  0  0  0  0  0  0  0  0  0  0
   -0.5055   -0.7882    1.6542 C   0  0  0  0  0  0  0  0  0  0  0  0
    0.8164   -0.1590    2.3335 S   0  0  0  0  0  1  0  0  0  0  0  0
   -2.6528   -1.7824    0.3976 H   0  0  0  0  0  0  0  0  0  0  0  0
   -2.1924   -1.2112   -1.2991 H   0  0  0  0  0  0  0  0  0  0  0  0
   -1.2341   -1.3158    2.2724 H   0  0  0  0  0  0  0  0  0  0  0  0
    0.4907    1.0705   -1.0975 C   0  0  0  0  0  0  0  0  0  0  0  0
    0.4907    1.0705   -2.3961 C   0  0  0  0  0  0  0  0  0  0  0  0
    0.4907    1.0705   -3.6948 C   0  0  0  0  0  0  0  0  0  0  0  0
   -0.1729    0.1756   -0.4274 H   0  0  0  0  0  0  0  0  0  0  0  0
    1.0437    1.8162   -0.5391 H   0  0  0  0  0  0  0  0  0  0  0  0
   -0.2550    1.6235   -4.2532 H   0  0  0  0  0  0  0  0  0  0  0  0
    1.2365    0.5175   -4.2532 H   0  0  0  0  0  0  0  0  0  0  0  0
  1  2  2  0
  1  5  1  0
  1  6  1  0
  2  3  2  0
  3  4  1  0
  3  7  1  0
  8  9  2  0
  8 11  1  0
  8 12  1  0
  9 10  2  0
 10 13  1  0
 10 14  1  0
M  RAD  1   4   2
M  END
>  <reaction>  (13) 
rxn_1814

>  <mol_properties>  (13) 
{"1": {"label": "*3", "atom_type": "Cdd"}, "2": {"label": "*4", "atom_type": "Cd"}, "7": {"label": "*1", "atom_type": "Cd"}, "8": {"label": "*0", "atom_type": "Cdd"}, "10": {"label": "*2", "atom_type": "H0"}}

>  <type>  (13) 
unop_9

>  <geom_source>  (13) 
Heuristics

$$$$

     RDKit          3D

 14 12  0  0  0  0  0  0  0  0999 V2000
    0.0383   -2.4398    0.2487 C   0  0  0  0  0  0  0  0  0  0  0  0
   -0.2264   -1.1411    0.3804 C   0  0  0  0  0  0  0  0  0  0  0  0
   -0.6872   -0.5757    1.6347 C   0  0  0  0  0  0  0  0  0  0  0  0
   -1.0313    0.9810    1.8857 S   0  0  0  0  0  1  0  0  0  0  0  0
   -0.0820   -3.1259    1.0797 H   0  0  0  0  0  0  0  0  0  0  0  0
    0.3818   -2.8566   -0.6892 H   0  0  0  0  0  0  0  0  0  0  0  0
   -0.7973   -1.2936    2.4494 H   0  0  0  0  0  0  0  0  0  0  0  0
    1.1014    0.6494   -0.9603 C   0  0  0  0  0  0  0  0  0  0  0  0
    1.1014    0.6494   -2.2590 C   0  0  0  0  0  0  0  0  0  0  0  0
    1.1014    0.6494   -3.5577 C   0  0  0  0  0  0  0  0  0  0  0  0
    0.4378   -0.2455   -0.2902 H   0  0  0  0  0  0  0  0  0  0  0  0
    1.6544    1.3952   -0.4019 H   0  0  0  0  0  0  0  0  0  0  0  0
    0.3556    1.2024   -4.1161 H   0  0  0  0  0  0  0  0  0  0  0  0
    1.8471    0.0964   -4.1161 H   0  0  0  0  0  0  0  0  0  0  0  0
  1  2  2  0
  1  5  1  0
  1  6  1  0
  2  3  2  0
  3  4  1  0
  3  7  1  0
  8  9  2  0
  8 11  1  0
  8 12  1  0
  9 10  2  0
 10 13  1  0
 10 14  1  0
M  RAD  1   4   2
M  END
>  <reaction>  (14) 
rxn_1814

>  <mol_properties>  (14) 
{"1": {"label": "*3", "atom_type": "Cdd"}, "2": {"label": "*4", "atom_type": "Cd"}, "7": {"label": "*1", "atom_type": "Cd"}, "8": {"label": "*0", "atom_type": "Cdd"}, "10": {"label": "*2", "atom_type": "H0"}}

>  <type>  (14) 
unop_10

>  <geom_source>  (14) 
Heuristics

$$$$

     RDKit          3D

 14 12  0  0  0  0  0  0  0  0999 V2000
   -1.3272    0.2443    2.5229 C   0  0  0  0  0  0  0  0  0  0  0  0
   -0.8199   -0.0274    1.3217 C   0  0  0  0  0  0  0  0  0  0  0  0
   -0.2580   -1.3265    1.0025 C   0  0  0  0  0  0  0  0  0  0  0  0
    0.3766   -1.7442   -0.4215 S   0  0  0  0  0  1  0  0  0  0  0  0
   -1.3385   -0.5006    3.3108 H   0  0  0  0  0  0  0  0  0  0  0  0
   -1.7452    1.2151    2.7559 H   0  0  0  0  0  0  0  0  0  0  0  0
   -0.2855   -2.0519    1.8176 H   0  0  0  0  0  0  0  0  0  0  0  0
    0.5078    1.7631   -0.0190 C   0  0  0  0  0  0  0  0  0  0  0  0
    0.5078    1.7631   -1.3177 C   0  0  0  0  0  0  0  0  0  0  0  0
    0.5078    1.7631   -2.6164 C   0  0  0  0  0  0  0  0  0  0  0  0
   -0.1558    0.8682    0.6511 H   0  0  0  0  0  0  0  0  0  0  0  0
    1.0608    2.5088    0.5394 H   0  0  0  0  0  0  0  0  0  0  0  0
   -0.2380    2.3161   -3.1748 H   0  0  0  0  0  0  0  0  0  0  0  0
    1.2536    1.2101   -3.1748 H   0  0  0  0  0  0  0  0  0  0  0  0
  1  2  2  0
  1  5  1  0
  1  6  1  0
  2  3  2  0
  3  4  1  0
  3  7  1  0
  8  9  2  0
  8 11  1  0
  8 12  1  0
  9 10  2  0
 10 13  1  0
 10 14  1  0
M  RAD  1   4   2
M  END
>  <reaction>  (15) 
rxn_1814

>  <mol_properties>  (15) 
{"1": {"label": "*3", "atom_type": "Cdd"}, "2": {"label": "*4", "atom_type": "Cd"}, "7": {"label": "*1", "atom_type": "Cd"}, "8": {"label": "*0", "atom_type": "Cdd"}, "10": {"label": "*2", "atom_type": "H0"}}

>  <type>  (15) 
unop_11

>  <geom_source>  (15) 
Heuristics

$$$$

     RDKit          3D

 14 12  0  0  0  0  0  0  0  0999 V2000
   -1.3433   -1.8115   -0.4174 C   0  0  0  0  0  0  0  0  0  0  0  0
   -0.6410   -0.8644    0.2023 C   0  0  0  0  0  0  0  0  0  0  0  0
   -0.5779   -0.7793    1.6493 C   0  0  0  0  0  0  0  0  0  0  0  0
    0.2450    0.3304    2.4837 S   0  0  0  0  0  1  0  0  0  0  0  0
   -1.8969   -2.5581    0.1412 H   0  0  0  0  0  0  0  0  0  0  0  0
   -1.3871   -1.8705   -1.4972 H   0  0  0  0  0  0  0  0  0  0  0  0
   -1.1461   -1.5456    2.1799 H   0  0  0  0  0  0  0  0  0  0  0  0
    0.6867    0.9261   -1.1385 C   0  0  0  0  0  0  0  0  0  0  0  0
    0.6867    0.9261   -2.4371 C   0  0  0  0  0  0  0  0  0  0  0  0
    0.6867    0.9261   -3.7358 C   0  0  0  0  0  0  0  0  0  0  0  0
    0.0231    0.0312   -0.4684 H   0  0  0  0  0  0  0  0  0  0  0  0
    1.2397    1.6718   -0.5800 H   0  0  0  0  0  0  0  0  0  0  0  0
   -0.0590    1.4791   -4.2942 H   0  0  0  0  0  0  0  0  0  0  0  0
    1.4325    0.3731   -4.2942 H   0  0  0  0  0  0  0  0  0  0  0  0
  1  2  2  0
  1  5  1  0
  1  6  1  0
  2  3  2  0
  3  4  1  0
  3  7  1  0
  8  9  2  0
  8 11  1  0
  8 12  1  0
  9 10  2  0
 10 13  1  0
 10 14  1  0
M  RAD  1   4   2
M  END
>  <reaction>  (16) 
rxn_1814

>  <mol_properties>  (16) 
{"1": {"label": "*3", "atom_type": "Cdd"}, "2": {"label": "*4", "atom_type": "Cd"}, "7": {"label": "*1", "atom_type": "Cd"}, "8": {"label": "*0", "atom_type": "Cdd"}, "10": {"label": "*2", "atom_type": "H0"}}

>  <type>  (16) 
unop_12

>  <geom_source>  (16) 
Heuristics

$$$$

     RDKit          3D

 14 12  0  0  0  0  0  0  0  0999 V2000
    0.7356    1.0184    1.3730 S   0  0  0  0  0  0  0  0  0  0  0  0
   -1.3009   -0.0379   -0.0255 C   0  0  0  0  0  0  0  0  0  0  0  0
   -2.5519   -0.0450   -0.4735 C   0  0  0  0  0  0  0  0  0  0  0  0
   -0.8077    1.0388    0.8391 C   0  0  0  0  0  0  0  0  0  0  0  0
    2.6192    0.3404   -0.1110 C   0  0  0  0  0  3  0  0  0  0  0  0
    1.6974   -0.5578   -0.3117 C   0  0  0  0  0  0  0  0  0  0  0  0
    0.7757   -1.4560   -0.5123 C   0  0  0  0  0  0  0  0  0  0  0  0
   -0.5041   -1.0047   -0.3626 H   0  0  0  0  0  0  0  0  0  0  0  0
   -2.8897   -0.8517   -1.1101 H   0  0  0  0  0  0  0  0  0  0  0  0
   -3.2463    0.7447   -0.2136 H   0  0  0  0  0  0  0  0  0  0  0  0
   -1.4565    1.8549    1.1320 H   0  0  0  0  0  0  0  0  0  0  0  0
    2.4707    1.3543   -0.4565 H   0  0  0  0  0  0  0  0  0  0  0  0
    3.5331    0.0721    0.4012 H   0  0  0  0  0  0  0  0  0  0  0  0
    0.9254   -2.4703   -0.1685 H   0  0  0  0  0  0  0  0  0  0  0  0
  1  4  2  0
  2  3  2  3
  2  4  1  0
  2  8  1  0
  3  9  1  0
  3 10  1  0
  4 11  1  0
  5  6  1  0
  5 12  1  0
  5 13  1  0
  6  7  3  0
  7 14  1  0
M  RAD  1   5   2
M  END
>  <reaction>  (17) 
rxn_1814

>  <mol_properties>  (17) 
{"1": {"label": "*3", "atom_type": "Cdd"}, "2": {"label": "*4", "atom_type": "Cd"}, "7": {"label": "*1", "atom_type": "Cd"}, "8": {"label": "*0", "atom_type": "Cdd"}, "10": {"label": "*2", "atom_type": "H0"}}

>  <type>  (17) 
unop_13

>  <geom_source>  (17) 
AutoTST

$$$$
