
     RDKit          3D

 11 10  0  0  0  0  0  0  0  0999 V2000
   -1.2710    0.1907   -0.2084 C   0  0  0  0  0  0  0  0  0  0  0  0
    0.0202   -0.6130   -0.2928 C   0  0  0  0  0  0  0  0  0  0  0  0
    0.1086   -1.6953    0.7756 C   0  0  0  0  0  0  0  0  0  0  0  0
   -1.3607    0.6851    0.7620 H   0  0  0  0  0  0  0  0  0  0  0  0
   -2.1429   -0.4567   -0.3299 H   0  0  0  0  0  0  0  0  0  0  0  0
   -1.3158    0.9602   -0.9809 H   0  0  0  0  0  0  0  0  0  0  0  0
    0.8757    0.0616   -0.1992 H   0  0  0  0  0  0  0  0  0  0  0  0
    0.0997   -1.0712   -1.2825 H   0  0  0  0  0  0  0  0  0  0  0  0
   -0.7198   -2.4022    0.6850 H   0  0  0  0  0  0  0  0  0  0  0  0
    1.0395   -2.2596    0.6989 H   0  0  0  0  0  0  0  0  0  0  0  0
    0.0624   -1.2603    1.7770 H   0  0  0  0  0  0  0  0  0  0  0  0
  1  2  1  0
  1  4  1  0
  1  5  1  0
  1  6  1  0
  2  3  1  0
  2  7  1  0
  2  8  1  0
  3  9  1  0
  3 10  1  0
  3 11  1  0
M  END
>  <reaction>  (1) 
rxn_929

>  <mol_properties>  (1) 
{"1": {"label": "donator", "atom_type": "Cs"}, "6": {"label": "d_hydrogen", "atom_type": "H0"}}

>  <type>  (1) 
r1h

$$$$

     RDKit          3D

  7  6  0  0  0  0  0  0  0  0999 V2000
    1.3002    0.7433    2.1279 C   0  0  0  0  0  0  0  0  0  0  0  0
    0.5758    0.3292    1.2319 C   0  0  0  0  0  0  0  0  0  0  0  0
   -0.2057   -0.1176    0.2652 C   0  0  0  0  0  3  0  0  0  0  0  0
   -0.9747   -0.5572   -0.6858 C   0  0  0  0  0  0  0  0  0  0  0  0
    1.9293    1.1030    2.9060 H   0  0  0  0  0  0  0  0  0  0  0  0
   -1.9977   -0.8727   -0.4932 H   0  0  0  0  0  0  0  0  0  0  0  0
   -0.6274   -0.6280   -1.7143 H   0  0  0  0  0  0  0  0  0  0  0  0
  1  2  3  0
  1  5  1  0
  2  3  1  0
  3  4  2  3
  4  6  1  0
  4  7  1  0
M  RAD  1   3   2
M  END
>  <reaction>  (2) 
rxn_929

>  <mol_properties>  (2) 
{"2": {"label": "acceptor", "atom_type": "Cd"}}

>  <type>  (2) 
r2

$$$$

     RDKit          3D

  8  7  0  0  0  0  0  0  0  0999 V2000
    1.9029    0.9046   -0.2050 C   0  0  0  0  0  0  0  0  0  0  0  0
    0.8517    0.4283    0.1217 C   0  0  0  0  0  0  0  0  0  0  0  0
   -0.3908   -0.1311    0.5404 C   0  0  0  0  0  0  0  0  0  0  0  0
   -1.2847   -0.6576   -0.2899 C   0  0  0  0  0  0  0  0  0  0  0  0
    2.8335    1.3255   -0.5014 H   0  0  0  0  0  0  0  0  0  0  0  0
   -0.5867   -0.1096    1.6074 H   0  0  0  0  0  0  0  0  0  0  0  0
   -2.2126   -1.0686    0.0850 H   0  0  0  0  0  0  0  0  0  0  0  0
   -1.1134   -0.6914   -1.3582 H   0  0  0  0  0  0  0  0  0  0  0  0
  1  2  3  0
  1  5  1  0
  2  3  1  0
  3  4  2  3
  3  6  1  0
  4  7  1  0
  4  8  1  0
M  END
>  <reaction>  (3) 
rxn_929

>  <mol_properties>  (3) 
{"2": {"label": "acceptor", "atom_type": "Cd"}, "7": {"label": "a_hydrogen", "atom_type": "H0"}}

>  <type>  (3) 
r2h

$$$$

     RDKit          3D

 18 16  0  0  0  0  0  0  0  0999 V2000
    2.5894    0.4853    0.2315 C   0  0  0  0  0  0  0  0  0  0  0  0
    1.6208   -0.1941    0.4617 C   0  0  0  0  0  0  0  0  0  0  0  0
    0.4254   -0.8871    0.6558 C   0  0  0  0  0  3  0  0  0  0  0  0
    0.1431   -2.0081    1.2935 C   0  0  0  0  0  0  0  0  0  0  0  0
    3.4616    1.0640    0.0447 H   0  0  0  0  0  0  0  0  0  0  0  0
    0.9065   -2.5891    1.8022 H   0  0  0  0  0  0  0  0  0  0  0  0
   -0.8728   -2.3857    1.3278 H   0  0  0  0  0  0  0  0  0  0  0  0
   -1.2211    0.3903   -1.9792 C   0  0  0  0  0  0  0  0  0  0  0  0
   -1.6092    0.3764   -0.5241 C   0  0  0  0  0  0  0  0  0  0  0  0
   -1.6410    1.7156    0.1641 C   0  0  0  0  0  0  0  0  0  0  0  0
   -0.2482    0.8693   -2.1146 H   0  0  0  0  0  0  0  0  0  0  0  0
   -1.9503    0.9510   -2.5737 H   0  0  0  0  0  0  0  0  0  0  0  0
   -1.1611   -0.6191   -2.3882 H   0  0  0  0  0  0  0  0  0  0  0  0
   -0.6477   -0.2741    0.0665 H   0  0  0  0  0  0  0  0  0  0  0  0
   -2.4839   -0.2407   -0.3139 H   0  0  0  0  0  0  0  0  0  0  0  0
   -2.3992    2.3677   -0.2826 H   0  0  0  0  0  0  0  0  0  0  0  0
   -1.8692    1.6157    1.2261 H   0  0  0  0  0  0  0  0  0  0  0  0
   -0.6764    2.2206    0.0707 H   0  0  0  0  0  0  0  0  0  0  0  0
  1  2  3  0
  1  5  1  0
  2  3  1  0
  3  4  2  3
  4  6  1  0
  4  7  1  0
  8  9  1  0
  8 11  1  0
  8 12  1  0
  8 13  1  0
  9 10  1  0
  9 14  1  0
  9 15  1  0
 10 16  1  0
 10 17  1  0
 10 18  1  0
M  RAD  1   3   2
M  END
>  <reaction>  (4) 
rxn_929

>  <mol_properties>  (4) 
{"1": {"label": "*4", "atom_type": "Ct"}, "2": {"label": "*3", "atom_type": "Cd"}, "7": {"label": "*0", "atom_type": "Cs"}, "8": {"label": "*1", "atom_type": "Cs"}, "13": {"label": "*2", "atom_type": "H0"}}

>  <type>  (4) 
ts

$$$$

     RDKit          3D

 18 16  0  0  0  0  0  0  0  0999 V2000
    2.3438    0.4658    1.6778 C   0  0  0  0  0  0  0  0  0  0  0  0
    1.5832   -0.1790    1.0113 C   0  0  0  0  0  0  0  0  0  0  0  0
    0.6764   -0.9208    0.1991 C   0  0  0  0  0  0  0  0  0  0  0  0
    0.2987   -2.1682    0.4580 C   0  0  0  0  0  0  0  0  0  0  0  0
    3.0181    1.0376    2.2689 H   0  0  0  0  0  0  0  0  0  0  0  0
    0.6690   -2.7034    1.3229 H   0  0  0  0  0  0  0  0  0  0  0  0
   -0.3937   -2.6829   -0.1949 H   0  0  0  0  0  0  0  0  0  0  0  0
   -1.4143    0.3854   -2.1944 C   0  0  0  0  0  0  0  0  0  0  0  0
   -1.4143    0.3854   -0.6711 C   0  0  0  0  0  3  0  0  0  0  0  0
   -1.4143    1.7912   -0.0844 C   0  0  0  0  0  0  0  0  0  0  0  0
   -0.5329    0.8996   -2.5850 H   0  0  0  0  0  0  0  0  0  0  0  0
   -2.2958    0.8996   -2.5850 H   0  0  0  0  0  0  0  0  0  0  0  0
   -1.4143   -0.6295   -2.5956 H   0  0  0  0  0  0  0  0  0  0  0  0
   -0.3649   -0.2702   -0.2343 H   0  0  0  0  0  0  0  0  0  0  0  0
   -2.2889   -0.1610   -0.3071 H   0  0  0  0  0  0  0  0  0  0  0  0
   -2.2958    2.3498   -0.4085 H   0  0  0  0  0  0  0  0  0  0  0  0
   -1.4143    1.7705    1.0068 H   0  0  0  0  0  0  0  0  0  0  0  0
   -0.5329    2.3498   -0.4085 H   0  0  0  0  0  0  0  0  0  0  0  0
  1  2  3  0
  1  5  1  0
  2  3  1  0
  3  4  2  3
  3 14  1  0
  4  6  1  0
  4  7  1  0
  8  9  1  0
  8 11  1  0
  8 12  1  0
  8 13  1  0
  9 10  1  0
  9 15  1  0
 10 16  1  0
 10 17  1  0
 10 18  1  0
M  RAD  1   9   2
M  END
>  <reaction>  (5) 
rxn_929

>  <mol_properties>  (5) 
{"1": {"label": "*4", "atom_type": "Ct"}, "2": {"label": "*3", "atom_type": "Cd"}, "7": {"label": "*0", "atom_type": "Cs"}, "8": {"label": "*1", "atom_type": "Cs"}, "13": {"label": "*2", "atom_type": "H0"}}

>  <type>  (5) 
unop_1

>  <geom_source>  (5) 
Heuristics

$$$$

     RDKit          3D

 18 16  0  0  0  0  0  0  0  0999 V2000
    2.6268   -0.7159   -0.8877 C   0  0  0  0  0  0  0  0  0  0  0  0
    1.6726   -0.7533   -0.1620 C   0  0  0  0  0  0  0  0  0  0  0  0
    0.5201   -0.7887    0.6762 C   0  0  0  0  0  0  0  0  0  0  0  0
    0.5477   -1.1246    1.9616 C   0  0  0  0  0  0  0  0  0  0  0  0
    3.4729   -0.6827   -1.5312 H   0  0  0  0  0  0  0  0  0  0  0  0
    1.4716   -1.3970    2.4554 H   0  0  0  0  0  0  0  0  0  0  0  0
   -0.3601   -1.1339    2.5501 H   0  0  0  0  0  0  0  0  0  0  0  0
   -1.5706    0.5175   -1.7173 C   0  0  0  0  0  0  0  0  0  0  0  0
   -1.5706    0.5175   -0.1940 C   0  0  0  0  0  3  0  0  0  0  0  0
   -1.5706    1.9233    0.3927 C   0  0  0  0  0  0  0  0  0  0  0  0
   -0.6891    1.0317   -2.1080 H   0  0  0  0  0  0  0  0  0  0  0  0
   -2.4520    1.0317   -2.1080 H   0  0  0  0  0  0  0  0  0  0  0  0
   -1.5706   -0.4974   -2.1185 H   0  0  0  0  0  0  0  0  0  0  0  0
   -0.5211   -0.1382    0.2428 H   0  0  0  0  0  0  0  0  0  0  0  0
   -2.4451   -0.0289    0.1700 H   0  0  0  0  0  0  0  0  0  0  0  0
   -2.4520    2.4818    0.0686 H   0  0  0  0  0  0  0  0  0  0  0  0
   -1.5706    1.9026    1.4838 H   0  0  0  0  0  0  0  0  0  0  0  0
   -0.6891    2.4818    0.0686 H   0  0  0  0  0  0  0  0  0  0  0  0
  1  2  3  0
  1  5  1  0
  2  3  1  0
  3  4  2  3
  3 14  1  0
  4  6  1  0
  4  7  1  0
  8  9  1  0
  8 11  1  0
  8 12  1  0
  8 13  1  0
  9 10  1  0
  9 15  1  0
 10 16  1  0
 10 17  1  0
 10 18  1  0
M  RAD  1   9   2
M  END
>  <reaction>  (6) 
rxn_929

>  <mol_properties>  (6) 
{"1": {"label": "*4", "atom_type": "Ct"}, "2": {"label": "*3", "atom_type": "Cd"}, "7": {"label": "*0", "atom_type": "Cs"}, "8": {"label": "*1", "atom_type": "Cs"}, "13": {"label": "*2", "atom_type": "H0"}}

>  <type>  (6) 
unop_2

>  <geom_source>  (6) 
Heuristics

$$$$

     RDKit          3D

 18 16  0  0  0  0  0  0  0  0999 V2000
    1.7207    0.0125    2.4385 C   0  0  0  0  0  0  0  0  0  0  0  0
    1.2858   -0.3716    1.3888 C   0  0  0  0  0  0  0  0  0  0  0  0
    0.7598   -0.7983    0.1345 C   0  0  0  0  0  0  0  0  0  0  0  0
    0.7938   -2.0552   -0.2953 C   0  0  0  0  0  0  0  0  0  0  0  0
    2.1064    0.3530    3.3692 H   0  0  0  0  0  0  0  0  0  0  0  0
    1.2346   -2.8448    0.2996 H   0  0  0  0  0  0  0  0  0  0  0  0
    0.3783   -2.3217   -1.2581 H   0  0  0  0  0  0  0  0  0  0  0  0
   -1.3310    0.5078   -2.2591 C   0  0  0  0  0  0  0  0  0  0  0  0
   -1.3310    0.5078   -0.7357 C   0  0  0  0  0  3  0  0  0  0  0  0
   -1.3310    1.9136   -0.1490 C   0  0  0  0  0  0  0  0  0  0  0  0
   -0.4495    1.0221   -2.6497 H   0  0  0  0  0  0  0  0  0  0  0  0
   -2.2124    1.0221   -2.6497 H   0  0  0  0  0  0  0  0  0  0  0  0
   -1.3310   -0.5071   -2.6602 H   0  0  0  0  0  0  0  0  0  0  0  0
   -0.2815   -0.1478   -0.2989 H   0  0  0  0  0  0  0  0  0  0  0  0
   -2.2055   -0.0385   -0.3717 H   0  0  0  0  0  0  0  0  0  0  0  0
   -2.2124    2.4722   -0.4731 H   0  0  0  0  0  0  0  0  0  0  0  0
   -1.3310    1.8930    0.9421 H   0  0  0  0  0  0  0  0  0  0  0  0
   -0.4495    2.4722   -0.4731 H   0  0  0  0  0  0  0  0  0  0  0  0
  1  2  3  0
  1  5  1  0
  2  3  1  0
  3  4  2  3
  3 14  1  0
  4  6  1  0
  4  7  1  0
  8  9  1  0
  8 11  1  0
  8 12  1  0
  8 13  1  0
  9 10  1  0
  9 15  1  0
 10 16  1  0
 10 17  1  0
 10 18  1  0
M  RAD  1   9   2
M  END
>  <reaction>  (7) 
rxn_929

>  <mol_properties>  (7) 
{"1": {"label": "*4", "atom_type": "Ct"}, "2": {"label": "*3", "atom_type": "Cd"}, "7": {"label": "*0", "atom_type": "Cs"}, "8": {"label": "*1", "atom_type": "Cs"}, "13": {"label": "*2", "atom_type": "H0"}}

>  <type>  (7) 
unop_3

>  <geom_source>  (7) 
Heuristics

$$$$

     RDKit          3D

 18 16  0  0  0  0  0  0  0  0999 V2000
    1.0200   -2.8831   -0.2260 C   0  0  0  0  0  0  0  0  0  0  0  0
    0.9543   -1.7397    0.1302 C   0  0  0  0  0  0  0  0  0  0  0  0
    0.8615   -0.3735    0.5262 C   0  0  0  0  0  0  0  0  0  0  0  0
    1.3189    0.0967    1.6818 C   0  0  0  0  0  0  0  0  0  0  0  0
    1.0784   -3.8970   -0.5418 H   0  0  0  0  0  0  0  0  0  0  0  0
    1.7999   -0.5495    2.4048 H   0  0  0  0  0  0  0  0  0  0  0  0
    1.2208    1.1453    1.9297 H   0  0  0  0  0  0  0  0  0  0  0  0
   -1.2292    0.9327   -1.8674 C   0  0  0  0  0  0  0  0  0  0  0  0
   -1.2292    0.9327   -0.3440 C   0  0  0  0  0  3  0  0  0  0  0  0
   -1.2292    2.3385    0.2427 C   0  0  0  0  0  0  0  0  0  0  0  0
   -0.3478    1.4469   -2.2580 H   0  0  0  0  0  0  0  0  0  0  0  0
   -2.1107    1.4469   -2.2580 H   0  0  0  0  0  0  0  0  0  0  0  0
   -1.2292   -0.0822   -2.2685 H   0  0  0  0  0  0  0  0  0  0  0  0
   -0.1798    0.2770    0.0928 H   0  0  0  0  0  0  0  0  0  0  0  0
   -2.1038    0.3863    0.0200 H   0  0  0  0  0  0  0  0  0  0  0  0
   -2.1107    2.8970   -0.0814 H   0  0  0  0  0  0  0  0  0  0  0  0
   -1.2292    2.3178    1.3338 H   0  0  0  0  0  0  0  0  0  0  0  0
   -0.3478    2.8970   -0.0814 H   0  0  0  0  0  0  0  0  0  0  0  0
  1  2  3  0
  1  5  1  0
  2  3  1  0
  3  4  2  3
  3 14  1  0
  4  6  1  0
  4  7  1  0
  8  9  1  0
  8 11  1  0
  8 12  1  0
  8 13  1  0
  9 10  1  0
  9 15  1  0
 10 16  1  0
 10 17  1  0
 10 18  1  0
M  RAD  1   9   2
M  END
>  <reaction>  (8) 
rxn_929

>  <mol_properties>  (8) 
{"1": {"label": "*4", "atom_type": "Ct"}, "2": {"label": "*3", "atom_type": "Cd"}, "7": {"label": "*0", "atom_type": "Cs"}, "8": {"label": "*1", "atom_type": "Cs"}, "13": {"label": "*2", "atom_type": "H0"}}

>  <type>  (8) 
unop_4

>  <geom_source>  (8) 
Heuristics

$$$$

     RDKit          3D

 18 16  0  0  0  0  0  0  0  0999 V2000
    1.0148   -0.8563    2.7490 C   0  0  0  0  0  0  0  0  0  0  0  0
    0.9212   -0.7978    1.5547 C   0  0  0  0  0  0  0  0  0  0  0  0
    0.7830   -0.7115    0.1385 C   0  0  0  0  0  0  0  0  0  0  0  0
    1.6400   -1.2469   -0.7245 C   0  0  0  0  0  0  0  0  0  0  0  0
    1.0979   -0.9082    3.8079 H   0  0  0  0  0  0  0  0  0  0  0  0
    2.5131   -1.7923   -0.3901 H   0  0  0  0  0  0  0  0  0  0  0  0
    1.4842   -1.1496   -1.7907 H   0  0  0  0  0  0  0  0  0  0  0  0
   -1.3077    0.5946   -2.2551 C   0  0  0  0  0  0  0  0  0  0  0  0
   -1.3077    0.5946   -0.7317 C   0  0  0  0  0  3  0  0  0  0  0  0
   -1.3077    2.0005   -0.1450 C   0  0  0  0  0  0  0  0  0  0  0  0
   -0.4262    1.1089   -2.6457 H   0  0  0  0  0  0  0  0  0  0  0  0
   -2.1891    1.1089   -2.6457 H   0  0  0  0  0  0  0  0  0  0  0  0
   -1.3077   -0.4202   -2.6562 H   0  0  0  0  0  0  0  0  0  0  0  0
   -0.2582   -0.0610   -0.2949 H   0  0  0  0  0  0  0  0  0  0  0  0
   -2.1822    0.0483   -0.3677 H   0  0  0  0  0  0  0  0  0  0  0  0
   -2.1891    2.5590   -0.4692 H   0  0  0  0  0  0  0  0  0  0  0  0
   -1.3077    1.9798    0.9461 H   0  0  0  0  0  0  0  0  0  0  0  0
   -0.4262    2.5590   -0.4691 H   0  0  0  0  0  0  0  0  0  0  0  0
  1  2  3  0
  1  5  1  0
  2  3  1  0
  3  4  2  3
  3 14  1  0
  4  6  1  0
  4  7  1  0
  8  9  1  0
  8 11  1  0
  8 12  1  0
  8 13  1  0
  9 10  1  0
  9 15  1  0
 10 16  1  0
 10 17  1  0
 10 18  1  0
M  RAD  1   9   2
M  END
>  <reaction>  (9) 
rxn_929

>  <mol_properties>  (9) 
{"1": {"label": "*4", "atom_type": "Ct"}, "2": {"label": "*3", "atom_type": "Cd"}, "7": {"label": "*0", "atom_type": "Cs"}, "8": {"label": "*1", "atom_type": "Cs"}, "13": {"label": "*2", "atom_type": "H0"}}

>  <type>  (9) 
unop_5

>  <geom_source>  (9) 
Heuristics

$$$$

     RDKit          3D

 18 16  0  0  0  0  0  0  0  0999 V2000
    0.5866   -2.9868    0.7064 C   0  0  0  0  0  0  0  0  0  0  0  0
    0.7516   -1.8086    0.5538 C   0  0  0  0  0  0  0  0  0  0  0  0
    0.9306   -0.4098    0.3458 C   0  0  0  0  0  0  0  0  0  0  0  0
    1.6187    0.3799    1.1636 C   0  0  0  0  0  0  0  0  0  0  0  0
    0.4403   -4.0314    0.8416 H   0  0  0  0  0  0  0  0  0  0  0  0
    2.0935   -0.0065    2.0563 H   0  0  0  0  0  0  0  0  0  0  0  0
    1.7217    1.4365    0.9550 H   0  0  0  0  0  0  0  0  0  0  0  0
   -1.1601    0.8964   -2.0478 C   0  0  0  0  0  0  0  0  0  0  0  0
   -1.1601    0.8964   -0.5244 C   0  0  0  0  0  3  0  0  0  0  0  0
   -1.1601    2.3022    0.0623 C   0  0  0  0  0  0  0  0  0  0  0  0
   -0.2786    1.4107   -2.4384 H   0  0  0  0  0  0  0  0  0  0  0  0
   -2.0415    1.4107   -2.4384 H   0  0  0  0  0  0  0  0  0  0  0  0
   -1.1601   -0.1185   -2.4489 H   0  0  0  0  0  0  0  0  0  0  0  0
   -0.1106    0.2408   -0.0876 H   0  0  0  0  0  0  0  0  0  0  0  0
   -2.0346    0.3500   -0.1604 H   0  0  0  0  0  0  0  0  0  0  0  0
   -2.0415    2.8608   -0.2619 H   0  0  0  0  0  0  0  0  0  0  0  0
   -1.1601    2.2815    1.1534 H   0  0  0  0  0  0  0  0  0  0  0  0
   -0.2786    2.8608   -0.2619 H   0  0  0  0  0  0  0  0  0  0  0  0
  1  2  3  0
  1  5  1  0
  2  3  1  0
  3  4  2  3
  3 14  1  0
  4  6  1  0
  4  7  1  0
  8  9  1  0
  8 11  1  0
  8 12  1  0
  8 13  1  0
  9 10  1  0
  9 15  1  0
 10 16  1  0
 10 17  1  0
 10 18  1  0
M  RAD  1   9   2
M  END
>  <reaction>  (10) 
rxn_929

>  <mol_properties>  (10) 
{"1": {"label": "*4", "atom_type": "Ct"}, "2": {"label": "*3", "atom_type": "Cd"}, "7": {"label": "*0", "atom_type": "Cs"}, "8": {"label": "*1", "atom_type": "Cs"}, "13": {"label": "*2", "atom_type": "H0"}}

>  <type>  (10) 
unop_6

>  <geom_source>  (10) 
Heuristics

$$$$

     RDKit          3D

 18 16  0  0  0  0  0  0  0  0999 V2000
    0.4094   -2.6304    1.6778 C   0  0  0  0  0  0  0  0  0  0  0  0
    0.6554   -1.6641    1.0113 C   0  0  0  0  0  0  0  0  0  0  0  0
    0.9243   -0.5239    0.1991 C   0  0  0  0  0  0  0  0  0  0  0  0
    1.8797    0.3627    0.4580 C   0  0  0  0  0  0  0  0  0  0  0  0
    0.1913   -3.4872    2.2689 H   0  0  0  0  0  0  0  0  0  0  0  0
    2.5232    0.2646    1.3229 H   0  0  0  0  0  0  0  0  0  0  0  0
    2.0387    1.2106   -0.1949 H   0  0  0  0  0  0  0  0  0  0  0  0
   -1.1664    0.7823   -2.1944 C   0  0  0  0  0  0  0  0  0  0  0  0
   -1.1664    0.7823   -0.6711 C   0  0  0  0  0  3  0  0  0  0  0  0
   -1.1664    2.1881   -0.0844 C   0  0  0  0  0  0  0  0  0  0  0  0
   -0.2849    1.2966   -2.5850 H   0  0  0  0  0  0  0  0  0  0  0  0
   -2.0478    1.2966   -2.5850 H   0  0  0  0  0  0  0  0  0  0  0  0
   -1.1664   -0.2326   -2.5956 H   0  0  0  0  0  0  0  0  0  0  0  0
   -0.1169    0.1267   -0.2343 H   0  0  0  0  0  0  0  0  0  0  0  0
   -2.0409    0.2359   -0.3071 H   0  0  0  0  0  0  0  0  0  0  0  0
   -2.0478    2.7467   -0.4085 H   0  0  0  0  0  0  0  0  0  0  0  0
   -1.1664    2.1674    1.0068 H   0  0  0  0  0  0  0  0  0  0  0  0
   -0.2849    2.7467   -0.4085 H   0  0  0  0  0  0  0  0  0  0  0  0
  1  2  3  0
  1  5  1  0
  2  3  1  0
  3  4  2  3
  3 14  1  0
  4  6  1  0
  4  7  1  0
  8  9  1  0
  8 11  1  0
  8 12  1  0
  8 13  1  0
  9 10  1  0
  9 15  1  0
 10 16  1  0
 10 17  1  0
 10 18  1  0
M  RAD  1   9   2
M  END
>  <reaction>  (11) 
rxn_929

>  <mol_properties>  (11) 
{"1": {"label": "*4", "atom_type": "Ct"}, "2": {"label": "*3", "atom_type": "Cd"}, "7": {"label": "*0", "atom_type": "Cs"}, "8": {"label": "*1", "atom_type": "Cs"}, "13": {"label": "*2", "atom_type": "H0"}}

>  <type>  (11) 
unop_7

>  <geom_source>  (11) 
Heuristics

$$$$

     RDKit          3D

 18 16  0  0  0  0  0  0  0  0999 V2000
    2.7417    0.4628    0.7064 C   0  0  0  0  0  0  0  0  0  0  0  0
    1.7552   -0.2021    0.5538 C   0  0  0  0  0  0  0  0  0  0  0  0
    0.5766   -0.9765    0.3458 C   0  0  0  0  0  0  0  0  0  0  0  0
    0.1687   -1.9411    1.1636 C   0  0  0  0  0  0  0  0  0  0  0  0
    3.6164    1.0525    0.8416 H   0  0  0  0  0  0  0  0  0  0  0  0
    0.7242   -2.1984    2.0563 H   0  0  0  0  0  0  0  0  0  0  0  0
   -0.7357   -2.4970    0.9550 H   0  0  0  0  0  0  0  0  0  0  0  0
   -1.5141    0.3297   -2.0478 C   0  0  0  0  0  0  0  0  0  0  0  0
   -1.5141    0.3297   -0.5244 C   0  0  0  0  0  3  0  0  0  0  0  0
   -1.5141    1.7355    0.0623 C   0  0  0  0  0  0  0  0  0  0  0  0
   -0.6327    0.8439   -2.4384 H   0  0  0  0  0  0  0  0  0  0  0  0
   -2.3956    0.8439   -2.4384 H   0  0  0  0  0  0  0  0  0  0  0  0
   -1.5141   -0.6852   -2.4489 H   0  0  0  0  0  0  0  0  0  0  0  0
   -0.4647   -0.3259   -0.0876 H   0  0  0  0  0  0  0  0  0  0  0  0
   -2.3887   -0.2167   -0.1604 H   0  0  0  0  0  0  0  0  0  0  0  0
   -2.3956    2.2941   -0.2619 H   0  0  0  0  0  0  0  0  0  0  0  0
   -1.5141    1.7148    1.1534 H   0  0  0  0  0  0  0  0  0  0  0  0
   -0.6327    2.2941   -0.2619 H   0  0  0  0  0  0  0  0  0  0  0  0
  1  2  3  0
  1  5  1  0
  2  3  1  0
  3  4  2  3
  3 14  1  0
  4  6  1  0
  4  7  1  0
  8  9  1  0
  8 11  1  0
  8 12  1  0
  8 13  1  0
  9 10  1  0
  9 15  1  0
 10 16  1  0
 10 17  1  0
 10 18  1  0
M  RAD  1   9   2
M  END
>  <reaction>  (12) 
rxn_929

>  <mol_properties>  (12) 
{"1": {"label": "*4", "atom_type": "Ct"}, "2": {"label": "*3", "atom_type": "Cd"}, "7": {"label": "*0", "atom_type": "Cs"}, "8": {"label": "*1", "atom_type": "Cs"}, "13": {"label": "*2", "atom_type": "H0"}}

>  <type>  (12) 
unop_8

>  <geom_source>  (12) 
Heuristics

$$$$

     RDKit          3D

 18 16  0  0  0  0  0  0  0  0999 V2000
    1.5956   -2.3666   -0.8877 C   0  0  0  0  0  0  0  0  0  0  0  0
    1.2108   -1.4926   -0.1620 C   0  0  0  0  0  0  0  0  0  0  0  0
    0.7371   -0.4414    0.6762 C   0  0  0  0  0  0  0  0  0  0  0  0
    1.0511   -0.3188    1.9616 C   0  0  0  0  0  0  0  0  0  0  0  0
    1.9368   -3.1415   -1.5312 H   0  0  0  0  0  0  0  0  0  0  0  0
    1.7010   -1.0297    2.4554 H   0  0  0  0  0  0  0  0  0  0  0  0
    0.6613    0.5011    2.5501 H   0  0  0  0  0  0  0  0  0  0  0  0
   -1.3536    0.8648   -1.7173 C   0  0  0  0  0  0  0  0  0  0  0  0
   -1.3536    0.8648   -0.1940 C   0  0  0  0  0  3  0  0  0  0  0  0
   -1.3536    2.2706    0.3927 C   0  0  0  0  0  0  0  0  0  0  0  0
   -0.4722    1.3790   -2.1080 H   0  0  0  0  0  0  0  0  0  0  0  0
   -2.2351    1.3790   -2.1080 H   0  0  0  0  0  0  0  0  0  0  0  0
   -1.3536   -0.1501   -2.1185 H   0  0  0  0  0  0  0  0  0  0  0  0
   -0.3042    0.2091    0.2428 H   0  0  0  0  0  0  0  0  0  0  0  0
   -2.2281    0.3184    0.1700 H   0  0  0  0  0  0  0  0  0  0  0  0
   -2.2351    2.8292    0.0686 H   0  0  0  0  0  0  0  0  0  0  0  0
   -1.3536    2.2499    1.4838 H   0  0  0  0  0  0  0  0  0  0  0  0
   -0.4722    2.8292    0.0686 H   0  0  0  0  0  0  0  0  0  0  0  0
  1  2  3  0
  1  5  1  0
  2  3  1  0
  3  4  2  3
  3 14  1  0
  4  6  1  0
  4  7  1  0
  8  9  1  0
  8 11  1  0
  8 12  1  0
  8 13  1  0
  9 10  1  0
  9 15  1  0
 10 16  1  0
 10 17  1  0
 10 18  1  0
M  RAD  1   9   2
M  END
>  <reaction>  (13) 
rxn_929

>  <mol_properties>  (13) 
{"1": {"label": "*4", "atom_type": "Ct"}, "2": {"label": "*3", "atom_type": "Cd"}, "7": {"label": "*0", "atom_type": "Cs"}, "8": {"label": "*1", "atom_type": "Cs"}, "13": {"label": "*2", "atom_type": "H0"}}

>  <type>  (13) 
unop_9

>  <geom_source>  (13) 
Heuristics

$$$$

     RDKit          3D

 18 16  0  0  0  0  0  0  0  0999 V2000
    2.8387    0.0279   -0.2260 C   0  0  0  0  0  0  0  0  0  0  0  0
    1.7822   -0.4144    0.1302 C   0  0  0  0  0  0  0  0  0  0  0  0
    0.5137   -0.9302    0.5262 C   0  0  0  0  0  0  0  0  0  0  0  0
    0.2917   -1.5475    1.6818 C   0  0  0  0  0  0  0  0  0  0  0  0
    3.7754    0.4201   -0.5418 H   0  0  0  0  0  0  0  0  0  0  0  0
    1.0834   -1.6963    2.4048 H   0  0  0  0  0  0  0  0  0  0  0  0
   -0.6937   -1.9192    1.9297 H   0  0  0  0  0  0  0  0  0  0  0  0
   -1.5771    0.3759   -1.8674 C   0  0  0  0  0  0  0  0  0  0  0  0
   -1.5771    0.3759   -0.3440 C   0  0  0  0  0  3  0  0  0  0  0  0
   -1.5771    1.7817    0.2427 C   0  0  0  0  0  0  0  0  0  0  0  0
   -0.6956    0.8902   -2.2580 H   0  0  0  0  0  0  0  0  0  0  0  0
   -2.4585    0.8902   -2.2580 H   0  0  0  0  0  0  0  0  0  0  0  0
   -1.5771   -0.6390   -2.2685 H   0  0  0  0  0  0  0  0  0  0  0  0
   -0.5276   -0.2797    0.0928 H   0  0  0  0  0  0  0  0  0  0  0  0
   -2.4516   -0.1704    0.0200 H   0  0  0  0  0  0  0  0  0  0  0  0
   -2.4585    2.3403   -0.0814 H   0  0  0  0  0  0  0  0  0  0  0  0
   -1.5771    1.7611    1.3338 H   0  0  0  0  0  0  0  0  0  0  0  0
   -0.6956    2.3403   -0.0814 H   0  0  0  0  0  0  0  0  0  0  0  0
  1  2  3  0
  1  5  1  0
  2  3  1  0
  3  4  2  3
  3 14  1  0
  4  6  1  0
  4  7  1  0
  8  9  1  0
  8 11  1  0
  8 12  1  0
  8 13  1  0
  9 10  1  0
  9 15  1  0
 10 16  1  0
 10 17  1  0
 10 18  1  0
M  RAD  1   9   2
M  END
>  <reaction>  (14) 
rxn_929

>  <mol_properties>  (14) 
{"1": {"label": "*4", "atom_type": "Ct"}, "2": {"label": "*3", "atom_type": "Cd"}, "7": {"label": "*0", "atom_type": "Cs"}, "8": {"label": "*1", "atom_type": "Cs"}, "13": {"label": "*2", "atom_type": "H0"}}

>  <type>  (14) 
unop_10

>  <geom_source>  (14) 
Heuristics

$$$$

     RDKit          3D

 18 16  0  0  0  0  0  0  0  0999 V2000
    0.5436   -1.8717    2.4385 C   0  0  0  0  0  0  0  0  0  0  0  0
    0.6980   -1.3124    1.3888 C   0  0  0  0  0  0  0  0  0  0  0  0
    0.8509   -0.6525    0.1345 C   0  0  0  0  0  0  0  0  0  0  0  0
    1.9954   -0.1319   -0.2953 C   0  0  0  0  0  0  0  0  0  0  0  0
    0.4068   -2.3677    3.3692 H   0  0  0  0  0  0  0  0  0  0  0  0
    2.8983   -0.1818    0.2996 H   0  0  0  0  0  0  0  0  0  0  0  0
    2.0526    0.3584   -1.2581 H   0  0  0  0  0  0  0  0  0  0  0  0
   -1.2399    0.6537   -2.2591 C   0  0  0  0  0  0  0  0  0  0  0  0
   -1.2399    0.6537   -0.7357 C   0  0  0  0  0  3  0  0  0  0  0  0
   -1.2399    2.0595   -0.1490 C   0  0  0  0  0  0  0  0  0  0  0  0
   -0.3584    1.1679   -2.6497 H   0  0  0  0  0  0  0  0  0  0  0  0
   -2.1213    1.1679   -2.6497 H   0  0  0  0  0  0  0  0  0  0  0  0
   -1.2399   -0.3612   -2.6602 H   0  0  0  0  0  0  0  0  0  0  0  0
   -0.1904   -0.0020   -0.2989 H   0  0  0  0  0  0  0  0  0  0  0  0
   -2.1144    0.1073   -0.3717 H   0  0  0  0  0  0  0  0  0  0  0  0
   -2.1213    2.6180   -0.4731 H   0  0  0  0  0  0  0  0  0  0  0  0
   -1.2399    2.0388    0.9421 H   0  0  0  0  0  0  0  0  0  0  0  0
   -0.3584    2.6180   -0.4731 H   0  0  0  0  0  0  0  0  0  0  0  0
  1  2  3  0
  1  5  1  0
  2  3  1  0
  3  4  2  3
  3 14  1  0
  4  6  1  0
  4  7  1  0
  8  9  1  0
  8 11  1  0
  8 12  1  0
  8 13  1  0
  9 10  1  0
  9 15  1  0
 10 16  1  0
 10 17  1  0
 10 18  1  0
M  RAD  1   9   2
M  END
>  <reaction>  (15) 
rxn_929

>  <mol_properties>  (15) 
{"1": {"label": "*4", "atom_type": "Ct"}, "2": {"label": "*3", "atom_type": "Cd"}, "7": {"label": "*0", "atom_type": "Cs"}, "8": {"label": "*1", "atom_type": "Cs"}, "13": {"label": "*2", "atom_type": "H0"}}

>  <type>  (15) 
unop_11

>  <geom_source>  (15) 
Heuristics

$$$$

     RDKit          3D

 18 16  0  0  0  0  0  0  0  0999 V2000
    2.1747   -1.5809   -1.1252 C   0  0  0  0  0  0  0  0  0  0  0  0
    1.4659   -1.1381   -0.2649 C   0  0  0  0  0  0  0  0  0  0  0  0
    0.6044   -0.5999    0.7352 C   0  0  0  0  0  0  0  0  0  0  0  0
    0.8120   -0.7296    2.0413 C   0  0  0  0  0  0  0  0  0  0  0  0
    2.8031   -1.9735   -1.8880 H   0  0  0  0  0  0  0  0  0  0  0  0
    1.6696   -1.2654    2.4273 H   0  0  0  0  0  0  0  0  0  0  0  0
    0.1231   -0.2992    2.7559 H   0  0  0  0  0  0  0  0  0  0  0  0
   -1.4863    0.7063   -1.6583 C   0  0  0  0  0  0  0  0  0  0  0  0
   -1.4863    0.7063   -0.1350 C   0  0  0  0  0  3  0  0  0  0  0  0
   -1.4863    2.1121    0.4517 C   0  0  0  0  0  0  0  0  0  0  0  0
   -0.6049    1.2205   -2.0490 H   0  0  0  0  0  0  0  0  0  0  0  0
   -2.3678    1.2205   -2.0490 H   0  0  0  0  0  0  0  0  0  0  0  0
   -1.4863   -0.3086   -2.0595 H   0  0  0  0  0  0  0  0  0  0  0  0
   -0.4369    0.0506    0.3018 H   0  0  0  0  0  0  0  0  0  0  0  0
   -2.3609    0.1599    0.2290 H   0  0  0  0  0  0  0  0  0  0  0  0
   -2.3678    2.6706    0.1276 H   0  0  0  0  0  0  0  0  0  0  0  0
   -1.4863    2.0914    1.5428 H   0  0  0  0  0  0  0  0  0  0  0  0
   -0.6049    2.6706    0.1276 H   0  0  0  0  0  0  0  0  0  0  0  0
  1  2  3  0
  1  5  1  0
  2  3  1  0
  3  4  2  3
  3 14  1  0
  4  6  1  0
  4  7  1  0
  8  9  1  0
  8 11  1  0
  8 12  1  0
  8 13  1  0
  9 10  1  0
  9 15  1  0
 10 16  1  0
 10 17  1  0
 10 18  1  0
M  RAD  1   9   2
M  END
>  <reaction>  (16) 
rxn_929

>  <mol_properties>  (16) 
{"1": {"label": "*4", "atom_type": "Ct"}, "2": {"label": "*3", "atom_type": "Cd"}, "7": {"label": "*0", "atom_type": "Cs"}, "8": {"label": "*1", "atom_type": "Cs"}, "13": {"label": "*2", "atom_type": "H0"}}

>  <type>  (16) 
unop_12

>  <geom_source>  (16) 
Heuristics

$$$$

     RDKit          3D

 18 16  0  0  0  0  0  0  0  0999 V2000
   -1.2054    0.3392    1.5277 C   0  0  0  0  0  0  0  0  0  0  0  0
   -2.0843    0.0608   -0.8189 C   0  0  0  0  0  0  0  0  0  0  0  0
   -1.1006   -0.4481    0.2275 C   0  0  0  0  0  3  0  0  0  0  0  0
    1.3909   -0.3234   -0.4827 C   0  0  0  0  0  0  0  0  0  0  0  0
    1.9700   -1.4971   -0.7066 C   0  0  0  0  0  0  0  0  0  0  0  0
    2.1794    0.8649   -0.2981 C   0  0  0  0  0  0  0  0  0  0  0  0
    2.8394    1.8618   -0.1432 C   0  0  0  0  0  0  0  0  0  0  0  0
   -2.2226    0.2350    1.9620 H   0  0  0  0  0  0  0  0  0  0  0  0
   -0.4630   -0.0517    2.2541 H   0  0  0  0  0  0  0  0  0  0  0  0
   -0.9896    1.4127    1.3432 H   0  0  0  0  0  0  0  0  0  0  0  0
   -1.9635   -0.5272   -1.7524 H   0  0  0  0  0  0  0  0  0  0  0  0
   -1.8838    1.1294   -1.0445 H   0  0  0  0  0  0  0  0  0  0  0  0
   -3.1280   -0.0519   -0.4557 H   0  0  0  0  0  0  0  0  0  0  0  0
   -1.2823   -1.5268    0.4235 H   0  0  0  0  0  0  0  0  0  0  0  0
    0.1161   -0.2443   -0.4297 H   0  0  0  0  0  0  0  0  0  0  0  0
    3.0484   -1.5902   -0.7559 H   0  0  0  0  0  0  0  0  0  0  0  0
    1.3600   -2.3800   -0.8429 H   0  0  0  0  0  0  0  0  0  0  0  0
    3.4188    2.7369   -0.0073 H   0  0  0  0  0  0  0  0  0  0  0  0
  1  3  1  0
  1  8  1  0
  1  9  1  0
  1 10  1  0
  2  3  1  0
  2 11  1  0
  2 12  1  0
  2 13  1  0
  3 14  1  0
  4  5  2  3
  4  6  1  0
  4 15  1  0
  5 16  1  0
  5 17  1  0
  6  7  3  0
  7 18  1  0
M  RAD  1   3   2
M  END
>  <reaction>  (17) 
rxn_929

>  <mol_properties>  (17) 
{"1": {"label": "*4", "atom_type": "Ct"}, "2": {"label": "*3", "atom_type": "Cd"}, "7": {"label": "*0", "atom_type": "Cs"}, "8": {"label": "*1", "atom_type": "Cs"}, "13": {"label": "*2", "atom_type": "H0"}}

>  <type>  (17) 
unop_13

>  <geom_source>  (17) 
AutoTST

$$$$
