
     RDKit          3D

 18 18  0  0  0  0  0  0  0  0999 V2000
   -2.4852    0.3210   -0.3966 C   0  0  0  0  0  0  0  0  0  0  0  0
   -1.5917   -0.2708    0.6941 C   0  0  0  0  0  0  0  0  0  0  0  0
   -0.1292   -0.1692    0.3493 C   0  0  0  0  0  0  0  0  0  0  0  0
    0.6099    0.9558    0.7015 C   0  0  0  0  0  0  0  0  0  0  0  0
    1.9447    1.0728    0.3458 C   0  0  0  0  0  0  0  0  0  0  0  0
    2.5646    0.0613   -0.3720 C   0  0  0  0  0  0  0  0  0  0  0  0
    1.8399   -1.0657   -0.7287 C   0  0  0  0  0  0  0  0  0  0  0  0
    0.5055   -1.1769   -0.3700 C   0  0  0  0  0  0  0  0  0  0  0  0
   -2.3325   -0.1971   -1.3452 H   0  0  0  0  0  0  0  0  0  0  0  0
   -2.2554    1.3763   -0.5546 H   0  0  0  0  0  0  0  0  0  0  0  0
   -3.5397    0.2376   -0.1280 H   0  0  0  0  0  0  0  0  0  0  0  0
   -1.7801    0.2462    1.6380 H   0  0  0  0  0  0  0  0  0  0  0  0
   -1.8568   -1.3190    0.8516 H   0  0  0  0  0  0  0  0  0  0  0  0
    0.1327    1.7497    1.2656 H   0  0  0  0  0  0  0  0  0  0  0  0
    2.5033    1.9550    0.6330 H   0  0  0  0  0  0  0  0  0  0  0  0
    3.6077    0.1491   -0.6484 H   0  0  0  0  0  0  0  0  0  0  0  0
    2.3163   -1.8632   -1.2854 H   0  0  0  0  0  0  0  0  0  0  0  0
   -0.0540   -2.0629   -0.6500 H   0  0  0  0  0  0  0  0  0  0  0  0
  1  2  1  0
  1  9  1  0
  1 10  1  0
  1 11  1  0
  2  3  1  0
  2 12  1  0
  2 13  1  0
  3  4  2  0
  3  8  1  0
  4  5  1  0
  4 14  1  0
  5  6  2  0
  5 15  1  0
  6  7  1  0
  6 16  1  0
  7  8  2  0
  7 17  1  0
  8 18  1  0
M  END
>  <reaction>  (1) 
rxn_1512

>  <mol_properties>  (1) 
{"1": {"label": "donator", "atom_type": "Cs"}, "11": {"label": "d_hydrogen", "atom_type": "H0"}}

>  <type>  (1) 
r1h

$$$$

     RDKit          3D

 10  9  0  0  0  0  0  0  0  0999 V2000
   -1.2648    0.1959    0.8197 C   0  0  0  0  0  0  0  0  0  0  0  0
   -0.2805    0.0995   -0.3030 C   0  0  0  0  0  3  0  0  0  0  0  0
   -0.0444    1.1347   -1.1797 C   0  0  0  0  0  0  0  0  0  0  0  0
    0.1640    2.0467   -1.9525 C   0  0  0  0  0  0  0  0  0  0  0  0
    0.5686   -1.4168   -0.4488 S   0  0  0  0  0  0  0  0  0  0  0  0
   -2.0466   -0.5638    0.7258 H   0  0  0  0  0  0  0  0  0  0  0  0
   -0.7765    0.0454    1.7871 H   0  0  0  0  0  0  0  0  0  0  0  0
   -1.7371    1.1762    0.8222 H   0  0  0  0  0  0  0  0  0  0  0  0
    0.3433    2.8484   -2.6273 H   0  0  0  0  0  0  0  0  0  0  0  0
    1.3075   -1.0953   -1.5176 H   0  0  0  0  0  0  0  0  0  0  0  0
  1  2  1  0
  1  6  1  0
  1  7  1  0
  1  8  1  0
  2  3  1  0
  2  5  1  0
  3  4  3  0
  4  9  1  0
  5 10  1  0
M  RAD  1   2   2
M  END
>  <reaction>  (2) 
rxn_1512

>  <mol_properties>  (2) 
{"1": {"label": "acceptor", "atom_type": "Cs"}}

>  <type>  (2) 
r2

$$$$

     RDKit          3D

 11 10  0  0  0  0  0  0  0  0999 V2000
   -1.2582   -0.5130    0.2160 C   0  0  0  0  0  0  0  0  0  0  0  0
   -0.1109    0.0509   -0.6210 C   0  0  0  0  0  0  0  0  0  0  0  0
    1.1862   -0.2025   -0.0072 C   0  0  0  0  0  0  0  0  0  0  0  0
    2.2351   -0.4206    0.5274 C   0  0  0  0  0  0  0  0  0  0  0  0
   -0.3298    1.8272   -1.0120 S   0  0  0  0  0  0  0  0  0  0  0  0
   -1.2875   -0.0327    1.1945 H   0  0  0  0  0  0  0  0  0  0  0  0
   -2.2088   -0.3391   -0.2866 H   0  0  0  0  0  0  0  0  0  0  0  0
   -1.1220   -1.5854    0.3655 H   0  0  0  0  0  0  0  0  0  0  0  0
   -0.1222   -0.4181   -1.6078 H   0  0  0  0  0  0  0  0  0  0  0  0
    3.1729   -0.6098    0.9920 H   0  0  0  0  0  0  0  0  0  0  0  0
   -0.1942    2.2663    0.2466 H   0  0  0  0  0  0  0  0  0  0  0  0
  1  2  1  0
  1  6  1  0
  1  7  1  0
  1  8  1  0
  2  3  1  0
  2  5  1  0
  2  9  1  0
  3  4  3  0
  4 10  1  0
  5 11  1  0
M  END
>  <reaction>  (3) 
rxn_1512

>  <mol_properties>  (3) 
{"1": {"label": "acceptor", "atom_type": "Cs"}, "10": {"label": "a_hydrogen", "atom_type": "H0"}}

>  <type>  (3) 
r2h

$$$$

     RDKit          3D

 28 27  0  0  0  0  0  0  0  0999 V2000
   -1.3564   -1.2465    0.5112 C   0  0  0  0  0  0  0  0  0  0  0  0
   -0.0163   -1.8465    0.8843 C   0  0  2  0  0  0  0  0  0  0  0  0
    0.2319   -3.1733    0.4204 C   0  0  0  0  0  0  0  0  0  0  0  0
    0.4894   -4.2654   -0.0109 C   0  0  0  0  0  0  0  0  0  0  0  0
    0.3699   -1.5582    2.6171 S   0  0  0  0  0  0  0  0  0  0  0  0
   -2.1762   -1.7728    1.0051 H   0  0  0  0  0  0  0  0  0  0  0  0
   -1.3916   -0.1927    0.7915 H   0  0  0  0  0  0  0  0  0  0  0  0
   -1.5013   -1.3162   -0.5671 H   0  0  0  0  0  0  0  0  0  0  0  0
    0.7012   -5.2387   -0.3830 H   0  0  0  0  0  0  0  0  0  0  0  0
    1.4888   -2.2927    2.6514 H   0  0  0  0  0  0  0  0  0  0  0  0
    1.8784   -0.9972   -1.7888 C   0  0  0  0  0  0  0  0  0  0  0  0
    1.6392   -0.2434   -0.5087 C   0  0  0  0  0  0  0  0  0  0  0  0
    0.8992    1.0212   -0.5202 C   0  0  0  0  0  0  0  0  0  0  0  0
    0.1151    1.4225   -1.6065 C   0  0  0  0  0  3  0  0  0  0  0  0
   -0.6336    2.5865   -1.5520 C   0  0  0  0  0  0  0  0  0  0  0  0
   -0.6218    3.3766   -0.4122 C   0  0  0  0  0  0  0  0  0  0  0  0
    0.1550    2.9947    0.6743 C   0  0  0  0  0  0  0  0  0  0  0  0
    0.9053    1.8352    0.6201 C   0  0  0  0  0  0  0  0  0  0  0  0
    2.4685   -0.4070   -2.4970 H   0  0  0  0  0  0  0  0  0  0  0  0
    0.9413   -1.2648   -2.2818 H   0  0  0  0  0  0  0  0  0  0  0  0
    2.4145   -1.9248   -1.5898 H   0  0  0  0  0  0  0  0  0  0  0  0
    0.8429   -1.0760    0.2072 H   0  0  0  0  0  0  0  0  0  0  0  0
    2.4923   -0.2315    0.1688 H   0  0  0  0  0  0  0  0  0  0  0  0
    0.0919    0.8204   -2.5058 H   0  0  0  0  0  0  0  0  0  0  0  0
   -1.2307    2.8792   -2.4068 H   0  0  0  0  0  0  0  0  0  0  0  0
   -1.2091    4.2850   -0.3713 H   0  0  0  0  0  0  0  0  0  0  0  0
    0.1749    3.6060    1.5680 H   0  0  0  0  0  0  0  0  0  0  0  0
    1.5004    1.5361    1.4751 H   0  0  0  0  0  0  0  0  0  0  0  0
  1  2  1  0
  1  6  1  0
  1  7  1  0
  1  8  1  0
  2  3  1  0
  2  5  1  0
  2 22  1  6
  3  4  3  0
  4  9  1  0
  5 10  1  0
 11 12  1  0
 11 19  1  0
 11 20  1  0
 11 21  1  0
 12 13  2  3
 12 23  1  0
 13 14  1  0
 13 18  1  0
 14 15  1  0
 14 24  1  0
 15 16  2  0
 15 25  1  0
 16 17  1  0
 16 26  1  0
 17 18  2  0
 17 27  1  0
 18 28  1  0
M  RAD  1  14   2
M  END
>  <reaction>  (4) 
rxn_1512

>  <mol_properties>  (4) 
{"1": {"label": "*1", "atom_type": "Cs"}, "4": {"label": "*0", "atom_type": "S2s"}, "11": {"label": "*3", "atom_type": "Cd"}, "12": {"label": "*4", "atom_type": "Cd"}, "21": {"label": "*2", "atom_type": "H0"}}

>  <type>  (4) 
ts

$$$$

     RDKit          3D

 28 27  0  0  0  0  0  0  0  0999 V2000
   -0.4648   -3.0957    0.9371 C   0  0  0  0  0  0  0  0  0  0  0  0
   -0.9230   -1.9097    0.0897 C   0  0  0  0  0  3  0  0  0  0  0  0
   -0.9106   -0.6638    0.8454 C   0  0  0  0  0  0  0  0  0  0  0  0
   -0.8959    0.3409    1.4966 C   0  0  0  0  0  0  0  0  0  0  0  0
   -2.5502   -2.1951   -0.7018 S   0  0  0  0  0  0  0  0  0  0  0  0
   -1.1411   -3.2459    1.7792 H   0  0  0  0  0  0  0  0  0  0  0  0
   -0.4510   -4.0031    0.3346 H   0  0  0  0  0  0  0  0  0  0  0  0
    0.5360   -2.9111    1.3312 H   0  0  0  0  0  0  0  0  0  0  0  0
   -0.8828    1.2332    2.0750 H   0  0  0  0  0  0  0  0  0  0  0  0
   -3.2599   -2.2054    0.4347 H   0  0  0  0  0  0  0  0  0  0  0  0
    1.1810   -0.6096   -2.3109 C   0  0  0  0  0  0  0  0  0  0  0  0
    1.1810   -0.6096   -0.7818 C   0  0  0  0  0  0  0  0  0  0  0  0
    1.1810    0.7847   -0.2124 C   0  0  0  0  0  0  0  0  0  0  0  0
   -0.0135    1.4536    0.0353 C   0  0  0  0  0  0  0  0  0  0  0  0
   -0.0168    2.7538    0.5163 C   0  0  0  0  0  0  0  0  0  0  0  0
    1.1810    3.4092    0.7580 C   0  0  0  0  0  0  0  0  0  0  0  0
    2.3788    2.7538    0.5163 C   0  0  0  0  0  0  0  0  0  0  0  0
    2.3756    1.4536    0.0353 C   0  0  0  0  0  0  0  0  0  0  0  0
    2.0623   -0.0945   -2.6978 H   0  0  0  0  0  0  0  0  0  0  0  0
    0.2998   -0.0945   -2.6978 H   0  0  0  0  0  0  0  0  0  0  0  0
    1.1810   -1.6280   -2.7033 H   0  0  0  0  0  0  0  0  0  0  0  0
    0.1291   -1.2596   -0.3461 H   0  0  0  0  0  0  0  0  0  0  0  0
    2.0577   -1.1513   -0.4187 H   0  0  0  0  0  0  0  0  0  0  0  0
   -0.9544    0.9465   -0.1484 H   0  0  0  0  0  0  0  0  0  0  0  0
   -0.9575    3.2555    0.7062 H   0  0  0  0  0  0  0  0  0  0  0  0
    1.1810    4.4235    1.1364 H   0  0  0  0  0  0  0  0  0  0  0  0
    3.3196    3.2555    0.7062 H   0  0  0  0  0  0  0  0  0  0  0  0
    3.3165    0.9465   -0.1484 H   0  0  0  0  0  0  0  0  0  0  0  0
  1  2  1  0
  1  6  1  0
  1  7  1  0
  1  8  1  0
  2  3  1  0
  2  5  1  0
  3  4  3  0
  4  9  1  0
  5 10  1  0
 11 12  1  0
 11 19  1  0
 11 20  1  0
 11 21  1  0
 12 13  1  0
 12 22  1  0
 12 23  1  0
 13 14  2  0
 13 18  1  0
 14 15  1  0
 14 24  1  0
 15 16  2  0
 15 25  1  0
 16 17  1  0
 16 26  1  0
 17 18  2  0
 17 27  1  0
 18 28  1  0
M  RAD  1   2   2
M  END
>  <reaction>  (5) 
rxn_1512

>  <mol_properties>  (5) 
{"1": {"label": "*1", "atom_type": "Cs"}, "4": {"label": "*0", "atom_type": "S2s"}, "11": {"label": "*3", "atom_type": "Cd"}, "12": {"label": "*4", "atom_type": "Cd"}, "21": {"label": "*2", "atom_type": "H0"}}

>  <type>  (5) 
unop_1

>  <geom_source>  (5) 
Heuristics

$$$$

     RDKit          3D

 28 27  0  0  0  0  0  0  0  0999 V2000
   -1.3965   -2.8731   -1.0652 C   0  0  0  0  0  0  0  0  0  0  0  0
   -1.0196   -1.7921   -0.0532 C   0  0  0  0  0  3  0  0  0  0  0  0
   -0.3070   -2.3433    1.0920 C   0  0  0  0  0  0  0  0  0  0  0  0
    0.2694   -2.8294    2.0222 C   0  0  0  0  0  0  0  0  0  0  0  0
   -2.4579   -0.7879    0.4747 S   0  0  0  0  0  0  0  0  0  0  0  0
   -2.0698   -3.6011   -0.6116 H   0  0  0  0  0  0  0  0  0  0  0  0
   -1.8946   -2.4248   -1.9238 H   0  0  0  0  0  0  0  0  0  0  0  0
   -0.5020   -3.3991   -1.4032 H   0  0  0  0  0  0  0  0  0  0  0  0
    0.7814   -3.2610    2.8483 H   0  0  0  0  0  0  0  0  0  0  0  0
   -3.0893   -1.7759    1.1230 H   0  0  0  0  0  0  0  0  0  0  0  0
    1.0844   -0.4920   -2.4539 C   0  0  0  0  0  0  0  0  0  0  0  0
    1.0844   -0.4920   -0.9248 C   0  0  0  0  0  0  0  0  0  0  0  0
    1.0844    0.9023   -0.3554 C   0  0  0  0  0  0  0  0  0  0  0  0
   -0.1101    1.5712   -0.1077 C   0  0  0  0  0  0  0  0  0  0  0  0
   -0.1134    2.8715    0.3733 C   0  0  0  0  0  0  0  0  0  0  0  0
    1.0844    3.5268    0.6151 C   0  0  0  0  0  0  0  0  0  0  0  0
    2.2822    2.8715    0.3733 C   0  0  0  0  0  0  0  0  0  0  0  0
    2.2789    1.5712   -0.1077 C   0  0  0  0  0  0  0  0  0  0  0  0
    1.9657    0.0231   -2.8408 H   0  0  0  0  0  0  0  0  0  0  0  0
    0.2031    0.0231   -2.8408 H   0  0  0  0  0  0  0  0  0  0  0  0
    1.0844   -1.5104   -2.8462 H   0  0  0  0  0  0  0  0  0  0  0  0
    0.0325   -1.1420   -0.4891 H   0  0  0  0  0  0  0  0  0  0  0  0
    1.9611   -1.0337   -0.5617 H   0  0  0  0  0  0  0  0  0  0  0  0
   -1.0510    1.0641   -0.2914 H   0  0  0  0  0  0  0  0  0  0  0  0
   -1.0542    3.3732    0.5632 H   0  0  0  0  0  0  0  0  0  0  0  0
    1.0844    4.5412    0.9934 H   0  0  0  0  0  0  0  0  0  0  0  0
    3.2230    3.3732    0.5632 H   0  0  0  0  0  0  0  0  0  0  0  0
    3.2198    1.0641   -0.2914 H   0  0  0  0  0  0  0  0  0  0  0  0
  1  2  1  0
  1  6  1  0
  1  7  1  0
  1  8  1  0
  2  3  1  0
  2  5  1  0
  3  4  3  0
  4  9  1  0
  5 10  1  0
 11 12  1  0
 11 19  1  0
 11 20  1  0
 11 21  1  0
 12 13  1  0
 12 22  1  0
 12 23  1  0
 13 14  2  0
 13 18  1  0
 14 15  1  0
 14 24  1  0
 15 16  2  0
 15 25  1  0
 16 17  1  0
 16 26  1  0
 17 18  2  0
 17 27  1  0
 18 28  1  0
M  RAD  1   2   2
M  END
>  <reaction>  (6) 
rxn_1512

>  <mol_properties>  (6) 
{"1": {"label": "*1", "atom_type": "Cs"}, "4": {"label": "*0", "atom_type": "S2s"}, "11": {"label": "*3", "atom_type": "Cd"}, "12": {"label": "*4", "atom_type": "Cd"}, "21": {"label": "*2", "atom_type": "H0"}}

>  <type>  (6) 
unop_2

>  <geom_source>  (6) 
Heuristics

$$$$

     RDKit          3D

 28 27  0  0  0  0  0  0  0  0999 V2000
   -0.5662   -2.4785    1.5557 C   0  0  0  0  0  0  0  0  0  0  0  0
   -0.8961   -1.8341    0.2101 C   0  0  0  0  0  3  0  0  0  0  0  0
   -1.4878   -0.5122    0.3703 C   0  0  0  0  0  0  0  0  0  0  0  0
   -1.9782    0.5674    0.5370 C   0  0  0  0  0  0  0  0  0  0  0  0
   -1.9351   -2.9075   -0.8502 S   0  0  0  0  0  0  0  0  0  0  0  0
   -1.4744   -2.6226    2.1417 H   0  0  0  0  0  0  0  0  0  0  0  0
   -0.0936   -3.4476    1.4008 H   0  0  0  0  0  0  0  0  0  0  0  0
    0.1090   -1.8365    2.1239 H   0  0  0  0  0  0  0  0  0  0  0  0
   -2.4137    1.5262    0.6851 H   0  0  0  0  0  0  0  0  0  0  0  0
   -3.0269   -2.8568   -0.0751 H   0  0  0  0  0  0  0  0  0  0  0  0
    1.2080   -0.5340   -2.1906 C   0  0  0  0  0  0  0  0  0  0  0  0
    1.2080   -0.5340   -0.6615 C   0  0  0  0  0  0  0  0  0  0  0  0
    1.2080    0.8602   -0.0920 C   0  0  0  0  0  0  0  0  0  0  0  0
    0.0134    1.5292    0.1557 C   0  0  0  0  0  0  0  0  0  0  0  0
    0.0102    2.8294    0.6366 C   0  0  0  0  0  0  0  0  0  0  0  0
    1.2080    3.4848    0.8784 C   0  0  0  0  0  0  0  0  0  0  0  0
    2.4058    2.8294    0.6366 C   0  0  0  0  0  0  0  0  0  0  0  0
    2.4025    1.5292    0.1557 C   0  0  0  0  0  0  0  0  0  0  0  0
    2.0892   -0.0190   -2.5774 H   0  0  0  0  0  0  0  0  0  0  0  0
    0.3267   -0.0190   -2.5774 H   0  0  0  0  0  0  0  0  0  0  0  0
    1.2080   -1.5525   -2.5829 H   0  0  0  0  0  0  0  0  0  0  0  0
    0.1560   -1.1840   -0.2257 H   0  0  0  0  0  0  0  0  0  0  0  0
    2.0846   -1.0757   -0.2983 H   0  0  0  0  0  0  0  0  0  0  0  0
   -0.9275    1.0220   -0.0280 H   0  0  0  0  0  0  0  0  0  0  0  0
   -0.9306    3.3311    0.8265 H   0  0  0  0  0  0  0  0  0  0  0  0
    1.2080    4.4991    1.2568 H   0  0  0  0  0  0  0  0  0  0  0  0
    3.3466    3.3311    0.8265 H   0  0  0  0  0  0  0  0  0  0  0  0
    3.3434    1.0220   -0.0280 H   0  0  0  0  0  0  0  0  0  0  0  0
  1  2  1  0
  1  6  1  0
  1  7  1  0
  1  8  1  0
  2  3  1  0
  2  5  1  0
  3  4  3  0
  4  9  1  0
  5 10  1  0
 11 12  1  0
 11 19  1  0
 11 20  1  0
 11 21  1  0
 12 13  1  0
 12 22  1  0
 12 23  1  0
 13 14  2  0
 13 18  1  0
 14 15  1  0
 14 24  1  0
 15 16  2  0
 15 25  1  0
 16 17  1  0
 16 26  1  0
 17 18  2  0
 17 27  1  0
 18 28  1  0
M  RAD  1   2   2
M  END
>  <reaction>  (7) 
rxn_1512

>  <mol_properties>  (7) 
{"1": {"label": "*1", "atom_type": "Cs"}, "4": {"label": "*0", "atom_type": "S2s"}, "11": {"label": "*3", "atom_type": "Cd"}, "12": {"label": "*4", "atom_type": "Cd"}, "21": {"label": "*2", "atom_type": "H0"}}

>  <type>  (7) 
unop_3

>  <geom_source>  (7) 
Heuristics

$$$$

     RDKit          3D

 28 27  0  0  0  0  0  0  0  0999 V2000
   -2.3978   -1.0558   -0.5989 C   0  0  0  0  0  0  0  0  0  0  0  0
   -1.1340   -1.7441   -0.0851 C   0  0  0  0  0  3  0  0  0  0  0  0
   -1.3408   -3.1702    0.1315 C   0  0  0  0  0  0  0  0  0  0  0  0
   -1.5461   -4.3369    0.3057 C   0  0  0  0  0  0  0  0  0  0  0  0
   -0.4467   -0.9341    1.4073 S   0  0  0  0  0  0  0  0  0  0  0  0
   -3.2006   -1.1372    0.1346 H   0  0  0  0  0  0  0  0  0  0  0  0
   -2.2003   -0.0008   -0.7844 H   0  0  0  0  0  0  0  0  0  0  0  0
   -2.7318   -1.5269   -1.5249 H   0  0  0  0  0  0  0  0  0  0  0  0
   -1.7285   -5.3731    0.4605 H   0  0  0  0  0  0  0  0  0  0  0  0
   -1.4637   -1.2502    2.2203 H   0  0  0  0  0  0  0  0  0  0  0  0
    0.9700   -0.4440   -2.4858 C   0  0  0  0  0  0  0  0  0  0  0  0
    0.9700   -0.4440   -0.9567 C   0  0  0  0  0  0  0  0  0  0  0  0
    0.9700    0.9503   -0.3873 C   0  0  0  0  0  0  0  0  0  0  0  0
   -0.2245    1.6192   -0.1396 C   0  0  0  0  0  0  0  0  0  0  0  0
   -0.2278    2.9194    0.3414 C   0  0  0  0  0  0  0  0  0  0  0  0
    0.9700    3.5748    0.5832 C   0  0  0  0  0  0  0  0  0  0  0  0
    2.1678    2.9194    0.3414 C   0  0  0  0  0  0  0  0  0  0  0  0
    2.1645    1.6192   -0.1396 C   0  0  0  0  0  0  0  0  0  0  0  0
    1.8513    0.0711   -2.8726 H   0  0  0  0  0  0  0  0  0  0  0  0
    0.0887    0.0711   -2.8726 H   0  0  0  0  0  0  0  0  0  0  0  0
    0.9700   -1.4624   -2.8781 H   0  0  0  0  0  0  0  0  0  0  0  0
   -0.0820   -1.0940   -0.5209 H   0  0  0  0  0  0  0  0  0  0  0  0
    1.8466   -0.9857   -0.5936 H   0  0  0  0  0  0  0  0  0  0  0  0
   -1.1654    1.1121   -0.3233 H   0  0  0  0  0  0  0  0  0  0  0  0
   -1.1686    3.4211    0.5313 H   0  0  0  0  0  0  0  0  0  0  0  0
    0.9700    4.5891    0.9615 H   0  0  0  0  0  0  0  0  0  0  0  0
    3.1086    3.4211    0.5313 H   0  0  0  0  0  0  0  0  0  0  0  0
    3.1054    1.1121   -0.3233 H   0  0  0  0  0  0  0  0  0  0  0  0
  1  2  1  0
  1  6  1  0
  1  7  1  0
  1  8  1  0
  2  3  1  0
  2  5  1  0
  3  4  3  0
  4  9  1  0
  5 10  1  0
 11 12  1  0
 11 19  1  0
 11 20  1  0
 11 21  1  0
 12 13  1  0
 12 22  1  0
 12 23  1  0
 13 14  2  0
 13 18  1  0
 14 15  1  0
 14 24  1  0
 15 16  2  0
 15 25  1  0
 16 17  1  0
 16 26  1  0
 17 18  2  0
 17 27  1  0
 18 28  1  0
M  RAD  1   2   2
M  END
>  <reaction>  (8) 
rxn_1512

>  <mol_properties>  (8) 
{"1": {"label": "*1", "atom_type": "Cs"}, "4": {"label": "*0", "atom_type": "S2s"}, "11": {"label": "*3", "atom_type": "Cd"}, "12": {"label": "*4", "atom_type": "Cd"}, "21": {"label": "*2", "atom_type": "H0"}}

>  <type>  (8) 
unop_4

>  <geom_source>  (8) 
Heuristics

$$$$

     RDKit          3D

 28 27  0  0  0  0  0  0  0  0999 V2000
   -0.9686   -1.6480    1.7971 C   0  0  0  0  0  0  0  0  0  0  0  0
   -0.9739   -1.6512    0.2691 C   0  0  0  0  0  3  0  0  0  0  0  0
   -2.1657   -1.0112   -0.2724 C   0  0  0  0  0  0  0  0  0  0  0  0
   -3.1596   -0.4857   -0.6844 C   0  0  0  0  0  0  0  0  0  0  0  0
   -0.7371   -3.3264   -0.4335 S   0  0  0  0  0  0  0  0  0  0  0  0
   -1.8174   -2.2141    2.1819 H   0  0  0  0  0  0  0  0  0  0  0  0
   -0.0502   -2.1002    2.1692 H   0  0  0  0  0  0  0  0  0  0  0  0
   -1.0423   -0.6252    2.1705 H   0  0  0  0  0  0  0  0  0  0  0  0
   -4.0424   -0.0189   -1.0503 H   0  0  0  0  0  0  0  0  0  0  0  0
   -1.9034   -3.8260   -0.0030 H   0  0  0  0  0  0  0  0  0  0  0  0
    1.1301   -0.3511   -2.1316 C   0  0  0  0  0  0  0  0  0  0  0  0
    1.1301   -0.3511   -0.6025 C   0  0  0  0  0  0  0  0  0  0  0  0
    1.1301    1.0431   -0.0330 C   0  0  0  0  0  0  0  0  0  0  0  0
   -0.0644    1.7121    0.2147 C   0  0  0  0  0  0  0  0  0  0  0  0
   -0.0677    3.0123    0.6956 C   0  0  0  0  0  0  0  0  0  0  0  0
    1.1301    3.6676    0.9374 C   0  0  0  0  0  0  0  0  0  0  0  0
    2.3279    3.0123    0.6956 C   0  0  0  0  0  0  0  0  0  0  0  0
    2.3247    1.7121    0.2147 C   0  0  0  0  0  0  0  0  0  0  0  0
    2.0114    0.1639   -2.5184 H   0  0  0  0  0  0  0  0  0  0  0  0
    0.2489    0.1639   -2.5184 H   0  0  0  0  0  0  0  0  0  0  0  0
    1.1301   -1.3696   -2.5239 H   0  0  0  0  0  0  0  0  0  0  0  0
    0.0782   -1.0012   -0.1667 H   0  0  0  0  0  0  0  0  0  0  0  0
    2.0068   -0.8928   -0.2393 H   0  0  0  0  0  0  0  0  0  0  0  0
   -1.0053    1.2049    0.0310 H   0  0  0  0  0  0  0  0  0  0  0  0
   -1.0084    3.5140    0.8855 H   0  0  0  0  0  0  0  0  0  0  0  0
    1.1301    4.6820    1.3158 H   0  0  0  0  0  0  0  0  0  0  0  0
    3.2687    3.5140    0.8855 H   0  0  0  0  0  0  0  0  0  0  0  0
    3.2656    1.2049    0.0309 H   0  0  0  0  0  0  0  0  0  0  0  0
  1  2  1  0
  1  6  1  0
  1  7  1  0
  1  8  1  0
  2  3  1  0
  2  5  1  0
  3  4  3  0
  4  9  1  0
  5 10  1  0
 11 12  1  0
 11 19  1  0
 11 20  1  0
 11 21  1  0
 12 13  1  0
 12 22  1  0
 12 23  1  0
 13 14  2  0
 13 18  1  0
 14 15  1  0
 14 24  1  0
 15 16  2  0
 15 25  1  0
 16 17  1  0
 16 26  1  0
 17 18  2  0
 17 27  1  0
 18 28  1  0
M  RAD  1   2   2
M  END
>  <reaction>  (9) 
rxn_1512

>  <mol_properties>  (9) 
{"1": {"label": "*1", "atom_type": "Cs"}, "4": {"label": "*0", "atom_type": "S2s"}, "11": {"label": "*3", "atom_type": "Cd"}, "12": {"label": "*4", "atom_type": "Cd"}, "21": {"label": "*2", "atom_type": "H0"}}

>  <type>  (9) 
unop_5

>  <geom_source>  (9) 
Heuristics

$$$$

     RDKit          3D

 28 27  0  0  0  0  0  0  0  0999 V2000
   -2.3553   -0.6876    0.1180 C   0  0  0  0  0  0  0  0  0  0  0  0
   -1.1939   -1.6664   -0.0489 C   0  0  0  0  0  3  0  0  0  0  0  0
   -1.6557   -3.0430   -0.1717 C   0  0  0  0  0  0  0  0  0  0  0  0
   -2.0680   -4.1635   -0.2622 C   0  0  0  0  0  0  0  0  0  0  0  0
    0.0649   -1.4990    1.2714 S   0  0  0  0  0  0  0  0  0  0  0  0
   -2.9073   -0.9042    1.0330 H   0  0  0  0  0  0  0  0  0  0  0  0
   -1.9796    0.3335    0.1707 H   0  0  0  0  0  0  0  0  0  0  0  0
   -3.0431   -0.7740   -0.7249 H   0  0  0  0  0  0  0  0  0  0  0  0
   -2.4342   -5.1587   -0.3426 H   0  0  0  0  0  0  0  0  0  0  0  0
   -0.7178   -1.9335    2.2683 H   0  0  0  0  0  0  0  0  0  0  0  0
    0.9101   -0.3663   -2.4496 C   0  0  0  0  0  0  0  0  0  0  0  0
    0.9101   -0.3663   -0.9205 C   0  0  0  0  0  0  0  0  0  0  0  0
    0.9101    1.0280   -0.3510 C   0  0  0  0  0  0  0  0  0  0  0  0
   -0.2844    1.6969   -0.1033 C   0  0  0  0  0  0  0  0  0  0  0  0
   -0.2877    2.9972    0.3776 C   0  0  0  0  0  0  0  0  0  0  0  0
    0.9101    3.6525    0.6194 C   0  0  0  0  0  0  0  0  0  0  0  0
    2.1079    2.9972    0.3776 C   0  0  0  0  0  0  0  0  0  0  0  0
    2.1047    1.6969   -0.1033 C   0  0  0  0  0  0  0  0  0  0  0  0
    1.7914    0.1488   -2.8364 H   0  0  0  0  0  0  0  0  0  0  0  0
    0.0289    0.1488   -2.8364 H   0  0  0  0  0  0  0  0  0  0  0  0
    0.9101   -1.3847   -2.8419 H   0  0  0  0  0  0  0  0  0  0  0  0
   -0.1418   -1.0163   -0.4847 H   0  0  0  0  0  0  0  0  0  0  0  0
    1.7868   -0.9080   -0.5573 H   0  0  0  0  0  0  0  0  0  0  0  0
   -1.2253    1.1898   -0.2870 H   0  0  0  0  0  0  0  0  0  0  0  0
   -1.2285    3.4989    0.5675 H   0  0  0  0  0  0  0  0  0  0  0  0
    0.9101    4.6669    0.9978 H   0  0  0  0  0  0  0  0  0  0  0  0
    3.0487    3.4989    0.5675 H   0  0  0  0  0  0  0  0  0  0  0  0
    3.0456    1.1898   -0.2870 H   0  0  0  0  0  0  0  0  0  0  0  0
  1  2  1  0
  1  6  1  0
  1  7  1  0
  1  8  1  0
  2  3  1  0
  2  5  1  0
  3  4  3  0
  4  9  1  0
  5 10  1  0
 11 12  1  0
 11 19  1  0
 11 20  1  0
 11 21  1  0
 12 13  1  0
 12 22  1  0
 12 23  1  0
 13 14  2  0
 13 18  1  0
 14 15  1  0
 14 24  1  0
 15 16  2  0
 15 25  1  0
 16 17  1  0
 16 26  1  0
 17 18  2  0
 17 27  1  0
 18 28  1  0
M  RAD  1   2   2
M  END
>  <reaction>  (10) 
rxn_1512

>  <mol_properties>  (10) 
{"1": {"label": "*1", "atom_type": "Cs"}, "4": {"label": "*0", "atom_type": "S2s"}, "11": {"label": "*3", "atom_type": "Cd"}, "12": {"label": "*4", "atom_type": "Cd"}, "21": {"label": "*2", "atom_type": "H0"}}

>  <type>  (10) 
unop_6

>  <geom_source>  (10) 
Heuristics

$$$$

     RDKit          3D

 28 27  0  0  0  0  0  0  0  0999 V2000
   -2.0619   -0.6436    0.8914 C   0  0  0  0  0  0  0  0  0  0  0  0
   -1.2062   -1.5840    0.0440 C   0  0  0  0  0  3  0  0  0  0  0  0
   -1.9744   -2.7168   -0.4558 C   0  0  0  0  0  0  0  0  0  0  0  0
   -2.6323   -3.6388   -0.8441 C   0  0  0  0  0  0  0  0  0  0  0  0
    0.3088   -2.1354    0.9139 S   0  0  0  0  0  0  0  0  0  0  0  0
   -2.4416   -1.1635    1.7715 H   0  0  0  0  0  0  0  0  0  0  0  0
   -1.4686    0.2092    1.2191 H   0  0  0  0  0  0  0  0  0  0  0  0
   -2.9142   -0.2863    0.3111 H   0  0  0  0  0  0  0  0  0  0  0  0
   -3.2167   -4.4577   -1.1889 H   0  0  0  0  0  0  0  0  0  0  0  0
   -0.3211   -2.8597    1.8487 H   0  0  0  0  0  0  0  0  0  0  0  0
    0.8979   -0.2839   -2.3566 C   0  0  0  0  0  0  0  0  0  0  0  0
    0.8979   -0.2839   -0.8275 C   0  0  0  0  0  0  0  0  0  0  0  0
    0.8979    1.1104   -0.2581 C   0  0  0  0  0  0  0  0  0  0  0  0
   -0.2967    1.7794   -0.0104 C   0  0  0  0  0  0  0  0  0  0  0  0
   -0.2999    3.0796    0.4706 C   0  0  0  0  0  0  0  0  0  0  0  0
    0.8979    3.7349    0.7124 C   0  0  0  0  0  0  0  0  0  0  0  0
    2.0957    3.0796    0.4706 C   0  0  0  0  0  0  0  0  0  0  0  0
    2.0924    1.7794   -0.0104 C   0  0  0  0  0  0  0  0  0  0  0  0
    1.7792    0.2312   -2.7435 H   0  0  0  0  0  0  0  0  0  0  0  0
    0.0166    0.2312   -2.7435 H   0  0  0  0  0  0  0  0  0  0  0  0
    0.8979   -1.3023   -2.7490 H   0  0  0  0  0  0  0  0  0  0  0  0
   -0.1541   -0.9339   -0.3918 H   0  0  0  0  0  0  0  0  0  0  0  0
    1.7745   -0.8255   -0.4644 H   0  0  0  0  0  0  0  0  0  0  0  0
   -1.2375    1.2722   -0.1941 H   0  0  0  0  0  0  0  0  0  0  0  0
   -1.2407    3.5813    0.6605 H   0  0  0  0  0  0  0  0  0  0  0  0
    0.8979    4.7493    1.0907 H   0  0  0  0  0  0  0  0  0  0  0  0
    3.0365    3.5813    0.6605 H   0  0  0  0  0  0  0  0  0  0  0  0
    3.0333    1.2722   -0.1941 H   0  0  0  0  0  0  0  0  0  0  0  0
  1  2  1  0
  1  6  1  0
  1  7  1  0
  1  8  1  0
  2  3  1  0
  2  5  1  0
  3  4  3  0
  4  9  1  0
  5 10  1  0
 11 12  1  0
 11 19  1  0
 11 20  1  0
 11 21  1  0
 12 13  1  0
 12 22  1  0
 12 23  1  0
 13 14  2  0
 13 18  1  0
 14 15  1  0
 14 24  1  0
 15 16  2  0
 15 25  1  0
 16 17  1  0
 16 26  1  0
 17 18  2  0
 17 27  1  0
 18 28  1  0
M  RAD  1   2   2
M  END
>  <reaction>  (11) 
rxn_1512

>  <mol_properties>  (11) 
{"1": {"label": "*1", "atom_type": "Cs"}, "4": {"label": "*0", "atom_type": "S2s"}, "11": {"label": "*3", "atom_type": "Cd"}, "12": {"label": "*4", "atom_type": "Cd"}, "21": {"label": "*2", "atom_type": "H0"}}

>  <type>  (11) 
unop_7

>  <geom_source>  (11) 
Heuristics

$$$$

     RDKit          3D

 28 27  0  0  0  0  0  0  0  0999 V2000
   -0.6167   -3.3686    0.1637 C   0  0  0  0  0  0  0  0  0  0  0  0
   -0.9725   -1.8921   -0.0031 C   0  0  0  0  0  3  0  0  0  0  0  0
   -0.5260   -1.0932    1.1308 C   0  0  0  0  0  0  0  0  0  0  0  0
   -0.1526   -0.4671    2.0807 C   0  0  0  0  0  0  0  0  0  0  0  0
   -2.7528   -1.6299   -0.3458 S   0  0  0  0  0  0  0  0  0  0  0  0
   -1.1144   -3.7835    1.0407 H   0  0  0  0  0  0  0  0  0  0  0  0
   -0.9312   -3.9310   -0.7145 H   0  0  0  0  0  0  0  0  0  0  0  0
    0.4606   -3.4825    0.2962 H   0  0  0  0  0  0  0  0  0  0  0  0
    0.1791    0.0889    2.9244 H   0  0  0  0  0  0  0  0  0  0  0  0
   -3.1889   -2.0397    0.8530 H   0  0  0  0  0  0  0  0  0  0  0  0
    1.1316   -0.5920   -2.4038 C   0  0  0  0  0  0  0  0  0  0  0  0
    1.1316   -0.5920   -0.8747 C   0  0  0  0  0  0  0  0  0  0  0  0
    1.1316    0.8023   -0.3053 C   0  0  0  0  0  0  0  0  0  0  0  0
   -0.0630    1.4713   -0.0576 C   0  0  0  0  0  0  0  0  0  0  0  0
   -0.0662    2.7715    0.4234 C   0  0  0  0  0  0  0  0  0  0  0  0
    1.1316    3.4268    0.6652 C   0  0  0  0  0  0  0  0  0  0  0  0
    2.3294    2.7715    0.4234 C   0  0  0  0  0  0  0  0  0  0  0  0
    2.3261    1.4713   -0.0576 C   0  0  0  0  0  0  0  0  0  0  0  0
    2.0128   -0.0769   -2.7907 H   0  0  0  0  0  0  0  0  0  0  0  0
    0.2503   -0.0769   -2.7907 H   0  0  0  0  0  0  0  0  0  0  0  0
    1.1316   -1.6104   -2.7961 H   0  0  0  0  0  0  0  0  0  0  0  0
    0.0796   -1.2420   -0.4390 H   0  0  0  0  0  0  0  0  0  0  0  0
    2.0082   -1.1336   -0.5116 H   0  0  0  0  0  0  0  0  0  0  0  0
   -1.0039    0.9641   -0.2413 H   0  0  0  0  0  0  0  0  0  0  0  0
   -1.0070    3.2732    0.6133 H   0  0  0  0  0  0  0  0  0  0  0  0
    1.1316    4.4412    1.0435 H   0  0  0  0  0  0  0  0  0  0  0  0
    3.2702    3.2732    0.6133 H   0  0  0  0  0  0  0  0  0  0  0  0
    3.2670    0.9641   -0.2413 H   0  0  0  0  0  0  0  0  0  0  0  0
  1  2  1  0
  1  6  1  0
  1  7  1  0
  1  8  1  0
  2  3  1  0
  2  5  1  0
  3  4  3  0
  4  9  1  0
  5 10  1  0
 11 12  1  0
 11 19  1  0
 11 20  1  0
 11 21  1  0
 12 13  1  0
 12 22  1  0
 12 23  1  0
 13 14  2  0
 13 18  1  0
 14 15  1  0
 14 24  1  0
 15 16  2  0
 15 25  1  0
 16 17  1  0
 16 26  1  0
 17 18  2  0
 17 27  1  0
 18 28  1  0
M  RAD  1   2   2
M  END
>  <reaction>  (12) 
rxn_1512

>  <mol_properties>  (12) 
{"1": {"label": "*1", "atom_type": "Cs"}, "4": {"label": "*0", "atom_type": "S2s"}, "11": {"label": "*3", "atom_type": "Cd"}, "12": {"label": "*4", "atom_type": "Cd"}, "21": {"label": "*2", "atom_type": "H0"}}

>  <type>  (12) 
unop_8

>  <geom_source>  (12) 
Heuristics

$$$$

     RDKit          3D

 28 27  0  0  0  0  0  0  0  0999 V2000
   -2.2012   -1.6366   -1.0879 C   0  0  0  0  0  0  0  0  0  0  0  0
   -1.0658   -1.7832   -0.0760 C   0  0  0  0  0  3  0  0  0  0  0  0
   -0.9733   -3.1408    0.4453 C   0  0  0  0  0  0  0  0  0  0  0  0
   -0.9294   -4.2637    0.8589 C   0  0  0  0  0  0  0  0  0  0  0  0
   -1.1640   -0.5528    1.2776 S   0  0  0  0  0  0  0  0  0  0  0  0
   -3.1616   -1.8454   -0.6154 H   0  0  0  0  0  0  0  0  0  0  0  0
   -2.2206   -0.6222   -1.4843 H   0  0  0  0  0  0  0  0  0  0  0  0
   -2.0645   -2.3409   -1.9102 H   0  0  0  0  0  0  0  0  0  0  0  0
   -0.8903   -5.2609    1.2262 H   0  0  0  0  0  0  0  0  0  0  0  0
   -2.2873   -1.0355    1.8257 H   0  0  0  0  0  0  0  0  0  0  0  0
    1.0382   -0.4831   -2.4766 C   0  0  0  0  0  0  0  0  0  0  0  0
    1.0382   -0.4831   -0.9475 C   0  0  0  0  0  0  0  0  0  0  0  0
    1.0382    0.9111   -0.3781 C   0  0  0  0  0  0  0  0  0  0  0  0
   -0.1563    1.5801   -0.1304 C   0  0  0  0  0  0  0  0  0  0  0  0
   -0.1596    2.8803    0.3506 C   0  0  0  0  0  0  0  0  0  0  0  0
    1.0382    3.5357    0.5924 C   0  0  0  0  0  0  0  0  0  0  0  0
    2.2361    2.8803    0.3506 C   0  0  0  0  0  0  0  0  0  0  0  0
    2.2328    1.5801   -0.1304 C   0  0  0  0  0  0  0  0  0  0  0  0
    1.9195    0.0319   -2.8635 H   0  0  0  0  0  0  0  0  0  0  0  0
    0.1570    0.0319   -2.8635 H   0  0  0  0  0  0  0  0  0  0  0  0
    1.0382   -1.5016   -2.8689 H   0  0  0  0  0  0  0  0  0  0  0  0
   -0.0137   -1.1331   -0.5118 H   0  0  0  0  0  0  0  0  0  0  0  0
    1.9149   -1.0248   -0.5844 H   0  0  0  0  0  0  0  0  0  0  0  0
   -1.0972    1.0729   -0.3141 H   0  0  0  0  0  0  0  0  0  0  0  0
   -1.1003    3.3820    0.5405 H   0  0  0  0  0  0  0  0  0  0  0  0
    1.0382    4.5500    0.9707 H   0  0  0  0  0  0  0  0  0  0  0  0
    3.1768    3.3820    0.5405 H   0  0  0  0  0  0  0  0  0  0  0  0
    3.1737    1.0729   -0.3141 H   0  0  0  0  0  0  0  0  0  0  0  0
  1  2  1  0
  1  6  1  0
  1  7  1  0
  1  8  1  0
  2  3  1  0
  2  5  1  0
  3  4  3  0
  4  9  1  0
  5 10  1  0
 11 12  1  0
 11 19  1  0
 11 20  1  0
 11 21  1  0
 12 13  1  0
 12 22  1  0
 12 23  1  0
 13 14  2  0
 13 18  1  0
 14 15  1  0
 14 24  1  0
 15 16  2  0
 15 25  1  0
 16 17  1  0
 16 26  1  0
 17 18  2  0
 17 27  1  0
 18 28  1  0
M  RAD  1   2   2
M  END
>  <reaction>  (13) 
rxn_1512

>  <mol_properties>  (13) 
{"1": {"label": "*1", "atom_type": "Cs"}, "4": {"label": "*0", "atom_type": "S2s"}, "11": {"label": "*3", "atom_type": "Cd"}, "12": {"label": "*4", "atom_type": "Cd"}, "21": {"label": "*2", "atom_type": "H0"}}

>  <type>  (13) 
unop_9

>  <geom_source>  (13) 
Heuristics

$$$$

     RDKit          3D

 28 27  0  0  0  0  0  0  0  0999 V2000
   -0.9582   -3.2746   -0.5606 C   0  0  0  0  0  0  0  0  0  0  0  0
   -1.0084   -1.8365   -0.0469 C   0  0  0  0  0  3  0  0  0  0  0  0
   -0.3054   -1.6865    1.2206 C   0  0  0  0  0  0  0  0  0  0  0  0
    0.2739   -1.5992    2.2649 C   0  0  0  0  0  0  0  0  0  0  0  0
   -2.7168   -1.1830    0.0549 S   0  0  0  0  0  0  0  0  0  0  0  0
   -1.4528   -3.9470    0.1411 H   0  0  0  0  0  0  0  0  0  0  0  0
   -1.4604   -3.3455   -1.5246 H   0  0  0  0  0  0  0  0  0  0  0  0
    0.0782   -3.5978   -0.6711 H   0  0  0  0  0  0  0  0  0  0  0  0
    0.7883   -1.5216    3.1924 H   0  0  0  0  0  0  0  0  0  0  0  0
   -3.1218   -1.9999    1.0367 H   0  0  0  0  0  0  0  0  0  0  0  0
    1.0956   -0.5364   -2.4476 C   0  0  0  0  0  0  0  0  0  0  0  0
    1.0956   -0.5364   -0.9185 C   0  0  0  0  0  0  0  0  0  0  0  0
    1.0956    0.8579   -0.3491 C   0  0  0  0  0  0  0  0  0  0  0  0
   -0.0989    1.5268   -0.1013 C   0  0  0  0  0  0  0  0  0  0  0  0
   -0.1022    2.8271    0.3796 C   0  0  0  0  0  0  0  0  0  0  0  0
    1.0956    3.4824    0.6214 C   0  0  0  0  0  0  0  0  0  0  0  0
    2.2934    2.8271    0.3796 C   0  0  0  0  0  0  0  0  0  0  0  0
    2.2902    1.5268   -0.1013 C   0  0  0  0  0  0  0  0  0  0  0  0
    1.9769   -0.0213   -2.8344 H   0  0  0  0  0  0  0  0  0  0  0  0
    0.2144   -0.0213   -2.8344 H   0  0  0  0  0  0  0  0  0  0  0  0
    1.0956   -1.5548   -2.8399 H   0  0  0  0  0  0  0  0  0  0  0  0
    0.0437   -1.1864   -0.4827 H   0  0  0  0  0  0  0  0  0  0  0  0
    1.9723   -1.0781   -0.5553 H   0  0  0  0  0  0  0  0  0  0  0  0
   -1.0398    1.0197   -0.2851 H   0  0  0  0  0  0  0  0  0  0  0  0
   -1.0430    3.3288    0.5695 H   0  0  0  0  0  0  0  0  0  0  0  0
    1.0956    4.4968    0.9998 H   0  0  0  0  0  0  0  0  0  0  0  0
    3.2342    3.3288    0.5695 H   0  0  0  0  0  0  0  0  0  0  0  0
    3.2311    1.0197   -0.2851 H   0  0  0  0  0  0  0  0  0  0  0  0
  1  2  1  0
  1  6  1  0
  1  7  1  0
  1  8  1  0
  2  3  1  0
  2  5  1  0
  3  4  3  0
  4  9  1  0
  5 10  1  0
 11 12  1  0
 11 19  1  0
 11 20  1  0
 11 21  1  0
 12 13  1  0
 12 22  1  0
 12 23  1  0
 13 14  2  0
 13 18  1  0
 14 15  1  0
 14 24  1  0
 15 16  2  0
 15 25  1  0
 16 17  1  0
 16 26  1  0
 17 18  2  0
 17 27  1  0
 18 28  1  0
M  RAD  1   2   2
M  END
>  <reaction>  (14) 
rxn_1512

>  <mol_properties>  (14) 
{"1": {"label": "*1", "atom_type": "Cs"}, "4": {"label": "*0", "atom_type": "S2s"}, "11": {"label": "*3", "atom_type": "Cd"}, "12": {"label": "*4", "atom_type": "Cd"}, "21": {"label": "*2", "atom_type": "H0"}}

>  <type>  (14) 
unop_10

>  <geom_source>  (14) 
Heuristics

$$$$

     RDKit          3D

 28 27  0  0  0  0  0  0  0  0999 V2000
   -1.5613   -0.9660    1.5219 C   0  0  0  0  0  0  0  0  0  0  0  0
   -1.1326   -1.5493    0.1763 C   0  0  0  0  0  3  0  0  0  0  0  0
   -2.2701   -2.0380   -0.5922 C   0  0  0  0  0  0  0  0  0  0  0  0
   -3.2254   -2.4364   -1.1943 C   0  0  0  0  0  0  0  0  0  0  0  0
    0.1619   -2.8346    0.3449 S   0  0  0  0  0  0  0  0  0  0  0  0
   -2.0343   -1.7330    2.1360 H   0  0  0  0  0  0  0  0  0  0  0  0
   -0.6943   -0.5780    2.0550 H   0  0  0  0  0  0  0  0  0  0  0  0
   -2.2799   -0.1590    1.3694 H   0  0  0  0  0  0  0  0  0  0  0  0
   -4.0738   -2.7901   -1.7291 H   0  0  0  0  0  0  0  0  0  0  0  0
   -0.6114   -3.7322    0.9707 H   0  0  0  0  0  0  0  0  0  0  0  0
    0.9714   -0.2493   -2.2244 C   0  0  0  0  0  0  0  0  0  0  0  0
    0.9714   -0.2493   -0.6952 C   0  0  0  0  0  0  0  0  0  0  0  0
    0.9714    1.1450   -0.1258 C   0  0  0  0  0  0  0  0  0  0  0  0
   -0.2231    1.8140    0.1219 C   0  0  0  0  0  0  0  0  0  0  0  0
   -0.2264    3.1142    0.6028 C   0  0  0  0  0  0  0  0  0  0  0  0
    0.9714    3.7695    0.8446 C   0  0  0  0  0  0  0  0  0  0  0  0
    2.1692    3.1142    0.6028 C   0  0  0  0  0  0  0  0  0  0  0  0
    2.1659    1.8140    0.1219 C   0  0  0  0  0  0  0  0  0  0  0  0
    1.8527    0.2658   -2.6112 H   0  0  0  0  0  0  0  0  0  0  0  0
    0.0901    0.2658   -2.6112 H   0  0  0  0  0  0  0  0  0  0  0  0
    0.9714   -1.2677   -2.6167 H   0  0  0  0  0  0  0  0  0  0  0  0
   -0.0806   -0.8993   -0.2595 H   0  0  0  0  0  0  0  0  0  0  0  0
    1.8480   -0.7909   -0.3321 H   0  0  0  0  0  0  0  0  0  0  0  0
   -1.1640    1.3068   -0.0618 H   0  0  0  0  0  0  0  0  0  0  0  0
   -1.1672    3.6159    0.7927 H   0  0  0  0  0  0  0  0  0  0  0  0
    0.9714    4.7839    1.2230 H   0  0  0  0  0  0  0  0  0  0  0  0
    3.1100    3.6159    0.7927 H   0  0  0  0  0  0  0  0  0  0  0  0
    3.1068    1.3068   -0.0618 H   0  0  0  0  0  0  0  0  0  0  0  0
  1  2  1  0
  1  6  1  0
  1  7  1  0
  1  8  1  0
  2  3  1  0
  2  5  1  0
  3  4  3  0
  4  9  1  0
  5 10  1  0
 11 12  1  0
 11 19  1  0
 11 20  1  0
 11 21  1  0
 12 13  1  0
 12 22  1  0
 12 23  1  0
 13 14  2  0
 13 18  1  0
 14 15  1  0
 14 24  1  0
 15 16  2  0
 15 25  1  0
 16 17  1  0
 16 26  1  0
 17 18  2  0
 17 27  1  0
 18 28  1  0
M  RAD  1   2   2
M  END
>  <reaction>  (15) 
rxn_1512

>  <mol_properties>  (15) 
{"1": {"label": "*1", "atom_type": "Cs"}, "4": {"label": "*0", "atom_type": "S2s"}, "11": {"label": "*3", "atom_type": "Cd"}, "12": {"label": "*4", "atom_type": "Cd"}, "21": {"label": "*2", "atom_type": "H0"}}

>  <type>  (15) 
unop_11

>  <geom_source>  (15) 
Heuristics

$$$$

     RDKit          3D

 28 27  0  0  0  0  0  0  0  0999 V2000
   -1.8375   -2.2851   -1.2508 C   0  0  0  0  0  0  0  0  0  0  0  0
   -1.0267   -1.7841   -0.0565 C   0  0  0  0  0  3  0  0  0  0  0  0
   -0.5714   -2.8792    0.7900 C   0  0  0  0  0  0  0  0  0  0  0  0
   -0.2193   -3.8013    1.4679 C   0  0  0  0  0  0  0  0  0  0  0  0
   -1.9166   -0.5125    0.9166 S   0  0  0  0  0  0  0  0  0  0  0  0
   -2.7372   -2.7993   -0.9114 H   0  0  0  0  0  0  0  0  0  0  0  0
   -2.1317   -1.4471   -1.8815 H   0  0  0  0  0  0  0  0  0  0  0  0
   -1.2442   -2.9867   -1.8396 H   0  0  0  0  0  0  0  0  0  0  0  0
    0.0934   -4.6203    2.0699 H   0  0  0  0  0  0  0  0  0  0  0  0
   -2.8789   -1.3282    1.3679 H   0  0  0  0  0  0  0  0  0  0  0  0
    1.0773   -0.4840   -2.4572 C   0  0  0  0  0  0  0  0  0  0  0  0
    1.0773   -0.4840   -0.9281 C   0  0  0  0  0  0  0  0  0  0  0  0
    1.0773    0.9103   -0.3587 C   0  0  0  0  0  0  0  0  0  0  0  0
   -0.1172    1.5792   -0.1110 C   0  0  0  0  0  0  0  0  0  0  0  0
   -0.1205    2.8795    0.3700 C   0  0  0  0  0  0  0  0  0  0  0  0
    1.0773    3.5348    0.6118 C   0  0  0  0  0  0  0  0  0  0  0  0
    2.2751    2.8795    0.3700 C   0  0  0  0  0  0  0  0  0  0  0  0
    2.2718    1.5792   -0.1110 C   0  0  0  0  0  0  0  0  0  0  0  0
    1.9586    0.0311   -2.8441 H   0  0  0  0  0  0  0  0  0  0  0  0
    0.1960    0.0311   -2.8441 H   0  0  0  0  0  0  0  0  0  0  0  0
    1.0773   -1.5024   -2.8495 H   0  0  0  0  0  0  0  0  0  0  0  0
    0.0254   -1.1340   -0.4924 H   0  0  0  0  0  0  0  0  0  0  0  0
    1.9540   -1.0257   -0.5650 H   0  0  0  0  0  0  0  0  0  0  0  0
   -1.0581    1.0721   -0.2947 H   0  0  0  0  0  0  0  0  0  0  0  0
   -1.0613    3.3812    0.5599 H   0  0  0  0  0  0  0  0  0  0  0  0
    1.0773    4.5491    0.9901 H   0  0  0  0  0  0  0  0  0  0  0  0
    3.2159    3.3812    0.5599 H   0  0  0  0  0  0  0  0  0  0  0  0
    3.2127    1.0721   -0.2947 H   0  0  0  0  0  0  0  0  0  0  0  0
  1  2  1  0
  1  6  1  0
  1  7  1  0
  1  8  1  0
  2  3  1  0
  2  5  1  0
  3  4  3  0
  4  9  1  0
  5 10  1  0
 11 12  1  0
 11 19  1  0
 11 20  1  0
 11 21  1  0
 12 13  1  0
 12 22  1  0
 12 23  1  0
 13 14  2  0
 13 18  1  0
 14 15  1  0
 14 24  1  0
 15 16  2  0
 15 25  1  0
 16 17  1  0
 16 26  1  0
 17 18  2  0
 17 27  1  0
 18 28  1  0
M  RAD  1   2   2
M  END
>  <reaction>  (16) 
rxn_1512

>  <mol_properties>  (16) 
{"1": {"label": "*1", "atom_type": "Cs"}, "4": {"label": "*0", "atom_type": "S2s"}, "11": {"label": "*3", "atom_type": "Cd"}, "12": {"label": "*4", "atom_type": "Cd"}, "21": {"label": "*2", "atom_type": "H0"}}

>  <type>  (16) 
unop_12

>  <geom_source>  (16) 
Heuristics

$$$$

     RDKit          3D

 28 27  0  0  0  0  0  0  0  0999 V2000
   -2.0643    0.4510    2.1071 S   0  0  0  0  0  0  0  0  0  0  0  0
   -2.1091    0.3798    0.2891 C   0  0  0  0  0  0  0  0  0  0  0  0
   -2.0505    1.7893   -0.2894 C   0  0  0  0  0  0  0  0  0  0  0  0
    0.3279   -2.1903    1.1564 C   0  0  0  0  0  0  0  0  0  0  0  0
    1.1682   -0.2994   -0.2394 C   0  0  0  0  0  0  0  0  0  0  0  0
   -0.0115   -1.1671    0.0805 C   0  0  0  0  0  0  0  0  0  0  0  0
    1.2822    0.9640    0.3575 C   0  0  0  0  0  3  0  0  0  0  0  0
    2.1765   -0.7511   -1.1060 C   0  0  0  0  0  0  0  0  0  0  0  0
    2.3887    1.7738    0.0813 C   0  0  0  0  0  0  0  0  0  0  0  0
    3.3872    1.3232   -0.7876 C   0  0  0  0  0  0  0  0  0  0  0  0
    3.2816    0.0612   -1.3801 C   0  0  0  0  0  0  0  0  0  0  0  0
   -3.3367   -0.2990   -0.1439 C   0  0  0  0  0  0  0  0  0  0  0  0
   -4.3441   -0.8575   -0.5002 C   0  0  0  0  0  0  0  0  0  0  0  0
   -1.0684   -0.3036   -0.1386 H   0  0  0  0  0  0  0  0  0  0  0  0
   -2.0595    1.7468   -1.3996 H   0  0  0  0  0  0  0  0  0  0  0  0
   -2.9164    2.3936    0.0583 H   0  0  0  0  0  0  0  0  0  0  0  0
   -1.1118    2.2877    0.0321 H   0  0  0  0  0  0  0  0  0  0  0  0
    0.6665   -1.6750    2.0801 H   0  0  0  0  0  0  0  0  0  0  0  0
    1.1265   -2.8757    0.8007 H   0  0  0  0  0  0  0  0  0  0  0  0
   -0.5776   -2.7864    1.3938 H   0  0  0  0  0  0  0  0  0  0  0  0
   -0.3867   -1.6748   -0.8343 H   0  0  0  0  0  0  0  0  0  0  0  0
    0.5160    1.3200    1.0353 H   0  0  0  0  0  0  0  0  0  0  0  0
    2.4731    2.7496    0.5419 H   0  0  0  0  0  0  0  0  0  0  0  0
    2.1060   -1.7290   -1.5662 H   0  0  0  0  0  0  0  0  0  0  0  0
    4.2432    1.9506   -0.9999 H   0  0  0  0  0  0  0  0  0  0  0  0
    4.0566   -0.2881   -2.0499 H   0  0  0  0  0  0  0  0  0  0  0  0
   -1.9354   -0.9456    2.2339 H   0  0  0  0  0  0  0  0  0  0  0  0
   -5.2284   -1.3477   -0.8128 H   0  0  0  0  0  0  0  0  0  0  0  0
  1  2  1  0
  1 27  1  0
  2  3  1  0
  2 12  1  0
  2 14  1  0
  3 15  1  0
  3 16  1  0
  3 17  1  0
  4  6  1  0
  4 18  1  0
  4 19  1  0
  4 20  1  0
  5  6  2  3
  5  7  1  0
  5  8  1  0
  6 21  1  0
  7  9  1  0
  7 22  1  0
  8 11  2  0
  8 24  1  0
  9 10  2  0
  9 23  1  0
 10 11  1  0
 10 25  1  0
 11 26  1  0
 12 13  3  0
 13 28  1  0
M  RAD  1   7   2
M  END
>  <reaction>  (17) 
rxn_1512

>  <mol_properties>  (17) 
{"1": {"label": "*1", "atom_type": "Cs"}, "4": {"label": "*0", "atom_type": "S2s"}, "11": {"label": "*3", "atom_type": "Cd"}, "12": {"label": "*4", "atom_type": "Cd"}, "21": {"label": "*2", "atom_type": "H0"}}

>  <type>  (17) 
unop_13

>  <geom_source>  (17) 
AutoTST

$$$$
