
     RDKit          3D

  7  6  0  0  0  0  0  0  0  0999 V2000
    1.6964   -0.0938    0.0583 C   0  0  0  0  0  0  0  0  0  0  0  0
    0.5019   -0.0278    0.0173 C   0  0  0  0  0  0  0  0  0  0  0  0
   -0.9505    0.0525   -0.0327 C   0  0  0  0  0  0  0  0  0  0  0  0
    2.7574   -0.1524    0.0947 H   0  0  0  0  0  0  0  0  0  0  0  0
   -1.2692    0.9972   -0.4754 H   0  0  0  0  0  0  0  0  0  0  0  0
   -1.3749   -0.0147    0.9700 H   0  0  0  0  0  0  0  0  0  0  0  0
   -1.3610   -0.7611   -0.6323 H   0  0  0  0  0  0  0  0  0  0  0  0
  1  2  3  0
  1  4  1  0
  2  3  1  0
  3  5  1  0
  3  6  1  0
  3  7  1  0
M  END
>  <reaction>  (1) 
rxn_1239

>  <mol_properties>  (1) 
{"2": {"label": "donator", "atom_type": "Cs"}, "4": {"label": "d_hydrogen", "atom_type": "H0"}}

>  <type>  (1) 
r1h

$$$$

     RDKit          3D

  9  8  0  0  0  0  0  0  0  0999 V2000
   -1.2704   -0.1236    0.1096 C   0  0  0  0  0  0  0  0  0  0  0  0
    0.0713   -0.5323    0.5887 C   0  0  0  0  0  0  0  0  0  0  0  0
    0.9521   -1.3639   -0.0464 C   0  0  0  0  0  0  0  0  0  0  0  0
    0.6900   -2.1109   -1.5335 S   0  0  0  0  0  1  0  0  0  0  0  0
   -1.3201    0.9657    0.0241 H   0  0  0  0  0  0  0  0  0  0  0  0
   -1.5103   -0.5706   -0.8526 H   0  0  0  0  0  0  0  0  0  0  0  0
   -2.0312   -0.4112    0.8411 H   0  0  0  0  0  0  0  0  0  0  0  0
    0.3863   -0.1265    1.5468 H   0  0  0  0  0  0  0  0  0  0  0  0
    1.8971   -1.5543    0.4552 H   0  0  0  0  0  0  0  0  0  0  0  0
  1  2  1  0
  1  5  1  0
  1  6  1  0
  1  7  1  0
  2  3  2  3
  2  8  1  0
  3  4  1  0
  3  9  1  0
M  RAD  1   4   2
M  END
>  <reaction>  (2) 
rxn_1239

>  <mol_properties>  (2) 
{"1": {"label": "acceptor", "atom_type": "Cs"}}

>  <type>  (2) 
r2

$$$$

     RDKit          3D

 10  9  0  0  0  0  0  0  0  0999 V2000
   -1.1508    0.0666    0.2839 C   0  0  0  0  0  0  0  0  0  0  0  0
    0.1022   -0.3749   -0.4771 C   0  0  0  0  0  0  0  0  0  0  0  0
    1.3428    0.1620    0.1542 C   0  0  0  0  0  0  0  0  0  0  0  0
    2.5613   -0.6971    0.7526 S   0  0  0  0  0  0  0  0  0  0  0  0
   -1.2137    1.1546    0.3481 H   0  0  0  0  0  0  0  0  0  0  0  0
   -2.0472   -0.2935   -0.2212 H   0  0  0  0  0  0  0  0  0  0  0  0
   -1.1467   -0.3334    1.2987 H   0  0  0  0  0  0  0  0  0  0  0  0
    0.1602   -1.4616   -0.5369 H   0  0  0  0  0  0  0  0  0  0  0  0
    0.0536    0.0174   -1.4997 H   0  0  0  0  0  0  0  0  0  0  0  0
    1.3824    1.2528    0.2110 H   0  0  0  0  0  0  0  0  0  0  0  0
  1  2  1  0
  1  5  1  0
  1  6  1  0
  1  7  1  0
  2  3  1  0
  2  8  1  0
  2  9  1  0
  3  4  2  0
  3 10  1  0
M  END
>  <reaction>  (3) 
rxn_1239

>  <mol_properties>  (3) 
{"0": {"label": "a_hydrogen", "atom_type": "H0"}, "2": {"label": "acceptor", "atom_type": "Cs"}}

>  <type>  (3) 
r2h

$$$$

     RDKit          3D

 16 14  0  0  0  0  0  0  0  0999 V2000
   -0.2536   -1.4700   -2.1687 C   0  0  0  0  0  0  0  0  0  0  0  0
   -0.8543   -1.5488   -1.1270 C   0  0  0  0  0  0  0  0  0  0  0  0
   -1.5083   -1.5228    0.1167 C   0  0  0  0  0  3  0  0  0  0  0  0
    0.2758   -1.4262   -3.0902 H   0  0  0  0  0  0  0  0  0  0  0  0
   -1.1615   -0.2203    0.6224 H   0  0  0  0  0  0  0  0  0  0  0  0
   -1.0978   -2.1548    0.8983 H   0  0  0  0  0  0  0  0  0  0  0  0
   -2.5922   -1.4643    0.1012 H   0  0  0  0  0  0  0  0  0  0  0  0
   -0.2533    0.4590    2.5196 C   0  0  0  0  0  0  0  0  0  0  0  0
   -0.7916    0.8737    1.1740 C   0  0  0  0  0  0  0  0  0  0  0  0
    0.0962    1.4197    0.1704 C   0  0  0  0  0  0  0  0  0  0  0  0
    1.7216    1.3246    0.1598 S   0  0  0  0  0  0  0  0  0  0  0  0
    0.6110   -0.1955    2.4089 H   0  0  0  0  0  0  0  0  0  0  0  0
    0.0703    1.3318    3.0905 H   0  0  0  0  0  0  0  0  0  0  0  0
   -1.0214   -0.0595    3.0949 H   0  0  0  0  0  0  0  0  0  0  0  0
   -1.7502    1.3933    1.2121 H   0  0  0  0  0  0  0  0  0  0  0  0
   -0.4059    1.8919   -0.6736 H   0  0  0  0  0  0  0  0  0  0  0  0
  1  2  3  0
  1  4  1  0
  2  3  1  0
  3  6  1  0
  3  7  1  0
  5  9  1  0
  8  9  1  0
  8 12  1  0
  8 13  1  0
  8 14  1  0
  9 10  1  0
  9 15  1  0
 10 11  2  0
 10 16  1  0
M  RAD  1   3   2
M  END
>  <reaction>  (4) 
rxn_1239

>  <mol_properties>  (4) 
{"1": {"label": "*4", "atom_type": "Ct"}, "2": {"label": "*3", "atom_type": "Cs"}, "4": {"label": "*2", "atom_type": "H0"}, "8": {"label": "*1", "atom_type": "Cs"}, "9": {"label": "*0", "atom_type": "CS"}}

>  <type>  (4) 
ts

$$$$

     RDKit          3D

 16 14  0  0  0  0  0  0  0  0999 V2000
   -0.5327   -0.9143   -3.1390 C   0  0  0  0  0  0  0  0  0  0  0  0
   -0.5327   -0.9143   -1.9419 C   0  0  0  0  0  0  0  0  0  0  0  0
   -0.5327   -0.9143   -0.4865 C   0  0  0  0  0  3  0  0  0  0  0  0
   -0.5327   -0.9143   -4.2022 H   0  0  0  0  0  0  0  0  0  0  0  0
   -0.4212    0.3052   -0.0241 H   0  0  0  0  0  0  0  0  0  0  0  0
    0.3010   -1.5029   -0.1011 H   0  0  0  0  0  0  0  0  0  0  0  0
   -1.4593   -1.3420   -0.1011 H   0  0  0  0  0  0  0  0  0  0  0  0
   -1.5189    1.8961    1.3004 C   0  0  0  0  0  0  0  0  0  0  0  0
   -0.3099    1.5237    0.4379 C   0  0  0  0  0  0  0  0  0  0  0  0
    0.7023    0.7542    1.2185 C   0  0  0  0  0  0  0  0  0  0  0  0
    1.2220   -0.7339    0.9075 S   0  0  0  0  0  0  0  0  0  0  0  0
   -2.0385    1.0004    1.6433 H   0  0  0  0  0  0  0  0  0  0  0  0
   -1.2184    2.4713    2.1782 H   0  0  0  0  0  0  0  0  0  0  0  0
   -2.2220    2.4997    0.7263 H   0  0  0  0  0  0  0  0  0  0  0  0
    0.1719    2.4431    0.0853 H   0  0  0  0  0  0  0  0  0  0  0  0
    1.0944    1.2833    2.0907 H   0  0  0  0  0  0  0  0  0  0  0  0
  1  2  3  0
  1  4  1  0
  2  3  1  0
  3  6  1  0
  3  7  1  0
  5  9  1  0
  8  9  1  0
  8 12  1  0
  8 13  1  0
  8 14  1  0
  9 10  1  0
  9 15  1  0
 10 11  2  0
 10 16  1  0
M  RAD  1   3   2
M  END
>  <reaction>  (5) 
rxn_1239

>  <mol_properties>  (5) 
{"1": {"label": "*4", "atom_type": "Ct"}, "2": {"label": "*3", "atom_type": "Cs"}, "4": {"label": "*2", "atom_type": "H0"}, "8": {"label": "*1", "atom_type": "Cs"}, "9": {"label": "*0", "atom_type": "CS"}}

>  <type>  (5) 
unop_1

>  <geom_source>  (5) 
Heuristics

$$$$

     RDKit          3D

 16 14  0  0  0  0  0  0  0  0999 V2000
    0.4655   -1.2418   -3.2674 C   0  0  0  0  0  0  0  0  0  0  0  0
    0.4655   -1.2418   -2.0704 C   0  0  0  0  0  0  0  0  0  0  0  0
    0.4655   -1.2418   -0.6150 C   0  0  0  0  0  3  0  0  0  0  0  0
    0.4655   -1.2418   -4.3307 H   0  0  0  0  0  0  0  0  0  0  0  0
    0.5769   -0.0222   -0.1526 H   0  0  0  0  0  0  0  0  0  0  0  0
    1.2992   -1.8304   -0.2296 H   0  0  0  0  0  0  0  0  0  0  0  0
   -0.4611   -1.6695   -0.2296 H   0  0  0  0  0  0  0  0  0  0  0  0
    0.0631    2.2079   -0.6548 C   0  0  0  0  0  0  0  0  0  0  0  0
    0.6883    1.1962    0.3094 C   0  0  0  0  0  0  0  0  0  0  0  0
   -0.1818    0.9651    1.4991 C   0  0  0  0  0  0  0  0  0  0  0  0
   -0.8279   -0.4333    1.9554 S   0  0  0  0  0  0  0  0  0  0  0  0
   -0.8782    1.8287   -1.0547 H   0  0  0  0  0  0  0  0  0  0  0  0
   -0.1378    3.1587   -0.1575 H   0  0  0  0  0  0  0  0  0  0  0  0
    0.7360    2.4003   -1.4905 H   0  0  0  0  0  0  0  0  0  0  0  0
    1.6447    1.5928    0.6697 H   0  0  0  0  0  0  0  0  0  0  0  0
   -0.3905    1.8639    2.0848 H   0  0  0  0  0  0  0  0  0  0  0  0
  1  2  3  0
  1  4  1  0
  2  3  1  0
  3  6  1  0
  3  7  1  0
  5  9  1  0
  8  9  1  0
  8 12  1  0
  8 13  1  0
  8 14  1  0
  9 10  1  0
  9 15  1  0
 10 11  2  0
 10 16  1  0
M  RAD  1   3   2
M  END
>  <reaction>  (6) 
rxn_1239

>  <mol_properties>  (6) 
{"1": {"label": "*4", "atom_type": "Ct"}, "2": {"label": "*3", "atom_type": "Cs"}, "4": {"label": "*2", "atom_type": "H0"}, "8": {"label": "*1", "atom_type": "Cs"}, "9": {"label": "*0", "atom_type": "CS"}}

>  <type>  (6) 
unop_2

>  <geom_source>  (6) 
Heuristics

$$$$

     RDKit          3D

 16 14  0  0  0  0  0  0  0  0999 V2000
   -0.8436   -1.1181   -2.8956 C   0  0  0  0  0  0  0  0  0  0  0  0
   -0.8436   -1.1181   -1.6985 C   0  0  0  0  0  0  0  0  0  0  0  0
   -0.8436   -1.1181   -0.2431 C   0  0  0  0  0  3  0  0  0  0  0  0
   -0.8436   -1.1181   -3.9588 H   0  0  0  0  0  0  0  0  0  0  0  0
   -0.7321    0.1015    0.2193 H   0  0  0  0  0  0  0  0  0  0  0  0
   -0.0098   -1.7066    0.1423 H   0  0  0  0  0  0  0  0  0  0  0  0
   -1.7702   -1.5458    0.1423 H   0  0  0  0  0  0  0  0  0  0  0  0
   -1.3256    1.4607    2.0332 C   0  0  0  0  0  0  0  0  0  0  0  0
   -0.6207    1.3200    0.6813 C   0  0  0  0  0  0  0  0  0  0  0  0
    0.8285    1.0082    0.8502 C   0  0  0  0  0  0  0  0  0  0  0  0
    1.5958   -0.2971    0.3130 S   0  0  0  0  0  0  0  0  0  0  0  0
   -1.2947    0.5197    2.5840 H   0  0  0  0  0  0  0  0  0  0  0  0
   -0.8546    2.2297    2.6484 H   0  0  0  0  0  0  0  0  0  0  0  0
   -2.3699    1.7375    1.8888 H   0  0  0  0  0  0  0  0  0  0  0  0
   -0.6949    2.2710    0.1411 H   0  0  0  0  0  0  0  0  0  0  0  0
    1.3869    1.7592    1.4147 H   0  0  0  0  0  0  0  0  0  0  0  0
  1  2  3  0
  1  4  1  0
  2  3  1  0
  3  6  1  0
  3  7  1  0
  5  9  1  0
  8  9  1  0
  8 12  1  0
  8 13  1  0
  8 14  1  0
  9 10  1  0
  9 15  1  0
 10 11  2  0
 10 16  1  0
M  RAD  1   3   2
M  END
>  <reaction>  (7) 
rxn_1239

>  <mol_properties>  (7) 
{"1": {"label": "*4", "atom_type": "Ct"}, "2": {"label": "*3", "atom_type": "Cs"}, "4": {"label": "*2", "atom_type": "H0"}, "8": {"label": "*1", "atom_type": "Cs"}, "9": {"label": "*0", "atom_type": "CS"}}

>  <type>  (7) 
unop_3

>  <geom_source>  (7) 
Heuristics

$$$$

     RDKit          3D

 16 14  0  0  0  0  0  0  0  0999 V2000
    0.4911   -2.1156   -2.6642 C   0  0  0  0  0  0  0  0  0  0  0  0
    0.4911   -2.1156   -1.4672 C   0  0  0  0  0  0  0  0  0  0  0  0
    0.4911   -2.1156   -0.0117 C   0  0  0  0  0  3  0  0  0  0  0  0
    0.4911   -2.1156   -3.7275 H   0  0  0  0  0  0  0  0  0  0  0  0
    0.6026   -0.8960    0.4507 H   0  0  0  0  0  0  0  0  0  0  0  0
    1.3248   -2.7042    0.3736 H   0  0  0  0  0  0  0  0  0  0  0  0
   -0.4355   -2.5433    0.3736 H   0  0  0  0  0  0  0  0  0  0  0  0
    2.0164    0.9723    0.4379 C   0  0  0  0  0  0  0  0  0  0  0  0
    0.7139    0.3224    0.9127 C   0  0  0  0  0  0  0  0  0  0  0  0
   -0.3275    1.3458    1.2195 C   0  0  0  0  0  0  0  0  0  0  0  0
   -1.7667    1.4866    0.5196 S   0  0  0  0  0  0  0  0  0  0  0  0
    1.8592    1.5136   -0.4960 H   0  0  0  0  0  0  0  0  0  0  0  0
    2.4015    1.6766    1.1778 H   0  0  0  0  0  0  0  0  0  0  0  0
    2.7788    0.2121    0.2676 H   0  0  0  0  0  0  0  0  0  0  0  0
    0.9113   -0.2370    1.8346 H   0  0  0  0  0  0  0  0  0  0  0  0
   -0.0390    2.0631    1.9920 H   0  0  0  0  0  0  0  0  0  0  0  0
  1  2  3  0
  1  4  1  0
  2  3  1  0
  3  6  1  0
  3  7  1  0
  5  9  1  0
  8  9  1  0
  8 12  1  0
  8 13  1  0
  8 14  1  0
  9 10  1  0
  9 15  1  0
 10 11  2  0
 10 16  1  0
M  RAD  1   3   2
M  END
>  <reaction>  (8) 
rxn_1239

>  <mol_properties>  (8) 
{"1": {"label": "*4", "atom_type": "Ct"}, "2": {"label": "*3", "atom_type": "Cs"}, "4": {"label": "*2", "atom_type": "H0"}, "8": {"label": "*1", "atom_type": "Cs"}, "9": {"label": "*0", "atom_type": "CS"}}

>  <type>  (8) 
unop_4

>  <geom_source>  (8) 
Heuristics

$$$$

     RDKit          3D

 16 14  0  0  0  0  0  0  0  0999 V2000
   -0.9382   -1.6486   -2.5184 C   0  0  0  0  0  0  0  0  0  0  0  0
   -0.9382   -1.6486   -1.3214 C   0  0  0  0  0  0  0  0  0  0  0  0
   -0.9382   -1.6486    0.1340 C   0  0  0  0  0  3  0  0  0  0  0  0
   -0.9382   -1.6486   -3.5817 H   0  0  0  0  0  0  0  0  0  0  0  0
   -0.8267   -0.4291    0.5964 H   0  0  0  0  0  0  0  0  0  0  0  0
   -0.1045   -2.2372    0.5194 H   0  0  0  0  0  0  0  0  0  0  0  0
   -1.8648   -2.0763    0.5194 H   0  0  0  0  0  0  0  0  0  0  0  0
   -0.7146    0.7977    2.5895 C   0  0  0  0  0  0  0  0  0  0  0  0
   -0.7154    0.7894    1.0584 C   0  0  0  0  0  0  0  0  0  0  0  0
    0.5161    1.4266    0.5077 C   0  0  0  0  0  0  0  0  0  0  0  0
    1.6137    0.7305   -0.4366 S   0  0  0  0  0  0  0  0  0  0  0  0
    0.1153    0.2060    2.9779 H   0  0  0  0  0  0  0  0  0  0  0  0
   -0.6206    1.8124    2.9811 H   0  0  0  0  0  0  0  0  0  0  0  0
   -1.6437    0.3740    2.9709 H   0  0  0  0  0  0  0  0  0  0  0  0
   -1.5761    1.3661    0.7003 H   0  0  0  0  0  0  0  0  0  0  0  0
    0.6588    2.4664    0.8123 H   0  0  0  0  0  0  0  0  0  0  0  0
  1  2  3  0
  1  4  1  0
  2  3  1  0
  3  6  1  0
  3  7  1  0
  5  9  1  0
  8  9  1  0
  8 12  1  0
  8 13  1  0
  8 14  1  0
  9 10  1  0
  9 15  1  0
 10 11  2  0
 10 16  1  0
M  RAD  1   3   2
M  END
>  <reaction>  (9) 
rxn_1239

>  <mol_properties>  (9) 
{"1": {"label": "*4", "atom_type": "Ct"}, "2": {"label": "*3", "atom_type": "Cs"}, "4": {"label": "*2", "atom_type": "H0"}, "8": {"label": "*1", "atom_type": "Cs"}, "9": {"label": "*0", "atom_type": "CS"}}

>  <type>  (9) 
unop_5

>  <geom_source>  (9) 
Heuristics

$$$$

     RDKit          3D

 16 14  0  0  0  0  0  0  0  0999 V2000
    0.2697   -2.2398   -2.4766 C   0  0  0  0  0  0  0  0  0  0  0  0
    0.2697   -2.2398   -1.2796 C   0  0  0  0  0  0  0  0  0  0  0  0
    0.2697   -2.2398    0.1758 C   0  0  0  0  0  3  0  0  0  0  0  0
    0.2697   -2.2398   -3.5399 H   0  0  0  0  0  0  0  0  0  0  0  0
    0.3812   -1.0202    0.6383 H   0  0  0  0  0  0  0  0  0  0  0  0
    1.1034   -2.8284    0.5612 H   0  0  0  0  0  0  0  0  0  0  0  0
   -0.6569   -2.6675    0.5612 H   0  0  0  0  0  0  0  0  0  0  0  0
    1.9627    0.5793    1.2941 C   0  0  0  0  0  0  0  0  0  0  0  0
    0.4925    0.1982    1.1003 C   0  0  0  0  0  0  0  0  0  0  0  0
   -0.3848    1.4044    1.0652 C   0  0  0  0  0  0  0  0  0  0  0  0
   -1.3309    1.8650   -0.1488 S   0  0  0  0  0  0  0  0  0  0  0  0
    2.3214    1.1730    0.4524 H   0  0  0  0  0  0  0  0  0  0  0  0
    2.1049    1.1624    2.2059 H   0  0  0  0  0  0  0  0  0  0  0  0
    2.5796   -0.3165    1.3673 H   0  0  0  0  0  0  0  0  0  0  0  0
    0.1715   -0.4213    1.9458 H   0  0  0  0  0  0  0  0  0  0  0  0
   -0.3399    2.0192    1.9677 H   0  0  0  0  0  0  0  0  0  0  0  0
  1  2  3  0
  1  4  1  0
  2  3  1  0
  3  6  1  0
  3  7  1  0
  5  9  1  0
  8  9  1  0
  8 12  1  0
  8 13  1  0
  8 14  1  0
  9 10  1  0
  9 15  1  0
 10 11  2  0
 10 16  1  0
M  RAD  1   3   2
M  END
>  <reaction>  (10) 
rxn_1239

>  <mol_properties>  (10) 
{"1": {"label": "*4", "atom_type": "Ct"}, "2": {"label": "*3", "atom_type": "Cs"}, "4": {"label": "*2", "atom_type": "H0"}, "8": {"label": "*1", "atom_type": "Cs"}, "9": {"label": "*0", "atom_type": "CS"}}

>  <type>  (10) 
unop_6

>  <geom_source>  (10) 
Heuristics

$$$$

     RDKit          3D

 16 14  0  0  0  0  0  0  0  0999 V2000
   -0.0517   -2.2719   -2.3243 C   0  0  0  0  0  0  0  0  0  0  0  0
   -0.0517   -2.2719   -1.1273 C   0  0  0  0  0  0  0  0  0  0  0  0
   -0.0517   -2.2719    0.3281 C   0  0  0  0  0  3  0  0  0  0  0  0
   -0.0517   -2.2719   -3.3876 H   0  0  0  0  0  0  0  0  0  0  0  0
    0.0598   -1.0524    0.7906 H   0  0  0  0  0  0  0  0  0  0  0  0
    0.7820   -2.8605    0.7135 H   0  0  0  0  0  0  0  0  0  0  0  0
   -0.9783   -2.6996    0.7135 H   0  0  0  0  0  0  0  0  0  0  0  0
    1.4276    0.3132    2.1150 C   0  0  0  0  0  0  0  0  0  0  0  0
    0.1711    0.1661    1.2526 C   0  0  0  0  0  0  0  0  0  0  0  0
   -0.3532    1.4941    0.8195 C   0  0  0  0  0  0  0  0  0  0  0  0
   -0.5298    2.0067   -0.6928 S   0  0  0  0  0  0  0  0  0  0  0  0
    2.2362    0.7707    1.5436 H   0  0  0  0  0  0  0  0  0  0  0  0
    1.2371    0.9354    2.9915 H   0  0  0  0  0  0  0  0  0  0  0  0
    1.7652   -0.6635    2.4620 H   0  0  0  0  0  0  0  0  0  0  0  0
   -0.6113   -0.3226    1.8448 H   0  0  0  0  0  0  0  0  0  0  0  0
   -0.6181    2.1627    1.6424 H   0  0  0  0  0  0  0  0  0  0  0  0
  1  2  3  0
  1  4  1  0
  2  3  1  0
  3  6  1  0
  3  7  1  0
  5  9  1  0
  8  9  1  0
  8 12  1  0
  8 13  1  0
  8 14  1  0
  9 10  1  0
  9 15  1  0
 10 11  2  0
 10 16  1  0
M  RAD  1   3   2
M  END
>  <reaction>  (11) 
rxn_1239

>  <mol_properties>  (11) 
{"1": {"label": "*4", "atom_type": "Ct"}, "2": {"label": "*3", "atom_type": "Cs"}, "4": {"label": "*2", "atom_type": "H0"}, "8": {"label": "*1", "atom_type": "Cs"}, "9": {"label": "*0", "atom_type": "CS"}}

>  <type>  (11) 
unop_7

>  <geom_source>  (11) 
Heuristics

$$$$

     RDKit          3D

 16 14  0  0  0  0  0  0  0  0999 V2000
   -0.1986   -0.8949   -3.2841 C   0  0  0  0  0  0  0  0  0  0  0  0
   -0.1986   -0.8949   -2.0871 C   0  0  0  0  0  0  0  0  0  0  0  0
   -0.1986   -0.8949   -0.6316 C   0  0  0  0  0  3  0  0  0  0  0  0
   -0.1986   -0.8949   -4.3474 H   0  0  0  0  0  0  0  0  0  0  0  0
   -0.0871    0.3246   -0.1692 H   0  0  0  0  0  0  0  0  0  0  0  0
    0.6351   -1.4835   -0.2463 H   0  0  0  0  0  0  0  0  0  0  0  0
   -1.1252   -1.3226   -0.2463 H   0  0  0  0  0  0  0  0  0  0  0  0
   -1.3525    2.1843    0.4866 C   0  0  0  0  0  0  0  0  0  0  0  0
    0.0242    1.5431    0.2928 C   0  0  0  0  0  0  0  0  0  0  0  0
    0.4015    0.6948    1.4607 C   0  0  0  0  0  0  0  0  0  0  0  0
    0.7185   -0.8800    1.4374 S   0  0  0  0  0  0  0  0  0  0  0  0
   -2.1282    1.4202    0.5513 H   0  0  0  0  0  0  0  0  0  0  0  0
   -1.3874    2.7816    1.3997 H   0  0  0  0  0  0  0  0  0  0  0  0
   -1.5871    2.8386   -0.3531 H   0  0  0  0  0  0  0  0  0  0  0  0
    0.7759    2.3358    0.2017 H   0  0  0  0  0  0  0  0  0  0  0  0
    0.4402    1.2314    2.4121 H   0  0  0  0  0  0  0  0  0  0  0  0
  1  2  3  0
  1  4  1  0
  2  3  1  0
  3  6  1  0
  3  7  1  0
  5  9  1  0
  8  9  1  0
  8 12  1  0
  8 13  1  0
  8 14  1  0
  9 10  1  0
  9 15  1  0
 10 11  2  0
 10 16  1  0
M  RAD  1   3   2
M  END
>  <reaction>  (12) 
rxn_1239

>  <mol_properties>  (12) 
{"1": {"label": "*4", "atom_type": "Ct"}, "2": {"label": "*3", "atom_type": "Cs"}, "4": {"label": "*2", "atom_type": "H0"}, "8": {"label": "*1", "atom_type": "Cs"}, "9": {"label": "*0", "atom_type": "CS"}}

>  <type>  (12) 
unop_8

>  <geom_source>  (12) 
Heuristics

$$$$

     RDKit          3D

 16 14  0  0  0  0  0  0  0  0999 V2000
    0.6321   -1.8949   -2.8719 C   0  0  0  0  0  0  0  0  0  0  0  0
    0.6321   -1.8949   -1.6749 C   0  0  0  0  0  0  0  0  0  0  0  0
    0.6321   -1.8949   -0.2194 C   0  0  0  0  0  3  0  0  0  0  0  0
    0.6321   -1.8949   -3.9352 H   0  0  0  0  0  0  0  0  0  0  0  0
    0.7435   -0.6753    0.2430 H   0  0  0  0  0  0  0  0  0  0  0  0
    1.4658   -2.4834    0.1659 H   0  0  0  0  0  0  0  0  0  0  0  0
   -0.2945   -2.3226    0.1659 H   0  0  0  0  0  0  0  0  0  0  0  0
    1.6531    1.4247   -0.2593 C   0  0  0  0  0  0  0  0  0  0  0  0
    0.8549    0.5432    0.7050 C   0  0  0  0  0  0  0  0  0  0  0  0
   -0.2903    1.2874    1.3054 C   0  0  0  0  0  0  0  0  0  0  0  0
   -1.8475    0.9128    1.1784 S   0  0  0  0  0  0  0  0  0  0  0  0
    1.0341    1.7321   -1.1031 H   0  0  0  0  0  0  0  0  0  0  0  0
    2.0210    2.3246    0.2374 H   0  0  0  0  0  0  0  0  0  0  0  0
    2.5130    0.8789   -0.6478 H   0  0  0  0  0  0  0  0  0  0  0  0
    1.5115    0.2273    1.5241 H   0  0  0  0  0  0  0  0  0  0  0  0
   -0.0017    2.1794    1.8671 H   0  0  0  0  0  0  0  0  0  0  0  0
  1  2  3  0
  1  4  1  0
  2  3  1  0
  3  6  1  0
  3  7  1  0
  5  9  1  0
  8  9  1  0
  8 12  1  0
  8 13  1  0
  8 14  1  0
  9 10  1  0
  9 15  1  0
 10 11  2  0
 10 16  1  0
M  RAD  1   3   2
M  END
>  <reaction>  (13) 
rxn_1239

>  <mol_properties>  (13) 
{"1": {"label": "*4", "atom_type": "Ct"}, "2": {"label": "*3", "atom_type": "Cs"}, "4": {"label": "*2", "atom_type": "H0"}, "8": {"label": "*1", "atom_type": "Cs"}, "9": {"label": "*0", "atom_type": "CS"}}

>  <type>  (13) 
unop_9

>  <geom_source>  (13) 
Heuristics

$$$$

     RDKit          3D

 16 14  0  0  0  0  0  0  0  0999 V2000
    0.1507   -1.0035   -3.3345 C   0  0  0  0  0  0  0  0  0  0  0  0
    0.1507   -1.0035   -2.1375 C   0  0  0  0  0  0  0  0  0  0  0  0
    0.1507   -1.0035   -0.6821 C   0  0  0  0  0  3  0  0  0  0  0  0
    0.1507   -1.0035   -4.3978 H   0  0  0  0  0  0  0  0  0  0  0  0
    0.2621    0.2161   -0.2197 H   0  0  0  0  0  0  0  0  0  0  0  0
    0.9844   -1.5921   -0.2967 H   0  0  0  0  0  0  0  0  0  0  0  0
   -0.7759   -1.4312   -0.2967 H   0  0  0  0  0  0  0  0  0  0  0  0
   -0.7896    2.3098   -0.2325 C   0  0  0  0  0  0  0  0  0  0  0  0
    0.3735    1.4345    0.2423 C   0  0  0  0  0  0  0  0  0  0  0  0
    0.0678    0.7802    1.5478 C   0  0  0  0  0  0  0  0  0  0  0  0
    0.0088   -0.7992    1.8364 S   0  0  0  0  0  0  0  0  0  0  0  0
   -1.6787    1.7045   -0.4138 H   0  0  0  0  0  0  0  0  0  0  0  0
   -1.0422    3.0706    0.5085 H   0  0  0  0  0  0  0  0  0  0  0  0
   -0.5271    2.8174   -1.1607 H   0  0  0  0  0  0  0  0  0  0  0  0
    1.2578    2.0662    0.3867 H   0  0  0  0  0  0  0  0  0  0  0  0
   -0.1474    1.4781    2.3609 H   0  0  0  0  0  0  0  0  0  0  0  0
  1  2  3  0
  1  4  1  0
  2  3  1  0
  3  6  1  0
  3  7  1  0
  5  9  1  0
  8  9  1  0
  8 12  1  0
  8 13  1  0
  8 14  1  0
  9 10  1  0
  9 15  1  0
 10 11  2  0
 10 16  1  0
M  RAD  1   3   2
M  END
>  <reaction>  (14) 
rxn_1239

>  <mol_properties>  (14) 
{"1": {"label": "*4", "atom_type": "Ct"}, "2": {"label": "*3", "atom_type": "Cs"}, "4": {"label": "*2", "atom_type": "H0"}, "8": {"label": "*1", "atom_type": "Cs"}, "9": {"label": "*0", "atom_type": "CS"}}

>  <type>  (14) 
unop_10

>  <geom_source>  (14) 
Heuristics

$$$$

     RDKit          3D

 16 14  0  0  0  0  0  0  0  0999 V2000
   -0.5138   -2.1372   -2.2822 C   0  0  0  0  0  0  0  0  0  0  0  0
   -0.5138   -2.1372   -1.0852 C   0  0  0  0  0  0  0  0  0  0  0  0
   -0.5138   -2.1372    0.3702 C   0  0  0  0  0  3  0  0  0  0  0  0
   -0.5138   -2.1372   -3.3455 H   0  0  0  0  0  0  0  0  0  0  0  0
   -0.4023   -0.9176    0.8326 H   0  0  0  0  0  0  0  0  0  0  0  0
    0.3199   -2.7258    0.7556 H   0  0  0  0  0  0  0  0  0  0  0  0
   -1.4404   -2.5649    0.7556 H   0  0  0  0  0  0  0  0  0  0  0  0
    0.4277    0.3114    2.6465 C   0  0  0  0  0  0  0  0  0  0  0  0
   -0.2910    0.3008    1.2947 C   0  0  0  0  0  0  0  0  0  0  0  0
   -0.0733    1.5751    0.5498 C   0  0  0  0  0  0  0  0  0  0  0  0
    0.6176    1.7352   -0.8918 S   0  0  0  0  0  0  0  0  0  0  0  0
    1.5072    0.3848    2.5089 H   0  0  0  0  0  0  0  0  0  0  0  0
    0.1057    1.1545    3.2608 H   0  0  0  0  0  0  0  0  0  0  0  0
    0.2152   -0.6060    3.1955 H   0  0  0  0  0  0  0  0  0  0  0  0
   -1.3687    0.1964    1.4659 H   0  0  0  0  0  0  0  0  0  0  0  0
   -0.4173    2.4683    1.0771 H   0  0  0  0  0  0  0  0  0  0  0  0
  1  2  3  0
  1  4  1  0
  2  3  1  0
  3  6  1  0
  3  7  1  0
  5  9  1  0
  8  9  1  0
  8 12  1  0
  8 13  1  0
  8 14  1  0
  9 10  1  0
  9 15  1  0
 10 11  2  0
 10 16  1  0
M  RAD  1   3   2
M  END
>  <reaction>  (15) 
rxn_1239

>  <mol_properties>  (15) 
{"1": {"label": "*4", "atom_type": "Ct"}, "2": {"label": "*3", "atom_type": "Cs"}, "4": {"label": "*2", "atom_type": "H0"}, "8": {"label": "*1", "atom_type": "Cs"}, "9": {"label": "*0", "atom_type": "CS"}}

>  <type>  (15) 
unop_11

>  <geom_source>  (15) 
Heuristics

$$$$

     RDKit          3D

 16 14  0  0  0  0  0  0  0  0999 V2000
    0.6435   -1.5760   -3.0914 C   0  0  0  0  0  0  0  0  0  0  0  0
    0.6435   -1.5760   -1.8943 C   0  0  0  0  0  0  0  0  0  0  0  0
    0.6435   -1.5760   -0.4389 C   0  0  0  0  0  3  0  0  0  0  0  0
    0.6435   -1.5760   -4.1546 H   0  0  0  0  0  0  0  0  0  0  0  0
    0.7549   -0.3564    0.0235 H   0  0  0  0  0  0  0  0  0  0  0  0
    1.4772   -2.1645   -0.0535 H   0  0  0  0  0  0  0  0  0  0  0  0
   -0.2831   -2.0037   -0.0535 H   0  0  0  0  0  0  0  0  0  0  0  0
    0.9590    1.8761   -0.6579 C   0  0  0  0  0  0  0  0  0  0  0  0
    0.8663    0.8621    0.4855 C   0  0  0  0  0  0  0  0  0  0  0  0
   -0.2794    1.1639    1.3923 C   0  0  0  0  0  0  0  0  0  0  0  0
   -1.5283    0.2042    1.7088 S   0  0  0  0  0  0  0  0  0  0  0  0
    0.0706    1.8280   -1.2889 H   0  0  0  0  0  0  0  0  0  0  0  0
    1.0509    2.8954   -0.2782 H   0  0  0  0  0  0  0  0  0  0  0  0
    1.8303    1.6679   -1.2789 H   0  0  0  0  0  0  0  0  0  0  0  0
    1.7845    0.9142    1.0821 H   0  0  0  0  0  0  0  0  0  0  0  0
   -0.2367    2.1523    1.8568 H   0  0  0  0  0  0  0  0  0  0  0  0
  1  2  3  0
  1  4  1  0
  2  3  1  0
  3  6  1  0
  3  7  1  0
  5  9  1  0
  8  9  1  0
  8 12  1  0
  8 13  1  0
  8 14  1  0
  9 10  1  0
  9 15  1  0
 10 11  2  0
 10 16  1  0
M  RAD  1   3   2
M  END
>  <reaction>  (16) 
rxn_1239

>  <mol_properties>  (16) 
{"1": {"label": "*4", "atom_type": "Ct"}, "2": {"label": "*3", "atom_type": "Cs"}, "4": {"label": "*2", "atom_type": "H0"}, "8": {"label": "*1", "atom_type": "Cs"}, "9": {"label": "*0", "atom_type": "CS"}}

>  <type>  (16) 
unop_12

>  <geom_source>  (16) 
Heuristics

$$$$

     RDKit          3D

 16 14  0  0  0  0  0  0  0  0999 V2000
    3.2439    0.0668    1.2570 S   0  0  0  0  0  1  0  0  0  0  0  0
    1.1060   -0.2911   -0.1133 C   0  0  0  0  0  0  0  0  0  0  0  0
    1.3420    0.6289   -1.3076 C   0  0  0  0  0  0  0  0  0  0  0  0
    1.8194    0.2004    1.1155 C   0  0  0  0  0  0  0  0  0  0  0  0
   -1.3699   -1.0327    0.2801 C   0  0  0  0  0  0  0  0  0  0  0  0
   -2.4311   -0.0294    0.3689 C   0  0  0  0  0  0  0  0  0  0  0  0
   -3.3053    0.7973    0.4420 C   0  0  0  0  0  0  0  0  0  0  0  0
    1.4278   -1.3263   -0.3624 H   0  0  0  0  0  0  0  0  0  0  0  0
   -0.2605   -0.3207    0.1511 H   0  0  0  0  0  0  0  0  0  0  0  0
    0.7544    0.2629   -2.1753 H   0  0  0  0  0  0  0  0  0  0  0  0
    1.0131    1.6619   -1.0659 H   0  0  0  0  0  0  0  0  0  0  0  0
    2.4174    0.6389   -1.5858 H   0  0  0  0  0  0  0  0  0  0  0  0
    1.2356    0.5535    1.9588 H   0  0  0  0  0  0  0  0  0  0  0  0
   -1.4108   -1.6947    1.1695 H   0  0  0  0  0  0  0  0  0  0  0  0
   -1.5091   -1.6387   -0.6387 H   0  0  0  0  0  0  0  0  0  0  0  0
   -4.0729    1.5231    0.5062 H   0  0  0  0  0  0  0  0  0  0  0  0
  1  4  1  0
  2  3  1  0
  2  4  2  3
  2  8  1  0
  3 10  1  0
  3 11  1  0
  3 12  1  0
  4 13  1  0
  5  6  1  0
  5  9  1  0
  5 14  1  0
  5 15  1  0
  6  7  3  0
  7 16  1  0
M  RAD  1   1   2
M  END
>  <reaction>  (17) 
rxn_1239

>  <mol_properties>  (17) 
{"1": {"label": "*4", "atom_type": "Ct"}, "2": {"label": "*3", "atom_type": "Cs"}, "4": {"label": "*2", "atom_type": "H0"}, "8": {"label": "*1", "atom_type": "Cs"}, "9": {"label": "*0", "atom_type": "CS"}}

>  <type>  (17) 
unop_13

>  <geom_source>  (17) 
AutoTST

$$$$
