
     RDKit          3D

 13 12  0  0  0  0  0  0  0  0999 V2000
    2.2975   -0.6134    0.7685 C   0  0  0  0  0  0  0  0  0  0  0  0
    1.1676   -0.5248    0.3802 C   0  0  0  0  0  0  0  0  0  0  0  0
   -0.2109   -0.3926   -0.0948 C   0  0  0  0  0  0  0  0  0  0  0  0
   -0.2501    0.2584   -1.4808 C   0  0  0  0  0  0  0  0  0  0  0  0
   -1.0633    0.3831    0.9141 C   0  0  0  0  0  0  0  0  0  0  0  0
    3.2999   -0.6974    1.1133 H   0  0  0  0  0  0  0  0  0  0  0  0
   -0.6209   -1.4038   -0.1814 H   0  0  0  0  0  0  0  0  0  0  0  0
    0.3402   -0.3102   -2.1992 H   0  0  0  0  0  0  0  0  0  0  0  0
    0.1511    1.2724   -1.4369 H   0  0  0  0  0  0  0  0  0  0  0  0
   -1.2791    0.3109   -1.8407 H   0  0  0  0  0  0  0  0  0  0  0  0
   -0.6861    1.4008    1.0287 H   0  0  0  0  0  0  0  0  0  0  0  0
   -1.0492   -0.0971    1.8924 H   0  0  0  0  0  0  0  0  0  0  0  0
   -2.0971    0.4363    0.5680 H   0  0  0  0  0  0  0  0  0  0  0  0
  1  2  3  0
  1  6  1  0
  2  3  1  0
  3  4  1  0
  3  5  1  0
  3  7  1  0
  4  8  1  0
  4  9  1  0
  4 10  1  0
  5 11  1  0
  5 12  1  0
  5 13  1  0
M  END
>  <reaction>  (1) 
rxn_1342

>  <mol_properties>  (1) 
{"2": {"label": "donator", "atom_type": "Cs"}, "6": {"label": "d_hydrogen", "atom_type": "H0"}}

>  <type>  (1) 
r1h

$$$$

     RDKit          3D

  4  3  0  0  0  0  0  0  0  0999 V2000
   -0.7528   -0.8706   -0.3839 S   0  0  0  0  0  0  0  0  0  0  0  0
    0.7502   -0.2564   -0.0649 C   0  0  0  0  0  3  0  0  0  0  0  0
    1.5655    0.9691    0.4633 S   0  0  0  0  0  0  0  0  0  0  0  0
   -1.5629    0.1579   -0.0146 H   0  0  0  0  0  0  0  0  0  0  0  0
  1  2  1  0
  1  4  1  0
  2  3  2  0
M  RAD  1   2   2
M  END
>  <reaction>  (2) 
rxn_1342

>  <mol_properties>  (2) 
{"1": {"label": "acceptor", "atom_type": "CS"}}

>  <type>  (2) 
r2

$$$$

     RDKit          3D

  5  4  0  0  0  0  0  0  0  0999 V2000
    1.2280   -0.4626    0.1225 S   0  0  0  0  0  0  0  0  0  0  0  0
   -0.4732   -0.2566   -0.0746 C   0  0  0  0  0  0  0  0  0  0  0  0
   -1.3314    1.1074   -0.0947 S   0  0  0  0  0  0  0  0  0  0  0  0
    1.5289    0.8405    0.2416 H   0  0  0  0  0  0  0  0  0  0  0  0
   -0.9523   -1.2286   -0.1949 H   0  0  0  0  0  0  0  0  0  0  0  0
  1  2  1  0
  1  4  1  0
  2  3  2  0
  2  5  1  0
M  END
>  <reaction>  (3) 
rxn_1342

>  <mol_properties>  (3) 
{"0": {"label": "a_hydrogen", "atom_type": "H0"}, "2": {"label": "acceptor", "atom_type": "CS"}}

>  <type>  (3) 
r2h

$$$$

     RDKit          3D

 17 15  0  0  0  0  0  0  0  0999 V2000
    0.0049    1.4926   -2.9475 C   0  0  0  0  0  0  0  0  0  0  0  0
    0.0022    1.5826   -1.7485 C   0  0  0  0  0  0  0  0  0  0  0  0
   -0.0009    1.6287   -0.3175 C   0  0  0  0  0  0  0  0  0  0  0  0
   -1.2799    2.1445    0.3101 C   0  0  0  0  0  0  0  0  0  0  0  0
    1.2735    2.1493    0.3155 C   0  0  0  0  0  0  0  0  0  0  0  0
    0.0073    1.4267   -4.0088 H   0  0  0  0  0  0  0  0  0  0  0  0
    0.0007    0.3631    0.0501 H   0  0  0  0  0  0  0  0  0  0  0  0
   -2.1569    1.6805   -0.1408 H   0  0  0  0  0  0  0  0  0  0  0  0
   -1.3622    3.2274    0.1793 H   0  0  0  0  0  0  0  0  0  0  0  0
   -1.2816    1.9299    1.3806 H   0  0  0  0  0  0  0  0  0  0  0  0
    1.3523    3.2325    0.1851 H   0  0  0  0  0  0  0  0  0  0  0  0
    2.1542    1.6886   -0.1317 H   0  0  0  0  0  0  0  0  0  0  0  0
    1.2715    1.9347    1.3860 H   0  0  0  0  0  0  0  0  0  0  0  0
    0.0068   -2.0100   -0.6943 S   0  0  0  0  0  0  0  0  0  0  0  0
    0.0020   -0.9126    0.6032 C   0  0  0  0  0  3  0  0  0  0  0  0
   -0.0011   -1.0690    2.1884 S   0  0  0  0  0  0  0  0  0  0  0  0
    0.0075   -3.1610    0.0091 H   0  0  0  0  0  0  0  0  0  0  0  0
  1  2  3  0
  1  6  1  0
  2  3  1  0
  3  4  1  0
  3  5  1  0
  3  7  1  0
  4  8  1  0
  4  9  1  0
  4 10  1  0
  5 11  1  0
  5 12  1  0
  5 13  1  0
 14 15  1  0
 14 17  1  0
 15 16  2  0
M  RAD  1  15   2
M  END
>  <reaction>  (4) 
rxn_1342

>  <mol_properties>  (4) 
{"1": {"label": "*0", "atom_type": "Ct"}, "2": {"label": "*1", "atom_type": "Cs"}, "6": {"label": "*2", "atom_type": "H0"}, "13": {"label": "*4", "atom_type": "S2s"}, "14": {"label": "*3", "atom_type": "CS"}}

>  <type>  (4) 
ts

$$$$

     RDKit          3D

 17 15  0  0  0  0  0  0  0  0999 V2000
    0.0168    1.3553   -3.1177 C   0  0  0  0  0  0  0  0  0  0  0  0
    0.0168    1.3553   -1.9196 C   0  0  0  0  0  0  0  0  0  0  0  0
    0.0168    1.3792   -0.4558 C   0  0  0  0  0  3  0  0  0  0  0  0
   -1.2493    2.0557    0.0785 C   0  0  0  0  0  0  0  0  0  0  0  0
    1.2829    2.0556    0.0785 C   0  0  0  0  0  0  0  0  0  0  0  0
    0.0168    1.3553   -4.1810 H   0  0  0  0  0  0  0  0  0  0  0  0
    0.0168    0.1306   -0.0479 H   0  0  0  0  0  0  0  0  0  0  0  0
   -2.1464    1.5564   -0.2874 H   0  0  0  0  0  0  0  0  0  0  0  0
   -1.2867    3.0992   -0.2390 H   0  0  0  0  0  0  0  0  0  0  0  0
   -1.2566    2.0277    1.1696 H   0  0  0  0  0  0  0  0  0  0  0  0
    1.3203    3.0992   -0.2390 H   0  0  0  0  0  0  0  0  0  0  0  0
    2.1800    1.5563   -0.2874 H   0  0  0  0  0  0  0  0  0  0  0  0
    1.2903    2.0276    1.1696 H   0  0  0  0  0  0  0  0  0  0  0  0
    1.4218   -1.4180    1.3113 S   0  0  0  0  0  0  0  0  0  0  0  0
    0.0168   -1.1131    0.3583 C   0  0  0  0  0  0  0  0  0  0  0  0
   -1.4898   -1.6412    0.5796 S   0  0  0  0  0  0  0  0  0  0  0  0
    0.8223   -2.1968    2.2261 H   0  0  0  0  0  0  0  0  0  0  0  0
  1  2  3  0
  1  6  1  0
  2  3  1  0
  3  4  1  0
  3  5  1  0
  4  8  1  0
  4  9  1  0
  4 10  1  0
  5 11  1  0
  5 12  1  0
  5 13  1  0
  7 15  1  0
 14 15  1  0
 14 17  1  0
 15 16  2  0
M  RAD  1   3   2
M  END
>  <reaction>  (5) 
rxn_1342

>  <mol_properties>  (5) 
{"1": {"label": "*0", "atom_type": "Ct"}, "2": {"label": "*1", "atom_type": "Cs"}, "6": {"label": "*2", "atom_type": "H0"}, "13": {"label": "*4", "atom_type": "S2s"}, "14": {"label": "*3", "atom_type": "CS"}}

>  <type>  (5) 
unop_1

>  <geom_source>  (5) 
Heuristics

$$$$

     RDKit          3D

 17 15  0  0  0  0  0  0  0  0999 V2000
   -0.1111    1.4664   -2.9295 C   0  0  0  0  0  0  0  0  0  0  0  0
   -0.1111    1.4664   -1.7314 C   0  0  0  0  0  0  0  0  0  0  0  0
   -0.1111    1.4904   -0.2676 C   0  0  0  0  0  3  0  0  0  0  0  0
   -1.3772    2.1668    0.2667 C   0  0  0  0  0  0  0  0  0  0  0  0
    1.1550    2.1668    0.2667 C   0  0  0  0  0  0  0  0  0  0  0  0
   -0.1111    1.4664   -3.9929 H   0  0  0  0  0  0  0  0  0  0  0  0
   -0.1111    0.2417    0.1402 H   0  0  0  0  0  0  0  0  0  0  0  0
   -2.2743    1.6675   -0.0992 H   0  0  0  0  0  0  0  0  0  0  0  0
   -1.4146    3.2103   -0.0508 H   0  0  0  0  0  0  0  0  0  0  0  0
   -1.3846    2.1388    1.3578 H   0  0  0  0  0  0  0  0  0  0  0  0
    1.1924    3.2103   -0.0508 H   0  0  0  0  0  0  0  0  0  0  0  0
    2.0521    1.6675   -0.0992 H   0  0  0  0  0  0  0  0  0  0  0  0
    1.1623    2.1388    1.3578 H   0  0  0  0  0  0  0  0  0  0  0  0
    0.7000   -1.9950   -0.6072 S   0  0  0  0  0  0  0  0  0  0  0  0
   -0.1112   -1.0020    0.5465 C   0  0  0  0  0  0  0  0  0  0  0  0
   -0.4507   -1.3160    2.0904 S   0  0  0  0  0  0  0  0  0  0  0  0
    0.9176   -3.0370    0.2112 H   0  0  0  0  0  0  0  0  0  0  0  0
  1  2  3  0
  1  6  1  0
  2  3  1  0
  3  4  1  0
  3  5  1  0
  4  8  1  0
  4  9  1  0
  4 10  1  0
  5 11  1  0
  5 12  1  0
  5 13  1  0
  7 15  1  0
 14 15  1  0
 14 17  1  0
 15 16  2  0
M  RAD  1   3   2
M  END
>  <reaction>  (6) 
rxn_1342

>  <mol_properties>  (6) 
{"1": {"label": "*0", "atom_type": "Ct"}, "2": {"label": "*1", "atom_type": "Cs"}, "6": {"label": "*2", "atom_type": "H0"}, "13": {"label": "*4", "atom_type": "S2s"}, "14": {"label": "*3", "atom_type": "CS"}}

>  <type>  (6) 
unop_2

>  <geom_source>  (6) 
Heuristics

$$$$

     RDKit          3D

 17 15  0  0  0  0  0  0  0  0999 V2000
    0.0793    1.4036   -3.0629 C   0  0  0  0  0  0  0  0  0  0  0  0
    0.0793    1.4036   -1.8648 C   0  0  0  0  0  0  0  0  0  0  0  0
    0.0793    1.4276   -0.4010 C   0  0  0  0  0  3  0  0  0  0  0  0
   -1.1868    2.1040    0.1334 C   0  0  0  0  0  0  0  0  0  0  0  0
    1.3455    2.1040    0.1334 C   0  0  0  0  0  0  0  0  0  0  0  0
    0.0793    1.4036   -4.1262 H   0  0  0  0  0  0  0  0  0  0  0  0
    0.0793    0.1789    0.0069 H   0  0  0  0  0  0  0  0  0  0  0  0
   -2.0838    1.6047   -0.2325 H   0  0  0  0  0  0  0  0  0  0  0  0
   -1.2241    3.1475   -0.1841 H   0  0  0  0  0  0  0  0  0  0  0  0
   -1.1941    2.0760    1.2244 H   0  0  0  0  0  0  0  0  0  0  0  0
    1.3828    3.1475   -0.1841 H   0  0  0  0  0  0  0  0  0  0  0  0
    2.2425    1.6046   -0.2325 H   0  0  0  0  0  0  0  0  0  0  0  0
    1.3528    2.0760    1.2244 H   0  0  0  0  0  0  0  0  0  0  0  0
    0.8905   -1.1853    1.9307 S   0  0  0  0  0  0  0  0  0  0  0  0
    0.0793   -1.0648    0.4132 C   0  0  0  0  0  0  0  0  0  0  0  0
   -1.0961   -1.9931   -0.1820 S   0  0  0  0  0  0  0  0  0  0  0  0
    0.2195   -2.2579    2.3801 H   0  0  0  0  0  0  0  0  0  0  0  0
  1  2  3  0
  1  6  1  0
  2  3  1  0
  3  4  1  0
  3  5  1  0
  4  8  1  0
  4  9  1  0
  4 10  1  0
  5 11  1  0
  5 12  1  0
  5 13  1  0
  7 15  1  0
 14 15  1  0
 14 17  1  0
 15 16  2  0
M  RAD  1   3   2
M  END
>  <reaction>  (7) 
rxn_1342

>  <mol_properties>  (7) 
{"1": {"label": "*0", "atom_type": "Ct"}, "2": {"label": "*1", "atom_type": "Cs"}, "6": {"label": "*2", "atom_type": "H0"}, "13": {"label": "*4", "atom_type": "S2s"}, "14": {"label": "*3", "atom_type": "CS"}}

>  <type>  (7) 
unop_3

>  <geom_source>  (7) 
Heuristics

$$$$

     RDKit          3D

 17 15  0  0  0  0  0  0  0  0999 V2000
    0.1425    1.4081   -3.0217 C   0  0  0  0  0  0  0  0  0  0  0  0
    0.1425    1.4081   -1.8236 C   0  0  0  0  0  0  0  0  0  0  0  0
    0.1425    1.4320   -0.3598 C   0  0  0  0  0  3  0  0  0  0  0  0
   -1.1237    2.1085    0.1745 C   0  0  0  0  0  0  0  0  0  0  0  0
    1.4086    2.1085    0.1745 C   0  0  0  0  0  0  0  0  0  0  0  0
    0.1425    1.4081   -4.0850 H   0  0  0  0  0  0  0  0  0  0  0  0
    0.1424    0.1834    0.0481 H   0  0  0  0  0  0  0  0  0  0  0  0
   -2.0207    1.6092   -0.1914 H   0  0  0  0  0  0  0  0  0  0  0  0
   -1.1610    3.1520   -0.1430 H   0  0  0  0  0  0  0  0  0  0  0  0
   -1.1310    2.0805    1.2656 H   0  0  0  0  0  0  0  0  0  0  0  0
    1.4460    3.1520   -0.1430 H   0  0  0  0  0  0  0  0  0  0  0  0
    2.3056    1.6091   -0.1914 H   0  0  0  0  0  0  0  0  0  0  0  0
    1.4159    2.0805    1.2656 H   0  0  0  0  0  0  0  0  0  0  0  0
   -1.2627   -1.8689   -0.1349 S   0  0  0  0  0  0  0  0  0  0  0  0
    0.1424   -1.0603    0.4543 C   0  0  0  0  0  0  0  0  0  0  0  0
    0.9503   -1.3065    1.8270 S   0  0  0  0  0  0  0  0  0  0  0  0
   -1.4059   -2.7072    0.9041 H   0  0  0  0  0  0  0  0  0  0  0  0
  1  2  3  0
  1  6  1  0
  2  3  1  0
  3  4  1  0
  3  5  1  0
  4  8  1  0
  4  9  1  0
  4 10  1  0
  5 11  1  0
  5 12  1  0
  5 13  1  0
  7 15  1  0
 14 15  1  0
 14 17  1  0
 15 16  2  0
M  RAD  1   3   2
M  END
>  <reaction>  (8) 
rxn_1342

>  <mol_properties>  (8) 
{"1": {"label": "*0", "atom_type": "Ct"}, "2": {"label": "*1", "atom_type": "Cs"}, "6": {"label": "*2", "atom_type": "H0"}, "13": {"label": "*4", "atom_type": "S2s"}, "14": {"label": "*3", "atom_type": "CS"}}

>  <type>  (8) 
unop_4

>  <geom_source>  (8) 
Heuristics

$$$$

     RDKit          3D

 17 15  0  0  0  0  0  0  0  0999 V2000
    0.0000    1.4551   -3.0073 C   0  0  0  0  0  0  0  0  0  0  0  0
    0.0000    1.4551   -1.8092 C   0  0  0  0  0  0  0  0  0  0  0  0
    0.0000    1.4790   -0.3454 C   0  0  0  0  0  3  0  0  0  0  0  0
   -1.2661    2.1555    0.1889 C   0  0  0  0  0  0  0  0  0  0  0  0
    1.2662    2.1555    0.1889 C   0  0  0  0  0  0  0  0  0  0  0  0
    0.0000    1.4551   -4.0706 H   0  0  0  0  0  0  0  0  0  0  0  0
    0.0000    0.2304    0.0625 H   0  0  0  0  0  0  0  0  0  0  0  0
   -2.1631    1.6562   -0.1770 H   0  0  0  0  0  0  0  0  0  0  0  0
   -1.3034    3.1990   -0.1286 H   0  0  0  0  0  0  0  0  0  0  0  0
   -1.2734    2.1275    1.2800 H   0  0  0  0  0  0  0  0  0  0  0  0
    1.3035    3.1990   -0.1286 H   0  0  0  0  0  0  0  0  0  0  0  0
    2.1632    1.6561   -0.1770 H   0  0  0  0  0  0  0  0  0  0  0  0
    1.2735    2.1275    1.2800 H   0  0  0  0  0  0  0  0  0  0  0  0
   -0.0000   -1.0663    2.1928 S   0  0  0  0  0  0  0  0  0  0  0  0
   -0.0000   -1.0133    0.4687 C   0  0  0  0  0  0  0  0  0  0  0  0
   -0.0000   -2.2363   -0.5809 S   0  0  0  0  0  0  0  0  0  0  0  0
   -0.0000   -2.4041    2.3065 H   0  0  0  0  0  0  0  0  0  0  0  0
  1  2  3  0
  1  6  1  0
  2  3  1  0
  3  4  1  0
  3  5  1  0
  4  8  1  0
  4  9  1  0
  4 10  1  0
  5 11  1  0
  5 12  1  0
  5 13  1  0
  7 15  1  0
 14 15  1  0
 14 17  1  0
 15 16  2  0
M  RAD  1   3   2
M  END
>  <reaction>  (9) 
rxn_1342

>  <mol_properties>  (9) 
{"1": {"label": "*0", "atom_type": "Ct"}, "2": {"label": "*1", "atom_type": "Cs"}, "6": {"label": "*2", "atom_type": "H0"}, "13": {"label": "*4", "atom_type": "S2s"}, "14": {"label": "*3", "atom_type": "CS"}}

>  <type>  (9) 
unop_5

>  <geom_source>  (9) 
Heuristics

$$$$

     RDKit          3D

 17 15  0  0  0  0  0  0  0  0999 V2000
    0.0849    1.3615   -3.1000 C   0  0  0  0  0  0  0  0  0  0  0  0
    0.0849    1.3615   -1.9019 C   0  0  0  0  0  0  0  0  0  0  0  0
    0.0849    1.3854   -0.4381 C   0  0  0  0  0  3  0  0  0  0  0  0
   -1.1812    2.0619    0.0963 C   0  0  0  0  0  0  0  0  0  0  0  0
    1.3510    2.0618    0.0963 C   0  0  0  0  0  0  0  0  0  0  0  0
    0.0849    1.3615   -4.1633 H   0  0  0  0  0  0  0  0  0  0  0  0
    0.0849    0.1368   -0.0302 H   0  0  0  0  0  0  0  0  0  0  0  0
   -2.0783    1.5626   -0.2697 H   0  0  0  0  0  0  0  0  0  0  0  0
   -1.2186    3.1054   -0.2213 H   0  0  0  0  0  0  0  0  0  0  0  0
   -1.1885    2.0339    1.1873 H   0  0  0  0  0  0  0  0  0  0  0  0
    1.3884    3.1053   -0.2213 H   0  0  0  0  0  0  0  0  0  0  0  0
    2.2481    1.5625   -0.2697 H   0  0  0  0  0  0  0  0  0  0  0  0
    1.3584    2.0338    1.1873 H   0  0  0  0  0  0  0  0  0  0  0  0
   -1.5376   -1.6637    0.5579 S   0  0  0  0  0  0  0  0  0  0  0  0
    0.0849   -1.1069    0.3761 C   0  0  0  0  0  0  0  0  0  0  0  0
    1.3670   -1.4054    1.3059 S   0  0  0  0  0  0  0  0  0  0  0  0
   -1.3317   -2.3779    1.6761 H   0  0  0  0  0  0  0  0  0  0  0  0
  1  2  3  0
  1  6  1  0
  2  3  1  0
  3  4  1  0
  3  5  1  0
  4  8  1  0
  4  9  1  0
  4 10  1  0
  5 11  1  0
  5 12  1  0
  5 13  1  0
  7 15  1  0
 14 15  1  0
 14 17  1  0
 15 16  2  0
M  RAD  1   3   2
M  END
>  <reaction>  (10) 
rxn_1342

>  <mol_properties>  (10) 
{"1": {"label": "*0", "atom_type": "Ct"}, "2": {"label": "*1", "atom_type": "Cs"}, "6": {"label": "*2", "atom_type": "H0"}, "13": {"label": "*4", "atom_type": "S2s"}, "14": {"label": "*3", "atom_type": "CS"}}

>  <type>  (10) 
unop_6

>  <geom_source>  (10) 
Heuristics

$$$$

     RDKit          3D

 17 15  0  0  0  0  0  0  0  0999 V2000
   -0.0168    1.3553   -3.1177 C   0  0  0  0  0  0  0  0  0  0  0  0
   -0.0168    1.3553   -1.9196 C   0  0  0  0  0  0  0  0  0  0  0  0
   -0.0168    1.3792   -0.4558 C   0  0  0  0  0  3  0  0  0  0  0  0
   -1.2829    2.0557    0.0785 C   0  0  0  0  0  0  0  0  0  0  0  0
    1.2494    2.0556    0.0785 C   0  0  0  0  0  0  0  0  0  0  0  0
   -0.0168    1.3553   -4.1810 H   0  0  0  0  0  0  0  0  0  0  0  0
   -0.0168    0.1306   -0.0479 H   0  0  0  0  0  0  0  0  0  0  0  0
   -2.1799    1.5564   -0.2874 H   0  0  0  0  0  0  0  0  0  0  0  0
   -1.3202    3.0992   -0.2390 H   0  0  0  0  0  0  0  0  0  0  0  0
   -1.2902    2.0277    1.1696 H   0  0  0  0  0  0  0  0  0  0  0  0
    1.2867    3.0992   -0.2390 H   0  0  0  0  0  0  0  0  0  0  0  0
    2.1464    1.5563   -0.2874 H   0  0  0  0  0  0  0  0  0  0  0  0
    1.2567    2.0276    1.1696 H   0  0  0  0  0  0  0  0  0  0  0  0
   -1.4219   -1.4180    1.3113 S   0  0  0  0  0  0  0  0  0  0  0  0
   -0.0168   -1.1131    0.3583 C   0  0  0  0  0  0  0  0  0  0  0  0
    1.4897   -1.6413    0.5796 S   0  0  0  0  0  0  0  0  0  0  0  0
   -0.8224   -2.1967    2.2261 H   0  0  0  0  0  0  0  0  0  0  0  0
  1  2  3  0
  1  6  1  0
  2  3  1  0
  3  4  1  0
  3  5  1  0
  4  8  1  0
  4  9  1  0
  4 10  1  0
  5 11  1  0
  5 12  1  0
  5 13  1  0
  7 15  1  0
 14 15  1  0
 14 17  1  0
 15 16  2  0
M  RAD  1   3   2
M  END
>  <reaction>  (11) 
rxn_1342

>  <mol_properties>  (11) 
{"1": {"label": "*0", "atom_type": "Ct"}, "2": {"label": "*1", "atom_type": "Cs"}, "6": {"label": "*2", "atom_type": "H0"}, "13": {"label": "*4", "atom_type": "S2s"}, "14": {"label": "*3", "atom_type": "CS"}}

>  <type>  (11) 
unop_7

>  <geom_source>  (11) 
Heuristics

$$$$

     RDKit          3D

 17 15  0  0  0  0  0  0  0  0999 V2000
   -0.0849    1.3615   -3.1000 C   0  0  0  0  0  0  0  0  0  0  0  0
   -0.0849    1.3615   -1.9019 C   0  0  0  0  0  0  0  0  0  0  0  0
   -0.0849    1.3854   -0.4381 C   0  0  0  0  0  3  0  0  0  0  0  0
   -1.3510    2.0619    0.0963 C   0  0  0  0  0  0  0  0  0  0  0  0
    1.1813    2.0618    0.0963 C   0  0  0  0  0  0  0  0  0  0  0  0
   -0.0849    1.3615   -4.1633 H   0  0  0  0  0  0  0  0  0  0  0  0
   -0.0849    0.1368   -0.0302 H   0  0  0  0  0  0  0  0  0  0  0  0
   -2.2480    1.5626   -0.2697 H   0  0  0  0  0  0  0  0  0  0  0  0
   -1.3883    3.1054   -0.2213 H   0  0  0  0  0  0  0  0  0  0  0  0
   -1.3583    2.0339    1.1873 H   0  0  0  0  0  0  0  0  0  0  0  0
    1.2186    3.1053   -0.2213 H   0  0  0  0  0  0  0  0  0  0  0  0
    2.0783    1.5625   -0.2697 H   0  0  0  0  0  0  0  0  0  0  0  0
    1.1886    2.0338    1.1873 H   0  0  0  0  0  0  0  0  0  0  0  0
    1.5375   -1.6637    0.5579 S   0  0  0  0  0  0  0  0  0  0  0  0
   -0.0849   -1.1069    0.3761 C   0  0  0  0  0  0  0  0  0  0  0  0
   -1.3670   -1.4053    1.3059 S   0  0  0  0  0  0  0  0  0  0  0  0
    1.3316   -2.3779    1.6761 H   0  0  0  0  0  0  0  0  0  0  0  0
  1  2  3  0
  1  6  1  0
  2  3  1  0
  3  4  1  0
  3  5  1  0
  4  8  1  0
  4  9  1  0
  4 10  1  0
  5 11  1  0
  5 12  1  0
  5 13  1  0
  7 15  1  0
 14 15  1  0
 14 17  1  0
 15 16  2  0
M  RAD  1   3   2
M  END
>  <reaction>  (12) 
rxn_1342

>  <mol_properties>  (12) 
{"1": {"label": "*0", "atom_type": "Ct"}, "2": {"label": "*1", "atom_type": "Cs"}, "6": {"label": "*2", "atom_type": "H0"}, "13": {"label": "*4", "atom_type": "S2s"}, "14": {"label": "*3", "atom_type": "CS"}}

>  <type>  (12) 
unop_8

>  <geom_source>  (12) 
Heuristics

$$$$

     RDKit          3D

 17 15  0  0  0  0  0  0  0  0999 V2000
    0.1112    1.4664   -2.9295 C   0  0  0  0  0  0  0  0  0  0  0  0
    0.1112    1.4664   -1.7314 C   0  0  0  0  0  0  0  0  0  0  0  0
    0.1112    1.4904   -0.2676 C   0  0  0  0  0  3  0  0  0  0  0  0
   -1.1550    2.1668    0.2667 C   0  0  0  0  0  0  0  0  0  0  0  0
    1.3773    2.1668    0.2667 C   0  0  0  0  0  0  0  0  0  0  0  0
    0.1112    1.4664   -3.9929 H   0  0  0  0  0  0  0  0  0  0  0  0
    0.1111    0.2417    0.1402 H   0  0  0  0  0  0  0  0  0  0  0  0
   -2.0520    1.6675   -0.0992 H   0  0  0  0  0  0  0  0  0  0  0  0
   -1.1923    3.2103   -0.0508 H   0  0  0  0  0  0  0  0  0  0  0  0
   -1.1623    2.1388    1.3578 H   0  0  0  0  0  0  0  0  0  0  0  0
    1.4147    3.2103   -0.0508 H   0  0  0  0  0  0  0  0  0  0  0  0
    2.2743    1.6674   -0.0992 H   0  0  0  0  0  0  0  0  0  0  0  0
    1.3846    2.1388    1.3578 H   0  0  0  0  0  0  0  0  0  0  0  0
   -0.7001   -1.9950   -0.6072 S   0  0  0  0  0  0  0  0  0  0  0  0
    0.1111   -1.0020    0.5465 C   0  0  0  0  0  0  0  0  0  0  0  0
    0.4507   -1.3160    2.0904 S   0  0  0  0  0  0  0  0  0  0  0  0
   -0.9177   -3.0370    0.2112 H   0  0  0  0  0  0  0  0  0  0  0  0
  1  2  3  0
  1  6  1  0
  2  3  1  0
  3  4  1  0
  3  5  1  0
  4  8  1  0
  4  9  1  0
  4 10  1  0
  5 11  1  0
  5 12  1  0
  5 13  1  0
  7 15  1  0
 14 15  1  0
 14 17  1  0
 15 16  2  0
M  RAD  1   3   2
M  END
>  <reaction>  (13) 
rxn_1342

>  <mol_properties>  (13) 
{"1": {"label": "*0", "atom_type": "Ct"}, "2": {"label": "*1", "atom_type": "Cs"}, "6": {"label": "*2", "atom_type": "H0"}, "13": {"label": "*4", "atom_type": "S2s"}, "14": {"label": "*3", "atom_type": "CS"}}

>  <type>  (13) 
unop_9

>  <geom_source>  (13) 
Heuristics

$$$$

     RDKit          3D

 17 15  0  0  0  0  0  0  0  0999 V2000
   -0.1424    1.4081   -3.0217 C   0  0  0  0  0  0  0  0  0  0  0  0
   -0.1424    1.4081   -1.8236 C   0  0  0  0  0  0  0  0  0  0  0  0
   -0.1424    1.4320   -0.3598 C   0  0  0  0  0  3  0  0  0  0  0  0
   -1.4085    2.1085    0.1745 C   0  0  0  0  0  0  0  0  0  0  0  0
    1.1237    2.1085    0.1745 C   0  0  0  0  0  0  0  0  0  0  0  0
   -0.1424    1.4081   -4.0850 H   0  0  0  0  0  0  0  0  0  0  0  0
   -0.1424    0.1834    0.0481 H   0  0  0  0  0  0  0  0  0  0  0  0
   -2.3056    1.6092   -0.1914 H   0  0  0  0  0  0  0  0  0  0  0  0
   -1.4459    3.1520   -0.1430 H   0  0  0  0  0  0  0  0  0  0  0  0
   -1.4159    2.0805    1.2656 H   0  0  0  0  0  0  0  0  0  0  0  0
    1.1611    3.1520   -0.1430 H   0  0  0  0  0  0  0  0  0  0  0  0
    2.0208    1.6091   -0.1914 H   0  0  0  0  0  0  0  0  0  0  0  0
    1.1311    2.0805    1.2656 H   0  0  0  0  0  0  0  0  0  0  0  0
    1.2626   -1.8690   -0.1349 S   0  0  0  0  0  0  0  0  0  0  0  0
   -0.1424   -1.0603    0.4543 C   0  0  0  0  0  0  0  0  0  0  0  0
   -0.9503   -1.3065    1.8270 S   0  0  0  0  0  0  0  0  0  0  0  0
    1.4058   -2.7073    0.9041 H   0  0  0  0  0  0  0  0  0  0  0  0
  1  2  3  0
  1  6  1  0
  2  3  1  0
  3  4  1  0
  3  5  1  0
  4  8  1  0
  4  9  1  0
  4 10  1  0
  5 11  1  0
  5 12  1  0
  5 13  1  0
  7 15  1  0
 14 15  1  0
 14 17  1  0
 15 16  2  0
M  RAD  1   3   2
M  END
>  <reaction>  (14) 
rxn_1342

>  <mol_properties>  (14) 
{"1": {"label": "*0", "atom_type": "Ct"}, "2": {"label": "*1", "atom_type": "Cs"}, "6": {"label": "*2", "atom_type": "H0"}, "13": {"label": "*4", "atom_type": "S2s"}, "14": {"label": "*3", "atom_type": "CS"}}

>  <type>  (14) 
unop_10

>  <geom_source>  (14) 
Heuristics

$$$$

     RDKit          3D

 17 15  0  0  0  0  0  0  0  0999 V2000
   -0.0793    1.4036   -3.0629 C   0  0  0  0  0  0  0  0  0  0  0  0
   -0.0793    1.4036   -1.8648 C   0  0  0  0  0  0  0  0  0  0  0  0
   -0.0793    1.4276   -0.4010 C   0  0  0  0  0  3  0  0  0  0  0  0
   -1.3454    2.1040    0.1334 C   0  0  0  0  0  0  0  0  0  0  0  0
    1.1868    2.1040    0.1334 C   0  0  0  0  0  0  0  0  0  0  0  0
   -0.0793    1.4036   -4.1262 H   0  0  0  0  0  0  0  0  0  0  0  0
   -0.0793    0.1789    0.0069 H   0  0  0  0  0  0  0  0  0  0  0  0
   -2.2425    1.6047   -0.2325 H   0  0  0  0  0  0  0  0  0  0  0  0
   -1.3827    3.1475   -0.1841 H   0  0  0  0  0  0  0  0  0  0  0  0
   -1.3527    2.0760    1.2244 H   0  0  0  0  0  0  0  0  0  0  0  0
    1.2242    3.1475   -0.1841 H   0  0  0  0  0  0  0  0  0  0  0  0
    2.0839    1.6047   -0.2325 H   0  0  0  0  0  0  0  0  0  0  0  0
    1.1942    2.0760    1.2244 H   0  0  0  0  0  0  0  0  0  0  0  0
   -0.8905   -1.1852    1.9307 S   0  0  0  0  0  0  0  0  0  0  0  0
   -0.0793   -1.0648    0.4132 C   0  0  0  0  0  0  0  0  0  0  0  0
    1.0960   -1.9931   -0.1820 S   0  0  0  0  0  0  0  0  0  0  0  0
   -0.2196   -2.2579    2.3801 H   0  0  0  0  0  0  0  0  0  0  0  0
  1  2  3  0
  1  6  1  0
  2  3  1  0
  3  4  1  0
  3  5  1  0
  4  8  1  0
  4  9  1  0
  4 10  1  0
  5 11  1  0
  5 12  1  0
  5 13  1  0
  7 15  1  0
 14 15  1  0
 14 17  1  0
 15 16  2  0
M  RAD  1   3   2
M  END
>  <reaction>  (15) 
rxn_1342

>  <mol_properties>  (15) 
{"1": {"label": "*0", "atom_type": "Ct"}, "2": {"label": "*1", "atom_type": "Cs"}, "6": {"label": "*2", "atom_type": "H0"}, "13": {"label": "*4", "atom_type": "S2s"}, "14": {"label": "*3", "atom_type": "CS"}}

>  <type>  (15) 
unop_11

>  <geom_source>  (15) 
Heuristics

$$$$

     RDKit          3D

 17 15  0  0  0  0  0  0  0  0999 V2000
    0.0000    1.4943   -2.8873 C   0  0  0  0  0  0  0  0  0  0  0  0
    0.0000    1.4943   -1.6892 C   0  0  0  0  0  0  0  0  0  0  0  0
    0.0000    1.5182   -0.2254 C   0  0  0  0  0  3  0  0  0  0  0  0
   -1.2661    2.1947    0.3090 C   0  0  0  0  0  0  0  0  0  0  0  0
    1.2662    2.1947    0.3090 C   0  0  0  0  0  0  0  0  0  0  0  0
    0.0000    1.4943   -3.9506 H   0  0  0  0  0  0  0  0  0  0  0  0
    0.0000    0.2696    0.1825 H   0  0  0  0  0  0  0  0  0  0  0  0
   -2.1631    1.6954   -0.0570 H   0  0  0  0  0  0  0  0  0  0  0  0
   -1.3034    3.2382   -0.0086 H   0  0  0  0  0  0  0  0  0  0  0  0
   -1.2734    2.1667    1.4000 H   0  0  0  0  0  0  0  0  0  0  0  0
    1.3035    3.2382   -0.0086 H   0  0  0  0  0  0  0  0  0  0  0  0
    2.1632    1.6953   -0.0570 H   0  0  0  0  0  0  0  0  0  0  0  0
    1.2735    2.1667    1.4000 H   0  0  0  0  0  0  0  0  0  0  0  0
   -0.0000   -2.0346   -0.7716 S   0  0  0  0  0  0  0  0  0  0  0  0
   -0.0000   -0.9741    0.5888 C   0  0  0  0  0  0  0  0  0  0  0  0
   -0.0000   -1.3417    2.1580 S   0  0  0  0  0  0  0  0  0  0  0  0
   -0.0000   -3.1816   -0.0736 H   0  0  0  0  0  0  0  0  0  0  0  0
  1  2  3  0
  1  6  1  0
  2  3  1  0
  3  4  1  0
  3  5  1  0
  4  8  1  0
  4  9  1  0
  4 10  1  0
  5 11  1  0
  5 12  1  0
  5 13  1  0
  7 15  1  0
 14 15  1  0
 14 17  1  0
 15 16  2  0
M  RAD  1   3   2
M  END
>  <reaction>  (16) 
rxn_1342

>  <mol_properties>  (16) 
{"1": {"label": "*0", "atom_type": "Ct"}, "2": {"label": "*1", "atom_type": "Cs"}, "6": {"label": "*2", "atom_type": "H0"}, "13": {"label": "*4", "atom_type": "S2s"}, "14": {"label": "*3", "atom_type": "CS"}}

>  <type>  (16) 
unop_12

>  <geom_source>  (16) 
Heuristics

$$$$

     RDKit          3D

 17 15  0  0  0  0  0  0  0  0999 V2000
   -2.9699    0.9027   -0.6035 S   0  0  0  0  0  0  0  0  0  0  0  0
   -1.8446    2.3900    1.4810 S   0  0  0  0  0  0  0  0  0  0  0  0
   -0.0414   -1.0797   -1.1681 C   0  0  0  0  0  0  0  0  0  0  0  0
    0.6077   -0.8458    1.2625 C   0  0  0  0  0  0  0  0  0  0  0  0
    0.3892   -0.1171   -0.0625 C   0  0  0  0  0  3  0  0  0  0  0  0
   -1.6160    1.4322    0.4397 C   0  0  0  0  0  0  0  0  0  0  0  0
    1.6033    0.6131   -0.4570 C   0  0  0  0  0  0  0  0  0  0  0  0
    2.5982    1.2126   -0.7804 C   0  0  0  0  0  0  0  0  0  0  0  0
   -0.2301   -0.5177   -2.1075 H   0  0  0  0  0  0  0  0  0  0  0  0
    0.7441   -1.8442   -1.3534 H   0  0  0  0  0  0  0  0  0  0  0  0
   -0.9830   -1.5915   -0.8773 H   0  0  0  0  0  0  0  0  0  0  0  0
    1.4175   -1.6016    1.1681 H   0  0  0  0  0  0  0  0  0  0  0  0
    0.8816   -0.1171    2.0550 H   0  0  0  0  0  0  0  0  0  0  0  0
   -0.3289   -1.3558    1.5717 H   0  0  0  0  0  0  0  0  0  0  0  0
   -0.4181    0.9537    0.2455 H   0  0  0  0  0  0  0  0  0  0  0  0
   -3.2810   -0.1724    0.2503 H   0  0  0  0  0  0  0  0  0  0  0  0
    3.4715    1.7385   -1.0642 H   0  0  0  0  0  0  0  0  0  0  0  0
  1  6  1  0
  1 16  1  0
  2  6  2  0
  3  5  1  0
  3  9  1  0
  3 10  1  0
  3 11  1  0
  4  5  1  0
  4 12  1  0
  4 13  1  0
  4 14  1  0
  5  7  1  0
  6 15  1  0
  7  8  3  0
  8 17  1  0
M  RAD  1   5   2
M  END
>  <reaction>  (17) 
rxn_1342

>  <mol_properties>  (17) 
{"1": {"label": "*0", "atom_type": "Ct"}, "2": {"label": "*1", "atom_type": "Cs"}, "6": {"label": "*2", "atom_type": "H0"}, "13": {"label": "*4", "atom_type": "S2s"}, "14": {"label": "*3", "atom_type": "CS"}}

>  <type>  (17) 
unop_13

>  <geom_source>  (17) 
AutoTST

$$$$
