
     RDKit          3D

 13 12  0  0  0  0  0  0  0  0999 V2000
    3.0977   -0.3549   -0.5105 C   0  0  0  0  0  0  0  0  0  0  0  0
    2.0556    0.4221   -0.2627 C   0  0  0  0  0  0  0  0  0  0  0  0
    0.6313   -0.0354   -0.2366 C   0  0  0  0  0  0  0  0  0  0  0  0
   -0.2567    0.6038   -1.2694 C   0  0  0  0  0  0  0  0  0  0  0  0
    0.1459    1.3456   -2.2891 C   0  0  0  0  0  0  0  0  0  0  0  0
    4.1081    0.0344   -0.5074 H   0  0  0  0  0  0  0  0  0  0  0  0
    2.9777   -1.4116   -0.7243 H   0  0  0  0  0  0  0  0  0  0  0  0
    2.2171    1.4781   -0.0618 H   0  0  0  0  0  0  0  0  0  0  0  0
    0.5865   -1.1233   -0.3540 H   0  0  0  0  0  0  0  0  0  0  0  0
    0.2065    0.1743    0.7521 H   0  0  0  0  0  0  0  0  0  0  0  0
   -1.3190    0.4126   -1.1445 H   0  0  0  0  0  0  0  0  0  0  0  0
    1.1948    1.5564   -2.4628 H   0  0  0  0  0  0  0  0  0  0  0  0
   -0.5644    1.7621   -2.9918 H   0  0  0  0  0  0  0  0  0  0  0  0
  1  2  2  3
  1  6  1  0
  1  7  1  0
  2  3  1  0
  2  8  1  0
  3  4  1  0
  3  9  1  0
  3 10  1  0
  4  5  2  3
  4 11  1  0
  5 12  1  0
  5 13  1  0
M  END
>  <reaction>  (1) 
rxn_1144

>  <mol_properties>  (1) 
{"2": {"label": "donator", "atom_type": "Cs"}, "8": {"label": "d_hydrogen", "atom_type": "H0"}}

>  <type>  (1) 
r1h

$$$$

     RDKit          3D

  9  8  0  0  0  0  0  0  0  0999 V2000
    1.8963   -0.1405   -0.2150 C   0  0  0  0  0  0  0  0  0  0  0  0
    0.6340    0.1486   -0.2254 C   0  0  0  0  0  3  0  0  0  0  0  0
   -0.6770    0.4501   -0.2373 C   0  0  0  0  0  0  0  0  0  0  0  0
   -1.6600   -0.2303    0.4662 C   0  0  0  0  0  0  0  0  0  0  0  0
    2.3274   -0.8354   -0.9313 H   0  0  0  0  0  0  0  0  0  0  0  0
    2.5751    0.2988    0.5117 H   0  0  0  0  0  0  0  0  0  0  0  0
   -0.9723    1.2966   -0.8520 H   0  0  0  0  0  0  0  0  0  0  0  0
   -2.6934    0.0777    0.4015 H   0  0  0  0  0  0  0  0  0  0  0  0
   -1.4140   -1.0782    1.0904 H   0  0  0  0  0  0  0  0  0  0  0  0
  1  2  2  3
  1  5  1  0
  1  6  1  0
  2  3  1  0
  3  4  2  3
  3  7  1  0
  4  8  1  0
  4  9  1  0
M  RAD  1   2   2
M  END
>  <reaction>  (2) 
rxn_1144

>  <mol_properties>  (2) 
{"1": {"label": "acceptor", "atom_type": "Cd"}}

>  <type>  (2) 
r2

$$$$

     RDKit          3D

 10  9  0  0  0  0  0  0  0  0999 V2000
    1.8334    0.0847   -0.1062 C   0  0  0  0  0  0  0  0  0  0  0  0
    0.5993   -0.4071   -0.0750 C   0  0  0  0  0  0  0  0  0  0  0  0
   -0.5993    0.4071    0.0750 C   0  0  0  0  0  0  0  0  0  0  0  0
   -1.8334   -0.0847    0.1062 C   0  0  0  0  0  0  0  0  0  0  0  0
    2.0179    1.1498   -0.0189 H   0  0  0  0  0  0  0  0  0  0  0  0
    2.6972   -0.5572   -0.2194 H   0  0  0  0  0  0  0  0  0  0  0  0
    0.4465   -1.4793   -0.1649 H   0  0  0  0  0  0  0  0  0  0  0  0
   -0.4465    1.4793    0.1649 H   0  0  0  0  0  0  0  0  0  0  0  0
   -2.0179   -1.1498    0.0189 H   0  0  0  0  0  0  0  0  0  0  0  0
   -2.6972    0.5572    0.2194 H   0  0  0  0  0  0  0  0  0  0  0  0
  1  2  2  3
  1  5  1  0
  1  6  1  0
  2  3  1  0
  2  7  1  0
  3  4  2  3
  3  8  1  0
  4  9  1  0
  4 10  1  0
M  END
>  <reaction>  (3) 
rxn_1144

>  <mol_properties>  (3) 
{"1": {"label": "acceptor", "atom_type": "Cd"}, "9": {"label": "a_hydrogen", "atom_type": "H0"}}

>  <type>  (3) 
r2h

$$$$

     RDKit          3D

 22 20  0  0  0  0  0  0  0  0999 V2000
    0.8364    2.2084   -0.2789 C   0  0  0  0  0  0  0  0  0  0  0  0
   -0.2895    1.5307   -0.3566 C   0  0  0  0  0  3  0  0  0  0  0  0
   -1.5562    1.8237   -0.9832 C   0  0  0  0  0  0  0  0  0  0  0  0
   -2.5498    0.9497   -1.1124 C   0  0  0  0  0  0  0  0  0  0  0  0
    1.6956    1.8123    0.2528 H   0  0  0  0  0  0  0  0  0  0  0  0
    0.9505    3.1844   -0.7486 H   0  0  0  0  0  0  0  0  0  0  0  0
   -1.6781    2.8370   -1.3669 H   0  0  0  0  0  0  0  0  0  0  0  0
   -3.4782    1.2237   -1.5960 H   0  0  0  0  0  0  0  0  0  0  0  0
   -2.4558   -0.0662   -0.7474 H   0  0  0  0  0  0  0  0  0  0  0  0
    0.0235   -1.8099   -1.2735 C   0  0  0  0  0  0  0  0  0  0  0  0
   -0.1229   -1.9280    0.0374 C   0  0  0  0  0  0  0  0  0  0  0  0
   -0.0698   -0.8043    1.0149 C   0  0  0  0  0  0  0  0  0  0  0  0
    1.1802   -0.6448    1.7879 C   0  0  0  0  0  0  0  0  0  0  0  0
    2.3621   -1.1683    1.4713 C   0  0  0  0  0  0  0  0  0  0  0  0
   -0.0194   -2.6746   -1.9238 H   0  0  0  0  0  0  0  0  0  0  0  0
    0.1889   -0.8447   -1.7392 H   0  0  0  0  0  0  0  0  0  0  0  0
   -0.2823   -2.9167    0.4637 H   0  0  0  0  0  0  0  0  0  0  0  0
   -0.2152    0.2534    0.3748 H   0  0  0  0  0  0  0  0  0  0  0  0
   -0.9432   -0.7946    1.6711 H   0  0  0  0  0  0  0  0  0  0  0  0
    1.1059   -0.0111    2.6670 H   0  0  0  0  0  0  0  0  0  0  0  0
    2.4869   -1.8013    0.6007 H   0  0  0  0  0  0  0  0  0  0  0  0
    3.2371   -0.9781    2.0794 H   0  0  0  0  0  0  0  0  0  0  0  0
  1  2  2  3
  1  5  1  0
  1  6  1  0
  2  3  1  0
  3  4  2  3
  3  7  1  0
  4  8  1  0
  4  9  1  0
 10 11  2  3
 10 15  1  0
 10 16  1  0
 11 12  1  0
 11 17  1  0
 12 13  1  0
 12 18  1  0
 12 19  1  0
 13 14  2  3
 13 20  1  0
 14 21  1  0
 14 22  1  0
M  RAD  1   2   2
M  END
>  <reaction>  (4) 
rxn_1144

>  <mol_properties>  (4) 
{"1": {"label": "*3", "atom_type": "Cd"}, "2": {"label": "*4", "atom_type": "Cd"}, "10": {"label": "*0", "atom_type": "Cd"}, "11": {"label": "*1", "atom_type": "Cs"}, "17": {"label": "*2", "atom_type": "H0"}}

>  <type>  (4) 
ts

$$$$

     RDKit          3D

 22 20  0  0  0  0  0  0  0  0999 V2000
    0.5955    1.3570   -1.7077 C   0  0  0  0  0  0  0  0  0  0  0  0
   -0.3850    1.2567   -0.8164 C   0  0  0  0  0  0  0  0  0  0  0  0
   -1.0562    2.3991   -0.2107 C   0  0  0  0  0  0  0  0  0  0  0  0
   -2.0367    2.2988    0.6806 C   0  0  0  0  0  0  0  0  0  0  0  0
    1.0672    0.4809   -2.1331 H   0  0  0  0  0  0  0  0  0  0  0  0
    0.9578    2.3235   -2.0404 H   0  0  0  0  0  0  0  0  0  0  0  0
   -0.7148    3.3818   -0.5245 H   0  0  0  0  0  0  0  0  0  0  0  0
   -2.5084    3.1749    1.1060 H   0  0  0  0  0  0  0  0  0  0  0  0
   -2.3991    1.3323    1.0133 H   0  0  0  0  0  0  0  0  0  0  0  0
   -0.1458   -2.1048   -1.5023 C   0  0  0  0  0  0  0  0  0  0  0  0
   -0.1458   -2.1048   -0.1791 C   0  0  0  0  0  0  0  0  0  0  0  0
   -0.1458   -0.8790    0.6789 C   0  0  0  0  0  3  0  0  0  0  0  0
    1.0639   -0.7246    1.5601 C   0  0  0  0  0  0  0  0  0  0  0  0
    2.1751   -1.4403    1.4877 C   0  0  0  0  0  0  0  0  0  0  0  0
   -0.1540   -3.0276   -2.0689 H   0  0  0  0  0  0  0  0  0  0  0  0
   -0.1394   -1.1794   -2.0683 H   0  0  0  0  0  0  0  0  0  0  0  0
   -0.1432   -3.0536    0.3514 H   0  0  0  0  0  0  0  0  0  0  0  0
   -0.2659    0.1930   -0.0716 H   0  0  0  0  0  0  0  0  0  0  0  0
   -1.0338   -0.8925    1.3217 H   0  0  0  0  0  0  0  0  0  0  0  0
    0.9912    0.0604    2.3078 H   0  0  0  0  0  0  0  0  0  0  0  0
    2.3006   -2.2272    0.7528 H   0  0  0  0  0  0  0  0  0  0  0  0
    3.0033   -1.2560    2.1600 H   0  0  0  0  0  0  0  0  0  0  0  0
  1  2  2  3
  1  5  1  0
  1  6  1  0
  2  3  1  0
  2 18  1  0
  3  4  2  3
  3  7  1  0
  4  8  1  0
  4  9  1  0
 10 11  2  3
 10 15  1  0
 10 16  1  0
 11 12  1  0
 11 17  1  0
 12 13  1  0
 12 19  1  0
 13 14  2  3
 13 20  1  0
 14 21  1  0
 14 22  1  0
M  RAD  1  12   2
M  END
>  <reaction>  (5) 
rxn_1144

>  <mol_properties>  (5) 
{"1": {"label": "*3", "atom_type": "Cd"}, "2": {"label": "*4", "atom_type": "Cd"}, "10": {"label": "*0", "atom_type": "Cd"}, "11": {"label": "*1", "atom_type": "Cs"}, "17": {"label": "*2", "atom_type": "H0"}}

>  <type>  (5) 
unop_1

>  <geom_source>  (5) 
Heuristics

$$$$

     RDKit          3D

 22 20  0  0  0  0  0  0  0  0999 V2000
    0.3711    2.5428    0.0118 C   0  0  0  0  0  0  0  0  0  0  0  0
   -0.2597    1.4916   -0.5010 C   0  0  0  0  0  0  0  0  0  0  0  0
   -1.4654    1.5809   -1.3138 C   0  0  0  0  0  0  0  0  0  0  0  0
   -2.0962    0.5296   -1.8265 C   0  0  0  0  0  0  0  0  0  0  0  0
    1.2652    2.4311    0.6110 H   0  0  0  0  0  0  0  0  0  0  0  0
    0.0102    3.5521   -0.1532 H   0  0  0  0  0  0  0  0  0  0  0  0
   -1.8515    2.5800   -1.4967 H   0  0  0  0  0  0  0  0  0  0  0  0
   -2.9903    0.6414   -2.4257 H   0  0  0  0  0  0  0  0  0  0  0  0
   -1.7353   -0.4797   -1.6616 H   0  0  0  0  0  0  0  0  0  0  0  0
   -0.0204   -1.8700   -1.1869 C   0  0  0  0  0  0  0  0  0  0  0  0
   -0.0204   -1.8700    0.1364 C   0  0  0  0  0  0  0  0  0  0  0  0
   -0.0204   -0.6442    0.9944 C   0  0  0  0  0  3  0  0  0  0  0  0
    1.1893   -0.4898    1.8756 C   0  0  0  0  0  0  0  0  0  0  0  0
    2.3004   -1.2055    1.8031 C   0  0  0  0  0  0  0  0  0  0  0  0
   -0.0286   -2.7927   -1.7534 H   0  0  0  0  0  0  0  0  0  0  0  0
   -0.0141   -0.9445   -1.7529 H   0  0  0  0  0  0  0  0  0  0  0  0
   -0.0179   -2.8187    0.6669 H   0  0  0  0  0  0  0  0  0  0  0  0
   -0.1405    0.4278    0.2438 H   0  0  0  0  0  0  0  0  0  0  0  0
   -0.9084   -0.6576    1.6371 H   0  0  0  0  0  0  0  0  0  0  0  0
    1.1166    0.2952    2.6233 H   0  0  0  0  0  0  0  0  0  0  0  0
    2.4259   -1.9923    1.0683 H   0  0  0  0  0  0  0  0  0  0  0  0
    3.1286   -1.0212    2.4755 H   0  0  0  0  0  0  0  0  0  0  0  0
  1  2  2  3
  1  5  1  0
  1  6  1  0
  2  3  1  0
  2 18  1  0
  3  4  2  3
  3  7  1  0
  4  8  1  0
  4  9  1  0
 10 11  2  3
 10 15  1  0
 10 16  1  0
 11 12  1  0
 11 17  1  0
 12 13  1  0
 12 19  1  0
 13 14  2  3
 13 20  1  0
 14 21  1  0
 14 22  1  0
M  RAD  1  12   2
M  END
>  <reaction>  (6) 
rxn_1144

>  <mol_properties>  (6) 
{"1": {"label": "*3", "atom_type": "Cd"}, "2": {"label": "*4", "atom_type": "Cd"}, "10": {"label": "*0", "atom_type": "Cd"}, "11": {"label": "*1", "atom_type": "Cs"}, "17": {"label": "*2", "atom_type": "H0"}}

>  <type>  (6) 
unop_2

>  <geom_source>  (6) 
Heuristics

$$$$

     RDKit          3D

 22 20  0  0  0  0  0  0  0  0999 V2000
   -0.6258    1.0970   -2.1530 C   0  0  0  0  0  0  0  0  0  0  0  0
   -0.5276    1.2269   -0.8341 C   0  0  0  0  0  0  0  0  0  0  0  0
   -0.5435    2.5063   -0.1375 C   0  0  0  0  0  0  0  0  0  0  0  0
   -0.4452    2.6363    1.1813 C   0  0  0  0  0  0  0  0  0  0  0  0
   -0.6096    0.1258   -2.6300 H   0  0  0  0  0  0  0  0  0  0  0  0
   -0.7259    1.9626   -2.7986 H   0  0  0  0  0  0  0  0  0  0  0  0
   -0.6428    3.3928   -0.7582 H   0  0  0  0  0  0  0  0  0  0  0  0
   -0.4615    3.6074    1.6583 H   0  0  0  0  0  0  0  0  0  0  0  0
   -0.3451    1.7707    1.8269 H   0  0  0  0  0  0  0  0  0  0  0  0
   -0.2883   -2.1346   -1.5201 C   0  0  0  0  0  0  0  0  0  0  0  0
   -0.2883   -2.1346   -0.1968 C   0  0  0  0  0  0  0  0  0  0  0  0
   -0.2883   -0.9088    0.6612 C   0  0  0  0  0  3  0  0  0  0  0  0
    0.9214   -0.7544    1.5424 C   0  0  0  0  0  0  0  0  0  0  0  0
    2.0325   -1.4701    1.4699 C   0  0  0  0  0  0  0  0  0  0  0  0
   -0.2965   -3.0573   -2.0866 H   0  0  0  0  0  0  0  0  0  0  0  0
   -0.2820   -1.2091   -2.0861 H   0  0  0  0  0  0  0  0  0  0  0  0
   -0.2858   -3.0833    0.3337 H   0  0  0  0  0  0  0  0  0  0  0  0
   -0.4084    0.1632   -0.0894 H   0  0  0  0  0  0  0  0  0  0  0  0
   -1.1763   -0.9223    1.3040 H   0  0  0  0  0  0  0  0  0  0  0  0
    0.8487    0.0306    2.2901 H   0  0  0  0  0  0  0  0  0  0  0  0
    2.1580   -2.2570    0.7351 H   0  0  0  0  0  0  0  0  0  0  0  0
    2.8607   -1.2858    2.1423 H   0  0  0  0  0  0  0  0  0  0  0  0
  1  2  2  3
  1  5  1  0
  1  6  1  0
  2  3  1  0
  2 18  1  0
  3  4  2  3
  3  7  1  0
  4  8  1  0
  4  9  1  0
 10 11  2  3
 10 15  1  0
 10 16  1  0
 11 12  1  0
 11 17  1  0
 12 13  1  0
 12 19  1  0
 13 14  2  3
 13 20  1  0
 14 21  1  0
 14 22  1  0
M  RAD  1  12   2
M  END
>  <reaction>  (7) 
rxn_1144

>  <mol_properties>  (7) 
{"1": {"label": "*3", "atom_type": "Cd"}, "2": {"label": "*4", "atom_type": "Cd"}, "10": {"label": "*0", "atom_type": "Cd"}, "11": {"label": "*1", "atom_type": "Cs"}, "17": {"label": "*2", "atom_type": "H0"}}

>  <type>  (7) 
unop_3

>  <geom_source>  (7) 
Heuristics

$$$$

     RDKit          3D

 22 20  0  0  0  0  0  0  0  0999 V2000
   -1.7823    1.2238   -1.5175 C   0  0  0  0  0  0  0  0  0  0  0  0
   -0.6679    1.2409   -0.7938 C   0  0  0  0  0  0  0  0  0  0  0  0
   -0.0401    2.4560   -0.2920 C   0  0  0  0  0  0  0  0  0  0  0  0
    1.0743    2.4730    0.4317 C   0  0  0  0  0  0  0  0  0  0  0  0
   -2.2153    0.2971   -1.8705 H   0  0  0  0  0  0  0  0  0  0  0  0
   -2.2978    2.1412   -1.7800 H   0  0  0  0  0  0  0  0  0  0  0  0
   -0.5339    3.3919   -0.5390 H   0  0  0  0  0  0  0  0  0  0  0  0
    1.5072    3.3997    0.7847 H   0  0  0  0  0  0  0  0  0  0  0  0
    1.5897    1.5557    0.6942 H   0  0  0  0  0  0  0  0  0  0  0  0
   -0.4287   -2.1207   -1.4797 C   0  0  0  0  0  0  0  0  0  0  0  0
   -0.4287   -2.1207   -0.1564 C   0  0  0  0  0  0  0  0  0  0  0  0
   -0.4287   -0.8949    0.7016 C   0  0  0  0  0  3  0  0  0  0  0  0
    0.7810   -0.7405    1.5828 C   0  0  0  0  0  0  0  0  0  0  0  0
    1.8922   -1.4562    1.5103 C   0  0  0  0  0  0  0  0  0  0  0  0
   -0.4369   -3.0434   -2.0462 H   0  0  0  0  0  0  0  0  0  0  0  0
   -0.4223   -1.1952   -2.0457 H   0  0  0  0  0  0  0  0  0  0  0  0
   -0.4261   -3.0694    0.3741 H   0  0  0  0  0  0  0  0  0  0  0  0
   -0.5488    0.1771   -0.0490 H   0  0  0  0  0  0  0  0  0  0  0  0
   -1.3167   -0.9083    1.3443 H   0  0  0  0  0  0  0  0  0  0  0  0
    0.7083    0.0445    2.3305 H   0  0  0  0  0  0  0  0  0  0  0  0
    2.0176   -2.2430    0.7755 H   0  0  0  0  0  0  0  0  0  0  0  0
    2.7204   -1.2719    2.1827 H   0  0  0  0  0  0  0  0  0  0  0  0
  1  2  2  3
  1  5  1  0
  1  6  1  0
  2  3  1  0
  2 18  1  0
  3  4  2  3
  3  7  1  0
  4  8  1  0
  4  9  1  0
 10 11  2  3
 10 15  1  0
 10 16  1  0
 11 12  1  0
 11 17  1  0
 12 13  1  0
 12 19  1  0
 13 14  2  3
 13 20  1  0
 14 21  1  0
 14 22  1  0
M  RAD  1  12   2
M  END
>  <reaction>  (8) 
rxn_1144

>  <mol_properties>  (8) 
{"1": {"label": "*3", "atom_type": "Cd"}, "2": {"label": "*4", "atom_type": "Cd"}, "10": {"label": "*0", "atom_type": "Cd"}, "11": {"label": "*1", "atom_type": "Cs"}, "17": {"label": "*2", "atom_type": "H0"}}

>  <type>  (8) 
unop_4

>  <geom_source>  (8) 
Heuristics

$$$$

     RDKit          3D

 22 20  0  0  0  0  0  0  0  0999 V2000
   -1.4211    2.4424    0.1552 C   0  0  0  0  0  0  0  0  0  0  0  0
   -0.7669    1.4631   -0.4604 C   0  0  0  0  0  0  0  0  0  0  0  0
    0.2772    1.6784   -1.4532 C   0  0  0  0  0  0  0  0  0  0  0  0
    0.9314    0.6992   -2.0688 C   0  0  0  0  0  0  0  0  0  0  0  0
   -2.1910    2.2375    0.8875 H   0  0  0  0  0  0  0  0  0  0  0  0
   -1.2052    3.4840   -0.0559 H   0  0  0  0  0  0  0  0  0  0  0  0
    0.5162    2.7126   -1.6861 H   0  0  0  0  0  0  0  0  0  0  0  0
    1.7013    0.9041   -2.8010 H   0  0  0  0  0  0  0  0  0  0  0  0
    0.7155   -0.3424   -1.8577 H   0  0  0  0  0  0  0  0  0  0  0  0
   -0.5277   -1.8984   -1.1463 C   0  0  0  0  0  0  0  0  0  0  0  0
   -0.5277   -1.8984    0.1769 C   0  0  0  0  0  0  0  0  0  0  0  0
   -0.5277   -0.6726    1.0349 C   0  0  0  0  0  3  0  0  0  0  0  0
    0.6820   -0.5182    1.9162 C   0  0  0  0  0  0  0  0  0  0  0  0
    1.7932   -1.2339    1.8437 C   0  0  0  0  0  0  0  0  0  0  0  0
   -0.5359   -2.8211   -1.7128 H   0  0  0  0  0  0  0  0  0  0  0  0
   -0.5214   -0.9729   -1.7123 H   0  0  0  0  0  0  0  0  0  0  0  0
   -0.5252   -2.8471    0.7075 H   0  0  0  0  0  0  0  0  0  0  0  0
   -0.6478    0.3994    0.2844 H   0  0  0  0  0  0  0  0  0  0  0  0
   -1.4157   -0.6861    1.6777 H   0  0  0  0  0  0  0  0  0  0  0  0
    0.6093    0.2668    2.6639 H   0  0  0  0  0  0  0  0  0  0  0  0
    1.9186   -2.0208    1.1089 H   0  0  0  0  0  0  0  0  0  0  0  0
    2.6214   -1.0496    2.5161 H   0  0  0  0  0  0  0  0  0  0  0  0
  1  2  2  3
  1  5  1  0
  1  6  1  0
  2  3  1  0
  2 18  1  0
  3  4  2  3
  3  7  1  0
  4  8  1  0
  4  9  1  0
 10 11  2  3
 10 15  1  0
 10 16  1  0
 11 12  1  0
 11 17  1  0
 12 13  1  0
 12 19  1  0
 13 14  2  3
 13 20  1  0
 14 21  1  0
 14 22  1  0
M  RAD  1  12   2
M  END
>  <reaction>  (9) 
rxn_1144

>  <mol_properties>  (9) 
{"1": {"label": "*3", "atom_type": "Cd"}, "2": {"label": "*4", "atom_type": "Cd"}, "10": {"label": "*0", "atom_type": "Cd"}, "11": {"label": "*1", "atom_type": "Cs"}, "17": {"label": "*2", "atom_type": "H0"}}

>  <type>  (9) 
unop_5

>  <geom_source>  (9) 
Heuristics

$$$$

     RDKit          3D

 22 20  0  0  0  0  0  0  0  0999 V2000
   -1.8566    2.0731   -0.1499 C   0  0  0  0  0  0  0  0  0  0  0  0
   -0.8090    1.3767   -0.5782 C   0  0  0  0  0  0  0  0  0  0  0  0
    0.4308    1.9775   -1.0518 C   0  0  0  0  0  0  0  0  0  0  0  0
    1.4785    1.2811   -1.4802 C   0  0  0  0  0  0  0  0  0  0  0  0
   -2.7595    1.5857    0.1939 H   0  0  0  0  0  0  0  0  0  0  0  0
   -1.8426    3.1573   -0.1300 H   0  0  0  0  0  0  0  0  0  0  0  0
    0.4751    3.0632   -1.0439 H   0  0  0  0  0  0  0  0  0  0  0  0
    2.3814    1.7685   -1.8239 H   0  0  0  0  0  0  0  0  0  0  0  0
    1.4644    0.1969   -1.5001 H   0  0  0  0  0  0  0  0  0  0  0  0
   -0.5697   -1.9848   -1.2642 C   0  0  0  0  0  0  0  0  0  0  0  0
   -0.5697   -1.9848    0.0591 C   0  0  0  0  0  0  0  0  0  0  0  0
   -0.5697   -0.7590    0.9171 C   0  0  0  0  0  3  0  0  0  0  0  0
    0.6400   -0.6046    1.7983 C   0  0  0  0  0  0  0  0  0  0  0  0
    1.7511   -1.3203    1.7258 C   0  0  0  0  0  0  0  0  0  0  0  0
   -0.5779   -2.9076   -1.8307 H   0  0  0  0  0  0  0  0  0  0  0  0
   -0.5634   -1.0594   -1.8302 H   0  0  0  0  0  0  0  0  0  0  0  0
   -0.5672   -2.9336    0.5896 H   0  0  0  0  0  0  0  0  0  0  0  0
   -0.6898    0.3130    0.1665 H   0  0  0  0  0  0  0  0  0  0  0  0
   -1.4577   -0.7725    1.5599 H   0  0  0  0  0  0  0  0  0  0  0  0
    0.5673    0.1804    2.5460 H   0  0  0  0  0  0  0  0  0  0  0  0
    1.8766   -2.1072    0.9910 H   0  0  0  0  0  0  0  0  0  0  0  0
    2.5793   -1.1360    2.3982 H   0  0  0  0  0  0  0  0  0  0  0  0
  1  2  2  3
  1  5  1  0
  1  6  1  0
  2  3  1  0
  2 18  1  0
  3  4  2  3
  3  7  1  0
  4  8  1  0
  4  9  1  0
 10 11  2  3
 10 15  1  0
 10 16  1  0
 11 12  1  0
 11 17  1  0
 12 13  1  0
 12 19  1  0
 13 14  2  3
 13 20  1  0
 14 21  1  0
 14 22  1  0
M  RAD  1  12   2
M  END
>  <reaction>  (10) 
rxn_1144

>  <mol_properties>  (10) 
{"1": {"label": "*3", "atom_type": "Cd"}, "2": {"label": "*4", "atom_type": "Cd"}, "10": {"label": "*0", "atom_type": "Cd"}, "11": {"label": "*1", "atom_type": "Cs"}, "17": {"label": "*2", "atom_type": "H0"}}

>  <type>  (10) 
unop_6

>  <geom_source>  (10) 
Heuristics

$$$$

     RDKit          3D

 22 20  0  0  0  0  0  0  0  0999 V2000
    0.9494    1.7928   -0.9613 C   0  0  0  0  0  0  0  0  0  0  0  0
   -0.2740    1.3233   -0.7404 C   0  0  0  0  0  0  0  0  0  0  0  0
   -1.4364    2.1640   -0.4870 C   0  0  0  0  0  0  0  0  0  0  0  0
   -2.6598    1.6945   -0.2661 C   0  0  0  0  0  0  0  0  0  0  0  0
    1.7860    1.1316   -1.1456 H   0  0  0  0  0  0  0  0  0  0  0  0
    1.1520    2.8582   -0.9644 H   0  0  0  0  0  0  0  0  0  0  0  0
   -1.2648    3.2370   -0.4838 H   0  0  0  0  0  0  0  0  0  0  0  0
   -3.4964    2.3556   -0.0818 H   0  0  0  0  0  0  0  0  0  0  0  0
   -2.8625    0.6291   -0.2630 H   0  0  0  0  0  0  0  0  0  0  0  0
   -0.0347   -2.0383   -1.4264 C   0  0  0  0  0  0  0  0  0  0  0  0
   -0.0347   -2.0383   -0.1031 C   0  0  0  0  0  0  0  0  0  0  0  0
   -0.0347   -0.8124    0.7549 C   0  0  0  0  0  3  0  0  0  0  0  0
    1.1750   -0.6581    1.6361 C   0  0  0  0  0  0  0  0  0  0  0  0
    2.2861   -1.3738    1.5636 C   0  0  0  0  0  0  0  0  0  0  0  0
   -0.0429   -2.9610   -1.9929 H   0  0  0  0  0  0  0  0  0  0  0  0
   -0.0284   -1.1128   -1.9924 H   0  0  0  0  0  0  0  0  0  0  0  0
   -0.0322   -2.9870    0.4274 H   0  0  0  0  0  0  0  0  0  0  0  0
   -0.1548    0.2595    0.0043 H   0  0  0  0  0  0  0  0  0  0  0  0
   -0.9227   -0.8259    1.3977 H   0  0  0  0  0  0  0  0  0  0  0  0
    1.1023    0.1269    2.3838 H   0  0  0  0  0  0  0  0  0  0  0  0
    2.4116   -2.1606    0.8288 H   0  0  0  0  0  0  0  0  0  0  0  0
    3.1143   -1.1895    2.2360 H   0  0  0  0  0  0  0  0  0  0  0  0
  1  2  2  3
  1  5  1  0
  1  6  1  0
  2  3  1  0
  2 18  1  0
  3  4  2  3
  3  7  1  0
  4  8  1  0
  4  9  1  0
 10 11  2  3
 10 15  1  0
 10 16  1  0
 11 12  1  0
 11 17  1  0
 12 13  1  0
 12 19  1  0
 13 14  2  3
 13 20  1  0
 14 21  1  0
 14 22  1  0
M  RAD  1  12   2
M  END
>  <reaction>  (11) 
rxn_1144

>  <mol_properties>  (11) 
{"1": {"label": "*3", "atom_type": "Cd"}, "2": {"label": "*4", "atom_type": "Cd"}, "10": {"label": "*0", "atom_type": "Cd"}, "11": {"label": "*1", "atom_type": "Cs"}, "17": {"label": "*2", "atom_type": "H0"}}

>  <type>  (11) 
unop_7

>  <geom_source>  (11) 
Heuristics

$$$$

     RDKit          3D

 22 20  0  0  0  0  0  0  0  0999 V2000
    0.7909    2.2213   -0.3617 C   0  0  0  0  0  0  0  0  0  0  0  0
   -0.2275    1.4093   -0.6248 C   0  0  0  0  0  0  0  0  0  0  0  0
   -1.5857    1.8645   -0.8905 C   0  0  0  0  0  0  0  0  0  0  0  0
   -2.6041    1.0525   -1.1536 C   0  0  0  0  0  0  0  0  0  0  0  0
    1.7853    1.8402   -0.1698 H   0  0  0  0  0  0  0  0  0  0  0  0
    0.6600    3.2974   -0.3303 H   0  0  0  0  0  0  0  0  0  0  0  0
   -1.7483    2.9387   -0.8660 H   0  0  0  0  0  0  0  0  0  0  0  0
   -3.5985    1.4336   -1.3455 H   0  0  0  0  0  0  0  0  0  0  0  0
   -2.4732   -0.0236   -1.1850 H   0  0  0  0  0  0  0  0  0  0  0  0
    0.0117   -1.9523   -1.3107 C   0  0  0  0  0  0  0  0  0  0  0  0
    0.0117   -1.9523    0.0126 C   0  0  0  0  0  0  0  0  0  0  0  0
    0.0117   -0.7264    0.8706 C   0  0  0  0  0  3  0  0  0  0  0  0
    1.2214   -0.5721    1.7518 C   0  0  0  0  0  0  0  0  0  0  0  0
    2.3326   -1.2878    1.6793 C   0  0  0  0  0  0  0  0  0  0  0  0
    0.0035   -2.8750   -1.8772 H   0  0  0  0  0  0  0  0  0  0  0  0
    0.0180   -1.0268   -1.8767 H   0  0  0  0  0  0  0  0  0  0  0  0
    0.0143   -2.9010    0.5431 H   0  0  0  0  0  0  0  0  0  0  0  0
   -0.1084    0.3455    0.1200 H   0  0  0  0  0  0  0  0  0  0  0  0
   -0.8763   -0.7399    1.5133 H   0  0  0  0  0  0  0  0  0  0  0  0
    1.1487    0.2129    2.4995 H   0  0  0  0  0  0  0  0  0  0  0  0
    2.4580   -2.0746    0.9445 H   0  0  0  0  0  0  0  0  0  0  0  0
    3.1608   -1.1035    2.3517 H   0  0  0  0  0  0  0  0  0  0  0  0
  1  2  2  3
  1  5  1  0
  1  6  1  0
  2  3  1  0
  2 18  1  0
  3  4  2  3
  3  7  1  0
  4  8  1  0
  4  9  1  0
 10 11  2  3
 10 15  1  0
 10 16  1  0
 11 12  1  0
 11 17  1  0
 12 13  1  0
 12 19  1  0
 13 14  2  3
 13 20  1  0
 14 21  1  0
 14 22  1  0
M  RAD  1  12   2
M  END
>  <reaction>  (12) 
rxn_1144

>  <mol_properties>  (12) 
{"1": {"label": "*3", "atom_type": "Cd"}, "2": {"label": "*4", "atom_type": "Cd"}, "10": {"label": "*0", "atom_type": "Cd"}, "11": {"label": "*1", "atom_type": "Cs"}, "17": {"label": "*2", "atom_type": "H0"}}

>  <type>  (12) 
unop_8

>  <geom_source>  (12) 
Heuristics

$$$$

     RDKit          3D

 22 20  0  0  0  0  0  0  0  0999 V2000
   -2.0596    1.6243   -0.7206 C   0  0  0  0  0  0  0  0  0  0  0  0
   -0.7722    1.2954   -0.7006 C   0  0  0  0  0  0  0  0  0  0  0  0
    0.3152    2.2621   -0.6271 C   0  0  0  0  0  0  0  0  0  0  0  0
    1.6026    1.9332   -0.6072 C   0  0  0  0  0  0  0  0  0  0  0  0
   -2.8362    0.8728   -0.7758 H   0  0  0  0  0  0  0  0  0  0  0  0
   -2.3771    2.6605   -0.6821 H   0  0  0  0  0  0  0  0  0  0  0  0
    0.0283    3.3094   -0.5873 H   0  0  0  0  0  0  0  0  0  0  0  0
    2.3792    2.6846   -0.5519 H   0  0  0  0  0  0  0  0  0  0  0  0
    1.9200    0.8969   -0.6456 H   0  0  0  0  0  0  0  0  0  0  0  0
   -0.5330   -2.0662   -1.3865 C   0  0  0  0  0  0  0  0  0  0  0  0
   -0.5330   -2.0662   -0.0633 C   0  0  0  0  0  0  0  0  0  0  0  0
   -0.5330   -0.8403    0.7947 C   0  0  0  0  0  3  0  0  0  0  0  0
    0.6767   -0.6860    1.6759 C   0  0  0  0  0  0  0  0  0  0  0  0
    1.7879   -1.4017    1.6035 C   0  0  0  0  0  0  0  0  0  0  0  0
   -0.5412   -2.9889   -1.9530 H   0  0  0  0  0  0  0  0  0  0  0  0
   -0.5266   -1.1407   -1.9525 H   0  0  0  0  0  0  0  0  0  0  0  0
   -0.5304   -3.0149    0.4673 H   0  0  0  0  0  0  0  0  0  0  0  0
   -0.6531    0.2316    0.0442 H   0  0  0  0  0  0  0  0  0  0  0  0
   -1.4210   -0.8538    1.4375 H   0  0  0  0  0  0  0  0  0  0  0  0
    0.6040    0.0990    2.4237 H   0  0  0  0  0  0  0  0  0  0  0  0
    1.9134   -2.1885    0.8686 H   0  0  0  0  0  0  0  0  0  0  0  0
    2.6161   -1.2174    2.2758 H   0  0  0  0  0  0  0  0  0  0  0  0
  1  2  2  3
  1  5  1  0
  1  6  1  0
  2  3  1  0
  2 18  1  0
  3  4  2  3
  3  7  1  0
  4  8  1  0
  4  9  1  0
 10 11  2  3
 10 15  1  0
 10 16  1  0
 11 12  1  0
 11 17  1  0
 12 13  1  0
 12 19  1  0
 13 14  2  3
 13 20  1  0
 14 21  1  0
 14 22  1  0
M  RAD  1  12   2
M  END
>  <reaction>  (13) 
rxn_1144

>  <mol_properties>  (13) 
{"1": {"label": "*3", "atom_type": "Cd"}, "2": {"label": "*4", "atom_type": "Cd"}, "10": {"label": "*0", "atom_type": "Cd"}, "11": {"label": "*1", "atom_type": "Cs"}, "17": {"label": "*2", "atom_type": "H0"}}

>  <type>  (13) 
unop_9

>  <geom_source>  (13) 
Heuristics

$$$$

     RDKit          3D

 22 20  0  0  0  0  0  0  0  0999 V2000
   -0.1076    2.7211    0.1663 C   0  0  0  0  0  0  0  0  0  0  0  0
   -0.3625    1.5477   -0.4030 C   0  0  0  0  0  0  0  0  0  0  0  0
   -1.1086    1.3886   -1.6441 C   0  0  0  0  0  0  0  0  0  0  0  0
   -1.3634    0.2152   -2.2135 C   0  0  0  0  0  0  0  0  0  0  0  0
    0.4513    2.7939    1.0900 H   0  0  0  0  0  0  0  0  0  0  0  0
   -0.4522    3.6490   -0.2768 H   0  0  0  0  0  0  0  0  0  0  0  0
   -1.4672    2.3013   -2.1123 H   0  0  0  0  0  0  0  0  0  0  0  0
   -1.9223    0.1424   -3.1372 H   0  0  0  0  0  0  0  0  0  0  0  0
   -1.0189   -0.7127   -1.7704 H   0  0  0  0  0  0  0  0  0  0  0  0
   -0.1232   -1.8138   -1.0889 C   0  0  0  0  0  0  0  0  0  0  0  0
   -0.1232   -1.8138    0.2343 C   0  0  0  0  0  0  0  0  0  0  0  0
   -0.1232   -0.5880    1.0923 C   0  0  0  0  0  3  0  0  0  0  0  0
    1.0865   -0.4336    1.9735 C   0  0  0  0  0  0  0  0  0  0  0  0
    2.1976   -1.1493    1.9011 C   0  0  0  0  0  0  0  0  0  0  0  0
   -0.1314   -2.7366   -1.6555 H   0  0  0  0  0  0  0  0  0  0  0  0
   -0.1169   -0.8884   -1.6549 H   0  0  0  0  0  0  0  0  0  0  0  0
   -0.1207   -2.7626    0.7648 H   0  0  0  0  0  0  0  0  0  0  0  0
   -0.2433    0.4840    0.3418 H   0  0  0  0  0  0  0  0  0  0  0  0
   -1.0112   -0.6015    1.7351 H   0  0  0  0  0  0  0  0  0  0  0  0
    1.0138    0.3514    2.7212 H   0  0  0  0  0  0  0  0  0  0  0  0
    2.3231   -1.9362    1.1662 H   0  0  0  0  0  0  0  0  0  0  0  0
    3.0258   -0.9650    2.5734 H   0  0  0  0  0  0  0  0  0  0  0  0
  1  2  2  3
  1  5  1  0
  1  6  1  0
  2  3  1  0
  2 18  1  0
  3  4  2  3
  3  7  1  0
  4  8  1  0
  4  9  1  0
 10 11  2  3
 10 15  1  0
 10 16  1  0
 11 12  1  0
 11 17  1  0
 12 13  1  0
 12 19  1  0
 13 14  2  3
 13 20  1  0
 14 21  1  0
 14 22  1  0
M  RAD  1  12   2
M  END
>  <reaction>  (14) 
rxn_1144

>  <mol_properties>  (14) 
{"1": {"label": "*3", "atom_type": "Cd"}, "2": {"label": "*4", "atom_type": "Cd"}, "10": {"label": "*0", "atom_type": "Cd"}, "11": {"label": "*1", "atom_type": "Cs"}, "17": {"label": "*2", "atom_type": "H0"}}

>  <type>  (14) 
unop_10

>  <geom_source>  (14) 
Heuristics

$$$$

     RDKit          3D

 22 20  0  0  0  0  0  0  0  0999 V2000
   -1.5270   -0.2292   -0.4803 C   0  0  0  0  0  3  0  0  0  0  0  0
    2.1109    0.7097   -0.6267 C   0  0  0  0  0  0  0  0  0  0  0  0
    1.0836   -0.2870   -0.2516 C   0  0  0  0  0  0  0  0  0  0  0  0
   -1.0867   -0.9470    0.7566 C   0  0  0  0  0  0  0  0  0  0  0  0
   -2.6629    0.7052   -0.1889 C   0  0  0  0  0  0  0  0  0  0  0  0
    3.3911    0.6665   -0.2531 C   0  0  0  0  0  0  0  0  0  0  0  0
    1.3010   -1.3606    0.5095 C   0  0  0  0  0  0  0  0  0  0  0  0
    0.1053   -0.6965    1.2988 C   0  0  0  0  0  0  0  0  0  0  0  0
   -3.0708    1.5804   -1.1090 C   0  0  0  0  0  0  0  0  0  0  0  0
    1.7921    1.5341   -1.2521 H   0  0  0  0  0  0  0  0  0  0  0  0
   -0.0129   -0.1124   -0.6617 H   0  0  0  0  0  0  0  0  0  0  0  0
   -1.7513   -1.6676    1.2242 H   0  0  0  0  0  0  0  0  0  0  0  0
   -1.8236   -0.9635   -1.2591 H   0  0  0  0  0  0  0  0  0  0  0  0
   -3.1682    0.6752    0.7732 H   0  0  0  0  0  0  0  0  0  0  0  0
    4.0682    1.4451   -0.5799 H   0  0  0  0  0  0  0  0  0  0  0  0
    3.7924   -0.1191    0.3692 H   0  0  0  0  0  0  0  0  0  0  0  0
    2.2688   -1.5971    0.9253 H   0  0  0  0  0  0  0  0  0  0  0  0
    0.4806   -2.0317    0.7273 H   0  0  0  0  0  0  0  0  0  0  0  0
    0.4120   -1.2170    2.2003 H   0  0  0  0  0  0  0  0  0  0  0  0
    0.7811    0.0260    0.8510 H   0  0  0  0  0  0  0  0  0  0  0  0
   -3.8951    2.2521   -0.8923 H   0  0  0  0  0  0  0  0  0  0  0  0
   -2.5885    1.6344   -2.0806 H   0  0  0  0  0  0  0  0  0  0  0  0
  1  4  1  0
  1  5  1  0
  1 13  1  0
  2  6  2  3
  2  3  1  0
  2 10  1  0
  3  7  2  3
  3 11  1  0
  4  8  2  3
  4 12  1  0
  5  9  2  3
  5 14  1  0
  6 15  1  0
  6 16  1  0
  7 17  1  0
  7 18  1  0
  8 19  1  0
  8 20  1  0
  9 21  1  0
  9 22  1  0
M  RAD  1   1   2
M  END
>  <reaction>  (15) 
rxn_1144

>  <mol_properties>  (15) 
{"1": {"label": "*3", "atom_type": "Cd"}, "2": {"label": "*4", "atom_type": "Cd"}, "10": {"label": "*0", "atom_type": "Cd"}, "11": {"label": "*1", "atom_type": "Cs"}, "17": {"label": "*2", "atom_type": "H0"}}

>  <type>  (15) 
unop_11

>  <geom_source>  (15) 
AutoTST

$$$$

     RDKit          3D

 22 20  0  0  0  0  0  0  0  0999 V2000
    0.3711    2.5428    0.0118 C   0  0  0  0  0  0  0  0  0  0  0  0
   -0.2597    1.4915   -0.5010 C   0  0  0  0  0  0  0  0  0  0  0  0
   -1.4654    1.5809   -1.3138 C   0  0  0  0  0  0  0  0  0  0  0  0
   -2.0962    0.5296   -1.8265 C   0  0  0  0  0  0  0  0  0  0  0  0
    1.2652    2.4311    0.6109 H   0  0  0  0  0  0  0  0  0  0  0  0
    0.0102    3.5521   -0.1532 H   0  0  0  0  0  0  0  0  0  0  0  0
   -1.8515    2.5800   -1.4967 H   0  0  0  0  0  0  0  0  0  0  0  0
   -2.9903    0.6414   -2.4257 H   0  0  0  0  0  0  0  0  0  0  0  0
   -1.7353   -0.4797   -1.6616 H   0  0  0  0  0  0  0  0  0  0  0  0
   -0.0204   -1.8700   -1.1869 C   0  0  0  0  0  0  0  0  0  0  0  0
   -0.0204   -1.8700    0.1364 C   0  0  0  0  0  0  0  0  0  0  0  0
   -0.0204   -0.6442    0.9944 C   0  0  0  0  0  3  0  0  0  0  0  0
    1.1893   -0.4898    1.8756 C   0  0  0  0  0  0  0  0  0  0  0  0
    2.3004   -1.2055    1.8031 C   0  0  0  0  0  0  0  0  0  0  0  0
   -0.0286   -2.7927   -1.7534 H   0  0  0  0  0  0  0  0  0  0  0  0
   -0.0141   -0.9445   -1.7529 H   0  0  0  0  0  0  0  0  0  0  0  0
   -0.0179   -2.8187    0.6669 H   0  0  0  0  0  0  0  0  0  0  0  0
   -0.1405    0.4278    0.2438 H   0  0  0  0  0  0  0  0  0  0  0  0
   -0.9084   -0.6576    1.6371 H   0  0  0  0  0  0  0  0  0  0  0  0
    1.1166    0.2952    2.6233 H   0  0  0  0  0  0  0  0  0  0  0  0
    2.4259   -1.9924    1.0683 H   0  0  0  0  0  0  0  0  0  0  0  0
    3.1286   -1.0212    2.4755 H   0  0  0  0  0  0  0  0  0  0  0  0
  1  2  2  3
  1  5  1  0
  1  6  1  0
  2  3  1  0
  2 18  1  0
  3  4  2  3
  3  7  1  0
  4  8  1  0
  4  9  1  0
 10 11  2  3
 10 15  1  0
 10 16  1  0
 11 12  1  0
 11 17  1  0
 12 13  1  0
 12 19  1  0
 13 14  2  3
 13 20  1  0
 14 21  1  0
 14 22  1  0
M  RAD  1  12   2
M  END
>  <reaction>  (16) 
rxn_1144

>  <mol_properties>  (16) 
{"1": {"label": "*3", "atom_type": "Cd"}, "2": {"label": "*4", "atom_type": "Cd"}, "10": {"label": "*0", "atom_type": "Cd"}, "11": {"label": "*1", "atom_type": "Cs"}, "17": {"label": "*2", "atom_type": "H0"}}

>  <type>  (16) 
unop_12

>  <geom_source>  (16) 
gaussian_log

$$$$
