
     RDKit          3D

  5  4  0  0  0  0  0  0  0  0999 V2000
    0.0000    0.0000    0.0000 C   0  0  0  0  0  0  0  0  0  0  0  0
   -0.6486   -0.7720   -0.4113 H   0  0  0  0  0  0  0  0  0  0  0  0
   -0.3482    0.9787   -0.3267 H   0  0  0  0  0  0  0  0  0  0  0  0
   -0.0223   -0.0487    1.0876 H   0  0  0  0  0  0  0  0  0  0  0  0
    1.0191   -0.1580   -0.3496 H   0  0  0  0  0  0  0  0  0  0  0  0
  1  2  1  0
  1  3  1  0
  1  4  1  0
  1  5  1  0
M  END
>  <reaction>  (1) 
rxn_855

>  <mol_properties>  (1) 
{"0": {"label": "donator", "atom_type": "Cs"}, "1": {"label": "d_hydrogen", "atom_type": "H0"}}

>  <type>  (1) 
r1h

$$$$

     RDKit          3D

  9  8  0  0  0  0  0  0  0  0999 V2000
    2.3991   -0.1292   -0.2384 S   0  0  0  0  0  0  0  0  0  0  0  0
    0.7460    0.2807    0.0931 C   0  0  0  0  0  3  0  0  0  0  0  0
   -0.3131   -0.5719   -0.2043 C   0  0  0  0  0  0  0  0  0  0  0  0
   -0.2286   -1.8095   -0.7775 C   0  0  0  0  0  0  0  0  0  0  0  0
    2.9373    1.0009    0.2312 H   0  0  0  0  0  0  0  0  0  0  0  0
    0.5618    1.2421    0.5487 H   0  0  0  0  0  0  0  0  0  0  0  0
   -1.2978   -0.1954    0.0537 H   0  0  0  0  0  0  0  0  0  0  0  0
    0.7207   -2.2479   -1.0607 H   0  0  0  0  0  0  0  0  0  0  0  0
   -1.1177   -2.3938   -0.9670 H   0  0  0  0  0  0  0  0  0  0  0  0
  1  2  1  0
  1  5  1  0
  2  3  1  0
  2  6  1  0
  3  4  2  3
  3  7  1  0
  4  8  1  0
  4  9  1  0
M  RAD  1   2   2
M  END
>  <reaction>  (2) 
rxn_855

>  <mol_properties>  (2) 
{"1": {"label": "acceptor", "atom_type": "Cs"}}

>  <type>  (2) 
r2

$$$$

     RDKit          3D

 10  9  0  0  0  0  0  0  0  0999 V2000
    2.2097   -0.5315    0.2575 S   0  0  0  0  0  0  0  0  0  0  0  0
    0.5401   -0.7188   -0.4494 C   0  0  0  0  0  0  0  0  0  0  0  0
   -0.5263   -0.1678    0.4365 C   0  0  0  0  0  0  0  0  0  0  0  0
   -1.3394    0.8185    0.0912 C   0  0  0  0  0  0  0  0  0  0  0  0
    2.1701    0.8016    0.3806 H   0  0  0  0  0  0  0  0  0  0  0  0
    0.4238   -1.7978   -0.5701 H   0  0  0  0  0  0  0  0  0  0  0  0
    0.5053   -0.2663   -1.4400 H   0  0  0  0  0  0  0  0  0  0  0  0
   -0.6005   -0.6141    1.4236 H   0  0  0  0  0  0  0  0  0  0  0  0
   -2.0960    1.1907    0.7700 H   0  0  0  0  0  0  0  0  0  0  0  0
   -1.2784    1.2877   -0.8850 H   0  0  0  0  0  0  0  0  0  0  0  0
  1  2  1  0
  1  5  1  0
  2  3  1  0
  2  6  1  0
  2  7  1  0
  3  4  2  3
  3  8  1  0
  4  9  1  0
  4 10  1  0
M  END
>  <reaction>  (3) 
rxn_855

>  <mol_properties>  (3) 
{"1": {"label": "acceptor", "atom_type": "Cs"}, "9": {"label": "a_hydrogen", "atom_type": "H0"}}

>  <type>  (3) 
r2h

$$$$

     RDKit          3D

 14 12  0  0  0  0  0  0  0  0999 V2000
    1.4229    0.1164    0.8063 S   0  0  0  0  0  0  0  0  0  0  0  0
   -0.1111    0.1587   -0.1317 C   0  0  0  0  0  0  0  0  0  0  0  0
   -1.3536    0.0415    0.6415 C   0  0  0  0  0  0  0  0  0  0  0  0
   -2.4631    0.7268    0.3800 C   0  0  0  0  0  0  0  0  0  0  0  0
    1.1836    1.1883    1.5762 H   0  0  0  0  0  0  0  0  0  0  0  0
   -0.1272    0.9572   -0.8720 H   0  0  0  0  0  0  0  0  0  0  0  0
   -1.3407   -0.6754    1.4572 H   0  0  0  0  0  0  0  0  0  0  0  0
   -2.5029    1.4564   -0.4213 H   0  0  0  0  0  0  0  0  0  0  0  0
   -3.3643    0.5824    0.9616 H   0  0  0  0  0  0  0  0  0  0  0  0
    0.1537   -2.0624   -1.6517 C   0  0  0  0  0  3  0  0  0  0  0  0
    0.0067   -0.8908   -0.8436 H   0  0  0  0  0  0  0  0  0  0  0  0
    0.9819   -1.8256   -2.3109 H   0  0  0  0  0  0  0  0  0  0  0  0
    0.3603   -2.8354   -0.9189 H   0  0  0  0  0  0  0  0  0  0  0  0
   -0.8141   -2.1373   -2.1360 H   0  0  0  0  0  0  0  0  0  0  0  0
  1  2  1  0
  1  5  1  0
  2  3  1  0
  2  6  1  0
  2 11  1  0
  3  4  2  3
  3  7  1  0
  4  8  1  0
  4  9  1  0
 10 12  1  0
 10 13  1  0
 10 14  1  0
M  RAD  1  10   2
M  END
>  <reaction>  (4) 
rxn_855

>  <mol_properties>  (4) 
{"0": {"label": "*0", "atom_type": "S2s"}, "1": {"label": "*1", "atom_type": "Cs"}, "9": {"label": "*3", "atom_type": "Cs"}, "10": {"label": "*2", "atom_type": "H0"}, "11": {"label": "*4", "atom_type": "H0"}}

>  <type>  (4) 
ts

$$$$

     RDKit          3D

 14 12  0  0  0  0  0  0  0  0999 V2000
   -1.3127    0.0180    0.8570 S   0  0  0  0  0  0  0  0  0  0  0  0
    0.2189   -0.1030   -0.1237 C   0  0  0  0  0  3  0  0  0  0  0  0
    0.7001    1.2237   -0.6075 C   0  0  0  0  0  0  0  0  0  0  0  0
    1.8726    1.7483   -0.2860 C   0  0  0  0  0  0  0  0  0  0  0  0
   -0.8274    0.8492    1.7883 H   0  0  0  0  0  0  0  0  0  0  0  0
    0.9874   -0.6170    0.4529 H   0  0  0  0  0  0  0  0  0  0  0  0
    0.0147    1.7730   -1.2457 H   0  0  0  0  0  0  0  0  0  0  0  0
    2.5704    1.2241    0.3583 H   0  0  0  0  0  0  0  0  0  0  0  0
    2.1779    2.7184   -0.6564 H   0  0  0  0  0  0  0  0  0  0  0  0
    0.2189   -2.5703   -0.9961 C   0  0  0  0  0  0  0  0  0  0  0  0
    0.2189   -1.3383   -0.5605 H   0  0  0  0  0  0  0  0  0  0  0  0
    1.1080   -3.0836   -0.6331 H   0  0  0  0  0  0  0  0  0  0  0  0
   -0.6702   -3.0836   -0.6331 H   0  0  0  0  0  0  0  0  0  0  0  0
    0.2189   -2.5703   -2.0850 H   0  0  0  0  0  0  0  0  0  0  0  0
  1  2  1  0
  1  5  1  0
  2  3  1  0
  2  6  1  0
  3  4  2  3
  3  7  1  0
  4  8  1  0
  4  9  1  0
 10 11  1  0
 10 12  1  0
 10 13  1  0
 10 14  1  0
M  RAD  1   2   2
M  END
>  <reaction>  (5) 
rxn_855

>  <mol_properties>  (5) 
{"0": {"label": "*0", "atom_type": "S2s"}, "1": {"label": "*1", "atom_type": "Cs"}, "9": {"label": "*3", "atom_type": "Cs"}, "10": {"label": "*2", "atom_type": "H0"}, "11": {"label": "*4", "atom_type": "H0"}}

>  <type>  (5) 
unop_1

>  <geom_source>  (5) 
Heuristics

$$$$

     RDKit          3D

 14 12  0  0  0  0  0  0  0  0999 V2000
   -0.9407    0.7283   -1.0384 S   0  0  0  0  0  0  0  0  0  0  0  0
   -0.0564   -0.1980    0.2587 C   0  0  0  0  0  3  0  0  0  0  0  0
    1.1349    0.5337    0.7793 C   0  0  0  0  0  0  0  0  0  0  0  0
    1.2803    0.9090    2.0408 C   0  0  0  0  0  0  0  0  0  0  0  0
   -1.1891    1.8176   -0.2997 H   0  0  0  0  0  0  0  0  0  0  0  0
   -0.7448   -0.4570    1.0625 H   0  0  0  0  0  0  0  0  0  0  0  0
    1.9019    0.7721    0.0487 H   0  0  0  0  0  0  0  0  0  0  0  0
    0.5238    0.6920    2.7873 H   0  0  0  0  0  0  0  0  0  0  0  0
    2.1606    1.4442    2.3729 H   0  0  0  0  0  0  0  0  0  0  0  0
   -0.0564   -2.6654   -0.6137 C   0  0  0  0  0  0  0  0  0  0  0  0
   -0.0564   -1.4334   -0.1781 H   0  0  0  0  0  0  0  0  0  0  0  0
    0.8327   -3.1787   -0.2507 H   0  0  0  0  0  0  0  0  0  0  0  0
   -0.9455   -3.1787   -0.2507 H   0  0  0  0  0  0  0  0  0  0  0  0
   -0.0564   -2.6654   -1.7026 H   0  0  0  0  0  0  0  0  0  0  0  0
  1  2  1  0
  1  5  1  0
  2  3  1  0
  2  6  1  0
  3  4  2  3
  3  7  1  0
  4  8  1  0
  4  9  1  0
 10 11  1  0
 10 12  1  0
 10 13  1  0
 10 14  1  0
M  RAD  1   2   2
M  END
>  <reaction>  (6) 
rxn_855

>  <mol_properties>  (6) 
{"0": {"label": "*0", "atom_type": "S2s"}, "1": {"label": "*1", "atom_type": "Cs"}, "9": {"label": "*3", "atom_type": "Cs"}, "10": {"label": "*2", "atom_type": "H0"}, "11": {"label": "*4", "atom_type": "H0"}}

>  <type>  (6) 
unop_2

>  <geom_source>  (6) 
Heuristics

$$$$

     RDKit          3D

 14 12  0  0  0  0  0  0  0  0999 V2000
   -0.6402   -0.1643    1.4277 S   0  0  0  0  0  0  0  0  0  0  0  0
    0.2441   -0.0695   -0.1633 C   0  0  0  0  0  3  0  0  0  0  0  0
   -0.0185    1.2044   -0.8940 C   0  0  0  0  0  0  0  0  0  0  0  0
    0.9198    2.0834   -1.2107 C   0  0  0  0  0  0  0  0  0  0  0  0
   -0.1096    0.9450    1.9588 H   0  0  0  0  0  0  0  0  0  0  0  0
    1.3110   -0.2214   -0.0028 H   0  0  0  0  0  0  0  0  0  0  0  0
   -1.0555    1.3991   -1.1505 H   0  0  0  0  0  0  0  0  0  0  0  0
    1.9611    1.9169   -0.9563 H   0  0  0  0  0  0  0  0  0  0  0  0
    0.6817    2.9987   -1.7370 H   0  0  0  0  0  0  0  0  0  0  0  0
    0.2441   -2.5368   -1.0356 C   0  0  0  0  0  0  0  0  0  0  0  0
    0.2441   -1.3048   -0.6001 H   0  0  0  0  0  0  0  0  0  0  0  0
    1.1332   -3.0501   -0.6727 H   0  0  0  0  0  0  0  0  0  0  0  0
   -0.6450   -3.0501   -0.6727 H   0  0  0  0  0  0  0  0  0  0  0  0
    0.2441   -2.5368   -2.1246 H   0  0  0  0  0  0  0  0  0  0  0  0
  1  2  1  0
  1  5  1  0
  2  3  1  0
  2  6  1  0
  3  4  2  3
  3  7  1  0
  4  8  1  0
  4  9  1  0
 10 11  1  0
 10 12  1  0
 10 13  1  0
 10 14  1  0
M  RAD  1   2   2
M  END
>  <reaction>  (7) 
rxn_855

>  <mol_properties>  (7) 
{"0": {"label": "*0", "atom_type": "S2s"}, "1": {"label": "*1", "atom_type": "Cs"}, "9": {"label": "*3", "atom_type": "Cs"}, "10": {"label": "*2", "atom_type": "H0"}, "11": {"label": "*4", "atom_type": "H0"}}

>  <type>  (7) 
unop_3

>  <geom_source>  (7) 
Heuristics

$$$$

     RDKit          3D

 14 12  0  0  0  0  0  0  0  0999 V2000
    0.9974    1.0183   -0.8767 S   0  0  0  0  0  0  0  0  0  0  0  0
   -0.5342    0.3078   -0.1899 C   0  0  0  0  0  3  0  0  0  0  0  0
   -0.3218   -0.3526    1.1308 C   0  0  0  0  0  0  0  0  0  0  0  0
   -0.9191    0.0233    2.2512 C   0  0  0  0  0  0  0  0  0  0  0  0
    1.2615    1.8285    0.1566 H   0  0  0  0  0  0  0  0  0  0  0  0
   -1.3036    1.0769   -0.1291 H   0  0  0  0  0  0  0  0  0  0  0  0
    0.3851   -1.1767    1.1409 H   0  0  0  0  0  0  0  0  0  0  0  0
   -1.6212    0.8500    2.2692 H   0  0  0  0  0  0  0  0  0  0  0  0
   -0.7297   -0.4824    3.1893 H   0  0  0  0  0  0  0  0  0  0  0  0
   -0.5342   -2.1595   -1.0623 C   0  0  0  0  0  0  0  0  0  0  0  0
   -0.5342   -0.9275   -0.6267 H   0  0  0  0  0  0  0  0  0  0  0  0
    0.3549   -2.6728   -0.6993 H   0  0  0  0  0  0  0  0  0  0  0  0
   -1.4233   -2.6728   -0.6993 H   0  0  0  0  0  0  0  0  0  0  0  0
   -0.5342   -2.1595   -2.1512 H   0  0  0  0  0  0  0  0  0  0  0  0
  1  2  1  0
  1  5  1  0
  2  3  1  0
  2  6  1  0
  3  4  2  3
  3  7  1  0
  4  8  1  0
  4  9  1  0
 10 11  1  0
 10 12  1  0
 10 13  1  0
 10 14  1  0
M  RAD  1   2   2
M  END
>  <reaction>  (8) 
rxn_855

>  <mol_properties>  (8) 
{"0": {"label": "*0", "atom_type": "S2s"}, "1": {"label": "*1", "atom_type": "Cs"}, "9": {"label": "*3", "atom_type": "Cs"}, "10": {"label": "*2", "atom_type": "H0"}, "11": {"label": "*4", "atom_type": "H0"}}

>  <type>  (8) 
unop_4

>  <geom_source>  (8) 
Heuristics

$$$$

     RDKit          3D

 14 12  0  0  0  0  0  0  0  0999 V2000
    0.3512   -0.0977    1.5632 S   0  0  0  0  0  0  0  0  0  0  0  0
    0.3512    0.0761   -0.2513 C   0  0  0  0  0  3  0  0  0  0  0  0
   -0.8400    0.8167   -0.7596 C   0  0  0  0  0  0  0  0  0  0  0  0
   -0.7725    1.9557   -1.4314 C   0  0  0  0  0  0  0  0  0  0  0  0
    0.3049    1.2124    1.8378 H   0  0  0  0  0  0  0  0  0  0  0  0
    1.2786    0.5456   -0.5776 H   0  0  0  0  0  0  0  0  0  0  0  0
   -1.8056    0.3757   -0.5315 H   0  0  0  0  0  0  0  0  0  0  0  0
    0.1795    2.4216   -1.6626 H   0  0  0  0  0  0  0  0  0  0  0  0
   -1.6650    2.4617   -1.7762 H   0  0  0  0  0  0  0  0  0  0  0  0
    0.3512   -2.3913   -1.1236 C   0  0  0  0  0  0  0  0  0  0  0  0
    0.3512   -1.1593   -0.6880 H   0  0  0  0  0  0  0  0  0  0  0  0
    1.2403   -2.9046   -0.7606 H   0  0  0  0  0  0  0  0  0  0  0  0
   -0.5380   -2.9046   -0.7606 H   0  0  0  0  0  0  0  0  0  0  0  0
    0.3512   -2.3913   -2.2125 H   0  0  0  0  0  0  0  0  0  0  0  0
  1  2  1  0
  1  5  1  0
  2  3  1  0
  2  6  1  0
  3  4  2  3
  3  7  1  0
  4  8  1  0
  4  9  1  0
 10 11  1  0
 10 12  1  0
 10 13  1  0
 10 14  1  0
M  RAD  1   2   2
M  END
>  <reaction>  (9) 
rxn_855

>  <mol_properties>  (9) 
{"0": {"label": "*0", "atom_type": "S2s"}, "1": {"label": "*1", "atom_type": "Cs"}, "9": {"label": "*3", "atom_type": "Cs"}, "10": {"label": "*2", "atom_type": "H0"}, "11": {"label": "*4", "atom_type": "H0"}}

>  <type>  (9) 
unop_5

>  <geom_source>  (9) 
Heuristics

$$$$

     RDKit          3D

 14 12  0  0  0  0  0  0  0  0999 V2000
    1.4330    0.8570   -0.2540 S   0  0  0  0  0  0  0  0  0  0  0  0
   -0.3356    0.4412   -0.4010 C   0  0  0  0  0  3  0  0  0  0  0  0
   -0.8479   -0.3228    0.7735 C   0  0  0  0  0  0  0  0  0  0  0  0
   -1.8157    0.1045    1.5698 C   0  0  0  0  0  0  0  0  0  0  0  0
    1.3309    1.5350    0.8965 H   0  0  0  0  0  0  0  0  0  0  0  0
   -0.9159    1.3482   -0.5674 H   0  0  0  0  0  0  0  0  0  0  0  0
   -0.3631   -1.2745    0.9685 H   0  0  0  0  0  0  0  0  0  0  0  0
   -2.3085    1.0563    1.4024 H   0  0  0  0  0  0  0  0  0  0  0  0
   -2.1516   -0.4818    2.4154 H   0  0  0  0  0  0  0  0  0  0  0  0
   -0.3356   -2.0261   -1.2734 C   0  0  0  0  0  0  0  0  0  0  0  0
   -0.3356   -0.7942   -0.8378 H   0  0  0  0  0  0  0  0  0  0  0  0
    0.5535   -2.5395   -0.9104 H   0  0  0  0  0  0  0  0  0  0  0  0
   -1.2247   -2.5395   -0.9104 H   0  0  0  0  0  0  0  0  0  0  0  0
   -0.3356   -2.0261   -2.3623 H   0  0  0  0  0  0  0  0  0  0  0  0
  1  2  1  0
  1  5  1  0
  2  3  1  0
  2  6  1  0
  3  4  2  3
  3  7  1  0
  4  8  1  0
  4  9  1  0
 10 11  1  0
 10 12  1  0
 10 13  1  0
 10 14  1  0
M  RAD  1   2   2
M  END
>  <reaction>  (10) 
rxn_855

>  <mol_properties>  (10) 
{"0": {"label": "*0", "atom_type": "S2s"}, "1": {"label": "*1", "atom_type": "Cs"}, "9": {"label": "*3", "atom_type": "Cs"}, "10": {"label": "*2", "atom_type": "H0"}, "11": {"label": "*4", "atom_type": "H0"}}

>  <type>  (10) 
unop_6

>  <geom_source>  (10) 
Heuristics

$$$$

     RDKit          3D

 14 12  0  0  0  0  0  0  0  0999 V2000
    1.5048    0.5834    0.4873 S   0  0  0  0  0  0  0  0  0  0  0  0
   -0.0269    0.4624   -0.4934 C   0  0  0  0  0  3  0  0  0  0  0  0
   -1.1595   -0.1288    0.2768 C   0  0  0  0  0  0  0  0  0  0  0  0
   -2.2951    0.5045    0.5272 C   0  0  0  0  0  0  0  0  0  0  0  0
    0.9942    1.3402    1.4673 H   0  0  0  0  0  0  0  0  0  0  0  0
   -0.2881    1.4418   -0.8932 H   0  0  0  0  0  0  0  0  0  0  0  0
   -1.0022   -1.1343    0.6552 H   0  0  0  0  0  0  0  0  0  0  0  0
   -2.4722    1.5131    0.1693 H   0  0  0  0  0  0  0  0  0  0  0  0
   -3.0885    0.0375    1.0965 H   0  0  0  0  0  0  0  0  0  0  0  0
   -0.0269   -2.0049   -1.3658 C   0  0  0  0  0  0  0  0  0  0  0  0
   -0.0269   -0.7729   -0.9302 H   0  0  0  0  0  0  0  0  0  0  0  0
    0.8622   -2.5182   -1.0028 H   0  0  0  0  0  0  0  0  0  0  0  0
   -0.9160   -2.5182   -1.0028 H   0  0  0  0  0  0  0  0  0  0  0  0
   -0.0269   -2.0049   -2.4547 H   0  0  0  0  0  0  0  0  0  0  0  0
  1  2  1  0
  1  5  1  0
  2  3  1  0
  2  6  1  0
  3  4  2  3
  3  7  1  0
  4  8  1  0
  4  9  1  0
 10 11  1  0
 10 12  1  0
 10 13  1  0
 10 14  1  0
M  RAD  1   2   2
M  END
>  <reaction>  (11) 
rxn_855

>  <mol_properties>  (11) 
{"0": {"label": "*0", "atom_type": "S2s"}, "1": {"label": "*1", "atom_type": "Cs"}, "9": {"label": "*3", "atom_type": "Cs"}, "10": {"label": "*2", "atom_type": "H0"}, "11": {"label": "*4", "atom_type": "H0"}}

>  <type>  (11) 
unop_7

>  <geom_source>  (11) 
Heuristics

$$$$

     RDKit          3D

 14 12  0  0  0  0  0  0  0  0999 V2000
   -1.5380    0.2758    0.1260 S   0  0  0  0  0  0  0  0  0  0  0  0
    0.2306   -0.1400   -0.0210 C   0  0  0  0  0  3  0  0  0  0  0  0
    1.0992    1.0675   -0.1355 C   0  0  0  0  0  0  0  0  0  0  0  0
    2.0468    1.3830    0.7339 C   0  0  0  0  0  0  0  0  0  0  0  0
   -1.4222    1.0302    1.2265 H   0  0  0  0  0  0  0  0  0  0  0  0
    0.5335   -0.7680    0.8163 H   0  0  0  0  0  0  0  0  0  0  0  0
    0.9032    1.7140   -0.9855 H   0  0  0  0  0  0  0  0  0  0  0  0
    2.2548    0.7592    1.5966 H   0  0  0  0  0  0  0  0  0  0  0  0
    2.6497    2.2739    0.6135 H   0  0  0  0  0  0  0  0  0  0  0  0
    0.2306   -2.6073   -0.8934 C   0  0  0  0  0  0  0  0  0  0  0  0
    0.2306   -1.3754   -0.4578 H   0  0  0  0  0  0  0  0  0  0  0  0
    1.1197   -3.1207   -0.5304 H   0  0  0  0  0  0  0  0  0  0  0  0
   -0.6585   -3.1207   -0.5304 H   0  0  0  0  0  0  0  0  0  0  0  0
    0.2306   -2.6073   -1.9823 H   0  0  0  0  0  0  0  0  0  0  0  0
  1  2  1  0
  1  5  1  0
  2  3  1  0
  2  6  1  0
  3  4  2  3
  3  7  1  0
  4  8  1  0
  4  9  1  0
 10 11  1  0
 10 12  1  0
 10 13  1  0
 10 14  1  0
M  RAD  1   2   2
M  END
>  <reaction>  (12) 
rxn_855

>  <mol_properties>  (12) 
{"0": {"label": "*0", "atom_type": "S2s"}, "1": {"label": "*1", "atom_type": "Cs"}, "9": {"label": "*3", "atom_type": "Cs"}, "10": {"label": "*2", "atom_type": "H0"}, "11": {"label": "*4", "atom_type": "H0"}}

>  <type>  (12) 
unop_8

>  <geom_source>  (12) 
Heuristics

$$$$

     RDKit          3D

 14 12  0  0  0  0  0  0  0  0999 V2000
    0.3372    1.0290   -1.2350 S   0  0  0  0  0  0  0  0  0  0  0  0
   -0.5471    0.1027    0.0620 C   0  0  0  0  0  3  0  0  0  0  0  0
    0.3085   -0.1857    1.2497 C   0  0  0  0  0  0  0  0  0  0  0  0
    0.0471    0.2475    2.4733 C   0  0  0  0  0  0  0  0  0  0  0  0
    0.6650    2.0787   -0.4705 H   0  0  0  0  0  0  0  0  0  0  0  0
   -1.4524    0.6381    0.3466 H   0  0  0  0  0  0  0  0  0  0  0  0
    1.2010   -0.7742    1.0597 H   0  0  0  0  0  0  0  0  0  0  0  0
   -0.8322    0.8458    2.6868 H   0  0  0  0  0  0  0  0  0  0  0  0
    0.7006    0.0182    3.3052 H   0  0  0  0  0  0  0  0  0  0  0  0
   -0.5471   -2.3646   -0.8103 C   0  0  0  0  0  0  0  0  0  0  0  0
   -0.5471   -1.1327   -0.3747 H   0  0  0  0  0  0  0  0  0  0  0  0
    0.3421   -2.8780   -0.4473 H   0  0  0  0  0  0  0  0  0  0  0  0
   -1.4362   -2.8780   -0.4473 H   0  0  0  0  0  0  0  0  0  0  0  0
   -0.5471   -2.3646   -1.8992 H   0  0  0  0  0  0  0  0  0  0  0  0
  1  2  1  0
  1  5  1  0
  2  3  1  0
  2  6  1  0
  3  4  2  3
  3  7  1  0
  4  8  1  0
  4  9  1  0
 10 11  1  0
 10 12  1  0
 10 13  1  0
 10 14  1  0
M  RAD  1   2   2
M  END
>  <reaction>  (13) 
rxn_855

>  <mol_properties>  (13) 
{"0": {"label": "*0", "atom_type": "S2s"}, "1": {"label": "*1", "atom_type": "Cs"}, "9": {"label": "*3", "atom_type": "Cs"}, "10": {"label": "*2", "atom_type": "H0"}, "11": {"label": "*4", "atom_type": "H0"}}

>  <type>  (13) 
unop_9

>  <geom_source>  (13) 
Heuristics

$$$$

     RDKit          3D

 14 12  0  0  0  0  0  0  0  0999 V2000
   -1.3733    0.5218   -0.5520 S   0  0  0  0  0  0  0  0  0  0  0  0
    0.1583   -0.1887    0.1347 C   0  0  0  0  0  3  0  0  0  0  0  0
    1.2210    0.8351    0.3542 C   0  0  0  0  0  0  0  0  0  0  0  0
    1.7460    1.1156    1.5371 C   0  0  0  0  0  0  0  0  0  0  0  0
   -1.5880    1.3973    0.4386 H   0  0  0  0  0  0  0  0  0  0  0  0
   -0.0651   -0.7310    1.0530 H   0  0  0  0  0  0  0  0  0  0  0  0
    1.5478    1.3765   -0.5284 H   0  0  0  0  0  0  0  0  0  0  0  0
    1.4290    0.5962    2.4352 H   0  0  0  0  0  0  0  0  0  0  0  0
    2.5120    1.8719    1.6500 H   0  0  0  0  0  0  0  0  0  0  0  0
    0.1583   -2.6560   -0.7376 C   0  0  0  0  0  0  0  0  0  0  0  0
    0.1583   -1.4241   -0.3020 H   0  0  0  0  0  0  0  0  0  0  0  0
    1.0474   -3.1694   -0.3746 H   0  0  0  0  0  0  0  0  0  0  0  0
   -0.7308   -3.1694   -0.3746 H   0  0  0  0  0  0  0  0  0  0  0  0
    0.1583   -2.6560   -1.8265 H   0  0  0  0  0  0  0  0  0  0  0  0
  1  2  1  0
  1  5  1  0
  2  3  1  0
  2  6  1  0
  3  4  2  3
  3  7  1  0
  4  8  1  0
  4  9  1  0
 10 11  1  0
 10 12  1  0
 10 13  1  0
 10 14  1  0
M  RAD  1   2   2
M  END
>  <reaction>  (14) 
rxn_855

>  <mol_properties>  (14) 
{"0": {"label": "*0", "atom_type": "S2s"}, "1": {"label": "*1", "atom_type": "Cs"}, "9": {"label": "*3", "atom_type": "Cs"}, "10": {"label": "*2", "atom_type": "H0"}, "11": {"label": "*4", "atom_type": "H0"}}

>  <type>  (14) 
unop_10

>  <geom_source>  (14) 
Heuristics

$$$$

     RDKit          3D

 14 12  0  0  0  0  0  0  0  0999 V2000
    1.1543    0.2362    1.1659 S   0  0  0  0  0  0  0  0  0  0  0  0
    0.2700    0.3310   -0.4252 C   0  0  0  0  0  3  0  0  0  0  0  0
   -1.2111    0.2464   -0.2676 C   0  0  0  0  0  0  0  0  0  0  0  0
   -2.0506    1.2024   -0.6347 C   0  0  0  0  0  0  0  0  0  0  0  0
    0.5561    1.2928    1.7314 H   0  0  0  0  0  0  0  0  0  0  0  0
    0.5608    1.2369   -0.9563 H   0  0  0  0  0  0  0  0  0  0  0  0
   -1.5879   -0.6603    0.1960 H   0  0  0  0  0  0  0  0  0  0  0  0
   -1.6983    2.1217   -1.0902 H   0  0  0  0  0  0  0  0  0  0  0  0
   -3.1191    1.0998   -0.4954 H   0  0  0  0  0  0  0  0  0  0  0  0
    0.2700   -2.1363   -1.2975 C   0  0  0  0  0  0  0  0  0  0  0  0
    0.2700   -0.9043   -0.8619 H   0  0  0  0  0  0  0  0  0  0  0  0
    1.1591   -2.6496   -0.9345 H   0  0  0  0  0  0  0  0  0  0  0  0
   -0.6192   -2.6496   -0.9345 H   0  0  0  0  0  0  0  0  0  0  0  0
    0.2700   -2.1363   -2.3864 H   0  0  0  0  0  0  0  0  0  0  0  0
  1  2  1  0
  1  5  1  0
  2  3  1  0
  2  6  1  0
  3  4  2  3
  3  7  1  0
  4  8  1  0
  4  9  1  0
 10 11  1  0
 10 12  1  0
 10 13  1  0
 10 14  1  0
M  RAD  1   2   2
M  END
>  <reaction>  (15) 
rxn_855

>  <mol_properties>  (15) 
{"0": {"label": "*0", "atom_type": "S2s"}, "1": {"label": "*1", "atom_type": "Cs"}, "9": {"label": "*3", "atom_type": "Cs"}, "10": {"label": "*2", "atom_type": "H0"}, "11": {"label": "*4", "atom_type": "H0"}}

>  <type>  (15) 
unop_11

>  <geom_source>  (15) 
Heuristics

$$$$

     RDKit          3D

 14 12  0  0  0  0  0  0  0  0999 V2000
   -0.3512    0.9065   -1.2772 S   0  0  0  0  0  0  0  0  0  0  0  0
   -0.3512   -0.0988    0.2432 C   0  0  0  0  0  3  0  0  0  0  0  0
    0.8400    0.1578    1.1041 C   0  0  0  0  0  0  0  0  0  0  0  0
    0.7725    0.6213    2.3426 C   0  0  0  0  0  0  0  0  0  0  0  0
   -0.3049    2.0981   -0.6674 H   0  0  0  0  0  0  0  0  0  0  0  0
   -1.2786    0.0614    0.7922 H   0  0  0  0  0  0  0  0  0  0  0  0
    1.8056   -0.0419    0.6496 H   0  0  0  0  0  0  0  0  0  0  0  0
   -0.1795    0.8385    2.8152 H   0  0  0  0  0  0  0  0  0  0  0  0
    1.6650    0.7983    2.9288 H   0  0  0  0  0  0  0  0  0  0  0  0
   -0.3512   -2.5661   -0.6291 C   0  0  0  0  0  0  0  0  0  0  0  0
   -0.3512   -1.3341   -0.1935 H   0  0  0  0  0  0  0  0  0  0  0  0
    0.5380   -3.0794   -0.2661 H   0  0  0  0  0  0  0  0  0  0  0  0
   -1.2403   -3.0794   -0.2661 H   0  0  0  0  0  0  0  0  0  0  0  0
   -0.3512   -2.5661   -1.7180 H   0  0  0  0  0  0  0  0  0  0  0  0
  1  2  1  0
  1  5  1  0
  2  3  1  0
  2  6  1  0
  3  4  2  3
  3  7  1  0
  4  8  1  0
  4  9  1  0
 10 11  1  0
 10 12  1  0
 10 13  1  0
 10 14  1  0
M  RAD  1   2   2
M  END
>  <reaction>  (16) 
rxn_855

>  <mol_properties>  (16) 
{"0": {"label": "*0", "atom_type": "S2s"}, "1": {"label": "*1", "atom_type": "Cs"}, "9": {"label": "*3", "atom_type": "Cs"}, "10": {"label": "*2", "atom_type": "H0"}, "11": {"label": "*4", "atom_type": "H0"}}

>  <type>  (16) 
unop_12

>  <geom_source>  (16) 
Heuristics

$$$$

     RDKit          3D

 14 12  0  0  0  0  0  0  0  0999 V2000
   -0.4071    2.1619   -0.1373 S   0  0  0  0  0  0  0  0  0  0  0  0
   -0.0994    0.4095    0.2478 C   0  0  0  0  0  3  0  0  0  0  0  0
   -1.0078   -0.4765   -0.5514 C   0  0  0  0  0  0  0  0  0  0  0  0
   -2.3123   -0.5770   -0.2808 C   0  0  0  0  0  0  0  0  0  0  0  0
    2.3974   -0.3913    0.1544 C   0  0  0  0  0  0  0  0  0  0  0  0
   -0.2353    0.2275    1.3353 H   0  0  0  0  0  0  0  0  0  0  0  0
    1.2721    0.1032   -0.0991 H   0  0  0  0  0  0  0  0  0  0  0  0
   -0.5830   -1.0771   -1.3494 H   0  0  0  0  0  0  0  0  0  0  0  0
   -2.7623   -0.0090    0.5275 H   0  0  0  0  0  0  0  0  0  0  0  0
   -2.9387   -1.2397   -0.8689 H   0  0  0  0  0  0  0  0  0  0  0  0
    2.6692   -1.2203    0.8397 H   0  0  0  0  0  0  0  0  0  0  0  0
    2.7076   -0.6491   -0.8791 H   0  0  0  0  0  0  0  0  0  0  0  0
    2.9132    0.5373    0.4746 H   0  0  0  0  0  0  0  0  0  0  0  0
   -1.6136    2.2005    0.5867 H   0  0  0  0  0  0  0  0  0  0  0  0
  1  2  1  0
  1 14  1  0
  2  3  1  0
  2  6  1  0
  3  4  2  3
  3  8  1  0
  4  9  1  0
  4 10  1  0
  5  7  1  0
  5 11  1  0
  5 12  1  0
  5 13  1  0
M  RAD  1   2   2
M  END
>  <reaction>  (17) 
rxn_855

>  <mol_properties>  (17) 
{"0": {"label": "*0", "atom_type": "S2s"}, "1": {"label": "*1", "atom_type": "Cs"}, "9": {"label": "*3", "atom_type": "Cs"}, "10": {"label": "*2", "atom_type": "H0"}, "11": {"label": "*4", "atom_type": "H0"}}

>  <type>  (17) 
unop_13

>  <geom_source>  (17) 
AutoTST

$$$$
