
     RDKit          3D

  7  6  0  0  0  0  0  0  0  0999 V2000
    1.6964   -0.0938    0.0583 C   0  0  0  0  0  0  0  0  0  0  0  0
    0.5019   -0.0278    0.0173 C   0  0  0  0  0  0  0  0  0  0  0  0
   -0.9505    0.0525   -0.0327 C   0  0  0  0  0  0  0  0  0  0  0  0
    2.7574   -0.1524    0.0947 H   0  0  0  0  0  0  0  0  0  0  0  0
   -1.2692    0.9972   -0.4754 H   0  0  0  0  0  0  0  0  0  0  0  0
   -1.3749   -0.0147    0.9700 H   0  0  0  0  0  0  0  0  0  0  0  0
   -1.3610   -0.7611   -0.6323 H   0  0  0  0  0  0  0  0  0  0  0  0
  1  2  3  0
  1  4  1  0
  2  3  1  0
  3  5  1  0
  3  6  1  0
  3  7  1  0
M  END
>  <reaction>  (1) 
rxn_1230

>  <mol_properties>  (1) 
{"2": {"label": "donator", "atom_type": "Cs"}, "4": {"label": "d_hydrogen", "atom_type": "H0"}}

>  <type>  (1) 
r1h

$$$$

     RDKit          3D

  5  4  0  0  0  0  0  0  0  0999 V2000
    0.0397    0.7134    0.0000 C   0  0  0  0  0  3  0  0  0  0  0  0
    0.0458   -0.5870    0.0000 C   0  0  0  0  0  0  0  0  0  0  0  0
   -0.6871    1.5118    0.0000 H   0  0  0  0  0  0  0  0  0  0  0  0
   -0.8806   -1.1637    0.0000 H   0  0  0  0  0  0  0  0  0  0  0  0
    0.9690   -1.1600    0.0000 H   0  0  0  0  0  0  0  0  0  0  0  0
  1  2  2  3
  1  3  1  0
  2  4  1  0
  2  5  1  0
M  RAD  1   1   2
M  END
>  <reaction>  (2) 
rxn_1230

>  <mol_properties>  (2) 
{"0": {"label": "acceptor", "atom_type": "Cd"}}

>  <type>  (2) 
r2

$$$$

     RDKit          3D

  6  5  0  0  0  0  0  0  0  0999 V2000
    0.6594    0.0438   -0.0050 C   0  0  0  0  0  0  0  0  0  0  0  0
   -0.6594   -0.0438    0.0050 C   0  0  0  0  0  0  0  0  0  0  0  0
    1.1706    0.8681   -0.4881 H   0  0  0  0  0  0  0  0  0  0  0  0
    1.2824   -0.7051    0.4696 H   0  0  0  0  0  0  0  0  0  0  0  0
   -1.2824    0.7051   -0.4696 H   0  0  0  0  0  0  0  0  0  0  0  0
   -1.1706   -0.8681    0.4881 H   0  0  0  0  0  0  0  0  0  0  0  0
  1  2  2  3
  1  3  1  0
  1  4  1  0
  2  5  1  0
  2  6  1  0
M  END
>  <reaction>  (3) 
rxn_1230

>  <mol_properties>  (3) 
{"0": {"label": "a_hydrogen", "atom_type": "H0"}, "1": {"label": "acceptor", "atom_type": "Cd"}}

>  <type>  (3) 
r2h

$$$$

     RDKit          3D

 12 10  0  0  0  0  0  0  0  0999 V2000
   -0.0869   -0.9503   -2.0106 C   0  0  0  0  0  0  0  0  0  0  0  0
   -0.1026   -1.1221   -0.8218 C   0  0  0  0  0  0  0  0  0  0  0  0
   -0.1160   -1.2697    0.6013 C   0  0  0  0  0  0  0  0  0  0  0  0
   -0.0748   -0.8180   -3.0656 H   0  0  0  0  0  0  0  0  0  0  0  0
   -0.0116   -0.1264    1.1128 H   0  0  0  0  0  0  0  0  0  0  0  0
    0.7375   -1.8224    0.9898 H   0  0  0  0  0  0  0  0  0  0  0  0
   -1.0556   -1.6585    0.9898 H   0  0  0  0  0  0  0  0  0  0  0  0
    0.1137    1.2436    1.5431 C   0  0  0  0  0  3  0  0  0  0  0  0
    0.1916    2.0963    0.5529 C   0  0  0  0  0  0  0  0  0  0  0  0
    0.1284    1.4050    2.6140 H   0  0  0  0  0  0  0  0  0  0  0  0
    0.2894    3.1669    0.7208 H   0  0  0  0  0  0  0  0  0  0  0  0
    0.1609    1.7606   -0.4801 H   0  0  0  0  0  0  0  0  0  0  0  0
  1  2  3  0
  1  4  1  0
  2  3  1  0
  3  5  1  0
  3  6  1  0
  3  7  1  0
  8  9  2  3
  8 10  1  0
  9 11  1  0
  9 12  1  0
M  RAD  1   8   2
M  END
>  <reaction>  (4) 
rxn_1230

>  <mol_properties>  (4) 
{"1": {"label": "*0", "atom_type": "Ct"}, "2": {"label": "*1", "atom_type": "Cs"}, "4": {"label": "*2", "atom_type": "H0"}, "7": {"label": "*3", "atom_type": "Cd"}, "8": {"label": "*4", "atom_type": "Cd"}}

>  <type>  (4) 
ts

$$$$

     RDKit          3D

 12 10  0  0  0  0  0  0  0  0999 V2000
    0.1007   -1.1031   -2.4263 C   0  0  0  0  0  0  0  0  0  0  0  0
    0.1007   -1.1031   -1.2292 C   0  0  0  0  0  0  0  0  0  0  0  0
    0.1007   -1.1031    0.2262 C   0  0  0  0  0  3  0  0  0  0  0  0
    0.1007   -1.1031   -3.4895 H   0  0  0  0  0  0  0  0  0  0  0  0
    0.2121    0.1165    0.6886 H   0  0  0  0  0  0  0  0  0  0  0  0
    0.9344   -1.6917    0.6116 H   0  0  0  0  0  0  0  0  0  0  0  0
   -0.8259   -1.5308    0.6116 H   0  0  0  0  0  0  0  0  0  0  0  0
    0.3228    1.3279    1.1480 C   0  0  0  0  0  0  0  0  0  0  0  0
   -0.6067    1.8646    1.9193 C   0  0  0  0  0  0  0  0  0  0  0  0
    1.3766    1.4097    1.3870 H   0  0  0  0  0  0  0  0  0  0  0  0
   -0.3525    2.4079    2.8217 H   0  0  0  0  0  0  0  0  0  0  0  0
   -1.6605    1.7828    1.6802 H   0  0  0  0  0  0  0  0  0  0  0  0
  1  2  3  0
  1  4  1  0
  2  3  1  0
  3  6  1  0
  3  7  1  0
  5  8  1  0
  8  9  2  3
  8 10  1  0
  9 11  1  0
  9 12  1  0
M  RAD  1   3   2
M  END
>  <reaction>  (5) 
rxn_1230

>  <mol_properties>  (5) 
{"1": {"label": "*0", "atom_type": "Ct"}, "2": {"label": "*1", "atom_type": "Cs"}, "4": {"label": "*2", "atom_type": "H0"}, "7": {"label": "*3", "atom_type": "Cd"}, "8": {"label": "*4", "atom_type": "Cd"}}

>  <type>  (5) 
unop_1

>  <geom_source>  (5) 
Heuristics

$$$$

     RDKit          3D

 12 10  0  0  0  0  0  0  0  0999 V2000
    0.0110   -1.2145   -2.1194 C   0  0  0  0  0  0  0  0  0  0  0  0
    0.0110   -1.2145   -0.9223 C   0  0  0  0  0  0  0  0  0  0  0  0
    0.0110   -1.2145    0.5331 C   0  0  0  0  0  3  0  0  0  0  0  0
    0.0110   -1.2145   -3.1826 H   0  0  0  0  0  0  0  0  0  0  0  0
    0.1224    0.0051    0.9955 H   0  0  0  0  0  0  0  0  0  0  0  0
    0.8447   -1.8031    0.9185 H   0  0  0  0  0  0  0  0  0  0  0  0
   -0.9156   -1.6422    0.9185 H   0  0  0  0  0  0  0  0  0  0  0  0
    0.2331    1.2165    1.4549 C   0  0  0  0  0  0  0  0  0  0  0  0
   -0.2368    2.2565    0.7881 C   0  0  0  0  0  0  0  0  0  0  0  0
    0.4684    1.2775    2.5109 H   0  0  0  0  0  0  0  0  0  0  0  0
   -0.4058    3.2119    1.2706 H   0  0  0  0  0  0  0  0  0  0  0  0
   -0.4721    2.1954   -0.2679 H   0  0  0  0  0  0  0  0  0  0  0  0
  1  2  3  0
  1  4  1  0
  2  3  1  0
  3  6  1  0
  3  7  1  0
  5  8  1  0
  8  9  2  3
  8 10  1  0
  9 11  1  0
  9 12  1  0
M  RAD  1   3   2
M  END
>  <reaction>  (6) 
rxn_1230

>  <mol_properties>  (6) 
{"1": {"label": "*0", "atom_type": "Ct"}, "2": {"label": "*1", "atom_type": "Cs"}, "4": {"label": "*2", "atom_type": "H0"}, "7": {"label": "*3", "atom_type": "Cd"}, "8": {"label": "*4", "atom_type": "Cd"}}

>  <type>  (6) 
unop_2

>  <geom_source>  (6) 
Heuristics

$$$$

     RDKit          3D

 12 10  0  0  0  0  0  0  0  0999 V2000
    0.0140   -1.0672   -2.5033 C   0  0  0  0  0  0  0  0  0  0  0  0
    0.0140   -1.0672   -1.3063 C   0  0  0  0  0  0  0  0  0  0  0  0
    0.0140   -1.0672    0.1492 C   0  0  0  0  0  3  0  0  0  0  0  0
    0.0140   -1.0672   -3.5666 H   0  0  0  0  0  0  0  0  0  0  0  0
    0.1254    0.1524    0.6116 H   0  0  0  0  0  0  0  0  0  0  0  0
    0.8477   -1.6558    0.5345 H   0  0  0  0  0  0  0  0  0  0  0  0
   -0.9126   -1.4949    0.5345 H   0  0  0  0  0  0  0  0  0  0  0  0
    0.2362    1.3638    1.0709 C   0  0  0  0  0  0  0  0  0  0  0  0
   -0.2965    1.7181    2.2276 C   0  0  0  0  0  0  0  0  0  0  0  0
    1.1951    1.7491    0.7450 H   0  0  0  0  0  0  0  0  0  0  0  0
    0.2044    2.4081    2.8964 H   0  0  0  0  0  0  0  0  0  0  0  0
   -1.2554    1.3328    2.5535 H   0  0  0  0  0  0  0  0  0  0  0  0
  1  2  3  0
  1  4  1  0
  2  3  1  0
  3  6  1  0
  3  7  1  0
  5  8  1  0
  8  9  2  3
  8 10  1  0
  9 11  1  0
  9 12  1  0
M  RAD  1   3   2
M  END
>  <reaction>  (7) 
rxn_1230

>  <mol_properties>  (7) 
{"1": {"label": "*0", "atom_type": "Ct"}, "2": {"label": "*1", "atom_type": "Cs"}, "4": {"label": "*2", "atom_type": "H0"}, "7": {"label": "*3", "atom_type": "Cd"}, "8": {"label": "*4", "atom_type": "Cd"}}

>  <type>  (7) 
unop_3

>  <geom_source>  (7) 
Heuristics

$$$$

     RDKit          3D

 12 10  0  0  0  0  0  0  0  0999 V2000
   -0.3145   -1.1516   -2.2032 C   0  0  0  0  0  0  0  0  0  0  0  0
   -0.3145   -1.1516   -1.0062 C   0  0  0  0  0  0  0  0  0  0  0  0
   -0.3145   -1.1516    0.4492 C   0  0  0  0  0  3  0  0  0  0  0  0
   -0.3145   -1.1516   -3.2665 H   0  0  0  0  0  0  0  0  0  0  0  0
   -0.2030    0.0680    0.9116 H   0  0  0  0  0  0  0  0  0  0  0  0
    0.5192   -1.7402    0.8346 H   0  0  0  0  0  0  0  0  0  0  0  0
   -1.2411   -1.5793    0.8346 H   0  0  0  0  0  0  0  0  0  0  0  0
   -0.0923    1.2794    1.3710 C   0  0  0  0  0  0  0  0  0  0  0  0
    0.9553    2.0346    1.0895 C   0  0  0  0  0  0  0  0  0  0  0  0
   -0.6138    1.3608    2.3174 H   0  0  0  0  0  0  0  0  0  0  0  0
    1.3348    2.7654    1.7938 H   0  0  0  0  0  0  0  0  0  0  0  0
    1.4768    1.9532    0.1431 H   0  0  0  0  0  0  0  0  0  0  0  0
  1  2  3  0
  1  4  1  0
  2  3  1  0
  3  6  1  0
  3  7  1  0
  5  8  1  0
  8  9  2  3
  8 10  1  0
  9 11  1  0
  9 12  1  0
M  RAD  1   3   2
M  END
>  <reaction>  (8) 
rxn_1230

>  <mol_properties>  (8) 
{"1": {"label": "*0", "atom_type": "Ct"}, "2": {"label": "*1", "atom_type": "Cs"}, "4": {"label": "*2", "atom_type": "H0"}, "7": {"label": "*3", "atom_type": "Cd"}, "8": {"label": "*4", "atom_type": "Cd"}}

>  <type>  (8) 
unop_4

>  <geom_source>  (8) 
Heuristics

$$$$

     RDKit          3D

 12 10  0  0  0  0  0  0  0  0999 V2000
   -0.0960   -1.0502   -2.5285 C   0  0  0  0  0  0  0  0  0  0  0  0
   -0.0960   -1.0502   -1.3314 C   0  0  0  0  0  0  0  0  0  0  0  0
   -0.0960   -1.0502    0.1240 C   0  0  0  0  0  3  0  0  0  0  0  0
   -0.0960   -1.0502   -3.5918 H   0  0  0  0  0  0  0  0  0  0  0  0
    0.0155    0.1694    0.5864 H   0  0  0  0  0  0  0  0  0  0  0  0
    0.7377   -1.6388    0.5094 H   0  0  0  0  0  0  0  0  0  0  0  0
   -1.0226   -1.4779    0.5094 H   0  0  0  0  0  0  0  0  0  0  0  0
    0.1262    1.3808    1.0458 C   0  0  0  0  0  0  0  0  0  0  0  0
    0.1490    1.6308    2.3434 C   0  0  0  0  0  0  0  0  0  0  0  0
    0.1988    2.1753    0.3125 H   0  0  0  0  0  0  0  0  0  0  0  0
    0.2413    2.6404    2.7262 H   0  0  0  0  0  0  0  0  0  0  0  0
    0.0764    0.8363    3.0767 H   0  0  0  0  0  0  0  0  0  0  0  0
  1  2  3  0
  1  4  1  0
  2  3  1  0
  3  6  1  0
  3  7  1  0
  5  8  1  0
  8  9  2  3
  8 10  1  0
  9 11  1  0
  9 12  1  0
M  RAD  1   3   2
M  END
>  <reaction>  (9) 
rxn_1230

>  <mol_properties>  (9) 
{"1": {"label": "*0", "atom_type": "Ct"}, "2": {"label": "*1", "atom_type": "Cs"}, "4": {"label": "*2", "atom_type": "H0"}, "7": {"label": "*3", "atom_type": "Cd"}, "8": {"label": "*4", "atom_type": "Cd"}}

>  <type>  (9) 
unop_5

>  <geom_source>  (9) 
Heuristics

$$$$

     RDKit          3D

 12 10  0  0  0  0  0  0  0  0999 V2000
   -0.3391   -1.1053   -2.3161 C   0  0  0  0  0  0  0  0  0  0  0  0
   -0.3391   -1.1053   -1.1190 C   0  0  0  0  0  0  0  0  0  0  0  0
   -0.3391   -1.1053    0.3364 C   0  0  0  0  0  3  0  0  0  0  0  0
   -0.3391   -1.1053   -3.3793 H   0  0  0  0  0  0  0  0  0  0  0  0
   -0.2276    0.1143    0.7988 H   0  0  0  0  0  0  0  0  0  0  0  0
    0.4946   -1.6938    0.7218 H   0  0  0  0  0  0  0  0  0  0  0  0
   -1.2657   -1.5330    0.7218 H   0  0  0  0  0  0  0  0  0  0  0  0
   -0.1169    1.3258    1.2582 C   0  0  0  0  0  0  0  0  0  0  0  0
    1.0628    1.8692    1.5031 C   0  0  0  0  0  0  0  0  0  0  0  0
   -0.9521    1.4502    1.9373 H   0  0  0  0  0  0  0  0  0  0  0  0
    1.2422    2.4611    2.3929 H   0  0  0  0  0  0  0  0  0  0  0  0
    1.8979    1.7448    0.8240 H   0  0  0  0  0  0  0  0  0  0  0  0
  1  2  3  0
  1  4  1  0
  2  3  1  0
  3  6  1  0
  3  7  1  0
  5  8  1  0
  8  9  2  3
  8 10  1  0
  9 11  1  0
  9 12  1  0
M  RAD  1   3   2
M  END
>  <reaction>  (10) 
rxn_1230

>  <mol_properties>  (10) 
{"1": {"label": "*0", "atom_type": "Ct"}, "2": {"label": "*1", "atom_type": "Cs"}, "4": {"label": "*2", "atom_type": "H0"}, "7": {"label": "*3", "atom_type": "Cd"}, "8": {"label": "*4", "atom_type": "Cd"}}

>  <type>  (10) 
unop_6

>  <geom_source>  (10) 
Heuristics

$$$$

     RDKit          3D

 12 10  0  0  0  0  0  0  0  0999 V2000
   -0.2989   -1.0666   -2.4263 C   0  0  0  0  0  0  0  0  0  0  0  0
   -0.2989   -1.0666   -1.2292 C   0  0  0  0  0  0  0  0  0  0  0  0
   -0.2989   -1.0666    0.2262 C   0  0  0  0  0  3  0  0  0  0  0  0
   -0.2989   -1.0666   -3.4895 H   0  0  0  0  0  0  0  0  0  0  0  0
   -0.1875    0.1530    0.6886 H   0  0  0  0  0  0  0  0  0  0  0  0
    0.5348   -1.6552    0.6116 H   0  0  0  0  0  0  0  0  0  0  0  0
   -1.2255   -1.4943    0.6116 H   0  0  0  0  0  0  0  0  0  0  0  0
   -0.0768    1.3644    1.1480 C   0  0  0  0  0  0  0  0  0  0  0  0
    0.9347    1.7237    1.9193 C   0  0  0  0  0  0  0  0  0  0  0  0
   -1.0982    1.6359    1.3870 H   0  0  0  0  0  0  0  0  0  0  0  0
    0.7831    2.3041    2.8217 H   0  0  0  0  0  0  0  0  0  0  0  0
    1.9561    1.4523    1.6802 H   0  0  0  0  0  0  0  0  0  0  0  0
  1  2  3  0
  1  4  1  0
  2  3  1  0
  3  6  1  0
  3  7  1  0
  5  8  1  0
  8  9  2  3
  8 10  1  0
  9 11  1  0
  9 12  1  0
M  RAD  1   3   2
M  END
>  <reaction>  (11) 
rxn_1230

>  <mol_properties>  (11) 
{"1": {"label": "*0", "atom_type": "Ct"}, "2": {"label": "*1", "atom_type": "Cs"}, "4": {"label": "*2", "atom_type": "H0"}, "7": {"label": "*3", "atom_type": "Cd"}, "8": {"label": "*4", "atom_type": "Cd"}}

>  <type>  (11) 
unop_7

>  <geom_source>  (11) 
Heuristics

$$$$

     RDKit          3D

 12 10  0  0  0  0  0  0  0  0999 V2000
    0.1331   -1.1484   -2.3161 C   0  0  0  0  0  0  0  0  0  0  0  0
    0.1331   -1.1484   -1.1190 C   0  0  0  0  0  0  0  0  0  0  0  0
    0.1331   -1.1484    0.3364 C   0  0  0  0  0  3  0  0  0  0  0  0
    0.1331   -1.1484   -3.3793 H   0  0  0  0  0  0  0  0  0  0  0  0
    0.2446    0.0711    0.7988 H   0  0  0  0  0  0  0  0  0  0  0  0
    0.9668   -1.7370    0.7218 H   0  0  0  0  0  0  0  0  0  0  0  0
   -0.7935   -1.5761    0.7218 H   0  0  0  0  0  0  0  0  0  0  0  0
    0.3553    1.2826    1.2582 C   0  0  0  0  0  0  0  0  0  0  0  0
   -0.7063    2.0309    1.5031 C   0  0  0  0  0  0  0  0  0  0  0  0
    1.1992    1.2536    1.9373 H   0  0  0  0  0  0  0  0  0  0  0  0
   -0.7755    2.6455    2.3929 H   0  0  0  0  0  0  0  0  0  0  0  0
   -1.5502    2.0599    0.8240 H   0  0  0  0  0  0  0  0  0  0  0  0
  1  2  3  0
  1  4  1  0
  2  3  1  0
  3  6  1  0
  3  7  1  0
  5  8  1  0
  8  9  2  3
  8 10  1  0
  9 11  1  0
  9 12  1  0
M  RAD  1   3   2
M  END
>  <reaction>  (12) 
rxn_1230

>  <mol_properties>  (12) 
{"1": {"label": "*0", "atom_type": "Ct"}, "2": {"label": "*1", "atom_type": "Cs"}, "4": {"label": "*2", "atom_type": "H0"}, "7": {"label": "*3", "atom_type": "Cd"}, "8": {"label": "*4", "atom_type": "Cd"}}

>  <type>  (12) 
unop_8

>  <geom_source>  (12) 
Heuristics

$$$$

     RDKit          3D

 12 10  0  0  0  0  0  0  0  0999 V2000
   -0.2309   -1.1924   -2.1194 C   0  0  0  0  0  0  0  0  0  0  0  0
   -0.2309   -1.1924   -0.9223 C   0  0  0  0  0  0  0  0  0  0  0  0
   -0.2309   -1.1924    0.5331 C   0  0  0  0  0  3  0  0  0  0  0  0
   -0.2309   -1.1924   -3.1826 H   0  0  0  0  0  0  0  0  0  0  0  0
   -0.1195    0.0272    0.9955 H   0  0  0  0  0  0  0  0  0  0  0  0
    0.6028   -1.7810    0.9185 H   0  0  0  0  0  0  0  0  0  0  0  0
   -1.1575   -1.6201    0.9185 H   0  0  0  0  0  0  0  0  0  0  0  0
   -0.0087    1.2386    1.4549 C   0  0  0  0  0  0  0  0  0  0  0  0
    0.6419    2.1762    0.7881 C   0  0  0  0  0  0  0  0  0  0  0  0
   -0.2290    1.3413    2.5109 H   0  0  0  0  0  0  0  0  0  0  0  0
    0.9813    3.0851    1.2706 H   0  0  0  0  0  0  0  0  0  0  0  0
    0.8622    2.0735   -0.2679 H   0  0  0  0  0  0  0  0  0  0  0  0
  1  2  3  0
  1  4  1  0
  2  3  1  0
  3  6  1  0
  3  7  1  0
  5  8  1  0
  8  9  2  3
  8 10  1  0
  9 11  1  0
  9 12  1  0
M  RAD  1   3   2
M  END
>  <reaction>  (13) 
rxn_1230

>  <mol_properties>  (13) 
{"1": {"label": "*0", "atom_type": "Ct"}, "2": {"label": "*1", "atom_type": "Cs"}, "4": {"label": "*2", "atom_type": "H0"}, "7": {"label": "*3", "atom_type": "Cd"}, "8": {"label": "*4", "atom_type": "Cd"}}

>  <type>  (13) 
unop_9

>  <geom_source>  (13) 
Heuristics

$$$$

     RDKit          3D

 12 10  0  0  0  0  0  0  0  0999 V2000
    0.1005   -1.1895   -2.2032 C   0  0  0  0  0  0  0  0  0  0  0  0
    0.1005   -1.1895   -1.0062 C   0  0  0  0  0  0  0  0  0  0  0  0
    0.1005   -1.1895    0.4492 C   0  0  0  0  0  3  0  0  0  0  0  0
    0.1005   -1.1895   -3.2665 H   0  0  0  0  0  0  0  0  0  0  0  0
    0.2120    0.0300    0.9116 H   0  0  0  0  0  0  0  0  0  0  0  0
    0.9342   -1.7781    0.8346 H   0  0  0  0  0  0  0  0  0  0  0  0
   -0.8261   -1.6172    0.8346 H   0  0  0  0  0  0  0  0  0  0  0  0
    0.3227    1.2415    1.3710 C   0  0  0  0  0  0  0  0  0  0  0  0
   -0.5707    2.1740    1.0895 C   0  0  0  0  0  0  0  0  0  0  0  0
    0.8503    1.2270    2.3174 H   0  0  0  0  0  0  0  0  0  0  0  0
   -0.8114    2.9616    1.7938 H   0  0  0  0  0  0  0  0  0  0  0  0
   -1.0983    2.1885    0.1431 H   0  0  0  0  0  0  0  0  0  0  0  0
  1  2  3  0
  1  4  1  0
  2  3  1  0
  3  6  1  0
  3  7  1  0
  5  8  1  0
  8  9  2  3
  8 10  1  0
  9 11  1  0
  9 12  1  0
M  RAD  1   3   2
M  END
>  <reaction>  (14) 
rxn_1230

>  <mol_properties>  (14) 
{"1": {"label": "*0", "atom_type": "Ct"}, "2": {"label": "*1", "atom_type": "Cs"}, "4": {"label": "*2", "atom_type": "H0"}, "7": {"label": "*3", "atom_type": "Cd"}, "8": {"label": "*4", "atom_type": "Cd"}}

>  <type>  (14) 
unop_10

>  <geom_source>  (14) 
Heuristics

$$$$

     RDKit          3D

 12 10  0  0  0  0  0  0  0  0999 V2000
   -0.2072   -1.0470   -2.5033 C   0  0  0  0  0  0  0  0  0  0  0  0
   -0.2072   -1.0470   -1.3063 C   0  0  0  0  0  0  0  0  0  0  0  0
   -0.2072   -1.0470    0.1492 C   0  0  0  0  0  3  0  0  0  0  0  0
   -0.2072   -1.0470   -3.5666 H   0  0  0  0  0  0  0  0  0  0  0  0
   -0.0957    0.1726    0.6116 H   0  0  0  0  0  0  0  0  0  0  0  0
    0.6265   -1.6356    0.5345 H   0  0  0  0  0  0  0  0  0  0  0  0
   -1.1338   -1.4747    0.5345 H   0  0  0  0  0  0  0  0  0  0  0  0
    0.0150    1.3840    1.0709 C   0  0  0  0  0  0  0  0  0  0  0  0
    0.6030    1.6359    2.2276 C   0  0  0  0  0  0  0  0  0  0  0  0
   -0.8582    1.9368    0.7450 H   0  0  0  0  0  0  0  0  0  0  0  0
    0.2355    2.4053    2.8964 H   0  0  0  0  0  0  0  0  0  0  0  0
    1.4762    1.0832    2.5535 H   0  0  0  0  0  0  0  0  0  0  0  0
  1  2  3  0
  1  4  1  0
  2  3  1  0
  3  6  1  0
  3  7  1  0
  5  8  1  0
  8  9  2  3
  8 10  1  0
  9 11  1  0
  9 12  1  0
M  RAD  1   3   2
M  END
>  <reaction>  (15) 
rxn_1230

>  <mol_properties>  (15) 
{"1": {"label": "*0", "atom_type": "Ct"}, "2": {"label": "*1", "atom_type": "Cs"}, "4": {"label": "*2", "atom_type": "H0"}, "7": {"label": "*3", "atom_type": "Cd"}, "8": {"label": "*4", "atom_type": "Cd"}}

>  <type>  (15) 
unop_11

>  <geom_source>  (15) 
Heuristics

$$$$

     RDKit          3D

 12 10  0  0  0  0  0  0  0  0999 V2000
   -0.1111   -1.2157   -2.0884 C   0  0  0  0  0  0  0  0  0  0  0  0
   -0.1111   -1.2157   -0.8913 C   0  0  0  0  0  0  0  0  0  0  0  0
   -0.1111   -1.2157    0.5641 C   0  0  0  0  0  3  0  0  0  0  0  0
   -0.1111   -1.2157   -3.1517 H   0  0  0  0  0  0  0  0  0  0  0  0
    0.0004    0.0039    1.0265 H   0  0  0  0  0  0  0  0  0  0  0  0
    0.7226   -1.8043    0.9494 H   0  0  0  0  0  0  0  0  0  0  0  0
   -1.0377   -1.6434    0.9494 H   0  0  0  0  0  0  0  0  0  0  0  0
    0.1111    1.2153    1.4858 C   0  0  0  0  0  0  0  0  0  0  0  0
    0.2063    2.2571    0.6780 C   0  0  0  0  0  0  0  0  0  0  0  0
    0.1214    1.3289    2.5635 H   0  0  0  0  0  0  0  0  0  0  0  0
    0.2985    3.2666    1.0608 H   0  0  0  0  0  0  0  0  0  0  0  0
    0.1959    2.1435   -0.3996 H   0  0  0  0  0  0  0  0  0  0  0  0
  1  2  3  0
  1  4  1  0
  2  3  1  0
  3  6  1  0
  3  7  1  0
  5  8  1  0
  8  9  2  3
  8 10  1  0
  9 11  1  0
  9 12  1  0
M  RAD  1   3   2
M  END
>  <reaction>  (16) 
rxn_1230

>  <mol_properties>  (16) 
{"1": {"label": "*0", "atom_type": "Ct"}, "2": {"label": "*1", "atom_type": "Cs"}, "4": {"label": "*2", "atom_type": "H0"}, "7": {"label": "*3", "atom_type": "Cd"}, "8": {"label": "*4", "atom_type": "Cd"}}

>  <type>  (16) 
unop_12

>  <geom_source>  (16) 
Heuristics

$$$$

     RDKit          3D

 12 10  0  0  0  0  0  0  0  0999 V2000
   -1.4832   -0.3351   -0.3482 C   0  0  0  0  0  0  0  0  0  0  0  0
   -2.3025    0.7111   -0.4150 C   0  0  0  0  0  0  0  0  0  0  0  0
    0.8049   -0.4965    0.8403 C   0  0  0  0  0  3  0  0  0  0  0  0
    1.9893   -0.0432    0.1108 C   0  0  0  0  0  0  0  0  0  0  0  0
    2.9650    0.3303   -0.4905 C   0  0  0  0  0  0  0  0  0  0  0  0
   -1.8543   -1.3346   -0.5503 H   0  0  0  0  0  0  0  0  0  0  0  0
   -0.2871   -0.1724   -0.0536 H   0  0  0  0  0  0  0  0  0  0  0  0
   -3.3476    0.5723   -0.6720 H   0  0  0  0  0  0  0  0  0  0  0  0
   -1.9283    1.7089   -0.2124 H   0  0  0  0  0  0  0  0  0  0  0  0
    0.7700   -0.0024    1.8331 H   0  0  0  0  0  0  0  0  0  0  0  0
    0.8521   -1.5966    0.9762 H   0  0  0  0  0  0  0  0  0  0  0  0
    3.8217    0.6582   -1.0184 H   0  0  0  0  0  0  0  0  0  0  0  0
  1  2  2  3
  1  6  1  0
  1  7  1  0
  2  8  1  0
  2  9  1  0
  3  4  1  0
  3 10  1  0
  3 11  1  0
  4  5  3  0
  5 12  1  0
M  RAD  1   3   2
M  END
>  <reaction>  (17) 
rxn_1230

>  <mol_properties>  (17) 
{"1": {"label": "*0", "atom_type": "Ct"}, "2": {"label": "*1", "atom_type": "Cs"}, "4": {"label": "*2", "atom_type": "H0"}, "7": {"label": "*3", "atom_type": "Cd"}, "8": {"label": "*4", "atom_type": "Cd"}}

>  <type>  (17) 
unop_13

>  <geom_source>  (17) 
AutoTST

$$$$
