
     RDKit          3D

  9  8  0  0  0  0  0  0  0  0999 V2000
   -0.8818   -0.3578    0.1297 C   0  0  0  0  0  0  0  0  0  0  0  0
    0.6153   -0.3021   -0.1188 C   0  0  0  0  0  0  0  0  0  0  0  0
    1.5354   -1.7170    0.5545 S   0  0  0  0  0  0  0  0  0  0  0  0
   -1.1018   -0.3317    1.1984 H   0  0  0  0  0  0  0  0  0  0  0  0
   -1.3114   -1.2723   -0.2799 H   0  0  0  0  0  0  0  0  0  0  0  0
   -1.3767    0.4976   -0.3363 H   0  0  0  0  0  0  0  0  0  0  0  0
    1.0467    0.6194    0.2718 H   0  0  0  0  0  0  0  0  0  0  0  0
    0.8295   -0.3275   -1.1882 H   0  0  0  0  0  0  0  0  0  0  0  0
    1.2306   -1.5077    1.8423 H   0  0  0  0  0  0  0  0  0  0  0  0
  1  2  1  0
  1  4  1  0
  1  5  1  0
  1  6  1  0
  2  3  1  0
  2  7  1  0
  2  8  1  0
  3  9  1  0
M  END
>  <reaction>  (1) 
rxn_1866

>  <mol_properties>  (1) 
{"1": {"label": "donator", "atom_type": "Cs"}, "6": {"label": "d_hydrogen", "atom_type": "H0"}}

>  <type>  (1) 
r1h

$$$$

     RDKit          3D

 10  9  0  0  0  0  0  0  0  0999 V2000
    1.2930    0.1441    0.3288 C   0  0  0  0  0  0  0  0  0  0  0  0
   -0.0374   -0.1647    0.9100 C   0  0  0  0  0  3  0  0  0  0  0  0
   -1.2664    0.4569    0.3567 C   0  0  0  0  0  0  0  0  0  0  0  0
    1.4384    1.2242    0.2174 H   0  0  0  0  0  0  0  0  0  0  0  0
    2.1077   -0.2477    0.9385 H   0  0  0  0  0  0  0  0  0  0  0  0
    1.4057   -0.2836   -0.6789 H   0  0  0  0  0  0  0  0  0  0  0  0
   -0.1309   -0.9912    1.6030 H   0  0  0  0  0  0  0  0  0  0  0  0
   -1.5005    0.0716   -0.6471 H   0  0  0  0  0  0  0  0  0  0  0  0
   -2.1382    0.2713    0.9849 H   0  0  0  0  0  0  0  0  0  0  0  0
   -1.1497    1.5406    0.2456 H   0  0  0  0  0  0  0  0  0  0  0  0
  1  2  1  0
  1  4  1  0
  1  5  1  0
  1  6  1  0
  2  3  1  0
  2  7  1  0
  3  8  1  0
  3  9  1  0
  3 10  1  0
M  RAD  1   2   2
M  END
>  <reaction>  (2) 
rxn_1866

>  <mol_properties>  (2) 
{"1": {"label": "acceptor", "atom_type": "Cs"}}

>  <type>  (2) 
r2

$$$$

     RDKit          3D

 11 10  0  0  0  0  0  0  0  0999 V2000
   -1.2710    0.1907   -0.2084 C   0  0  0  0  0  0  0  0  0  0  0  0
    0.0202   -0.6130   -0.2928 C   0  0  0  0  0  0  0  0  0  0  0  0
    0.1086   -1.6953    0.7756 C   0  0  0  0  0  0  0  0  0  0  0  0
   -1.3607    0.6851    0.7620 H   0  0  0  0  0  0  0  0  0  0  0  0
   -2.1429   -0.4567   -0.3299 H   0  0  0  0  0  0  0  0  0  0  0  0
   -1.3158    0.9602   -0.9809 H   0  0  0  0  0  0  0  0  0  0  0  0
    0.8757    0.0616   -0.1992 H   0  0  0  0  0  0  0  0  0  0  0  0
    0.0997   -1.0712   -1.2825 H   0  0  0  0  0  0  0  0  0  0  0  0
   -0.7198   -2.4022    0.6850 H   0  0  0  0  0  0  0  0  0  0  0  0
    1.0395   -2.2596    0.6989 H   0  0  0  0  0  0  0  0  0  0  0  0
    0.0624   -1.2603    1.7770 H   0  0  0  0  0  0  0  0  0  0  0  0
  1  2  1  0
  1  4  1  0
  1  5  1  0
  1  6  1  0
  2  3  1  0
  2  7  1  0
  2  8  1  0
  3  9  1  0
  3 10  1  0
  3 11  1  0
M  END
>  <reaction>  (3) 
rxn_1866

>  <mol_properties>  (3) 
{"0": {"label": "a_hydrogen", "atom_type": "H0"}, "2": {"label": "acceptor", "atom_type": "Cs"}}

>  <type>  (3) 
r2h

$$$$

     RDKit          3D

 19 17  0  0  0  0  0  0  0  0999 V2000
   -1.3011   -0.1918   -1.4195 C   0  0  0  0  0  0  0  0  0  0  0  0
   -0.7077    0.6056   -0.2861 C   0  0  0  0  0  0  0  0  0  0  0  0
    0.1252    2.1226   -0.7132 S   0  0  0  0  0  0  0  0  0  0  0  0
   -0.5258   -0.4996   -2.1255 H   0  0  0  0  0  0  0  0  0  0  0  0
   -2.0459    0.3849   -1.9740 H   0  0  0  0  0  0  0  0  0  0  0  0
   -1.7816   -1.0943   -1.0358 H   0  0  0  0  0  0  0  0  0  0  0  0
    0.1708   -0.1943    0.3147 H   0  0  0  0  0  0  0  0  0  0  0  0
   -1.4188    0.8396    0.5055 H   0  0  0  0  0  0  0  0  0  0  0  0
    0.9475    1.6005   -1.6347 H   0  0  0  0  0  0  0  0  0  0  0  0
    2.2393   -1.0065   -0.1408 C   0  0  0  0  0  0  0  0  0  0  0  0
    1.0780   -1.0762    0.8139 C   0  0  0  0  0  3  0  0  0  0  0  0
    0.3686   -2.4012    0.9006 C   0  0  0  0  0  0  0  0  0  0  0  0
    1.9360   -1.3051   -1.1486 H   0  0  0  0  0  0  0  0  0  0  0  0
    2.6506    0.0029   -0.1935 H   0  0  0  0  0  0  0  0  0  0  0  0
    3.0495   -1.6795    0.1633 H   0  0  0  0  0  0  0  0  0  0  0  0
    1.2946   -0.6356    1.7875 H   0  0  0  0  0  0  0  0  0  0  0  0
    1.0203   -3.1765    1.3197 H   0  0  0  0  0  0  0  0  0  0  0  0
   -0.5191   -2.3419    1.5333 H   0  0  0  0  0  0  0  0  0  0  0  0
    0.0560   -2.7437   -0.0896 H   0  0  0  0  0  0  0  0  0  0  0  0
  1  2  1  0
  1  4  1  0
  1  5  1  0
  1  6  1  0
  2  3  1  0
  2  7  1  0
  2  8  1  0
  3  9  1  0
 10 11  1  0
 10 13  1  0
 10 14  1  0
 10 15  1  0
 11 12  1  0
 11 16  1  0
 12 17  1  0
 12 18  1  0
 12 19  1  0
M  RAD  1  11   2
M  END
>  <reaction>  (4) 
rxn_1866

>  <mol_properties>  (4) 
{"1": {"label": "*1", "atom_type": "Cs"}, "2": {"label": "*0", "atom_type": "S2s"}, "6": {"label": "*2", "atom_type": "H0"}, "9": {"label": "*4", "atom_type": "Cs"}, "10": {"label": "*3", "atom_type": "Cs"}}

>  <type>  (4) 
ts

$$$$

     RDKit          3D

 19 17  0  0  0  0  0  0  0  0999 V2000
   -1.0761    0.0988   -1.9829 C   0  0  0  0  0  0  0  0  0  0  0  0
   -1.0761    0.0988   -0.4642 C   0  0  0  0  0  0  0  0  0  0  0  0
   -1.0761    1.7561    0.2808 S   0  0  0  0  0  0  0  0  0  0  0  0
   -0.1694    0.5642   -2.3736 H   0  0  0  0  0  0  0  0  0  0  0  0
   -1.9320    0.6500   -2.3730 H   0  0  0  0  0  0  0  0  0  0  0  0
   -1.1191   -0.9246   -2.3632 H   0  0  0  0  0  0  0  0  0  0  0  0
   -0.0642   -0.5806    0.0099 H   0  0  0  0  0  0  0  0  0  0  0  0
   -1.9837   -0.3683   -0.0791 H   0  0  0  0  0  0  0  0  0  0  0  0
    0.0987    2.1578   -0.2227 H   0  0  0  0  0  0  0  0  0  0  0  0
    1.8208   -0.3476    1.3389 C   0  0  0  0  0  0  0  0  0  0  0  0
    0.9512   -1.2622    0.4857 C   0  0  0  0  0  3  0  0  0  0  0  0
    1.6864   -2.5180    0.0350 C   0  0  0  0  0  0  0  0  0  0  0  0
    2.7065   -0.0242    0.7868 H   0  0  0  0  0  0  0  0  0  0  0  0
    1.2772    0.5455    1.6517 H   0  0  0  0  0  0  0  0  0  0  0  0
    2.1639   -0.8631    2.2392 H   0  0  0  0  0  0  0  0  0  0  0  0
    0.0583   -1.5458    1.0497 H   0  0  0  0  0  0  0  0  0  0  0  0
    2.0252   -3.1019    0.8942 H   0  0  0  0  0  0  0  0  0  0  0  0
    1.0478   -3.1598   -0.5743 H   0  0  0  0  0  0  0  0  0  0  0  0
    2.5679   -2.2629   -0.5582 H   0  0  0  0  0  0  0  0  0  0  0  0
  1  2  1  0
  1  4  1  0
  1  5  1  0
  1  6  1  0
  2  3  1  0
  2  7  1  0
  2  8  1  0
  3  9  1  0
 10 11  1  0
 10 13  1  0
 10 14  1  0
 10 15  1  0
 11 12  1  0
 11 16  1  0
 12 17  1  0
 12 18  1  0
 12 19  1  0
M  RAD  1  11   2
M  END
>  <reaction>  (5) 
rxn_1866

>  <mol_properties>  (5) 
{"1": {"label": "*1", "atom_type": "Cs"}, "2": {"label": "*0", "atom_type": "S2s"}, "6": {"label": "*2", "atom_type": "H0"}, "9": {"label": "*4", "atom_type": "Cs"}, "10": {"label": "*3", "atom_type": "Cs"}}

>  <type>  (5) 
unop_1

>  <geom_source>  (5) 
Heuristics

$$$$

     RDKit          3D

 19 17  0  0  0  0  0  0  0  0999 V2000
   -0.9967    0.2339   -1.8702 C   0  0  0  0  0  0  0  0  0  0  0  0
   -0.9967    0.2339   -0.3515 C   0  0  0  0  0  0  0  0  0  0  0  0
   -0.9967    1.8912    0.3935 S   0  0  0  0  0  0  0  0  0  0  0  0
   -0.0901    0.6993   -2.2609 H   0  0  0  0  0  0  0  0  0  0  0  0
   -1.8527    0.7851   -2.2603 H   0  0  0  0  0  0  0  0  0  0  0  0
   -1.0398   -0.7895   -2.2504 H   0  0  0  0  0  0  0  0  0  0  0  0
    0.0152   -0.4455    0.1226 H   0  0  0  0  0  0  0  0  0  0  0  0
   -1.9043   -0.2332    0.0336 H   0  0  0  0  0  0  0  0  0  0  0  0
    0.1781    2.2929   -0.1100 H   0  0  0  0  0  0  0  0  0  0  0  0
    2.1977   -1.0456   -0.3771 C   0  0  0  0  0  0  0  0  0  0  0  0
    1.0306   -1.1271    0.5984 C   0  0  0  0  0  3  0  0  0  0  0  0
    0.8753   -2.5123    1.2131 C   0  0  0  0  0  0  0  0  0  0  0  0
    2.0691   -1.7529   -1.2001 H   0  0  0  0  0  0  0  0  0  0  0  0
    2.2926   -0.0468   -0.8066 H   0  0  0  0  0  0  0  0  0  0  0  0
    3.1402   -1.2869    0.1203 H   0  0  0  0  0  0  0  0  0  0  0  0
    1.1686   -0.3893    1.3936 H   0  0  0  0  0  0  0  0  0  0  0  0
    1.7762   -2.7998    1.7607 H   0  0  0  0  0  0  0  0  0  0  0  0
    0.0350   -2.5507    1.9083 H   0  0  0  0  0  0  0  0  0  0  0  0
    0.7051   -3.2658    0.4403 H   0  0  0  0  0  0  0  0  0  0  0  0
  1  2  1  0
  1  4  1  0
  1  5  1  0
  1  6  1  0
  2  3  1  0
  2  7  1  0
  2  8  1  0
  3  9  1  0
 10 11  1  0
 10 13  1  0
 10 14  1  0
 10 15  1  0
 11 12  1  0
 11 16  1  0
 12 17  1  0
 12 18  1  0
 12 19  1  0
M  RAD  1  11   2
M  END
>  <reaction>  (6) 
rxn_1866

>  <mol_properties>  (6) 
{"1": {"label": "*1", "atom_type": "Cs"}, "2": {"label": "*0", "atom_type": "S2s"}, "6": {"label": "*2", "atom_type": "H0"}, "9": {"label": "*4", "atom_type": "Cs"}, "10": {"label": "*3", "atom_type": "Cs"}}

>  <type>  (6) 
unop_2

>  <geom_source>  (6) 
Heuristics

$$$$

     RDKit          3D

 19 17  0  0  0  0  0  0  0  0999 V2000
   -1.0741    0.0575   -2.0064 C   0  0  0  0  0  0  0  0  0  0  0  0
   -1.0741    0.0575   -0.4878 C   0  0  0  0  0  0  0  0  0  0  0  0
   -1.0741    1.7149    0.2572 S   0  0  0  0  0  0  0  0  0  0  0  0
   -0.1675    0.5229   -2.3972 H   0  0  0  0  0  0  0  0  0  0  0  0
   -1.9301    0.6087   -2.3965 H   0  0  0  0  0  0  0  0  0  0  0  0
   -1.1172   -0.9659   -2.3867 H   0  0  0  0  0  0  0  0  0  0  0  0
   -0.0622   -0.6218   -0.0136 H   0  0  0  0  0  0  0  0  0  0  0  0
   -1.9817   -0.4095   -0.1026 H   0  0  0  0  0  0  0  0  0  0  0  0
    0.1007    2.1165   -0.2463 H   0  0  0  0  0  0  0  0  0  0  0  0
    1.3714   -0.7192    1.8053 C   0  0  0  0  0  0  0  0  0  0  0  0
    0.9532   -1.3035    0.4621 C   0  0  0  0  0  3  0  0  0  0  0  0
    2.1192   -1.9248   -0.2961 C   0  0  0  0  0  0  0  0  0  0  0  0
    2.1253    0.0609    1.6743 H   0  0  0  0  0  0  0  0  0  0  0  0
    0.5234   -0.2792    2.3329 H   0  0  0  0  0  0  0  0  0  0  0  0
    1.8030   -1.4895    2.4491 H   0  0  0  0  0  0  0  0  0  0  0  0
    0.1776   -2.0582    0.6191 H   0  0  0  0  0  0  0  0  0  0  0  0
    2.5743   -2.7331    0.2814 H   0  0  0  0  0  0  0  0  0  0  0  0
    1.8001   -2.3375   -1.2546 H   0  0  0  0  0  0  0  0  0  0  0  0
    2.8967   -1.1828   -0.4933 H   0  0  0  0  0  0  0  0  0  0  0  0
  1  2  1  0
  1  4  1  0
  1  5  1  0
  1  6  1  0
  2  3  1  0
  2  7  1  0
  2  8  1  0
  3  9  1  0
 10 11  1  0
 10 13  1  0
 10 14  1  0
 10 15  1  0
 11 12  1  0
 11 16  1  0
 12 17  1  0
 12 18  1  0
 12 19  1  0
M  RAD  1  11   2
M  END
>  <reaction>  (7) 
rxn_1866

>  <mol_properties>  (7) 
{"1": {"label": "*1", "atom_type": "Cs"}, "2": {"label": "*0", "atom_type": "S2s"}, "6": {"label": "*2", "atom_type": "H0"}, "9": {"label": "*4", "atom_type": "Cs"}, "10": {"label": "*3", "atom_type": "Cs"}}

>  <type>  (7) 
unop_3

>  <geom_source>  (7) 
Heuristics

$$$$

     RDKit          3D

 19 17  0  0  0  0  0  0  0  0999 V2000
   -0.7321    0.2264   -2.0443 C   0  0  0  0  0  0  0  0  0  0  0  0
   -0.7321    0.2264   -0.5257 C   0  0  0  0  0  0  0  0  0  0  0  0
   -0.7321    1.8838    0.2193 S   0  0  0  0  0  0  0  0  0  0  0  0
    0.1745    0.6919   -2.4351 H   0  0  0  0  0  0  0  0  0  0  0  0
   -1.5881    0.7776   -2.4344 H   0  0  0  0  0  0  0  0  0  0  0  0
   -0.7752   -0.7969   -2.4246 H   0  0  0  0  0  0  0  0  0  0  0  0
    0.2798   -0.4529   -0.0515 H   0  0  0  0  0  0  0  0  0  0  0  0
   -1.6397   -0.2406   -0.1405 H   0  0  0  0  0  0  0  0  0  0  0  0
    0.4427    2.2855   -0.2842 H   0  0  0  0  0  0  0  0  0  0  0  0
    1.2103   -2.5760   -0.0613 C   0  0  0  0  0  0  0  0  0  0  0  0
    1.2952   -1.1346    0.4242 C   0  0  0  0  0  3  0  0  0  0  0  0
    0.5763   -0.9187    1.7498 C   0  0  0  0  0  0  0  0  0  0  0  0
    0.1703   -2.8797   -0.2033 H   0  0  0  0  0  0  0  0  0  0  0  0
    1.7306   -2.7106   -1.0111 H   0  0  0  0  0  0  0  0  0  0  0  0
    1.6569   -3.2597    0.6647 H   0  0  0  0  0  0  0  0  0  0  0  0
    2.3450   -0.8468    0.5284 H   0  0  0  0  0  0  0  0  0  0  0  0
    1.0029   -1.5502    2.5329 H   0  0  0  0  0  0  0  0  0  0  0  0
    0.6481    0.1187    2.0808 H   0  0  0  0  0  0  0  0  0  0  0  0
   -0.4837   -1.1702    1.6648 H   0  0  0  0  0  0  0  0  0  0  0  0
  1  2  1  0
  1  4  1  0
  1  5  1  0
  1  6  1  0
  2  3  1  0
  2  7  1  0
  2  8  1  0
  3  9  1  0
 10 11  1  0
 10 13  1  0
 10 14  1  0
 10 15  1  0
 11 12  1  0
 11 16  1  0
 12 17  1  0
 12 18  1  0
 12 19  1  0
M  RAD  1  11   2
M  END
>  <reaction>  (8) 
rxn_1866

>  <mol_properties>  (8) 
{"1": {"label": "*1", "atom_type": "Cs"}, "2": {"label": "*0", "atom_type": "S2s"}, "6": {"label": "*2", "atom_type": "H0"}, "9": {"label": "*4", "atom_type": "Cs"}, "10": {"label": "*3", "atom_type": "Cs"}}

>  <type>  (8) 
unop_4

>  <geom_source>  (8) 
Heuristics

$$$$

     RDKit          3D

 19 17  0  0  0  0  0  0  0  0999 V2000
   -1.0312   -0.0345   -2.0580 C   0  0  0  0  0  0  0  0  0  0  0  0
   -1.0312   -0.0345   -0.5393 C   0  0  0  0  0  0  0  0  0  0  0  0
   -1.0312    1.6229    0.2057 S   0  0  0  0  0  0  0  0  0  0  0  0
   -0.1245    0.4309   -2.4487 H   0  0  0  0  0  0  0  0  0  0  0  0
   -1.8871    0.5167   -2.4481 H   0  0  0  0  0  0  0  0  0  0  0  0
   -1.0742   -1.0579   -2.4383 H   0  0  0  0  0  0  0  0  0  0  0  0
   -0.0193   -0.7138   -0.0652 H   0  0  0  0  0  0  0  0  0  0  0  0
   -1.9388   -0.5015   -0.1542 H   0  0  0  0  0  0  0  0  0  0  0  0
    0.1436    2.0245   -0.2979 H   0  0  0  0  0  0  0  0  0  0  0  0
    0.9561   -1.3686    1.9331 C   0  0  0  0  0  0  0  0  0  0  0  0
    0.9961   -1.3955    0.4106 C   0  0  0  0  0  3  0  0  0  0  0  0
    2.2942   -0.8309   -0.1523 C   0  0  0  0  0  0  0  0  0  0  0  0
    1.0550   -0.3472    2.3085 H   0  0  0  0  0  0  0  0  0  0  0  0
    0.0195   -1.7766    2.3171 H   0  0  0  0  0  0  0  0  0  0  0  0
    1.7751   -1.9556    2.3558 H   0  0  0  0  0  0  0  0  0  0  0  0
    0.8644   -2.4233    0.0610 H   0  0  0  0  0  0  0  0  0  0  0  0
    3.1553   -1.4010    0.2047 H   0  0  0  0  0  0  0  0  0  0  0  0
    2.3040   -0.8586   -1.2432 H   0  0  0  0  0  0  0  0  0  0  0  0
    2.4353    0.2074    0.1574 H   0  0  0  0  0  0  0  0  0  0  0  0
  1  2  1  0
  1  4  1  0
  1  5  1  0
  1  6  1  0
  2  3  1  0
  2  7  1  0
  2  8  1  0
  3  9  1  0
 10 11  1  0
 10 13  1  0
 10 14  1  0
 10 15  1  0
 11 12  1  0
 11 16  1  0
 12 17  1  0
 12 18  1  0
 12 19  1  0
M  RAD  1  11   2
M  END
>  <reaction>  (9) 
rxn_1866

>  <mol_properties>  (9) 
{"1": {"label": "*1", "atom_type": "Cs"}, "2": {"label": "*0", "atom_type": "S2s"}, "6": {"label": "*2", "atom_type": "H0"}, "9": {"label": "*4", "atom_type": "Cs"}, "10": {"label": "*3", "atom_type": "Cs"}}

>  <type>  (9) 
unop_5

>  <geom_source>  (9) 
Heuristics

$$$$

     RDKit          3D

 19 17  0  0  0  0  0  0  0  0999 V2000
   -0.7290    0.1310   -2.1197 C   0  0  0  0  0  0  0  0  0  0  0  0
   -0.7290    0.1310   -0.6010 C   0  0  0  0  0  0  0  0  0  0  0  0
   -0.7290    1.7883    0.1440 S   0  0  0  0  0  0  0  0  0  0  0  0
    0.1777    0.5964   -2.5104 H   0  0  0  0  0  0  0  0  0  0  0  0
   -1.5849    0.6822   -2.5098 H   0  0  0  0  0  0  0  0  0  0  0  0
   -0.7720   -0.8924   -2.4999 H   0  0  0  0  0  0  0  0  0  0  0  0
    0.2830   -0.5484   -0.1269 H   0  0  0  0  0  0  0  0  0  0  0  0
   -1.6366   -0.3361   -0.2159 H   0  0  0  0  0  0  0  0  0  0  0  0
    0.4458    2.1900   -0.3595 H   0  0  0  0  0  0  0  0  0  0  0  0
    0.8900   -2.6861    0.5327 C   0  0  0  0  0  0  0  0  0  0  0  0
    1.2983   -1.2300    0.3489 C   0  0  0  0  0  3  0  0  0  0  0  0
    0.8799   -0.3509    1.5205 C   0  0  0  0  0  0  0  0  0  0  0  0
   -0.1940   -2.7778    0.6358 H   0  0  0  0  0  0  0  0  0  0  0  0
    1.1981   -3.2993   -0.3158 H   0  0  0  0  0  0  0  0  0  0  0  0
    1.3434   -3.1082    1.4329 H   0  0  0  0  0  0  0  0  0  0  0  0
    2.3823   -1.1698    0.2175 H   0  0  0  0  0  0  0  0  0  0  0  0
    1.3329   -0.6995    2.4518 H   0  0  0  0  0  0  0  0  0  0  0  0
    1.1808    0.6873    1.3705 H   0  0  0  0  0  0  0  0  0  0  0  0
   -0.2044   -0.3690    1.6547 H   0  0  0  0  0  0  0  0  0  0  0  0
  1  2  1  0
  1  4  1  0
  1  5  1  0
  1  6  1  0
  2  3  1  0
  2  7  1  0
  2  8  1  0
  3  9  1  0
 10 11  1  0
 10 13  1  0
 10 14  1  0
 10 15  1  0
 11 12  1  0
 11 16  1  0
 12 17  1  0
 12 18  1  0
 12 19  1  0
M  RAD  1  11   2
M  END
>  <reaction>  (10) 
rxn_1866

>  <mol_properties>  (10) 
{"1": {"label": "*1", "atom_type": "Cs"}, "2": {"label": "*0", "atom_type": "S2s"}, "6": {"label": "*2", "atom_type": "H0"}, "9": {"label": "*4", "atom_type": "Cs"}, "10": {"label": "*3", "atom_type": "Cs"}}

>  <type>  (10) 
unop_6

>  <geom_source>  (10) 
Heuristics

$$$$

     RDKit          3D

 19 17  0  0  0  0  0  0  0  0999 V2000
   -0.7843    0.0223   -2.1569 C   0  0  0  0  0  0  0  0  0  0  0  0
   -0.7843    0.0223   -0.6383 C   0  0  0  0  0  0  0  0  0  0  0  0
   -0.7843    1.6797    0.1067 S   0  0  0  0  0  0  0  0  0  0  0  0
    0.1223    0.4878   -2.5477 H   0  0  0  0  0  0  0  0  0  0  0  0
   -1.6403    0.5736   -2.5470 H   0  0  0  0  0  0  0  0  0  0  0  0
   -0.8274   -1.0010   -2.5372 H   0  0  0  0  0  0  0  0  0  0  0  0
    0.2276   -0.6570   -0.1641 H   0  0  0  0  0  0  0  0  0  0  0  0
   -1.6919   -0.4447   -0.2531 H   0  0  0  0  0  0  0  0  0  0  0  0
    0.3905    2.0814   -0.3968 H   0  0  0  0  0  0  0  0  0  0  0  0
    0.7257   -2.4898    1.1648 C   0  0  0  0  0  0  0  0  0  0  0  0
    1.2429   -1.3387    0.3116 C   0  0  0  0  0  3  0  0  0  0  0  0
    1.3069   -0.0234    1.0774 C   0  0  0  0  0  0  0  0  0  0  0  0
   -0.2811   -2.2805    1.5343 H   0  0  0  0  0  0  0  0  0  0  0  0
    0.6871   -3.4224    0.5994 H   0  0  0  0  0  0  0  0  0  0  0  0
    1.3684   -2.6515    2.0336 H   0  0  0  0  0  0  0  0  0  0  0  0
    2.2373   -1.5865   -0.0699 H   0  0  0  0  0  0  0  0  0  0  0  0
    1.9679   -0.1074    1.9435 H   0  0  0  0  0  0  0  0  0  0  0  0
    1.6794    0.7883    0.4502 H   0  0  0  0  0  0  0  0  0  0  0  0
    0.3184    0.2637    1.4441 H   0  0  0  0  0  0  0  0  0  0  0  0
  1  2  1  0
  1  4  1  0
  1  5  1  0
  1  6  1  0
  2  3  1  0
  2  7  1  0
  2  8  1  0
  3  9  1  0
 10 11  1  0
 10 13  1  0
 10 14  1  0
 10 15  1  0
 11 12  1  0
 11 16  1  0
 12 17  1  0
 12 18  1  0
 12 19  1  0
M  RAD  1  11   2
M  END
>  <reaction>  (11) 
rxn_1866

>  <mol_properties>  (11) 
{"1": {"label": "*1", "atom_type": "Cs"}, "2": {"label": "*0", "atom_type": "S2s"}, "6": {"label": "*2", "atom_type": "H0"}, "9": {"label": "*4", "atom_type": "Cs"}, "10": {"label": "*3", "atom_type": "Cs"}}

>  <type>  (11) 
unop_7

>  <geom_source>  (11) 
Heuristics

$$$$

     RDKit          3D

 19 17  0  0  0  0  0  0  0  0999 V2000
   -1.0763    0.1244   -1.9456 C   0  0  0  0  0  0  0  0  0  0  0  0
   -1.0763    0.1244   -0.4270 C   0  0  0  0  0  0  0  0  0  0  0  0
   -1.0763    1.7818    0.3180 S   0  0  0  0  0  0  0  0  0  0  0  0
   -0.1696    0.5898   -2.3364 H   0  0  0  0  0  0  0  0  0  0  0  0
   -1.9322    0.6756   -2.3357 H   0  0  0  0  0  0  0  0  0  0  0  0
   -1.1193   -0.8990   -2.3259 H   0  0  0  0  0  0  0  0  0  0  0  0
   -0.0644   -0.5549    0.0472 H   0  0  0  0  0  0  0  0  0  0  0  0
   -1.9839   -0.3426   -0.0418 H   0  0  0  0  0  0  0  0  0  0  0  0
    0.0985    2.1834   -0.1855 H   0  0  0  0  0  0  0  0  0  0  0  0
    2.1440   -0.3074    0.7067 C   0  0  0  0  0  0  0  0  0  0  0  0
    0.9510   -1.2366    0.5229 C   0  0  0  0  0  3  0  0  0  0  0  0
    1.3527   -2.7053    0.4785 C   0  0  0  0  0  0  0  0  0  0  0  0
    2.8591   -0.4232   -0.1113 H   0  0  0  0  0  0  0  0  0  0  0  0
    1.8365    0.7393    0.7361 H   0  0  0  0  0  0  0  0  0  0  0  0
    2.6708   -0.5277    1.6384 H   0  0  0  0  0  0  0  0  0  0  0  0
    0.2378   -1.0787    1.3367 H   0  0  0  0  0  0  0  0  0  0  0  0
    1.8545   -3.0012    1.4029 H   0  0  0  0  0  0  0  0  0  0  0  0
    0.4855   -3.3546    0.3464 H   0  0  0  0  0  0  0  0  0  0  0  0
    2.0428   -2.8968   -0.3468 H   0  0  0  0  0  0  0  0  0  0  0  0
  1  2  1  0
  1  4  1  0
  1  5  1  0
  1  6  1  0
  2  3  1  0
  2  7  1  0
  2  8  1  0
  3  9  1  0
 10 11  1  0
 10 13  1  0
 10 14  1  0
 10 15  1  0
 11 12  1  0
 11 16  1  0
 12 17  1  0
 12 18  1  0
 12 19  1  0
M  RAD  1  11   2
M  END
>  <reaction>  (12) 
rxn_1866

>  <mol_properties>  (12) 
{"1": {"label": "*1", "atom_type": "Cs"}, "2": {"label": "*0", "atom_type": "S2s"}, "6": {"label": "*2", "atom_type": "H0"}, "9": {"label": "*4", "atom_type": "Cs"}, "10": {"label": "*3", "atom_type": "Cs"}}

>  <type>  (12) 
unop_8

>  <geom_source>  (12) 
Heuristics

$$$$

     RDKit          3D

 19 17  0  0  0  0  0  0  0  0999 V2000
   -0.7928    0.2845   -1.9564 C   0  0  0  0  0  0  0  0  0  0  0  0
   -0.7928    0.2845   -0.4377 C   0  0  0  0  0  0  0  0  0  0  0  0
   -0.7928    1.9418    0.3073 S   0  0  0  0  0  0  0  0  0  0  0  0
    0.1138    0.7499   -2.3471 H   0  0  0  0  0  0  0  0  0  0  0  0
   -1.6488    0.8357   -2.3465 H   0  0  0  0  0  0  0  0  0  0  0  0
   -0.8359   -0.7389   -2.3367 H   0  0  0  0  0  0  0  0  0  0  0  0
    0.2191   -0.3949    0.0364 H   0  0  0  0  0  0  0  0  0  0  0  0
   -1.7004   -0.1826   -0.0526 H   0  0  0  0  0  0  0  0  0  0  0  0
    0.3820    2.3435   -0.1963 H   0  0  0  0  0  0  0  0  0  0  0  0
    1.6009   -2.1876   -0.4634 C   0  0  0  0  0  0  0  0  0  0  0  0
    1.2345   -1.0765    0.5122 C   0  0  0  0  0  3  0  0  0  0  0  0
    0.4765   -1.5908    1.7294 C   0  0  0  0  0  0  0  0  0  0  0  0
    0.7061   -2.6965   -0.8299 H   0  0  0  0  0  0  0  0  0  0  0  0
    2.1427   -1.8000   -1.3278 H   0  0  0  0  0  0  0  0  0  0  0  0
    2.2325   -2.9379    0.0185 H   0  0  0  0  0  0  0  0  0  0  0  0
    2.1438   -0.5646    0.8391 H   0  0  0  0  0  0  0  0  0  0  0  0
    1.0727   -2.3223    2.2804 H   0  0  0  0  0  0  0  0  0  0  0  0
    0.2231   -0.7811    2.4158 H   0  0  0  0  0  0  0  0  0  0  0  0
   -0.4537   -2.0809    1.4320 H   0  0  0  0  0  0  0  0  0  0  0  0
  1  2  1  0
  1  4  1  0
  1  5  1  0
  1  6  1  0
  2  3  1  0
  2  7  1  0
  2  8  1  0
  3  9  1  0
 10 11  1  0
 10 13  1  0
 10 14  1  0
 10 15  1  0
 11 12  1  0
 11 16  1  0
 12 17  1  0
 12 18  1  0
 12 19  1  0
M  RAD  1  11   2
M  END
>  <reaction>  (13) 
rxn_1866

>  <mol_properties>  (13) 
{"1": {"label": "*1", "atom_type": "Cs"}, "2": {"label": "*0", "atom_type": "S2s"}, "6": {"label": "*2", "atom_type": "H0"}, "9": {"label": "*4", "atom_type": "Cs"}, "10": {"label": "*3", "atom_type": "Cs"}}

>  <type>  (13) 
unop_9

>  <geom_source>  (13) 
Heuristics

$$$$

     RDKit          3D

 19 17  0  0  0  0  0  0  0  0999 V2000
   -1.0570    0.1692   -1.8990 C   0  0  0  0  0  0  0  0  0  0  0  0
   -1.0570    0.1692   -0.3803 C   0  0  0  0  0  0  0  0  0  0  0  0
   -1.0570    1.8265    0.3647 S   0  0  0  0  0  0  0  0  0  0  0  0
   -0.1503    0.6346   -2.2897 H   0  0  0  0  0  0  0  0  0  0  0  0
   -1.9129    0.7204   -2.2891 H   0  0  0  0  0  0  0  0  0  0  0  0
   -1.1000   -0.8542   -2.2793 H   0  0  0  0  0  0  0  0  0  0  0  0
   -0.0451   -0.5102    0.0938 H   0  0  0  0  0  0  0  0  0  0  0  0
   -1.9646   -0.2979    0.0048 H   0  0  0  0  0  0  0  0  0  0  0  0
    0.1178    2.2282   -0.1389 H   0  0  0  0  0  0  0  0  0  0  0  0
    2.2723   -0.5675    0.0841 C   0  0  0  0  0  0  0  0  0  0  0  0
    0.9703   -1.1918    0.5696 C   0  0  0  0  0  3  0  0  0  0  0  0
    1.1113   -2.6766    0.8794 C   0  0  0  0  0  0  0  0  0  0  0  0
    2.6240   -1.0568   -0.8275 H   0  0  0  0  0  0  0  0  0  0  0  0
    2.1513    0.4952   -0.1325 H   0  0  0  0  0  0  0  0  0  0  0  0
    3.0583   -0.6684    0.8364 H   0  0  0  0  0  0  0  0  0  0  0  0
    0.6249   -0.6647    1.4633 H   0  0  0  0  0  0  0  0  0  0  0  0
    1.8608   -2.8440    1.6568 H   0  0  0  0  0  0  0  0  0  0  0  0
    0.1694   -3.1055    1.2253 H   0  0  0  0  0  0  0  0  0  0  0  0
    1.4265   -3.2324   -0.0071 H   0  0  0  0  0  0  0  0  0  0  0  0
  1  2  1  0
  1  4  1  0
  1  5  1  0
  1  6  1  0
  2  3  1  0
  2  7  1  0
  2  8  1  0
  3  9  1  0
 10 11  1  0
 10 13  1  0
 10 14  1  0
 10 15  1  0
 11 12  1  0
 11 16  1  0
 12 17  1  0
 12 18  1  0
 12 19  1  0
M  RAD  1  11   2
M  END
>  <reaction>  (14) 
rxn_1866

>  <mol_properties>  (14) 
{"1": {"label": "*1", "atom_type": "Cs"}, "2": {"label": "*0", "atom_type": "S2s"}, "6": {"label": "*2", "atom_type": "H0"}, "9": {"label": "*4", "atom_type": "Cs"}, "10": {"label": "*3", "atom_type": "Cs"}}

>  <type>  (14) 
unop_10

>  <geom_source>  (14) 
Heuristics

$$$$

     RDKit          3D

 19 17  0  0  0  0  0  0  0  0999 V2000
   -0.8981   -0.0591   -2.1355 C   0  0  0  0  0  0  0  0  0  0  0  0
   -0.8981   -0.0591   -0.6168 C   0  0  0  0  0  0  0  0  0  0  0  0
   -0.8981    1.5983    0.1282 S   0  0  0  0  0  0  0  0  0  0  0  0
    0.0086    0.4064   -2.5262 H   0  0  0  0  0  0  0  0  0  0  0  0
   -1.7540    0.4921   -2.5256 H   0  0  0  0  0  0  0  0  0  0  0  0
   -0.9412   -1.0824   -2.5158 H   0  0  0  0  0  0  0  0  0  0  0  0
    0.1138   -0.7384   -0.1427 H   0  0  0  0  0  0  0  0  0  0  0  0
   -1.8057   -0.5261   -0.2317 H   0  0  0  0  0  0  0  0  0  0  0  0
    0.2767    2.0000   -0.3754 H   0  0  0  0  0  0  0  0  0  0  0  0
    0.7468   -2.0284    1.6763 C   0  0  0  0  0  0  0  0  0  0  0  0
    1.1292   -1.4201    0.3331 C   0  0  0  0  0  3  0  0  0  0  0  0
    1.8362   -0.0784    0.4766 C   0  0  0  0  0  0  0  0  0  0  0  0
    0.0757   -1.3658    2.2283 H   0  0  0  0  0  0  0  0  0  0  0  0
    0.2420   -2.9880    1.5529 H   0  0  0  0  0  0  0  0  0  0  0  0
    1.6311   -2.1927    2.2967 H   0  0  0  0  0  0  0  0  0  0  0  0
    1.7747   -2.1153   -0.2108 H   0  0  0  0  0  0  0  0  0  0  0  0
    2.7549   -0.1813    1.0592 H   0  0  0  0  0  0  0  0  0  0  0  0
    2.1019    0.3411   -0.4952 H   0  0  0  0  0  0  0  0  0  0  0  0
    1.1995    0.6456    0.9908 H   0  0  0  0  0  0  0  0  0  0  0  0
  1  2  1  0
  1  4  1  0
  1  5  1  0
  1  6  1  0
  2  3  1  0
  2  7  1  0
  2  8  1  0
  3  9  1  0
 10 11  1  0
 10 13  1  0
 10 14  1  0
 10 15  1  0
 11 12  1  0
 11 16  1  0
 12 17  1  0
 12 18  1  0
 12 19  1  0
M  RAD  1  11   2
M  END
>  <reaction>  (15) 
rxn_1866

>  <mol_properties>  (15) 
{"1": {"label": "*1", "atom_type": "Cs"}, "2": {"label": "*0", "atom_type": "S2s"}, "6": {"label": "*2", "atom_type": "H0"}, "9": {"label": "*4", "atom_type": "Cs"}, "10": {"label": "*3", "atom_type": "Cs"}}

>  <type>  (15) 
unop_11

>  <geom_source>  (15) 
Heuristics

$$$$

     RDKit          3D

 19 17  0  0  0  0  0  0  0  0999 V2000
   -0.8957    0.2855   -1.8885 C   0  0  0  0  0  0  0  0  0  0  0  0
   -0.8957    0.2855   -0.3699 C   0  0  0  0  0  0  0  0  0  0  0  0
   -0.8957    1.9429    0.3751 S   0  0  0  0  0  0  0  0  0  0  0  0
    0.0109    0.7510   -2.2793 H   0  0  0  0  0  0  0  0  0  0  0  0
   -1.7517    0.8367   -2.2786 H   0  0  0  0  0  0  0  0  0  0  0  0
   -0.9388   -0.7378   -2.2688 H   0  0  0  0  0  0  0  0  0  0  0  0
    0.1162   -0.3938    0.1042 H   0  0  0  0  0  0  0  0  0  0  0  0
   -1.8033   -0.1815    0.0153 H   0  0  0  0  0  0  0  0  0  0  0  0
    0.2791    2.3446   -0.1284 H   0  0  0  0  0  0  0  0  0  0  0  0
    1.9563   -1.6291   -0.5749 C   0  0  0  0  0  0  0  0  0  0  0  0
    1.1316   -1.0755    0.5800 C   0  0  0  0  0  3  0  0  0  0  0  0
    0.6182   -2.1668    1.5105 C   0  0  0  0  0  0  0  0  0  0  0  0
    1.3653   -2.3202   -1.1808 H   0  0  0  0  0  0  0  0  0  0  0  0
    2.3148   -0.8331   -1.2297 H   0  0  0  0  0  0  0  0  0  0  0  0
    2.8271   -2.1765   -0.2059 H   0  0  0  0  0  0  0  0  0  0  0  0
    1.7357   -0.3648    1.1509 H   0  0  0  0  0  0  0  0  0  0  0  0
    1.4468   -2.7312    1.9453 H   0  0  0  0  0  0  0  0  0  0  0  0
    0.0304   -1.7511    2.3306 H   0  0  0  0  0  0  0  0  0  0  0  0
   -0.0149   -2.8749    0.9703 H   0  0  0  0  0  0  0  0  0  0  0  0
  1  2  1  0
  1  4  1  0
  1  5  1  0
  1  6  1  0
  2  3  1  0
  2  7  1  0
  2  8  1  0
  3  9  1  0
 10 11  1  0
 10 13  1  0
 10 14  1  0
 10 15  1  0
 11 12  1  0
 11 16  1  0
 12 17  1  0
 12 18  1  0
 12 19  1  0
M  RAD  1  11   2
M  END
>  <reaction>  (16) 
rxn_1866

>  <mol_properties>  (16) 
{"1": {"label": "*1", "atom_type": "Cs"}, "2": {"label": "*0", "atom_type": "S2s"}, "6": {"label": "*2", "atom_type": "H0"}, "9": {"label": "*4", "atom_type": "Cs"}, "10": {"label": "*3", "atom_type": "Cs"}}

>  <type>  (16) 
unop_12

>  <geom_source>  (16) 
Heuristics

$$$$

     RDKit          3D

 19 17  0  0  0  0  0  0  0  0999 V2000
    2.3704    1.2499    1.6124 S   0  0  0  0  0  0  0  0  0  0  0  0
   -0.9275   -0.4502   -0.0893 C   0  0  0  0  0  0  0  0  0  0  0  0
   -1.4397    0.7763   -0.8365 C   0  0  0  0  0  0  0  0  0  0  0  0
   -1.9769   -0.9908    0.8759 C   0  0  0  0  0  0  0  0  0  0  0  0
    2.1180   -0.0731   -0.7863 C   0  0  0  0  0  0  0  0  0  0  0  0
    1.5369   -0.0244    0.6179 C   0  0  0  0  0  3  0  0  0  0  0  0
   -0.6589   -1.2418   -0.8218 H   0  0  0  0  0  0  0  0  0  0  0  0
    0.1338   -0.1286    0.5755 H   0  0  0  0  0  0  0  0  0  0  0  0
   -2.3420    0.5181   -1.4309 H   0  0  0  0  0  0  0  0  0  0  0  0
   -0.6515    1.1442   -1.5262 H   0  0  0  0  0  0  0  0  0  0  0  0
   -1.6901    1.5863   -0.1191 H   0  0  0  0  0  0  0  0  0  0  0  0
   -2.8922   -1.2918    0.3231 H   0  0  0  0  0  0  0  0  0  0  0  0
   -2.2388   -0.2187    1.6302 H   0  0  0  0  0  0  0  0  0  0  0  0
   -1.5705   -1.8789    1.4035 H   0  0  0  0  0  0  0  0  0  0  0  0
    1.9714    0.9039   -1.2926 H   0  0  0  0  0  0  0  0  0  0  0  0
    3.2022   -0.3104   -0.7453 H   0  0  0  0  0  0  0  0  0  0  0  0
    1.5981   -0.8591   -1.3725 H   0  0  0  0  0  0  0  0  0  0  0  0
    1.6610   -1.0120    1.1099 H   0  0  0  0  0  0  0  0  0  0  0  0
    1.7965    2.3010    0.8723 H   0  0  0  0  0  0  0  0  0  0  0  0
  1  6  1  0
  1 19  1  0
  2  3  1  0
  2  4  1  0
  2  7  1  0
  2  8  1  0
  3  9  1  0
  3 10  1  0
  3 11  1  0
  4 12  1  0
  4 13  1  0
  4 14  1  0
  5  6  1  0
  5 15  1  0
  5 16  1  0
  5 17  1  0
  6 18  1  0
M  RAD  1   6   2
M  END
>  <reaction>  (17) 
rxn_1866

>  <mol_properties>  (17) 
{"1": {"label": "*1", "atom_type": "Cs"}, "2": {"label": "*0", "atom_type": "S2s"}, "6": {"label": "*2", "atom_type": "H0"}, "9": {"label": "*4", "atom_type": "Cs"}, "10": {"label": "*3", "atom_type": "Cs"}}

>  <type>  (17) 
unop_13

>  <geom_source>  (17) 
AutoTST

$$$$
