
     RDKit          3D

 16 15  0  0  0  0  0  0  0  0999 V2000
    1.7961   -0.3807    1.6176 C   0  0  0  0  0  0  0  0  0  0  0  0
    0.8562   -0.8708    0.8256 C   0  0  0  0  0  0  0  0  0  0  0  0
    0.0895   -0.0826   -0.2048 C   0  0  0  0  0  0  0  0  0  0  0  0
   -1.4061   -0.1111    0.0982 C   0  0  0  0  0  0  0  0  0  0  0  0
    0.4476   -0.5902   -1.5797 C   0  0  0  0  0  0  0  0  0  0  0  0
   -0.3793   -1.1113   -2.4728 C   0  0  0  0  0  0  0  0  0  0  0  0
    2.3110   -1.0032    2.3386 H   0  0  0  0  0  0  0  0  0  0  0  0
    2.0846    0.6643    1.5737 H   0  0  0  0  0  0  0  0  0  0  0  0
    0.5921   -1.9241    0.8925 H   0  0  0  0  0  0  0  0  0  0  0  0
    0.4358    0.9557   -0.1462 H   0  0  0  0  0  0  0  0  0  0  0  0
   -1.5968    0.3080    1.0865 H   0  0  0  0  0  0  0  0  0  0  0  0
   -1.9674    0.4693   -0.6359 H   0  0  0  0  0  0  0  0  0  0  0  0
   -1.7902   -1.1338    0.0883 H   0  0  0  0  0  0  0  0  0  0  0  0
    1.5049   -0.5197   -1.8214 H   0  0  0  0  0  0  0  0  0  0  0  0
   -1.4421   -1.2131   -2.2889 H   0  0  0  0  0  0  0  0  0  0  0  0
   -0.0162   -1.4558   -3.4328 H   0  0  0  0  0  0  0  0  0  0  0  0
  1  2  2  3
  1  7  1  0
  1  8  1  0
  2  3  1  0
  2  9  1  0
  3  4  1  0
  3  5  1  0
  3 10  1  0
  4 11  1  0
  4 12  1  0
  4 13  1  0
  5  6  2  3
  5 14  1  0
  6 15  1  0
  6 16  1  0
M  END
>  <reaction>  (1) 
rxn_1170

>  <mol_properties>  (1) 
{"2": {"label": "donator", "atom_type": "Cs"}, "9": {"label": "d_hydrogen", "atom_type": "H0"}}

>  <type>  (1) 
r1h

$$$$

     RDKit          3D

  4  3  0  0  0  0  0  0  0  0999 V2000
    0.0000    0.0000    0.0000 C   0  0  0  0  0  3  0  0  0  0  0  0
    1.0638   -0.1747    0.0540 H   0  0  0  0  0  0  0  0  0  0  0  0
   -0.6833   -0.8351   -0.0280 H   0  0  0  0  0  0  0  0  0  0  0  0
   -0.3805    1.0098   -0.0260 H   0  0  0  0  0  0  0  0  0  0  0  0
  1  2  1  0
  1  3  1  0
  1  4  1  0
M  RAD  1   1   2
M  END
>  <reaction>  (2) 
rxn_1170

>  <mol_properties>  (2) 
{"0": {"label": "acceptor", "atom_type": "Cs"}}

>  <type>  (2) 
r2

$$$$

     RDKit          3D

  5  4  0  0  0  0  0  0  0  0999 V2000
    0.0000    0.0000    0.0000 C   0  0  0  0  0  0  0  0  0  0  0  0
   -0.6486   -0.7720   -0.4113 H   0  0  0  0  0  0  0  0  0  0  0  0
   -0.3482    0.9787   -0.3267 H   0  0  0  0  0  0  0  0  0  0  0  0
   -0.0223   -0.0487    1.0876 H   0  0  0  0  0  0  0  0  0  0  0  0
    1.0191   -0.1580   -0.3496 H   0  0  0  0  0  0  0  0  0  0  0  0
  1  2  1  0
  1  3  1  0
  1  4  1  0
  1  5  1  0
M  END
>  <reaction>  (3) 
rxn_1170

>  <mol_properties>  (3) 
{"0": {"label": "acceptor", "atom_type": "Cs"}, "4": {"label": "a_hydrogen", "atom_type": "H0"}}

>  <type>  (3) 
r2h

$$$$

     RDKit          3D

 20 18  0  0  0  0  0  0  0  0999 V2000
    0.4344    2.1818   -1.2902 C   0  0  0  0  0  3  0  0  0  0  0  0
    0.7060    2.8925   -0.5177 H   0  0  0  0  0  0  0  0  0  0  0  0
   -0.5479    2.3272   -1.7257 H   0  0  0  0  0  0  0  0  0  0  0  0
    1.2218    1.9247   -1.9896 H   0  0  0  0  0  0  0  0  0  0  0  0
    0.0098   -1.2454   -2.0470 C   0  0  0  0  0  0  0  0  0  0  0  0
    0.4404   -1.2279   -0.7943 C   0  0  0  0  0  0  0  0  0  0  0  0
    0.2300   -0.1086    0.1770 C   0  0  0  0  0  0  0  0  0  0  0  0
    1.3780    0.0527    1.1533 C   0  0  0  0  0  0  0  0  0  0  0  0
   -1.1330   -0.1036    0.7676 C   0  0  0  0  0  0  0  0  0  0  0  0
   -1.4472    0.1612    2.0311 C   0  0  0  0  0  0  0  0  0  0  0  0
    0.1796   -2.0985   -2.6911 H   0  0  0  0  0  0  0  0  0  0  0  0
   -0.5287   -0.4053   -2.4724 H   0  0  0  0  0  0  0  0  0  0  0  0
    0.9900   -2.0864   -0.4120 H   0  0  0  0  0  0  0  0  0  0  0  0
    0.2648    0.9213   -0.5132 H   0  0  0  0  0  0  0  0  0  0  0  0
    2.3270    0.0989    0.6173 H   0  0  0  0  0  0  0  0  0  0  0  0
    1.2770    0.9697    1.7355 H   0  0  0  0  0  0  0  0  0  0  0  0
    1.4225   -0.7878    1.8519 H   0  0  0  0  0  0  0  0  0  0  0  0
   -1.9312   -0.3247    0.0644 H   0  0  0  0  0  0  0  0  0  0  0  0
   -0.6972    0.3761    2.7825 H   0  0  0  0  0  0  0  0  0  0  0  0
   -2.4791    0.1618    2.3577 H   0  0  0  0  0  0  0  0  0  0  0  0
  1  2  1  0
  1  3  1  0
  1  4  1  0
  5  6  2  3
  5 11  1  0
  5 12  1  0
  6  7  1  0
  6 13  1  0
  7  8  1  0
  7  9  1  0
  7 14  1  0
  8 15  1  0
  8 16  1  0
  8 17  1  0
  9 10  2  3
  9 18  1  0
 10 19  1  0
 10 20  1  0
M  RAD  1   1   2
M  END
>  <reaction>  (4) 
rxn_1170

>  <mol_properties>  (4) 
{"0": {"label": "*3", "atom_type": "Cs"}, "1": {"label": "*4", "atom_type": "H0"}, "5": {"label": "*0", "atom_type": "Cd"}, "6": {"label": "*1", "atom_type": "Cs"}, "13": {"label": "*2", "atom_type": "H0"}}

>  <type>  (4) 
ts

$$$$

     RDKit          3D

 20 18  0  0  0  0  0  0  0  0999 V2000
    0.2540    2.0646   -1.4490 C   0  0  0  0  0  0  0  0  0  0  0  0
   -0.6291    2.6797   -1.2830 H   0  0  0  0  0  0  0  0  0  0  0  0
    0.6714    2.2861   -2.4300 H   0  0  0  0  0  0  0  0  0  0  0  0
    0.8798    2.4168   -0.6305 H   0  0  0  0  0  0  0  0  0  0  0  0
    0.1810   -1.2480   -2.0492 C   0  0  0  0  0  0  0  0  0  0  0  0
    0.1810   -1.2480   -0.7260 C   0  0  0  0  0  0  0  0  0  0  0  0
    0.1810   -0.0173    0.1434 C   0  0  0  0  0  3  0  0  0  0  0  0
    1.4194    0.0125    1.0350 C   0  0  0  0  0  0  0  0  0  0  0  0
   -1.1225    0.0513    0.8999 C   0  0  0  0  0  0  0  0  0  0  0  0
   -1.2771    0.0515    2.2148 C   0  0  0  0  0  0  0  0  0  0  0  0
    0.1803   -2.1707   -2.6159 H   0  0  0  0  0  0  0  0  0  0  0  0
    0.1828   -0.3223   -2.6149 H   0  0  0  0  0  0  0  0  0  0  0  0
    0.1763   -2.1939   -0.1884 H   0  0  0  0  0  0  0  0  0  0  0  0
    0.2176    1.0271   -0.6554 H   0  0  0  0  0  0  0  0  0  0  0  0
    2.3222    0.0041    0.4237 H   0  0  0  0  0  0  0  0  0  0  0  0
    1.4341    0.9083    1.6581 H   0  0  0  0  0  0  0  0  0  0  0  0
    1.4520   -0.8593    1.6926 H   0  0  0  0  0  0  0  0  0  0  0  0
   -2.0057    0.0870    0.2674 H   0  0  0  0  0  0  0  0  0  0  0  0
   -0.4368    0.0122    2.8974 H   0  0  0  0  0  0  0  0  0  0  0  0
   -2.2635    0.0947    2.6591 H   0  0  0  0  0  0  0  0  0  0  0  0
  1  2  1  0
  1  3  1  0
  1  4  1  0
  1 14  1  0
  5  6  2  3
  5 11  1  0
  5 12  1  0
  6  7  1  0
  6 13  1  0
  7  8  1  0
  7  9  1  0
  8 15  1  0
  8 16  1  0
  8 17  1  0
  9 10  2  3
  9 18  1  0
 10 19  1  0
 10 20  1  0
M  RAD  1   7   2
M  END
>  <reaction>  (5) 
rxn_1170

>  <mol_properties>  (5) 
{"0": {"label": "*3", "atom_type": "Cs"}, "1": {"label": "*4", "atom_type": "H0"}, "5": {"label": "*0", "atom_type": "Cd"}, "6": {"label": "*1", "atom_type": "Cs"}, "13": {"label": "*2", "atom_type": "H0"}}

>  <type>  (5) 
unop_1

>  <geom_source>  (5) 
Heuristics

$$$$

     RDKit          3D

 20 18  0  0  0  0  0  0  0  0999 V2000
    0.2545    2.0697   -1.4473 C   0  0  0  0  0  0  0  0  0  0  0  0
   -0.2408    1.8262   -2.3860 H   0  0  0  0  0  0  0  0  0  0  0  0
    1.1605    2.6380   -1.6517 H   0  0  0  0  0  0  0  0  0  0  0  0
   -0.0420    2.4374   -0.4661 H   0  0  0  0  0  0  0  0  0  0  0  0
    0.1815   -1.2429   -2.0475 C   0  0  0  0  0  0  0  0  0  0  0  0
    0.1815   -1.2429   -0.7243 C   0  0  0  0  0  0  0  0  0  0  0  0
    0.1815   -0.0121    0.1451 C   0  0  0  0  0  3  0  0  0  0  0  0
    1.4199    0.0177    1.0367 C   0  0  0  0  0  0  0  0  0  0  0  0
   -1.1220    0.0565    0.9016 C   0  0  0  0  0  0  0  0  0  0  0  0
   -1.2766    0.0567    2.2166 C   0  0  0  0  0  0  0  0  0  0  0  0
    0.1808   -2.1655   -2.6142 H   0  0  0  0  0  0  0  0  0  0  0  0
    0.1833   -0.3171   -2.6132 H   0  0  0  0  0  0  0  0  0  0  0  0
    0.1768   -2.1887   -0.1867 H   0  0  0  0  0  0  0  0  0  0  0  0
    0.2181    1.0322   -0.6537 H   0  0  0  0  0  0  0  0  0  0  0  0
    2.3226    0.0093    0.4255 H   0  0  0  0  0  0  0  0  0  0  0  0
    1.4346    0.9134    1.6598 H   0  0  0  0  0  0  0  0  0  0  0  0
    1.4525   -0.8541    1.6943 H   0  0  0  0  0  0  0  0  0  0  0  0
   -2.0052    0.0922    0.2691 H   0  0  0  0  0  0  0  0  0  0  0  0
   -0.4363    0.0174    2.8991 H   0  0  0  0  0  0  0  0  0  0  0  0
   -2.2630    0.0998    2.6608 H   0  0  0  0  0  0  0  0  0  0  0  0
  1  2  1  0
  1  3  1  0
  1  4  1  0
  1 14  1  0
  5  6  2  3
  5 11  1  0
  5 12  1  0
  6  7  1  0
  6 13  1  0
  7  8  1  0
  7  9  1  0
  8 15  1  0
  8 16  1  0
  8 17  1  0
  9 10  2  3
  9 18  1  0
 10 19  1  0
 10 20  1  0
M  RAD  1   7   2
M  END
>  <reaction>  (6) 
rxn_1170

>  <mol_properties>  (6) 
{"0": {"label": "*3", "atom_type": "Cs"}, "1": {"label": "*4", "atom_type": "H0"}, "5": {"label": "*0", "atom_type": "Cd"}, "6": {"label": "*1", "atom_type": "Cs"}, "13": {"label": "*2", "atom_type": "H0"}}

>  <type>  (6) 
unop_2

>  <geom_source>  (6) 
Heuristics

$$$$

     RDKit          3D

 20 18  0  0  0  0  0  0  0  0999 V2000
    0.2524    2.0640   -1.4469 C   0  0  0  0  0  0  0  0  0  0  0  0
   -0.2583    2.9012   -0.9735 H   0  0  0  0  0  0  0  0  0  0  0  0
    0.1230    2.1234   -2.5265 H   0  0  0  0  0  0  0  0  0  0  0  0
    1.2026    2.4109   -1.0437 H   0  0  0  0  0  0  0  0  0  0  0  0
    0.1795   -1.2486   -2.0471 C   0  0  0  0  0  0  0  0  0  0  0  0
    0.1795   -1.2486   -0.7239 C   0  0  0  0  0  0  0  0  0  0  0  0
    0.1795   -0.0178    0.1455 C   0  0  0  0  0  3  0  0  0  0  0  0
    1.4178    0.0120    1.0371 C   0  0  0  0  0  0  0  0  0  0  0  0
   -1.1241    0.0507    0.9020 C   0  0  0  0  0  0  0  0  0  0  0  0
   -1.2787    0.0510    2.2170 C   0  0  0  0  0  0  0  0  0  0  0  0
    0.1787   -2.1712   -2.6138 H   0  0  0  0  0  0  0  0  0  0  0  0
    0.1812   -0.3228   -2.6128 H   0  0  0  0  0  0  0  0  0  0  0  0
    0.1747   -2.1944   -0.1862 H   0  0  0  0  0  0  0  0  0  0  0  0
    0.2161    1.0265   -0.6533 H   0  0  0  0  0  0  0  0  0  0  0  0
    2.3206    0.0036    0.4259 H   0  0  0  0  0  0  0  0  0  0  0  0
    1.4325    0.9077    1.6602 H   0  0  0  0  0  0  0  0  0  0  0  0
    1.4504   -0.8598    1.6948 H   0  0  0  0  0  0  0  0  0  0  0  0
   -2.0072    0.0865    0.2695 H   0  0  0  0  0  0  0  0  0  0  0  0
   -0.4383    0.0117    2.8995 H   0  0  0  0  0  0  0  0  0  0  0  0
   -2.2651    0.0941    2.6612 H   0  0  0  0  0  0  0  0  0  0  0  0
  1  2  1  0
  1  3  1  0
  1  4  1  0
  1 14  1  0
  5  6  2  3
  5 11  1  0
  5 12  1  0
  6  7  1  0
  6 13  1  0
  7  8  1  0
  7  9  1  0
  8 15  1  0
  8 16  1  0
  8 17  1  0
  9 10  2  3
  9 18  1  0
 10 19  1  0
 10 20  1  0
M  RAD  1   7   2
M  END
>  <reaction>  (7) 
rxn_1170

>  <mol_properties>  (7) 
{"0": {"label": "*3", "atom_type": "Cs"}, "1": {"label": "*4", "atom_type": "H0"}, "5": {"label": "*0", "atom_type": "Cd"}, "6": {"label": "*1", "atom_type": "Cs"}, "13": {"label": "*2", "atom_type": "H0"}}

>  <type>  (7) 
unop_3

>  <geom_source>  (7) 
Heuristics

$$$$

     RDKit          3D

 20 18  0  0  0  0  0  0  0  0999 V2000
    0.2541    2.0680   -1.4491 C   0  0  0  0  0  0  0  0  0  0  0  0
    1.1574    2.0293   -2.0560 H   0  0  0  0  0  0  0  0  0  0  0  0
    0.4665    2.5853   -0.5148 H   0  0  0  0  0  0  0  0  0  0  0  0
   -0.7177    2.4475   -1.7612 H   0  0  0  0  0  0  0  0  0  0  0  0
    0.1812   -1.2446   -2.0494 C   0  0  0  0  0  0  0  0  0  0  0  0
    0.1812   -1.2446   -0.7261 C   0  0  0  0  0  0  0  0  0  0  0  0
    0.1812   -0.0138    0.1433 C   0  0  0  0  0  3  0  0  0  0  0  0
    1.4196    0.0160    1.0349 C   0  0  0  0  0  0  0  0  0  0  0  0
   -1.1223    0.0547    0.8998 C   0  0  0  0  0  0  0  0  0  0  0  0
   -1.2770    0.0550    2.2147 C   0  0  0  0  0  0  0  0  0  0  0  0
    0.1804   -2.1672   -2.6161 H   0  0  0  0  0  0  0  0  0  0  0  0
    0.1830   -0.3188   -2.6151 H   0  0  0  0  0  0  0  0  0  0  0  0
    0.1764   -2.1904   -0.1885 H   0  0  0  0  0  0  0  0  0  0  0  0
    0.2178    1.0305   -0.6555 H   0  0  0  0  0  0  0  0  0  0  0  0
    2.3223    0.0076    0.4236 H   0  0  0  0  0  0  0  0  0  0  0  0
    1.4342    0.9117    1.6580 H   0  0  0  0  0  0  0  0  0  0  0  0
    1.4521   -0.8558    1.6925 H   0  0  0  0  0  0  0  0  0  0  0  0
   -2.0055    0.0905    0.2672 H   0  0  0  0  0  0  0  0  0  0  0  0
   -0.4366    0.0157    2.8973 H   0  0  0  0  0  0  0  0  0  0  0  0
   -2.2634    0.0981    2.6589 H   0  0  0  0  0  0  0  0  0  0  0  0
  1  2  1  0
  1  3  1  0
  1  4  1  0
  1 14  1  0
  5  6  2  3
  5 11  1  0
  5 12  1  0
  6  7  1  0
  6 13  1  0
  7  8  1  0
  7  9  1  0
  8 15  1  0
  8 16  1  0
  8 17  1  0
  9 10  2  3
  9 18  1  0
 10 19  1  0
 10 20  1  0
M  RAD  1   7   2
M  END
>  <reaction>  (8) 
rxn_1170

>  <mol_properties>  (8) 
{"0": {"label": "*3", "atom_type": "Cs"}, "1": {"label": "*4", "atom_type": "H0"}, "5": {"label": "*0", "atom_type": "Cd"}, "6": {"label": "*1", "atom_type": "Cs"}, "13": {"label": "*2", "atom_type": "H0"}}

>  <type>  (8) 
unop_4

>  <geom_source>  (8) 
Heuristics

$$$$

     RDKit          3D

 20 18  0  0  0  0  0  0  0  0999 V2000
    0.2549    2.0639   -1.4442 C   0  0  0  0  0  0  0  0  0  0  0  0
    0.2560    2.9760   -0.8494 H   0  0  0  0  0  0  0  0  0  0  0  0
   -0.6193    2.0551   -2.0934 H   0  0  0  0  0  0  0  0  0  0  0  0
    1.2031    2.4111   -1.8516 H   0  0  0  0  0  0  0  0  0  0  0  0
    0.1819   -1.2487   -2.0444 C   0  0  0  0  0  0  0  0  0  0  0  0
    0.1819   -1.2487   -0.7212 C   0  0  0  0  0  0  0  0  0  0  0  0
    0.1819   -0.0179    0.1482 C   0  0  0  0  0  3  0  0  0  0  0  0
    1.4203    0.0119    1.0398 C   0  0  0  0  0  0  0  0  0  0  0  0
   -1.1216    0.0507    0.9047 C   0  0  0  0  0  0  0  0  0  0  0  0
   -1.2762    0.0509    2.2197 C   0  0  0  0  0  0  0  0  0  0  0  0
    0.1812   -2.1713   -2.6111 H   0  0  0  0  0  0  0  0  0  0  0  0
    0.1837   -0.3229   -2.6101 H   0  0  0  0  0  0  0  0  0  0  0  0
    0.1772   -2.1945   -0.1836 H   0  0  0  0  0  0  0  0  0  0  0  0
    0.2185    1.0264   -0.6506 H   0  0  0  0  0  0  0  0  0  0  0  0
    2.3230    0.0035    0.4286 H   0  0  0  0  0  0  0  0  0  0  0  0
    1.4350    0.9076    1.6629 H   0  0  0  0  0  0  0  0  0  0  0  0
    1.4529   -0.8599    1.6974 H   0  0  0  0  0  0  0  0  0  0  0  0
   -2.0048    0.0864    0.2722 H   0  0  0  0  0  0  0  0  0  0  0  0
   -0.4359    0.0116    2.9022 H   0  0  0  0  0  0  0  0  0  0  0  0
   -2.2626    0.0940    2.6639 H   0  0  0  0  0  0  0  0  0  0  0  0
  1  2  1  0
  1  3  1  0
  1  4  1  0
  1 14  1  0
  5  6  2  3
  5 11  1  0
  5 12  1  0
  6  7  1  0
  6 13  1  0
  7  8  1  0
  7  9  1  0
  8 15  1  0
  8 16  1  0
  8 17  1  0
  9 10  2  3
  9 18  1  0
 10 19  1  0
 10 20  1  0
M  RAD  1   7   2
M  END
>  <reaction>  (9) 
rxn_1170

>  <mol_properties>  (9) 
{"0": {"label": "*3", "atom_type": "Cs"}, "1": {"label": "*4", "atom_type": "H0"}, "5": {"label": "*0", "atom_type": "Cd"}, "6": {"label": "*1", "atom_type": "Cs"}, "13": {"label": "*2", "atom_type": "H0"}}

>  <type>  (9) 
unop_5

>  <geom_source>  (9) 
Heuristics

$$$$

     RDKit          3D

 20 18  0  0  0  0  0  0  0  0999 V2000
    0.2551    2.0660   -1.4490 C   0  0  0  0  0  0  0  0  0  0  0  0
    1.2914    2.3369   -1.6450 H   0  0  0  0  0  0  0  0  0  0  0  0
   -0.0495    2.4698   -0.4847 H   0  0  0  0  0  0  0  0  0  0  0  0
   -0.4270    2.4408   -2.2106 H   0  0  0  0  0  0  0  0  0  0  0  0
    0.1822   -1.2466   -2.0493 C   0  0  0  0  0  0  0  0  0  0  0  0
    0.1822   -1.2466   -0.7260 C   0  0  0  0  0  0  0  0  0  0  0  0
    0.1822   -0.0158    0.1434 C   0  0  0  0  0  3  0  0  0  0  0  0
    1.4205    0.0140    1.0350 C   0  0  0  0  0  0  0  0  0  0  0  0
   -1.1214    0.0528    0.8999 C   0  0  0  0  0  0  0  0  0  0  0  0
   -1.2760    0.0530    2.2148 C   0  0  0  0  0  0  0  0  0  0  0  0
    0.1814   -2.1692   -2.6160 H   0  0  0  0  0  0  0  0  0  0  0  0
    0.1839   -0.3208   -2.6150 H   0  0  0  0  0  0  0  0  0  0  0  0
    0.1774   -2.1924   -0.1884 H   0  0  0  0  0  0  0  0  0  0  0  0
    0.2188    1.0285   -0.6555 H   0  0  0  0  0  0  0  0  0  0  0  0
    2.3233    0.0056    0.4237 H   0  0  0  0  0  0  0  0  0  0  0  0
    1.4352    0.9097    1.6581 H   0  0  0  0  0  0  0  0  0  0  0  0
    1.4531   -0.8578    1.6926 H   0  0  0  0  0  0  0  0  0  0  0  0
   -2.0045    0.0885    0.2673 H   0  0  0  0  0  0  0  0  0  0  0  0
   -0.4356    0.0137    2.8973 H   0  0  0  0  0  0  0  0  0  0  0  0
   -2.2624    0.0961    2.6590 H   0  0  0  0  0  0  0  0  0  0  0  0
  1  2  1  0
  1  3  1  0
  1  4  1  0
  1 14  1  0
  5  6  2  3
  5 11  1  0
  5 12  1  0
  6  7  1  0
  6 13  1  0
  7  8  1  0
  7  9  1  0
  8 15  1  0
  8 16  1  0
  8 17  1  0
  9 10  2  3
  9 18  1  0
 10 19  1  0
 10 20  1  0
M  RAD  1   7   2
M  END
>  <reaction>  (10) 
rxn_1170

>  <mol_properties>  (10) 
{"0": {"label": "*3", "atom_type": "Cs"}, "1": {"label": "*4", "atom_type": "H0"}, "5": {"label": "*0", "atom_type": "Cd"}, "6": {"label": "*1", "atom_type": "Cs"}, "13": {"label": "*2", "atom_type": "H0"}}

>  <type>  (10) 
unop_6

>  <geom_source>  (10) 
Heuristics

$$$$

     RDKit          3D

 20 18  0  0  0  0  0  0  0  0999 V2000
    0.2567    2.0645   -1.4484 C   0  0  0  0  0  0  0  0  0  0  0  0
    1.1511    2.6497   -1.2400 H   0  0  0  0  0  0  0  0  0  0  0  0
   -0.5132    2.3055   -0.7171 H   0  0  0  0  0  0  0  0  0  0  0  0
    0.0254    2.4318   -2.4471 H   0  0  0  0  0  0  0  0  0  0  0  0
    0.1838   -1.2481   -2.0486 C   0  0  0  0  0  0  0  0  0  0  0  0
    0.1838   -1.2481   -0.7254 C   0  0  0  0  0  0  0  0  0  0  0  0
    0.1838   -0.0173    0.1440 C   0  0  0  0  0  3  0  0  0  0  0  0
    1.4222    0.0125    1.0356 C   0  0  0  0  0  0  0  0  0  0  0  0
   -1.1197    0.0513    0.9006 C   0  0  0  0  0  0  0  0  0  0  0  0
   -1.2743    0.0515    2.2155 C   0  0  0  0  0  0  0  0  0  0  0  0
    0.1831   -2.1707   -2.6153 H   0  0  0  0  0  0  0  0  0  0  0  0
    0.1856   -0.3223   -2.6143 H   0  0  0  0  0  0  0  0  0  0  0  0
    0.1791   -2.1939   -0.1877 H   0  0  0  0  0  0  0  0  0  0  0  0
    0.2204    1.0270   -0.6548 H   0  0  0  0  0  0  0  0  0  0  0  0
    2.3249    0.0041    0.4244 H   0  0  0  0  0  0  0  0  0  0  0  0
    1.4368    0.9082    1.6587 H   0  0  0  0  0  0  0  0  0  0  0  0
    1.4548   -0.8593    1.6933 H   0  0  0  0  0  0  0  0  0  0  0  0
   -2.0029    0.0870    0.2680 H   0  0  0  0  0  0  0  0  0  0  0  0
   -0.4340    0.0122    2.8980 H   0  0  0  0  0  0  0  0  0  0  0  0
   -2.2607    0.0946    2.6597 H   0  0  0  0  0  0  0  0  0  0  0  0
  1  2  1  0
  1  3  1  0
  1  4  1  0
  1 14  1  0
  5  6  2  3
  5 11  1  0
  5 12  1  0
  6  7  1  0
  6 13  1  0
  7  8  1  0
  7  9  1  0
  8 15  1  0
  8 16  1  0
  8 17  1  0
  9 10  2  3
  9 18  1  0
 10 19  1  0
 10 20  1  0
M  RAD  1   7   2
M  END
>  <reaction>  (11) 
rxn_1170

>  <mol_properties>  (11) 
{"0": {"label": "*3", "atom_type": "Cs"}, "1": {"label": "*4", "atom_type": "H0"}, "5": {"label": "*0", "atom_type": "Cd"}, "6": {"label": "*1", "atom_type": "Cs"}, "13": {"label": "*2", "atom_type": "H0"}}

>  <type>  (11) 
unop_7

>  <geom_source>  (11) 
Heuristics

$$$$

     RDKit          3D

 20 18  0  0  0  0  0  0  0  0999 V2000
    0.2557    2.0660   -1.4488 C   0  0  0  0  0  0  0  0  0  0  0  0
   -0.7604    2.3715   -1.6937 H   0  0  0  0  0  0  0  0  0  0  0  0
    0.9423    2.4537   -2.1999 H   0  0  0  0  0  0  0  0  0  0  0  0
    0.5765    2.4233   -0.4714 H   0  0  0  0  0  0  0  0  0  0  0  0
    0.1828   -1.2466   -2.0490 C   0  0  0  0  0  0  0  0  0  0  0  0
    0.1828   -1.2466   -0.7258 C   0  0  0  0  0  0  0  0  0  0  0  0
    0.1828   -0.0158    0.1436 C   0  0  0  0  0  3  0  0  0  0  0  0
    1.4211    0.0140    1.0352 C   0  0  0  0  0  0  0  0  0  0  0  0
   -1.1207    0.0527    0.9001 C   0  0  0  0  0  0  0  0  0  0  0  0
   -1.2754    0.0530    2.2151 C   0  0  0  0  0  0  0  0  0  0  0  0
    0.1820   -2.1692   -2.6157 H   0  0  0  0  0  0  0  0  0  0  0  0
    0.1845   -0.3208   -2.6147 H   0  0  0  0  0  0  0  0  0  0  0  0
    0.1780   -2.1924   -0.1882 H   0  0  0  0  0  0  0  0  0  0  0  0
    0.2194    1.0285   -0.6552 H   0  0  0  0  0  0  0  0  0  0  0  0
    2.3239    0.0056    0.4240 H   0  0  0  0  0  0  0  0  0  0  0  0
    1.4358    0.9097    1.6583 H   0  0  0  0  0  0  0  0  0  0  0  0
    1.4537   -0.8578    1.6928 H   0  0  0  0  0  0  0  0  0  0  0  0
   -2.0039    0.0885    0.2676 H   0  0  0  0  0  0  0  0  0  0  0  0
   -0.4350    0.0137    2.8976 H   0  0  0  0  0  0  0  0  0  0  0  0
   -2.2618    0.0961    2.6593 H   0  0  0  0  0  0  0  0  0  0  0  0
  1  2  1  0
  1  3  1  0
  1  4  1  0
  1 14  1  0
  5  6  2  3
  5 11  1  0
  5 12  1  0
  6  7  1  0
  6 13  1  0
  7  8  1  0
  7  9  1  0
  8 15  1  0
  8 16  1  0
  8 17  1  0
  9 10  2  3
  9 18  1  0
 10 19  1  0
 10 20  1  0
M  RAD  1   7   2
M  END
>  <reaction>  (12) 
rxn_1170

>  <mol_properties>  (12) 
{"0": {"label": "*3", "atom_type": "Cs"}, "1": {"label": "*4", "atom_type": "H0"}, "5": {"label": "*0", "atom_type": "Cd"}, "6": {"label": "*1", "atom_type": "Cs"}, "13": {"label": "*2", "atom_type": "H0"}}

>  <type>  (12) 
unop_8

>  <geom_source>  (12) 
Heuristics

$$$$

     RDKit          3D

 20 18  0  0  0  0  0  0  0  0999 V2000
    0.2535    2.0697   -1.4490 C   0  0  0  0  0  0  0  0  0  0  0  0
    0.7845    1.8090   -2.3633 H   0  0  0  0  0  0  0  0  0  0  0  0
    0.9121    2.6420   -0.7974 H   0  0  0  0  0  0  0  0  0  0  0  0
   -0.7324    2.4493   -1.1851 H   0  0  0  0  0  0  0  0  0  0  0  0
    0.1806   -1.2429   -2.0492 C   0  0  0  0  0  0  0  0  0  0  0  0
    0.1806   -1.2429   -0.7260 C   0  0  0  0  0  0  0  0  0  0  0  0
    0.1806   -0.0121    0.1434 C   0  0  0  0  0  3  0  0  0  0  0  0
    1.4189    0.0177    1.0350 C   0  0  0  0  0  0  0  0  0  0  0  0
   -1.1230    0.0565    0.8999 C   0  0  0  0  0  0  0  0  0  0  0  0
   -1.2776    0.0567    2.2149 C   0  0  0  0  0  0  0  0  0  0  0  0
    0.1798   -2.1655   -2.6159 H   0  0  0  0  0  0  0  0  0  0  0  0
    0.1823   -0.3171   -2.6149 H   0  0  0  0  0  0  0  0  0  0  0  0
    0.1758   -2.1887   -0.1884 H   0  0  0  0  0  0  0  0  0  0  0  0
    0.2172    1.0322   -0.6554 H   0  0  0  0  0  0  0  0  0  0  0  0
    2.3217    0.0093    0.4238 H   0  0  0  0  0  0  0  0  0  0  0  0
    1.4336    0.9134    1.6581 H   0  0  0  0  0  0  0  0  0  0  0  0
    1.4515   -0.8541    1.6926 H   0  0  0  0  0  0  0  0  0  0  0  0
   -2.0061    0.0922    0.2674 H   0  0  0  0  0  0  0  0  0  0  0  0
   -0.4372    0.0174    2.8974 H   0  0  0  0  0  0  0  0  0  0  0  0
   -2.2640    0.0998    2.6591 H   0  0  0  0  0  0  0  0  0  0  0  0
  1  2  1  0
  1  3  1  0
  1  4  1  0
  1 14  1  0
  5  6  2  3
  5 11  1  0
  5 12  1  0
  6  7  1  0
  6 13  1  0
  7  8  1  0
  7  9  1  0
  8 15  1  0
  8 16  1  0
  8 17  1  0
  9 10  2  3
  9 18  1  0
 10 19  1  0
 10 20  1  0
M  RAD  1   7   2
M  END
>  <reaction>  (13) 
rxn_1170

>  <mol_properties>  (13) 
{"0": {"label": "*3", "atom_type": "Cs"}, "1": {"label": "*4", "atom_type": "H0"}, "5": {"label": "*0", "atom_type": "Cd"}, "6": {"label": "*1", "atom_type": "Cs"}, "13": {"label": "*2", "atom_type": "H0"}}

>  <type>  (13) 
unop_9

>  <geom_source>  (13) 
Heuristics

$$$$

     RDKit          3D

 20 18  0  0  0  0  0  0  0  0999 V2000
    0.2558    2.0680   -1.4477 C   0  0  0  0  0  0  0  0  0  0  0  0
   -0.6184    2.0592   -2.0969 H   0  0  0  0  0  0  0  0  0  0  0  0
    1.0770    2.5755   -1.9515 H   0  0  0  0  0  0  0  0  0  0  0  0
    0.2943    2.4300   -0.4214 H   0  0  0  0  0  0  0  0  0  0  0  0
    0.1828   -1.2446   -2.0479 C   0  0  0  0  0  0  0  0  0  0  0  0
    0.1828   -1.2446   -0.7247 C   0  0  0  0  0  0  0  0  0  0  0  0
    0.1828   -0.0139    0.1447 C   0  0  0  0  0  3  0  0  0  0  0  0
    1.4212    0.0159    1.0363 C   0  0  0  0  0  0  0  0  0  0  0  0
   -1.1207    0.0547    0.9013 C   0  0  0  0  0  0  0  0  0  0  0  0
   -1.2753    0.0549    2.2162 C   0  0  0  0  0  0  0  0  0  0  0  0
    0.1821   -2.1673   -2.6146 H   0  0  0  0  0  0  0  0  0  0  0  0
    0.1846   -0.3189   -2.6136 H   0  0  0  0  0  0  0  0  0  0  0  0
    0.1781   -2.1905   -0.1870 H   0  0  0  0  0  0  0  0  0  0  0  0
    0.2194    1.0305   -0.6541 H   0  0  0  0  0  0  0  0  0  0  0  0
    2.3240    0.0076    0.4251 H   0  0  0  0  0  0  0  0  0  0  0  0
    1.4359    0.9117    1.6595 H   0  0  0  0  0  0  0  0  0  0  0  0
    1.4538   -0.8558    1.6940 H   0  0  0  0  0  0  0  0  0  0  0  0
   -2.0038    0.0904    0.2687 H   0  0  0  0  0  0  0  0  0  0  0  0
   -0.4349    0.0156    2.8987 H   0  0  0  0  0  0  0  0  0  0  0  0
   -2.2617    0.0981    2.6604 H   0  0  0  0  0  0  0  0  0  0  0  0
  1  2  1  0
  1  3  1  0
  1  4  1  0
  1 14  1  0
  5  6  2  3
  5 11  1  0
  5 12  1  0
  6  7  1  0
  6 13  1  0
  7  8  1  0
  7  9  1  0
  8 15  1  0
  8 16  1  0
  8 17  1  0
  9 10  2  3
  9 18  1  0
 10 19  1  0
 10 20  1  0
M  RAD  1   7   2
M  END
>  <reaction>  (14) 
rxn_1170

>  <mol_properties>  (14) 
{"0": {"label": "*3", "atom_type": "Cs"}, "1": {"label": "*4", "atom_type": "H0"}, "5": {"label": "*0", "atom_type": "Cd"}, "6": {"label": "*1", "atom_type": "Cs"}, "13": {"label": "*2", "atom_type": "H0"}}

>  <type>  (14) 
unop_10

>  <geom_source>  (14) 
Heuristics

$$$$

     RDKit          3D

 20 18  0  0  0  0  0  0  0  0999 V2000
    0.2577    2.0639   -1.4461 C   0  0  0  0  0  0  0  0  0  0  0  0
    0.7732    2.8838   -0.9483 H   0  0  0  0  0  0  0  0  0  0  0  0
   -0.8119    2.1387   -1.2558 H   0  0  0  0  0  0  0  0  0  0  0  0
    0.6136    2.4213   -2.4112 H   0  0  0  0  0  0  0  0  0  0  0  0
    0.1847   -1.2487   -2.0463 C   0  0  0  0  0  0  0  0  0  0  0  0
    0.1847   -1.2487   -0.7231 C   0  0  0  0  0  0  0  0  0  0  0  0
    0.1847   -0.0179    0.1463 C   0  0  0  0  0  3  0  0  0  0  0  0
    1.4231    0.0119    1.0379 C   0  0  0  0  0  0  0  0  0  0  0  0
   -1.1188    0.0507    0.9028 C   0  0  0  0  0  0  0  0  0  0  0  0
   -1.2734    0.0509    2.2178 C   0  0  0  0  0  0  0  0  0  0  0  0
    0.1840   -2.1713   -2.6130 H   0  0  0  0  0  0  0  0  0  0  0  0
    0.1865   -0.3229   -2.6120 H   0  0  0  0  0  0  0  0  0  0  0  0
    0.1800   -2.1945   -0.1855 H   0  0  0  0  0  0  0  0  0  0  0  0
    0.2213    1.0264   -0.6525 H   0  0  0  0  0  0  0  0  0  0  0  0
    2.3259    0.0035    0.4267 H   0  0  0  0  0  0  0  0  0  0  0  0
    1.4378    0.9076    1.6610 H   0  0  0  0  0  0  0  0  0  0  0  0
    1.4557   -0.8599    1.6955 H   0  0  0  0  0  0  0  0  0  0  0  0
   -2.0019    0.0864    0.2703 H   0  0  0  0  0  0  0  0  0  0  0  0
   -0.4330    0.0116    2.9003 H   0  0  0  0  0  0  0  0  0  0  0  0
   -2.2598    0.0940    2.6620 H   0  0  0  0  0  0  0  0  0  0  0  0
  1  2  1  0
  1  3  1  0
  1  4  1  0
  1 14  1  0
  5  6  2  3
  5 11  1  0
  5 12  1  0
  6  7  1  0
  6 13  1  0
  7  8  1  0
  7  9  1  0
  8 15  1  0
  8 16  1  0
  8 17  1  0
  9 10  2  3
  9 18  1  0
 10 19  1  0
 10 20  1  0
M  RAD  1   7   2
M  END
>  <reaction>  (15) 
rxn_1170

>  <mol_properties>  (15) 
{"0": {"label": "*3", "atom_type": "Cs"}, "1": {"label": "*4", "atom_type": "H0"}, "5": {"label": "*0", "atom_type": "Cd"}, "6": {"label": "*1", "atom_type": "Cs"}, "13": {"label": "*2", "atom_type": "H0"}}

>  <type>  (15) 
unop_11

>  <geom_source>  (15) 
Heuristics

$$$$

     RDKit          3D

 20 18  0  0  0  0  0  0  0  0999 V2000
    0.2534    2.0704   -1.4482 C   0  0  0  0  0  0  0  0  0  0  0  0
    0.2724    1.7347   -2.4839 H   0  0  0  0  0  0  0  0  0  0  0  0
    1.1478    2.6556   -1.2398 H   0  0  0  0  0  0  0  0  0  0  0  0
   -0.4438    2.4450   -0.7002 H   0  0  0  0  0  0  0  0  0  0  0  0
    0.1804   -1.2422   -2.0484 C   0  0  0  0  0  0  0  0  0  0  0  0
    0.1804   -1.2422   -0.7252 C   0  0  0  0  0  0  0  0  0  0  0  0
    0.1804   -0.0114    0.1443 C   0  0  0  0  0  3  0  0  0  0  0  0
    1.4188    0.0184    1.0359 C   0  0  0  0  0  0  0  0  0  0  0  0
   -1.1231    0.0572    0.9008 C   0  0  0  0  0  0  0  0  0  0  0  0
   -1.2777    0.0574    2.2157 C   0  0  0  0  0  0  0  0  0  0  0  0
    0.1797   -2.1648   -2.6151 H   0  0  0  0  0  0  0  0  0  0  0  0
    0.1822   -0.3164   -2.6141 H   0  0  0  0  0  0  0  0  0  0  0  0
    0.1757   -2.1880   -0.1875 H   0  0  0  0  0  0  0  0  0  0  0  0
    0.2170    1.0329   -0.6546 H   0  0  0  0  0  0  0  0  0  0  0  0
    2.3216    0.0100    0.4246 H   0  0  0  0  0  0  0  0  0  0  0  0
    1.4335    0.9141    1.6590 H   0  0  0  0  0  0  0  0  0  0  0  0
    1.4514   -0.8534    1.6935 H   0  0  0  0  0  0  0  0  0  0  0  0
   -2.0062    0.0929    0.2682 H   0  0  0  0  0  0  0  0  0  0  0  0
   -0.4373    0.0181    2.8982 H   0  0  0  0  0  0  0  0  0  0  0  0
   -2.2641    0.1005    2.6599 H   0  0  0  0  0  0  0  0  0  0  0  0
  1  2  1  0
  1  3  1  0
  1  4  1  0
  1 14  1  0
  5  6  2  3
  5 11  1  0
  5 12  1  0
  6  7  1  0
  6 13  1  0
  7  8  1  0
  7  9  1  0
  8 15  1  0
  8 16  1  0
  8 17  1  0
  9 10  2  3
  9 18  1  0
 10 19  1  0
 10 20  1  0
M  RAD  1   7   2
M  END
>  <reaction>  (16) 
rxn_1170

>  <mol_properties>  (16) 
{"0": {"label": "*3", "atom_type": "Cs"}, "1": {"label": "*4", "atom_type": "H0"}, "5": {"label": "*0", "atom_type": "Cd"}, "6": {"label": "*1", "atom_type": "Cs"}, "13": {"label": "*2", "atom_type": "H0"}}

>  <type>  (16) 
unop_12

>  <geom_source>  (16) 
Heuristics

$$$$

     RDKit          3D

 20 18  0  0  0  0  0  0  0  0999 V2000
   -0.9605    0.2714   -1.5356 C   0  0  0  0  0  0  0  0  0  0  0  0
    2.1662   -0.6952   -0.4952 C   0  0  0  0  0  0  0  0  0  0  0  0
   -0.3550   -0.1115   -0.1857 C   0  0  0  0  0  3  0  0  0  0  0  0
    0.4651    0.9985    0.4185 C   0  0  0  0  0  0  0  0  0  0  0  0
   -1.3975   -0.6160    0.7694 C   0  0  0  0  0  0  0  0  0  0  0  0
   -0.0624    2.1754    0.7742 C   0  0  0  0  0  0  0  0  0  0  0  0
   -1.2936   -1.8329    1.3042 C   0  0  0  0  0  0  0  0  0  0  0  0
   -1.7084    1.0846   -1.4196 H   0  0  0  0  0  0  0  0  0  0  0  0
   -1.4581   -0.6131   -1.9864 H   0  0  0  0  0  0  0  0  0  0  0  0
   -0.1592    0.6095   -2.2261 H   0  0  0  0  0  0  0  0  0  0  0  0
    2.8497   -0.8837    0.3580 H   0  0  0  0  0  0  0  0  0  0  0  0
    2.2222   -1.5433   -1.2082 H   0  0  0  0  0  0  0  0  0  0  0  0
    2.4663    0.2408   -1.0097 H   0  0  0  0  0  0  0  0  0  0  0  0
    0.9967   -0.5820   -0.0744 H   0  0  0  0  0  0  0  0  0  0  0  0
    1.5245    0.8251    0.5771 H   0  0  0  0  0  0  0  0  0  0  0  0
   -2.2377    0.0182    1.0378 H   0  0  0  0  0  0  0  0  0  0  0  0
    0.5689    2.9429    1.2098 H   0  0  0  0  0  0  0  0  0  0  0  0
   -1.1196    2.3809    0.6384 H   0  0  0  0  0  0  0  0  0  0  0  0
   -0.4592   -2.4819    1.0551 H   0  0  0  0  0  0  0  0  0  0  0  0
   -2.0485   -2.1874    1.9984 H   0  0  0  0  0  0  0  0  0  0  0  0
  1  3  1  0
  1  8  1  0
  1  9  1  0
  1 10  1  0
  2 11  1  0
  2 12  1  0
  2 13  1  0
  2 14  1  0
  3  4  1  0
  3  5  1  0
  4  6  2  3
  4 15  1  0
  5  7  2  3
  5 16  1  0
  6 17  1  0
  6 18  1  0
  7 19  1  0
  7 20  1  0
M  RAD  1   3   2
M  END
>  <reaction>  (17) 
rxn_1170

>  <mol_properties>  (17) 
{"0": {"label": "*3", "atom_type": "Cs"}, "1": {"label": "*4", "atom_type": "H0"}, "5": {"label": "*0", "atom_type": "Cd"}, "6": {"label": "*1", "atom_type": "Cs"}, "13": {"label": "*2", "atom_type": "H0"}}

>  <type>  (17) 
unop_13

>  <geom_source>  (17) 
AutoTST

$$$$

     RDKit          3D

 20 18  0  0  0  0  0  0  0  0999 V2000
    0.2545    2.0697   -1.4473 C   0  0  0  0  0  0  0  0  0  0  0  0
   -0.2408    1.8262   -2.3860 H   0  0  0  0  0  0  0  0  0  0  0  0
    1.1605    2.6380   -1.6517 H   0  0  0  0  0  0  0  0  0  0  0  0
   -0.0420    2.4374   -0.4661 H   0  0  0  0  0  0  0  0  0  0  0  0
    0.1815   -1.2429   -2.0475 C   0  0  0  0  0  0  0  0  0  0  0  0
    0.1815   -1.2429   -0.7243 C   0  0  0  0  0  0  0  0  0  0  0  0
    0.1815   -0.0121    0.1451 C   0  0  0  0  0  3  0  0  0  0  0  0
    1.4199    0.0177    1.0367 C   0  0  0  0  0  0  0  0  0  0  0  0
   -1.1220    0.0565    0.9016 C   0  0  0  0  0  0  0  0  0  0  0  0
   -1.2766    0.0567    2.2166 C   0  0  0  0  0  0  0  0  0  0  0  0
    0.1808   -2.1655   -2.6142 H   0  0  0  0  0  0  0  0  0  0  0  0
    0.1833   -0.3171   -2.6132 H   0  0  0  0  0  0  0  0  0  0  0  0
    0.1767   -2.1887   -0.1867 H   0  0  0  0  0  0  0  0  0  0  0  0
    0.2181    1.0322   -0.6537 H   0  0  0  0  0  0  0  0  0  0  0  0
    2.3226    0.0093    0.4255 H   0  0  0  0  0  0  0  0  0  0  0  0
    1.4345    0.9134    1.6598 H   0  0  0  0  0  0  0  0  0  0  0  0
    1.4525   -0.8541    1.6943 H   0  0  0  0  0  0  0  0  0  0  0  0
   -2.0052    0.0922    0.2691 H   0  0  0  0  0  0  0  0  0  0  0  0
   -0.4363    0.0174    2.8991 H   0  0  0  0  0  0  0  0  0  0  0  0
   -2.2630    0.0998    2.6608 H   0  0  0  0  0  0  0  0  0  0  0  0
  1  2  1  0
  1  3  1  0
  1  4  1  0
  1 14  1  0
  5  6  2  3
  5 11  1  0
  5 12  1  0
  6  7  1  0
  6 13  1  0
  7  8  1  0
  7  9  1  0
  8 15  1  0
  8 16  1  0
  8 17  1  0
  9 10  2  3
  9 18  1  0
 10 19  1  0
 10 20  1  0
M  RAD  1   7   2
M  END
>  <reaction>  (18) 
rxn_1170

>  <mol_properties>  (18) 
{"0": {"label": "*3", "atom_type": "Cs"}, "1": {"label": "*4", "atom_type": "H0"}, "5": {"label": "*0", "atom_type": "Cd"}, "6": {"label": "*1", "atom_type": "Cs"}, "13": {"label": "*2", "atom_type": "H0"}}

>  <type>  (18) 
unop_14

>  <geom_source>  (18) 
gaussian_log

$$$$
