
     RDKit          3D

 12 11  0  0  0  0  0  0  0  0999 V2000
    2.1696    0.6854    1.1310 C   0  0  0  0  0  0  0  0  0  0  0  0
    1.2518    0.4145    0.4134 C   0  0  0  0  0  0  0  0  0  0  0  0
    0.1391    0.0443   -0.4683 C   0  0  0  0  0  0  0  0  0  0  0  0
   -0.2054   -1.4492   -0.3339 C   0  0  0  0  0  0  0  0  0  0  0  0
   -1.0375    0.8853   -0.2222 C   0  0  0  0  0  0  0  0  0  0  0  0
   -2.0160    1.5463   -0.0311 C   0  0  0  0  0  0  0  0  0  0  0  0
    2.9819    0.9356    1.7702 H   0  0  0  0  0  0  0  0  0  0  0  0
    0.4629    0.2285   -1.4981 H   0  0  0  0  0  0  0  0  0  0  0  0
   -0.5327   -1.6703    0.6812 H   0  0  0  0  0  0  0  0  0  0  0  0
    0.6727   -2.0535   -0.5593 H   0  0  0  0  0  0  0  0  0  0  0  0
   -1.0064   -1.7081   -1.0256 H   0  0  0  0  0  0  0  0  0  0  0  0
   -2.8802    2.1413    0.1426 H   0  0  0  0  0  0  0  0  0  0  0  0
  1  2  3  0
  1  7  1  0
  2  3  1  0
  3  4  1  0
  3  5  1  0
  3  8  1  0
  4  9  1  0
  4 10  1  0
  4 11  1  0
  5  6  3  0
  6 12  1  0
M  END
>  <reaction>  (1) 
rxn_1415

>  <mol_properties>  (1) 
{"2": {"label": "donator", "atom_type": "Cs"}, "7": {"label": "d_hydrogen", "atom_type": "H0"}}

>  <type>  (1) 
r1h

$$$$

     RDKit          3D

  9  8  0  0  0  0  0  0  0  0999 V2000
   -1.2704   -0.1236    0.1096 C   0  0  0  0  0  0  0  0  0  0  0  0
    0.0713   -0.5323    0.5887 C   0  0  0  0  0  0  0  0  0  0  0  0
    0.9521   -1.3639   -0.0464 C   0  0  0  0  0  0  0  0  0  0  0  0
    0.6900   -2.1109   -1.5335 S   0  0  0  0  0  1  0  0  0  0  0  0
   -1.3201    0.9657    0.0241 H   0  0  0  0  0  0  0  0  0  0  0  0
   -1.5103   -0.5706   -0.8526 H   0  0  0  0  0  0  0  0  0  0  0  0
   -2.0312   -0.4112    0.8411 H   0  0  0  0  0  0  0  0  0  0  0  0
    0.3863   -0.1265    1.5468 H   0  0  0  0  0  0  0  0  0  0  0  0
    1.8971   -1.5543    0.4552 H   0  0  0  0  0  0  0  0  0  0  0  0
  1  2  1  0
  1  5  1  0
  1  6  1  0
  1  7  1  0
  2  3  2  3
  2  8  1  0
  3  4  1  0
  3  9  1  0
M  RAD  1   4   2
M  END
>  <reaction>  (2) 
rxn_1415

>  <mol_properties>  (2) 
{"1": {"label": "acceptor", "atom_type": "Cs"}}

>  <type>  (2) 
r2

$$$$

     RDKit          3D

 10  9  0  0  0  0  0  0  0  0999 V2000
   -1.1508    0.0666    0.2839 C   0  0  0  0  0  0  0  0  0  0  0  0
    0.1022   -0.3749   -0.4771 C   0  0  0  0  0  0  0  0  0  0  0  0
    1.3428    0.1620    0.1542 C   0  0  0  0  0  0  0  0  0  0  0  0
    2.5613   -0.6971    0.7526 S   0  0  0  0  0  0  0  0  0  0  0  0
   -1.2137    1.1546    0.3481 H   0  0  0  0  0  0  0  0  0  0  0  0
   -2.0472   -0.2935   -0.2212 H   0  0  0  0  0  0  0  0  0  0  0  0
   -1.1467   -0.3334    1.2987 H   0  0  0  0  0  0  0  0  0  0  0  0
    0.1602   -1.4616   -0.5369 H   0  0  0  0  0  0  0  0  0  0  0  0
    0.0536    0.0174   -1.4997 H   0  0  0  0  0  0  0  0  0  0  0  0
    1.3824    1.2528    0.2110 H   0  0  0  0  0  0  0  0  0  0  0  0
  1  2  1  0
  1  5  1  0
  1  6  1  0
  1  7  1  0
  2  3  1  0
  2  8  1  0
  2  9  1  0
  3  4  2  0
  3 10  1  0
M  END
>  <reaction>  (3) 
rxn_1415

>  <mol_properties>  (3) 
{"0": {"label": "a_hydrogen", "atom_type": "H0"}, "2": {"label": "acceptor", "atom_type": "Cs"}}

>  <type>  (3) 
r2h

$$$$

     RDKit          3D

 21 19  0  0  0  0  0  0  0  0999 V2000
   -1.0360   -1.3996   -2.9886 C   0  0  0  0  0  0  0  0  0  0  0  0
   -1.0627   -0.9889   -1.8609 C   0  0  0  0  0  0  0  0  0  0  0  0
   -1.0206   -0.4718   -0.5269 C   0  0  0  0  0  3  0  0  0  0  0  0
   -1.2579    1.0197   -0.3692 C   0  0  0  0  0  0  0  0  0  0  0  0
   -1.5798   -1.3049    0.4940 C   0  0  0  0  0  0  0  0  0  0  0  0
   -1.9797   -1.9784    1.4034 C   0  0  0  0  0  0  0  0  0  0  0  0
   -1.0351   -1.7695   -3.9859 H   0  0  0  0  0  0  0  0  0  0  0  0
    0.3103   -0.5633   -0.2045 H   0  0  0  0  0  0  0  0  0  0  0  0
   -2.3202    1.2465   -0.4781 H   0  0  0  0  0  0  0  0  0  0  0  0
   -0.7044    1.5700   -1.1284 H   0  0  0  0  0  0  0  0  0  0  0  0
   -0.9315    1.3454    0.6187 H   0  0  0  0  0  0  0  0  0  0  0  0
   -2.3582   -2.5765    2.1973 H   0  0  0  0  0  0  0  0  0  0  0  0
    2.1192    0.5340   -0.8913 C   0  0  0  0  0  0  0  0  0  0  0  0
    1.6171   -0.5559    0.0137 C   0  0  0  0  0  0  0  0  0  0  0  0
    1.6659   -0.4309    1.4436 C   0  0  0  0  0  0  0  0  0  0  0  0
    1.8784    0.9499    2.2944 S   0  0  0  0  0  0  0  0  0  0  0  0
    1.8198    1.5156   -0.5261 H   0  0  0  0  0  0  0  0  0  0  0  0
    3.2110    0.5175   -0.9318 H   0  0  0  0  0  0  0  0  0  0  0  0
    1.7410    0.3920   -1.9049 H   0  0  0  0  0  0  0  0  0  0  0  0
    1.8002   -1.5701   -0.3430 H   0  0  0  0  0  0  0  0  0  0  0  0
    1.4917   -1.3574    1.9891 H   0  0  0  0  0  0  0  0  0  0  0  0
  1  2  3  0
  1  7  1  0
  2  3  1  0
  3  4  1  0
  3  5  1  0
  4  9  1  0
  4 10  1  0
  4 11  1  0
  5  6  3  0
  6 12  1  0
  8 14  1  0
 13 14  1  0
 13 17  1  0
 13 18  1  0
 13 19  1  0
 14 15  1  0
 14 20  1  0
 15 16  2  0
 15 21  1  0
M  RAD  1   3   2
M  END
>  <reaction>  (4) 
rxn_1415

>  <mol_properties>  (4) 
{"1": {"label": "*4", "atom_type": "Ct"}, "2": {"label": "*3", "atom_type": "Cs"}, "7": {"label": "*2", "atom_type": "H0"}, "13": {"label": "*1", "atom_type": "Cs"}, "14": {"label": "*0", "atom_type": "CS"}}

>  <type>  (4) 
ts

$$$$

     RDKit          3D

 21 20  0  0  0  0  0  0  0  0999 V2000
   -0.5297    0.4530   -3.1797 C   0  0  0  0  0  3  0  0  0  0  0  0
   -0.5297    0.4530   -1.9835 C   0  0  0  0  0  0  0  0  0  0  0  0
   -0.5297    0.4931   -0.5170 C   0  0  0  0  0  0  0  0  0  0  0  0
   -1.1677    1.7923    0.0050 C   0  0  0  0  0  0  0  0  0  0  0  0
   -1.1915   -0.6882    0.0478 C   0  0  0  0  0  0  0  0  0  0  0  0
   -1.7398   -1.6334    0.5343 C   0  0  0  0  0  3  0  0  0  0  0  0
   -0.5297    0.4530   -4.2432 H   0  0  0  0  0  0  0  0  0  0  0  0
    0.7239    0.4658   -0.1239 H   0  0  0  0  0  0  0  0  0  0  0  0
   -2.2110    1.8495   -0.3028 H   0  0  0  0  0  0  0  0  0  0  0  0
   -0.6351    2.6537   -0.3967 H   0  0  0  0  0  0  0  0  0  0  0  0
   -1.1205    1.8167    1.0932 H   0  0  0  0  0  0  0  0  0  0  0  0
   -2.2272   -2.4739    0.9668 H   0  0  0  0  0  0  0  0  0  0  0  0
    2.3192    1.6893    1.0794 C   0  0  0  0  0  0  0  0  0  0  0  0
    1.9716    0.4387    0.2674 C   0  0  0  0  0  0  0  0  0  0  0  0
    1.3114   -0.5970    1.1144 C   0  0  0  0  0  3  0  0  0  0  0  0
   -0.1579   -1.2118    0.9036 S   0  0  0  0  0  0  0  0  0  0  0  0
    1.4151    2.1634    1.4634 H   0  0  0  0  0  0  0  0  0  0  0  0
    2.9615    1.4460    1.9280 H   0  0  0  0  0  0  0  0  0  0  0  0
    2.8449    2.4120    0.4553 H   0  0  0  0  0  0  0  0  0  0  0  0
    2.8966    0.0035   -0.1285 H   0  0  0  0  0  0  0  0  0  0  0  0
    1.9129   -0.9347    1.9620 H   0  0  0  0  0  0  0  0  0  0  0  0
  1  2  2  0
  1  7  1  0
  2  3  2  0
  3  4  1  0
  3  5  1  0
  4  9  1  0
  4 10  1  0
  4 11  1  0
  5  6  2  3
  5 16  1  0
  6 12  1  0
  8 14  1  0
 13 14  1  0
 13 17  1  0
 13 18  1  0
 13 19  1  0
 14 15  1  0
 14 20  1  0
 15 16  1  0
 15 21  1  0
M  CHG  2   1   1   6  -1
M  RAD  1  15   2
M  END
>  <reaction>  (5) 
rxn_1415

>  <mol_properties>  (5) 
{"1": {"label": "*4", "atom_type": "Ct"}, "2": {"label": "*3", "atom_type": "Cs"}, "7": {"label": "*2", "atom_type": "H0"}, "13": {"label": "*1", "atom_type": "Cs"}, "14": {"label": "*0", "atom_type": "CS"}}

>  <type>  (5) 
unop_1

>  <geom_source>  (5) 
Heuristics

$$$$

     RDKit          3D

 21 19  0  0  0  0  0  0  0  0999 V2000
   -0.7341   -0.3094   -3.2447 C   0  0  0  0  0  0  0  0  0  0  0  0
   -0.7341   -0.3094   -2.0485 C   0  0  0  0  0  0  0  0  0  0  0  0
   -0.7341   -0.2693   -0.5820 C   0  0  0  0  0  3  0  0  0  0  0  0
   -1.3721    1.0299   -0.0600 C   0  0  0  0  0  0  0  0  0  0  0  0
   -1.3959   -1.4506   -0.0172 C   0  0  0  0  0  0  0  0  0  0  0  0
   -1.9442   -2.3958    0.4693 C   0  0  0  0  0  0  0  0  0  0  0  0
   -0.7341   -0.3094   -4.3082 H   0  0  0  0  0  0  0  0  0  0  0  0
    0.5195   -0.2966   -0.1889 H   0  0  0  0  0  0  0  0  0  0  0  0
   -2.4154    1.0872   -0.3678 H   0  0  0  0  0  0  0  0  0  0  0  0
   -0.8395    1.8913   -0.4617 H   0  0  0  0  0  0  0  0  0  0  0  0
   -1.3249    1.0543    1.0282 H   0  0  0  0  0  0  0  0  0  0  0  0
   -2.4316   -3.2363    0.9018 H   0  0  0  0  0  0  0  0  0  0  0  0
    2.6815    0.3356   -0.8337 C   0  0  0  0  0  0  0  0  0  0  0  0
    1.7672   -0.3237    0.2024 C   0  0  0  0  0  0  0  0  0  0  0  0
    1.5529    0.5613    1.3843 C   0  0  0  0  0  0  0  0  0  0  0  0
    0.1466    1.1348    1.9084 S   0  0  0  0  0  0  0  0  0  0  0  0
    2.2234    1.2423   -1.2309 H   0  0  0  0  0  0  0  0  0  0  0  0
    3.6456    0.6051   -0.3982 H   0  0  0  0  0  0  0  0  0  0  0  0
    2.8657   -0.3458   -1.6643 H   0  0  0  0  0  0  0  0  0  0  0  0
    2.2412   -1.2454    0.5595 H   0  0  0  0  0  0  0  0  0  0  0  0
    2.4698    0.8378    1.9108 H   0  0  0  0  0  0  0  0  0  0  0  0
  1  2  3  0
  1  7  1  0
  2  3  1  0
  3  4  1  0
  3  5  1  0
  4  9  1  0
  4 10  1  0
  4 11  1  0
  5  6  3  0
  6 12  1  0
  8 14  1  0
 13 14  1  0
 13 17  1  0
 13 18  1  0
 13 19  1  0
 14 15  1  0
 14 20  1  0
 15 16  2  0
 15 21  1  0
M  RAD  1   3   2
M  END
>  <reaction>  (6) 
rxn_1415

>  <mol_properties>  (6) 
{"1": {"label": "*4", "atom_type": "Ct"}, "2": {"label": "*3", "atom_type": "Cs"}, "7": {"label": "*2", "atom_type": "H0"}, "13": {"label": "*1", "atom_type": "Cs"}, "14": {"label": "*0", "atom_type": "CS"}}

>  <type>  (6) 
unop_2

>  <geom_source>  (6) 
Heuristics

$$$$

     RDKit          3D

 21 20  0  0  0  0  0  0  0  0999 V2000
   -0.6852    0.6808   -2.9940 C   0  0  0  0  0  3  0  0  0  0  0  0
   -0.6852    0.6808   -1.7978 C   0  0  0  0  0  0  0  0  0  0  0  0
   -0.6852    0.7208   -0.3313 C   0  0  0  0  0  0  0  0  0  0  0  0
   -1.3232    2.0201    0.1907 C   0  0  0  0  0  0  0  0  0  0  0  0
   -1.3470   -0.4604    0.2335 C   0  0  0  0  0  0  0  0  0  0  0  0
   -1.8952   -1.4057    0.7200 C   0  0  0  0  0  3  0  0  0  0  0  0
   -0.6852    0.6808   -4.0575 H   0  0  0  0  0  0  0  0  0  0  0  0
    0.5684    0.6936    0.0618 H   0  0  0  0  0  0  0  0  0  0  0  0
   -2.3664    2.0773   -0.1171 H   0  0  0  0  0  0  0  0  0  0  0  0
   -0.7906    2.8815   -0.2110 H   0  0  0  0  0  0  0  0  0  0  0  0
   -1.2760    2.0445    1.2789 H   0  0  0  0  0  0  0  0  0  0  0  0
   -2.3827   -2.2461    1.1525 H   0  0  0  0  0  0  0  0  0  0  0  0
    1.9918    1.4127    1.7785 C   0  0  0  0  0  0  0  0  0  0  0  0
    1.8161    0.6665    0.4531 C   0  0  0  0  0  0  0  0  0  0  0  0
    1.6031   -0.7939    0.6720 C   0  0  0  0  0  3  0  0  0  0  0  0
    0.3179   -1.6507    0.2301 S   0  0  0  0  0  0  0  0  0  0  0  0
    1.0879    1.3402    2.3846 H   0  0  0  0  0  0  0  0  0  0  0  0
    2.8223    1.0040    2.3572 H   0  0  0  0  0  0  0  0  0  0  0  0
    2.1959    2.4676    1.5949 H   0  0  0  0  0  0  0  0  0  0  0  0
    2.7280    0.7831   -0.1440 H   0  0  0  0  0  0  0  0  0  0  0  0
    2.4180   -1.2923    1.2031 H   0  0  0  0  0  0  0  0  0  0  0  0
  1  2  2  0
  1  7  1  0
  2  3  2  0
  3  4  1  0
  3  5  1  0
  4  9  1  0
  4 10  1  0
  4 11  1  0
  5  6  2  3
  5 16  1  0
  6 12  1  0
  8 14  1  0
 13 14  1  0
 13 17  1  0
 13 18  1  0
 13 19  1  0
 14 15  1  0
 14 20  1  0
 15 16  1  0
 15 21  1  0
M  CHG  2   1   1   6  -1
M  RAD  1  15   2
M  END
>  <reaction>  (7) 
rxn_1415

>  <mol_properties>  (7) 
{"1": {"label": "*4", "atom_type": "Ct"}, "2": {"label": "*3", "atom_type": "Cs"}, "7": {"label": "*2", "atom_type": "H0"}, "13": {"label": "*1", "atom_type": "Cs"}, "14": {"label": "*0", "atom_type": "CS"}}

>  <type>  (7) 
unop_3

>  <geom_source>  (7) 
Heuristics

$$$$

     RDKit          3D

 21 19  0  0  0  0  0  0  0  0999 V2000
   -1.3584   -0.3558   -2.7550 C   0  0  0  0  0  0  0  0  0  0  0  0
   -1.3584   -0.3558   -1.5588 C   0  0  0  0  0  0  0  0  0  0  0  0
   -1.3584   -0.3157   -0.0923 C   0  0  0  0  0  3  0  0  0  0  0  0
   -1.9964    0.9835    0.4297 C   0  0  0  0  0  0  0  0  0  0  0  0
   -2.0202   -1.4969    0.4725 C   0  0  0  0  0  0  0  0  0  0  0  0
   -2.5685   -2.4422    0.9590 C   0  0  0  0  0  0  0  0  0  0  0  0
   -1.3584   -0.3558   -3.8184 H   0  0  0  0  0  0  0  0  0  0  0  0
   -0.1048   -0.3429    0.3009 H   0  0  0  0  0  0  0  0  0  0  0  0
   -3.0397    1.0408    0.1220 H   0  0  0  0  0  0  0  0  0  0  0  0
   -1.4638    1.8450    0.0281 H   0  0  0  0  0  0  0  0  0  0  0  0
   -1.9492    1.0080    1.5180 H   0  0  0  0  0  0  0  0  0  0  0  0
   -3.0559   -3.2826    1.3915 H   0  0  0  0  0  0  0  0  0  0  0  0
    1.8420   -1.6434    0.2084 C   0  0  0  0  0  0  0  0  0  0  0  0
    1.1429   -0.3701    0.6921 C   0  0  0  0  0  0  0  0  0  0  0  0
    2.1172    0.7377    0.9147 C   0  0  0  0  0  0  0  0  0  0  0  0
    2.1296    2.1644    0.1762 S   0  0  0  0  0  0  0  0  0  0  0  0
    2.3178   -1.4783   -0.7591 H   0  0  0  0  0  0  0  0  0  0  0  0
    2.6100   -1.9671    0.9135 H   0  0  0  0  0  0  0  0  0  0  0  0
    1.1208   -2.4536    0.1003 H   0  0  0  0  0  0  0  0  0  0  0  0
    0.6507   -0.5767    1.6497 H   0  0  0  0  0  0  0  0  0  0  0  0
    2.8941    0.5120    1.6495 H   0  0  0  0  0  0  0  0  0  0  0  0
  1  2  3  0
  1  7  1  0
  2  3  1  0
  3  4  1  0
  3  5  1  0
  4  9  1  0
  4 10  1  0
  4 11  1  0
  5  6  3  0
  6 12  1  0
  8 14  1  0
 13 14  1  0
 13 17  1  0
 13 18  1  0
 13 19  1  0
 14 15  1  0
 14 20  1  0
 15 16  2  0
 15 21  1  0
M  RAD  1   3   2
M  END
>  <reaction>  (8) 
rxn_1415

>  <mol_properties>  (8) 
{"1": {"label": "*4", "atom_type": "Ct"}, "2": {"label": "*3", "atom_type": "Cs"}, "7": {"label": "*2", "atom_type": "H0"}, "13": {"label": "*1", "atom_type": "Cs"}, "14": {"label": "*0", "atom_type": "CS"}}

>  <type>  (8) 
unop_4

>  <geom_source>  (8) 
Heuristics

$$$$

     RDKit          3D

 21 19  0  0  0  0  0  0  0  0999 V2000
   -1.0688    0.7351   -2.6904 C   0  0  0  0  0  0  0  0  0  0  0  0
   -1.0688    0.7351   -1.4942 C   0  0  0  0  0  0  0  0  0  0  0  0
   -1.0688    0.7752   -0.0277 C   0  0  0  0  0  3  0  0  0  0  0  0
   -1.7068    2.0744    0.4943 C   0  0  0  0  0  0  0  0  0  0  0  0
   -1.7306   -0.4061    0.5371 C   0  0  0  0  0  0  0  0  0  0  0  0
   -2.2789   -1.3514    1.0236 C   0  0  0  0  0  0  0  0  0  0  0  0
   -1.0688    0.7351   -3.7538 H   0  0  0  0  0  0  0  0  0  0  0  0
    0.1848    0.7479    0.3655 H   0  0  0  0  0  0  0  0  0  0  0  0
   -2.7501    2.1316    0.1866 H   0  0  0  0  0  0  0  0  0  0  0  0
   -1.1742    2.9358    0.0927 H   0  0  0  0  0  0  0  0  0  0  0  0
   -1.6596    2.0988    1.5826 H   0  0  0  0  0  0  0  0  0  0  0  0
   -2.7663   -2.1918    1.4561 H   0  0  0  0  0  0  0  0  0  0  0  0
    1.5294    0.7596    2.2843 C   0  0  0  0  0  0  0  0  0  0  0  0
    1.4325    0.7208    0.7568 C   0  0  0  0  0  0  0  0  0  0  0  0
    2.1103   -0.4844    0.1964 C   0  0  0  0  0  0  0  0  0  0  0  0
    1.4286   -1.6451   -0.6806 S   0  0  0  0  0  0  0  0  0  0  0  0
    1.0126   -0.0937    2.7253 H   0  0  0  0  0  0  0  0  0  0  0  0
    2.5689    0.7360    2.6169 H   0  0  0  0  0  0  0  0  0  0  0  0
    1.0729    1.6714    2.6696 H   0  0  0  0  0  0  0  0  0  0  0  0
    1.9343    1.6048    0.3462 H   0  0  0  0  0  0  0  0  0  0  0  0
    3.1728   -0.5574    0.4419 H   0  0  0  0  0  0  0  0  0  0  0  0
  1  2  3  0
  1  7  1  0
  2  3  1  0
  3  4  1  0
  3  5  1  0
  4  9  1  0
  4 10  1  0
  4 11  1  0
  5  6  3  0
  6 12  1  0
  8 14  1  0
 13 14  1  0
 13 17  1  0
 13 18  1  0
 13 19  1  0
 14 15  1  0
 14 20  1  0
 15 16  2  0
 15 21  1  0
M  RAD  1   3   2
M  END
>  <reaction>  (9) 
rxn_1415

>  <mol_properties>  (9) 
{"1": {"label": "*4", "atom_type": "Ct"}, "2": {"label": "*3", "atom_type": "Cs"}, "7": {"label": "*2", "atom_type": "H0"}, "13": {"label": "*1", "atom_type": "Cs"}, "14": {"label": "*0", "atom_type": "CS"}}

>  <type>  (9) 
unop_5

>  <geom_source>  (9) 
Heuristics

$$$$

     RDKit          3D

 21 19  0  0  0  0  0  0  0  0999 V2000
   -1.4530   -0.1924   -2.6130 C   0  0  0  0  0  0  0  0  0  0  0  0
   -1.4530   -0.1924   -1.4169 C   0  0  0  0  0  0  0  0  0  0  0  0
   -1.4530   -0.1523    0.0497 C   0  0  0  0  0  3  0  0  0  0  0  0
   -2.0910    1.1469    0.5717 C   0  0  0  0  0  0  0  0  0  0  0  0
   -2.1148   -1.3335    0.6145 C   0  0  0  0  0  0  0  0  0  0  0  0
   -2.6630   -2.2788    1.1009 C   0  0  0  0  0  0  0  0  0  0  0  0
   -1.4530   -0.1924   -3.6765 H   0  0  0  0  0  0  0  0  0  0  0  0
   -0.1994   -0.1795    0.4428 H   0  0  0  0  0  0  0  0  0  0  0  0
   -3.1343    1.2042    0.2639 H   0  0  0  0  0  0  0  0  0  0  0  0
   -1.5584    2.0084    0.1700 H   0  0  0  0  0  0  0  0  0  0  0  0
   -2.0438    1.1714    1.6599 H   0  0  0  0  0  0  0  0  0  0  0  0
   -3.1505   -3.1192    1.5335 H   0  0  0  0  0  0  0  0  0  0  0  0
    1.5284   -1.6462    1.0373 C   0  0  0  0  0  0  0  0  0  0  0  0
    1.0483   -0.2066    0.8341 C   0  0  0  0  0  0  0  0  0  0  0  0
    2.1950    0.7395    0.7083 C   0  0  0  0  0  0  0  0  0  0  0  0
    2.5263    1.6799   -0.5514 S   0  0  0  0  0  0  0  0  0  0  0  0
    2.0931   -1.9904    0.1699 H   0  0  0  0  0  0  0  0  0  0  0  0
    2.1709   -1.7303    1.9158 H   0  0  0  0  0  0  0  0  0  0  0  0
    0.6775   -2.3130    1.1770 H   0  0  0  0  0  0  0  0  0  0  0  0
    0.4604    0.0986    1.7076 H   0  0  0  0  0  0  0  0  0  0  0  0
    2.8626    0.7542    1.5735 H   0  0  0  0  0  0  0  0  0  0  0  0
  1  2  3  0
  1  7  1  0
  2  3  1  0
  3  4  1  0
  3  5  1  0
  4  9  1  0
  4 10  1  0
  4 11  1  0
  5  6  3  0
  6 12  1  0
  8 14  1  0
 13 14  1  0
 13 17  1  0
 13 18  1  0
 13 19  1  0
 14 15  1  0
 14 20  1  0
 15 16  2  0
 15 21  1  0
M  RAD  1   3   2
M  END
>  <reaction>  (10) 
rxn_1415

>  <mol_properties>  (10) 
{"1": {"label": "*4", "atom_type": "Ct"}, "2": {"label": "*3", "atom_type": "Cs"}, "7": {"label": "*2", "atom_type": "H0"}, "13": {"label": "*1", "atom_type": "Cs"}, "14": {"label": "*0", "atom_type": "CS"}}

>  <type>  (10) 
unop_6

>  <geom_source>  (10) 
Heuristics

$$$$

     RDKit          3D

 21 19  0  0  0  0  0  0  0  0999 V2000
   -1.4849    0.0491   -2.5032 C   0  0  0  0  0  0  0  0  0  0  0  0
   -1.4849    0.0491   -1.3070 C   0  0  0  0  0  0  0  0  0  0  0  0
   -1.4849    0.0892    0.1596 C   0  0  0  0  0  3  0  0  0  0  0  0
   -2.1229    1.3884    0.6816 C   0  0  0  0  0  0  0  0  0  0  0  0
   -2.1468   -1.0920    0.7243 C   0  0  0  0  0  0  0  0  0  0  0  0
   -2.6950   -2.0373    1.2108 C   0  0  0  0  0  0  0  0  0  0  0  0
   -1.4849    0.0491   -3.5666 H   0  0  0  0  0  0  0  0  0  0  0  0
   -0.2313    0.0620    0.5527 H   0  0  0  0  0  0  0  0  0  0  0  0
   -3.1662    1.4457    0.3738 H   0  0  0  0  0  0  0  0  0  0  0  0
   -1.5903    2.2499    0.2799 H   0  0  0  0  0  0  0  0  0  0  0  0
   -2.0758    1.4129    1.7698 H   0  0  0  0  0  0  0  0  0  0  0  0
   -3.1824   -2.8777    1.6433 H   0  0  0  0  0  0  0  0  0  0  0  0
    1.2890   -1.1883    1.8236 C   0  0  0  0  0  0  0  0  0  0  0  0
    1.0163    0.0348    0.9440 C   0  0  0  0  0  0  0  0  0  0  0  0
    2.2828    0.6258    0.4215 C   0  0  0  0  0  0  0  0  0  0  0  0
    2.6954    0.7938   -1.1220 S   0  0  0  0  0  0  0  0  0  0  0  0
    1.7609   -1.9827    1.2440 H   0  0  0  0  0  0  0  0  0  0  0  0
    1.9482   -0.9389    2.6573 H   0  0  0  0  0  0  0  0  0  0  0  0
    0.3563   -1.5742    2.2353 H   0  0  0  0  0  0  0  0  0  0  0  0
    0.5161    0.8018    1.5468 H   0  0  0  0  0  0  0  0  0  0  0  0
    2.9806    0.9508    1.1973 H   0  0  0  0  0  0  0  0  0  0  0  0
  1  2  3  0
  1  7  1  0
  2  3  1  0
  3  4  1  0
  3  5  1  0
  4  9  1  0
  4 10  1  0
  4 11  1  0
  5  6  3  0
  6 12  1  0
  8 14  1  0
 13 14  1  0
 13 17  1  0
 13 18  1  0
 13 19  1  0
 14 15  1  0
 14 20  1  0
 15 16  2  0
 15 21  1  0
M  RAD  1   3   2
M  END
>  <reaction>  (11) 
rxn_1415

>  <mol_properties>  (11) 
{"1": {"label": "*4", "atom_type": "Ct"}, "2": {"label": "*3", "atom_type": "Cs"}, "7": {"label": "*2", "atom_type": "H0"}, "13": {"label": "*1", "atom_type": "Cs"}, "14": {"label": "*0", "atom_type": "CS"}}

>  <type>  (11) 
unop_7

>  <geom_source>  (11) 
Heuristics

$$$$

     RDKit          3D

 21 20  0  0  0  0  0  0  0  0999 V2000
   -0.5063    0.2016   -3.2835 C   0  0  0  0  0  3  0  0  0  0  0  0
   -0.5063    0.2016   -2.0873 C   0  0  0  0  0  0  0  0  0  0  0  0
   -0.5063    0.2417   -0.6208 C   0  0  0  0  0  0  0  0  0  0  0  0
   -1.1444    1.5409   -0.0988 C   0  0  0  0  0  0  0  0  0  0  0  0
   -1.1682   -0.9396   -0.0560 C   0  0  0  0  0  0  0  0  0  0  0  0
   -1.7164   -1.8848    0.4305 C   0  0  0  0  0  3  0  0  0  0  0  0
   -0.5063    0.2016   -4.3469 H   0  0  0  0  0  0  0  0  0  0  0  0
    0.7473    0.2144   -0.2276 H   0  0  0  0  0  0  0  0  0  0  0  0
   -2.1876    1.5982   -0.4065 H   0  0  0  0  0  0  0  0  0  0  0  0
   -0.6117    2.4023   -0.5004 H   0  0  0  0  0  0  0  0  0  0  0  0
   -1.0972    1.5653    0.9895 H   0  0  0  0  0  0  0  0  0  0  0  0
   -2.2038   -2.7253    0.8630 H   0  0  0  0  0  0  0  0  0  0  0  0
    2.5616    1.6042    0.2888 C   0  0  0  0  0  0  0  0  0  0  0  0
    1.9949    0.1873    0.1637 C   0  0  0  0  0  0  0  0  0  0  0  0
    1.2401   -0.2097    1.3878 C   0  0  0  0  0  3  0  0  0  0  0  0
   -0.3113   -0.6199    1.4649 S   0  0  0  0  0  0  0  0  0  0  0  0
    1.7569    2.3346    0.3816 H   0  0  0  0  0  0  0  0  0  0  0  0
    3.2075    1.6977    1.1639 H   0  0  0  0  0  0  0  0  0  0  0  0
    3.1507    1.8556   -0.5932 H   0  0  0  0  0  0  0  0  0  0  0  0
    2.8252   -0.5181    0.0423 H   0  0  0  0  0  0  0  0  0  0  0  0
    1.8322   -0.1922    2.3063 H   0  0  0  0  0  0  0  0  0  0  0  0
  1  2  2  0
  1  7  1  0
  2  3  2  0
  3  4  1  0
  3  5  1  0
  4  9  1  0
  4 10  1  0
  4 11  1  0
  5  6  2  3
  5 16  1  0
  6 12  1  0
  8 14  1  0
 13 14  1  0
 13 17  1  0
 13 18  1  0
 13 19  1  0
 14 15  1  0
 14 20  1  0
 15 16  1  0
 15 21  1  0
M  CHG  2   1   1   6  -1
M  RAD  1  15   2
M  END
>  <reaction>  (12) 
rxn_1415

>  <mol_properties>  (12) 
{"1": {"label": "*4", "atom_type": "Ct"}, "2": {"label": "*3", "atom_type": "Cs"}, "7": {"label": "*2", "atom_type": "H0"}, "13": {"label": "*1", "atom_type": "Cs"}, "14": {"label": "*0", "atom_type": "CS"}}

>  <type>  (12) 
unop_8

>  <geom_source>  (12) 
Heuristics

$$$$

     RDKit          3D

 21 19  0  0  0  0  0  0  0  0999 V2000
   -1.1964   -0.4552   -2.9176 C   0  0  0  0  0  0  0  0  0  0  0  0
   -1.1964   -0.4552   -1.7214 C   0  0  0  0  0  0  0  0  0  0  0  0
   -1.1964   -0.4151   -0.2549 C   0  0  0  0  0  3  0  0  0  0  0  0
   -1.8344    0.8841    0.2671 C   0  0  0  0  0  0  0  0  0  0  0  0
   -1.8582   -1.5964    0.3099 C   0  0  0  0  0  0  0  0  0  0  0  0
   -2.4065   -2.5417    0.7964 C   0  0  0  0  0  0  0  0  0  0  0  0
   -1.1964   -0.4552   -3.9810 H   0  0  0  0  0  0  0  0  0  0  0  0
    0.0572   -0.4424    0.1383 H   0  0  0  0  0  0  0  0  0  0  0  0
   -2.8777    0.9413   -0.0406 H   0  0  0  0  0  0  0  0  0  0  0  0
   -1.3018    1.7455   -0.1345 H   0  0  0  0  0  0  0  0  0  0  0  0
   -1.7872    0.9085    1.3554 H   0  0  0  0  0  0  0  0  0  0  0  0
   -2.8939   -3.3821    1.2289 H   0  0  0  0  0  0  0  0  0  0  0  0
    2.1760   -1.2384   -0.4675 C   0  0  0  0  0  0  0  0  0  0  0  0
    1.3049   -0.4695    0.5295 C   0  0  0  0  0  0  0  0  0  0  0  0
    2.0118    0.7328    1.0594 C   0  0  0  0  0  0  0  0  0  0  0  0
    1.5367    2.2612    0.9206 S   0  0  0  0  0  0  0  0  0  0  0  0
    2.3958   -0.6240   -1.3415 H   0  0  0  0  0  0  0  0  0  0  0  0
    3.1237   -1.5395   -0.0171 H   0  0  0  0  0  0  0  0  0  0  0  0
    1.6617   -2.1388   -0.8039 H   0  0  0  0  0  0  0  0  0  0  0  0
    1.0773   -1.1225    1.3802 H   0  0  0  0  0  0  0  0  0  0  0  0
    2.9506    0.5120    1.5734 H   0  0  0  0  0  0  0  0  0  0  0  0
  1  2  3  0
  1  7  1  0
  2  3  1  0
  3  4  1  0
  3  5  1  0
  4  9  1  0
  4 10  1  0
  4 11  1  0
  5  6  3  0
  6 12  1  0
  8 14  1  0
 13 14  1  0
 13 17  1  0
 13 18  1  0
 13 19  1  0
 14 15  1  0
 14 20  1  0
 15 16  2  0
 15 21  1  0
M  RAD  1   3   2
M  END
>  <reaction>  (13) 
rxn_1415

>  <mol_properties>  (13) 
{"1": {"label": "*4", "atom_type": "Ct"}, "2": {"label": "*3", "atom_type": "Cs"}, "7": {"label": "*2", "atom_type": "H0"}, "13": {"label": "*1", "atom_type": "Cs"}, "14": {"label": "*0", "atom_type": "CS"}}

>  <type>  (13) 
unop_9

>  <geom_source>  (13) 
Heuristics

$$$$

     RDKit          3D

 21 19  0  0  0  0  0  0  0  0999 V2000
   -0.5736   -0.0650   -3.3106 C   0  0  0  0  0  0  0  0  0  0  0  0
   -0.5736   -0.0650   -2.1144 C   0  0  0  0  0  0  0  0  0  0  0  0
   -0.5736   -0.0249   -0.6479 C   0  0  0  0  0  3  0  0  0  0  0  0
   -1.2116    1.2743   -0.1259 C   0  0  0  0  0  0  0  0  0  0  0  0
   -1.2354   -1.2062   -0.0831 C   0  0  0  0  0  0  0  0  0  0  0  0
   -1.7837   -2.1515    0.4034 C   0  0  0  0  0  0  0  0  0  0  0  0
   -0.5736   -0.0650   -4.3740 H   0  0  0  0  0  0  0  0  0  0  0  0
    0.6800   -0.0522   -0.2547 H   0  0  0  0  0  0  0  0  0  0  0  0
   -2.2549    1.3315   -0.4336 H   0  0  0  0  0  0  0  0  0  0  0  0
   -0.6790    2.1357   -0.5275 H   0  0  0  0  0  0  0  0  0  0  0  0
   -1.1644    1.2987    0.9624 H   0  0  0  0  0  0  0  0  0  0  0  0
   -2.2711   -2.9919    0.8359 H   0  0  0  0  0  0  0  0  0  0  0  0
    2.7018    1.1211   -0.4148 C   0  0  0  0  0  0  0  0  0  0  0  0
    1.9277   -0.0793    0.1365 C   0  0  0  0  0  0  0  0  0  0  0  0
    1.3326    0.2203    1.4715 C   0  0  0  0  0  0  0  0  0  0  0  0
   -0.2280    0.1929    1.8519 S   0  0  0  0  0  0  0  0  0  0  0  0
    2.0342    1.9678   -0.5795 H   0  0  0  0  0  0  0  0  0  0  0  0
    3.4875    1.4372    0.2740 H   0  0  0  0  0  0  0  0  0  0  0  0
    3.1698    0.8656   -1.3655 H   0  0  0  0  0  0  0  0  0  0  0  0
    2.6191   -0.9206    0.2626 H   0  0  0  0  0  0  0  0  0  0  0  0
    2.0621    0.4972    2.2368 H   0  0  0  0  0  0  0  0  0  0  0  0
  1  2  3  0
  1  7  1  0
  2  3  1  0
  3  4  1  0
  3  5  1  0
  4  9  1  0
  4 10  1  0
  4 11  1  0
  5  6  3  0
  6 12  1  0
  8 14  1  0
 13 14  1  0
 13 17  1  0
 13 18  1  0
 13 19  1  0
 14 15  1  0
 14 20  1  0
 15 16  2  0
 15 21  1  0
M  RAD  1   3   2
M  END
>  <reaction>  (14) 
rxn_1415

>  <mol_properties>  (14) 
{"1": {"label": "*4", "atom_type": "Ct"}, "2": {"label": "*3", "atom_type": "Cs"}, "7": {"label": "*2", "atom_type": "H0"}, "13": {"label": "*1", "atom_type": "Cs"}, "14": {"label": "*0", "atom_type": "CS"}}

>  <type>  (14) 
unop_10

>  <geom_source>  (14) 
Heuristics

$$$$

     RDKit          3D

 21 19  0  0  0  0  0  0  0  0999 V2000
   -1.4036    0.4010   -2.4853 C   0  0  0  0  0  0  0  0  0  0  0  0
   -1.4036    0.4010   -1.2891 C   0  0  0  0  0  0  0  0  0  0  0  0
   -1.4036    0.4411    0.1774 C   0  0  0  0  0  3  0  0  0  0  0  0
   -2.0416    1.7403    0.6994 C   0  0  0  0  0  0  0  0  0  0  0  0
   -2.0655   -0.7402    0.7422 C   0  0  0  0  0  0  0  0  0  0  0  0
   -2.6137   -1.6854    1.2287 C   0  0  0  0  0  0  0  0  0  0  0  0
   -1.4036    0.4010   -3.5488 H   0  0  0  0  0  0  0  0  0  0  0  0
   -0.1500    0.4138    0.5705 H   0  0  0  0  0  0  0  0  0  0  0  0
   -3.0849    1.7975    0.3917 H   0  0  0  0  0  0  0  0  0  0  0  0
   -1.5090    2.6017    0.2978 H   0  0  0  0  0  0  0  0  0  0  0  0
   -1.9945    1.7647    1.7876 H   0  0  0  0  0  0  0  0  0  0  0  0
   -3.1011   -2.5259    1.6612 H   0  0  0  0  0  0  0  0  0  0  0  0
    1.2301   -0.2953    2.3262 C   0  0  0  0  0  0  0  0  0  0  0  0
    1.0977    0.3867    0.9618 C   0  0  0  0  0  0  0  0  0  0  0  0
    2.3375    0.2260    0.1477 C   0  0  0  0  0  0  0  0  0  0  0  0
    2.4555   -0.4907   -1.2854 S   0  0  0  0  0  0  0  0  0  0  0  0
    1.3607   -1.3717    2.2082 H   0  0  0  0  0  0  0  0  0  0  0  0
    2.0862    0.0916    2.8822 H   0  0  0  0  0  0  0  0  0  0  0  0
    0.3347   -0.1236    2.9238 H   0  0  0  0  0  0  0  0  0  0  0  0
    0.9381    1.4604    1.1152 H   0  0  0  0  0  0  0  0  0  0  0  0
    3.2373    0.6357    0.6134 H   0  0  0  0  0  0  0  0  0  0  0  0
  1  2  3  0
  1  7  1  0
  2  3  1  0
  3  4  1  0
  3  5  1  0
  4  9  1  0
  4 10  1  0
  4 11  1  0
  5  6  3  0
  6 12  1  0
  8 14  1  0
 13 14  1  0
 13 17  1  0
 13 18  1  0
 13 19  1  0
 14 15  1  0
 14 20  1  0
 15 16  2  0
 15 21  1  0
M  RAD  1   3   2
M  END
>  <reaction>  (15) 
rxn_1415

>  <mol_properties>  (15) 
{"1": {"label": "*4", "atom_type": "Ct"}, "2": {"label": "*3", "atom_type": "Cs"}, "7": {"label": "*2", "atom_type": "H0"}, "13": {"label": "*1", "atom_type": "Cs"}, "14": {"label": "*0", "atom_type": "CS"}}

>  <type>  (15) 
unop_11

>  <geom_source>  (15) 
Heuristics

$$$$

     RDKit          3D

 21 19  0  0  0  0  0  0  0  0999 V2000
   -0.9676   -0.4538   -3.0954 C   0  0  0  0  0  0  0  0  0  0  0  0
   -0.9676   -0.4538   -1.8993 C   0  0  0  0  0  0  0  0  0  0  0  0
   -0.9676   -0.4137   -0.4327 C   0  0  0  0  0  3  0  0  0  0  0  0
   -1.6056    0.8855    0.0893 C   0  0  0  0  0  0  0  0  0  0  0  0
   -1.6294   -1.5949    0.1320 C   0  0  0  0  0  0  0  0  0  0  0  0
   -2.1777   -2.5402    0.6185 C   0  0  0  0  0  0  0  0  0  0  0  0
   -0.9676   -0.4538   -4.1589 H   0  0  0  0  0  0  0  0  0  0  0  0
    0.2860   -0.4409   -0.0396 H   0  0  0  0  0  0  0  0  0  0  0  0
   -2.6489    0.9428   -0.2185 H   0  0  0  0  0  0  0  0  0  0  0  0
   -1.0730    1.7470   -0.3124 H   0  0  0  0  0  0  0  0  0  0  0  0
   -1.5584    0.9100    1.1775 H   0  0  0  0  0  0  0  0  0  0  0  0
   -2.6651   -3.3806    1.0510 H   0  0  0  0  0  0  0  0  0  0  0  0
    2.4835   -0.5296   -0.8476 C   0  0  0  0  0  0  0  0  0  0  0  0
    1.5337   -0.4681    0.3517 C   0  0  0  0  0  0  0  0  0  0  0  0
    1.8174    0.7162    1.2136 C   0  0  0  0  0  0  0  0  0  0  0  0
    0.8036    1.9138    1.5589 S   0  0  0  0  0  0  0  0  0  0  0  0
    2.3452    0.3380   -1.4940 H   0  0  0  0  0  0  0  0  0  0  0  0
    3.5269   -0.5512   -0.5270 H   0  0  0  0  0  0  0  0  0  0  0  0
    2.2931   -1.4273   -1.4358 H   0  0  0  0  0  0  0  0  0  0  0  0
    1.6759   -1.3660    0.9642 H   0  0  0  0  0  0  0  0  0  0  0  0
    2.8318    0.7441    1.6194 H   0  0  0  0  0  0  0  0  0  0  0  0
  1  2  3  0
  1  7  1  0
  2  3  1  0
  3  4  1  0
  3  5  1  0
  4  9  1  0
  4 10  1  0
  4 11  1  0
  5  6  3  0
  6 12  1  0
  8 14  1  0
 13 14  1  0
 13 17  1  0
 13 18  1  0
 13 19  1  0
 14 15  1  0
 14 20  1  0
 15 16  2  0
 15 21  1  0
M  RAD  1   3   2
M  END
>  <reaction>  (16) 
rxn_1415

>  <mol_properties>  (16) 
{"1": {"label": "*4", "atom_type": "Ct"}, "2": {"label": "*3", "atom_type": "Cs"}, "7": {"label": "*2", "atom_type": "H0"}, "13": {"label": "*1", "atom_type": "Cs"}, "14": {"label": "*0", "atom_type": "CS"}}

>  <type>  (16) 
unop_12

>  <geom_source>  (16) 
Heuristics

$$$$

     RDKit          3D

 21 19  0  0  0  0  0  0  0  0999 V2000
    2.1962    0.9222   -2.1143 S   0  0  0  0  0  1  0  0  0  0  0  0
    1.4581   -0.4684   -0.0970 C   0  0  0  0  0  0  0  0  0  0  0  0
    2.2081    0.1971    1.0534 C   0  0  0  0  0  0  0  0  0  0  0  0
   -1.5555   -0.5626    1.3837 C   0  0  0  0  0  0  0  0  0  0  0  0
   -1.1024    0.0535    0.0632 C   0  0  0  0  0  0  0  0  0  0  0  0
    2.1978   -0.3228   -1.3969 C   0  0  0  0  0  0  0  0  0  0  0  0
   -1.6662   -0.6834   -1.0743 C   0  0  0  0  0  0  0  0  0  0  0  0
   -1.5005    1.4642   -0.0155 C   0  0  0  0  0  0  0  0  0  0  0  0
   -2.1281   -1.2898   -2.0087 C   0  0  0  0  0  0  0  0  0  0  0  0
   -1.8262    2.6235   -0.0793 C   0  0  0  0  0  0  0  0  0  0  0  0
    1.3445   -1.5498    0.1316 H   0  0  0  0  0  0  0  0  0  0  0  0
    0.2098    0.0729   -0.2038 H   0  0  0  0  0  0  0  0  0  0  0  0
    3.2255   -0.2379    1.1539 H   0  0  0  0  0  0  0  0  0  0  0  0
    1.6530    0.0309    2.0002 H   0  0  0  0  0  0  0  0  0  0  0  0
    2.2899    1.2910    0.8802 H   0  0  0  0  0  0  0  0  0  0  0  0
   -1.2232   -1.6211    1.4403 H   0  0  0  0  0  0  0  0  0  0  0  0
   -1.0990   -0.0120    2.2337 H   0  0  0  0  0  0  0  0  0  0  0  0
   -2.6628   -0.5247    1.4801 H   0  0  0  0  0  0  0  0  0  0  0  0
    2.6266   -1.2019   -1.8669 H   0  0  0  0  0  0  0  0  0  0  0  0
   -2.5336   -1.8220   -2.8286 H   0  0  0  0  0  0  0  0  0  0  0  0
   -2.1121    3.6409   -0.1352 H   0  0  0  0  0  0  0  0  0  0  0  0
  1  6  1  0
  2  3  1  0
  2  6  2  3
  2 11  1  0
  3 13  1  0
  3 14  1  0
  3 15  1  0
  4  5  1  0
  4 16  1  0
  4 17  1  0
  4 18  1  0
  5  7  1  0
  5  8  1  0
  5 12  1  0
  6 19  1  0
  7  9  3  0
  8 10  3  0
  9 20  1  0
 10 21  1  0
M  RAD  1   1   2
M  END
>  <reaction>  (17) 
rxn_1415

>  <mol_properties>  (17) 
{"1": {"label": "*4", "atom_type": "Ct"}, "2": {"label": "*3", "atom_type": "Cs"}, "7": {"label": "*2", "atom_type": "H0"}, "13": {"label": "*1", "atom_type": "Cs"}, "14": {"label": "*0", "atom_type": "CS"}}

>  <type>  (17) 
unop_13

>  <geom_source>  (17) 
AutoTST

$$$$

     RDKit          3D

 21 19  0  0  0  0  0  0  0  0999 V2000
   -0.7341   -0.3094   -3.2447 C   0  0  0  0  0  0  0  0  0  0  0  0
   -0.7341   -0.3094   -2.0486 C   0  0  0  0  0  0  0  0  0  0  0  0
   -0.7341   -0.2693   -0.5820 C   0  0  0  0  0  3  0  0  0  0  0  0
   -1.3721    1.0299   -0.0600 C   0  0  0  0  0  0  0  0  0  0  0  0
   -1.3960   -1.4506   -0.0172 C   0  0  0  0  0  0  0  0  0  0  0  0
   -1.9442   -2.3958    0.4693 C   0  0  0  0  0  0  0  0  0  0  0  0
   -0.7341   -0.3094   -4.3082 H   0  0  0  0  0  0  0  0  0  0  0  0
    0.5195   -0.2965   -0.1889 H   0  0  0  0  0  0  0  0  0  0  0  0
   -2.4154    1.0872   -0.3678 H   0  0  0  0  0  0  0  0  0  0  0  0
   -0.8395    1.8913   -0.4617 H   0  0  0  0  0  0  0  0  0  0  0  0
   -1.3250    1.0543    1.0282 H   0  0  0  0  0  0  0  0  0  0  0  0
   -2.4316   -3.2363    0.9018 H   0  0  0  0  0  0  0  0  0  0  0  0
    2.6815    0.3356   -0.8337 C   0  0  0  0  0  0  0  0  0  0  0  0
    1.7672   -0.3237    0.2024 C   0  0  0  0  0  0  0  0  0  0  0  0
    1.5529    0.5613    1.3843 C   0  0  0  0  0  0  0  0  0  0  0  0
    0.1466    1.1348    1.9084 S   0  0  0  0  0  0  0  0  0  0  0  0
    2.2234    1.2423   -1.2309 H   0  0  0  0  0  0  0  0  0  0  0  0
    3.6456    0.6051   -0.3982 H   0  0  0  0  0  0  0  0  0  0  0  0
    2.8657   -0.3458   -1.6643 H   0  0  0  0  0  0  0  0  0  0  0  0
    2.2412   -1.2454    0.5595 H   0  0  0  0  0  0  0  0  0  0  0  0
    2.4698    0.8378    1.9108 H   0  0  0  0  0  0  0  0  0  0  0  0
  1  2  3  0
  1  7  1  0
  2  3  1  0
  3  4  1  0
  3  5  1  0
  4  9  1  0
  4 10  1  0
  4 11  1  0
  5  6  3  0
  6 12  1  0
  8 14  1  0
 13 14  1  0
 13 17  1  0
 13 18  1  0
 13 19  1  0
 14 15  1  0
 14 20  1  0
 15 16  2  0
 15 21  1  0
M  RAD  1   3   2
M  END
>  <reaction>  (18) 
rxn_1415

>  <mol_properties>  (18) 
{"1": {"label": "*4", "atom_type": "Ct"}, "2": {"label": "*3", "atom_type": "Cs"}, "7": {"label": "*2", "atom_type": "H0"}, "13": {"label": "*1", "atom_type": "Cs"}, "14": {"label": "*0", "atom_type": "CS"}}

>  <type>  (18) 
unop_14

>  <geom_source>  (18) 
gaussian_log

$$$$
