
     RDKit          3D

  8  7  0  0  0  0  0  0  0  0999 V2000
    0.7610    0.0250    0.0051 C   0  0  0  0  0  0  0  0  0  0  0  0
   -0.7610   -0.0250   -0.0051 C   0  0  0  0  0  0  0  0  0  0  0  0
    1.1904   -0.9237   -0.3217 H   0  0  0  0  0  0  0  0  0  0  0  0
    1.1359    0.8041   -0.6609 H   0  0  0  0  0  0  0  0  0  0  0  0
    1.1435    0.2336    1.0058 H   0  0  0  0  0  0  0  0  0  0  0  0
   -1.1435   -0.2336   -1.0058 H   0  0  0  0  0  0  0  0  0  0  0  0
   -1.1904    0.9237    0.3216 H   0  0  0  0  0  0  0  0  0  0  0  0
   -1.1359   -0.8041    0.6609 H   0  0  0  0  0  0  0  0  0  0  0  0
  1  2  1  0
  1  3  1  0
  1  4  1  0
  1  5  1  0
  2  6  1  0
  2  7  1  0
  2  8  1  0
M  END
>  <reaction>  (1) 
rxn_885

>  <mol_properties>  (1) 
{"1": {"label": "donator", "atom_type": "Cs"}, "5": {"label": "d_hydrogen", "atom_type": "H0"}}

>  <type>  (1) 
r1h

$$$$

     RDKit          3D

  9  8  0  0  0  0  0  0  0  0999 V2000
    1.8963   -0.1405   -0.2150 C   0  0  0  0  0  0  0  0  0  0  0  0
    0.6340    0.1486   -0.2254 C   0  0  0  0  0  3  0  0  0  0  0  0
   -0.6770    0.4501   -0.2373 C   0  0  0  0  0  0  0  0  0  0  0  0
   -1.6600   -0.2303    0.4662 C   0  0  0  0  0  0  0  0  0  0  0  0
    2.3274   -0.8354   -0.9313 H   0  0  0  0  0  0  0  0  0  0  0  0
    2.5751    0.2988    0.5117 H   0  0  0  0  0  0  0  0  0  0  0  0
   -0.9723    1.2966   -0.8520 H   0  0  0  0  0  0  0  0  0  0  0  0
   -2.6934    0.0777    0.4015 H   0  0  0  0  0  0  0  0  0  0  0  0
   -1.4140   -1.0782    1.0904 H   0  0  0  0  0  0  0  0  0  0  0  0
  1  2  2  3
  1  5  1  0
  1  6  1  0
  2  3  1  0
  3  4  2  3
  3  7  1  0
  4  8  1  0
  4  9  1  0
M  RAD  1   2   2
M  END
>  <reaction>  (2) 
rxn_885

>  <mol_properties>  (2) 
{"1": {"label": "acceptor", "atom_type": "Cd"}}

>  <type>  (2) 
r2

$$$$

     RDKit          3D

 10  9  0  0  0  0  0  0  0  0999 V2000
    1.8334    0.0847   -0.1062 C   0  0  0  0  0  0  0  0  0  0  0  0
    0.5993   -0.4071   -0.0750 C   0  0  0  0  0  0  0  0  0  0  0  0
   -0.5993    0.4071    0.0750 C   0  0  0  0  0  0  0  0  0  0  0  0
   -1.8334   -0.0847    0.1062 C   0  0  0  0  0  0  0  0  0  0  0  0
    2.0179    1.1498   -0.0189 H   0  0  0  0  0  0  0  0  0  0  0  0
    2.6972   -0.5572   -0.2194 H   0  0  0  0  0  0  0  0  0  0  0  0
    0.4465   -1.4793   -0.1649 H   0  0  0  0  0  0  0  0  0  0  0  0
   -0.4465    1.4793    0.1649 H   0  0  0  0  0  0  0  0  0  0  0  0
   -2.0179   -1.1498    0.0189 H   0  0  0  0  0  0  0  0  0  0  0  0
   -2.6972    0.5572    0.2194 H   0  0  0  0  0  0  0  0  0  0  0  0
  1  2  2  3
  1  5  1  0
  1  6  1  0
  2  3  1  0
  2  7  1  0
  3  4  2  3
  3  8  1  0
  4  9  1  0
  4 10  1  0
M  END
>  <reaction>  (3) 
rxn_885

>  <mol_properties>  (3) 
{"1": {"label": "acceptor", "atom_type": "Cd"}, "9": {"label": "a_hydrogen", "atom_type": "H0"}}

>  <type>  (3) 
r2h

$$$$

     RDKit          3D

 17 15  0  0  0  0  0  0  0  0999 V2000
    0.5858    0.5529    2.0192 C   0  0  0  0  0  0  0  0  0  0  0  0
    0.0707    0.5712    0.8041 C   0  0  0  0  0  3  0  0  0  0  0  0
   -0.1537    1.6966   -0.0771 C   0  0  0  0  0  0  0  0  0  0  0  0
   -0.6998    1.6104   -1.2861 C   0  0  0  0  0  0  0  0  0  0  0  0
    0.7022   -0.3716    2.5736 H   0  0  0  0  0  0  0  0  0  0  0  0
    0.9127    1.4657    2.5139 H   0  0  0  0  0  0  0  0  0  0  0  0
    0.1560    2.6711    0.3007 H   0  0  0  0  0  0  0  0  0  0  0  0
   -0.8441    2.4874   -1.9031 H   0  0  0  0  0  0  0  0  0  0  0  0
   -1.0206    0.6583   -1.6920 H   0  0  0  0  0  0  0  0  0  0  0  0
    0.5685   -2.1232   -1.2110 C   0  0  0  0  0  0  0  0  0  0  0  0
   -0.5195   -1.8357   -0.2087 C   0  0  0  0  0  0  0  0  0  0  0  0
    0.5732   -1.3836   -2.0141 H   0  0  0  0  0  0  0  0  0  0  0  0
    1.5523   -2.1047   -0.7390 H   0  0  0  0  0  0  0  0  0  0  0  0
    0.4398   -3.1077   -1.6702 H   0  0  0  0  0  0  0  0  0  0  0  0
   -0.2876   -0.6609    0.2846 H   0  0  0  0  0  0  0  0  0  0  0  0
   -0.5153   -2.4857    0.6652 H   0  0  0  0  0  0  0  0  0  0  0  0
   -1.5205   -1.7562   -0.6308 H   0  0  0  0  0  0  0  0  0  0  0  0
  1  2  2  3
  1  5  1  0
  1  6  1  0
  2  3  1  0
  3  4  2  3
  3  7  1  0
  4  8  1  0
  4  9  1  0
 10 11  1  0
 10 12  1  0
 10 13  1  0
 10 14  1  0
 11 15  1  0
 11 16  1  0
 11 17  1  0
M  RAD  1   2   2
M  END
>  <reaction>  (4) 
rxn_885

>  <mol_properties>  (4) 
{"1": {"label": "*3", "atom_type": "Cd"}, "2": {"label": "*4", "atom_type": "Cd"}, "9": {"label": "*0", "atom_type": "Cs"}, "10": {"label": "*1", "atom_type": "Cs"}, "14": {"label": "*2", "atom_type": "H0"}}

>  <type>  (4) 
ts

$$$$

     RDKit          3D

 17 15  0  0  0  0  0  0  0  0999 V2000
    1.6262    1.0752    0.5978 C   0  0  0  0  0  0  0  0  0  0  0  0
    0.3648    0.7522    0.3322 C   0  0  0  0  0  0  0  0  0  0  0  0
   -0.7655    1.1187    1.1751 C   0  0  0  0  0  0  0  0  0  0  0  0
   -2.0268    0.7957    0.9095 C   0  0  0  0  0  0  0  0  0  0  0  0
    2.4366    0.7821   -0.0565 H   0  0  0  0  0  0  0  0  0  0  0  0
    1.8875    1.6456    1.4825 H   0  0  0  0  0  0  0  0  0  0  0  0
   -0.5351    1.6911    2.0696 H   0  0  0  0  0  0  0  0  0  0  0  0
   -2.8373    1.0889    1.5638 H   0  0  0  0  0  0  0  0  0  0  0  0
   -2.2881    0.2254    0.0249 H   0  0  0  0  0  0  0  0  0  0  0  0
    0.3648   -1.6835   -2.1385 C   0  0  0  0  0  0  0  0  0  0  0  0
    0.3648   -1.6835   -0.6158 C   0  0  0  0  0  3  0  0  0  0  0  0
   -0.5160   -1.1749   -2.5344 H   0  0  0  0  0  0  0  0  0  0  0  0
    1.2457   -1.1750   -2.5344 H   0  0  0  0  0  0  0  0  0  0  0  0
    0.3648   -2.7006   -2.5344 H   0  0  0  0  0  0  0  0  0  0  0  0
    0.3648   -0.4630   -0.1407 H   0  0  0  0  0  0  0  0  0  0  0  0
    1.2457   -2.1921   -0.2199 H   0  0  0  0  0  0  0  0  0  0  0  0
   -0.5160   -2.1921   -0.2199 H   0  0  0  0  0  0  0  0  0  0  0  0
  1  2  2  3
  1  5  1  0
  1  6  1  0
  2  3  1  0
  2 15  1  0
  3  4  2  3
  3  7  1  0
  4  8  1  0
  4  9  1  0
 10 11  1  0
 10 12  1  0
 10 13  1  0
 10 14  1  0
 11 16  1  0
 11 17  1  0
M  RAD  1  11   2
M  END
>  <reaction>  (5) 
rxn_885

>  <mol_properties>  (5) 
{"1": {"label": "*3", "atom_type": "Cd"}, "2": {"label": "*4", "atom_type": "Cd"}, "9": {"label": "*0", "atom_type": "Cs"}, "10": {"label": "*1", "atom_type": "Cs"}, "14": {"label": "*2", "atom_type": "H0"}}

>  <type>  (5) 
unop_1

>  <geom_source>  (5) 
Heuristics

$$$$

     RDKit          3D

 17 15  0  0  0  0  0  0  0  0999 V2000
    0.4892    0.6882    2.1690 C   0  0  0  0  0  0  0  0  0  0  0  0
    0.2155    0.5376    0.8774 C   0  0  0  0  0  0  0  0  0  0  0  0
   -0.4371    1.5508    0.0588 C   0  0  0  0  0  0  0  0  0  0  0  0
   -0.7108    1.4002   -1.2329 C   0  0  0  0  0  0  0  0  0  0  0  0
    0.9760   -0.0914    2.7403 H   0  0  0  0  0  0  0  0  0  0  0  0
    0.2333    1.6004    2.6966 H   0  0  0  0  0  0  0  0  0  0  0  0
   -0.7059    2.4768    0.5599 H   0  0  0  0  0  0  0  0  0  0  0  0
   -1.1975    2.1798   -1.8041 H   0  0  0  0  0  0  0  0  0  0  0  0
   -0.4549    0.4880   -1.7605 H   0  0  0  0  0  0  0  0  0  0  0  0
    0.2155   -1.8981   -1.5934 C   0  0  0  0  0  0  0  0  0  0  0  0
    0.2155   -1.8981   -0.0706 C   0  0  0  0  0  3  0  0  0  0  0  0
   -0.6653   -1.3896   -1.9892 H   0  0  0  0  0  0  0  0  0  0  0  0
    1.0964   -1.3896   -1.9892 H   0  0  0  0  0  0  0  0  0  0  0  0
    0.2155   -2.9152   -1.9892 H   0  0  0  0  0  0  0  0  0  0  0  0
    0.2155   -0.6776    0.4044 H   0  0  0  0  0  0  0  0  0  0  0  0
    1.0964   -2.4067    0.3253 H   0  0  0  0  0  0  0  0  0  0  0  0
   -0.6653   -2.4067    0.3253 H   0  0  0  0  0  0  0  0  0  0  0  0
  1  2  2  3
  1  5  1  0
  1  6  1  0
  2  3  1  0
  2 15  1  0
  3  4  2  3
  3  7  1  0
  4  8  1  0
  4  9  1  0
 10 11  1  0
 10 12  1  0
 10 13  1  0
 10 14  1  0
 11 16  1  0
 11 17  1  0
M  RAD  1  11   2
M  END
>  <reaction>  (6) 
rxn_885

>  <mol_properties>  (6) 
{"1": {"label": "*3", "atom_type": "Cd"}, "2": {"label": "*4", "atom_type": "Cd"}, "9": {"label": "*0", "atom_type": "Cs"}, "10": {"label": "*1", "atom_type": "Cs"}, "14": {"label": "*2", "atom_type": "H0"}}

>  <type>  (6) 
unop_2

>  <geom_source>  (6) 
Heuristics

$$$$

     RDKit          3D

 17 15  0  0  0  0  0  0  0  0999 V2000
    1.2596    1.5047   -0.2223 C   0  0  0  0  0  0  0  0  0  0  0  0
    0.2072    0.8062    0.1905 C   0  0  0  0  0  0  0  0  0  0  0  0
   -0.4454    0.9995    1.4785 C   0  0  0  0  0  0  0  0  0  0  0  0
   -1.4979    0.3009    1.8913 C   0  0  0  0  0  0  0  0  0  0  0  0
    1.7141    1.3283   -1.1883 H   0  0  0  0  0  0  0  0  0  0  0  0
    1.7006    2.2781    0.3970 H   0  0  0  0  0  0  0  0  0  0  0  0
   -0.0258    1.7682    2.1218 H   0  0  0  0  0  0  0  0  0  0  0  0
   -1.9523    0.4774    2.8573 H   0  0  0  0  0  0  0  0  0  0  0  0
   -1.9388   -0.4725    1.2720 H   0  0  0  0  0  0  0  0  0  0  0  0
    0.2072   -1.6295   -2.2803 C   0  0  0  0  0  0  0  0  0  0  0  0
    0.2072   -1.6295   -0.7575 C   0  0  0  0  0  3  0  0  0  0  0  0
   -0.6737   -1.1210   -2.6761 H   0  0  0  0  0  0  0  0  0  0  0  0
    1.0880   -1.1210   -2.6761 H   0  0  0  0  0  0  0  0  0  0  0  0
    0.2072   -2.6466   -2.6761 H   0  0  0  0  0  0  0  0  0  0  0  0
    0.2072   -0.4090   -0.2825 H   0  0  0  0  0  0  0  0  0  0  0  0
    1.0880   -2.1381   -0.3617 H   0  0  0  0  0  0  0  0  0  0  0  0
   -0.6737   -2.1381   -0.3617 H   0  0  0  0  0  0  0  0  0  0  0  0
  1  2  2  3
  1  5  1  0
  1  6  1  0
  2  3  1  0
  2 15  1  0
  3  4  2  3
  3  7  1  0
  4  8  1  0
  4  9  1  0
 10 11  1  0
 10 12  1  0
 10 13  1  0
 10 14  1  0
 11 16  1  0
 11 17  1  0
M  RAD  1  11   2
M  END
>  <reaction>  (7) 
rxn_885

>  <mol_properties>  (7) 
{"1": {"label": "*3", "atom_type": "Cd"}, "2": {"label": "*4", "atom_type": "Cd"}, "9": {"label": "*0", "atom_type": "Cs"}, "10": {"label": "*1", "atom_type": "Cs"}, "14": {"label": "*2", "atom_type": "H0"}}

>  <type>  (7) 
unop_3

>  <geom_source>  (7) 
Heuristics

$$$$

     RDKit          3D

 17 15  0  0  0  0  0  0  0  0999 V2000
   -1.0170    0.6898    1.8876 C   0  0  0  0  0  0  0  0  0  0  0  0
   -0.3714    0.5962    0.7298 C   0  0  0  0  0  0  0  0  0  0  0  0
    0.7589    1.4361    0.3564 C   0  0  0  0  0  0  0  0  0  0  0  0
    1.4044    1.3426   -0.8014 C   0  0  0  0  0  0  0  0  0  0  0  0
   -1.8529    0.0448    2.1246 H   0  0  0  0  0  0  0  0  0  0  0  0
   -0.7272    1.4180    2.6371 H   0  0  0  0  0  0  0  0  0  0  0  0
    1.0728    2.1761    1.0876 H   0  0  0  0  0  0  0  0  0  0  0  0
    2.2404    1.9875   -1.0384 H   0  0  0  0  0  0  0  0  0  0  0  0
    1.1146    0.6144   -1.5509 H   0  0  0  0  0  0  0  0  0  0  0  0
   -0.3714   -1.8395   -1.7410 C   0  0  0  0  0  0  0  0  0  0  0  0
   -0.3714   -1.8395   -0.2182 C   0  0  0  0  0  3  0  0  0  0  0  0
   -1.2523   -1.3309   -2.1368 H   0  0  0  0  0  0  0  0  0  0  0  0
    0.5094   -1.3309   -2.1368 H   0  0  0  0  0  0  0  0  0  0  0  0
   -0.3714   -2.8566   -2.1368 H   0  0  0  0  0  0  0  0  0  0  0  0
   -0.3714   -0.6190    0.2568 H   0  0  0  0  0  0  0  0  0  0  0  0
    0.5094   -2.3481    0.1777 H   0  0  0  0  0  0  0  0  0  0  0  0
   -1.2523   -2.3481    0.1777 H   0  0  0  0  0  0  0  0  0  0  0  0
  1  2  2  3
  1  5  1  0
  1  6  1  0
  2  3  1  0
  2 15  1  0
  3  4  2  3
  3  7  1  0
  4  8  1  0
  4  9  1  0
 10 11  1  0
 10 12  1  0
 10 13  1  0
 10 14  1  0
 11 16  1  0
 11 17  1  0
M  RAD  1  11   2
M  END
>  <reaction>  (8) 
rxn_885

>  <mol_properties>  (8) 
{"1": {"label": "*3", "atom_type": "Cd"}, "2": {"label": "*4", "atom_type": "Cd"}, "9": {"label": "*0", "atom_type": "Cs"}, "10": {"label": "*1", "atom_type": "Cs"}, "14": {"label": "*2", "atom_type": "H0"}}

>  <type>  (8) 
unop_4

>  <geom_source>  (8) 
Heuristics

$$$$

     RDKit          3D

 17 15  0  0  0  0  0  0  0  0999 V2000
   -0.0000    1.8545   -0.6984 C   0  0  0  0  0  0  0  0  0  0  0  0
   -0.0000    0.8239    0.1405 C   0  0  0  0  0  0  0  0  0  0  0  0
   -0.0000    0.9537    1.5915 C   0  0  0  0  0  0  0  0  0  0  0  0
   -0.0000   -0.0769    2.4304 C   0  0  0  0  0  0  0  0  0  0  0  0
   -0.0000    1.7127   -1.7711 H   0  0  0  0  0  0  0  0  0  0  0  0
    0.0000    2.8765   -0.3354 H   0  0  0  0  0  0  0  0  0  0  0  0
   -0.0000    1.9664    1.9856 H   0  0  0  0  0  0  0  0  0  0  0  0
    0.0000    0.0649    3.5031 H   0  0  0  0  0  0  0  0  0  0  0  0
   -0.0000   -1.0989    2.0674 H   0  0  0  0  0  0  0  0  0  0  0  0
   -0.0000   -1.6119   -2.3303 C   0  0  0  0  0  0  0  0  0  0  0  0
   -0.0000   -1.6119   -0.8075 C   0  0  0  0  0  3  0  0  0  0  0  0
   -0.8808   -1.1033   -2.7261 H   0  0  0  0  0  0  0  0  0  0  0  0
    0.8808   -1.1033   -2.7261 H   0  0  0  0  0  0  0  0  0  0  0  0
   -0.0000   -2.6290   -2.7261 H   0  0  0  0  0  0  0  0  0  0  0  0
   -0.0000   -0.3913   -0.3325 H   0  0  0  0  0  0  0  0  0  0  0  0
    0.8808   -2.1204   -0.4116 H   0  0  0  0  0  0  0  0  0  0  0  0
   -0.8808   -2.1204   -0.4116 H   0  0  0  0  0  0  0  0  0  0  0  0
  1  2  2  3
  1  5  1  0
  1  6  1  0
  2  3  1  0
  2 15  1  0
  3  4  2  3
  3  7  1  0
  4  8  1  0
  4  9  1  0
 10 11  1  0
 10 12  1  0
 10 13  1  0
 10 14  1  0
 11 16  1  0
 11 17  1  0
M  RAD  1  11   2
M  END
>  <reaction>  (9) 
rxn_885

>  <mol_properties>  (9) 
{"1": {"label": "*3", "atom_type": "Cd"}, "2": {"label": "*4", "atom_type": "Cd"}, "9": {"label": "*0", "atom_type": "Cs"}, "10": {"label": "*1", "atom_type": "Cs"}, "14": {"label": "*2", "atom_type": "H0"}}

>  <type>  (9) 
unop_5

>  <geom_source>  (9) 
Heuristics

$$$$

     RDKit          3D

 17 15  0  0  0  0  0  0  0  0999 V2000
   -1.4637    0.8059    1.3493 C   0  0  0  0  0  0  0  0  0  0  0  0
   -0.4258    0.6751    0.5298 C   0  0  0  0  0  0  0  0  0  0  0  0
    0.8794    1.2783    0.7646 C   0  0  0  0  0  0  0  0  0  0  0  0
    1.9174    1.1474   -0.0548 C   0  0  0  0  0  0  0  0  0  0  0  0
   -2.4169    0.3401    1.1361 H   0  0  0  0  0  0  0  0  0  0  0  0
   -1.3909    1.3859    2.2627 H   0  0  0  0  0  0  0  0  0  0  0  0
    0.9833    1.8660    1.6727 H   0  0  0  0  0  0  0  0  0  0  0  0
    2.8705    1.6132    0.1583 H   0  0  0  0  0  0  0  0  0  0  0  0
    1.8445    0.5674   -0.9683 H   0  0  0  0  0  0  0  0  0  0  0  0
   -0.4258   -1.7607   -1.9409 C   0  0  0  0  0  0  0  0  0  0  0  0
   -0.4258   -1.7607   -0.4181 C   0  0  0  0  0  3  0  0  0  0  0  0
   -1.3066   -1.2521   -2.3368 H   0  0  0  0  0  0  0  0  0  0  0  0
    0.4551   -1.2521   -2.3368 H   0  0  0  0  0  0  0  0  0  0  0  0
   -0.4258   -2.7778   -2.3368 H   0  0  0  0  0  0  0  0  0  0  0  0
   -0.4258   -0.5401    0.0569 H   0  0  0  0  0  0  0  0  0  0  0  0
    0.4551   -2.2692   -0.0223 H   0  0  0  0  0  0  0  0  0  0  0  0
   -1.3066   -2.2692   -0.0223 H   0  0  0  0  0  0  0  0  0  0  0  0
  1  2  2  3
  1  5  1  0
  1  6  1  0
  2  3  1  0
  2 15  1  0
  3  4  2  3
  3  7  1  0
  4  8  1  0
  4  9  1  0
 10 11  1  0
 10 12  1  0
 10 13  1  0
 10 14  1  0
 11 16  1  0
 11 17  1  0
M  RAD  1  11   2
M  END
>  <reaction>  (10) 
rxn_885

>  <mol_properties>  (10) 
{"1": {"label": "*3", "atom_type": "Cd"}, "2": {"label": "*4", "atom_type": "Cd"}, "9": {"label": "*0", "atom_type": "Cs"}, "10": {"label": "*1", "atom_type": "Cs"}, "14": {"label": "*2", "atom_type": "H0"}}

>  <type>  (10) 
unop_6

>  <geom_source>  (10) 
Heuristics

$$$$

     RDKit          3D

 17 15  0  0  0  0  0  0  0  0999 V2000
   -1.6262    1.0752    0.5978 C   0  0  0  0  0  0  0  0  0  0  0  0
   -0.3648    0.7522    0.3322 C   0  0  0  0  0  0  0  0  0  0  0  0
    0.7655    1.1187    1.1751 C   0  0  0  0  0  0  0  0  0  0  0  0
    2.0268    0.7957    0.9095 C   0  0  0  0  0  0  0  0  0  0  0  0
   -2.4366    0.7821   -0.0565 H   0  0  0  0  0  0  0  0  0  0  0  0
   -1.8875    1.6456    1.4825 H   0  0  0  0  0  0  0  0  0  0  0  0
    0.5351    1.6911    2.0696 H   0  0  0  0  0  0  0  0  0  0  0  0
    2.8373    1.0889    1.5638 H   0  0  0  0  0  0  0  0  0  0  0  0
    2.2881    0.2254    0.0249 H   0  0  0  0  0  0  0  0  0  0  0  0
   -0.3648   -1.6835   -2.1385 C   0  0  0  0  0  0  0  0  0  0  0  0
   -0.3648   -1.6835   -0.6158 C   0  0  0  0  0  3  0  0  0  0  0  0
   -1.2457   -1.1749   -2.5344 H   0  0  0  0  0  0  0  0  0  0  0  0
    0.5160   -1.1750   -2.5344 H   0  0  0  0  0  0  0  0  0  0  0  0
   -0.3648   -2.7006   -2.5344 H   0  0  0  0  0  0  0  0  0  0  0  0
   -0.3648   -0.4630   -0.1407 H   0  0  0  0  0  0  0  0  0  0  0  0
    0.5160   -2.1921   -0.2199 H   0  0  0  0  0  0  0  0  0  0  0  0
   -1.2457   -2.1921   -0.2199 H   0  0  0  0  0  0  0  0  0  0  0  0
  1  2  2  3
  1  5  1  0
  1  6  1  0
  2  3  1  0
  2 15  1  0
  3  4  2  3
  3  7  1  0
  4  8  1  0
  4  9  1  0
 10 11  1  0
 10 12  1  0
 10 13  1  0
 10 14  1  0
 11 16  1  0
 11 17  1  0
M  RAD  1  11   2
M  END
>  <reaction>  (11) 
rxn_885

>  <mol_properties>  (11) 
{"1": {"label": "*3", "atom_type": "Cd"}, "2": {"label": "*4", "atom_type": "Cd"}, "9": {"label": "*0", "atom_type": "Cs"}, "10": {"label": "*1", "atom_type": "Cs"}, "14": {"label": "*2", "atom_type": "H0"}}

>  <type>  (11) 
unop_7

>  <geom_source>  (11) 
Heuristics

$$$$

     RDKit          3D

 17 15  0  0  0  0  0  0  0  0999 V2000
    1.4637    0.8059    1.3493 C   0  0  0  0  0  0  0  0  0  0  0  0
    0.4258    0.6751    0.5298 C   0  0  0  0  0  0  0  0  0  0  0  0
   -0.8794    1.2783    0.7646 C   0  0  0  0  0  0  0  0  0  0  0  0
   -1.9174    1.1474   -0.0548 C   0  0  0  0  0  0  0  0  0  0  0  0
    2.4169    0.3401    1.1361 H   0  0  0  0  0  0  0  0  0  0  0  0
    1.3909    1.3859    2.2627 H   0  0  0  0  0  0  0  0  0  0  0  0
   -0.9833    1.8660    1.6727 H   0  0  0  0  0  0  0  0  0  0  0  0
   -2.8705    1.6132    0.1583 H   0  0  0  0  0  0  0  0  0  0  0  0
   -1.8445    0.5674   -0.9683 H   0  0  0  0  0  0  0  0  0  0  0  0
    0.4258   -1.7607   -1.9409 C   0  0  0  0  0  0  0  0  0  0  0  0
    0.4258   -1.7607   -0.4181 C   0  0  0  0  0  3  0  0  0  0  0  0
   -0.4551   -1.2521   -2.3368 H   0  0  0  0  0  0  0  0  0  0  0  0
    1.3066   -1.2521   -2.3368 H   0  0  0  0  0  0  0  0  0  0  0  0
    0.4258   -2.7778   -2.3368 H   0  0  0  0  0  0  0  0  0  0  0  0
    0.4258   -0.5401    0.0569 H   0  0  0  0  0  0  0  0  0  0  0  0
    1.3066   -2.2692   -0.0223 H   0  0  0  0  0  0  0  0  0  0  0  0
   -0.4551   -2.2692   -0.0223 H   0  0  0  0  0  0  0  0  0  0  0  0
  1  2  2  3
  1  5  1  0
  1  6  1  0
  2  3  1  0
  2 15  1  0
  3  4  2  3
  3  7  1  0
  4  8  1  0
  4  9  1  0
 10 11  1  0
 10 12  1  0
 10 13  1  0
 10 14  1  0
 11 16  1  0
 11 17  1  0
M  RAD  1  11   2
M  END
>  <reaction>  (12) 
rxn_885

>  <mol_properties>  (12) 
{"1": {"label": "*3", "atom_type": "Cd"}, "2": {"label": "*4", "atom_type": "Cd"}, "9": {"label": "*0", "atom_type": "Cs"}, "10": {"label": "*1", "atom_type": "Cs"}, "14": {"label": "*2", "atom_type": "H0"}}

>  <type>  (12) 
unop_8

>  <geom_source>  (12) 
Heuristics

$$$$

     RDKit          3D

 17 15  0  0  0  0  0  0  0  0999 V2000
   -0.4892    0.6882    2.1690 C   0  0  0  0  0  0  0  0  0  0  0  0
   -0.2155    0.5376    0.8774 C   0  0  0  0  0  0  0  0  0  0  0  0
    0.4371    1.5508    0.0588 C   0  0  0  0  0  0  0  0  0  0  0  0
    0.7108    1.4002   -1.2329 C   0  0  0  0  0  0  0  0  0  0  0  0
   -0.9760   -0.0914    2.7403 H   0  0  0  0  0  0  0  0  0  0  0  0
   -0.2333    1.6004    2.6966 H   0  0  0  0  0  0  0  0  0  0  0  0
    0.7059    2.4768    0.5599 H   0  0  0  0  0  0  0  0  0  0  0  0
    1.1975    2.1798   -1.8041 H   0  0  0  0  0  0  0  0  0  0  0  0
    0.4549    0.4880   -1.7605 H   0  0  0  0  0  0  0  0  0  0  0  0
   -0.2155   -1.8981   -1.5934 C   0  0  0  0  0  0  0  0  0  0  0  0
   -0.2155   -1.8981   -0.0706 C   0  0  0  0  0  3  0  0  0  0  0  0
   -1.0964   -1.3896   -1.9892 H   0  0  0  0  0  0  0  0  0  0  0  0
    0.6653   -1.3896   -1.9892 H   0  0  0  0  0  0  0  0  0  0  0  0
   -0.2155   -2.9152   -1.9892 H   0  0  0  0  0  0  0  0  0  0  0  0
   -0.2155   -0.6776    0.4044 H   0  0  0  0  0  0  0  0  0  0  0  0
    0.6653   -2.4067    0.3253 H   0  0  0  0  0  0  0  0  0  0  0  0
   -1.0964   -2.4067    0.3253 H   0  0  0  0  0  0  0  0  0  0  0  0
  1  2  2  3
  1  5  1  0
  1  6  1  0
  2  3  1  0
  2 15  1  0
  3  4  2  3
  3  7  1  0
  4  8  1  0
  4  9  1  0
 10 11  1  0
 10 12  1  0
 10 13  1  0
 10 14  1  0
 11 16  1  0
 11 17  1  0
M  RAD  1  11   2
M  END
>  <reaction>  (13) 
rxn_885

>  <mol_properties>  (13) 
{"1": {"label": "*3", "atom_type": "Cd"}, "2": {"label": "*4", "atom_type": "Cd"}, "9": {"label": "*0", "atom_type": "Cs"}, "10": {"label": "*1", "atom_type": "Cs"}, "14": {"label": "*2", "atom_type": "H0"}}

>  <type>  (13) 
unop_9

>  <geom_source>  (13) 
Heuristics

$$$$

     RDKit          3D

 17 15  0  0  0  0  0  0  0  0999 V2000
    1.0170    0.6898    1.8876 C   0  0  0  0  0  0  0  0  0  0  0  0
    0.3714    0.5962    0.7298 C   0  0  0  0  0  0  0  0  0  0  0  0
   -0.7589    1.4361    0.3564 C   0  0  0  0  0  0  0  0  0  0  0  0
   -1.4044    1.3426   -0.8014 C   0  0  0  0  0  0  0  0  0  0  0  0
    1.8529    0.0448    2.1246 H   0  0  0  0  0  0  0  0  0  0  0  0
    0.7272    1.4180    2.6371 H   0  0  0  0  0  0  0  0  0  0  0  0
   -1.0728    2.1761    1.0876 H   0  0  0  0  0  0  0  0  0  0  0  0
   -2.2404    1.9875   -1.0384 H   0  0  0  0  0  0  0  0  0  0  0  0
   -1.1146    0.6144   -1.5509 H   0  0  0  0  0  0  0  0  0  0  0  0
    0.3714   -1.8395   -1.7410 C   0  0  0  0  0  0  0  0  0  0  0  0
    0.3714   -1.8395   -0.2182 C   0  0  0  0  0  3  0  0  0  0  0  0
   -0.5094   -1.3309   -2.1368 H   0  0  0  0  0  0  0  0  0  0  0  0
    1.2523   -1.3309   -2.1368 H   0  0  0  0  0  0  0  0  0  0  0  0
    0.3714   -2.8566   -2.1368 H   0  0  0  0  0  0  0  0  0  0  0  0
    0.3714   -0.6190    0.2568 H   0  0  0  0  0  0  0  0  0  0  0  0
    1.2523   -2.3481    0.1777 H   0  0  0  0  0  0  0  0  0  0  0  0
   -0.5094   -2.3481    0.1777 H   0  0  0  0  0  0  0  0  0  0  0  0
  1  2  2  3
  1  5  1  0
  1  6  1  0
  2  3  1  0
  2 15  1  0
  3  4  2  3
  3  7  1  0
  4  8  1  0
  4  9  1  0
 10 11  1  0
 10 12  1  0
 10 13  1  0
 10 14  1  0
 11 16  1  0
 11 17  1  0
M  RAD  1  11   2
M  END
>  <reaction>  (14) 
rxn_885

>  <mol_properties>  (14) 
{"1": {"label": "*3", "atom_type": "Cd"}, "2": {"label": "*4", "atom_type": "Cd"}, "9": {"label": "*0", "atom_type": "Cs"}, "10": {"label": "*1", "atom_type": "Cs"}, "14": {"label": "*2", "atom_type": "H0"}}

>  <type>  (14) 
unop_10

>  <geom_source>  (14) 
Heuristics

$$$$

     RDKit          3D

 17 15  0  0  0  0  0  0  0  0999 V2000
   -1.2596    1.5047   -0.2223 C   0  0  0  0  0  0  0  0  0  0  0  0
   -0.2072    0.8062    0.1905 C   0  0  0  0  0  0  0  0  0  0  0  0
    0.4454    0.9995    1.4785 C   0  0  0  0  0  0  0  0  0  0  0  0
    1.4979    0.3009    1.8913 C   0  0  0  0  0  0  0  0  0  0  0  0
   -1.7141    1.3283   -1.1883 H   0  0  0  0  0  0  0  0  0  0  0  0
   -1.7006    2.2781    0.3970 H   0  0  0  0  0  0  0  0  0  0  0  0
    0.0258    1.7682    2.1218 H   0  0  0  0  0  0  0  0  0  0  0  0
    1.9523    0.4774    2.8573 H   0  0  0  0  0  0  0  0  0  0  0  0
    1.9388   -0.4725    1.2720 H   0  0  0  0  0  0  0  0  0  0  0  0
   -0.2072   -1.6295   -2.2803 C   0  0  0  0  0  0  0  0  0  0  0  0
   -0.2072   -1.6295   -0.7575 C   0  0  0  0  0  3  0  0  0  0  0  0
   -1.0880   -1.1210   -2.6761 H   0  0  0  0  0  0  0  0  0  0  0  0
    0.6737   -1.1210   -2.6761 H   0  0  0  0  0  0  0  0  0  0  0  0
   -0.2072   -2.6466   -2.6761 H   0  0  0  0  0  0  0  0  0  0  0  0
   -0.2072   -0.4090   -0.2825 H   0  0  0  0  0  0  0  0  0  0  0  0
    0.6737   -2.1381   -0.3617 H   0  0  0  0  0  0  0  0  0  0  0  0
   -1.0880   -2.1381   -0.3617 H   0  0  0  0  0  0  0  0  0  0  0  0
  1  2  2  3
  1  5  1  0
  1  6  1  0
  2  3  1  0
  2 15  1  0
  3  4  2  3
  3  7  1  0
  4  8  1  0
  4  9  1  0
 10 11  1  0
 10 12  1  0
 10 13  1  0
 10 14  1  0
 11 16  1  0
 11 17  1  0
M  RAD  1  11   2
M  END
>  <reaction>  (15) 
rxn_885

>  <mol_properties>  (15) 
{"1": {"label": "*3", "atom_type": "Cd"}, "2": {"label": "*4", "atom_type": "Cd"}, "9": {"label": "*0", "atom_type": "Cs"}, "10": {"label": "*1", "atom_type": "Cs"}, "14": {"label": "*2", "atom_type": "H0"}}

>  <type>  (15) 
unop_11

>  <geom_source>  (15) 
Heuristics

$$$$

     RDKit          3D

 17 15  0  0  0  0  0  0  0  0999 V2000
    0.0000    0.7084    2.2465 C   0  0  0  0  0  0  0  0  0  0  0  0
   -0.0000    0.5160    0.9317 C   0  0  0  0  0  0  0  0  0  0  0  0
   -0.0000    1.5925   -0.0499 C   0  0  0  0  0  0  0  0  0  0  0  0
   -0.0000    1.4001   -1.3647 C   0  0  0  0  0  0  0  0  0  0  0  0
   -0.0000   -0.1213    2.9412 H   0  0  0  0  0  0  0  0  0  0  0  0
   -0.0000    1.7068    2.6699 H   0  0  0  0  0  0  0  0  0  0  0  0
    0.0000    2.6052    0.3443 H   0  0  0  0  0  0  0  0  0  0  0  0
   -0.0000    2.2298   -2.0594 H   0  0  0  0  0  0  0  0  0  0  0  0
    0.0000    0.4016   -1.7881 H   0  0  0  0  0  0  0  0  0  0  0  0
   -0.0000   -1.9198   -1.5391 C   0  0  0  0  0  0  0  0  0  0  0  0
   -0.0000   -1.9198   -0.0163 C   0  0  0  0  0  3  0  0  0  0  0  0
   -0.8808   -1.4112   -1.9349 H   0  0  0  0  0  0  0  0  0  0  0  0
    0.8808   -1.4112   -1.9349 H   0  0  0  0  0  0  0  0  0  0  0  0
   -0.0000   -2.9369   -1.9349 H   0  0  0  0  0  0  0  0  0  0  0  0
   -0.0000   -0.6993    0.4587 H   0  0  0  0  0  0  0  0  0  0  0  0
    0.8808   -2.4283    0.3795 H   0  0  0  0  0  0  0  0  0  0  0  0
   -0.8808   -2.4283    0.3795 H   0  0  0  0  0  0  0  0  0  0  0  0
  1  2  2  3
  1  5  1  0
  1  6  1  0
  2  3  1  0
  2 15  1  0
  3  4  2  3
  3  7  1  0
  4  8  1  0
  4  9  1  0
 10 11  1  0
 10 12  1  0
 10 13  1  0
 10 14  1  0
 11 16  1  0
 11 17  1  0
M  RAD  1  11   2
M  END
>  <reaction>  (16) 
rxn_885

>  <mol_properties>  (16) 
{"1": {"label": "*3", "atom_type": "Cd"}, "2": {"label": "*4", "atom_type": "Cd"}, "9": {"label": "*0", "atom_type": "Cs"}, "10": {"label": "*1", "atom_type": "Cs"}, "14": {"label": "*2", "atom_type": "H0"}}

>  <type>  (16) 
unop_12

>  <geom_source>  (16) 
Heuristics

$$$$

     RDKit          3D

 17 15  0  0  0  0  0  0  0  0999 V2000
    2.4526    0.4891    1.0470 C   0  0  0  0  0  0  0  0  0  0  0  0
   -1.1300    0.8172   -0.6089 C   0  0  0  0  0  0  0  0  0  0  0  0
   -0.8749   -0.5277   -0.0477 C   0  0  0  0  0  0  0  0  0  0  0  0
    1.6710   -0.5486    0.2629 C   0  0  0  0  0  3  0  0  0  0  0  0
   -2.2862    1.2172   -1.1414 C   0  0  0  0  0  0  0  0  0  0  0  0
   -1.7659   -1.5187    0.0007 C   0  0  0  0  0  0  0  0  0  0  0  0
    3.5072    0.5105    0.7000 H   0  0  0  0  0  0  0  0  0  0  0  0
    1.9964    1.4898    0.8974 H   0  0  0  0  0  0  0  0  0  0  0  0
    2.4267    0.2363    2.1274 H   0  0  0  0  0  0  0  0  0  0  0  0
   -0.3112    1.5248   -0.5817 H   0  0  0  0  0  0  0  0  0  0  0  0
    0.2919   -0.7505    0.4258 H   0  0  0  0  0  0  0  0  0  0  0  0
    1.6849   -0.2977   -0.8187 H   0  0  0  0  0  0  0  0  0  0  0  0
    2.1162   -1.5544    0.4145 H   0  0  0  0  0  0  0  0  0  0  0  0
   -3.1521    0.5758   -1.2079 H   0  0  0  0  0  0  0  0  0  0  0  0
   -2.3751    2.2245   -1.5271 H   0  0  0  0  0  0  0  0  0  0  0  0
   -1.4786   -2.4678    0.4330 H   0  0  0  0  0  0  0  0  0  0  0  0
   -2.7731   -1.4196   -0.3752 H   0  0  0  0  0  0  0  0  0  0  0  0
  1  4  1  0
  1  7  1  0
  1  8  1  0
  1  9  1  0
  2  5  2  3
  2  3  1  0
  2 10  1  0
  3  6  2  3
  3 11  1  0
  4 12  1  0
  4 13  1  0
  5 14  1  0
  5 15  1  0
  6 16  1  0
  6 17  1  0
M  RAD  1   4   2
M  END
>  <reaction>  (17) 
rxn_885

>  <mol_properties>  (17) 
{"1": {"label": "*3", "atom_type": "Cd"}, "2": {"label": "*4", "atom_type": "Cd"}, "9": {"label": "*0", "atom_type": "Cs"}, "10": {"label": "*1", "atom_type": "Cs"}, "14": {"label": "*2", "atom_type": "H0"}}

>  <type>  (17) 
unop_13

>  <geom_source>  (17) 
AutoTST

$$$$
