
     RDKit          3D

  7  6  0  0  0  0  0  0  0  0999 V2000
    1.6899   -0.1839   -0.0115 C   0  0  0  0  0  0  0  0  0  0  0  0
    0.5000   -0.0544   -0.0034 C   0  0  0  0  0  0  0  0  0  0  0  0
   -0.9469    0.1030    0.0064 C   0  0  0  0  0  0  0  0  0  0  0  0
    2.7470   -0.2989   -0.0186 H   0  0  0  0  0  0  0  0  0  0  0  0
   -1.4140   -0.5835   -0.7010 H   0  0  0  0  0  0  0  0  0  0  0  0
   -1.2257    1.1206   -0.2707 H   0  0  0  0  0  0  0  0  0  0  0  0
   -1.3502   -0.1030    0.9988 H   0  0  0  0  0  0  0  0  0  0  0  0
  1  2  3  0
  1  4  1  0
  2  3  1  0
  3  5  1  0
  3  6  1  0
  3  7  1  0
M  END
>  <reaction>  (1) 
rxn_3213

>  <mol_properties>  (1) 
{"2": {"label": "donator", "atom_type": "Cs"}, "4": {"label": "d_hydrogen", "atom_type": "H0"}}

>  <type>  (1) 
r1h

$$$$

     RDKit          3D

  7  6  0  0  0  0  0  0  0  0999 V2000
   -1.3059    0.5497   -0.1304 N   0  0  0  0  0  2  0  0  0  0  0  0
   -0.2700   -0.4288    0.0448 C   0  0  0  0  0  0  0  0  0  0  0  0
    1.1109    0.0669    0.0401 C   0  0  0  0  0  0  0  0  0  0  0  0
    2.1758    0.4925    0.0308 N   0  0  0  0  0  0  0  0  0  0  0  0
   -0.8815    1.4733   -0.2339 H   0  0  0  0  0  0  0  0  0  0  0  0
   -0.3767   -1.1909   -0.7373 H   0  0  0  0  0  0  0  0  0  0  0  0
   -0.4527   -0.9628    0.9858 H   0  0  0  0  0  0  0  0  0  0  0  0
  1  2  1  0
  1  5  1  0
  2  3  1  0
  2  6  1  0
  2  7  1  0
  3  4  3  0
M  RAD  1   1   2
M  END
>  <reaction>  (2) 
rxn_3213

>  <mol_properties>  (2) 
{"0": {"label": "acceptor", "atom_type": "N3s"}}

>  <type>  (2) 
r2

$$$$

     RDKit          3D

  8  7  0  0  0  0  0  0  0  0999 V2000
   -1.0805    0.5317    0.0204 N   0  0  0  0  0  0  0  0  0  0  0  0
   -0.1080   -0.5393    0.0956 C   0  0  0  0  0  0  0  0  0  0  0  0
    1.2945   -0.1247   -0.1005 C   0  0  0  0  0  0  0  0  0  0  0  0
    2.3714    0.2386   -0.2580 N   0  0  0  0  0  0  0  0  0  0  0  0
   -1.0516    0.9857   -0.8822 H   0  0  0  0  0  0  0  0  0  0  0  0
   -0.9009    1.2352    0.7235 H   0  0  0  0  0  0  0  0  0  0  0  0
   -0.3427   -1.2965   -0.6542 H   0  0  0  0  0  0  0  0  0  0  0  0
   -0.1810   -1.0288    1.0680 H   0  0  0  0  0  0  0  0  0  0  0  0
  1  2  1  0
  1  5  1  0
  1  6  1  0
  2  3  1  0
  2  7  1  0
  2  8  1  0
  3  4  3  0
M  END
>  <reaction>  (3) 
rxn_3213

>  <mol_properties>  (3) 
{"0": {"label": "acceptor", "atom_type": "N3s"}, "7": {"label": "a_hydrogen", "atom_type": "H0"}}

>  <type>  (3) 
r2h

$$$$

     RDKit          3D

 14 12  0  0  0  0  0  0  0  0999 V2000
    0.8568    1.2304    0.0944 N   0  0  0  0  0  2  0  0  0  0  0  0
    0.5007    1.1777    1.4987 C   0  0  0  0  0  0  0  0  0  0  0  0
   -0.8345    0.6357    1.7917 C   0  0  0  0  0  0  0  0  0  0  0  0
   -1.8798    0.2016    1.9792 N   0  0  0  0  0  0  0  0  0  0  0  0
    0.0618    1.5973   -0.4304 H   0  0  0  0  0  0  0  0  0  0  0  0
    0.5497    2.1919    1.9104 H   0  0  0  0  0  0  0  0  0  0  0  0
    1.2408    0.5841    2.0384 H   0  0  0  0  0  0  0  0  0  0  0  0
    0.0218   -1.0478   -3.2953 C   0  0  0  0  0  0  0  0  0  0  0  0
    0.2684   -1.1512   -2.1244 C   0  0  0  0  0  0  0  0  0  0  0  0
    0.5650   -1.2123   -0.7300 C   0  0  0  0  0  0  0  0  0  0  0  0
   -0.1982   -0.9749   -4.3333 H   0  0  0  0  0  0  0  0  0  0  0  0
    0.8273   -0.0302   -0.3561 H   0  0  0  0  0  0  0  0  0  0  0  0
    1.4840   -1.7472   -0.4950 H   0  0  0  0  0  0  0  0  0  0  0  0
   -0.2714   -1.5362   -0.1131 H   0  0  0  0  0  0  0  0  0  0  0  0
  1  2  1  0
  1  5  1  0
  2  3  1  0
  2  6  1  0
  2  7  1  0
  3  4  3  0
  8  9  3  0
  8 11  1  0
  9 10  1  0
 10 12  1  0
 10 13  1  0
 10 14  1  0
M  RAD  1   1   2
M  END
>  <reaction>  (4) 
rxn_3213

>  <mol_properties>  (4) 
{"0": {"label": "*3", "atom_type": "N3s"}, "1": {"label": "*4", "atom_type": "Cs"}, "8": {"label": "*0", "atom_type": "Ct"}, "9": {"label": "*1", "atom_type": "Cs"}, "11": {"label": "*2", "atom_type": "H0"}}

>  <type>  (4) 
ts

$$$$

     RDKit          3D

 14 12  0  0  0  0  0  0  0  0999 V2000
    0.9498    0.5003    0.8284 N   0  0  0  0  0  0  0  0  0  0  0  0
   -0.1944    0.8514    1.6446 C   0  0  0  0  0  0  0  0  0  0  0  0
   -1.1923    1.7142    0.9834 C   0  0  0  0  0  0  0  0  0  0  0  0
   -1.9436    2.3849    0.4336 N   0  0  0  0  0  0  0  0  0  0  0  0
    1.4525    1.3261    0.5336 H   0  0  0  0  0  0  0  0  0  0  0  0
    0.1459    1.3616    2.5470 H   0  0  0  0  0  0  0  0  0  0  0  0
   -0.7004   -0.0584    1.9713 H   0  0  0  0  0  0  0  0  0  0  0  0
    0.7402   -1.8497   -2.7150 C   0  0  0  0  0  0  0  0  0  0  0  0
    0.7402   -1.8497   -1.5179 C   0  0  0  0  0  0  0  0  0  0  0  0
    0.7402   -1.8497   -0.0625 C   0  0  0  0  0  3  0  0  0  0  0  0
    0.7402   -1.8497   -3.7783 H   0  0  0  0  0  0  0  0  0  0  0  0
    0.8490   -0.6298    0.3999 H   0  0  0  0  0  0  0  0  0  0  0  0
    1.5753   -2.4364    0.3229 H   0  0  0  0  0  0  0  0  0  0  0  0
   -0.1854   -2.2794    0.3229 H   0  0  0  0  0  0  0  0  0  0  0  0
  1  2  1  0
  1  5  1  0
  1 12  1  0
  2  3  1  0
  2  6  1  0
  2  7  1  0
  3  4  3  0
  8  9  3  0
  8 11  1  0
  9 10  1  0
 10 13  1  0
 10 14  1  0
M  RAD  1  10   2
M  END
>  <reaction>  (5) 
rxn_3213

>  <mol_properties>  (5) 
{"0": {"label": "*3", "atom_type": "N3s"}, "1": {"label": "*4", "atom_type": "Cs"}, "8": {"label": "*0", "atom_type": "Ct"}, "9": {"label": "*1", "atom_type": "Cs"}, "11": {"label": "*2", "atom_type": "H0"}}

>  <type>  (5) 
unop_1

>  <geom_source>  (5) 
Heuristics

$$$$

     RDKit          3D

 14 12  0  0  0  0  0  0  0  0999 V2000
    0.0130    0.4423    1.7480 N   0  0  0  0  0  0  0  0  0  0  0  0
   -0.5803    1.3992    0.8365 C   0  0  0  0  0  0  0  0  0  0  0  0
    0.2535    1.7521   -0.3287 C   0  0  0  0  0  0  0  0  0  0  0  0
    0.9324    1.9995   -1.2200 N   0  0  0  0  0  0  0  0  0  0  0  0
    0.8817    0.7929    2.1275 H   0  0  0  0  0  0  0  0  0  0  0  0
   -0.8114    2.3194    1.3754 H   0  0  0  0  0  0  0  0  0  0  0  0
   -1.5285    1.0076    0.4650 H   0  0  0  0  0  0  0  0  0  0  0  0
   -0.1965   -1.9077   -1.7953 C   0  0  0  0  0  0  0  0  0  0  0  0
   -0.1965   -1.9077   -0.5983 C   0  0  0  0  0  0  0  0  0  0  0  0
   -0.1965   -1.9077    0.8571 C   0  0  0  0  0  3  0  0  0  0  0  0
   -0.1965   -1.9077   -2.8586 H   0  0  0  0  0  0  0  0  0  0  0  0
   -0.0877   -0.6878    1.3195 H   0  0  0  0  0  0  0  0  0  0  0  0
    0.6385   -2.4944    1.2425 H   0  0  0  0  0  0  0  0  0  0  0  0
   -1.1221   -2.3374    1.2425 H   0  0  0  0  0  0  0  0  0  0  0  0
  1  2  1  0
  1  5  1  0
  1 12  1  0
  2  3  1  0
  2  6  1  0
  2  7  1  0
  3  4  3  0
  8  9  3  0
  8 11  1  0
  9 10  1  0
 10 13  1  0
 10 14  1  0
M  RAD  1  10   2
M  END
>  <reaction>  (6) 
rxn_3213

>  <mol_properties>  (6) 
{"0": {"label": "*3", "atom_type": "N3s"}, "1": {"label": "*4", "atom_type": "Cs"}, "8": {"label": "*0", "atom_type": "Ct"}, "9": {"label": "*1", "atom_type": "Cs"}, "11": {"label": "*2", "atom_type": "H0"}}

>  <type>  (6) 
unop_2

>  <geom_source>  (6) 
Heuristics

$$$$

     RDKit          3D

 14 12  0  0  0  0  0  0  0  0999 V2000
    0.9100    0.7602    0.4092 N   0  0  0  0  0  0  0  0  0  0  0  0
    0.2432    0.8932    1.6883 C   0  0  0  0  0  0  0  0  0  0  0  0
   -1.1686    1.3163    1.6159 C   0  0  0  0  0  0  0  0  0  0  0  0
   -2.2629    1.6465    1.5164 N   0  0  0  0  0  0  0  0  0  0  0  0
    0.9114    1.6376   -0.0925 H   0  0  0  0  0  0  0  0  0  0  0  0
    0.7798    1.6165    2.3043 H   0  0  0  0  0  0  0  0  0  0  0  0
    0.2818   -0.0594    2.2190 H   0  0  0  0  0  0  0  0  0  0  0  0
    0.7005   -1.5898   -3.1342 C   0  0  0  0  0  0  0  0  0  0  0  0
    0.7005   -1.5898   -1.9371 C   0  0  0  0  0  0  0  0  0  0  0  0
    0.7005   -1.5898   -0.4817 C   0  0  0  0  0  3  0  0  0  0  0  0
    0.7005   -1.5898   -4.1974 H   0  0  0  0  0  0  0  0  0  0  0  0
    0.8093   -0.3700   -0.0193 H   0  0  0  0  0  0  0  0  0  0  0  0
    1.5355   -2.1765   -0.0963 H   0  0  0  0  0  0  0  0  0  0  0  0
   -0.2251   -2.0195   -0.0963 H   0  0  0  0  0  0  0  0  0  0  0  0
  1  2  1  0
  1  5  1  0
  1 12  1  0
  2  3  1  0
  2  6  1  0
  2  7  1  0
  3  4  3  0
  8  9  3  0
  8 11  1  0
  9 10  1  0
 10 13  1  0
 10 14  1  0
M  RAD  1  10   2
M  END
>  <reaction>  (7) 
rxn_3213

>  <mol_properties>  (7) 
{"0": {"label": "*3", "atom_type": "N3s"}, "1": {"label": "*4", "atom_type": "Cs"}, "8": {"label": "*0", "atom_type": "Ct"}, "9": {"label": "*1", "atom_type": "Cs"}, "11": {"label": "*2", "atom_type": "H0"}}

>  <type>  (7) 
unop_3

>  <geom_source>  (7) 
Heuristics

$$$$

     RDKit          3D

 14 12  0  0  0  0  0  0  0  0999 V2000
   -0.8548    1.0884    1.2187 N   0  0  0  0  0  0  0  0  0  0  0  0
    0.3759    1.7071    0.7702 C   0  0  0  0  0  0  0  0  0  0  0  0
    1.4718    0.7678    0.4635 C   0  0  0  0  0  0  0  0  0  0  0  0
    2.2978    0.0046    0.2359 N   0  0  0  0  0  0  0  0  0  0  0  0
   -0.7057    0.5545    2.0639 H   0  0  0  0  0  0  0  0  0  0  0  0
    0.7320    2.4020    1.5323 H   0  0  0  0  0  0  0  0  0  0  0  0
    0.1797    2.2987   -0.1254 H   0  0  0  0  0  0  0  0  0  0  0  0
   -1.0643   -1.2616   -2.3246 C   0  0  0  0  0  0  0  0  0  0  0  0
   -1.0643   -1.2616   -1.1276 C   0  0  0  0  0  0  0  0  0  0  0  0
   -1.0643   -1.2616    0.3279 C   0  0  0  0  0  3  0  0  0  0  0  0
   -1.0643   -1.2616   -3.3879 H   0  0  0  0  0  0  0  0  0  0  0  0
   -0.9555   -0.0418    0.7903 H   0  0  0  0  0  0  0  0  0  0  0  0
   -0.2293   -1.8484    0.7132 H   0  0  0  0  0  0  0  0  0  0  0  0
   -1.9899   -1.6914    0.7132 H   0  0  0  0  0  0  0  0  0  0  0  0
  1  2  1  0
  1  5  1  0
  1 12  1  0
  2  3  1  0
  2  6  1  0
  2  7  1  0
  3  4  3  0
  8  9  3  0
  8 11  1  0
  9 10  1  0
 10 13  1  0
 10 14  1  0
M  RAD  1  10   2
M  END
>  <reaction>  (8) 
rxn_3213

>  <mol_properties>  (8) 
{"0": {"label": "*3", "atom_type": "N3s"}, "1": {"label": "*4", "atom_type": "Cs"}, "8": {"label": "*0", "atom_type": "Ct"}, "9": {"label": "*1", "atom_type": "Cs"}, "11": {"label": "*2", "atom_type": "H0"}}

>  <type>  (8) 
unop_4

>  <geom_source>  (8) 
Heuristics

$$$$

     RDKit          3D

 14 12  0  0  0  0  0  0  0  0999 V2000
    0.5579    1.1919    0.0681 N   0  0  0  0  0  0  0  0  0  0  0  0
    0.5587    1.2011    1.5167 C   0  0  0  0  0  0  0  0  0  0  0  0
   -0.6524    0.6399    2.1458 C   0  0  0  0  0  0  0  0  0  0  0  0
   -1.6102    0.1958    2.5953 N   0  0  0  0  0  0  0  0  0  0  0  0
   -0.2161    1.7290   -0.2979 H   0  0  0  0  0  0  0  0  0  0  0  0
    0.6790    2.2252    1.8735 H   0  0  0  0  0  0  0  0  0  0  0  0
    1.4191    0.6390    1.8832 H   0  0  0  0  0  0  0  0  0  0  0  0
    0.3483   -1.1581   -3.4752 C   0  0  0  0  0  0  0  0  0  0  0  0
    0.3483   -1.1581   -2.2782 C   0  0  0  0  0  0  0  0  0  0  0  0
    0.3483   -1.1581   -0.8227 C   0  0  0  0  0  3  0  0  0  0  0  0
    0.3483   -1.1581   -4.5385 H   0  0  0  0  0  0  0  0  0  0  0  0
    0.4571    0.0617   -0.3603 H   0  0  0  0  0  0  0  0  0  0  0  0
    1.1834   -1.7448   -0.4374 H   0  0  0  0  0  0  0  0  0  0  0  0
   -0.5773   -1.5878   -0.4374 H   0  0  0  0  0  0  0  0  0  0  0  0
  1  2  1  0
  1  5  1  0
  1 12  1  0
  2  3  1  0
  2  6  1  0
  2  7  1  0
  3  4  3  0
  8  9  3  0
  8 11  1  0
  9 10  1  0
 10 13  1  0
 10 14  1  0
M  RAD  1  10   2
M  END
>  <reaction>  (9) 
rxn_3213

>  <mol_properties>  (9) 
{"0": {"label": "*3", "atom_type": "N3s"}, "1": {"label": "*4", "atom_type": "Cs"}, "8": {"label": "*0", "atom_type": "Ct"}, "9": {"label": "*1", "atom_type": "Cs"}, "11": {"label": "*2", "atom_type": "H0"}}

>  <type>  (9) 
unop_5

>  <geom_source>  (9) 
Heuristics

$$$$

     RDKit          3D

 14 12  0  0  0  0  0  0  0  0999 V2000
   -0.8585    1.2714    0.8123 N   0  0  0  0  0  0  0  0  0  0  0  0
    0.5313    1.6363    0.9961 C   0  0  0  0  0  0  0  0  0  0  0  0
    1.4729    0.5015    1.0527 C   0  0  0  0  0  0  0  0  0  0  0  0
    2.1715   -0.4079    1.0914 N   0  0  0  0  0  0  0  0  0  0  0  0
   -1.1824    0.6829    1.5675 H   0  0  0  0  0  0  0  0  0  0  0  0
    0.6379    2.2079    1.9194 H   0  0  0  0  0  0  0  0  0  0  0  0
    0.8451    2.2932    0.1834 H   0  0  0  0  0  0  0  0  0  0  0  0
   -1.0681   -1.0786   -2.7311 C   0  0  0  0  0  0  0  0  0  0  0  0
   -1.0681   -1.0786   -1.5340 C   0  0  0  0  0  0  0  0  0  0  0  0
   -1.0681   -1.0786   -0.0786 C   0  0  0  0  0  3  0  0  0  0  0  0
   -1.0681   -1.0786   -3.7943 H   0  0  0  0  0  0  0  0  0  0  0  0
   -0.9593    0.1413    0.3838 H   0  0  0  0  0  0  0  0  0  0  0  0
   -0.2331   -1.6653    0.3068 H   0  0  0  0  0  0  0  0  0  0  0  0
   -1.9937   -1.5083    0.3068 H   0  0  0  0  0  0  0  0  0  0  0  0
  1  2  1  0
  1  5  1  0
  1 12  1  0
  2  3  1  0
  2  6  1  0
  2  7  1  0
  3  4  3  0
  8  9  3  0
  8 11  1  0
  9 10  1  0
 10 13  1  0
 10 14  1  0
M  RAD  1  10   2
M  END
>  <reaction>  (10) 
rxn_3213

>  <mol_properties>  (10) 
{"0": {"label": "*3", "atom_type": "N3s"}, "1": {"label": "*4", "atom_type": "Cs"}, "8": {"label": "*0", "atom_type": "Ct"}, "9": {"label": "*1", "atom_type": "Cs"}, "11": {"label": "*2", "atom_type": "H0"}}

>  <type>  (10) 
unop_6

>  <geom_source>  (10) 
Heuristics

$$$$

     RDKit          3D

 14 12  0  0  0  0  0  0  0  0999 V2000
   -0.6339    1.4151    0.3870 N   0  0  0  0  0  0  0  0  0  0  0  0
    0.5543    1.5581    1.2032 C   0  0  0  0  0  0  0  0  0  0  0  0
    1.1432    0.2908    1.6769 C   0  0  0  0  0  0  0  0  0  0  0  0
    1.5696   -0.7162    2.0245 N   0  0  0  0  0  0  0  0  0  0  0  0
   -1.3691    0.9434    0.8955 H   0  0  0  0  0  0  0  0  0  0  0  0
    0.3233    2.1689    2.0773 H   0  0  0  0  0  0  0  0  0  0  0  0
    1.3195    2.0946    0.6400 H   0  0  0  0  0  0  0  0  0  0  0  0
   -0.8435   -0.9349   -3.1564 C   0  0  0  0  0  0  0  0  0  0  0  0
   -0.8435   -0.9349   -1.9593 C   0  0  0  0  0  0  0  0  0  0  0  0
   -0.8435   -0.9349   -0.5039 C   0  0  0  0  0  3  0  0  0  0  0  0
   -0.8435   -0.9349   -4.2197 H   0  0  0  0  0  0  0  0  0  0  0  0
   -0.7347    0.2849   -0.0415 H   0  0  0  0  0  0  0  0  0  0  0  0
   -0.0085   -1.5217   -0.1185 H   0  0  0  0  0  0  0  0  0  0  0  0
   -1.7691   -1.3647   -0.1185 H   0  0  0  0  0  0  0  0  0  0  0  0
  1  2  1  0
  1  5  1  0
  1 12  1  0
  2  3  1  0
  2  6  1  0
  2  7  1  0
  3  4  3  0
  8  9  3  0
  8 11  1  0
  9 10  1  0
 10 13  1  0
 10 14  1  0
M  RAD  1  10   2
M  END
>  <reaction>  (11) 
rxn_3213

>  <mol_properties>  (11) 
{"0": {"label": "*3", "atom_type": "N3s"}, "1": {"label": "*4", "atom_type": "Cs"}, "8": {"label": "*0", "atom_type": "Ct"}, "9": {"label": "*1", "atom_type": "Cs"}, "11": {"label": "*2", "atom_type": "H0"}}

>  <type>  (11) 
unop_7

>  <geom_source>  (11) 
Heuristics

$$$$

     RDKit          3D

 14 12  0  0  0  0  0  0  0  0999 V2000
    0.7895    0.3633    1.2467 N   0  0  0  0  0  0  0  0  0  0  0  0
   -0.5139    0.9683    1.4305 C   0  0  0  0  0  0  0  0  0  0  0  0
   -0.9203    1.9108    0.3703 C   0  0  0  0  0  0  0  0  0  0  0  0
   -1.1986    2.6361   -0.4741 N   0  0  0  0  0  0  0  0  0  0  0  0
    1.5145    1.0666    1.2113 H   0  0  0  0  0  0  0  0  0  0  0  0
   -0.5356    1.5025    2.3816 H   0  0  0  0  0  0  0  0  0  0  0  0
   -1.2719    0.1860    1.4935 H   0  0  0  0  0  0  0  0  0  0  0  0
    0.5800   -1.9867   -2.2967 C   0  0  0  0  0  0  0  0  0  0  0  0
    0.5800   -1.9867   -1.0996 C   0  0  0  0  0  0  0  0  0  0  0  0
    0.5800   -1.9867    0.3558 C   0  0  0  0  0  3  0  0  0  0  0  0
    0.5800   -1.9867   -3.3600 H   0  0  0  0  0  0  0  0  0  0  0  0
    0.6887   -0.7669    0.8182 H   0  0  0  0  0  0  0  0  0  0  0  0
    1.4150   -2.5734    0.7412 H   0  0  0  0  0  0  0  0  0  0  0  0
   -0.3457   -2.4165    0.7411 H   0  0  0  0  0  0  0  0  0  0  0  0
  1  2  1  0
  1  5  1  0
  1 12  1  0
  2  3  1  0
  2  6  1  0
  2  7  1  0
  3  4  3  0
  8  9  3  0
  8 11  1  0
  9 10  1  0
 10 13  1  0
 10 14  1  0
M  RAD  1  10   2
M  END
>  <reaction>  (12) 
rxn_3213

>  <mol_properties>  (12) 
{"0": {"label": "*3", "atom_type": "N3s"}, "1": {"label": "*4", "atom_type": "Cs"}, "8": {"label": "*0", "atom_type": "Ct"}, "9": {"label": "*1", "atom_type": "Cs"}, "11": {"label": "*2", "atom_type": "H0"}}

>  <type>  (12) 
unop_8

>  <geom_source>  (12) 
Heuristics

$$$$

     RDKit          3D

 14 12  0  0  0  0  0  0  0  0999 V2000
   -0.6872    0.8812    1.5332 N   0  0  0  0  0  0  0  0  0  0  0  0
    0.0660    1.7180    0.6217 C   0  0  0  0  0  0  0  0  0  0  0  0
    1.2429    1.0725    0.0087 C   0  0  0  0  0  0  0  0  0  0  0  0
    2.1486    0.5344   -0.4459 N   0  0  0  0  0  0  0  0  0  0  0  0
   -0.1104    0.5727    2.3037 H   0  0  0  0  0  0  0  0  0  0  0  0
    0.4080    2.6112    1.1468 H   0  0  0  0  0  0  0  0  0  0  0  0
   -0.5874    2.0590   -0.1828 H   0  0  0  0  0  0  0  0  0  0  0  0
   -0.8967   -1.4688   -2.0101 C   0  0  0  0  0  0  0  0  0  0  0  0
   -0.8967   -1.4688   -0.8131 C   0  0  0  0  0  0  0  0  0  0  0  0
   -0.8967   -1.4688    0.6423 C   0  0  0  0  0  3  0  0  0  0  0  0
   -0.8967   -1.4688   -3.0734 H   0  0  0  0  0  0  0  0  0  0  0  0
   -0.7880   -0.2490    1.1047 H   0  0  0  0  0  0  0  0  0  0  0  0
   -0.0617   -2.0555    1.0277 H   0  0  0  0  0  0  0  0  0  0  0  0
   -1.8224   -1.8986    1.0277 H   0  0  0  0  0  0  0  0  0  0  0  0
  1  2  1  0
  1  5  1  0
  1 12  1  0
  2  3  1  0
  2  6  1  0
  2  7  1  0
  3  4  3  0
  8  9  3  0
  8 11  1  0
  9 10  1  0
 10 13  1  0
 10 14  1  0
M  RAD  1  10   2
M  END
>  <reaction>  (13) 
rxn_3213

>  <mol_properties>  (13) 
{"0": {"label": "*3", "atom_type": "N3s"}, "1": {"label": "*4", "atom_type": "Cs"}, "8": {"label": "*0", "atom_type": "Ct"}, "9": {"label": "*1", "atom_type": "Cs"}, "11": {"label": "*2", "atom_type": "H0"}}

>  <type>  (13) 
unop_9

>  <geom_source>  (13) 
Heuristics

$$$$

     RDKit          3D

 14 12  0  0  0  0  0  0  0  0999 V2000
    0.4503    0.3385    1.5802 N   0  0  0  0  0  0  0  0  0  0  0  0
   -0.6514    1.1652    1.1317 C   0  0  0  0  0  0  0  0  0  0  0  0
   -0.3961    1.9296   -0.1044 C   0  0  0  0  0  0  0  0  0  0  0  0
   -0.1576    2.5068   -1.0670 N   0  0  0  0  0  0  0  0  0  0  0  0
    1.2711    0.8977    1.7675 H   0  0  0  0  0  0  0  0  0  0  0  0
   -0.9165    1.8748    1.9170 H   0  0  0  0  0  0  0  0  0  0  0  0
   -1.5302    0.5403    0.9649 H   0  0  0  0  0  0  0  0  0  0  0  0
    0.2408   -2.0115   -1.9631 C   0  0  0  0  0  0  0  0  0  0  0  0
    0.2408   -2.0115   -0.7661 C   0  0  0  0  0  0  0  0  0  0  0  0
    0.2408   -2.0115    0.6894 C   0  0  0  0  0  3  0  0  0  0  0  0
    0.2408   -2.0115   -3.0264 H   0  0  0  0  0  0  0  0  0  0  0  0
    0.3495   -0.7917    1.1518 H   0  0  0  0  0  0  0  0  0  0  0  0
    1.0758   -2.5983    1.0747 H   0  0  0  0  0  0  0  0  0  0  0  0
   -0.6849   -2.4413    1.0747 H   0  0  0  0  0  0  0  0  0  0  0  0
  1  2  1  0
  1  5  1  0
  1 12  1  0
  2  3  1  0
  2  6  1  0
  2  7  1  0
  3  4  3  0
  8  9  3  0
  8 11  1  0
  9 10  1  0
 10 13  1  0
 10 14  1  0
M  RAD  1  10   2
M  END
>  <reaction>  (14) 
rxn_3213

>  <mol_properties>  (14) 
{"0": {"label": "*3", "atom_type": "N3s"}, "1": {"label": "*4", "atom_type": "Cs"}, "8": {"label": "*0", "atom_type": "Ct"}, "9": {"label": "*1", "atom_type": "Cs"}, "11": {"label": "*2", "atom_type": "H0"}}

>  <type>  (14) 
unop_10

>  <geom_source>  (14) 
Heuristics

$$$$

     RDKit          3D

 14 12  0  0  0  0  0  0  0  0999 V2000
   -0.1293    1.4510    0.0679 N   0  0  0  0  0  0  0  0  0  0  0  0
    0.5505    1.4639    1.3470 C   0  0  0  0  0  0  0  0  0  0  0  0
    0.3903    0.2377    2.1521 C   0  0  0  0  0  0  0  0  0  0  0  0
    0.2410   -0.7324    2.7465 N   0  0  0  0  0  0  0  0  0  0  0  0
   -1.1254    1.3288    0.1873 H   0  0  0  0  0  0  0  0  0  0  0  0
    0.1910    2.3055    1.9411 H   0  0  0  0  0  0  0  0  0  0  0  0
    1.6181    1.6255    1.1896 H   0  0  0  0  0  0  0  0  0  0  0  0
   -0.3388   -0.8990   -3.4755 C   0  0  0  0  0  0  0  0  0  0  0  0
   -0.3388   -0.8990   -2.2784 C   0  0  0  0  0  0  0  0  0  0  0  0
   -0.3388   -0.8990   -0.8230 C   0  0  0  0  0  3  0  0  0  0  0  0
   -0.3388   -0.8990   -4.5387 H   0  0  0  0  0  0  0  0  0  0  0  0
   -0.2300    0.3208   -0.3606 H   0  0  0  0  0  0  0  0  0  0  0  0
    0.4962   -1.4857   -0.4376 H   0  0  0  0  0  0  0  0  0  0  0  0
   -1.2644   -1.3288   -0.4376 H   0  0  0  0  0  0  0  0  0  0  0  0
  1  2  1  0
  1  5  1  0
  1 12  1  0
  2  3  1  0
  2  6  1  0
  2  7  1  0
  3  4  3  0
  8  9  3  0
  8 11  1  0
  9 10  1  0
 10 13  1  0
 10 14  1  0
M  RAD  1  10   2
M  END
>  <reaction>  (15) 
rxn_3213

>  <mol_properties>  (15) 
{"0": {"label": "*3", "atom_type": "N3s"}, "1": {"label": "*4", "atom_type": "Cs"}, "8": {"label": "*0", "atom_type": "Ct"}, "9": {"label": "*1", "atom_type": "Cs"}, "11": {"label": "*2", "atom_type": "H0"}}

>  <type>  (15) 
unop_11

>  <geom_source>  (15) 
Heuristics

$$$$

     RDKit          3D

 14 12  0  0  0  0  0  0  0  0999 V2000
   -0.3936    0.6500    1.7215 N   0  0  0  0  0  0  0  0  0  0  0  0
   -0.3080    1.6106    0.6406 C   0  0  0  0  0  0  0  0  0  0  0  0
    0.8364    1.4238   -0.2721 C   0  0  0  0  0  0  0  0  0  0  0  0
    1.7385    1.2442   -0.9580 N   0  0  0  0  0  0  0  0  0  0  0  0
    0.4314    0.6848    2.3044 H   0  0  0  0  0  0  0  0  0  0  0  0
   -0.2471    2.6184    1.0541 H   0  0  0  0  0  0  0  0  0  0  0  0
   -1.2220    1.5710    0.0460 H   0  0  0  0  0  0  0  0  0  0  0  0
   -0.6032   -1.7000   -1.8218 C   0  0  0  0  0  0  0  0  0  0  0  0
   -0.6032   -1.7000   -0.6248 C   0  0  0  0  0  0  0  0  0  0  0  0
   -0.6032   -1.7000    0.8306 C   0  0  0  0  0  3  0  0  0  0  0  0
   -0.6032   -1.7000   -2.8851 H   0  0  0  0  0  0  0  0  0  0  0  0
   -0.4944   -0.4802    1.2931 H   0  0  0  0  0  0  0  0  0  0  0  0
    0.2318   -2.2867    1.2160 H   0  0  0  0  0  0  0  0  0  0  0  0
   -1.5288   -2.1298    1.2160 H   0  0  0  0  0  0  0  0  0  0  0  0
  1  2  1  0
  1  5  1  0
  1 12  1  0
  2  3  1  0
  2  6  1  0
  2  7  1  0
  3  4  3  0
  8  9  3  0
  8 11  1  0
  9 10  1  0
 10 13  1  0
 10 14  1  0
M  RAD  1  10   2
M  END
>  <reaction>  (16) 
rxn_3213

>  <mol_properties>  (16) 
{"0": {"label": "*3", "atom_type": "N3s"}, "1": {"label": "*4", "atom_type": "Cs"}, "8": {"label": "*0", "atom_type": "Ct"}, "9": {"label": "*1", "atom_type": "Cs"}, "11": {"label": "*2", "atom_type": "H0"}}

>  <type>  (16) 
unop_12

>  <geom_source>  (16) 
Heuristics

$$$$

     RDKit          3D

 14 12  0  0  0  0  0  0  0  0999 V2000
    0.0130    0.4424    1.7480 N   0  0  0  0  0  0  0  0  0  0  0  0
   -0.5803    1.3992    0.8365 C   0  0  0  0  0  0  0  0  0  0  0  0
    0.2535    1.7521   -0.3287 C   0  0  0  0  0  0  0  0  0  0  0  0
    0.9324    1.9995   -1.2200 N   0  0  0  0  0  0  0  0  0  0  0  0
    0.8817    0.7929    2.1275 H   0  0  0  0  0  0  0  0  0  0  0  0
   -0.8114    2.3194    1.3754 H   0  0  0  0  0  0  0  0  0  0  0  0
   -1.5285    1.0076    0.4650 H   0  0  0  0  0  0  0  0  0  0  0  0
   -0.1965   -1.9077   -1.7954 C   0  0  0  0  0  0  0  0  0  0  0  0
   -0.1965   -1.9077   -0.5983 C   0  0  0  0  0  0  0  0  0  0  0  0
   -0.1965   -1.9077    0.8571 C   0  0  0  0  0  3  0  0  0  0  0  0
   -0.1965   -1.9077   -2.8586 H   0  0  0  0  0  0  0  0  0  0  0  0
   -0.0877   -0.6878    1.3195 H   0  0  0  0  0  0  0  0  0  0  0  0
    0.6385   -2.4944    1.2425 H   0  0  0  0  0  0  0  0  0  0  0  0
   -1.1221   -2.3374    1.2425 H   0  0  0  0  0  0  0  0  0  0  0  0
  1  2  1  0
  1  5  1  0
  1 12  1  0
  2  3  1  0
  2  6  1  0
  2  7  1  0
  3  4  3  0
  8  9  3  0
  8 11  1  0
  9 10  1  0
 10 13  1  0
 10 14  1  0
M  RAD  1  10   2
M  END
>  <reaction>  (17) 
rxn_3213

>  <mol_properties>  (17) 
{"0": {"label": "*3", "atom_type": "N3s"}, "1": {"label": "*4", "atom_type": "Cs"}, "8": {"label": "*0", "atom_type": "Ct"}, "9": {"label": "*1", "atom_type": "Cs"}, "11": {"label": "*2", "atom_type": "H0"}}

>  <type>  (17) 
unop_13

>  <geom_source>  (17) 
gaussian_log

$$$$
