
     RDKit          3D

 19 20  0  0  0  0  0  0  0  0999 V2000
    1.1087   -0.4716   -0.9619 C   0  0  0  0  0  0  0  0  0  0  0  0
    0.9355    1.0407   -0.6470 C   0  0  0  0  0  0  0  0  0  0  0  0
   -0.0085    1.0377    0.5657 C   0  0  0  0  0  0  0  0  0  0  0  0
   -1.4093    0.6181    0.0927 C   0  0  0  0  0  0  0  0  0  0  0  0
   -1.2361   -0.8942   -0.2222 C   0  0  0  0  0  0  0  0  0  0  0  0
    0.2422   -1.1516    0.1099 C   0  0  0  0  0  0  0  0  0  0  0  0
    0.4537   -0.2211    1.3118 C   0  0  0  0  0  0  0  0  0  0  0  0
    2.1524   -0.7752   -0.8653 H   0  0  0  0  0  0  0  0  0  0  0  0
    0.7855   -0.7316   -1.9710 H   0  0  0  0  0  0  0  0  0  0  0  0
    1.8918    1.5001   -0.3916 H   0  0  0  0  0  0  0  0  0  0  0  0
    0.5184    1.6005   -1.4855 H   0  0  0  0  0  0  0  0  0  0  0  0
    0.0038    1.9661    1.1351 H   0  0  0  0  0  0  0  0  0  0  0  0
   -1.7351    1.1944   -0.7746 H   0  0  0  0  0  0  0  0  0  0  0  0
   -2.1465    0.7723    0.8824 H   0  0  0  0  0  0  0  0  0  0  0  0
   -1.4680   -1.1377   -1.2601 H   0  0  0  0  0  0  0  0  0  0  0  0
   -1.8859   -1.5030    0.4087 H   0  0  0  0  0  0  0  0  0  0  0  0
    0.4812   -2.2025    0.2673 H   0  0  0  0  0  0  0  0  0  0  0  0
    1.4942   -0.1701    1.6391 H   0  0  0  0  0  0  0  0  0  0  0  0
   -0.1779   -0.4714    2.1666 H   0  0  0  0  0  0  0  0  0  0  0  0
  1  2  1  0
  1  6  1  0
  1  8  1  0
  1  9  1  0
  2  3  1  0
  2 10  1  0
  2 11  1  0
  3  4  1  0
  3  7  1  0
  3 12  1  0
  4  5  1  0
  4 13  1  0
  4 14  1  0
  5  6  1  0
  5 15  1  0
  5 16  1  0
  6  7  1  0
  6 17  1  0
  7 18  1  0
  7 19  1  0
M  END
>  <reaction>  (1) 
rxn_548

>  <mol_properties>  (1) 
{"6": {"label": "donator", "atom_type": "Cs"}, "17": {"label": "d_hydrogen", "atom_type": "H0"}}

>  <type>  (1) 
r1h

$$$$

     RDKit          3D

 17 17  0  0  0  0  0  0  0  0999 V2000
    2.7069    0.2860   -0.1817 C   0  0  0  0  0  0  0  0  0  0  0  0
    1.6304   -0.7245    0.0085 C   0  0  0  0  0  0  0  0  0  0  0  0
    1.4786   -1.8800   -0.7837 C   0  0  0  0  0  0  0  0  0  0  0  0
    0.4231   -2.7891   -0.5312 C   0  0  0  0  0  3  0  0  0  0  0  0
    0.2582   -3.9235   -1.2940 C   0  0  0  0  0  0  0  0  0  0  0  0
    1.1348   -4.2030   -2.3401 C   0  0  0  0  0  0  0  0  0  0  0  0
    2.1804   -3.3260   -2.6093 C   0  0  0  0  0  0  0  0  0  0  0  0
    2.3549   -2.1866   -1.8513 C   0  0  0  0  0  0  0  0  0  0  0  0
    2.6698    0.7343   -1.1808 H   0  0  0  0  0  0  0  0  0  0  0  0
    3.7029   -0.1584   -0.0766 H   0  0  0  0  0  0  0  0  0  0  0  0
    2.6250    1.0917    0.5463 H   0  0  0  0  0  0  0  0  0  0  0  0
    0.9136   -0.5677    0.8059 H   0  0  0  0  0  0  0  0  0  0  0  0
   -0.2629   -2.5783    0.2811 H   0  0  0  0  0  0  0  0  0  0  0  0
   -0.5582   -4.6017   -1.0785 H   0  0  0  0  0  0  0  0  0  0  0  0
    1.0033   -5.0952   -2.9384 H   0  0  0  0  0  0  0  0  0  0  0  0
    2.8650   -3.5382   -3.4214 H   0  0  0  0  0  0  0  0  0  0  0  0
    3.1750   -1.5169   -2.0772 H   0  0  0  0  0  0  0  0  0  0  0  0
  1  2  1  0
  1  9  1  0
  1 10  1  0
  1 11  1  0
  2  3  2  3
  2 12  1  0
  3  4  1  0
  3  8  1  0
  4  5  1  0
  4 13  1  0
  5  6  2  0
  5 14  1  0
  6  7  1  0
  6 15  1  0
  7  8  2  0
  7 16  1  0
  8 17  1  0
M  RAD  1   4   2
M  END
>  <reaction>  (2) 
rxn_548

>  <mol_properties>  (2) 
{"1": {"label": "acceptor", "atom_type": "Cs"}}

>  <type>  (2) 
r2

$$$$

     RDKit          3D

 18 18  0  0  0  0  0  0  0  0999 V2000
   -2.4852    0.3210   -0.3966 C   0  0  0  0  0  0  0  0  0  0  0  0
   -1.5917   -0.2708    0.6941 C   0  0  0  0  0  0  0  0  0  0  0  0
   -0.1292   -0.1692    0.3493 C   0  0  0  0  0  0  0  0  0  0  0  0
    0.6099    0.9558    0.7015 C   0  0  0  0  0  0  0  0  0  0  0  0
    1.9447    1.0728    0.3458 C   0  0  0  0  0  0  0  0  0  0  0  0
    2.5646    0.0613   -0.3720 C   0  0  0  0  0  0  0  0  0  0  0  0
    1.8399   -1.0657   -0.7287 C   0  0  0  0  0  0  0  0  0  0  0  0
    0.5055   -1.1769   -0.3700 C   0  0  0  0  0  0  0  0  0  0  0  0
   -2.3325   -0.1971   -1.3452 H   0  0  0  0  0  0  0  0  0  0  0  0
   -2.2554    1.3763   -0.5546 H   0  0  0  0  0  0  0  0  0  0  0  0
   -3.5397    0.2376   -0.1280 H   0  0  0  0  0  0  0  0  0  0  0  0
   -1.7801    0.2462    1.6380 H   0  0  0  0  0  0  0  0  0  0  0  0
   -1.8568   -1.3190    0.8516 H   0  0  0  0  0  0  0  0  0  0  0  0
    0.1327    1.7497    1.2656 H   0  0  0  0  0  0  0  0  0  0  0  0
    2.5033    1.9550    0.6330 H   0  0  0  0  0  0  0  0  0  0  0  0
    3.6077    0.1491   -0.6484 H   0  0  0  0  0  0  0  0  0  0  0  0
    2.3163   -1.8632   -1.2854 H   0  0  0  0  0  0  0  0  0  0  0  0
   -0.0540   -2.0629   -0.6500 H   0  0  0  0  0  0  0  0  0  0  0  0
  1  2  1  0
  1  9  1  0
  1 10  1  0
  1 11  1  0
  2  3  1  0
  2 12  1  0
  2 13  1  0
  3  4  2  0
  3  8  1  0
  4  5  1  0
  4 14  1  0
  5  6  2  0
  5 15  1  0
  6  7  1  0
  6 16  1  0
  7  8  2  0
  7 17  1  0
  8 18  1  0
M  END
>  <reaction>  (3) 
rxn_548

>  <mol_properties>  (3) 
{"1": {"label": "acceptor", "atom_type": "Cs"}, "17": {"label": "a_hydrogen", "atom_type": "H0"}}

>  <type>  (3) 
r2h

$$$$

     RDKit          3D

 36 37  0  0  0  0  0  0  0  0999 V2000
   -1.5839    0.2272    2.4661 C   0  0  0  0  0  0  0  0  0  0  0  0
   -1.5588    0.6394    1.0130 C   0  0  0  0  0  0  0  0  0  0  0  0
   -1.7708   -0.3918   -0.0258 C   0  0  0  0  0  0  0  0  0  0  0  0
   -2.0526    0.0023   -1.3373 C   0  0  0  0  0  0  0  0  0  0  0  0
   -2.1637   -0.9243   -2.3574 C   0  0  0  0  0  0  0  0  0  0  0  0
   -1.9982   -2.2776   -2.0923 C   0  0  0  0  0  0  0  0  0  0  0  0
   -1.7310   -2.6866   -0.7956 C   0  0  0  0  0  0  0  0  0  0  0  0
   -1.6201   -1.7555    0.2261 C   0  0  0  0  0  0  0  0  0  0  0  0
   -0.7970   -0.4948    2.6946 H   0  0  0  0  0  0  0  0  0  0  0  0
   -2.5407   -0.2246    2.7429 H   0  0  0  0  0  0  0  0  0  0  0  0
   -1.4233    1.0945    3.1076 H   0  0  0  0  0  0  0  0  0  0  0  0
   -2.1677    1.5245    0.8242 H   0  0  0  0  0  0  0  0  0  0  0  0
   -2.1742    1.0579   -1.5542 H   0  0  0  0  0  0  0  0  0  0  0  0
   -2.3793   -0.5917   -3.3653 H   0  0  0  0  0  0  0  0  0  0  0  0
   -2.0824   -3.0053   -2.8892 H   0  0  0  0  0  0  0  0  0  0  0  0
   -1.6076   -3.7397   -0.5749 H   0  0  0  0  0  0  0  0  0  0  0  0
   -1.4113   -2.0989    1.2313 H   0  0  0  0  0  0  0  0  0  0  0  0
    1.6540   -0.1272   -0.6454 C   0  0  0  0  0  0  0  0  0  0  0  0
    1.8506   -0.5068    0.8473 C   0  0  0  0  0  0  0  0  0  0  0  0
    1.9183    0.8580    1.5519 C   0  0  0  0  0  0  0  0  0  0  0  0
    3.2468    1.5396    1.1550 C   0  0  0  0  0  0  0  0  0  0  0  0
    3.0088    1.9412   -0.3304 C   0  0  0  0  0  0  0  0  0  0  0  0
    1.5861    1.4099   -0.6107 C   0  0  0  0  0  0  0  0  0  0  0  0
    0.9344    1.6739    0.7346 C   0  0  0  0  0  3  0  0  0  0  0  0
    0.7324   -0.5539   -1.0398 H   0  0  0  0  0  0  0  0  0  0  0  0
    2.4738   -0.4741   -1.2761 H   0  0  0  0  0  0  0  0  0  0  0  0
    1.0021   -1.0894    1.2093 H   0  0  0  0  0  0  0  0  0  0  0  0
    2.7517   -1.0970    1.0199 H   0  0  0  0  0  0  0  0  0  0  0  0
    1.7471    0.8172    2.6264 H   0  0  0  0  0  0  0  0  0  0  0  0
    4.0974    0.8666    1.2783 H   0  0  0  0  0  0  0  0  0  0  0  0
    3.4312    2.4183    1.7745 H   0  0  0  0  0  0  0  0  0  0  0  0
    3.7442    1.5051   -1.0089 H   0  0  0  0  0  0  0  0  0  0  0  0
    3.0487    3.0245   -0.4538 H   0  0  0  0  0  0  0  0  0  0  0  0
    1.1105    1.8558   -1.4824 H   0  0  0  0  0  0  0  0  0  0  0  0
   -0.3916    1.0994    0.8209 H   0  0  0  0  0  0  0  0  0  0  0  0
    0.7609    2.7098    1.0245 H   0  0  0  0  0  0  0  0  0  0  0  0
  1  2  1  0
  1  9  1  0
  1 10  1  0
  1 11  1  0
  2  3  1  0
  2 12  1  0
  2 35  1  0
  3  4  2  0
  3  8  1  0
  4  5  1  0
  4 13  1  0
  5  6  2  0
  5 14  1  0
  6  7  1  0
  6 15  1  0
  7  8  2  0
  7 16  1  0
  8 17  1  0
 18 19  1  0
 18 23  1  0
 18 25  1  0
 18 26  1  0
 19 20  1  0
 19 27  1  0
 19 28  1  0
 20 21  1  0
 20 24  1  0
 20 29  1  0
 21 22  1  0
 21 30  1  0
 21 31  1  0
 22 23  1  0
 22 32  1  0
 22 33  1  0
 23 24  1  0
 23 34  1  0
 24 36  1  0
M  RAD  1  24   2
M  END
>  <reaction>  (4) 
rxn_548

>  <mol_properties>  (4) 
{"1": {"label": "*1", "atom_type": "Cs"}, "2": {"label": "*0", "atom_type": "Cd"}, "19": {"label": "*4", "atom_type": "Cs"}, "23": {"label": "*3", "atom_type": "Cs"}, "34": {"label": "*2", "atom_type": "H0"}}

>  <type>  (4) 
ts

$$$$

     RDKit          3D

 36 37  0  0  0  0  0  0  0  0999 V2000
   -2.1507    1.9673   -0.0877 C   0  0  0  0  0  0  0  0  0  0  0  0
   -1.1636    0.8130   -0.2653 C   0  0  0  0  0  0  0  0  0  0  0  0
   -1.7790   -0.5195    0.0723 C   0  0  0  0  0  0  0  0  0  0  0  0
   -2.4416   -1.2651   -0.8976 C   0  0  0  0  0  3  0  0  0  0  0  0
   -3.0487   -2.4703   -0.5801 C   0  0  0  0  0  0  0  0  0  0  0  0
   -3.0027   -2.9512    0.7196 C   0  0  0  0  0  0  0  0  0  0  0  0
   -2.3449   -2.2186    1.6959 C   0  0  0  0  0  0  0  0  0  0  0  0
   -1.7397   -1.0141    1.3722 C   0  0  0  0  0  0  0  0  0  0  0  0
   -2.5046    2.0184    0.9437 H   0  0  0  0  0  0  0  0  0  0  0  0
   -3.0225    1.8332   -0.7309 H   0  0  0  0  0  0  0  0  0  0  0  0
   -1.6860    2.9228   -0.3371 H   0  0  0  0  0  0  0  0  0  0  0  0
   -0.8049    0.7975   -1.2972 H   0  0  0  0  0  0  0  0  0  0  0  0
   -2.4791   -0.8969   -1.9171 H   0  0  0  0  0  0  0  0  0  0  0  0
   -3.5562   -3.0373   -1.3507 H   0  0  0  0  0  0  0  0  0  0  0  0
   -3.4735   -3.8936    0.9694 H   0  0  0  0  0  0  0  0  0  0  0  0
   -2.2996   -2.5879    2.7130 H   0  0  0  0  0  0  0  0  0  0  0  0
   -1.2244   -0.4482    2.1406 H   0  0  0  0  0  0  0  0  0  0  0  0
    2.1535   -0.3220   -1.0425 C   0  0  0  0  0  0  0  0  0  0  0  0
    2.1535   -0.3220    0.5119 C   0  0  0  0  0  0  0  0  0  0  0  0
    2.1535    1.1750    0.8598 C   0  0  0  0  0  0  0  0  0  0  0  0
    3.5327    1.7568    0.5119 C   0  0  0  0  0  0  0  0  0  0  0  0
    3.5327    1.7568   -1.0425 C   0  0  0  0  0  0  0  0  0  0  0  0
    2.1535    1.1750   -1.3904 C   0  0  0  0  0  0  0  0  0  0  0  0
    1.2839    1.7519   -0.2653 C   0  0  0  0  0  0  0  0  0  0  0  0
    1.2597   -0.8102   -1.4346 H   0  0  0  0  0  0  0  0  0  0  0  0
    3.0179   -0.8373   -1.4638 H   0  0  0  0  0  0  0  0  0  0  0  0
    1.2597   -0.8102    0.9040 H   0  0  0  0  0  0  0  0  0  0  0  0
    3.0179   -0.8373    0.9332 H   0  0  0  0  0  0  0  0  0  0  0  0
    1.8290    1.3902    1.8770 H   0  0  0  0  0  0  0  0  0  0  0  0
    4.3435    1.1606    0.9332 H   0  0  0  0  0  0  0  0  0  0  0  0
    3.6352    2.7700    0.9040 H   0  0  0  0  0  0  0  0  0  0  0  0
    4.3435    1.1606   -1.4638 H   0  0  0  0  0  0  0  0  0  0  0  0
    3.6352    2.7700   -1.4346 H   0  0  0  0  0  0  0  0  0  0  0  0
    1.8290    1.3902   -2.4076 H   0  0  0  0  0  0  0  0  0  0  0  0
    0.0605    1.2826   -0.2653 H   0  0  0  0  0  0  0  0  0  0  0  0
    1.2480    2.8432   -0.2653 H   0  0  0  0  0  0  0  0  0  0  0  0
  1  2  1  0
  1  9  1  0
  1 10  1  0
  1 11  1  0
  2  3  2  3
  2 12  1  0
  3  4  1  0
  3  8  1  0
  4  5  1  0
  4 13  1  0
  5  6  2  0
  5 14  1  0
  6  7  1  0
  6 15  1  0
  7  8  2  0
  7 16  1  0
  8 17  1  0
 18 19  1  0
 18 23  1  0
 18 25  1  0
 18 26  1  0
 19 20  1  0
 19 27  1  0
 19 28  1  0
 20 21  1  0
 20 24  1  0
 20 29  1  0
 21 22  1  0
 21 30  1  0
 21 31  1  0
 22 23  1  0
 22 32  1  0
 22 33  1  0
 23 24  1  0
 23 34  1  0
 24 35  1  0
 24 36  1  0
M  RAD  1   4   2
M  END
>  <reaction>  (5) 
rxn_548

>  <mol_properties>  (5) 
{"1": {"label": "*1", "atom_type": "Cs"}, "2": {"label": "*0", "atom_type": "Cd"}, "19": {"label": "*4", "atom_type": "Cs"}, "23": {"label": "*3", "atom_type": "Cs"}, "34": {"label": "*2", "atom_type": "H0"}}

>  <type>  (5) 
unop_1

>  <geom_source>  (5) 
Heuristics

$$$$

     RDKit          3D

 36 37  0  0  0  0  0  0  0  0999 V2000
   -1.7238    0.3640    2.0511 C   0  0  0  0  0  0  0  0  0  0  0  0
   -1.3129    0.7119    0.6199 C   0  0  0  0  0  0  0  0  0  0  0  0
   -1.7949   -0.3106   -0.3753 C   0  0  0  0  0  0  0  0  0  0  0  0
   -3.0469   -0.1914   -0.9704 C   0  0  0  0  0  3  0  0  0  0  0  0
   -3.5126   -1.1545   -1.8520 C   0  0  0  0  0  0  0  0  0  0  0  0
   -2.7294   -2.2583   -2.1538 C   0  0  0  0  0  0  0  0  0  0  0  0
   -1.4793   -2.3891   -1.5683 C   0  0  0  0  0  0  0  0  0  0  0  0
   -1.0192   -1.4226   -0.6875 C   0  0  0  0  0  0  0  0  0  0  0  0
   -1.3144   -0.6037    2.3468 H   0  0  0  0  0  0  0  0  0  0  0  0
   -2.8103    0.3047    2.1381 H   0  0  0  0  0  0  0  0  0  0  0  0
   -1.3654    1.1162    2.7560 H   0  0  0  0  0  0  0  0  0  0  0  0
   -1.7127    1.6938    0.3558 H   0  0  0  0  0  0  0  0  0  0  0  0
   -3.6638    0.6708   -0.7417 H   0  0  0  0  0  0  0  0  0  0  0  0
   -4.4885   -1.0410   -2.3075 H   0  0  0  0  0  0  0  0  0  0  0  0
   -3.0897   -3.0103   -2.8442 H   0  0  0  0  0  0  0  0  0  0  0  0
   -0.8583   -3.2453   -1.8010 H   0  0  0  0  0  0  0  0  0  0  0  0
   -0.0390   -1.5302   -0.2359 H   0  0  0  0  0  0  0  0  0  0  0  0
    2.0042   -0.4232   -0.1573 C   0  0  0  0  0  0  0  0  0  0  0  0
    2.0042   -0.4232    1.3971 C   0  0  0  0  0  0  0  0  0  0  0  0
    2.0042    1.0738    1.7451 C   0  0  0  0  0  0  0  0  0  0  0  0
    3.3834    1.6556    1.3971 C   0  0  0  0  0  0  0  0  0  0  0  0
    3.3834    1.6556   -0.1573 C   0  0  0  0  0  0  0  0  0  0  0  0
    2.0042    1.0738   -0.5052 C   0  0  0  0  0  0  0  0  0  0  0  0
    1.1346    1.6507    0.6199 C   0  0  0  0  0  0  0  0  0  0  0  0
    1.1104   -0.9114   -0.5494 H   0  0  0  0  0  0  0  0  0  0  0  0
    2.8687   -0.9385   -0.5786 H   0  0  0  0  0  0  0  0  0  0  0  0
    1.1104   -0.9114    1.7893 H   0  0  0  0  0  0  0  0  0  0  0  0
    2.8687   -0.9385    1.8185 H   0  0  0  0  0  0  0  0  0  0  0  0
    1.6797    1.2890    2.7623 H   0  0  0  0  0  0  0  0  0  0  0  0
    4.1942    1.0594    1.8185 H   0  0  0  0  0  0  0  0  0  0  0  0
    3.4859    2.6689    1.7893 H   0  0  0  0  0  0  0  0  0  0  0  0
    4.1942    1.0594   -0.5786 H   0  0  0  0  0  0  0  0  0  0  0  0
    3.4859    2.6689   -0.5494 H   0  0  0  0  0  0  0  0  0  0  0  0
    1.6797    1.2890   -1.5224 H   0  0  0  0  0  0  0  0  0  0  0  0
   -0.0888    1.1814    0.6199 H   0  0  0  0  0  0  0  0  0  0  0  0
    1.0987    2.7421    0.6199 H   0  0  0  0  0  0  0  0  0  0  0  0
  1  2  1  0
  1  9  1  0
  1 10  1  0
  1 11  1  0
  2  3  2  3
  2 12  1  0
  3  4  1  0
  3  8  1  0
  4  5  1  0
  4 13  1  0
  5  6  2  0
  5 14  1  0
  6  7  1  0
  6 15  1  0
  7  8  2  0
  7 16  1  0
  8 17  1  0
 18 19  1  0
 18 23  1  0
 18 25  1  0
 18 26  1  0
 19 20  1  0
 19 27  1  0
 19 28  1  0
 20 21  1  0
 20 24  1  0
 20 29  1  0
 21 22  1  0
 21 30  1  0
 21 31  1  0
 22 23  1  0
 22 32  1  0
 22 33  1  0
 23 24  1  0
 23 34  1  0
 24 35  1  0
 24 36  1  0
M  RAD  1   4   2
M  END
>  <reaction>  (6) 
rxn_548

>  <mol_properties>  (6) 
{"1": {"label": "*1", "atom_type": "Cs"}, "2": {"label": "*0", "atom_type": "Cd"}, "19": {"label": "*4", "atom_type": "Cs"}, "23": {"label": "*3", "atom_type": "Cs"}, "34": {"label": "*2", "atom_type": "H0"}}

>  <type>  (6) 
unop_2

>  <geom_source>  (6) 
Heuristics

$$$$

     RDKit          3D

 36 37  0  0  0  0  0  0  0  0999 V2000
   -2.0754    1.5466   -1.2718 C   0  0  0  0  0  0  0  0  0  0  0  0
   -1.1252    0.4884   -0.7100 C   0  0  0  0  0  0  0  0  0  0  0  0
   -1.7963   -0.3974    0.3065 C   0  0  0  0  0  0  0  0  0  0  0  0
   -2.4578   -1.5572   -0.0846 C   0  0  0  0  0  3  0  0  0  0  0  0
   -3.1156   -2.3507    0.8425 C   0  0  0  0  0  0  0  0  0  0  0  0
   -3.1225   -1.9947    2.1826 C   0  0  0  0  0  0  0  0  0  0  0  0
   -2.4663   -0.8417    2.5862 C   0  0  0  0  0  0  0  0  0  0  0  0
   -1.8103   -0.0524    1.6543 C   0  0  0  0  0  0  0  0  0  0  0  0
   -2.4555    2.1877   -0.4742 H   0  0  0  0  0  0  0  0  0  0  0  0
   -2.9333    1.0775   -1.7572 H   0  0  0  0  0  0  0  0  0  0  0  0
   -1.5706    2.1773   -2.0056 H   0  0  0  0  0  0  0  0  0  0  0  0
   -0.7390   -0.1240   -1.5283 H   0  0  0  0  0  0  0  0  0  0  0  0
   -2.4542   -1.8438   -1.1306 H   0  0  0  0  0  0  0  0  0  0  0  0
   -3.6214   -3.2516    0.5179 H   0  0  0  0  0  0  0  0  0  0  0  0
   -3.6330   -2.6143    2.9089 H   0  0  0  0  0  0  0  0  0  0  0  0
   -2.4621   -0.5576    3.6312 H   0  0  0  0  0  0  0  0  0  0  0  0
   -1.2966    0.8463    1.9780 H   0  0  0  0  0  0  0  0  0  0  0  0
    2.1919   -0.6466   -1.4872 C   0  0  0  0  0  0  0  0  0  0  0  0
    2.1919   -0.6466    0.0672 C   0  0  0  0  0  0  0  0  0  0  0  0
    2.1919    0.8504    0.4152 C   0  0  0  0  0  0  0  0  0  0  0  0
    3.5712    1.4322    0.0672 C   0  0  0  0  0  0  0  0  0  0  0  0
    3.5712    1.4322   -1.4872 C   0  0  0  0  0  0  0  0  0  0  0  0
    2.1919    0.8504   -1.8351 C   0  0  0  0  0  0  0  0  0  0  0  0
    1.3224    1.4273   -0.7100 C   0  0  0  0  0  0  0  0  0  0  0  0
    1.2982   -1.1348   -1.8793 H   0  0  0  0  0  0  0  0  0  0  0  0
    3.0564   -1.1619   -1.9085 H   0  0  0  0  0  0  0  0  0  0  0  0
    1.2982   -1.1348    0.4594 H   0  0  0  0  0  0  0  0  0  0  0  0
    3.0564   -1.1619    0.4886 H   0  0  0  0  0  0  0  0  0  0  0  0
    1.8675    1.0656    1.4324 H   0  0  0  0  0  0  0  0  0  0  0  0
    4.3820    0.8360    0.4886 H   0  0  0  0  0  0  0  0  0  0  0  0
    3.6736    2.4454    0.4593 H   0  0  0  0  0  0  0  0  0  0  0  0
    4.3820    0.8360   -1.9085 H   0  0  0  0  0  0  0  0  0  0  0  0
    3.6736    2.4454   -1.8793 H   0  0  0  0  0  0  0  0  0  0  0  0
    1.8675    1.0656   -2.8523 H   0  0  0  0  0  0  0  0  0  0  0  0
    0.0990    0.9580   -0.7100 H   0  0  0  0  0  0  0  0  0  0  0  0
    1.2864    2.5187   -0.7100 H   0  0  0  0  0  0  0  0  0  0  0  0
  1  2  1  0
  1  9  1  0
  1 10  1  0
  1 11  1  0
  2  3  2  3
  2 12  1  0
  3  4  1  0
  3  8  1  0
  4  5  1  0
  4 13  1  0
  5  6  2  0
  5 14  1  0
  6  7  1  0
  6 15  1  0
  7  8  2  0
  7 16  1  0
  8 17  1  0
 18 19  1  0
 18 23  1  0
 18 25  1  0
 18 26  1  0
 19 20  1  0
 19 27  1  0
 19 28  1  0
 20 21  1  0
 20 24  1  0
 20 29  1  0
 21 22  1  0
 21 30  1  0
 21 31  1  0
 22 23  1  0
 22 32  1  0
 22 33  1  0
 23 24  1  0
 23 34  1  0
 24 35  1  0
 24 36  1  0
M  RAD  1   4   2
M  END
>  <reaction>  (7) 
rxn_548

>  <mol_properties>  (7) 
{"1": {"label": "*1", "atom_type": "Cs"}, "2": {"label": "*0", "atom_type": "Cd"}, "19": {"label": "*4", "atom_type": "Cs"}, "23": {"label": "*3", "atom_type": "Cs"}, "34": {"label": "*2", "atom_type": "H0"}}

>  <type>  (7) 
unop_3

>  <geom_source>  (7) 
Heuristics

$$$$

     RDKit          3D

 36 37  0  0  0  0  0  0  0  0999 V2000
   -1.6191   -2.0123    0.8277 C   0  0  0  0  0  0  0  0  0  0  0  0
   -1.6572   -0.4940    1.0053 C   0  0  0  0  0  0  0  0  0  0  0  0
   -1.7334    0.2317   -0.3122 C   0  0  0  0  0  0  0  0  0  0  0  0
   -2.9623    0.5188   -0.8980 C   0  0  0  0  0  3  0  0  0  0  0  0
   -3.0355    1.1458   -2.1323 C   0  0  0  0  0  0  0  0  0  0  0  0
   -1.8744    1.4970   -2.8040 C   0  0  0  0  0  0  0  0  0  0  0  0
   -0.6430    1.2174   -2.2312 C   0  0  0  0  0  0  0  0  0  0  0  0
   -0.5764    0.5903   -0.9967 C   0  0  0  0  0  0  0  0  0  0  0  0
   -0.7523   -2.3108    0.2352 H   0  0  0  0  0  0  0  0  0  0  0  0
   -2.5125   -2.3635    0.3080 H   0  0  0  0  0  0  0  0  0  0  0  0
   -1.5640   -2.5189    1.7928 H   0  0  0  0  0  0  0  0  0  0  0  0
   -2.5177   -0.2219    1.6212 H   0  0  0  0  0  0  0  0  0  0  0  0
   -3.8749    0.2500   -0.3771 H   0  0  0  0  0  0  0  0  0  0  0  0
   -4.0021    1.3639   -2.5692 H   0  0  0  0  0  0  0  0  0  0  0  0
   -1.9289    1.9893   -3.7667 H   0  0  0  0  0  0  0  0  0  0  0  0
    0.2696    1.4917   -2.7459 H   0  0  0  0  0  0  0  0  0  0  0  0
    0.3904    0.3776   -0.5536 H   0  0  0  0  0  0  0  0  0  0  0  0
    1.6599   -1.6290    0.2281 C   0  0  0  0  0  0  0  0  0  0  0  0
    1.6599   -1.6290    1.7825 C   0  0  0  0  0  0  0  0  0  0  0  0
    1.6599   -0.1321    2.1304 C   0  0  0  0  0  0  0  0  0  0  0  0
    3.0391    0.4498    1.7825 C   0  0  0  0  0  0  0  0  0  0  0  0
    3.0391    0.4498    0.2281 C   0  0  0  0  0  0  0  0  0  0  0  0
    1.6599   -0.1321   -0.1199 C   0  0  0  0  0  0  0  0  0  0  0  0
    0.7903    0.4449    1.0053 C   0  0  0  0  0  0  0  0  0  0  0  0
    0.7662   -2.1172   -0.1641 H   0  0  0  0  0  0  0  0  0  0  0  0
    2.5244   -2.1443   -0.1933 H   0  0  0  0  0  0  0  0  0  0  0  0
    0.7662   -2.1172    2.1746 H   0  0  0  0  0  0  0  0  0  0  0  0
    2.5244   -2.1443    2.2038 H   0  0  0  0  0  0  0  0  0  0  0  0
    1.3355    0.0832    3.1476 H   0  0  0  0  0  0  0  0  0  0  0  0
    3.8499   -0.1464    2.2038 H   0  0  0  0  0  0  0  0  0  0  0  0
    3.1416    1.4630    2.1746 H   0  0  0  0  0  0  0  0  0  0  0  0
    3.8499   -0.1464   -0.1933 H   0  0  0  0  0  0  0  0  0  0  0  0
    3.1416    1.4630   -0.1641 H   0  0  0  0  0  0  0  0  0  0  0  0
    1.3355    0.0832   -1.1371 H   0  0  0  0  0  0  0  0  0  0  0  0
   -0.4331   -0.0244    1.0053 H   0  0  0  0  0  0  0  0  0  0  0  0
    0.7544    1.5362    1.0053 H   0  0  0  0  0  0  0  0  0  0  0  0
  1  2  1  0
  1  9  1  0
  1 10  1  0
  1 11  1  0
  2  3  2  3
  2 12  1  0
  3  4  1  0
  3  8  1  0
  4  5  1  0
  4 13  1  0
  5  6  2  0
  5 14  1  0
  6  7  1  0
  6 15  1  0
  7  8  2  0
  7 16  1  0
  8 17  1  0
 18 19  1  0
 18 23  1  0
 18 25  1  0
 18 26  1  0
 19 20  1  0
 19 27  1  0
 19 28  1  0
 20 21  1  0
 20 24  1  0
 20 29  1  0
 21 22  1  0
 21 30  1  0
 21 31  1  0
 22 23  1  0
 22 32  1  0
 22 33  1  0
 23 24  1  0
 23 34  1  0
 24 35  1  0
 24 36  1  0
M  RAD  1   4   2
M  END
>  <reaction>  (8) 
rxn_548

>  <mol_properties>  (8) 
{"1": {"label": "*1", "atom_type": "Cs"}, "2": {"label": "*0", "atom_type": "Cd"}, "19": {"label": "*4", "atom_type": "Cs"}, "23": {"label": "*3", "atom_type": "Cs"}, "34": {"label": "*2", "atom_type": "H0"}}

>  <type>  (8) 
unop_4

>  <geom_source>  (8) 
Heuristics

$$$$

     RDKit          3D

 36 37  0  0  0  0  0  0  0  0999 V2000
   -1.9486    0.2935   -2.0521 C   0  0  0  0  0  0  0  0  0  0  0  0
   -1.1627   -0.3362   -0.9015 C   0  0  0  0  0  0  0  0  0  0  0  0
   -1.8018   -0.0718    0.4364 C   0  0  0  0  0  0  0  0  0  0  0  0
   -2.7640   -0.9356    0.9501 C   0  0  0  0  0  3  0  0  0  0  0  0
   -3.3875   -0.6712    2.1597 C   0  0  0  0  0  0  0  0  0  0  0  0
   -3.0569    0.4676    2.8785 C   0  0  0  0  0  0  0  0  0  0  0  0
   -2.0990    1.3365    2.3784 C   0  0  0  0  0  0  0  0  0  0  0  0
   -1.4791    1.0666    1.1682 C   0  0  0  0  0  0  0  0  0  0  0  0
   -2.0176    1.3757   -1.9268 H   0  0  0  0  0  0  0  0  0  0  0  0
   -2.9656   -0.1015   -2.0878 H   0  0  0  0  0  0  0  0  0  0  0  0
   -1.4697    0.0906   -3.0116 H   0  0  0  0  0  0  0  0  0  0  0  0
   -1.0856   -1.4143   -1.0615 H   0  0  0  0  0  0  0  0  0  0  0  0
   -3.0256   -1.8299    0.3951 H   0  0  0  0  0  0  0  0  0  0  0  0
   -4.1312   -1.3583    2.5439 H   0  0  0  0  0  0  0  0  0  0  0  0
   -3.5403    0.6748    3.8248 H   0  0  0  0  0  0  0  0  0  0  0  0
   -1.8306    2.2263    2.9344 H   0  0  0  0  0  0  0  0  0  0  0  0
   -0.7285    1.7493    0.7850 H   0  0  0  0  0  0  0  0  0  0  0  0
    2.1544   -1.4712   -1.6787 C   0  0  0  0  0  0  0  0  0  0  0  0
    2.1544   -1.4712   -0.1243 C   0  0  0  0  0  0  0  0  0  0  0  0
    2.1544    0.0257    0.2237 C   0  0  0  0  0  0  0  0  0  0  0  0
    3.5336    0.6075   -0.1243 C   0  0  0  0  0  0  0  0  0  0  0  0
    3.5336    0.6075   -1.6787 C   0  0  0  0  0  0  0  0  0  0  0  0
    2.1544    0.0257   -2.0266 C   0  0  0  0  0  0  0  0  0  0  0  0
    1.2848    0.6026   -0.9015 C   0  0  0  0  0  0  0  0  0  0  0  0
    1.2606   -1.9595   -2.0708 H   0  0  0  0  0  0  0  0  0  0  0  0
    3.0188   -1.9866   -2.1000 H   0  0  0  0  0  0  0  0  0  0  0  0
    1.2606   -1.9595    0.2679 H   0  0  0  0  0  0  0  0  0  0  0  0
    3.0188   -1.9866    0.2971 H   0  0  0  0  0  0  0  0  0  0  0  0
    1.8299    0.2410    1.2409 H   0  0  0  0  0  0  0  0  0  0  0  0
    4.3444    0.0113    0.2971 H   0  0  0  0  0  0  0  0  0  0  0  0
    3.6361    1.6208    0.2679 H   0  0  0  0  0  0  0  0  0  0  0  0
    4.3444    0.0113   -2.1000 H   0  0  0  0  0  0  0  0  0  0  0  0
    3.6361    1.6208   -2.0708 H   0  0  0  0  0  0  0  0  0  0  0  0
    1.8299    0.2410   -3.0438 H   0  0  0  0  0  0  0  0  0  0  0  0
    0.0614    0.1333   -0.9015 H   0  0  0  0  0  0  0  0  0  0  0  0
    1.2489    1.6940   -0.9015 H   0  0  0  0  0  0  0  0  0  0  0  0
  1  2  1  0
  1  9  1  0
  1 10  1  0
  1 11  1  0
  2  3  2  3
  2 12  1  0
  3  4  1  0
  3  8  1  0
  4  5  1  0
  4 13  1  0
  5  6  2  0
  5 14  1  0
  6  7  1  0
  6 15  1  0
  7  8  2  0
  7 16  1  0
  8 17  1  0
 18 19  1  0
 18 23  1  0
 18 25  1  0
 18 26  1  0
 19 20  1  0
 19 27  1  0
 19 28  1  0
 20 21  1  0
 20 24  1  0
 20 29  1  0
 21 22  1  0
 21 30  1  0
 21 31  1  0
 22 23  1  0
 22 32  1  0
 22 33  1  0
 23 24  1  0
 23 34  1  0
 24 35  1  0
 24 36  1  0
M  RAD  1   4   2
M  END
>  <reaction>  (9) 
rxn_548

>  <mol_properties>  (9) 
{"1": {"label": "*1", "atom_type": "Cs"}, "2": {"label": "*0", "atom_type": "Cd"}, "19": {"label": "*4", "atom_type": "Cs"}, "23": {"label": "*3", "atom_type": "Cs"}, "34": {"label": "*2", "atom_type": "H0"}}

>  <type>  (9) 
unop_5

>  <geom_source>  (9) 
Heuristics

$$$$

     RDKit          3D

 36 37  0  0  0  0  0  0  0  0999 V2000
   -1.6899   -2.1768   -0.1799 C   0  0  0  0  0  0  0  0  0  0  0  0
   -1.6276   -0.9205    0.6895 C   0  0  0  0  0  0  0  0  0  0  0  0
   -1.7313    0.3417   -0.1255 C   0  0  0  0  0  0  0  0  0  0  0  0
   -2.9707    0.9043   -0.4139 C   0  0  0  0  0  3  0  0  0  0  0  0
   -3.0728    2.0402   -1.2021 C   0  0  0  0  0  0  0  0  0  0  0  0
   -1.9308    2.6344   -1.7174 C   0  0  0  0  0  0  0  0  0  0  0  0
   -0.6891    2.0844   -1.4370 C   0  0  0  0  0  0  0  0  0  0  0  0
   -0.5936    0.9485   -0.6482 C   0  0  0  0  0  0  0  0  0  0  0  0
   -0.8758   -2.1849   -0.9069 H   0  0  0  0  0  0  0  0  0  0  0  0
   -2.6295   -2.2175   -0.7340 H   0  0  0  0  0  0  0  0  0  0  0  0
   -1.6132   -3.0794    0.4289 H   0  0  0  0  0  0  0  0  0  0  0  0
   -2.4357   -0.9469    1.4244 H   0  0  0  0  0  0  0  0  0  0  0  0
   -3.8682    0.4471   -0.0118 H   0  0  0  0  0  0  0  0  0  0  0  0
   -4.0468    2.4647   -1.4116 H   0  0  0  0  0  0  0  0  0  0  0  0
   -2.0077    3.5231   -2.3307 H   0  0  0  0  0  0  0  0  0  0  0  0
    0.2090    2.5437   -1.8311 H   0  0  0  0  0  0  0  0  0  0  0  0
    0.3813    0.5259   -0.4307 H   0  0  0  0  0  0  0  0  0  0  0  0
    1.6895   -2.0555   -0.0876 C   0  0  0  0  0  0  0  0  0  0  0  0
    1.6895   -2.0555    1.4667 C   0  0  0  0  0  0  0  0  0  0  0  0
    1.6895   -0.5585    1.8147 C   0  0  0  0  0  0  0  0  0  0  0  0
    3.0688    0.0233    1.4667 C   0  0  0  0  0  0  0  0  0  0  0  0
    3.0688    0.0233   -0.0876 C   0  0  0  0  0  0  0  0  0  0  0  0
    1.6895   -0.5585   -0.4356 C   0  0  0  0  0  0  0  0  0  0  0  0
    0.8200    0.0184    0.6895 C   0  0  0  0  0  0  0  0  0  0  0  0
    0.7958   -2.5437   -0.4798 H   0  0  0  0  0  0  0  0  0  0  0  0
    2.5540   -2.5708   -0.5090 H   0  0  0  0  0  0  0  0  0  0  0  0
    0.7958   -2.5437    1.8589 H   0  0  0  0  0  0  0  0  0  0  0  0
    2.5540   -2.5708    1.8881 H   0  0  0  0  0  0  0  0  0  0  0  0
    1.3651   -0.3433    2.8319 H   0  0  0  0  0  0  0  0  0  0  0  0
    3.8796   -0.5729    1.8881 H   0  0  0  0  0  0  0  0  0  0  0  0
    3.1712    1.0365    1.8589 H   0  0  0  0  0  0  0  0  0  0  0  0
    3.8796   -0.5729   -0.5090 H   0  0  0  0  0  0  0  0  0  0  0  0
    3.1712    1.0365   -0.4798 H   0  0  0  0  0  0  0  0  0  0  0  0
    1.3651   -0.3433   -1.4528 H   0  0  0  0  0  0  0  0  0  0  0  0
   -0.4034   -0.4509    0.6895 H   0  0  0  0  0  0  0  0  0  0  0  0
    0.7840    1.1097    0.6895 H   0  0  0  0  0  0  0  0  0  0  0  0
  1  2  1  0
  1  9  1  0
  1 10  1  0
  1 11  1  0
  2  3  2  3
  2 12  1  0
  3  4  1  0
  3  8  1  0
  4  5  1  0
  4 13  1  0
  5  6  2  0
  5 14  1  0
  6  7  1  0
  6 15  1  0
  7  8  2  0
  7 16  1  0
  8 17  1  0
 18 19  1  0
 18 23  1  0
 18 25  1  0
 18 26  1  0
 19 20  1  0
 19 27  1  0
 19 28  1  0
 20 21  1  0
 20 24  1  0
 20 29  1  0
 21 22  1  0
 21 30  1  0
 21 31  1  0
 22 23  1  0
 22 32  1  0
 22 33  1  0
 23 24  1  0
 23 34  1  0
 24 35  1  0
 24 36  1  0
M  RAD  1   4   2
M  END
>  <reaction>  (10) 
rxn_548

>  <mol_properties>  (10) 
{"1": {"label": "*1", "atom_type": "Cs"}, "2": {"label": "*0", "atom_type": "Cd"}, "19": {"label": "*4", "atom_type": "Cs"}, "23": {"label": "*3", "atom_type": "Cs"}, "34": {"label": "*2", "atom_type": "H0"}}

>  <type>  (10) 
unop_6

>  <geom_source>  (10) 
Heuristics

$$$$

     RDKit          3D

 36 37  0  0  0  0  0  0  0  0999 V2000
   -1.8165   -1.8474   -1.1368 C   0  0  0  0  0  0  0  0  0  0  0  0
   -1.5433   -1.1409    0.1914 C   0  0  0  0  0  0  0  0  0  0  0  0
   -1.7343    0.3498    0.0933 C   0  0  0  0  0  0  0  0  0  0  0  0
   -2.9788    0.9260    0.3280 C   0  0  0  0  0  3  0  0  0  0  0  0
   -3.1690    2.2927    0.1939 C   0  0  0  0  0  0  0  0  0  0  0  0
   -2.1121    3.1089   -0.1794 C   0  0  0  0  0  0  0  0  0  0  0  0
   -0.8663    2.5477   -0.4156 C   0  0  0  0  0  0  0  0  0  0  0  0
   -0.6823    1.1804   -0.2797 C   0  0  0  0  0  0  0  0  0  0  0  0
   -1.1467   -1.4789   -1.9160 H   0  0  0  0  0  0  0  0  0  0  0  0
   -2.8410   -1.6665   -1.4676 H   0  0  0  0  0  0  0  0  0  0  0  0
   -1.6728   -2.9254   -1.0446 H   0  0  0  0  0  0  0  0  0  0  0  0
   -2.2072   -1.5433    0.9602 H   0  0  0  0  0  0  0  0  0  0  0  0
   -3.8095    0.2944    0.6234 H   0  0  0  0  0  0  0  0  0  0  0  0
   -4.1448    2.7220    0.3849 H   0  0  0  0  0  0  0  0  0  0  0  0
   -2.2575    4.1768   -0.2820 H   0  0  0  0  0  0  0  0  0  0  0  0
   -0.0335    3.1773   -0.7032 H   0  0  0  0  0  0  0  0  0  0  0  0
    0.2957    0.7491   -0.4631 H   0  0  0  0  0  0  0  0  0  0  0  0
    1.7739   -2.2759   -0.5857 C   0  0  0  0  0  0  0  0  0  0  0  0
    1.7739   -2.2759    0.9686 C   0  0  0  0  0  0  0  0  0  0  0  0
    1.7739   -0.7790    1.3166 C   0  0  0  0  0  0  0  0  0  0  0  0
    3.1531   -0.1971    0.9686 C   0  0  0  0  0  0  0  0  0  0  0  0
    3.1531   -0.1971   -0.5857 C   0  0  0  0  0  0  0  0  0  0  0  0
    1.7739   -0.7790   -0.9337 C   0  0  0  0  0  0  0  0  0  0  0  0
    0.9043   -0.2020    0.1914 C   0  0  0  0  0  0  0  0  0  0  0  0
    0.8801   -2.7641   -0.9779 H   0  0  0  0  0  0  0  0  0  0  0  0
    2.6383   -2.7912   -1.0071 H   0  0  0  0  0  0  0  0  0  0  0  0
    0.8801   -2.7641    1.3608 H   0  0  0  0  0  0  0  0  0  0  0  0
    2.6383   -2.7912    1.3900 H   0  0  0  0  0  0  0  0  0  0  0  0
    1.4494   -0.5637    2.3338 H   0  0  0  0  0  0  0  0  0  0  0  0
    3.9639   -0.7933    1.3900 H   0  0  0  0  0  0  0  0  0  0  0  0
    3.2555    0.8161    1.3608 H   0  0  0  0  0  0  0  0  0  0  0  0
    3.9639   -0.7933   -1.0071 H   0  0  0  0  0  0  0  0  0  0  0  0
    3.2555    0.8161   -0.9779 H   0  0  0  0  0  0  0  0  0  0  0  0
    1.4494   -0.5637   -1.9509 H   0  0  0  0  0  0  0  0  0  0  0  0
   -0.3191   -0.6713    0.1914 H   0  0  0  0  0  0  0  0  0  0  0  0
    0.8683    0.8893    0.1914 H   0  0  0  0  0  0  0  0  0  0  0  0
  1  2  1  0
  1  9  1  0
  1 10  1  0
  1 11  1  0
  2  3  2  3
  2 12  1  0
  3  4  1  0
  3  8  1  0
  4  5  1  0
  4 13  1  0
  5  6  2  0
  5 14  1  0
  6  7  1  0
  6 15  1  0
  7  8  2  0
  7 16  1  0
  8 17  1  0
 18 19  1  0
 18 23  1  0
 18 25  1  0
 18 26  1  0
 19 20  1  0
 19 27  1  0
 19 28  1  0
 20 21  1  0
 20 24  1  0
 20 29  1  0
 21 22  1  0
 21 30  1  0
 21 31  1  0
 22 23  1  0
 22 32  1  0
 22 33  1  0
 23 24  1  0
 23 34  1  0
 24 35  1  0
 24 36  1  0
M  RAD  1   4   2
M  END
>  <reaction>  (11) 
rxn_548

>  <mol_properties>  (11) 
{"1": {"label": "*1", "atom_type": "Cs"}, "2": {"label": "*0", "atom_type": "Cd"}, "19": {"label": "*4", "atom_type": "Cs"}, "23": {"label": "*3", "atom_type": "Cs"}, "34": {"label": "*2", "atom_type": "H0"}}

>  <type>  (11) 
unop_7

>  <geom_source>  (11) 
Heuristics

$$$$

     RDKit          3D

 36 37  0  0  0  0  0  0  0  0999 V2000
   -2.0671    1.7491    0.9598 C   0  0  0  0  0  0  0  0  0  0  0  0
   -1.1805    0.8568    0.0904 C   0  0  0  0  0  0  0  0  0  0  0  0
   -1.7844   -0.5054   -0.1288 C   0  0  0  0  0  0  0  0  0  0  0  0
   -2.6428   -0.7410   -1.1980 C   0  0  0  0  0  3  0  0  0  0  0  0
   -3.2365   -1.9810   -1.3767 C   0  0  0  0  0  0  0  0  0  0  0  0
   -2.9798   -3.0103   -0.4838 C   0  0  0  0  0  0  0  0  0  0  0  0
   -2.1255   -2.7893    0.5858 C   0  0  0  0  0  0  0  0  0  0  0  0
   -1.5349   -1.5471    0.7591 C   0  0  0  0  0  0  0  0  0  0  0  0
   -2.2278    1.2971    1.9404 H   0  0  0  0  0  0  0  0  0  0  0  0
   -3.0451    1.8917    0.4964 H   0  0  0  0  0  0  0  0  0  0  0  0
   -1.6124    2.7303    1.1065 H   0  0  0  0  0  0  0  0  0  0  0  0
   -1.0136    1.3408   -0.8748 H   0  0  0  0  0  0  0  0  0  0  0  0
   -2.8459    0.0583   -1.9024 H   0  0  0  0  0  0  0  0  0  0  0  0
   -3.8987   -2.1450   -2.2177 H   0  0  0  0  0  0  0  0  0  0  0  0
   -3.4399   -3.9804   -0.6228 H   0  0  0  0  0  0  0  0  0  0  0  0
   -1.9152   -3.5881    1.2862 H   0  0  0  0  0  0  0  0  0  0  0  0
   -0.8654   -1.3827    1.5963 H   0  0  0  0  0  0  0  0  0  0  0  0
    2.1366   -0.2782   -0.6868 C   0  0  0  0  0  0  0  0  0  0  0  0
    2.1366   -0.2782    0.8676 C   0  0  0  0  0  0  0  0  0  0  0  0
    2.1366    1.2187    1.2156 C   0  0  0  0  0  0  0  0  0  0  0  0
    3.5158    1.8006    0.8676 C   0  0  0  0  0  0  0  0  0  0  0  0
    3.5158    1.8006   -0.6868 C   0  0  0  0  0  0  0  0  0  0  0  0
    2.1366    1.2187   -1.0347 C   0  0  0  0  0  0  0  0  0  0  0  0
    1.2670    1.7957    0.0904 C   0  0  0  0  0  0  0  0  0  0  0  0
    1.2429   -0.7664   -1.0789 H   0  0  0  0  0  0  0  0  0  0  0  0
    3.0011   -0.7935   -1.1081 H   0  0  0  0  0  0  0  0  0  0  0  0
    1.2429   -0.7664    1.2598 H   0  0  0  0  0  0  0  0  0  0  0  0
    3.0011   -0.7935    1.2890 H   0  0  0  0  0  0  0  0  0  0  0  0
    1.8122    1.4340    2.2328 H   0  0  0  0  0  0  0  0  0  0  0  0
    4.3266    1.2044    1.2890 H   0  0  0  0  0  0  0  0  0  0  0  0
    3.6183    2.8138    1.2598 H   0  0  0  0  0  0  0  0  0  0  0  0
    4.3266    1.2044   -1.1081 H   0  0  0  0  0  0  0  0  0  0  0  0
    3.6183    2.8138   -1.0789 H   0  0  0  0  0  0  0  0  0  0  0  0
    1.8122    1.4340   -2.0519 H   0  0  0  0  0  0  0  0  0  0  0  0
    0.0436    1.3264    0.0904 H   0  0  0  0  0  0  0  0  0  0  0  0
    1.2311    2.8870    0.0904 H   0  0  0  0  0  0  0  0  0  0  0  0
  1  2  1  0
  1  9  1  0
  1 10  1  0
  1 11  1  0
  2  3  2  3
  2 12  1  0
  3  4  1  0
  3  8  1  0
  4  5  1  0
  4 13  1  0
  5  6  2  0
  5 14  1  0
  6  7  1  0
  6 15  1  0
  7  8  2  0
  7 16  1  0
  8 17  1  0
 18 19  1  0
 18 23  1  0
 18 25  1  0
 18 26  1  0
 19 20  1  0
 19 27  1  0
 19 28  1  0
 20 21  1  0
 20 24  1  0
 20 29  1  0
 21 22  1  0
 21 30  1  0
 21 31  1  0
 22 23  1  0
 22 32  1  0
 22 33  1  0
 23 24  1  0
 23 34  1  0
 24 35  1  0
 24 36  1  0
M  RAD  1   4   2
M  END
>  <reaction>  (12) 
rxn_548

>  <mol_properties>  (12) 
{"1": {"label": "*1", "atom_type": "Cs"}, "2": {"label": "*0", "atom_type": "Cd"}, "19": {"label": "*4", "atom_type": "Cs"}, "23": {"label": "*3", "atom_type": "Cs"}, "34": {"label": "*2", "atom_type": "H0"}}

>  <type>  (12) 
unop_8

>  <geom_source>  (12) 
Heuristics

$$$$

     RDKit          3D

 36 37  0  0  0  0  0  0  0  0999 V2000
   -1.6086   -1.3947    1.6377 C   0  0  0  0  0  0  0  0  0  0  0  0
   -1.6099    0.0274    1.0759 C   0  0  0  0  0  0  0  0  0  0  0  0
   -1.7448    0.0470   -0.4240 C   0  0  0  0  0  0  0  0  0  0  0  0
   -2.9984    0.0742   -1.0268 C   0  0  0  0  0  3  0  0  0  0  0  0
   -3.1274    0.0460   -2.4068 C   0  0  0  0  0  0  0  0  0  0  0  0
   -1.9986   -0.0103   -3.2101 C   0  0  0  0  0  0  0  0  0  0  0  0
   -0.7430   -0.0371   -2.6224 C   0  0  0  0  0  0  0  0  0  0  0  0
   -0.6205   -0.0087   -1.2418 C   0  0  0  0  0  0  0  0  0  0  0  0
   -0.7808   -1.9735    1.2237 H   0  0  0  0  0  0  0  0  0  0  0  0
   -2.5352   -1.9123    1.3823 H   0  0  0  0  0  0  0  0  0  0  0  0
   -1.5101   -1.3871    2.7246 H   0  0  0  0  0  0  0  0  0  0  0  0
   -2.4305    0.5937    1.5227 H   0  0  0  0  0  0  0  0  0  0  0  0
   -3.8859    0.1214   -0.4052 H   0  0  0  0  0  0  0  0  0  0  0  0
   -4.1124    0.0718   -2.8564 H   0  0  0  0  0  0  0  0  0  0  0  0
   -2.0967   -0.0294   -4.2881 H   0  0  0  0  0  0  0  0  0  0  0  0
    0.1449   -0.0766   -3.2412 H   0  0  0  0  0  0  0  0  0  0  0  0
    0.3651   -0.0267   -0.7894 H   0  0  0  0  0  0  0  0  0  0  0  0
    1.7072   -1.1076    0.2987 C   0  0  0  0  0  0  0  0  0  0  0  0
    1.7072   -1.1076    1.8531 C   0  0  0  0  0  0  0  0  0  0  0  0
    1.7072    0.3894    2.2010 C   0  0  0  0  0  0  0  0  0  0  0  0
    3.0865    0.9712    1.8531 C   0  0  0  0  0  0  0  0  0  0  0  0
    3.0865    0.9712    0.2987 C   0  0  0  0  0  0  0  0  0  0  0  0
    1.7072    0.3894   -0.0493 C   0  0  0  0  0  0  0  0  0  0  0  0
    0.8377    0.9663    1.0759 C   0  0  0  0  0  0  0  0  0  0  0  0
    0.8135   -1.5958   -0.0935 H   0  0  0  0  0  0  0  0  0  0  0  0
    2.5717   -1.6229   -0.1227 H   0  0  0  0  0  0  0  0  0  0  0  0
    0.8135   -1.5958    2.2452 H   0  0  0  0  0  0  0  0  0  0  0  0
    2.5717   -1.6229    2.2744 H   0  0  0  0  0  0  0  0  0  0  0  0
    1.3828    0.6046    3.2182 H   0  0  0  0  0  0  0  0  0  0  0  0
    3.8973    0.3750    2.2744 H   0  0  0  0  0  0  0  0  0  0  0  0
    3.1889    1.9844    2.2452 H   0  0  0  0  0  0  0  0  0  0  0  0
    3.8973    0.3750   -0.1227 H   0  0  0  0  0  0  0  0  0  0  0  0
    3.1889    1.9844   -0.0935 H   0  0  0  0  0  0  0  0  0  0  0  0
    1.3828    0.6046   -1.0665 H   0  0  0  0  0  0  0  0  0  0  0  0
   -0.3857    0.4970    1.0759 H   0  0  0  0  0  0  0  0  0  0  0  0
    0.8017    2.0576    1.0759 H   0  0  0  0  0  0  0  0  0  0  0  0
  1  2  1  0
  1  9  1  0
  1 10  1  0
  1 11  1  0
  2  3  2  3
  2 12  1  0
  3  4  1  0
  3  8  1  0
  4  5  1  0
  4 13  1  0
  5  6  2  0
  5 14  1  0
  6  7  1  0
  6 15  1  0
  7  8  2  0
  7 16  1  0
  8 17  1  0
 18 19  1  0
 18 23  1  0
 18 25  1  0
 18 26  1  0
 19 20  1  0
 19 27  1  0
 19 28  1  0
 20 21  1  0
 20 24  1  0
 20 29  1  0
 21 22  1  0
 21 30  1  0
 21 31  1  0
 22 23  1  0
 22 32  1  0
 22 33  1  0
 23 24  1  0
 23 34  1  0
 24 35  1  0
 24 36  1  0
M  RAD  1   4   2
M  END
>  <reaction>  (13) 
rxn_548

>  <mol_properties>  (13) 
{"1": {"label": "*1", "atom_type": "Cs"}, "2": {"label": "*0", "atom_type": "Cd"}, "19": {"label": "*4", "atom_type": "Cs"}, "23": {"label": "*3", "atom_type": "Cs"}, "34": {"label": "*2", "atom_type": "H0"}}

>  <type>  (13) 
unop_9

>  <geom_source>  (13) 
Heuristics

$$$$

     RDKit          3D

 36 37  0  0  0  0  0  0  0  0999 V2000
   -1.8903    1.1529    1.6870 C   0  0  0  0  0  0  0  0  0  0  0  0
   -1.2145    0.8104    0.3587 C   0  0  0  0  0  0  0  0  0  0  0  0
   -1.7970   -0.4258   -0.2743 C   0  0  0  0  0  0  0  0  0  0  0  0
   -2.8862   -0.3400   -1.1357 C   0  0  0  0  0  3  0  0  0  0  0  0
   -3.4537   -1.4798   -1.6842 C   0  0  0  0  0  0  0  0  0  0  0  0
   -2.9383   -2.7300   -1.3779 C   0  0  0  0  0  0  0  0  0  0  0  0
   -1.8524   -2.8298   -0.5214 C   0  0  0  0  0  0  0  0  0  0  0  0
   -1.2893   -1.6864    0.0238 C   0  0  0  0  0  0  0  0  0  0  0  0
   -1.7802    0.3334    2.3996 H   0  0  0  0  0  0  0  0  0  0  0  0
   -2.9584    1.3266    1.5441 H   0  0  0  0  0  0  0  0  0  0  0  0
   -1.4544    2.0506    2.1289 H   0  0  0  0  0  0  0  0  0  0  0  0
   -1.3160    1.6538   -0.3284 H   0  0  0  0  0  0  0  0  0  0  0  0
   -3.2930    0.6346   -1.3824 H   0  0  0  0  0  0  0  0  0  0  0  0
   -4.2988   -1.3911   -2.3556 H   0  0  0  0  0  0  0  0  0  0  0  0
   -3.3779   -3.6213   -1.8073 H   0  0  0  0  0  0  0  0  0  0  0  0
   -1.4397   -3.8014   -0.2796 H   0  0  0  0  0  0  0  0  0  0  0  0
   -0.4381   -1.7722    0.6905 H   0  0  0  0  0  0  0  0  0  0  0  0
    2.1026   -0.3246   -0.4184 C   0  0  0  0  0  0  0  0  0  0  0  0
    2.1026   -0.3246    1.1359 C   0  0  0  0  0  0  0  0  0  0  0  0
    2.1026    1.1723    1.4839 C   0  0  0  0  0  0  0  0  0  0  0  0
    3.4818    1.7542    1.1359 C   0  0  0  0  0  0  0  0  0  0  0  0
    3.4818    1.7542   -0.4184 C   0  0  0  0  0  0  0  0  0  0  0  0
    2.1026    1.1723   -0.7664 C   0  0  0  0  0  0  0  0  0  0  0  0
    1.2330    1.7493    0.3587 C   0  0  0  0  0  0  0  0  0  0  0  0
    1.2088   -0.8129   -0.8106 H   0  0  0  0  0  0  0  0  0  0  0  0
    2.9671   -0.8399   -0.8398 H   0  0  0  0  0  0  0  0  0  0  0  0
    1.2088   -0.8129    1.5281 H   0  0  0  0  0  0  0  0  0  0  0  0
    2.9671   -0.8399    1.5573 H   0  0  0  0  0  0  0  0  0  0  0  0
    1.7781    1.3876    2.5011 H   0  0  0  0  0  0  0  0  0  0  0  0
    4.2926    1.1580    1.5573 H   0  0  0  0  0  0  0  0  0  0  0  0
    3.5843    2.7674    1.5281 H   0  0  0  0  0  0  0  0  0  0  0  0
    4.2926    1.1580   -0.8398 H   0  0  0  0  0  0  0  0  0  0  0  0
    3.5843    2.7674   -0.8106 H   0  0  0  0  0  0  0  0  0  0  0  0
    1.7781    1.3876   -1.7836 H   0  0  0  0  0  0  0  0  0  0  0  0
    0.0096    1.2800    0.3587 H   0  0  0  0  0  0  0  0  0  0  0  0
    1.1971    2.8406    0.3587 H   0  0  0  0  0  0  0  0  0  0  0  0
  1  2  1  0
  1  9  1  0
  1 10  1  0
  1 11  1  0
  2  3  2  3
  2 12  1  0
  3  4  1  0
  3  8  1  0
  4  5  1  0
  4 13  1  0
  5  6  2  0
  5 14  1  0
  6  7  1  0
  6 15  1  0
  7  8  2  0
  7 16  1  0
  8 17  1  0
 18 19  1  0
 18 23  1  0
 18 25  1  0
 18 26  1  0
 19 20  1  0
 19 27  1  0
 19 28  1  0
 20 21  1  0
 20 24  1  0
 20 29  1  0
 21 22  1  0
 21 30  1  0
 21 31  1  0
 22 23  1  0
 22 32  1  0
 22 33  1  0
 23 24  1  0
 23 34  1  0
 24 35  1  0
 24 36  1  0
M  RAD  1   4   2
M  END
>  <reaction>  (14) 
rxn_548

>  <mol_properties>  (14) 
{"1": {"label": "*1", "atom_type": "Cs"}, "2": {"label": "*0", "atom_type": "Cd"}, "19": {"label": "*4", "atom_type": "Cs"}, "23": {"label": "*3", "atom_type": "Cs"}, "34": {"label": "*2", "atom_type": "H0"}}

>  <type>  (14) 
unop_10

>  <geom_source>  (14) 
Heuristics

$$$$

     RDKit          3D

 36 37  0  0  0  0  0  0  0  0999 V2000
   -1.9188   -1.0434   -1.8571 C   0  0  0  0  0  0  0  0  0  0  0  0
   -1.3807   -1.0272   -0.4259 C   0  0  0  0  0  0  0  0  0  0  0  0
   -1.7574    0.2318    0.3098 C   0  0  0  0  0  0  0  0  0  0  0  0
   -2.9499    0.3118    1.0220 C   0  0  0  0  0  3  0  0  0  0  0  0
   -3.3215    1.4839    1.6622 C   0  0  0  0  0  0  0  0  0  0  0  0
   -2.5020    2.6006    1.5998 C   0  0  0  0  0  0  0  0  0  0  0  0
   -1.3102    2.5344    0.8941 C   0  0  0  0  0  0  0  0  0  0  0  0
   -0.9441    1.3594    0.2560 C   0  0  0  0  0  0  0  0  0  0  0  0
   -1.5282   -0.1982   -2.4268 H   0  0  0  0  0  0  0  0  0  0  0  0
   -3.0080   -0.9711   -1.8617 H   0  0  0  0  0  0  0  0  0  0  0  0
   -1.6354   -1.9628   -2.3724 H   0  0  0  0  0  0  0  0  0  0  0  0
   -1.7648   -1.8946    0.1163 H   0  0  0  0  0  0  0  0  0  0  0  0
   -3.5946   -0.5585    1.0779 H   0  0  0  0  0  0  0  0  0  0  0  0
   -4.2522    1.5242    2.2146 H   0  0  0  0  0  0  0  0  0  0  0  0
   -2.7886    3.5162    2.1014 H   0  0  0  0  0  0  0  0  0  0  0  0
   -0.6611    3.3998    0.8432 H   0  0  0  0  0  0  0  0  0  0  0  0
   -0.0089    1.3143   -0.2915 H   0  0  0  0  0  0  0  0  0  0  0  0
    1.9364   -2.1622   -1.2031 C   0  0  0  0  0  0  0  0  0  0  0  0
    1.9364   -2.1622    0.3513 C   0  0  0  0  0  0  0  0  0  0  0  0
    1.9364   -0.6653    0.6992 C   0  0  0  0  0  0  0  0  0  0  0  0
    3.3156   -0.0834    0.3513 C   0  0  0  0  0  0  0  0  0  0  0  0
    3.3156   -0.0834   -1.2031 C   0  0  0  0  0  0  0  0  0  0  0  0
    1.9364   -0.6653   -1.5510 C   0  0  0  0  0  0  0  0  0  0  0  0
    1.0668   -0.0883   -0.4259 C   0  0  0  0  0  0  0  0  0  0  0  0
    1.0426   -2.6505   -1.5952 H   0  0  0  0  0  0  0  0  0  0  0  0
    2.8009   -2.6775   -1.6244 H   0  0  0  0  0  0  0  0  0  0  0  0
    1.0426   -2.6505    0.7434 H   0  0  0  0  0  0  0  0  0  0  0  0
    2.8009   -2.6775    0.7726 H   0  0  0  0  0  0  0  0  0  0  0  0
    1.6119   -0.4500    1.7164 H   0  0  0  0  0  0  0  0  0  0  0  0
    4.1264   -0.6796    0.7726 H   0  0  0  0  0  0  0  0  0  0  0  0
    3.4181    0.9298    0.7434 H   0  0  0  0  0  0  0  0  0  0  0  0
    4.1264   -0.6796   -1.6244 H   0  0  0  0  0  0  0  0  0  0  0  0
    3.4181    0.9298   -1.5952 H   0  0  0  0  0  0  0  0  0  0  0  0
    1.6119   -0.4500   -2.5682 H   0  0  0  0  0  0  0  0  0  0  0  0
   -0.1566   -0.5576   -0.4259 H   0  0  0  0  0  0  0  0  0  0  0  0
    1.0309    1.0030   -0.4259 H   0  0  0  0  0  0  0  0  0  0  0  0
  1  2  1  0
  1  9  1  0
  1 10  1  0
  1 11  1  0
  2  3  2  3
  2 12  1  0
  3  4  1  0
  3  8  1  0
  4  5  1  0
  4 13  1  0
  5  6  2  0
  5 14  1  0
  6  7  1  0
  6 15  1  0
  7  8  2  0
  7 16  1  0
  8 17  1  0
 18 19  1  0
 18 23  1  0
 18 25  1  0
 18 26  1  0
 19 20  1  0
 19 27  1  0
 19 28  1  0
 20 21  1  0
 20 24  1  0
 20 29  1  0
 21 22  1  0
 21 30  1  0
 21 31  1  0
 22 23  1  0
 22 32  1  0
 22 33  1  0
 23 24  1  0
 23 34  1  0
 24 35  1  0
 24 36  1  0
M  RAD  1   4   2
M  END
>  <reaction>  (15) 
rxn_548

>  <mol_properties>  (15) 
{"1": {"label": "*1", "atom_type": "Cs"}, "2": {"label": "*0", "atom_type": "Cd"}, "19": {"label": "*4", "atom_type": "Cs"}, "23": {"label": "*3", "atom_type": "Cs"}, "34": {"label": "*2", "atom_type": "H0"}}

>  <type>  (15) 
unop_11

>  <geom_source>  (15) 
Heuristics

$$$$

     RDKit          3D

 36 37  0  0  0  0  0  0  0  0999 V2000
   -1.6357   -0.5223    2.0521 C   0  0  0  0  0  0  0  0  0  0  0  0
   -1.4726    0.4715    0.9015 C   0  0  0  0  0  0  0  0  0  0  0  0
   -1.7709   -0.1525   -0.4364 C   0  0  0  0  0  0  0  0  0  0  0  0
   -3.0639   -0.1539   -0.9501 C   0  0  0  0  0  3  0  0  0  0  0  0
   -3.3506   -0.7674   -2.1597 C   0  0  0  0  0  0  0  0  0  0  0  0
   -2.3432   -1.3930   -2.8785 C   0  0  0  0  0  0  0  0  0  0  0  0
   -1.0499   -1.3983   -2.3784 C   0  0  0  0  0  0  0  0  0  0  0  0
   -0.7695   -0.7830   -1.1682 C   0  0  0  0  0  0  0  0  0  0  0  0
   -0.9632   -1.3730    1.9268 H   0  0  0  0  0  0  0  0  0  0  0  0
   -2.6560   -0.9088    2.0878 H   0  0  0  0  0  0  0  0  0  0  0  0
   -1.4153   -0.0512    3.0116 H   0  0  0  0  0  0  0  0  0  0  0  0
   -2.1363    1.3245    1.0615 H   0  0  0  0  0  0  0  0  0  0  0  0
   -3.8565    0.3361   -0.3951 H   0  0  0  0  0  0  0  0  0  0  0  0
   -4.3630   -0.7539   -2.5439 H   0  0  0  0  0  0  0  0  0  0  0  0
   -2.5640   -1.8702   -3.8248 H   0  0  0  0  0  0  0  0  0  0  0  0
   -0.2553   -1.8803   -2.9344 H   0  0  0  0  0  0  0  0  0  0  0  0
    0.2451   -0.7886   -0.7850 H   0  0  0  0  0  0  0  0  0  0  0  0
    1.8445   -0.6635    0.1243 C   0  0  0  0  0  0  0  0  0  0  0  0
    1.8445   -0.6635    1.6787 C   0  0  0  0  0  0  0  0  0  0  0  0
    1.8445    0.8334    2.0266 C   0  0  0  0  0  0  0  0  0  0  0  0
    3.2238    1.4153    1.6787 C   0  0  0  0  0  0  0  0  0  0  0  0
    3.2238    1.4153    0.1243 C   0  0  0  0  0  0  0  0  0  0  0  0
    1.8445    0.8334   -0.2237 C   0  0  0  0  0  0  0  0  0  0  0  0
    0.9749    1.4104    0.9015 C   0  0  0  0  0  0  0  0  0  0  0  0
    0.9508   -1.1518   -0.2679 H   0  0  0  0  0  0  0  0  0  0  0  0
    2.7090   -1.1789   -0.2971 H   0  0  0  0  0  0  0  0  0  0  0  0
    0.9508   -1.1518    2.0708 H   0  0  0  0  0  0  0  0  0  0  0  0
    2.7090   -1.1789    2.1000 H   0  0  0  0  0  0  0  0  0  0  0  0
    1.5201    1.0487    3.0438 H   0  0  0  0  0  0  0  0  0  0  0  0
    4.0346    0.8190    2.1000 H   0  0  0  0  0  0  0  0  0  0  0  0
    3.3262    2.4285    2.0708 H   0  0  0  0  0  0  0  0  0  0  0  0
    4.0346    0.8190   -0.2971 H   0  0  0  0  0  0  0  0  0  0  0  0
    3.3262    2.4285   -0.2679 H   0  0  0  0  0  0  0  0  0  0  0  0
    1.5201    1.0487   -1.2409 H   0  0  0  0  0  0  0  0  0  0  0  0
   -0.2484    0.9411    0.9015 H   0  0  0  0  0  0  0  0  0  0  0  0
    0.9390    2.5017    0.9015 H   0  0  0  0  0  0  0  0  0  0  0  0
  1  2  1  0
  1  9  1  0
  1 10  1  0
  1 11  1  0
  2  3  2  3
  2 12  1  0
  3  4  1  0
  3  8  1  0
  4  5  1  0
  4 13  1  0
  5  6  2  0
  5 14  1  0
  6  7  1  0
  6 15  1  0
  7  8  2  0
  7 16  1  0
  8 17  1  0
 18 19  1  0
 18 23  1  0
 18 25  1  0
 18 26  1  0
 19 20  1  0
 19 27  1  0
 19 28  1  0
 20 21  1  0
 20 24  1  0
 20 29  1  0
 21 22  1  0
 21 30  1  0
 21 31  1  0
 22 23  1  0
 22 32  1  0
 22 33  1  0
 23 24  1  0
 23 34  1  0
 24 35  1  0
 24 36  1  0
M  RAD  1   4   2
M  END
>  <reaction>  (16) 
rxn_548

>  <mol_properties>  (16) 
{"1": {"label": "*1", "atom_type": "Cs"}, "2": {"label": "*0", "atom_type": "Cd"}, "19": {"label": "*4", "atom_type": "Cs"}, "23": {"label": "*3", "atom_type": "Cs"}, "34": {"label": "*2", "atom_type": "H0"}}

>  <type>  (16) 
unop_12

>  <geom_source>  (16) 
Heuristics

$$$$

     RDKit          3D

 36 37  0  0  0  0  0  0  0  0999 V2000
   -1.6312    0.9951   -0.7399 C   0  0  0  0  0  0  0  0  0  0  0  0
   -2.5077   -0.9153   -0.0401 C   0  0  0  0  0  0  0  0  0  0  0  0
   -2.9955    0.9668   -1.4503 C   0  0  0  0  0  0  0  0  0  0  0  0
   -1.8516    1.2522    0.7583 C   0  0  0  0  0  0  0  0  0  0  0  0
   -2.4600   -0.0739    1.2441 C   0  0  0  0  0  0  0  0  0  0  0  0
   -3.6031   -0.3577   -0.9651 C   0  0  0  0  0  0  0  0  0  0  0  0
    1.0431   -1.2990    0.2216 C   0  0  0  0  0  0  0  0  0  0  0  0
    1.0139   -1.7648    1.6723 C   0  0  0  0  0  0  0  0  0  0  0  0
    2.2094   -0.3820   -0.0216 C   0  0  0  0  0  0  0  0  0  0  0  0
   -1.2443   -0.4614   -0.7250 C   0  0  0  0  0  0  0  0  0  0  0  0
    3.4620   -0.9055   -0.3833 C   0  0  0  0  0  3  0  0  0  0  0  0
    2.0677    1.0030    0.1613 C   0  0  0  0  0  0  0  0  0  0  0  0
    4.5514   -0.0509   -0.5802 C   0  0  0  0  0  0  0  0  0  0  0  0
    4.3999    1.3279   -0.4089 C   0  0  0  0  0  0  0  0  0  0  0  0
    3.1597    1.8541   -0.0365 C   0  0  0  0  0  0  0  0  0  0  0  0
   -0.8842    1.6682   -1.2119 H   0  0  0  0  0  0  0  0  0  0  0  0
   -2.5716   -2.0103    0.1357 H   0  0  0  0  0  0  0  0  0  0  0  0
   -2.8546    0.9506   -2.5535 H   0  0  0  0  0  0  0  0  0  0  0  0
   -3.6289    1.8379   -1.1737 H   0  0  0  0  0  0  0  0  0  0  0  0
   -0.8792    1.4438    1.2637 H   0  0  0  0  0  0  0  0  0  0  0  0
   -2.5348    2.1109    0.9390 H   0  0  0  0  0  0  0  0  0  0  0  0
   -1.7964   -0.5555    1.9961 H   0  0  0  0  0  0  0  0  0  0  0  0
   -3.4700    0.0722    1.6859 H   0  0  0  0  0  0  0  0  0  0  0  0
   -4.5635   -0.1994   -0.4274 H   0  0  0  0  0  0  0  0  0  0  0  0
   -3.7710   -1.0471   -1.8217 H   0  0  0  0  0  0  0  0  0  0  0  0
    1.1052   -2.1839   -0.4487 H   0  0  0  0  0  0  0  0  0  0  0  0
   -0.1458   -0.6399   -0.0657 H   0  0  0  0  0  0  0  0  0  0  0  0
    1.9423   -2.3234    1.9180 H   0  0  0  0  0  0  0  0  0  0  0  0
    0.1421   -2.4341    1.8271 H   0  0  0  0  0  0  0  0  0  0  0  0
    0.9173   -0.8923    2.3529 H   0  0  0  0  0  0  0  0  0  0  0  0
   -1.1322   -0.8879   -1.7488 H   0  0  0  0  0  0  0  0  0  0  0  0
    3.5939   -1.9728   -0.5112 H   0  0  0  0  0  0  0  0  0  0  0  0
    5.5137   -0.4580   -0.8626 H   0  0  0  0  0  0  0  0  0  0  0  0
    5.2442    1.9880   -0.5604 H   0  0  0  0  0  0  0  0  0  0  0  0
    3.0452    2.9215    0.1020 H   0  0  0  0  0  0  0  0  0  0  0  0
    1.1147    1.4227    0.4585 H   0  0  0  0  0  0  0  0  0  0  0  0
  1  3  1  0
  1  4  1  0
  1 10  1  0
  1 16  1  0
  2  6  1  0
  2  5  1  0
  2 10  1  0
  2 17  1  0
  3  6  1  0
  3 18  1  0
  3 19  1  0
  4  5  1  0
  4 20  1  0
  4 21  1  0
  5 22  1  0
  5 23  1  0
  6 24  1  0
  6 25  1  0
  7  8  1  0
  7  9  2  3
  7 26  1  0
  8 28  1  0
  8 29  1  0
  8 30  1  0
  9 11  1  0
  9 12  1  0
 10 27  1  0
 10 31  1  0
 11 13  1  0
 11 32  1  0
 12 15  2  0
 12 36  1  0
 13 14  2  0
 13 33  1  0
 14 15  1  0
 14 34  1  0
 15 35  1  0
M  RAD  1  11   2
M  END
>  <reaction>  (17) 
rxn_548

>  <mol_properties>  (17) 
{"1": {"label": "*1", "atom_type": "Cs"}, "2": {"label": "*0", "atom_type": "Cd"}, "19": {"label": "*4", "atom_type": "Cs"}, "23": {"label": "*3", "atom_type": "Cs"}, "34": {"label": "*2", "atom_type": "H0"}}

>  <type>  (17) 
unop_13

>  <geom_source>  (17) 
AutoTST

$$$$
