
     RDKit          3D

 10  9  0  0  0  0  0  0  0  0999 V2000
    1.8334    0.0847   -0.1062 C   0  0  0  0  0  0  0  0  0  0  0  0
    0.5993   -0.4071   -0.0750 C   0  0  0  0  0  0  0  0  0  0  0  0
   -0.5993    0.4071    0.0750 C   0  0  0  0  0  0  0  0  0  0  0  0
   -1.8334   -0.0847    0.1062 C   0  0  0  0  0  0  0  0  0  0  0  0
    2.0179    1.1498   -0.0189 H   0  0  0  0  0  0  0  0  0  0  0  0
    2.6972   -0.5572   -0.2194 H   0  0  0  0  0  0  0  0  0  0  0  0
    0.4465   -1.4793   -0.1649 H   0  0  0  0  0  0  0  0  0  0  0  0
   -0.4465    1.4793    0.1649 H   0  0  0  0  0  0  0  0  0  0  0  0
   -2.0179   -1.1498    0.0189 H   0  0  0  0  0  0  0  0  0  0  0  0
   -2.6972    0.5572    0.2194 H   0  0  0  0  0  0  0  0  0  0  0  0
  1  2  2  3
  1  5  1  0
  1  6  1  0
  2  3  1  0
  2  7  1  0
  3  4  2  3
  3  8  1  0
  4  9  1  0
  4 10  1  0
M  END
>  <reaction>  (1) 
rxn_1658

>  <mol_properties>  (1) 
{"2": {"label": "donator", "atom_type": "Cd"}, "7": {"label": "d_hydrogen", "atom_type": "H0"}}

>  <type>  (1) 
r1h

$$$$

     RDKit          3D

 12 11  0  0  0  0  0  0  0  0999 V2000
    2.5164   -0.5559   -0.0242 C   0  0  0  0  0  0  0  0  0  0  0  0
    1.3287   -0.2938   -0.0132 C   0  0  0  0  0  0  0  0  0  0  0  0
   -0.0146    0.0027   -0.0006 C   0  0  0  0  0  3  0  0  0  0  0  0
   -1.0396   -1.0729   -0.1642 C   0  0  0  0  0  0  0  0  0  0  0  0
   -0.4887    1.4091    0.1769 C   0  0  0  0  0  0  0  0  0  0  0  0
    3.5543   -0.7850   -0.0339 H   0  0  0  0  0  0  0  0  0  0  0  0
   -1.7064   -1.1056    0.7044 H   0  0  0  0  0  0  0  0  0  0  0  0
   -0.5831   -2.0533   -0.2854 H   0  0  0  0  0  0  0  0  0  0  0  0
   -1.6716   -0.8741   -1.0367 H   0  0  0  0  0  0  0  0  0  0  0  0
   -1.0951    1.7228   -0.6798 H   0  0  0  0  0  0  0  0  0  0  0  0
    0.3401    2.1059    0.2861 H   0  0  0  0  0  0  0  0  0  0  0  0
   -1.1300    1.4913    1.0613 H   0  0  0  0  0  0  0  0  0  0  0  0
  1  2  3  0
  1  6  1  0
  2  3  1  0
  3  4  1  0
  3  5  1  0
  4  7  1  0
  4  8  1  0
  4  9  1  0
  5 10  1  0
  5 11  1  0
  5 12  1  0
M  RAD  1   3   2
M  END
>  <reaction>  (2) 
rxn_1658

>  <mol_properties>  (2) 
{"2": {"label": "acceptor", "atom_type": "Cs"}}

>  <type>  (2) 
r2

$$$$

     RDKit          3D

 13 12  0  0  0  0  0  0  0  0999 V2000
    2.2975   -0.6134    0.7685 C   0  0  0  0  0  0  0  0  0  0  0  0
    1.1676   -0.5248    0.3802 C   0  0  0  0  0  0  0  0  0  0  0  0
   -0.2109   -0.3926   -0.0948 C   0  0  0  0  0  0  0  0  0  0  0  0
   -0.2501    0.2584   -1.4808 C   0  0  0  0  0  0  0  0  0  0  0  0
   -1.0633    0.3831    0.9141 C   0  0  0  0  0  0  0  0  0  0  0  0
    3.2999   -0.6974    1.1133 H   0  0  0  0  0  0  0  0  0  0  0  0
   -0.6209   -1.4038   -0.1814 H   0  0  0  0  0  0  0  0  0  0  0  0
    0.3402   -0.3102   -2.1992 H   0  0  0  0  0  0  0  0  0  0  0  0
    0.1511    1.2724   -1.4369 H   0  0  0  0  0  0  0  0  0  0  0  0
   -1.2791    0.3109   -1.8407 H   0  0  0  0  0  0  0  0  0  0  0  0
   -0.6861    1.4008    1.0287 H   0  0  0  0  0  0  0  0  0  0  0  0
   -1.0492   -0.0971    1.8924 H   0  0  0  0  0  0  0  0  0  0  0  0
   -2.0971    0.4363    0.5680 H   0  0  0  0  0  0  0  0  0  0  0  0
  1  2  3  0
  1  6  1  0
  2  3  1  0
  3  4  1  0
  3  5  1  0
  3  7  1  0
  4  8  1  0
  4  9  1  0
  4 10  1  0
  5 11  1  0
  5 12  1  0
  5 13  1  0
M  END
>  <reaction>  (3) 
rxn_1658

>  <mol_properties>  (3) 
{"2": {"label": "acceptor", "atom_type": "Cs"}, "12": {"label": "a_hydrogen", "atom_type": "H0"}}

>  <type>  (3) 
r2h

$$$$

     RDKit          3D

 22 20  0  0  0  0  0  0  0  0999 V2000
    0.7175    1.1093   -2.6082 C   0  0  0  0  0  0  0  0  0  0  0  0
    0.3582    1.1645   -1.4638 C   0  0  0  0  0  0  0  0  0  0  0  0
   -0.0751    1.1901   -0.0879 C   0  0  0  0  0  0  0  0  0  0  0  0
   -1.3120    2.0438    0.1417 C   0  0  0  0  0  0  0  0  0  0  0  0
    1.0499    1.4620    0.8981 C   0  0  0  0  0  0  0  0  0  0  0  0
    1.0327    1.0694   -3.6229 H   0  0  0  0  0  0  0  0  0  0  0  0
   -1.6495    1.9413    1.1747 H   0  0  0  0  0  0  0  0  0  0  0  0
   -2.1233    1.7475   -0.5235 H   0  0  0  0  0  0  0  0  0  0  0  0
   -1.0913    3.0989   -0.0398 H   0  0  0  0  0  0  0  0  0  0  0  0
    1.4192    2.4851    0.7912 H   0  0  0  0  0  0  0  0  0  0  0  0
    1.8846    0.7792    0.7394 H   0  0  0  0  0  0  0  0  0  0  0  0
    0.6878    1.3309    1.9193 H   0  0  0  0  0  0  0  0  0  0  0  0
    1.1826   -2.2293   -0.2792 C   0  0  0  0  0  0  0  0  0  0  0  0
    0.1075   -2.3313    0.4965 C   0  0  0  0  0  0  0  0  0  0  0  0
   -0.8731   -1.2875    0.6808 C   0  0  0  0  0  3  0  0  0  0  0  0
   -2.0512   -1.2930    1.2698 C   0  0  0  0  0  0  0  0  0  0  0  0
    1.3882   -1.3292   -0.8468 H   0  0  0  0  0  0  0  0  0  0  0  0
    1.8790   -3.0517   -0.3777 H   0  0  0  0  0  0  0  0  0  0  0  0
   -0.0733   -3.2556    1.0458 H   0  0  0  0  0  0  0  0  0  0  0  0
   -0.4374    0.0322    0.1682 H   0  0  0  0  0  0  0  0  0  0  0  0
   -2.4594   -2.2019    1.7103 H   0  0  0  0  0  0  0  0  0  0  0  0
   -2.6666   -0.4029    1.3322 H   0  0  0  0  0  0  0  0  0  0  0  0
  1  2  3  0
  1  6  1  0
  2  3  1  0
  3  4  1  0
  3  5  1  0
  3 20  1  0
  4  7  1  0
  4  8  1  0
  4  9  1  0
  5 10  1  0
  5 11  1  0
  5 12  1  0
 13 14  2  3
 13 17  1  0
 13 18  1  0
 14 15  1  0
 14 19  1  0
 15 16  2  3
 16 21  1  0
 16 22  1  0
M  RAD  1  15   2
M  END
>  <reaction>  (4) 
rxn_1658

>  <mol_properties>  (4) 
{"1": {"label": "*0", "atom_type": "Ct"}, "2": {"label": "*1", "atom_type": "Cs"}, "13": {"label": "*4", "atom_type": "Cd"}, "14": {"label": "*3", "atom_type": "Cd"}, "19": {"label": "*2", "atom_type": "H0"}}

>  <type>  (4) 
ts

$$$$

     RDKit          3D

 22 20  0  0  0  0  0  0  0  0999 V2000
   -2.0363    2.3129    0.2452 C   0  0  0  0  0  0  0  0  0  0  0  0
   -1.0550    1.7062   -0.0778 C   0  0  0  0  0  0  0  0  0  0  0  0
    0.1565    0.9854   -0.4728 C   0  0  0  0  0  3  0  0  0  0  0  0
    1.2472    1.1268    0.5932 C   0  0  0  0  0  0  0  0  0  0  0  0
    0.6481    1.4560   -1.8450 C   0  0  0  0  0  0  0  0  0  0  0  0
   -2.9072    2.8514    0.5319 H   0  0  0  0  0  0  0  0  0  0  0  0
    2.1280    0.5495    0.3065 H   0  0  0  0  0  0  0  0  0  0  0  0
    0.8988    0.7698    1.5623 H   0  0  0  0  0  0  0  0  0  0  0  0
    1.5414    2.1723    0.7009 H   0  0  0  0  0  0  0  0  0  0  0  0
    0.9246    2.5112   -1.8092 H   0  0  0  0  0  0  0  0  0  0  0  0
   -0.1248    1.3323   -2.6034 H   0  0  0  0  0  0  0  0  0  0  0  0
    1.5254    0.8806   -2.1459 H   0  0  0  0  0  0  0  0  0  0  0  0
    0.1565   -2.4982   -1.3243 C   0  0  0  0  0  0  0  0  0  0  0  0
    0.1565   -2.4982    0.0045 C   0  0  0  0  0  0  0  0  0  0  0  0
    0.1565   -1.2908    0.8198 C   0  0  0  0  0  0  0  0  0  0  0  0
    0.1565   -1.2908    2.1487 C   0  0  0  0  0  0  0  0  0  0  0  0
    0.1565   -1.5716   -1.8878 H   0  0  0  0  0  0  0  0  0  0  0  0
    0.1565   -3.4197   -1.8915 H   0  0  0  0  0  0  0  0  0  0  0  0
    0.1565   -3.4431    0.5412 H   0  0  0  0  0  0  0  0  0  0  0  0
    0.1565   -0.1569    0.1759 H   0  0  0  0  0  0  0  0  0  0  0  0
    0.1565   -2.2174    2.7122 H   0  0  0  0  0  0  0  0  0  0  0  0
    0.1565   -0.3693    2.7159 H   0  0  0  0  0  0  0  0  0  0  0  0
  1  2  3  0
  1  6  1  0
  2  3  1  0
  3  4  1  0
  3  5  1  0
  4  7  1  0
  4  8  1  0
  4  9  1  0
  5 10  1  0
  5 11  1  0
  5 12  1  0
 13 14  2  3
 13 17  1  0
 13 18  1  0
 14 15  1  0
 14 19  1  0
 15 16  2  3
 15 20  1  0
 16 21  1  0
 16 22  1  0
M  RAD  1   3   2
M  END
>  <reaction>  (5) 
rxn_1658

>  <mol_properties>  (5) 
{"1": {"label": "*0", "atom_type": "Ct"}, "2": {"label": "*1", "atom_type": "Cs"}, "13": {"label": "*4", "atom_type": "Cd"}, "14": {"label": "*3", "atom_type": "Cd"}, "19": {"label": "*2", "atom_type": "H0"}}

>  <type>  (5) 
unop_1

>  <geom_source>  (5) 
Heuristics

$$$$

     RDKit          3D

 22 20  0  0  0  0  0  0  0  0999 V2000
   -1.1089    0.7693   -2.4239 C   0  0  0  0  0  0  0  0  0  0  0  0
   -0.5339    0.9323   -1.3855 C   0  0  0  0  0  0  0  0  0  0  0  0
    0.1655    1.1550   -0.1188 C   0  0  0  0  0  3  0  0  0  0  0  0
   -0.7618    1.8124    0.9079 C   0  0  0  0  0  0  0  0  0  0  0  0
    1.4374    1.9804   -0.3361 C   0  0  0  0  0  0  0  0  0  0  0  0
   -1.6191    0.6246   -3.3456 H   0  0  0  0  0  0  0  0  0  0  0  0
   -0.2411    1.9327    1.8596 H   0  0  0  0  0  0  0  0  0  0  0  0
   -1.6544    1.2096    1.0745 H   0  0  0  0  0  0  0  0  0  0  0  0
   -1.0763    2.7982    0.5609 H   0  0  0  0  0  0  0  0  0  0  0  0
    1.1878    2.9711   -0.7197 H   0  0  0  0  0  0  0  0  0  0  0  0
    2.1030    1.4965   -1.0508 H   0  0  0  0  0  0  0  0  0  0  0  0
    1.9708    2.1016    0.6084 H   0  0  0  0  0  0  0  0  0  0  0  0
    0.1655   -2.3285   -0.9704 C   0  0  0  0  0  0  0  0  0  0  0  0
    0.1655   -2.3285    0.3585 C   0  0  0  0  0  0  0  0  0  0  0  0
    0.1655   -1.1211    1.1738 C   0  0  0  0  0  0  0  0  0  0  0  0
    0.1655   -1.1211    2.5026 C   0  0  0  0  0  0  0  0  0  0  0  0
    0.1655   -1.4019   -1.5339 H   0  0  0  0  0  0  0  0  0  0  0  0
    0.1655   -3.2500   -1.5376 H   0  0  0  0  0  0  0  0  0  0  0  0
    0.1655   -3.2734    0.8951 H   0  0  0  0  0  0  0  0  0  0  0  0
    0.1655    0.0128    0.5298 H   0  0  0  0  0  0  0  0  0  0  0  0
    0.1655   -2.0477    3.0661 H   0  0  0  0  0  0  0  0  0  0  0  0
    0.1655   -0.1996    3.0698 H   0  0  0  0  0  0  0  0  0  0  0  0
  1  2  3  0
  1  6  1  0
  2  3  1  0
  3  4  1  0
  3  5  1  0
  4  7  1  0
  4  8  1  0
  4  9  1  0
  5 10  1  0
  5 11  1  0
  5 12  1  0
 13 14  2  3
 13 17  1  0
 13 18  1  0
 14 15  1  0
 14 19  1  0
 15 16  2  3
 15 20  1  0
 16 21  1  0
 16 22  1  0
M  RAD  1   3   2
M  END
>  <reaction>  (6) 
rxn_1658

>  <mol_properties>  (6) 
{"1": {"label": "*0", "atom_type": "Ct"}, "2": {"label": "*1", "atom_type": "Cs"}, "13": {"label": "*4", "atom_type": "Cd"}, "14": {"label": "*3", "atom_type": "Cd"}, "19": {"label": "*2", "atom_type": "H0"}}

>  <type>  (6) 
unop_2

>  <geom_source>  (6) 
Heuristics

$$$$

     RDKit          3D

 22 20  0  0  0  0  0  0  0  0999 V2000
   -1.2110    2.7400    1.0297 C   0  0  0  0  0  0  0  0  0  0  0  0
   -0.6488    1.9288    0.3505 C   0  0  0  0  0  0  0  0  0  0  0  0
    0.0506    0.9551   -0.4897 C   0  0  0  0  0  3  0  0  0  0  0  0
    1.5550    0.9674   -0.2019 C   0  0  0  0  0  0  0  0  0  0  0  0
   -0.2394    1.2065   -1.9726 C   0  0  0  0  0  0  0  0  0  0  0  0
   -1.7099    3.4600    1.6325 H   0  0  0  0  0  0  0  0  0  0  0  0
    2.0573    0.2075   -0.8030 H   0  0  0  0  0  0  0  0  0  0  0  0
    1.7558    0.7661    0.8503 H   0  0  0  0  0  0  0  0  0  0  0  0
    1.9824    1.9404   -0.4502 H   0  0  0  0  0  0  0  0  0  0  0  0
    0.1351    2.1866   -2.2731 H   0  0  0  0  0  0  0  0  0  0  0  0
   -1.3098    1.1746   -2.1750 H   0  0  0  0  0  0  0  0  0  0  0  0
    0.2526    0.4480   -2.5840 H   0  0  0  0  0  0  0  0  0  0  0  0
    0.0506   -2.5284   -1.3413 C   0  0  0  0  0  0  0  0  0  0  0  0
    0.0506   -2.5284   -0.0124 C   0  0  0  0  0  0  0  0  0  0  0  0
    0.0506   -1.3211    0.8029 C   0  0  0  0  0  0  0  0  0  0  0  0
    0.0506   -1.3211    2.1318 C   0  0  0  0  0  0  0  0  0  0  0  0
    0.0506   -1.6018   -1.9047 H   0  0  0  0  0  0  0  0  0  0  0  0
    0.0506   -3.4500   -1.9085 H   0  0  0  0  0  0  0  0  0  0  0  0
    0.0506   -3.4733    0.5242 H   0  0  0  0  0  0  0  0  0  0  0  0
    0.0506   -0.1872    0.1590 H   0  0  0  0  0  0  0  0  0  0  0  0
    0.0506   -2.2477    2.6952 H   0  0  0  0  0  0  0  0  0  0  0  0
    0.0506   -0.3995    2.6990 H   0  0  0  0  0  0  0  0  0  0  0  0
  1  2  3  0
  1  6  1  0
  2  3  1  0
  3  4  1  0
  3  5  1  0
  4  7  1  0
  4  8  1  0
  4  9  1  0
  5 10  1  0
  5 11  1  0
  5 12  1  0
 13 14  2  3
 13 17  1  0
 13 18  1  0
 14 15  1  0
 14 19  1  0
 15 16  2  3
 15 20  1  0
 16 21  1  0
 16 22  1  0
M  RAD  1   3   2
M  END
>  <reaction>  (7) 
rxn_1658

>  <mol_properties>  (7) 
{"1": {"label": "*0", "atom_type": "Ct"}, "2": {"label": "*1", "atom_type": "Cs"}, "13": {"label": "*4", "atom_type": "Cd"}, "14": {"label": "*3", "atom_type": "Cd"}, "19": {"label": "*2", "atom_type": "H0"}}

>  <type>  (7) 
unop_3

>  <geom_source>  (7) 
Heuristics

$$$$

     RDKit          3D

 22 20  0  0  0  0  0  0  0  0999 V2000
    1.9494    1.1764   -1.7368 C   0  0  0  0  0  0  0  0  0  0  0  0
    0.9572    1.1324   -1.0667 C   0  0  0  0  0  0  0  0  0  0  0  0
   -0.2543    1.1023   -0.2453 C   0  0  0  0  0  3  0  0  0  0  0  0
   -1.3838    1.8949   -0.9102 C   0  0  0  0  0  0  0  0  0  0  0  0
    0.0333    1.6141    1.1695 C   0  0  0  0  0  0  0  0  0  0  0  0
    2.8299    1.2156   -2.3316 H   0  0  0  0  0  0  0  0  0  0  0  0
   -2.2924    1.8278   -0.3092 H   0  0  0  0  0  0  0  0  0  0  0  0
   -1.5987    1.5119   -1.9078 H   0  0  0  0  0  0  0  0  0  0  0  0
   -1.1086    2.9471   -1.0012 H   0  0  0  0  0  0  0  0  0  0  0  0
    0.3503    2.6580    1.1399 H   0  0  0  0  0  0  0  0  0  0  0  0
    0.8225    1.0322    1.6454 H   0  0  0  0  0  0  0  0  0  0  0  0
   -0.8670    1.5453    1.7826 H   0  0  0  0  0  0  0  0  0  0  0  0
   -0.2543   -2.3812   -1.0968 C   0  0  0  0  0  0  0  0  0  0  0  0
   -0.2543   -2.3812    0.2320 C   0  0  0  0  0  0  0  0  0  0  0  0
   -0.2543   -1.1738    1.0473 C   0  0  0  0  0  0  0  0  0  0  0  0
   -0.2543   -1.1738    2.3762 C   0  0  0  0  0  0  0  0  0  0  0  0
   -0.2543   -1.4546   -1.6603 H   0  0  0  0  0  0  0  0  0  0  0  0
   -0.2543   -3.3027   -1.6640 H   0  0  0  0  0  0  0  0  0  0  0  0
   -0.2543   -3.3261    0.7686 H   0  0  0  0  0  0  0  0  0  0  0  0
   -0.2543   -0.0399    0.4034 H   0  0  0  0  0  0  0  0  0  0  0  0
   -0.2543   -2.1004    2.9397 H   0  0  0  0  0  0  0  0  0  0  0  0
   -0.2543   -0.2523    2.9434 H   0  0  0  0  0  0  0  0  0  0  0  0
  1  2  3  0
  1  6  1  0
  2  3  1  0
  3  4  1  0
  3  5  1  0
  4  7  1  0
  4  8  1  0
  4  9  1  0
  5 10  1  0
  5 11  1  0
  5 12  1  0
 13 14  2  3
 13 17  1  0
 13 18  1  0
 14 15  1  0
 14 19  1  0
 15 16  2  3
 15 20  1  0
 16 21  1  0
 16 22  1  0
M  RAD  1   3   2
M  END
>  <reaction>  (8) 
rxn_1658

>  <mol_properties>  (8) 
{"1": {"label": "*0", "atom_type": "Ct"}, "2": {"label": "*1", "atom_type": "Cs"}, "13": {"label": "*4", "atom_type": "Cd"}, "14": {"label": "*3", "atom_type": "Cd"}, "19": {"label": "*2", "atom_type": "H0"}}

>  <type>  (8) 
unop_4

>  <geom_source>  (8) 
Heuristics

$$$$

     RDKit          3D

 22 20  0  0  0  0  0  0  0  0999 V2000
    0.0000    2.8982    1.3403 C   0  0  0  0  0  0  0  0  0  0  0  0
   -0.0000    2.0123    0.5337 C   0  0  0  0  0  0  0  0  0  0  0  0
   -0.0000    0.9461   -0.4695 C   0  0  0  0  0  3  0  0  0  0  0  0
    1.2661    1.0064   -1.3295 C   0  0  0  0  0  0  0  0  0  0  0  0
   -1.2661    1.0064   -1.3295 C   0  0  0  0  0  0  0  0  0  0  0  0
    0.0000    3.6844    2.0561 H   0  0  0  0  0  0  0  0  0  0  0  0
    1.2735    0.1808   -2.0433 H   0  0  0  0  0  0  0  0  0  0  0  0
    2.1632    0.9408   -0.7139 H   0  0  0  0  0  0  0  0  0  0  0  0
    1.3035    1.9437   -1.8873 H   0  0  0  0  0  0  0  0  0  0  0  0
   -1.3035    1.9437   -1.8873 H   0  0  0  0  0  0  0  0  0  0  0  0
   -2.1632    0.9408   -0.7139 H   0  0  0  0  0  0  0  0  0  0  0  0
   -1.2735    0.1808   -2.0433 H   0  0  0  0  0  0  0  0  0  0  0  0
   -0.0000   -2.5374   -1.3211 C   0  0  0  0  0  0  0  0  0  0  0  0
   -0.0000   -2.5374    0.0078 C   0  0  0  0  0  0  0  0  0  0  0  0
   -0.0000   -1.3301    0.8231 C   0  0  0  0  0  0  0  0  0  0  0  0
   -0.0000   -1.3301    2.1519 C   0  0  0  0  0  0  0  0  0  0  0  0
   -0.0000   -1.6108   -1.8846 H   0  0  0  0  0  0  0  0  0  0  0  0
    0.0000   -3.4590   -1.8883 H   0  0  0  0  0  0  0  0  0  0  0  0
   -0.0000   -3.4824    0.5444 H   0  0  0  0  0  0  0  0  0  0  0  0
   -0.0000   -0.1962    0.1791 H   0  0  0  0  0  0  0  0  0  0  0  0
    0.0000   -2.2567    2.7154 H   0  0  0  0  0  0  0  0  0  0  0  0
    0.0000   -0.4086    2.7191 H   0  0  0  0  0  0  0  0  0  0  0  0
  1  2  3  0
  1  6  1  0
  2  3  1  0
  3  4  1  0
  3  5  1  0
  4  7  1  0
  4  8  1  0
  4  9  1  0
  5 10  1  0
  5 11  1  0
  5 12  1  0
 13 14  2  3
 13 17  1  0
 13 18  1  0
 14 15  1  0
 14 19  1  0
 15 16  2  3
 15 20  1  0
 16 21  1  0
 16 22  1  0
M  RAD  1   3   2
M  END
>  <reaction>  (9) 
rxn_1658

>  <mol_properties>  (9) 
{"1": {"label": "*0", "atom_type": "Ct"}, "2": {"label": "*1", "atom_type": "Cs"}, "13": {"label": "*4", "atom_type": "Cd"}, "14": {"label": "*3", "atom_type": "Cd"}, "19": {"label": "*2", "atom_type": "H0"}}

>  <type>  (9) 
unop_5

>  <geom_source>  (9) 
Heuristics

$$$$

     RDKit          3D

 22 20  0  0  0  0  0  0  0  0999 V2000
    2.2953    1.7399   -0.7655 C   0  0  0  0  0  0  0  0  0  0  0  0
    1.1552    1.4139   -0.5944 C   0  0  0  0  0  0  0  0  0  0  0  0
   -0.2437    1.0385   -0.3812 C   0  0  0  0  0  3  0  0  0  0  0  0
   -1.1515    1.7044   -1.4198 C   0  0  0  0  0  0  0  0  0  0  0  0
   -0.6861    1.3714    1.0470 C   0  0  0  0  0  0  0  0  0  0  0  0
    3.3072    2.0292   -0.9173 H   0  0  0  0  0  0  0  0  0  0  0  0
   -2.1842    1.3818   -1.2760 H   0  0  0  0  0  0  0  0  0  0  0  0
   -0.8451    1.4460   -2.4333 H   0  0  0  0  0  0  0  0  0  0  0  0
   -1.1131    2.7904   -1.3187 H   0  0  0  0  0  0  0  0  0  0  0  0
   -0.6340    2.4476    1.2208 H   0  0  0  0  0  0  0  0  0  0  0  0
   -0.0500    0.8770    1.7811 H   0  0  0  0  0  0  0  0  0  0  0  0
   -1.7161    1.0469    1.2050 H   0  0  0  0  0  0  0  0  0  0  0  0
   -0.2437   -2.4450   -1.2328 C   0  0  0  0  0  0  0  0  0  0  0  0
   -0.2437   -2.4450    0.0961 C   0  0  0  0  0  0  0  0  0  0  0  0
   -0.2437   -1.2377    0.9114 C   0  0  0  0  0  0  0  0  0  0  0  0
   -0.2437   -1.2377    2.2403 C   0  0  0  0  0  0  0  0  0  0  0  0
   -0.2437   -1.5184   -1.7962 H   0  0  0  0  0  0  0  0  0  0  0  0
   -0.2437   -3.3666   -1.7999 H   0  0  0  0  0  0  0  0  0  0  0  0
   -0.2437   -3.3900    0.6327 H   0  0  0  0  0  0  0  0  0  0  0  0
   -0.2437   -0.1038    0.2675 H   0  0  0  0  0  0  0  0  0  0  0  0
   -0.2437   -2.1643    2.8038 H   0  0  0  0  0  0  0  0  0  0  0  0
   -0.2437   -0.3162    2.8075 H   0  0  0  0  0  0  0  0  0  0  0  0
  1  2  3  0
  1  6  1  0
  2  3  1  0
  3  4  1  0
  3  5  1  0
  4  7  1  0
  4  8  1  0
  4  9  1  0
  5 10  1  0
  5 11  1  0
  5 12  1  0
 13 14  2  3
 13 17  1  0
 13 18  1  0
 14 15  1  0
 14 19  1  0
 15 16  2  3
 15 20  1  0
 16 21  1  0
 16 22  1  0
M  RAD  1   3   2
M  END
>  <reaction>  (10) 
rxn_1658

>  <mol_properties>  (10) 
{"1": {"label": "*0", "atom_type": "Ct"}, "2": {"label": "*1", "atom_type": "Cs"}, "13": {"label": "*4", "atom_type": "Cd"}, "14": {"label": "*3", "atom_type": "Cd"}, "19": {"label": "*2", "atom_type": "H0"}}

>  <type>  (10) 
unop_6

>  <geom_source>  (10) 
Heuristics

$$$$

     RDKit          3D

 22 20  0  0  0  0  0  0  0  0999 V2000
    2.0363    2.3129    0.2452 C   0  0  0  0  0  0  0  0  0  0  0  0
    1.0550    1.7062   -0.0778 C   0  0  0  0  0  0  0  0  0  0  0  0
   -0.1565    0.9854   -0.4728 C   0  0  0  0  0  3  0  0  0  0  0  0
   -0.6481    1.4560   -1.8450 C   0  0  0  0  0  0  0  0  0  0  0  0
   -1.2472    1.1268    0.5932 C   0  0  0  0  0  0  0  0  0  0  0  0
    2.9072    2.8514    0.5319 H   0  0  0  0  0  0  0  0  0  0  0  0
   -1.5254    0.8806   -2.1459 H   0  0  0  0  0  0  0  0  0  0  0  0
    0.1248    1.3323   -2.6034 H   0  0  0  0  0  0  0  0  0  0  0  0
   -0.9246    2.5112   -1.8092 H   0  0  0  0  0  0  0  0  0  0  0  0
   -1.5414    2.1723    0.7009 H   0  0  0  0  0  0  0  0  0  0  0  0
   -0.8988    0.7698    1.5623 H   0  0  0  0  0  0  0  0  0  0  0  0
   -2.1280    0.5495    0.3065 H   0  0  0  0  0  0  0  0  0  0  0  0
   -0.1565   -2.4982   -1.3243 C   0  0  0  0  0  0  0  0  0  0  0  0
   -0.1565   -2.4982    0.0045 C   0  0  0  0  0  0  0  0  0  0  0  0
   -0.1565   -1.2908    0.8198 C   0  0  0  0  0  0  0  0  0  0  0  0
   -0.1565   -1.2908    2.1487 C   0  0  0  0  0  0  0  0  0  0  0  0
   -0.1565   -1.5716   -1.8878 H   0  0  0  0  0  0  0  0  0  0  0  0
   -0.1565   -3.4197   -1.8915 H   0  0  0  0  0  0  0  0  0  0  0  0
   -0.1565   -3.4431    0.5412 H   0  0  0  0  0  0  0  0  0  0  0  0
   -0.1565   -0.1569    0.1759 H   0  0  0  0  0  0  0  0  0  0  0  0
   -0.1565   -2.2174    2.7122 H   0  0  0  0  0  0  0  0  0  0  0  0
   -0.1565   -0.3693    2.7159 H   0  0  0  0  0  0  0  0  0  0  0  0
  1  2  3  0
  1  6  1  0
  2  3  1  0
  3  4  1  0
  3  5  1  0
  4  7  1  0
  4  8  1  0
  4  9  1  0
  5 10  1  0
  5 11  1  0
  5 12  1  0
 13 14  2  3
 13 17  1  0
 13 18  1  0
 14 15  1  0
 14 19  1  0
 15 16  2  3
 15 20  1  0
 16 21  1  0
 16 22  1  0
M  RAD  1   3   2
M  END
>  <reaction>  (11) 
rxn_1658

>  <mol_properties>  (11) 
{"1": {"label": "*0", "atom_type": "Ct"}, "2": {"label": "*1", "atom_type": "Cs"}, "13": {"label": "*4", "atom_type": "Cd"}, "14": {"label": "*3", "atom_type": "Cd"}, "19": {"label": "*2", "atom_type": "H0"}}

>  <type>  (11) 
unop_7

>  <geom_source>  (11) 
Heuristics

$$$$

     RDKit          3D

 22 20  0  0  0  0  0  0  0  0999 V2000
   -2.2953    1.7399   -0.7655 C   0  0  0  0  0  0  0  0  0  0  0  0
   -1.1552    1.4139   -0.5944 C   0  0  0  0  0  0  0  0  0  0  0  0
    0.2437    1.0385   -0.3812 C   0  0  0  0  0  3  0  0  0  0  0  0
    0.6861    1.3714    1.0470 C   0  0  0  0  0  0  0  0  0  0  0  0
    1.1515    1.7044   -1.4198 C   0  0  0  0  0  0  0  0  0  0  0  0
   -3.3072    2.0292   -0.9173 H   0  0  0  0  0  0  0  0  0  0  0  0
    1.7161    1.0469    1.2050 H   0  0  0  0  0  0  0  0  0  0  0  0
    0.0500    0.8770    1.7811 H   0  0  0  0  0  0  0  0  0  0  0  0
    0.6340    2.4476    1.2208 H   0  0  0  0  0  0  0  0  0  0  0  0
    1.1131    2.7904   -1.3187 H   0  0  0  0  0  0  0  0  0  0  0  0
    0.8451    1.4460   -2.4333 H   0  0  0  0  0  0  0  0  0  0  0  0
    2.1842    1.3818   -1.2760 H   0  0  0  0  0  0  0  0  0  0  0  0
    0.2437   -2.4450   -1.2328 C   0  0  0  0  0  0  0  0  0  0  0  0
    0.2437   -2.4450    0.0961 C   0  0  0  0  0  0  0  0  0  0  0  0
    0.2437   -1.2377    0.9114 C   0  0  0  0  0  0  0  0  0  0  0  0
    0.2437   -1.2377    2.2403 C   0  0  0  0  0  0  0  0  0  0  0  0
    0.2437   -1.5184   -1.7962 H   0  0  0  0  0  0  0  0  0  0  0  0
    0.2437   -3.3666   -1.7999 H   0  0  0  0  0  0  0  0  0  0  0  0
    0.2437   -3.3900    0.6327 H   0  0  0  0  0  0  0  0  0  0  0  0
    0.2437   -0.1038    0.2675 H   0  0  0  0  0  0  0  0  0  0  0  0
    0.2437   -2.1643    2.8038 H   0  0  0  0  0  0  0  0  0  0  0  0
    0.2437   -0.3162    2.8075 H   0  0  0  0  0  0  0  0  0  0  0  0
  1  2  3  0
  1  6  1  0
  2  3  1  0
  3  4  1  0
  3  5  1  0
  4  7  1  0
  4  8  1  0
  4  9  1  0
  5 10  1  0
  5 11  1  0
  5 12  1  0
 13 14  2  3
 13 17  1  0
 13 18  1  0
 14 15  1  0
 14 19  1  0
 15 16  2  3
 15 20  1  0
 16 21  1  0
 16 22  1  0
M  RAD  1   3   2
M  END
>  <reaction>  (12) 
rxn_1658

>  <mol_properties>  (12) 
{"1": {"label": "*0", "atom_type": "Ct"}, "2": {"label": "*1", "atom_type": "Cs"}, "13": {"label": "*4", "atom_type": "Cd"}, "14": {"label": "*3", "atom_type": "Cd"}, "19": {"label": "*2", "atom_type": "H0"}}

>  <type>  (12) 
unop_8

>  <geom_source>  (12) 
Heuristics

$$$$

     RDKit          3D

 22 20  0  0  0  0  0  0  0  0999 V2000
    1.1089    0.7693   -2.4239 C   0  0  0  0  0  0  0  0  0  0  0  0
    0.5339    0.9323   -1.3855 C   0  0  0  0  0  0  0  0  0  0  0  0
   -0.1655    1.1550   -0.1188 C   0  0  0  0  0  3  0  0  0  0  0  0
   -1.4374    1.9804   -0.3361 C   0  0  0  0  0  0  0  0  0  0  0  0
    0.7618    1.8124    0.9079 C   0  0  0  0  0  0  0  0  0  0  0  0
    1.6191    0.6246   -3.3456 H   0  0  0  0  0  0  0  0  0  0  0  0
   -1.9708    2.1016    0.6084 H   0  0  0  0  0  0  0  0  0  0  0  0
   -2.1030    1.4965   -1.0508 H   0  0  0  0  0  0  0  0  0  0  0  0
   -1.1878    2.9711   -0.7197 H   0  0  0  0  0  0  0  0  0  0  0  0
    1.0763    2.7982    0.5609 H   0  0  0  0  0  0  0  0  0  0  0  0
    1.6544    1.2096    1.0745 H   0  0  0  0  0  0  0  0  0  0  0  0
    0.2411    1.9327    1.8596 H   0  0  0  0  0  0  0  0  0  0  0  0
   -0.1655   -2.3285   -0.9704 C   0  0  0  0  0  0  0  0  0  0  0  0
   -0.1655   -2.3285    0.3585 C   0  0  0  0  0  0  0  0  0  0  0  0
   -0.1655   -1.1211    1.1738 C   0  0  0  0  0  0  0  0  0  0  0  0
   -0.1655   -1.1211    2.5026 C   0  0  0  0  0  0  0  0  0  0  0  0
   -0.1655   -1.4019   -1.5339 H   0  0  0  0  0  0  0  0  0  0  0  0
   -0.1655   -3.2500   -1.5376 H   0  0  0  0  0  0  0  0  0  0  0  0
   -0.1655   -3.2734    0.8951 H   0  0  0  0  0  0  0  0  0  0  0  0
   -0.1655    0.0128    0.5298 H   0  0  0  0  0  0  0  0  0  0  0  0
   -0.1655   -2.0477    3.0661 H   0  0  0  0  0  0  0  0  0  0  0  0
   -0.1655   -0.1996    3.0698 H   0  0  0  0  0  0  0  0  0  0  0  0
  1  2  3  0
  1  6  1  0
  2  3  1  0
  3  4  1  0
  3  5  1  0
  4  7  1  0
  4  8  1  0
  4  9  1  0
  5 10  1  0
  5 11  1  0
  5 12  1  0
 13 14  2  3
 13 17  1  0
 13 18  1  0
 14 15  1  0
 14 19  1  0
 15 16  2  3
 15 20  1  0
 16 21  1  0
 16 22  1  0
M  RAD  1   3   2
M  END
>  <reaction>  (13) 
rxn_1658

>  <mol_properties>  (13) 
{"1": {"label": "*0", "atom_type": "Ct"}, "2": {"label": "*1", "atom_type": "Cs"}, "13": {"label": "*4", "atom_type": "Cd"}, "14": {"label": "*3", "atom_type": "Cd"}, "19": {"label": "*2", "atom_type": "H0"}}

>  <type>  (13) 
unop_9

>  <geom_source>  (13) 
Heuristics

$$$$

     RDKit          3D

 22 20  0  0  0  0  0  0  0  0999 V2000
   -1.9494    1.1764   -1.7368 C   0  0  0  0  0  0  0  0  0  0  0  0
   -0.9572    1.1324   -1.0667 C   0  0  0  0  0  0  0  0  0  0  0  0
    0.2543    1.1023   -0.2453 C   0  0  0  0  0  3  0  0  0  0  0  0
   -0.0333    1.6141    1.1695 C   0  0  0  0  0  0  0  0  0  0  0  0
    1.3838    1.8949   -0.9102 C   0  0  0  0  0  0  0  0  0  0  0  0
   -2.8299    1.2155   -2.3316 H   0  0  0  0  0  0  0  0  0  0  0  0
    0.8670    1.5453    1.7826 H   0  0  0  0  0  0  0  0  0  0  0  0
   -0.8224    1.0322    1.6454 H   0  0  0  0  0  0  0  0  0  0  0  0
   -0.3503    2.6580    1.1399 H   0  0  0  0  0  0  0  0  0  0  0  0
    1.1086    2.9471   -1.0012 H   0  0  0  0  0  0  0  0  0  0  0  0
    1.5987    1.5119   -1.9078 H   0  0  0  0  0  0  0  0  0  0  0  0
    2.2924    1.8278   -0.3092 H   0  0  0  0  0  0  0  0  0  0  0  0
    0.2543   -2.3812   -1.0968 C   0  0  0  0  0  0  0  0  0  0  0  0
    0.2543   -2.3812    0.2320 C   0  0  0  0  0  0  0  0  0  0  0  0
    0.2543   -1.1738    1.0473 C   0  0  0  0  0  0  0  0  0  0  0  0
    0.2543   -1.1738    2.3762 C   0  0  0  0  0  0  0  0  0  0  0  0
    0.2543   -1.4546   -1.6603 H   0  0  0  0  0  0  0  0  0  0  0  0
    0.2543   -3.3027   -1.6640 H   0  0  0  0  0  0  0  0  0  0  0  0
    0.2543   -3.3261    0.7686 H   0  0  0  0  0  0  0  0  0  0  0  0
    0.2543   -0.0399    0.4034 H   0  0  0  0  0  0  0  0  0  0  0  0
    0.2543   -2.1004    2.9397 H   0  0  0  0  0  0  0  0  0  0  0  0
    0.2543   -0.2523    2.9434 H   0  0  0  0  0  0  0  0  0  0  0  0
  1  2  3  0
  1  6  1  0
  2  3  1  0
  3  4  1  0
  3  5  1  0
  4  7  1  0
  4  8  1  0
  4  9  1  0
  5 10  1  0
  5 11  1  0
  5 12  1  0
 13 14  2  3
 13 17  1  0
 13 18  1  0
 14 15  1  0
 14 19  1  0
 15 16  2  3
 15 20  1  0
 16 21  1  0
 16 22  1  0
M  RAD  1   3   2
M  END
>  <reaction>  (14) 
rxn_1658

>  <mol_properties>  (14) 
{"1": {"label": "*0", "atom_type": "Ct"}, "2": {"label": "*1", "atom_type": "Cs"}, "13": {"label": "*4", "atom_type": "Cd"}, "14": {"label": "*3", "atom_type": "Cd"}, "19": {"label": "*2", "atom_type": "H0"}}

>  <type>  (14) 
unop_10

>  <geom_source>  (14) 
Heuristics

$$$$

     RDKit          3D

 22 20  0  0  0  0  0  0  0  0999 V2000
    1.2110    2.7400    1.0297 C   0  0  0  0  0  0  0  0  0  0  0  0
    0.6488    1.9288    0.3505 C   0  0  0  0  0  0  0  0  0  0  0  0
   -0.0506    0.9551   -0.4897 C   0  0  0  0  0  3  0  0  0  0  0  0
    0.2394    1.2065   -1.9726 C   0  0  0  0  0  0  0  0  0  0  0  0
   -1.5550    0.9674   -0.2019 C   0  0  0  0  0  0  0  0  0  0  0  0
    1.7099    3.4600    1.6325 H   0  0  0  0  0  0  0  0  0  0  0  0
   -0.2526    0.4480   -2.5840 H   0  0  0  0  0  0  0  0  0  0  0  0
    1.3098    1.1745   -2.1750 H   0  0  0  0  0  0  0  0  0  0  0  0
   -0.1351    2.1866   -2.2731 H   0  0  0  0  0  0  0  0  0  0  0  0
   -1.9824    1.9404   -0.4502 H   0  0  0  0  0  0  0  0  0  0  0  0
   -1.7558    0.7661    0.8503 H   0  0  0  0  0  0  0  0  0  0  0  0
   -2.0574    0.2075   -0.8030 H   0  0  0  0  0  0  0  0  0  0  0  0
   -0.0506   -2.5284   -1.3413 C   0  0  0  0  0  0  0  0  0  0  0  0
   -0.0506   -2.5284   -0.0124 C   0  0  0  0  0  0  0  0  0  0  0  0
   -0.0506   -1.3211    0.8029 C   0  0  0  0  0  0  0  0  0  0  0  0
   -0.0506   -1.3211    2.1318 C   0  0  0  0  0  0  0  0  0  0  0  0
   -0.0506   -1.6018   -1.9047 H   0  0  0  0  0  0  0  0  0  0  0  0
   -0.0506   -3.4500   -1.9085 H   0  0  0  0  0  0  0  0  0  0  0  0
   -0.0506   -3.4733    0.5242 H   0  0  0  0  0  0  0  0  0  0  0  0
   -0.0506   -0.1872    0.1590 H   0  0  0  0  0  0  0  0  0  0  0  0
   -0.0506   -2.2477    2.6952 H   0  0  0  0  0  0  0  0  0  0  0  0
   -0.0506   -0.3995    2.6990 H   0  0  0  0  0  0  0  0  0  0  0  0
  1  2  3  0
  1  6  1  0
  2  3  1  0
  3  4  1  0
  3  5  1  0
  4  7  1  0
  4  8  1  0
  4  9  1  0
  5 10  1  0
  5 11  1  0
  5 12  1  0
 13 14  2  3
 13 17  1  0
 13 18  1  0
 14 15  1  0
 14 19  1  0
 15 16  2  3
 15 20  1  0
 16 21  1  0
 16 22  1  0
M  RAD  1   3   2
M  END
>  <reaction>  (15) 
rxn_1658

>  <mol_properties>  (15) 
{"1": {"label": "*0", "atom_type": "Ct"}, "2": {"label": "*1", "atom_type": "Cs"}, "13": {"label": "*4", "atom_type": "Cd"}, "14": {"label": "*3", "atom_type": "Cd"}, "19": {"label": "*2", "atom_type": "H0"}}

>  <type>  (15) 
unop_11

>  <geom_source>  (15) 
Heuristics

$$$$

     RDKit          3D

 22 20  0  0  0  0  0  0  0  0999 V2000
   -0.0000    0.6213   -2.6691 C   0  0  0  0  0  0  0  0  0  0  0  0
    0.0000    0.8602   -1.4951 C   0  0  0  0  0  0  0  0  0  0  0  0
    0.0000    1.1756   -0.0654 C   0  0  0  0  0  3  0  0  0  0  0  0
   -1.2661    1.9450    0.3233 C   0  0  0  0  0  0  0  0  0  0  0  0
    1.2661    1.9450    0.3233 C   0  0  0  0  0  0  0  0  0  0  0  0
   -0.0000    0.4093   -3.7111 H   0  0  0  0  0  0  0  0  0  0  0  0
   -1.2735    2.1351    1.3980 H   0  0  0  0  0  0  0  0  0  0  0  0
   -2.1632    1.3827    0.0643 H   0  0  0  0  0  0  0  0  0  0  0  0
   -1.3035    2.9042   -0.1959 H   0  0  0  0  0  0  0  0  0  0  0  0
    1.3035    2.9042   -0.1959 H   0  0  0  0  0  0  0  0  0  0  0  0
    2.1632    1.3827    0.0643 H   0  0  0  0  0  0  0  0  0  0  0  0
    1.2735    2.1351    1.3980 H   0  0  0  0  0  0  0  0  0  0  0  0
    0.0000   -2.3080   -0.9170 C   0  0  0  0  0  0  0  0  0  0  0  0
    0.0000   -2.3080    0.4119 C   0  0  0  0  0  0  0  0  0  0  0  0
    0.0000   -1.1006    1.2272 C   0  0  0  0  0  0  0  0  0  0  0  0
    0.0000   -1.1006    2.5560 C   0  0  0  0  0  0  0  0  0  0  0  0
   -0.0000   -1.3814   -1.4805 H   0  0  0  0  0  0  0  0  0  0  0  0
    0.0000   -3.2295   -1.4842 H   0  0  0  0  0  0  0  0  0  0  0  0
   -0.0000   -3.2529    0.9485 H   0  0  0  0  0  0  0  0  0  0  0  0
    0.0000    0.0333    0.5832 H   0  0  0  0  0  0  0  0  0  0  0  0
    0.0000   -2.0272    3.1195 H   0  0  0  0  0  0  0  0  0  0  0  0
    0.0000   -0.1791    3.1232 H   0  0  0  0  0  0  0  0  0  0  0  0
  1  2  3  0
  1  6  1  0
  2  3  1  0
  3  4  1  0
  3  5  1  0
  4  7  1  0
  4  8  1  0
  4  9  1  0
  5 10  1  0
  5 11  1  0
  5 12  1  0
 13 14  2  3
 13 17  1  0
 13 18  1  0
 14 15  1  0
 14 19  1  0
 15 16  2  3
 15 20  1  0
 16 21  1  0
 16 22  1  0
M  RAD  1   3   2
M  END
>  <reaction>  (16) 
rxn_1658

>  <mol_properties>  (16) 
{"1": {"label": "*0", "atom_type": "Ct"}, "2": {"label": "*1", "atom_type": "Cs"}, "13": {"label": "*4", "atom_type": "Cd"}, "14": {"label": "*3", "atom_type": "Cd"}, "19": {"label": "*2", "atom_type": "H0"}}

>  <type>  (16) 
unop_12

>  <geom_source>  (16) 
Heuristics

$$$$

     RDKit          3D

 22 20  0  0  0  0  0  0  0  0999 V2000
   -1.1333    0.1802   -0.4174 C   0  0  0  0  0  3  0  0  0  0  0  0
   -0.7311    1.0026   -1.6418 C   0  0  0  0  0  0  0  0  0  0  0  0
   -2.2996   -0.7536   -0.7420 C   0  0  0  0  0  0  0  0  0  0  0  0
    1.7943   -1.5177    1.1136 C   0  0  0  0  0  0  0  0  0  0  0  0
    2.8560   -1.1131    1.8123 C   0  0  0  0  0  0  0  0  0  0  0  0
    1.6723    0.3515   -0.5489 C   0  0  0  0  0  0  0  0  0  0  0  0
   -1.4950    1.0729    0.6943 C   0  0  0  0  0  0  0  0  0  0  0  0
    1.2217   -0.7945   -0.0408 C   0  0  0  0  0  0  0  0  0  0  0  0
   -1.7906    1.8041    1.6062 C   0  0  0  0  0  0  0  0  0  0  0  0
   -0.0111   -0.6151   -0.0133 H   0  0  0  0  0  0  0  0  0  0  0  0
   -0.4268    0.3263   -2.4686 H   0  0  0  0  0  0  0  0  0  0  0  0
   -1.5760    1.6373   -1.9872 H   0  0  0  0  0  0  0  0  0  0  0  0
    0.1335    1.6549   -1.3941 H   0  0  0  0  0  0  0  0  0  0  0  0
   -2.5601   -1.3609    0.1512 H   0  0  0  0  0  0  0  0  0  0  0  0
   -3.1940   -0.1742   -1.0589 H   0  0  0  0  0  0  0  0  0  0  0  0
   -2.0120   -1.4484   -1.5592 H   0  0  0  0  0  0  0  0  0  0  0  0
    1.3107   -2.4409    1.4055 H   0  0  0  0  0  0  0  0  0  0  0  0
    3.3919   -0.2040    1.5829 H   0  0  0  0  0  0  0  0  0  0  0  0
    3.2058   -1.7095    2.6450 H   0  0  0  0  0  0  0  0  0  0  0  0
    1.1651    0.7845   -1.3999 H   0  0  0  0  0  0  0  0  0  0  0  0
    2.5286    0.8715   -0.1454 H   0  0  0  0  0  0  0  0  0  0  0  0
   -2.0502    2.4460    2.4065 H   0  0  0  0  0  0  0  0  0  0  0  0
  1  2  1  0
  1  3  1  0
  1  7  1  0
  2 11  1  0
  2 12  1  0
  2 13  1  0
  3 14  1  0
  3 15  1  0
  3 16  1  0
  4  5  2  3
  4  8  1  0
  4 17  1  0
  5 18  1  0
  5 19  1  0
  6  8  2  3
  6 20  1  0
  6 21  1  0
  7  9  3  0
  8 10  1  0
  9 22  1  0
M  RAD  1   1   2
M  END
>  <reaction>  (17) 
rxn_1658

>  <mol_properties>  (17) 
{"1": {"label": "*0", "atom_type": "Ct"}, "2": {"label": "*1", "atom_type": "Cs"}, "13": {"label": "*4", "atom_type": "Cd"}, "14": {"label": "*3", "atom_type": "Cd"}, "19": {"label": "*2", "atom_type": "H0"}}

>  <type>  (17) 
unop_13

>  <geom_source>  (17) 
AutoTST

$$$$
