
     RDKit          3D

  9  8  0  0  0  0  0  0  0  0999 V2000
    1.1303   -0.2933   -0.7510 C   0  0  0  0  0  0  0  0  0  0  0  0
    0.2866    0.4560   -0.0588 C   0  0  0  0  0  0  0  0  0  0  0  0
   -0.9719   -0.0331    0.5823 C   0  0  0  0  0  0  0  0  0  0  0  0
    2.0274    0.1230   -1.1916 H   0  0  0  0  0  0  0  0  0  0  0  0
    0.9532   -1.3530   -0.9023 H   0  0  0  0  0  0  0  0  0  0  0  0
    0.5065    1.5132    0.0659 H   0  0  0  0  0  0  0  0  0  0  0  0
   -0.9526    0.1426    1.6610 H   0  0  0  0  0  0  0  0  0  0  0  0
   -1.1182   -1.1002    0.4106 H   0  0  0  0  0  0  0  0  0  0  0  0
   -1.8412    0.5010    0.1901 H   0  0  0  0  0  0  0  0  0  0  0  0
  1  2  2  3
  1  4  1  0
  1  5  1  0
  2  3  1  0
  2  6  1  0
  3  7  1  0
  3  8  1  0
  3  9  1  0
M  END
>  <reaction>  (1) 
rxn_99

>  <mol_properties>  (1) 
{"0": {"label": "donator", "atom_type": "Cd"}, "3": {"label": "d_hydrogen", "atom_type": "H0"}}

>  <type>  (1) 
r1h

$$$$

     RDKit          3D

  3  2  0  0  0  0  0  0  0  0999 V2000
    0.0002    0.4233    0.0000 N   0  0  0  0  0  2  0  0  0  0  0  0
   -0.8051   -0.2112    0.0000 H   0  0  0  0  0  0  0  0  0  0  0  0
    0.8049   -0.2121    0.0000 H   0  0  0  0  0  0  0  0  0  0  0  0
  1  2  1  0
  1  3  1  0
M  RAD  1   1   2
M  END
>  <reaction>  (2) 
rxn_99

>  <mol_properties>  (2) 
{"0": {"label": "acceptor", "atom_type": "N3s"}}

>  <type>  (2) 
r2

$$$$

     RDKit          3D

  4  3  0  0  0  0  0  0  0  0999 V2000
    0.0006   -0.0009    0.2762 N   0  0  0  0  0  0  0  0  0  0  0  0
   -0.4188    0.8439   -0.0883 H   0  0  0  0  0  0  0  0  0  0  0  0
   -0.5215   -0.7840   -0.0936 H   0  0  0  0  0  0  0  0  0  0  0  0
    0.9397   -0.0590   -0.0943 H   0  0  0  0  0  0  0  0  0  0  0  0
  1  2  1  0
  1  3  1  0
  1  4  1  0
M  END
>  <reaction>  (3) 
rxn_99

>  <mol_properties>  (3) 
{"0": {"label": "acceptor", "atom_type": "N3s"}, "3": {"label": "a_hydrogen", "atom_type": "H0"}}

>  <type>  (3) 
r2h

$$$$

     RDKit          3D

 12 10  0  0  0  0  0  0  0  0999 V2000
    0.1504    0.5063    2.5348 N   0  0  0  0  0  0  0  0  0  0  0  0
   -0.5197   -0.2529    2.6641 H   0  0  0  0  0  0  0  0  0  0  0  0
    1.0640    0.0510    2.5466 H   0  0  0  0  0  0  0  0  0  0  0  0
   -0.0758    0.7054   -0.0002 C   0  0  0  0  0  3  0  0  0  0  0  0
    0.0890   -0.4131   -0.6719 C   0  0  0  0  0  0  0  0  0  0  0  0
    0.0033   -0.5430   -2.1642 C   0  0  0  0  0  0  0  0  0  0  0  0
    0.0177    0.7292    1.3218 H   0  0  0  0  0  0  0  0  0  0  0  0
   -0.2945    1.6896   -0.4026 H   0  0  0  0  0  0  0  0  0  0  0  0
    0.3053   -1.3287   -0.1252 H   0  0  0  0  0  0  0  0  0  0  0  0
    0.9437   -0.9227   -2.5709 H   0  0  0  0  0  0  0  0  0  0  0  0
   -0.2155    0.4147   -2.6364 H   0  0  0  0  0  0  0  0  0  0  0  0
   -0.7788   -1.2533   -2.4432 H   0  0  0  0  0  0  0  0  0  0  0  0
  1  2  1  0
  1  3  1  0
  1  7  1  0
  4  5  2  3
  4  8  1  0
  5  6  1  0
  5  9  1  0
  6 10  1  0
  6 11  1  0
  6 12  1  0
M  RAD  1   4   2
M  END
>  <reaction>  (4) 
rxn_99

>  <mol_properties>  (4) 
{"0": {"label": "*1", "atom_type": "N3s"}, "1": {"label": "*0", "atom_type": "H0"}, "3": {"label": "*3", "atom_type": "Cd"}, "4": {"label": "*4", "atom_type": "Cd"}, "6": {"label": "*2", "atom_type": "H0"}}

>  <type>  (4) 
ts

$$$$

     RDKit          3D

 12 10  0  0  0  0  0  0  0  0999 V2000
   -0.0043    0.3879    2.5654 N   0  0  0  0  0  0  0  0  0  0  0  0
    0.8308    0.8500    2.8995 H   0  0  0  0  0  0  0  0  0  0  0  0
   -0.5923    1.1856    2.3640 H   0  0  0  0  0  0  0  0  0  0  0  0
   -0.0043    0.5458    0.0576 C   0  0  0  0  0  3  0  0  0  0  0  0
   -0.0043   -0.5366   -0.7045 C   0  0  0  0  0  0  0  0  0  0  0  0
   -0.0043   -0.5366   -2.1992 C   0  0  0  0  0  0  0  0  0  0  0  0
   -0.0043    0.4642    1.3543 H   0  0  0  0  0  0  0  0  0  0  0  0
   -0.0043    1.5415   -0.3734 H   0  0  0  0  0  0  0  0  0  0  0  0
   -0.0043   -1.5131   -0.2269 H   0  0  0  0  0  0  0  0  0  0  0  0
    0.8734   -1.0592   -2.5881 H   0  0  0  0  0  0  0  0  0  0  0  0
   -0.0043    0.4787   -2.5979 H   0  0  0  0  0  0  0  0  0  0  0  0
   -0.8820   -1.0592   -2.5881 H   0  0  0  0  0  0  0  0  0  0  0  0
  1  2  1  0
  1  3  1  0
  1  7  1  0
  4  5  2  3
  4  8  1  0
  5  6  1  0
  5  9  1  0
  6 10  1  0
  6 11  1  0
  6 12  1  0
M  RAD  1   4   2
M  END
>  <reaction>  (5) 
rxn_99

>  <mol_properties>  (5) 
{"0": {"label": "*1", "atom_type": "N3s"}, "1": {"label": "*0", "atom_type": "H0"}, "3": {"label": "*3", "atom_type": "Cd"}, "4": {"label": "*4", "atom_type": "Cd"}, "6": {"label": "*2", "atom_type": "H0"}}

>  <type>  (5) 
unop_1

>  <geom_source>  (5) 
Heuristics

$$$$

     RDKit          3D

 12 10  0  0  0  0  0  0  0  0999 V2000
   -0.0179    0.4103    2.5671 N   0  0  0  0  0  0  0  0  0  0  0  0
    0.4643   -0.4423    2.8185 H   0  0  0  0  0  0  0  0  0  0  0  0
    0.5294    1.2320    2.3483 H   0  0  0  0  0  0  0  0  0  0  0  0
   -0.0179    0.5682    0.0593 C   0  0  0  0  0  3  0  0  0  0  0  0
   -0.0179   -0.5142   -0.7027 C   0  0  0  0  0  0  0  0  0  0  0  0
   -0.0179   -0.5142   -2.1975 C   0  0  0  0  0  0  0  0  0  0  0  0
   -0.0179    0.4866    1.3561 H   0  0  0  0  0  0  0  0  0  0  0  0
   -0.0179    1.5639   -0.3716 H   0  0  0  0  0  0  0  0  0  0  0  0
   -0.0179   -1.4907   -0.2252 H   0  0  0  0  0  0  0  0  0  0  0  0
    0.8598   -1.0368   -2.5864 H   0  0  0  0  0  0  0  0  0  0  0  0
   -0.0179    0.5011   -2.5961 H   0  0  0  0  0  0  0  0  0  0  0  0
   -0.8956   -1.0368   -2.5864 H   0  0  0  0  0  0  0  0  0  0  0  0
  1  2  1  0
  1  3  1  0
  1  7  1  0
  4  5  2  3
  4  8  1  0
  5  6  1  0
  5  9  1  0
  6 10  1  0
  6 11  1  0
  6 12  1  0
M  RAD  1   4   2
M  END
>  <reaction>  (6) 
rxn_99

>  <mol_properties>  (6) 
{"0": {"label": "*1", "atom_type": "N3s"}, "1": {"label": "*0", "atom_type": "H0"}, "3": {"label": "*3", "atom_type": "Cd"}, "4": {"label": "*4", "atom_type": "Cd"}, "6": {"label": "*2", "atom_type": "H0"}}

>  <type>  (6) 
unop_2

>  <geom_source>  (6) 
Heuristics

$$$$

     RDKit          3D

 12 10  0  0  0  0  0  0  0  0999 V2000
    0.0072    0.3876    2.5608 N   0  0  0  0  0  0  0  0  0  0  0  0
    0.4894    1.2020    2.9171 H   0  0  0  0  0  0  0  0  0  0  0  0
   -0.8906    0.8512    2.6011 H   0  0  0  0  0  0  0  0  0  0  0  0
    0.0072    0.5455    0.0530 C   0  0  0  0  0  3  0  0  0  0  0  0
    0.0072   -0.5369   -0.7091 C   0  0  0  0  0  0  0  0  0  0  0  0
    0.0072   -0.5369   -2.2038 C   0  0  0  0  0  0  0  0  0  0  0  0
    0.0072    0.4639    1.3497 H   0  0  0  0  0  0  0  0  0  0  0  0
    0.0072    1.5412   -0.3780 H   0  0  0  0  0  0  0  0  0  0  0  0
    0.0072   -1.5134   -0.2315 H   0  0  0  0  0  0  0  0  0  0  0  0
    0.8849   -1.0595   -2.5927 H   0  0  0  0  0  0  0  0  0  0  0  0
    0.0072    0.4783   -2.6025 H   0  0  0  0  0  0  0  0  0  0  0  0
   -0.8705   -1.0595   -2.5927 H   0  0  0  0  0  0  0  0  0  0  0  0
  1  2  1  0
  1  3  1  0
  1  7  1  0
  4  5  2  3
  4  8  1  0
  5  6  1  0
  5  9  1  0
  6 10  1  0
  6 11  1  0
  6 12  1  0
M  RAD  1   4   2
M  END
>  <reaction>  (7) 
rxn_99

>  <mol_properties>  (7) 
{"0": {"label": "*1", "atom_type": "N3s"}, "1": {"label": "*0", "atom_type": "H0"}, "3": {"label": "*3", "atom_type": "Cd"}, "4": {"label": "*4", "atom_type": "Cd"}, "6": {"label": "*2", "atom_type": "H0"}}

>  <type>  (7) 
unop_3

>  <geom_source>  (7) 
Heuristics

$$$$

     RDKit          3D

 12 10  0  0  0  0  0  0  0  0999 V2000
    0.0001    0.4222    2.5537 N   0  0  0  0  0  0  0  0  0  0  0  0
   -0.8351   -0.0781    2.8272 H   0  0  0  0  0  0  0  0  0  0  0  0
    0.8320    0.2056    3.0862 H   0  0  0  0  0  0  0  0  0  0  0  0
    0.0001    0.5801    0.0459 C   0  0  0  0  0  3  0  0  0  0  0  0
    0.0001   -0.5023   -0.7162 C   0  0  0  0  0  0  0  0  0  0  0  0
    0.0001   -0.5023   -2.2109 C   0  0  0  0  0  0  0  0  0  0  0  0
    0.0001    0.4985    1.3426 H   0  0  0  0  0  0  0  0  0  0  0  0
    0.0001    1.5758   -0.3851 H   0  0  0  0  0  0  0  0  0  0  0  0
    0.0001   -1.4788   -0.2386 H   0  0  0  0  0  0  0  0  0  0  0  0
    0.8778   -1.0249   -2.5998 H   0  0  0  0  0  0  0  0  0  0  0  0
    0.0001    0.5130   -2.6096 H   0  0  0  0  0  0  0  0  0  0  0  0
   -0.8777   -1.0249   -2.5998 H   0  0  0  0  0  0  0  0  0  0  0  0
  1  2  1  0
  1  3  1  0
  1  7  1  0
  4  5  2  3
  4  8  1  0
  5  6  1  0
  5  9  1  0
  6 10  1  0
  6 11  1  0
  6 12  1  0
M  RAD  1   4   2
M  END
>  <reaction>  (8) 
rxn_99

>  <mol_properties>  (8) 
{"0": {"label": "*1", "atom_type": "N3s"}, "1": {"label": "*0", "atom_type": "H0"}, "3": {"label": "*3", "atom_type": "Cd"}, "4": {"label": "*4", "atom_type": "Cd"}, "6": {"label": "*2", "atom_type": "H0"}}

>  <type>  (8) 
unop_4

>  <geom_source>  (8) 
Heuristics

$$$$

     RDKit          3D

 12 10  0  0  0  0  0  0  0  0999 V2000
    0.0151    0.3962    2.5529 N   0  0  0  0  0  0  0  0  0  0  0  0
    0.0151    1.3395    2.9173 H   0  0  0  0  0  0  0  0  0  0  0  0
   -0.8552    0.2382    3.0429 H   0  0  0  0  0  0  0  0  0  0  0  0
    0.0151    0.5540    0.0451 C   0  0  0  0  0  3  0  0  0  0  0  0
    0.0151   -0.5283   -0.7170 C   0  0  0  0  0  0  0  0  0  0  0  0
    0.0151   -0.5283   -2.2117 C   0  0  0  0  0  0  0  0  0  0  0  0
    0.0151    0.4724    1.3418 H   0  0  0  0  0  0  0  0  0  0  0  0
    0.0151    1.5497   -0.3859 H   0  0  0  0  0  0  0  0  0  0  0  0
    0.0151   -1.5048   -0.2395 H   0  0  0  0  0  0  0  0  0  0  0  0
    0.8928   -1.0510   -2.6006 H   0  0  0  0  0  0  0  0  0  0  0  0
    0.0151    0.4869   -2.6104 H   0  0  0  0  0  0  0  0  0  0  0  0
   -0.8626   -1.0510   -2.6006 H   0  0  0  0  0  0  0  0  0  0  0  0
  1  2  1  0
  1  3  1  0
  1  7  1  0
  4  5  2  3
  4  8  1  0
  5  6  1  0
  5  9  1  0
  6 10  1  0
  6 11  1  0
  6 12  1  0
M  RAD  1   4   2
M  END
>  <reaction>  (9) 
rxn_99

>  <mol_properties>  (9) 
{"0": {"label": "*1", "atom_type": "N3s"}, "1": {"label": "*0", "atom_type": "H0"}, "3": {"label": "*3", "atom_type": "Cd"}, "4": {"label": "*4", "atom_type": "Cd"}, "6": {"label": "*2", "atom_type": "H0"}}

>  <type>  (9) 
unop_5

>  <geom_source>  (9) 
Heuristics

$$$$

     RDKit          3D

 12 10  0  0  0  0  0  0  0  0999 V2000
    0.0067    0.4179    2.5503 N   0  0  0  0  0  0  0  0  0  0  0  0
   -0.9576    0.3988    2.8541 H   0  0  0  0  0  0  0  0  0  0  0  0
    0.5852   -0.0287    3.2492 H   0  0  0  0  0  0  0  0  0  0  0  0
    0.0067    0.5758    0.0425 C   0  0  0  0  0  3  0  0  0  0  0  0
    0.0067   -0.5066   -0.7196 C   0  0  0  0  0  0  0  0  0  0  0  0
    0.0067   -0.5066   -2.2143 C   0  0  0  0  0  0  0  0  0  0  0  0
    0.0067    0.4941    1.3392 H   0  0  0  0  0  0  0  0  0  0  0  0
    0.0067    1.5714   -0.3885 H   0  0  0  0  0  0  0  0  0  0  0  0
    0.0067   -1.4831   -0.2420 H   0  0  0  0  0  0  0  0  0  0  0  0
    0.8844   -1.0292   -2.6032 H   0  0  0  0  0  0  0  0  0  0  0  0
    0.0067    0.5086   -2.6130 H   0  0  0  0  0  0  0  0  0  0  0  0
   -0.8710   -1.0292   -2.6032 H   0  0  0  0  0  0  0  0  0  0  0  0
  1  2  1  0
  1  3  1  0
  1  7  1  0
  4  5  2  3
  4  8  1  0
  5  6  1  0
  5  9  1  0
  6 10  1  0
  6 11  1  0
  6 12  1  0
M  RAD  1   4   2
M  END
>  <reaction>  (10) 
rxn_99

>  <mol_properties>  (10) 
{"0": {"label": "*1", "atom_type": "N3s"}, "1": {"label": "*0", "atom_type": "H0"}, "3": {"label": "*3", "atom_type": "Cd"}, "4": {"label": "*4", "atom_type": "Cd"}, "6": {"label": "*2", "atom_type": "H0"}}

>  <type>  (10) 
unop_6

>  <geom_source>  (10) 
Heuristics

$$$$

     RDKit          3D

 12 10  0  0  0  0  0  0  0  0999 V2000
    0.0106    0.4119    2.5481 N   0  0  0  0  0  0  0  0  0  0  0  0
   -0.8245    0.8740    2.8822 H   0  0  0  0  0  0  0  0  0  0  0  0
    0.2348   -0.1695    3.3445 H   0  0  0  0  0  0  0  0  0  0  0  0
    0.0106    0.5698    0.0403 C   0  0  0  0  0  3  0  0  0  0  0  0
    0.0106   -0.5126   -0.7218 C   0  0  0  0  0  0  0  0  0  0  0  0
    0.0106   -0.5126   -2.2165 C   0  0  0  0  0  0  0  0  0  0  0  0
    0.0106    0.4881    1.3370 H   0  0  0  0  0  0  0  0  0  0  0  0
    0.0106    1.5654   -0.3907 H   0  0  0  0  0  0  0  0  0  0  0  0
    0.0106   -1.4891   -0.2443 H   0  0  0  0  0  0  0  0  0  0  0  0
    0.8883   -1.0353   -2.6054 H   0  0  0  0  0  0  0  0  0  0  0  0
    0.0106    0.5026   -2.6152 H   0  0  0  0  0  0  0  0  0  0  0  0
   -0.8671   -1.0353   -2.6054 H   0  0  0  0  0  0  0  0  0  0  0  0
  1  2  1  0
  1  3  1  0
  1  7  1  0
  4  5  2  3
  4  8  1  0
  5  6  1  0
  5  9  1  0
  6 10  1  0
  6 11  1  0
  6 12  1  0
M  RAD  1   4   2
M  END
>  <reaction>  (11) 
rxn_99

>  <mol_properties>  (11) 
{"0": {"label": "*1", "atom_type": "N3s"}, "1": {"label": "*0", "atom_type": "H0"}, "3": {"label": "*3", "atom_type": "Cd"}, "4": {"label": "*4", "atom_type": "Cd"}, "6": {"label": "*2", "atom_type": "H0"}}

>  <type>  (11) 
unop_7

>  <geom_source>  (11) 
Heuristics

$$$$

     RDKit          3D

 12 10  0  0  0  0  0  0  0  0999 V2000
   -0.0126    0.3939    2.5677 N   0  0  0  0  0  0  0  0  0  0  0  0
    0.9517    0.3748    2.8715 H   0  0  0  0  0  0  0  0  0  0  0  0
   -0.2485    1.3299    2.2661 H   0  0  0  0  0  0  0  0  0  0  0  0
   -0.0126    0.5518    0.0599 C   0  0  0  0  0  3  0  0  0  0  0  0
   -0.0126   -0.5306   -0.7022 C   0  0  0  0  0  0  0  0  0  0  0  0
   -0.0126   -0.5306   -2.1969 C   0  0  0  0  0  0  0  0  0  0  0  0
   -0.0126    0.4701    1.3566 H   0  0  0  0  0  0  0  0  0  0  0  0
   -0.0126    1.5474   -0.3711 H   0  0  0  0  0  0  0  0  0  0  0  0
   -0.0126   -1.5071   -0.2247 H   0  0  0  0  0  0  0  0  0  0  0  0
    0.8651   -1.0532   -2.5858 H   0  0  0  0  0  0  0  0  0  0  0  0
   -0.0126    0.4846   -2.5956 H   0  0  0  0  0  0  0  0  0  0  0  0
   -0.8904   -1.0532   -2.5858 H   0  0  0  0  0  0  0  0  0  0  0  0
  1  2  1  0
  1  3  1  0
  1  7  1  0
  4  5  2  3
  4  8  1  0
  5  6  1  0
  5  9  1  0
  6 10  1  0
  6 11  1  0
  6 12  1  0
M  RAD  1   4   2
M  END
>  <reaction>  (12) 
rxn_99

>  <mol_properties>  (12) 
{"0": {"label": "*1", "atom_type": "N3s"}, "1": {"label": "*0", "atom_type": "H0"}, "3": {"label": "*3", "atom_type": "Cd"}, "4": {"label": "*4", "atom_type": "Cd"}, "6": {"label": "*2", "atom_type": "H0"}}

>  <type>  (12) 
unop_8

>  <geom_source>  (12) 
Heuristics

$$$$

     RDKit          3D

 12 10  0  0  0  0  0  0  0  0999 V2000
   -0.0083    0.4225    2.5583 N   0  0  0  0  0  0  0  0  0  0  0  0
   -0.4905   -0.4300    2.8096 H   0  0  0  0  0  0  0  0  0  0  0  0
    0.9532    0.5410    2.8483 H   0  0  0  0  0  0  0  0  0  0  0  0
   -0.0083    0.5804    0.0505 C   0  0  0  0  0  3  0  0  0  0  0  0
   -0.0083   -0.5020   -0.7116 C   0  0  0  0  0  0  0  0  0  0  0  0
   -0.0083   -0.5020   -2.2063 C   0  0  0  0  0  0  0  0  0  0  0  0
   -0.0083    0.4988    1.3472 H   0  0  0  0  0  0  0  0  0  0  0  0
   -0.0083    1.5761   -0.3805 H   0  0  0  0  0  0  0  0  0  0  0  0
   -0.0083   -1.4785   -0.2340 H   0  0  0  0  0  0  0  0  0  0  0  0
    0.8694   -1.0246   -2.5952 H   0  0  0  0  0  0  0  0  0  0  0  0
   -0.0083    0.5133   -2.6050 H   0  0  0  0  0  0  0  0  0  0  0  0
   -0.8860   -1.0246   -2.5952 H   0  0  0  0  0  0  0  0  0  0  0  0
  1  2  1  0
  1  3  1  0
  1  7  1  0
  4  5  2  3
  4  8  1  0
  5  6  1  0
  5  9  1  0
  6 10  1  0
  6 11  1  0
  6 12  1  0
M  RAD  1   4   2
M  END
>  <reaction>  (13) 
rxn_99

>  <mol_properties>  (13) 
{"0": {"label": "*1", "atom_type": "N3s"}, "1": {"label": "*0", "atom_type": "H0"}, "3": {"label": "*3", "atom_type": "Cd"}, "4": {"label": "*4", "atom_type": "Cd"}, "6": {"label": "*2", "atom_type": "H0"}}

>  <type>  (13) 
unop_9

>  <geom_source>  (13) 
Heuristics

$$$$

     RDKit          3D

 12 10  0  0  0  0  0  0  0  0999 V2000
   -0.0170    0.4020    2.5684 N   0  0  0  0  0  0  0  0  0  0  0  0
    0.8181   -0.0983    2.8419 H   0  0  0  0  0  0  0  0  0  0  0  0
    0.1272    1.3529    2.2560 H   0  0  0  0  0  0  0  0  0  0  0  0
   -0.0170    0.5599    0.0606 C   0  0  0  0  0  3  0  0  0  0  0  0
   -0.0170   -0.5225   -0.7015 C   0  0  0  0  0  0  0  0  0  0  0  0
   -0.0170   -0.5225   -2.1962 C   0  0  0  0  0  0  0  0  0  0  0  0
   -0.0170    0.4782    1.3573 H   0  0  0  0  0  0  0  0  0  0  0  0
   -0.0170    1.5555   -0.3704 H   0  0  0  0  0  0  0  0  0  0  0  0
   -0.0170   -1.4990   -0.2240 H   0  0  0  0  0  0  0  0  0  0  0  0
    0.8607   -1.0451   -2.5851 H   0  0  0  0  0  0  0  0  0  0  0  0
   -0.0170    0.4927   -2.5949 H   0  0  0  0  0  0  0  0  0  0  0  0
   -0.8947   -1.0451   -2.5851 H   0  0  0  0  0  0  0  0  0  0  0  0
  1  2  1  0
  1  3  1  0
  1  7  1  0
  4  5  2  3
  4  8  1  0
  5  6  1  0
  5  9  1  0
  6 10  1  0
  6 11  1  0
  6 12  1  0
M  RAD  1   4   2
M  END
>  <reaction>  (14) 
rxn_99

>  <mol_properties>  (14) 
{"0": {"label": "*1", "atom_type": "N3s"}, "1": {"label": "*0", "atom_type": "H0"}, "3": {"label": "*3", "atom_type": "Cd"}, "4": {"label": "*4", "atom_type": "Cd"}, "6": {"label": "*2", "atom_type": "H0"}}

>  <type>  (14) 
unop_10

>  <geom_source>  (14) 
Heuristics

$$$$

     RDKit          3D

 12 10  0  0  0  0  0  0  0  0999 V2000
    0.0134    0.4055    2.5479 N   0  0  0  0  0  0  0  0  0  0  0  0
   -0.4687    1.2198    2.9042 H   0  0  0  0  0  0  0  0  0  0  0  0
   -0.2777   -0.1608    3.3334 H   0  0  0  0  0  0  0  0  0  0  0  0
    0.0134    0.5634    0.0401 C   0  0  0  0  0  3  0  0  0  0  0  0
    0.0134   -0.5190   -0.7220 C   0  0  0  0  0  0  0  0  0  0  0  0
    0.0134   -0.5190   -2.2167 C   0  0  0  0  0  0  0  0  0  0  0  0
    0.0134    0.4817    1.3368 H   0  0  0  0  0  0  0  0  0  0  0  0
    0.0134    1.5590   -0.3909 H   0  0  0  0  0  0  0  0  0  0  0  0
    0.0134   -1.4955   -0.2445 H   0  0  0  0  0  0  0  0  0  0  0  0
    0.8911   -1.0416   -2.6056 H   0  0  0  0  0  0  0  0  0  0  0  0
    0.0134    0.4962   -2.6154 H   0  0  0  0  0  0  0  0  0  0  0  0
   -0.8643   -1.0416   -2.6056 H   0  0  0  0  0  0  0  0  0  0  0  0
  1  2  1  0
  1  3  1  0
  1  7  1  0
  4  5  2  3
  4  8  1  0
  5  6  1  0
  5  9  1  0
  6 10  1  0
  6 11  1  0
  6 12  1  0
M  RAD  1   4   2
M  END
>  <reaction>  (15) 
rxn_99

>  <mol_properties>  (15) 
{"0": {"label": "*1", "atom_type": "N3s"}, "1": {"label": "*0", "atom_type": "H0"}, "3": {"label": "*3", "atom_type": "Cd"}, "4": {"label": "*4", "atom_type": "Cd"}, "6": {"label": "*2", "atom_type": "H0"}}

>  <type>  (15) 
unop_11

>  <geom_source>  (15) 
Heuristics

$$$$

     RDKit          3D

 12 10  0  0  0  0  0  0  0  0999 V2000
   -0.0151    0.4179    2.5634 N   0  0  0  0  0  0  0  0  0  0  0  0
   -0.0151   -0.5636    2.8066 H   0  0  0  0  0  0  0  0  0  0  0  0
    0.8552    0.9328    2.5666 H   0  0  0  0  0  0  0  0  0  0  0  0
   -0.0151    0.5758    0.0556 C   0  0  0  0  0  3  0  0  0  0  0  0
   -0.0151   -0.5066   -0.7065 C   0  0  0  0  0  0  0  0  0  0  0  0
   -0.0151   -0.5066   -2.2012 C   0  0  0  0  0  0  0  0  0  0  0  0
   -0.0151    0.4941    1.3524 H   0  0  0  0  0  0  0  0  0  0  0  0
   -0.0151    1.5714   -0.3753 H   0  0  0  0  0  0  0  0  0  0  0  0
   -0.0151   -1.4831   -0.2289 H   0  0  0  0  0  0  0  0  0  0  0  0
    0.8626   -1.0292   -2.5901 H   0  0  0  0  0  0  0  0  0  0  0  0
   -0.0151    0.5086   -2.5999 H   0  0  0  0  0  0  0  0  0  0  0  0
   -0.8928   -1.0292   -2.5901 H   0  0  0  0  0  0  0  0  0  0  0  0
  1  2  1  0
  1  3  1  0
  1  7  1  0
  4  5  2  3
  4  8  1  0
  5  6  1  0
  5  9  1  0
  6 10  1  0
  6 11  1  0
  6 12  1  0
M  RAD  1   4   2
M  END
>  <reaction>  (16) 
rxn_99

>  <mol_properties>  (16) 
{"0": {"label": "*1", "atom_type": "N3s"}, "1": {"label": "*0", "atom_type": "H0"}, "3": {"label": "*3", "atom_type": "Cd"}, "4": {"label": "*4", "atom_type": "Cd"}, "6": {"label": "*2", "atom_type": "H0"}}

>  <type>  (16) 
unop_12

>  <geom_source>  (16) 
Heuristics

$$$$
