
     RDKit          3D

 13 12  0  0  0  0  0  0  0  0999 V2000
    3.0977   -0.3549   -0.5105 C   0  0  0  0  0  0  0  0  0  0  0  0
    2.0556    0.4221   -0.2627 C   0  0  0  0  0  0  0  0  0  0  0  0
    0.6313   -0.0354   -0.2366 C   0  0  0  0  0  0  0  0  0  0  0  0
   -0.2567    0.6038   -1.2694 C   0  0  0  0  0  0  0  0  0  0  0  0
    0.1459    1.3456   -2.2891 C   0  0  0  0  0  0  0  0  0  0  0  0
    4.1081    0.0344   -0.5074 H   0  0  0  0  0  0  0  0  0  0  0  0
    2.9777   -1.4116   -0.7243 H   0  0  0  0  0  0  0  0  0  0  0  0
    2.2171    1.4781   -0.0618 H   0  0  0  0  0  0  0  0  0  0  0  0
    0.5865   -1.1233   -0.3540 H   0  0  0  0  0  0  0  0  0  0  0  0
    0.2065    0.1743    0.7521 H   0  0  0  0  0  0  0  0  0  0  0  0
   -1.3190    0.4126   -1.1445 H   0  0  0  0  0  0  0  0  0  0  0  0
    1.1948    1.5564   -2.4628 H   0  0  0  0  0  0  0  0  0  0  0  0
   -0.5644    1.7621   -2.9918 H   0  0  0  0  0  0  0  0  0  0  0  0
  1  2  2  3
  1  6  1  0
  1  7  1  0
  2  3  1  0
  2  8  1  0
  3  4  1  0
  3  9  1  0
  3 10  1  0
  4  5  2  3
  4 11  1  0
  5 12  1  0
  5 13  1  0
M  END
>  <reaction>  (1) 
rxn_744

>  <mol_properties>  (1) 
{"2": {"label": "donator", "atom_type": "Cs"}, "8": {"label": "d_hydrogen", "atom_type": "H0"}}

>  <type>  (1) 
r1h

$$$$

     RDKit          3D

 21 22  0  0  0  0  0  0  0  0999 V2000
   -2.2298    0.3537    0.0543 C   0  0  0  0  0  0  0  0  0  0  0  0
   -1.1556    1.4284   -0.1994 C   0  0  0  0  0  0  0  0  0  0  0  0
    0.0609    0.6285   -0.5240 C   0  0  0  0  0  3  0  0  0  0  0  0
    1.4977    1.0080   -0.3953 C   0  0  0  0  0  0  0  0  0  0  0  0
    2.2141   -0.3503   -0.2737 C   0  0  0  0  0  0  0  0  0  0  0  0
    1.1785   -1.2652    0.3956 C   0  0  0  0  0  0  0  0  0  0  0  0
   -0.1494   -0.8311   -0.2398 C   0  0  0  0  0  0  0  0  0  0  0  0
   -1.4409   -0.8502    0.5889 C   0  0  0  0  0  0  0  0  0  0  0  0
   -2.7102    0.0864   -0.8907 H   0  0  0  0  0  0  0  0  0  0  0  0
   -3.0138    0.6865    0.7353 H   0  0  0  0  0  0  0  0  0  0  0  0
   -1.4459    2.1368   -0.9815 H   0  0  0  0  0  0  0  0  0  0  0  0
   -0.9857    2.0292    0.7068 H   0  0  0  0  0  0  0  0  0  0  0  0
    1.6525    1.6113    0.5121 H   0  0  0  0  0  0  0  0  0  0  0  0
    1.8766    1.6104   -1.2268 H   0  0  0  0  0  0  0  0  0  0  0  0
    3.1516   -0.2903    0.2803 H   0  0  0  0  0  0  0  0  0  0  0  0
    2.4485   -0.7309   -1.2715 H   0  0  0  0  0  0  0  0  0  0  0  0
    1.1473   -1.0612    1.4707 H   0  0  0  0  0  0  0  0  0  0  0  0
    1.4017   -2.3251    0.2670 H   0  0  0  0  0  0  0  0  0  0  0  0
   -0.3078   -1.3981   -1.1697 H   0  0  0  0  0  0  0  0  0  0  0  0
   -1.1949   -0.6901    1.6436 H   0  0  0  0  0  0  0  0  0  0  0  0
   -1.9953   -1.7869    0.5178 H   0  0  0  0  0  0  0  0  0  0  0  0
  1  8  1  0
  1  2  1  0
  1  9  1  0
  1 10  1  0
  2  3  1  0
  2 11  1  0
  2 12  1  0
  3  4  1  0
  3  7  1  0
  4  5  1  0
  4 13  1  0
  4 14  1  0
  5  6  1  0
  5 15  1  0
  5 16  1  0
  6  7  1  0
  6 17  1  0
  6 18  1  0
  7  8  1  0
  7 19  1  0
  8 20  1  0
  8 21  1  0
M  RAD  1   3   2
M  END
>  <reaction>  (2) 
rxn_744

>  <mol_properties>  (2) 
{"2": {"label": "acceptor", "atom_type": "Cs"}}

>  <type>  (2) 
r2

$$$$

     RDKit          3D

 22 23  0  0  0  0  0  0  0  0999 V2000
   -2.1093   -0.3263    0.3079 C   0  0  0  0  0  0  0  0  0  0  0  0
   -1.3270    0.9803    0.4115 C   0  0  0  0  0  0  0  0  0  0  0  0
   -0.1818    0.8289   -0.6044 C   0  0  0  0  0  0  0  0  0  0  0  0
    1.1682    1.3904   -0.1341 C   0  0  0  0  0  0  0  0  0  0  0  0
    1.8508    0.2041    0.5479 C   0  0  0  0  0  0  0  0  0  0  0  0
    1.4982   -0.9663   -0.3710 C   0  0  0  0  0  0  0  0  0  0  0  0
    0.0340   -0.7124   -0.7594 C   0  0  0  0  0  0  0  0  0  0  0  0
   -0.9986   -1.3650    0.1756 C   0  0  0  0  0  0  0  0  0  0  0  0
   -2.7686   -0.5042    1.1589 H   0  0  0  0  0  0  0  0  0  0  0  0
   -2.7285   -0.3223   -0.5943 H   0  0  0  0  0  0  0  0  0  0  0  0
   -1.9339    1.8682    0.2289 H   0  0  0  0  0  0  0  0  0  0  0  0
   -0.9144    1.0729    1.4218 H   0  0  0  0  0  0  0  0  0  0  0  0
   -0.4804    1.2763   -1.5535 H   0  0  0  0  0  0  0  0  0  0  0  0
    1.7667    1.7058   -0.9931 H   0  0  0  0  0  0  0  0  0  0  0  0
    1.0540    2.2578    0.5189 H   0  0  0  0  0  0  0  0  0  0  0  0
    1.4197    0.0438    1.5410 H   0  0  0  0  0  0  0  0  0  0  0  0
    2.9248    0.3413    0.6788 H   0  0  0  0  0  0  0  0  0  0  0  0
    2.1362   -0.9329   -1.2584 H   0  0  0  0  0  0  0  0  0  0  0  0
    1.6421   -1.9421    0.0966 H   0  0  0  0  0  0  0  0  0  0  0  0
   -0.1575   -1.0299   -1.7854 H   0  0  0  0  0  0  0  0  0  0  0  0
   -1.3459   -2.3310   -0.1933 H   0  0  0  0  0  0  0  0  0  0  0  0
   -0.5489   -1.5373    1.1593 H   0  0  0  0  0  0  0  0  0  0  0  0
  1  2  1  0
  1  8  1  0
  1  9  1  0
  1 10  1  0
  2  3  1  0
  2 11  1  0
  2 12  1  0
  3  4  1  0
  3  7  1  0
  3 13  1  0
  4  5  1  0
  4 14  1  0
  4 15  1  0
  5  6  1  0
  5 16  1  0
  5 17  1  0
  6  7  1  0
  6 18  1  0
  6 19  1  0
  7  8  1  0
  7 20  1  0
  8 21  1  0
  8 22  1  0
M  END
>  <reaction>  (3) 
rxn_744

>  <mol_properties>  (3) 
{"0": {"label": "a_hydrogen", "atom_type": "H0"}, "3": {"label": "acceptor", "atom_type": "Cs"}}

>  <type>  (3) 
r2h

$$$$

     RDKit          3D

 34 34  0  0  0  0  0  0  0  0999 V2000
   -1.0355   -3.0533   -0.6889 C   0  0  0  0  0  0  0  0  0  0  0  0
    0.0351   -2.5184   -0.1091 C   0  0  0  0  0  0  0  0  0  0  0  0
    0.0076   -1.6622    1.0856 C   0  0  0  0  0  0  0  0  0  0  0  0
    1.1192   -1.7326    2.0530 C   0  0  0  0  0  0  0  0  0  0  0  0
    2.2408   -2.4396    1.9446 C   0  0  0  0  0  0  0  0  0  0  0  0
   -0.9550   -3.6347   -1.5983 H   0  0  0  0  0  0  0  0  0  0  0  0
   -2.0276   -2.9313   -0.2675 H   0  0  0  0  0  0  0  0  0  0  0  0
    1.0055   -2.6680   -0.5747 H   0  0  0  0  0  0  0  0  0  0  0  0
    0.0655   -0.4771    0.6402 H   0  0  0  0  0  0  0  0  0  0  0  0
   -0.9695   -1.6467    1.5726 H   0  0  0  0  0  0  0  0  0  0  0  0
    0.9976   -1.0981    2.9273 H   0  0  0  0  0  0  0  0  0  0  0  0
    2.4278   -3.1080    1.1129 H   0  0  0  0  0  0  0  0  0  0  0  0
    3.0089   -2.3812    2.7047 H   0  0  0  0  0  0  0  0  0  0  0  0
    0.7006    0.5112   -2.2459 C   0  0  0  0  0  0  0  0  0  0  0  0
    1.3323    0.7408   -0.8682 C   0  0  0  0  0  0  0  0  0  0  0  0
    0.1493    0.8378    0.0702 C   0  0  0  0  0  3  0  0  0  0  0  0
    0.1358    1.8258    1.2137 C   0  0  0  0  0  0  0  0  0  0  0  0
   -0.7927    2.9382    0.7033 C   0  0  0  0  0  0  0  0  0  0  0  0
   -1.8787    2.1741   -0.0620 C   0  0  0  0  0  0  0  0  0  0  0  0
   -1.1244    1.0283   -0.7546 C   0  0  0  0  0  0  0  0  0  0  0  0
   -0.6012    1.3099   -2.1719 C   0  0  0  0  0  0  0  0  0  0  0  0
    0.4712   -0.5500   -2.3736 H   0  0  0  0  0  0  0  0  0  0  0  0
    1.3480    0.8147   -3.0694 H   0  0  0  0  0  0  0  0  0  0  0  0
    2.0380   -0.0436   -0.5798 H   0  0  0  0  0  0  0  0  0  0  0  0
    1.8918    1.6846   -0.8580 H   0  0  0  0  0  0  0  0  0  0  0  0
    1.1334    2.1794    1.4786 H   0  0  0  0  0  0  0  0  0  0  0  0
   -0.2981    1.3734    2.1131 H   0  0  0  0  0  0  0  0  0  0  0  0
   -1.1907    3.5678    1.5001 H   0  0  0  0  0  0  0  0  0  0  0  0
   -0.2400    3.5874    0.0179 H   0  0  0  0  0  0  0  0  0  0  0  0
   -2.4260    2.8015   -0.7676 H   0  0  0  0  0  0  0  0  0  0  0  0
   -2.6066    1.7690    0.6458 H   0  0  0  0  0  0  0  0  0  0  0  0
   -1.7252    0.1137   -0.7768 H   0  0  0  0  0  0  0  0  0  0  0  0
   -0.3838    2.3784   -2.2770 H   0  0  0  0  0  0  0  0  0  0  0  0
   -1.3189    1.0425   -2.9486 H   0  0  0  0  0  0  0  0  0  0  0  0
  1  2  2  3
  1  6  1  0
  1  7  1  0
  2  3  1  0
  2  8  1  0
  3  4  1  0
  3  9  1  0
  3 10  1  0
  4  5  2  3
  4 11  1  0
  5 12  1  0
  5 13  1  0
 14 21  1  0
 14 15  1  0
 14 22  1  0
 14 23  1  0
 15 16  1  0
 15 24  1  0
 15 25  1  0
 16 17  1  0
 16 20  1  0
 17 18  1  0
 17 26  1  0
 17 27  1  0
 18 19  1  0
 18 28  1  0
 18 29  1  0
 19 20  1  0
 19 30  1  0
 19 31  1  0
 20 21  1  0
 20 32  1  0
 21 33  1  0
 21 34  1  0
M  RAD  1  16   2
M  END
>  <reaction>  (4) 
rxn_744

>  <mol_properties>  (4) 
{"1": {"label": "*0", "atom_type": "Cd"}, "2": {"label": "*1", "atom_type": "Cs"}, "8": {"label": "*2", "atom_type": "H0"}, "15": {"label": "*3", "atom_type": "Cs"}, "19": {"label": "*4", "atom_type": "Cs"}}

>  <type>  (4) 
ts

$$$$

     RDKit          3D

 34 34  0  0  0  0  0  0  0  0999 V2000
   -0.3919   -2.8431   -1.4045 C   0  0  0  0  0  0  0  0  0  0  0  0
   -0.3919   -2.8431   -0.0812 C   0  0  0  0  0  0  0  0  0  0  0  0
   -0.3919   -1.6172    0.7768 C   0  0  0  0  0  3  0  0  0  0  0  0
    0.8178   -1.4629    1.6580 C   0  0  0  0  0  0  0  0  0  0  0  0
    1.9289   -2.1786    1.5855 C   0  0  0  0  0  0  0  0  0  0  0  0
   -0.4001   -3.7658   -1.9710 H   0  0  0  0  0  0  0  0  0  0  0  0
   -0.3856   -1.9176   -1.9705 H   0  0  0  0  0  0  0  0  0  0  0  0
   -0.3894   -3.7918    0.4493 H   0  0  0  0  0  0  0  0  0  0  0  0
   -0.5120   -0.5453    0.0262 H   0  0  0  0  0  0  0  0  0  0  0  0
   -1.2799   -1.6307    1.4196 H   0  0  0  0  0  0  0  0  0  0  0  0
    0.7451   -0.6779    2.4057 H   0  0  0  0  0  0  0  0  0  0  0  0
    2.0544   -2.9654    0.8507 H   0  0  0  0  0  0  0  0  0  0  0  0
    2.7571   -1.9943    2.2579 H   0  0  0  0  0  0  0  0  0  0  0  0
   -1.7476    1.5349    1.1791 C   0  0  0  0  0  0  0  0  0  0  0  0
   -1.9056    1.2851   -0.3184 C   0  0  0  0  0  0  0  0  0  0  0  0
   -0.6317    0.5227   -0.7215 C   0  0  0  0  0  0  0  0  0  0  0  0
   -0.0439    0.9333   -2.0797 C   0  0  0  0  0  0  0  0  0  0  0  0
    0.9434    2.0503   -1.7389 C   0  0  0  0  0  0  0  0  0  0  0  0
    1.6012    1.5435   -0.4549 C   0  0  0  0  0  0  0  0  0  0  0  0
    0.4443    0.9218    0.3411 C   0  0  0  0  0  0  0  0  0  0  0  0
   -0.2684    1.8923    1.2986 C   0  0  0  0  0  0  0  0  0  0  0  0
   -1.9579    0.6173    1.7367 H   0  0  0  0  0  0  0  0  0  0  0  0
   -2.4122    2.3116    1.5604 H   0  0  0  0  0  0  0  0  0  0  0  0
   -2.8167    0.7440   -0.5770 H   0  0  0  0  0  0  0  0  0  0  0  0
   -1.9412    2.2468   -0.8414 H   0  0  0  0  0  0  0  0  0  0  0  0
   -0.8132    1.2381   -2.7917 H   0  0  0  0  0  0  0  0  0  0  0  0
    0.4993    0.0957   -2.5257 H   0  0  0  0  0  0  0  0  0  0  0  0
    1.6571    2.2538   -2.5380 H   0  0  0  0  0  0  0  0  0  0  0  0
    0.4025    2.9809   -1.5408 H   0  0  0  0  0  0  0  0  0  0  0  0
    2.1187    2.3256    0.1040 H   0  0  0  0  0  0  0  0  0  0  0  0
    2.3413    0.7789   -0.7064 H   0  0  0  0  0  0  0  0  0  0  0  0
    0.7813    0.0472    0.8996 H   0  0  0  0  0  0  0  0  0  0  0  0
   -0.1190    2.9226    0.9583 H   0  0  0  0  0  0  0  0  0  0  0  0
    0.1146    1.8313    2.3182 H   0  0  0  0  0  0  0  0  0  0  0  0
  1  2  2  3
  1  6  1  0
  1  7  1  0
  2  3  1  0
  2  8  1  0
  3  4  1  0
  3 10  1  0
  4  5  2  3
  4 11  1  0
  5 12  1  0
  5 13  1  0
  9 16  1  0
 14 15  1  0
 14 21  1  0
 14 22  1  0
 14 23  1  0
 15 16  1  0
 15 24  1  0
 15 25  1  0
 16 17  1  0
 16 20  1  0
 17 18  1  0
 17 26  1  0
 17 27  1  0
 18 19  1  0
 18 28  1  0
 18 29  1  0
 19 20  1  0
 19 30  1  0
 19 31  1  0
 20 21  1  0
 20 32  1  0
 21 33  1  0
 21 34  1  0
M  RAD  1   3   2
M  END
>  <reaction>  (5) 
rxn_744

>  <mol_properties>  (5) 
{"1": {"label": "*0", "atom_type": "Cd"}, "2": {"label": "*1", "atom_type": "Cs"}, "8": {"label": "*2", "atom_type": "H0"}, "15": {"label": "*3", "atom_type": "Cs"}, "19": {"label": "*4", "atom_type": "Cs"}}

>  <type>  (5) 
unop_1

>  <geom_source>  (5) 
Heuristics

$$$$

     RDKit          3D

 34 34  0  0  0  0  0  0  0  0999 V2000
    0.2824   -2.8137   -1.1540 C   0  0  0  0  0  0  0  0  0  0  0  0
    0.2824   -2.8137    0.1692 C   0  0  0  0  0  0  0  0  0  0  0  0
    0.2824   -1.5879    1.0272 C   0  0  0  0  0  3  0  0  0  0  0  0
    1.4921   -1.4336    1.9084 C   0  0  0  0  0  0  0  0  0  0  0  0
    2.6032   -2.1492    1.8360 C   0  0  0  0  0  0  0  0  0  0  0  0
    0.2742   -3.7365   -1.7206 H   0  0  0  0  0  0  0  0  0  0  0  0
    0.2887   -1.8883   -1.7200 H   0  0  0  0  0  0  0  0  0  0  0  0
    0.2849   -3.7625    0.6998 H   0  0  0  0  0  0  0  0  0  0  0  0
    0.1623   -0.5159    0.2767 H   0  0  0  0  0  0  0  0  0  0  0  0
   -0.6056   -1.6014    1.6700 H   0  0  0  0  0  0  0  0  0  0  0  0
    1.4194   -0.6485    2.6562 H   0  0  0  0  0  0  0  0  0  0  0  0
    2.7287   -2.9361    1.1011 H   0  0  0  0  0  0  0  0  0  0  0  0
    3.4314   -1.9650    2.5083 H   0  0  0  0  0  0  0  0  0  0  0  0
   -2.2142    0.1231   -1.2488 C   0  0  0  0  0  0  0  0  0  0  0  0
   -0.7680    0.2021   -1.7308 C   0  0  0  0  0  0  0  0  0  0  0  0
    0.0427    0.5520   -0.4711 C   0  0  0  0  0  0  0  0  0  0  0  0
    1.1820    1.5556   -0.7026 C   0  0  0  0  0  0  0  0  0  0  0  0
    0.5370    2.9195   -0.4530 C   0  0  0  0  0  0  0  0  0  0  0  0
   -0.3591    2.6562    0.7579 C   0  0  0  0  0  0  0  0  0  0  0  0
   -0.9652    1.2718    0.4841 C   0  0  0  0  0  0  0  0  0  0  0  0
   -2.3016    1.2973   -0.2774 C   0  0  0  0  0  0  0  0  0  0  0  0
   -2.3811   -0.8178   -0.7158 H   0  0  0  0  0  0  0  0  0  0  0  0
   -2.9434    0.1767   -2.0586 H   0  0  0  0  0  0  0  0  0  0  0  0
   -0.4181   -0.7115   -2.2134 H   0  0  0  0  0  0  0  0  0  0  0  0
   -0.6774    1.0103   -2.4643 H   0  0  0  0  0  0  0  0  0  0  0  0
    1.6247    1.4616   -1.6960 H   0  0  0  0  0  0  0  0  0  0  0  0
    1.9809    1.3958    0.0266 H   0  0  0  0  0  0  0  0  0  0  0  0
    1.2630    3.7162   -0.2873 H   0  0  0  0  0  0  0  0  0  0  0  0
   -0.0728    3.2089   -1.3145 H   0  0  0  0  0  0  0  0  0  0  0  0
   -1.1216    3.4230    0.9067 H   0  0  0  0  0  0  0  0  0  0  0  0
    0.2555    2.6280    1.6619 H   0  0  0  0  0  0  0  0  0  0  0  0
   -1.0895    0.7106    1.4114 H   0  0  0  0  0  0  0  0  0  0  0  0
   -2.3842    2.2293   -0.8467 H   0  0  0  0  0  0  0  0  0  0  0  0
   -3.1640    1.2495    0.3889 H   0  0  0  0  0  0  0  0  0  0  0  0
  1  2  2  3
  1  6  1  0
  1  7  1  0
  2  3  1  0
  2  8  1  0
  3  4  1  0
  3 10  1  0
  4  5  2  3
  4 11  1  0
  5 12  1  0
  5 13  1  0
  9 16  1  0
 14 15  1  0
 14 21  1  0
 14 22  1  0
 14 23  1  0
 15 16  1  0
 15 24  1  0
 15 25  1  0
 16 17  1  0
 16 20  1  0
 17 18  1  0
 17 26  1  0
 17 27  1  0
 18 19  1  0
 18 28  1  0
 18 29  1  0
 19 20  1  0
 19 30  1  0
 19 31  1  0
 20 21  1  0
 20 32  1  0
 21 33  1  0
 21 34  1  0
M  RAD  1   3   2
M  END
>  <reaction>  (6) 
rxn_744

>  <mol_properties>  (6) 
{"1": {"label": "*0", "atom_type": "Cd"}, "2": {"label": "*1", "atom_type": "Cs"}, "8": {"label": "*2", "atom_type": "H0"}, "15": {"label": "*3", "atom_type": "Cs"}, "19": {"label": "*4", "atom_type": "Cs"}}

>  <type>  (6) 
unop_2

>  <geom_source>  (6) 
Heuristics

$$$$

     RDKit          3D

 34 34  0  0  0  0  0  0  0  0999 V2000
   -0.5619   -2.7843   -1.1137 C   0  0  0  0  0  0  0  0  0  0  0  0
   -0.5619   -2.7843    0.2096 C   0  0  0  0  0  0  0  0  0  0  0  0
   -0.5619   -1.5585    1.0676 C   0  0  0  0  0  3  0  0  0  0  0  0
    0.6478   -1.4041    1.9488 C   0  0  0  0  0  0  0  0  0  0  0  0
    1.7590   -2.1198    1.8763 C   0  0  0  0  0  0  0  0  0  0  0  0
   -0.5701   -3.7070   -1.6802 H   0  0  0  0  0  0  0  0  0  0  0  0
   -0.5555   -1.8588   -1.6797 H   0  0  0  0  0  0  0  0  0  0  0  0
   -0.5593   -3.7330    0.7401 H   0  0  0  0  0  0  0  0  0  0  0  0
   -0.6820   -0.4865    0.3170 H   0  0  0  0  0  0  0  0  0  0  0  0
   -1.4499   -1.5720    1.7103 H   0  0  0  0  0  0  0  0  0  0  0  0
    0.5751   -0.6191    2.6965 H   0  0  0  0  0  0  0  0  0  0  0  0
    1.8844   -2.9067    1.1415 H   0  0  0  0  0  0  0  0  0  0  0  0
    2.5872   -1.9355    2.5487 H   0  0  0  0  0  0  0  0  0  0  0  0
   -0.5614    2.0483    1.4857 C   0  0  0  0  0  0  0  0  0  0  0  0
   -1.5289    1.6794    0.3642 C   0  0  0  0  0  0  0  0  0  0  0  0
   -0.8016    0.5815   -0.4307 C   0  0  0  0  0  0  0  0  0  0  0  0
   -0.9720    0.6761   -1.9541 C   0  0  0  0  0  0  0  0  0  0  0  0
    0.2041    1.5406   -2.4102 C   0  0  0  0  0  0  0  0  0  0  0  0
    1.3567    1.0326   -1.5431 C   0  0  0  0  0  0  0  0  0  0  0  0
    0.7214    0.8146   -0.1619 C   0  0  0  0  0  0  0  0  0  0  0  0
    0.7885    2.0342    0.7733 C   0  0  0  0  0  0  0  0  0  0  0  0
   -0.5818    1.2815    2.2660 H   0  0  0  0  0  0  0  0  0  0  0  0
   -0.7911    3.0047    1.9579 H   0  0  0  0  0  0  0  0  0  0  0  0
   -2.5087    1.3588    0.7208 H   0  0  0  0  0  0  0  0  0  0  0  0
   -1.6880    2.5542   -0.2753 H   0  0  0  0  0  0  0  0  0  0  0  0
   -1.9441    1.0822   -2.2403 H   0  0  0  0  0  0  0  0  0  0  0  0
   -0.8873   -0.3157   -2.4066 H   0  0  0  0  0  0  0  0  0  0  0  0
    0.4041    1.4673   -3.4797 H   0  0  0  0  0  0  0  0  0  0  0  0
    0.0037    2.5933   -2.1879 H   0  0  0  0  0  0  0  0  0  0  0  0
    2.2060    1.7175   -1.5077 H   0  0  0  0  0  0  0  0  0  0  0  0
    1.7201    0.0834   -1.9464 H   0  0  0  0  0  0  0  0  0  0  0  0
    1.1636   -0.0481    0.3386 H   0  0  0  0  0  0  0  0  0  0  0  0
    0.8913    2.9490    0.1800 H   0  0  0  0  0  0  0  0  0  0  0  0
    1.6406    1.9939    1.4532 H   0  0  0  0  0  0  0  0  0  0  0  0
  1  2  2  3
  1  6  1  0
  1  7  1  0
  2  3  1  0
  2  8  1  0
  3  4  1  0
  3 10  1  0
  4  5  2  3
  4 11  1  0
  5 12  1  0
  5 13  1  0
  9 16  1  0
 14 15  1  0
 14 21  1  0
 14 22  1  0
 14 23  1  0
 15 16  1  0
 15 24  1  0
 15 25  1  0
 16 17  1  0
 16 20  1  0
 17 18  1  0
 17 26  1  0
 17 27  1  0
 18 19  1  0
 18 28  1  0
 18 29  1  0
 19 20  1  0
 19 30  1  0
 19 31  1  0
 20 21  1  0
 20 32  1  0
 21 33  1  0
 21 34  1  0
M  RAD  1   3   2
M  END
>  <reaction>  (7) 
rxn_744

>  <mol_properties>  (7) 
{"1": {"label": "*0", "atom_type": "Cd"}, "2": {"label": "*1", "atom_type": "Cs"}, "8": {"label": "*2", "atom_type": "H0"}, "15": {"label": "*3", "atom_type": "Cs"}, "19": {"label": "*4", "atom_type": "Cs"}}

>  <type>  (7) 
unop_3

>  <geom_source>  (7) 
Heuristics

$$$$

     RDKit          3D

 34 34  0  0  0  0  0  0  0  0999 V2000
    0.0129   -2.8763   -0.8663 C   0  0  0  0  0  0  0  0  0  0  0  0
    0.0129   -2.8763    0.4570 C   0  0  0  0  0  0  0  0  0  0  0  0
    0.0129   -1.6505    1.3150 C   0  0  0  0  0  3  0  0  0  0  0  0
    1.2226   -1.4961    2.1962 C   0  0  0  0  0  0  0  0  0  0  0  0
    2.3338   -2.2118    2.1237 C   0  0  0  0  0  0  0  0  0  0  0  0
    0.0047   -3.7990   -1.4328 H   0  0  0  0  0  0  0  0  0  0  0  0
    0.0193   -1.9509   -1.4323 H   0  0  0  0  0  0  0  0  0  0  0  0
    0.0155   -3.8251    0.9875 H   0  0  0  0  0  0  0  0  0  0  0  0
   -0.1072   -0.5785    0.5644 H   0  0  0  0  0  0  0  0  0  0  0  0
   -0.8751   -1.6640    1.9578 H   0  0  0  0  0  0  0  0  0  0  0  0
    1.1499   -0.7111    2.9439 H   0  0  0  0  0  0  0  0  0  0  0  0
    2.4592   -2.9987    1.3889 H   0  0  0  0  0  0  0  0  0  0  0  0
    3.1620   -2.0275    2.7961 H   0  0  0  0  0  0  0  0  0  0  0  0
    0.3039    0.6812   -2.5420 C   0  0  0  0  0  0  0  0  0  0  0  0
    0.9543    0.5560   -1.1668 C   0  0  0  0  0  0  0  0  0  0  0  0
   -0.2268    0.4894   -0.1833 C   0  0  0  0  0  0  0  0  0  0  0  0
   -0.0146    1.2672    1.1240 C   0  0  0  0  0  0  0  0  0  0  0  0
   -0.5691    2.6607    0.8256 C   0  0  0  0  0  0  0  0  0  0  0  0
   -1.8282    2.3593    0.0118 C   0  0  0  0  0  0  0  0  0  0  0  0
   -1.4129    1.2037   -0.9106 C   0  0  0  0  0  0  0  0  0  0  0  0
   -0.8507    1.6429   -2.2735 C   0  0  0  0  0  0  0  0  0  0  0  0
   -0.0840   -0.2902   -2.8633 H   0  0  0  0  0  0  0  0  0  0  0  0
    0.9896    1.0337   -3.3141 H   0  0  0  0  0  0  0  0  0  0  0  0
    1.6231   -0.3010   -1.0765 H   0  0  0  0  0  0  0  0  0  0  0  0
    1.5499    1.4534   -0.9680 H   0  0  0  0  0  0  0  0  0  0  0  0
    1.0307    1.2757    1.4388 H   0  0  0  0  0  0  0  0  0  0  0  0
   -0.5946    0.8138    1.9324 H   0  0  0  0  0  0  0  0  0  0  0  0
   -0.7659    3.2479    1.7233 H   0  0  0  0  0  0  0  0  0  0  0  0
    0.1440    3.2254    0.2171 H   0  0  0  0  0  0  0  0  0  0  0  0
   -2.2016    3.2220   -0.5431 H   0  0  0  0  0  0  0  0  0  0  0  0
   -2.6253    2.0366    0.6872 H   0  0  0  0  0  0  0  0  0  0  0  0
   -2.2432    0.5138   -1.0687 H   0  0  0  0  0  0  0  0  0  0  0  0
   -0.4589    2.6630   -2.1997 H   0  0  0  0  0  0  0  0  0  0  0  0
   -1.6086    1.6450   -3.0580 H   0  0  0  0  0  0  0  0  0  0  0  0
  1  2  2  3
  1  6  1  0
  1  7  1  0
  2  3  1  0
  2  8  1  0
  3  4  1  0
  3 10  1  0
  4  5  2  3
  4 11  1  0
  5 12  1  0
  5 13  1  0
  9 16  1  0
 14 15  1  0
 14 21  1  0
 14 22  1  0
 14 23  1  0
 15 16  1  0
 15 24  1  0
 15 25  1  0
 16 17  1  0
 16 20  1  0
 17 18  1  0
 17 26  1  0
 17 27  1  0
 18 19  1  0
 18 28  1  0
 18 29  1  0
 19 20  1  0
 19 30  1  0
 19 31  1  0
 20 21  1  0
 20 32  1  0
 21 33  1  0
 21 34  1  0
M  RAD  1   3   2
M  END
>  <reaction>  (8) 
rxn_744

>  <mol_properties>  (8) 
{"1": {"label": "*0", "atom_type": "Cd"}, "2": {"label": "*1", "atom_type": "Cs"}, "8": {"label": "*2", "atom_type": "H0"}, "15": {"label": "*3", "atom_type": "Cs"}, "19": {"label": "*4", "atom_type": "Cs"}}

>  <type>  (8) 
unop_4

>  <geom_source>  (8) 
Heuristics

$$$$

     RDKit          3D

 34 34  0  0  0  0  0  0  0  0999 V2000
   -0.3757   -2.7420   -0.7431 C   0  0  0  0  0  0  0  0  0  0  0  0
   -0.3757   -2.7420    0.5802 C   0  0  0  0  0  0  0  0  0  0  0  0
   -0.3757   -1.5162    1.4382 C   0  0  0  0  0  3  0  0  0  0  0  0
    0.8340   -1.3618    2.3194 C   0  0  0  0  0  0  0  0  0  0  0  0
    1.9452   -2.0775    2.2469 C   0  0  0  0  0  0  0  0  0  0  0  0
   -0.3839   -3.6647   -1.3096 H   0  0  0  0  0  0  0  0  0  0  0  0
   -0.3694   -1.8165   -1.3091 H   0  0  0  0  0  0  0  0  0  0  0  0
   -0.3732   -3.6907    1.1107 H   0  0  0  0  0  0  0  0  0  0  0  0
   -0.4958   -0.4442    0.6876 H   0  0  0  0  0  0  0  0  0  0  0  0
   -1.2637   -1.5296    2.0809 H   0  0  0  0  0  0  0  0  0  0  0  0
    0.7613   -0.5768    3.0671 H   0  0  0  0  0  0  0  0  0  0  0  0
    2.0706   -2.8644    1.5121 H   0  0  0  0  0  0  0  0  0  0  0  0
    2.7734   -1.8932    2.9193 H   0  0  0  0  0  0  0  0  0  0  0  0
    0.8418    2.3336    0.8537 C   0  0  0  0  0  0  0  0  0  0  0  0
   -0.6138    1.8742    0.8360 C   0  0  0  0  0  0  0  0  0  0  0  0
   -0.6154    0.6238   -0.0601 C   0  0  0  0  0  0  0  0  0  0  0  0
   -1.8304    0.5072   -0.9924 C   0  0  0  0  0  0  0  0  0  0  0  0
   -1.3874    1.2112   -2.2756 C   0  0  0  0  0  0  0  0  0  0  0  0
    0.0640    0.7552   -2.4308 C   0  0  0  0  0  0  0  0  0  0  0  0
    0.6235    0.7860   -1.0008 C   0  0  0  0  0  0  0  0  0  0  0  0
    1.2714    2.1210   -0.5955 C   0  0  0  0  0  0  0  0  0  0  0  0
    1.4296    1.6920    1.5172 H   0  0  0  0  0  0  0  0  0  0  0  0
    0.9664    3.3624    1.1951 H   0  0  0  0  0  0  0  0  0  0  0  0
   -1.0220    1.6786    1.8284 H   0  0  0  0  0  0  0  0  0  0  0  0
   -1.2316    2.6555    0.3805 H   0  0  0  0  0  0  0  0  0  0  0  0
   -2.7343    0.9346   -0.5544 H   0  0  0  0  0  0  0  0  0  0  0  0
   -2.0398   -0.5434   -1.2114 H   0  0  0  0  0  0  0  0  0  0  0  0
   -2.0102    0.9691   -3.1375 H   0  0  0  0  0  0  0  0  0  0  0  0
   -1.4267    2.2965   -2.1403 H   0  0  0  0  0  0  0  0  0  0  0  0
    0.6416    1.3766   -3.1178 H   0  0  0  0  0  0  0  0  0  0  0  0
    0.0813   -0.2657   -2.8220 H   0  0  0  0  0  0  0  0  0  0  0  0
    1.3380   -0.0235   -0.8446 H   0  0  0  0  0  0  0  0  0  0  0  0
    0.8666    2.9302   -1.2127 H   0  0  0  0  0  0  0  0  0  0  0  0
    2.3534    2.1205   -0.7345 H   0  0  0  0  0  0  0  0  0  0  0  0
  1  2  2  3
  1  6  1  0
  1  7  1  0
  2  3  1  0
  2  8  1  0
  3  4  1  0
  3 10  1  0
  4  5  2  3
  4 11  1  0
  5 12  1  0
  5 13  1  0
  9 16  1  0
 14 15  1  0
 14 21  1  0
 14 22  1  0
 14 23  1  0
 15 16  1  0
 15 24  1  0
 15 25  1  0
 16 17  1  0
 16 20  1  0
 17 18  1  0
 17 26  1  0
 17 27  1  0
 18 19  1  0
 18 28  1  0
 18 29  1  0
 19 20  1  0
 19 30  1  0
 19 31  1  0
 20 21  1  0
 20 32  1  0
 21 33  1  0
 21 34  1  0
M  RAD  1   3   2
M  END
>  <reaction>  (9) 
rxn_744

>  <mol_properties>  (9) 
{"1": {"label": "*0", "atom_type": "Cd"}, "2": {"label": "*1", "atom_type": "Cs"}, "8": {"label": "*2", "atom_type": "H0"}, "15": {"label": "*3", "atom_type": "Cs"}, "19": {"label": "*4", "atom_type": "Cs"}}

>  <type>  (9) 
unop_5

>  <geom_source>  (9) 
Heuristics

$$$$

     RDKit          3D

 34 34  0  0  0  0  0  0  0  0999 V2000
    0.0371   -2.8838   -0.8948 C   0  0  0  0  0  0  0  0  0  0  0  0
    0.0371   -2.8838    0.4284 C   0  0  0  0  0  0  0  0  0  0  0  0
    0.0371   -1.6580    1.2864 C   0  0  0  0  0  3  0  0  0  0  0  0
    1.2468   -1.5036    2.1676 C   0  0  0  0  0  0  0  0  0  0  0  0
    2.3579   -2.2193    2.0952 C   0  0  0  0  0  0  0  0  0  0  0  0
    0.0289   -3.8065   -1.4614 H   0  0  0  0  0  0  0  0  0  0  0  0
    0.0434   -1.9583   -1.4608 H   0  0  0  0  0  0  0  0  0  0  0  0
    0.0396   -3.8325    0.9590 H   0  0  0  0  0  0  0  0  0  0  0  0
   -0.0830   -0.5860    0.5359 H   0  0  0  0  0  0  0  0  0  0  0  0
   -0.8509   -1.6714    1.9292 H   0  0  0  0  0  0  0  0  0  0  0  0
    1.1741   -0.7186    2.9154 H   0  0  0  0  0  0  0  0  0  0  0  0
    2.4834   -3.0061    1.3603 H   0  0  0  0  0  0  0  0  0  0  0  0
    3.1861   -2.0350    2.7675 H   0  0  0  0  0  0  0  0  0  0  0  0
    1.0907    1.2433   -2.1171 C   0  0  0  0  0  0  0  0  0  0  0  0
    1.1961    0.9774   -0.6177 C   0  0  0  0  0  0  0  0  0  0  0  0
   -0.2026    0.4820   -0.2119 C   0  0  0  0  0  0  0  0  0  0  0  0
   -0.6992    1.0089    1.1426 C   0  0  0  0  0  0  0  0  0  0  0  0
   -1.4484    2.2952    0.7929 C   0  0  0  0  0  0  0  0  0  0  0  0
   -2.1923    1.9185   -0.4890 C   0  0  0  0  0  0  0  0  0  0  0  0
   -1.1791    1.0769   -1.2789 C   0  0  0  0  0  0  0  0  0  0  0  0
   -0.2898    1.8826   -2.2414 C   0  0  0  0  0  0  0  0  0  0  0  0
    1.1175    0.2985   -2.6684 H   0  0  0  0  0  0  0  0  0  0  0  0
    1.8947    1.8722   -2.5022 H   0  0  0  0  0  0  0  0  0  0  0  0
    1.9835    0.2701   -0.3540 H   0  0  0  0  0  0  0  0  0  0  0  0
    1.4191    1.9170   -0.1009 H   0  0  0  0  0  0  0  0  0  0  0  0
    0.1146    1.1619    1.8540 H   0  0  0  0  0  0  0  0  0  0  0  0
   -1.3961    0.2968    1.5931 H   0  0  0  0  0  0  0  0  0  0  0  0
   -2.1088    2.6400    1.5894 H   0  0  0  0  0  0  0  0  0  0  0  0
   -0.7357    3.1005    0.5897 H   0  0  0  0  0  0  0  0  0  0  0  0
   -2.5463    2.7830   -1.0538 H   0  0  0  0  0  0  0  0  0  0  0  0
   -3.0678    1.3153   -0.2338 H   0  0  0  0  0  0  0  0  0  0  0  0
   -1.6807    0.2815   -1.8322 H   0  0  0  0  0  0  0  0  0  0  0  0
   -0.2346    2.9245   -1.9081 H   0  0  0  0  0  0  0  0  0  0  0  0
   -0.6769    1.8909   -3.2613 H   0  0  0  0  0  0  0  0  0  0  0  0
  1  2  2  3
  1  6  1  0
  1  7  1  0
  2  3  1  0
  2  8  1  0
  3  4  1  0
  3 10  1  0
  4  5  2  3
  4 11  1  0
  5 12  1  0
  5 13  1  0
  9 16  1  0
 14 15  1  0
 14 21  1  0
 14 22  1  0
 14 23  1  0
 15 16  1  0
 15 24  1  0
 15 25  1  0
 16 17  1  0
 16 20  1  0
 17 18  1  0
 17 26  1  0
 17 27  1  0
 18 19  1  0
 18 28  1  0
 18 29  1  0
 19 20  1  0
 19 30  1  0
 19 31  1  0
 20 21  1  0
 20 32  1  0
 21 33  1  0
 21 34  1  0
M  RAD  1   3   2
M  END
>  <reaction>  (10) 
rxn_744

>  <mol_properties>  (10) 
{"1": {"label": "*0", "atom_type": "Cd"}, "2": {"label": "*1", "atom_type": "Cs"}, "8": {"label": "*2", "atom_type": "H0"}, "15": {"label": "*3", "atom_type": "Cs"}, "19": {"label": "*4", "atom_type": "Cs"}}

>  <type>  (10) 
unop_6

>  <geom_source>  (10) 
Heuristics

$$$$

     RDKit          3D

 34 34  0  0  0  0  0  0  0  0999 V2000
    0.0778   -2.8420   -0.8417 C   0  0  0  0  0  0  0  0  0  0  0  0
    0.0778   -2.8420    0.4816 C   0  0  0  0  0  0  0  0  0  0  0  0
    0.0778   -1.6162    1.3396 C   0  0  0  0  0  3  0  0  0  0  0  0
    1.2875   -1.4619    2.2208 C   0  0  0  0  0  0  0  0  0  0  0  0
    2.3986   -2.1776    2.1483 C   0  0  0  0  0  0  0  0  0  0  0  0
    0.0696   -3.7648   -1.4082 H   0  0  0  0  0  0  0  0  0  0  0  0
    0.0841   -1.9166   -1.4077 H   0  0  0  0  0  0  0  0  0  0  0  0
    0.0803   -3.7908    1.0121 H   0  0  0  0  0  0  0  0  0  0  0  0
   -0.0423   -0.5442    0.5890 H   0  0  0  0  0  0  0  0  0  0  0  0
   -0.8102   -1.6297    1.9823 H   0  0  0  0  0  0  0  0  0  0  0  0
    1.2148   -0.6768    2.9685 H   0  0  0  0  0  0  0  0  0  0  0  0
    2.5241   -2.9644    1.4135 H   0  0  0  0  0  0  0  0  0  0  0  0
    3.2268   -1.9933    2.8207 H   0  0  0  0  0  0  0  0  0  0  0  0
    1.4985    1.8131   -1.3681 C   0  0  0  0  0  0  0  0  0  0  0  0
    1.0672    1.4263    0.0441 C   0  0  0  0  0  0  0  0  0  0  0  0
   -0.1619    0.5237   -0.1587 C   0  0  0  0  0  0  0  0  0  0  0  0
   -1.2914    0.7439    0.8585 C   0  0  0  0  0  0  0  0  0  0  0  0
   -2.1810    1.8039    0.2077 C   0  0  0  0  0  0  0  0  0  0  0  0
   -2.2006    1.3774   -1.2607 C   0  0  0  0  0  0  0  0  0  0  0  0
   -0.7566    0.9380   -1.5447 C   0  0  0  0  0  0  0  0  0  0  0  0
    0.1624    2.0567   -2.0649 C   0  0  0  0  0  0  0  0  0  0  0  0
    2.0220    0.9775   -1.8426 H   0  0  0  0  0  0  0  0  0  0  0  0
    2.1643    2.6770   -1.3955 H   0  0  0  0  0  0  0  0  0  0  0  0
    1.8533    0.9392    0.6226 H   0  0  0  0  0  0  0  0  0  0  0  0
    0.7757    2.3294    0.5908 H   0  0  0  0  0  0  0  0  0  0  0  0
   -0.9162    1.0376    1.8407 H   0  0  0  0  0  0  0  0  0  0  0  0
   -1.8658   -0.1769    0.9912 H   0  0  0  0  0  0  0  0  0  0  0  0
   -3.1749    1.8651    0.6525 H   0  0  0  0  0  0  0  0  0  0  0  0
   -1.7195    2.7914    0.3050 H   0  0  0  0  0  0  0  0  0  0  0  0
   -2.5365    2.1665   -1.9360 H   0  0  0  0  0  0  0  0  0  0  0  0
   -2.8839    0.5324   -1.3816 H   0  0  0  0  0  0  0  0  0  0  0  0
   -0.7346    0.0998   -2.2427 H   0  0  0  0  0  0  0  0  0  0  0  0
   -0.2313    3.0311   -1.7564 H   0  0  0  0  0  0  0  0  0  0  0  0
    0.2332    2.0680   -3.1534 H   0  0  0  0  0  0  0  0  0  0  0  0
  1  2  2  3
  1  6  1  0
  1  7  1  0
  2  3  1  0
  2  8  1  0
  3  4  1  0
  3 10  1  0
  4  5  2  3
  4 11  1  0
  5 12  1  0
  5 13  1  0
  9 16  1  0
 14 15  1  0
 14 21  1  0
 14 22  1  0
 14 23  1  0
 15 16  1  0
 15 24  1  0
 15 25  1  0
 16 17  1  0
 16 20  1  0
 17 18  1  0
 17 26  1  0
 17 27  1  0
 18 19  1  0
 18 28  1  0
 18 29  1  0
 19 20  1  0
 19 30  1  0
 19 31  1  0
 20 21  1  0
 20 32  1  0
 21 33  1  0
 21 34  1  0
M  RAD  1   3   2
M  END
>  <reaction>  (11) 
rxn_744

>  <mol_properties>  (11) 
{"1": {"label": "*0", "atom_type": "Cd"}, "2": {"label": "*1", "atom_type": "Cs"}, "8": {"label": "*2", "atom_type": "H0"}, "15": {"label": "*3", "atom_type": "Cs"}, "19": {"label": "*4", "atom_type": "Cs"}}

>  <type>  (11) 
unop_7

>  <geom_source>  (11) 
Heuristics

$$$$

     RDKit          3D

 34 34  0  0  0  0  0  0  0  0999 V2000
   -0.1019   -2.8663   -1.4842 C   0  0  0  0  0  0  0  0  0  0  0  0
   -0.1019   -2.8663   -0.1609 C   0  0  0  0  0  0  0  0  0  0  0  0
   -0.1019   -1.6404    0.6971 C   0  0  0  0  0  3  0  0  0  0  0  0
    1.1078   -1.4861    1.5783 C   0  0  0  0  0  0  0  0  0  0  0  0
    2.2190   -2.2018    1.5058 C   0  0  0  0  0  0  0  0  0  0  0  0
   -0.1101   -3.7890   -2.0507 H   0  0  0  0  0  0  0  0  0  0  0  0
   -0.0956   -1.9408   -2.0502 H   0  0  0  0  0  0  0  0  0  0  0  0
   -0.0994   -3.8150    0.3696 H   0  0  0  0  0  0  0  0  0  0  0  0
   -0.2220   -0.5685   -0.0535 H   0  0  0  0  0  0  0  0  0  0  0  0
   -0.9899   -1.6539    1.3398 H   0  0  0  0  0  0  0  0  0  0  0  0
    1.0351   -0.7011    2.3260 H   0  0  0  0  0  0  0  0  0  0  0  0
    2.3444   -2.9886    0.7710 H   0  0  0  0  0  0  0  0  0  0  0  0
    3.0472   -2.0175    2.1782 H   0  0  0  0  0  0  0  0  0  0  0  0
   -2.3704    0.9531    0.4479 C   0  0  0  0  0  0  0  0  0  0  0  0
   -1.8332    0.8330   -0.9758 C   0  0  0  0  0  0  0  0  0  0  0  0
   -0.3416    0.4995   -0.8012 C   0  0  0  0  0  0  0  0  0  0  0  0
    0.5912    1.2007   -1.7997 C   0  0  0  0  0  0  0  0  0  0  0  0
    0.9805    2.5028   -1.0985 C   0  0  0  0  0  0  0  0  0  0  0  0
    1.1859    2.0609    0.3510 C   0  0  0  0  0  0  0  0  0  0  0  0
    0.0473    1.0621    0.6053 C   0  0  0  0  0  0  0  0  0  0  0  0
   -1.2413    1.6891    1.1645 C   0  0  0  0  0  0  0  0  0  0  0  0
   -2.5051   -0.0418    0.8831 H   0  0  0  0  0  0  0  0  0  0  0  0
   -3.3292    1.4706    0.5061 H   0  0  0  0  0  0  0  0  0  0  0  0
   -2.3597    0.0932   -1.5802 H   0  0  0  0  0  0  0  0  0  0  0  0
   -1.9387    1.7984   -1.4822 H   0  0  0  0  0  0  0  0  0  0  0  0
    0.1195    1.3570   -2.7717 H   0  0  0  0  0  0  0  0  0  0  0  0
    1.4886    0.5986   -1.9661 H   0  0  0  0  0  0  0  0  0  0  0  0
    1.8596    2.9804   -1.5327 H   0  0  0  0  0  0  0  0  0  0  0  0
    0.1570    3.2212   -1.1582 H   0  0  0  0  0  0  0  0  0  0  0  0
    1.1794    2.8900    1.0611 H   0  0  0  0  0  0  0  0  0  0  0  0
    2.1545    1.5617    0.4419 H   0  0  0  0  0  0  0  0  0  0  0  0
    0.3742    0.2591    1.2676 H   0  0  0  0  0  0  0  0  0  0  0  0
   -1.2800    2.7512    0.8998 H   0  0  0  0  0  0  0  0  0  0  0  0
   -1.3000    1.6259    2.2519 H   0  0  0  0  0  0  0  0  0  0  0  0
  1  2  2  3
  1  6  1  0
  1  7  1  0
  2  3  1  0
  2  8  1  0
  3  4  1  0
  3 10  1  0
  4  5  2  3
  4 11  1  0
  5 12  1  0
  5 13  1  0
  9 16  1  0
 14 15  1  0
 14 21  1  0
 14 22  1  0
 14 23  1  0
 15 16  1  0
 15 24  1  0
 15 25  1  0
 16 17  1  0
 16 20  1  0
 17 18  1  0
 17 26  1  0
 17 27  1  0
 18 19  1  0
 18 28  1  0
 18 29  1  0
 19 20  1  0
 19 30  1  0
 19 31  1  0
 20 21  1  0
 20 32  1  0
 21 33  1  0
 21 34  1  0
M  RAD  1   3   2
M  END
>  <reaction>  (12) 
rxn_744

>  <mol_properties>  (12) 
{"1": {"label": "*0", "atom_type": "Cd"}, "2": {"label": "*1", "atom_type": "Cs"}, "8": {"label": "*2", "atom_type": "H0"}, "15": {"label": "*3", "atom_type": "Cs"}, "19": {"label": "*4", "atom_type": "Cs"}}

>  <type>  (12) 
unop_8

>  <geom_source>  (12) 
Heuristics

$$$$

     RDKit          3D

 34 34  0  0  0  0  0  0  0  0999 V2000
    0.0881   -2.8372   -0.8405 C   0  0  0  0  0  0  0  0  0  0  0  0
    0.0881   -2.8372    0.4827 C   0  0  0  0  0  0  0  0  0  0  0  0
    0.0881   -1.6113    1.3407 C   0  0  0  0  0  3  0  0  0  0  0  0
    1.2978   -1.4570    2.2220 C   0  0  0  0  0  0  0  0  0  0  0  0
    2.4090   -2.1727    2.1495 C   0  0  0  0  0  0  0  0  0  0  0  0
    0.0799   -3.7599   -1.4070 H   0  0  0  0  0  0  0  0  0  0  0  0
    0.0944   -1.9117   -1.4065 H   0  0  0  0  0  0  0  0  0  0  0  0
    0.0907   -3.7859    1.0133 H   0  0  0  0  0  0  0  0  0  0  0  0
   -0.0320   -0.5394    0.5902 H   0  0  0  0  0  0  0  0  0  0  0  0
   -0.7999   -1.6248    1.9835 H   0  0  0  0  0  0  0  0  0  0  0  0
    1.2251   -0.6720    2.9697 H   0  0  0  0  0  0  0  0  0  0  0  0
    2.5344   -2.9595    1.4146 H   0  0  0  0  0  0  0  0  0  0  0  0
    3.2372   -1.9884    2.8219 H   0  0  0  0  0  0  0  0  0  0  0  0
   -0.6933    0.2561   -2.5058 C   0  0  0  0  0  0  0  0  0  0  0  0
    0.4829    0.2596   -1.5329 C   0  0  0  0  0  0  0  0  0  0  0  0
   -0.1516    0.5286   -0.1575 C   0  0  0  0  0  0  0  0  0  0  0  0
    0.6597    1.4670    0.7480 C   0  0  0  0  0  0  0  0  0  0  0  0
    0.1211    2.8607    0.4224 C   0  0  0  0  0  0  0  0  0  0  0  0
   -1.3834    2.6220    0.2889 C   0  0  0  0  0  0  0  0  0  0  0  0
   -1.4878    1.2840   -0.4578 C   0  0  0  0  0  0  0  0  0  0  0  0
   -1.5504    1.4090   -1.9898 C   0  0  0  0  0  0  0  0  0  0  0  0
   -1.2440   -0.6860   -2.4252 H   0  0  0  0  0  0  0  0  0  0  0  0
   -0.3926    0.3737   -3.5480 H   0  0  0  0  0  0  0  0  0  0  0  0
    1.0675   -0.6612   -1.5514 H   0  0  0  0  0  0  0  0  0  0  0  0
    1.1618    1.0788   -1.7928 H   0  0  0  0  0  0  0  0  0  0  0  0
    1.7356    1.3712    0.5903 H   0  0  0  0  0  0  0  0  0  0  0  0
    0.4632    1.2412    1.7997 H   0  0  0  0  0  0  0  0  0  0  0  0
    0.3742    3.6078    1.1755 H   0  0  0  0  0  0  0  0  0  0  0  0
    0.5315    3.2077   -0.5310 H   0  0  0  0  0  0  0  0  0  0  0  0
   -1.9055    3.4295   -0.2279 H   0  0  0  0  0  0  0  0  0  0  0  0
   -1.8244    2.5344    1.2857 H   0  0  0  0  0  0  0  0  0  0  0  0
   -2.3460    0.7084   -0.1079 H   0  0  0  0  0  0  0  0  0  0  0  0
   -1.1012    2.3581   -2.3012 H   0  0  0  0  0  0  0  0  0  0  0  0
   -2.5729    1.3968   -2.3694 H   0  0  0  0  0  0  0  0  0  0  0  0
  1  2  2  3
  1  6  1  0
  1  7  1  0
  2  3  1  0
  2  8  1  0
  3  4  1  0
  3 10  1  0
  4  5  2  3
  4 11  1  0
  5 12  1  0
  5 13  1  0
  9 16  1  0
 14 15  1  0
 14 21  1  0
 14 22  1  0
 14 23  1  0
 15 16  1  0
 15 24  1  0
 15 25  1  0
 16 17  1  0
 16 20  1  0
 17 18  1  0
 17 26  1  0
 17 27  1  0
 18 19  1  0
 18 28  1  0
 18 29  1  0
 19 20  1  0
 19 30  1  0
 19 31  1  0
 20 21  1  0
 20 32  1  0
 21 33  1  0
 21 34  1  0
M  RAD  1   3   2
M  END
>  <reaction>  (13) 
rxn_744

>  <mol_properties>  (13) 
{"1": {"label": "*0", "atom_type": "Cd"}, "2": {"label": "*1", "atom_type": "Cs"}, "8": {"label": "*2", "atom_type": "H0"}, "15": {"label": "*3", "atom_type": "Cs"}, "19": {"label": "*4", "atom_type": "Cs"}}

>  <type>  (13) 
unop_9

>  <geom_source>  (13) 
Heuristics

$$$$

     RDKit          3D

 34 34  0  0  0  0  0  0  0  0999 V2000
    0.1578   -2.8471   -1.3798 C   0  0  0  0  0  0  0  0  0  0  0  0
    0.1578   -2.8471   -0.0566 C   0  0  0  0  0  0  0  0  0  0  0  0
    0.1578   -1.6212    0.8014 C   0  0  0  0  0  3  0  0  0  0  0  0
    1.3675   -1.4669    1.6826 C   0  0  0  0  0  0  0  0  0  0  0  0
    2.4786   -2.1826    1.6102 C   0  0  0  0  0  0  0  0  0  0  0  0
    0.1496   -3.7698   -1.9463 H   0  0  0  0  0  0  0  0  0  0  0  0
    0.1641   -1.9216   -1.9458 H   0  0  0  0  0  0  0  0  0  0  0  0
    0.1603   -3.7958    0.4740 H   0  0  0  0  0  0  0  0  0  0  0  0
    0.0377   -0.5493    0.0509 H   0  0  0  0  0  0  0  0  0  0  0  0
   -0.7302   -1.6347    1.4442 H   0  0  0  0  0  0  0  0  0  0  0  0
    1.2948   -0.6819    2.4304 H   0  0  0  0  0  0  0  0  0  0  0  0
    2.6041   -2.9694    0.8753 H   0  0  0  0  0  0  0  0  0  0  0  0
    3.3068   -1.9983    2.2825 H   0  0  0  0  0  0  0  0  0  0  0  0
   -2.4886    0.4443   -0.4060 C   0  0  0  0  0  0  0  0  0  0  0  0
   -1.4039    0.4451   -1.4800 C   0  0  0  0  0  0  0  0  0  0  0  0
   -0.0819    0.5187   -0.6968 C   0  0  0  0  0  0  0  0  0  0  0  0
    0.9861    1.4232   -1.3293 C   0  0  0  0  0  0  0  0  0  0  0  0
    0.7389    2.7937   -0.6976 C   0  0  0  0  0  0  0  0  0  0  0  0
    0.4298    2.4467    0.7592 C   0  0  0  0  0  0  0  0  0  0  0  0
   -0.4458    1.1880    0.6690 C   0  0  0  0  0  0  0  0  0  0  0  0
   -1.9576    1.4637    0.5984 C   0  0  0  0  0  0  0  0  0  0  0  0
   -2.5536   -0.5433    0.0606 H   0  0  0  0  0  0  0  0  0  0  0  0
   -3.4788    0.6923   -0.7913 H   0  0  0  0  0  0  0  0  0  0  0  0
   -1.4485   -0.4176   -2.1462 H   0  0  0  0  0  0  0  0  0  0  0  0
   -1.5148    1.3398   -2.1019 H   0  0  0  0  0  0  0  0  0  0  0  0
    0.9315    1.4330   -2.4196 H   0  0  0  0  0  0  0  0  0  0  0  0
    1.9862    1.0755   -1.0564 H   0  0  0  0  0  0  0  0  0  0  0  0
    1.5807    3.4781   -0.8088 H   0  0  0  0  0  0  0  0  0  0  0  0
   -0.1305    3.2691   -1.1622 H   0  0  0  0  0  0  0  0  0  0  0  0
   -0.0599    3.2570    1.3025 H   0  0  0  0  0  0  0  0  0  0  0  0
    1.3633    2.2214    1.2821 H   0  0  0  0  0  0  0  0  0  0  0  0
   -0.2413    0.5109    1.4997 H   0  0  0  0  0  0  0  0  0  0  0  0
   -2.1309    2.4734    0.2113 H   0  0  0  0  0  0  0  0  0  0  0  0
   -2.4397    1.4061    1.5752 H   0  0  0  0  0  0  0  0  0  0  0  0
  1  2  2  3
  1  6  1  0
  1  7  1  0
  2  3  1  0
  2  8  1  0
  3  4  1  0
  3 10  1  0
  4  5  2  3
  4 11  1  0
  5 12  1  0
  5 13  1  0
  9 16  1  0
 14 15  1  0
 14 21  1  0
 14 22  1  0
 14 23  1  0
 15 16  1  0
 15 24  1  0
 15 25  1  0
 16 17  1  0
 16 20  1  0
 17 18  1  0
 17 26  1  0
 17 27  1  0
 18 19  1  0
 18 28  1  0
 18 29  1  0
 19 20  1  0
 19 30  1  0
 19 31  1  0
 20 21  1  0
 20 32  1  0
 21 33  1  0
 21 34  1  0
M  RAD  1   3   2
M  END
>  <reaction>  (14) 
rxn_744

>  <mol_properties>  (14) 
{"1": {"label": "*0", "atom_type": "Cd"}, "2": {"label": "*1", "atom_type": "Cs"}, "8": {"label": "*2", "atom_type": "H0"}, "15": {"label": "*3", "atom_type": "Cs"}, "19": {"label": "*4", "atom_type": "Cs"}}

>  <type>  (14) 
unop_10

>  <geom_source>  (14) 
Heuristics

$$$$

     RDKit          3D

 34 34  0  0  0  0  0  0  0  0999 V2000
   -0.0215   -2.7728   -0.7122 C   0  0  0  0  0  0  0  0  0  0  0  0
   -0.0215   -2.7728    0.6110 C   0  0  0  0  0  0  0  0  0  0  0  0
   -0.0215   -1.5470    1.4690 C   0  0  0  0  0  3  0  0  0  0  0  0
    1.1882   -1.3926    2.3503 C   0  0  0  0  0  0  0  0  0  0  0  0
    2.2994   -2.1083    2.2778 C   0  0  0  0  0  0  0  0  0  0  0  0
   -0.0297   -3.6955   -1.2787 H   0  0  0  0  0  0  0  0  0  0  0  0
   -0.0152   -1.8473   -1.2782 H   0  0  0  0  0  0  0  0  0  0  0  0
   -0.0189   -3.7215    1.1416 H   0  0  0  0  0  0  0  0  0  0  0  0
   -0.1416   -0.4750    0.7185 H   0  0  0  0  0  0  0  0  0  0  0  0
   -0.9095   -1.5604    2.1118 H   0  0  0  0  0  0  0  0  0  0  0  0
    1.1155   -0.6076    3.0980 H   0  0  0  0  0  0  0  0  0  0  0  0
    2.4248   -2.8951    1.5429 H   0  0  0  0  0  0  0  0  0  0  0  0
    3.1276   -1.9240    2.9502 H   0  0  0  0  0  0  0  0  0  0  0  0
    1.4907    2.2346   -0.3729 C   0  0  0  0  0  0  0  0  0  0  0  0
    0.4566    1.7719    0.6501 C   0  0  0  0  0  0  0  0  0  0  0  0
   -0.2612    0.5930   -0.0292 C   0  0  0  0  0  0  0  0  0  0  0  0
   -1.7770    0.5425    0.2128 C   0  0  0  0  0  0  0  0  0  0  0  0
   -2.3691    1.3435   -0.9475 C   0  0  0  0  0  0  0  0  0  0  0  0
   -1.5115    0.9066   -2.1358 C   0  0  0  0  0  0  0  0  0  0  0  0
   -0.0876    0.8311   -1.5652 C   0  0  0  0  0  0  0  0  0  0  0  0
    0.7208    2.1342   -1.6872 C   0  0  0  0  0  0  0  0  0  0  0  0
    2.3418    1.5469   -0.3833 H   0  0  0  0  0  0  0  0  0  0  0  0
    1.8780    3.2350   -0.1740 H   0  0  0  0  0  0  0  0  0  0  0  0
    0.8878    1.4999    1.6144 H   0  0  0  0  0  0  0  0  0  0  0  0
   -0.2567    2.5829    0.8321 H   0  0  0  0  0  0  0  0  0  0  0  0
   -2.0556    0.9317    1.1939 H   0  0  0  0  0  0  0  0  0  0  0  0
   -2.1347   -0.4894    0.1581 H   0  0  0  0  0  0  0  0  0  0  0  0
   -3.4347    1.1649   -1.0956 H   0  0  0  0  0  0  0  0  0  0  0  0
   -2.2408    2.4153   -0.7668 H   0  0  0  0  0  0  0  0  0  0  0  0
   -1.5824    1.5806   -2.9916 H   0  0  0  0  0  0  0  0  0  0  0  0
   -1.8374   -0.0817   -2.4715 H   0  0  0  0  0  0  0  0  0  0  0  0
    0.4730    0.0151   -2.0235 H   0  0  0  0  0  0  0  0  0  0  0  0
    0.0374    2.9862   -1.7692 H   0  0  0  0  0  0  0  0  0  0  0  0
    1.3610    2.1487   -2.5703 H   0  0  0  0  0  0  0  0  0  0  0  0
  1  2  2  3
  1  6  1  0
  1  7  1  0
  2  3  1  0
  2  8  1  0
  3  4  1  0
  3 10  1  0
  4  5  2  3
  4 11  1  0
  5 12  1  0
  5 13  1  0
  9 16  1  0
 14 15  1  0
 14 21  1  0
 14 22  1  0
 14 23  1  0
 15 16  1  0
 15 24  1  0
 15 25  1  0
 16 17  1  0
 16 20  1  0
 17 18  1  0
 17 26  1  0
 17 27  1  0
 18 19  1  0
 18 28  1  0
 18 29  1  0
 19 20  1  0
 19 30  1  0
 19 31  1  0
 20 21  1  0
 20 32  1  0
 21 33  1  0
 21 34  1  0
M  RAD  1   3   2
M  END
>  <reaction>  (15) 
rxn_744

>  <mol_properties>  (15) 
{"1": {"label": "*0", "atom_type": "Cd"}, "2": {"label": "*1", "atom_type": "Cs"}, "8": {"label": "*2", "atom_type": "H0"}, "15": {"label": "*3", "atom_type": "Cs"}, "19": {"label": "*4", "atom_type": "Cs"}}

>  <type>  (15) 
unop_11

>  <geom_source>  (15) 
Heuristics

$$$$

     RDKit          3D

 34 34  0  0  0  0  0  0  0  0999 V2000
    0.2281   -2.8063   -0.9315 C   0  0  0  0  0  0  0  0  0  0  0  0
    0.2281   -2.8063    0.3917 C   0  0  0  0  0  0  0  0  0  0  0  0
    0.2281   -1.5805    1.2497 C   0  0  0  0  0  3  0  0  0  0  0  0
    1.4378   -1.4261    2.1310 C   0  0  0  0  0  0  0  0  0  0  0  0
    2.5490   -2.1418    2.0585 C   0  0  0  0  0  0  0  0  0  0  0  0
    0.2199   -3.7290   -1.4980 H   0  0  0  0  0  0  0  0  0  0  0  0
    0.2344   -1.8808   -1.4975 H   0  0  0  0  0  0  0  0  0  0  0  0
    0.2307   -3.7550    0.9223 H   0  0  0  0  0  0  0  0  0  0  0  0
    0.1080   -0.5085    0.4992 H   0  0  0  0  0  0  0  0  0  0  0  0
   -0.6599   -1.5939    1.8925 H   0  0  0  0  0  0  0  0  0  0  0  0
    1.3651   -0.6411    2.8787 H   0  0  0  0  0  0  0  0  0  0  0  0
    2.6744   -2.9286    1.3236 H   0  0  0  0  0  0  0  0  0  0  0  0
    3.3772   -1.9575    2.7309 H   0  0  0  0  0  0  0  0  0  0  0  0
   -1.6040    0.0565   -2.0073 C   0  0  0  0  0  0  0  0  0  0  0  0
   -0.1061    0.1380   -1.7250 C   0  0  0  0  0  0  0  0  0  0  0  0
   -0.0116    0.5595   -0.2485 C   0  0  0  0  0  0  0  0  0  0  0  0
    1.1031    1.5708    0.0573 C   0  0  0  0  0  0  0  0  0  0  0  0
    0.4286    2.9334   -0.1064 C   0  0  0  0  0  0  0  0  0  0  0  0
   -0.9467    2.7108    0.5239 C   0  0  0  0  0  0  0  0  0  0  0  0
   -1.3522    1.3050    0.0566 C   0  0  0  0  0  0  0  0  0  0  0  0
   -2.1461    1.2725   -1.2607 C   0  0  0  0  0  0  0  0  0  0  0  0
   -2.0171   -0.8617   -1.5787 H   0  0  0  0  0  0  0  0  0  0  0  0
   -1.8442    0.0601   -3.0716 H   0  0  0  0  0  0  0  0  0  0  0  0
    0.4280   -0.7906   -1.9303 H   0  0  0  0  0  0  0  0  0  0  0  0
    0.3374    0.9131   -2.3592 H   0  0  0  0  0  0  0  0  0  0  0  0
    1.9740    1.4388   -0.5875 H   0  0  0  0  0  0  0  0  0  0  0  0
    1.4428    1.4585    1.0906 H   0  0  0  0  0  0  0  0  0  0  0  0
    0.9871    3.7493    0.3538 H   0  0  0  0  0  0  0  0  0  0  0  0
    0.3196    3.1723   -1.1689 H   0  0  0  0  0  0  0  0  0  0  0  0
   -1.6791    3.4704    0.2440 H   0  0  0  0  0  0  0  0  0  0  0  0
   -0.8524    2.7349    1.6130 H   0  0  0  0  0  0  0  0  0  0  0  0
   -1.9178    0.7851    0.8312 H   0  0  0  0  0  0  0  0  0  0  0  0
   -1.9330    2.1757   -1.8424 H   0  0  0  0  0  0  0  0  0  0  0  0
   -3.2244    1.2406   -1.0989 H   0  0  0  0  0  0  0  0  0  0  0  0
  1  2  2  3
  1  6  1  0
  1  7  1  0
  2  3  1  0
  2  8  1  0
  3  4  1  0
  3 10  1  0
  4  5  2  3
  4 11  1  0
  5 12  1  0
  5 13  1  0
  9 16  1  0
 14 15  1  0
 14 21  1  0
 14 22  1  0
 14 23  1  0
 15 16  1  0
 15 24  1  0
 15 25  1  0
 16 17  1  0
 16 20  1  0
 17 18  1  0
 17 26  1  0
 17 27  1  0
 18 19  1  0
 18 28  1  0
 18 29  1  0
 19 20  1  0
 19 30  1  0
 19 31  1  0
 20 21  1  0
 20 32  1  0
 21 33  1  0
 21 34  1  0
M  RAD  1   3   2
M  END
>  <reaction>  (16) 
rxn_744

>  <mol_properties>  (16) 
{"1": {"label": "*0", "atom_type": "Cd"}, "2": {"label": "*1", "atom_type": "Cs"}, "8": {"label": "*2", "atom_type": "H0"}, "15": {"label": "*3", "atom_type": "Cs"}, "19": {"label": "*4", "atom_type": "Cs"}}

>  <type>  (16) 
unop_12

>  <geom_source>  (16) 
Heuristics

$$$$

     RDKit          3D

 34 34  0  0  0  0  0  0  0  0999 V2000
   -0.6233   -0.0624    0.0837 C   0  0  0  0  0  0  0  0  0  0  0  0
   -1.0352    1.3382   -0.3718 C   0  0  0  0  0  0  0  0  0  0  0  0
   -1.2516   -1.0481   -0.9070 C   0  0  0  0  0  0  0  0  0  0  0  0
   -1.9030    1.1528   -1.6220 C   0  0  0  0  0  0  0  0  0  0  0  0
   -1.1354   -0.2301    1.5164 C   0  0  0  0  0  0  0  0  0  0  0  0
   -1.7854    1.9804    0.7992 C   0  0  0  0  0  0  0  0  0  0  0  0
   -1.5670   -0.2307   -2.1449 C   0  0  0  0  0  0  0  0  0  0  0  0
   -2.2069    0.8310    1.6987 C   0  0  0  0  0  0  0  0  0  0  0  0
    1.8819   -0.8576    0.3371 C   0  0  0  0  0  3  0  0  0  0  0  0
    2.3415   -2.2134   -0.1110 C   0  0  0  0  0  0  0  0  0  0  0  0
    2.8531    0.2191   -0.0493 C   0  0  0  0  0  0  0  0  0  0  0  0
    3.3322   -2.8581    0.5115 C   0  0  0  0  0  0  0  0  0  0  0  0
    2.5162    1.5047    0.0620 C   0  0  0  0  0  0  0  0  0  0  0  0
    0.6556   -0.1792    0.0526 H   0  0  0  0  0  0  0  0  0  0  0  0
   -0.1321    1.9360   -0.6283 H   0  0  0  0  0  0  0  0  0  0  0  0
   -0.5508   -1.8772   -1.1434 H   0  0  0  0  0  0  0  0  0  0  0  0
   -2.2001   -1.4753   -0.5110 H   0  0  0  0  0  0  0  0  0  0  0  0
   -0.6675   -0.1764   -2.7977 H   0  0  0  0  0  0  0  0  0  0  0  0
   -2.4136   -0.6674   -2.7178 H   0  0  0  0  0  0  0  0  0  0  0  0
   -1.6846    1.9319   -2.3841 H   0  0  0  0  0  0  0  0  0  0  0  0
   -2.9873    1.1846   -1.3726 H   0  0  0  0  0  0  0  0  0  0  0  0
   -0.3005   -0.0282    2.2227 H   0  0  0  0  0  0  0  0  0  0  0  0
   -1.5299   -1.2488    1.7231 H   0  0  0  0  0  0  0  0  0  0  0  0
   -2.6593    2.5875    0.4769 H   0  0  0  0  0  0  0  0  0  0  0  0
   -1.0888    2.6420    1.3602 H   0  0  0  0  0  0  0  0  0  0  0  0
   -2.2860    1.1520    2.7599 H   0  0  0  0  0  0  0  0  0  0  0  0
   -3.1882    0.4321    1.3588 H   0  0  0  0  0  0  0  0  0  0  0  0
    1.6809   -0.8428    1.4303 H   0  0  0  0  0  0  0  0  0  0  0  0
    1.8500   -2.6783   -0.9595 H   0  0  0  0  0  0  0  0  0  0  0  0
    3.8433   -0.0387   -0.4162 H   0  0  0  0  0  0  0  0  0  0  0  0
    3.6430   -3.8389    0.1668 H   0  0  0  0  0  0  0  0  0  0  0  0
    3.8377   -2.4138    1.3638 H   0  0  0  0  0  0  0  0  0  0  0  0
    1.5360    1.7951    0.4286 H   0  0  0  0  0  0  0  0  0  0  0  0
    3.2251    2.2781   -0.2155 H   0  0  0  0  0  0  0  0  0  0  0  0
  1  3  1  0
  1  5  1  0
  1  2  1  0
  1 14  1  0
  2  4  1  0
  2  6  1  0
  2 15  1  0
  3  7  1  0
  3 16  1  0
  3 17  1  0
  4  7  1  0
  4 20  1  0
  4 21  1  0
  5  8  1  0
  5 22  1  0
  5 23  1  0
  6  8  1  0
  6 24  1  0
  6 25  1  0
  7 18  1  0
  7 19  1  0
  8 26  1  0
  8 27  1  0
  9 10  1  0
  9 11  1  0
  9 28  1  0
 10 12  2  3
 10 29  1  0
 11 13  2  3
 11 30  1  0
 12 31  1  0
 12 32  1  0
 13 33  1  0
 13 34  1  0
M  RAD  1   9   2
M  END
>  <reaction>  (17) 
rxn_744

>  <mol_properties>  (17) 
{"1": {"label": "*0", "atom_type": "Cd"}, "2": {"label": "*1", "atom_type": "Cs"}, "8": {"label": "*2", "atom_type": "H0"}, "15": {"label": "*3", "atom_type": "Cs"}, "19": {"label": "*4", "atom_type": "Cs"}}

>  <type>  (17) 
unop_13

>  <geom_source>  (17) 
AutoTST

$$$$

     RDKit          3D

 34 34  0  0  0  0  0  0  0  0999 V2000
    0.2824   -2.8137   -1.1540 C   0  0  0  0  0  0  0  0  0  0  0  0
    0.2824   -2.8137    0.1692 C   0  0  0  0  0  0  0  0  0  0  0  0
    0.2824   -1.5879    1.0272 C   0  0  0  0  0  3  0  0  0  0  0  0
    1.4921   -1.4336    1.9084 C   0  0  0  0  0  0  0  0  0  0  0  0
    2.6032   -2.1492    1.8360 C   0  0  0  0  0  0  0  0  0  0  0  0
    0.2742   -3.7365   -1.7206 H   0  0  0  0  0  0  0  0  0  0  0  0
    0.2887   -1.8883   -1.7200 H   0  0  0  0  0  0  0  0  0  0  0  0
    0.2849   -3.7625    0.6997 H   0  0  0  0  0  0  0  0  0  0  0  0
    0.1623   -0.5159    0.2767 H   0  0  0  0  0  0  0  0  0  0  0  0
   -0.6056   -1.6014    1.6700 H   0  0  0  0  0  0  0  0  0  0  0  0
    1.4194   -0.6485    2.6561 H   0  0  0  0  0  0  0  0  0  0  0  0
    2.7287   -2.9361    1.1011 H   0  0  0  0  0  0  0  0  0  0  0  0
    3.4314   -1.9649    2.5083 H   0  0  0  0  0  0  0  0  0  0  0  0
   -2.2142    0.1231   -1.2488 C   0  0  0  0  0  0  0  0  0  0  0  0
   -0.7680    0.2021   -1.7308 C   0  0  0  0  0  0  0  0  0  0  0  0
    0.0427    0.5520   -0.4711 C   0  0  0  0  0  0  0  0  0  0  0  0
    1.1820    1.5556   -0.7026 C   0  0  0  0  0  0  0  0  0  0  0  0
    0.5370    2.9195   -0.4530 C   0  0  0  0  0  0  0  0  0  0  0  0
   -0.3591    2.6561    0.7579 C   0  0  0  0  0  0  0  0  0  0  0  0
   -0.9652    1.2718    0.4841 C   0  0  0  0  0  0  0  0  0  0  0  0
   -2.3016    1.2973   -0.2774 C   0  0  0  0  0  0  0  0  0  0  0  0
   -2.3811   -0.8178   -0.7158 H   0  0  0  0  0  0  0  0  0  0  0  0
   -2.9434    0.1767   -2.0586 H   0  0  0  0  0  0  0  0  0  0  0  0
   -0.4181   -0.7115   -2.2134 H   0  0  0  0  0  0  0  0  0  0  0  0
   -0.6774    1.0103   -2.4643 H   0  0  0  0  0  0  0  0  0  0  0  0
    1.6247    1.4616   -1.6960 H   0  0  0  0  0  0  0  0  0  0  0  0
    1.9809    1.3958    0.0266 H   0  0  0  0  0  0  0  0  0  0  0  0
    1.2630    3.7162   -0.2873 H   0  0  0  0  0  0  0  0  0  0  0  0
   -0.0728    3.2089   -1.3145 H   0  0  0  0  0  0  0  0  0  0  0  0
   -1.1217    3.4230    0.9067 H   0  0  0  0  0  0  0  0  0  0  0  0
    0.2555    2.6280    1.6619 H   0  0  0  0  0  0  0  0  0  0  0  0
   -1.0895    0.7106    1.4114 H   0  0  0  0  0  0  0  0  0  0  0  0
   -2.3842    2.2293   -0.8467 H   0  0  0  0  0  0  0  0  0  0  0  0
   -3.1640    1.2495    0.3889 H   0  0  0  0  0  0  0  0  0  0  0  0
  1  2  2  3
  1  6  1  0
  1  7  1  0
  2  3  1  0
  2  8  1  0
  3  4  1  0
  3 10  1  0
  4  5  2  3
  4 11  1  0
  5 12  1  0
  5 13  1  0
  9 16  1  0
 14 15  1  0
 14 21  1  0
 14 22  1  0
 14 23  1  0
 15 16  1  0
 15 24  1  0
 15 25  1  0
 16 17  1  0
 16 20  1  0
 17 18  1  0
 17 26  1  0
 17 27  1  0
 18 19  1  0
 18 28  1  0
 18 29  1  0
 19 20  1  0
 19 30  1  0
 19 31  1  0
 20 21  1  0
 20 32  1  0
 21 33  1  0
 21 34  1  0
M  RAD  1   3   2
M  END
>  <reaction>  (18) 
rxn_744

>  <mol_properties>  (18) 
{"1": {"label": "*0", "atom_type": "Cd"}, "2": {"label": "*1", "atom_type": "Cs"}, "8": {"label": "*2", "atom_type": "H0"}, "15": {"label": "*3", "atom_type": "Cs"}, "19": {"label": "*4", "atom_type": "Cs"}}

>  <type>  (18) 
unop_14

>  <geom_source>  (18) 
gaussian_log

$$$$
