
     RDKit          3D

 10  9  0  0  0  0  0  0  0  0999 V2000
    2.2738    0.0217   -0.0992 C   0  0  0  0  0  0  0  0  0  0  0  0
    1.1083    0.2960   -0.0695 C   0  0  0  0  0  0  0  0  0  0  0  0
   -0.3173    0.6046   -0.0227 C   0  0  0  0  0  0  0  0  0  0  0  0
   -1.1561   -0.5495    0.5292 C   0  0  0  0  0  0  0  0  0  0  0  0
    3.3097   -0.2166   -0.1277 H   0  0  0  0  0  0  0  0  0  0  0  0
   -0.6542    0.8617   -1.0302 H   0  0  0  0  0  0  0  0  0  0  0  0
   -0.4633    1.4978    0.5900 H   0  0  0  0  0  0  0  0  0  0  0  0
   -0.8485   -0.7997    1.5447 H   0  0  0  0  0  0  0  0  0  0  0  0
   -2.2115   -0.2752    0.5459 H   0  0  0  0  0  0  0  0  0  0  0  0
   -1.0409   -1.4407   -0.0879 H   0  0  0  0  0  0  0  0  0  0  0  0
  1  2  3  0
  1  5  1  0
  2  3  1  0
  3  4  1  0
  3  6  1  0
  3  7  1  0
  4  8  1  0
  4  9  1  0
  4 10  1  0
M  END
>  <reaction>  (1) 
rxn_1263

>  <mol_properties>  (1) 
{"2": {"label": "donator", "atom_type": "Cs"}, "5": {"label": "d_hydrogen", "atom_type": "H0"}}

>  <type>  (1) 
r1h

$$$$

     RDKit          3D

 11 10  0  0  0  0  0  0  0  0999 V2000
    2.0591    0.2533   -0.1061 C   0  0  0  0  0  0  0  0  0  0  0  0
    0.8045   -0.3111   -0.1535 C   0  0  0  0  0  0  0  0  0  0  0  0
   -0.3816    0.3942   -0.1885 C   0  0  0  0  0  3  0  0  0  0  0  0
   -1.7316   -0.2294   -0.2396 C   0  0  0  0  0  0  0  0  0  0  0  0
    2.9505   -0.3576   -0.0805 H   0  0  0  0  0  0  0  0  0  0  0  0
    2.1872    1.3290   -0.0933 H   0  0  0  0  0  0  0  0  0  0  0  0
    0.7385   -1.3970   -0.1643 H   0  0  0  0  0  0  0  0  0  0  0  0
   -0.3340    1.4795   -0.1783 H   0  0  0  0  0  0  0  0  0  0  0  0
   -1.6704   -1.3186   -0.2461 H   0  0  0  0  0  0  0  0  0  0  0  0
   -2.3404    0.0713    0.6191 H   0  0  0  0  0  0  0  0  0  0  0  0
   -2.2805    0.0851   -1.1331 H   0  0  0  0  0  0  0  0  0  0  0  0
  1  2  2  3
  1  5  1  0
  1  6  1  0
  2  3  1  0
  2  7  1  0
  3  4  1  0
  3  8  1  0
  4  9  1  0
  4 10  1  0
  4 11  1  0
M  RAD  1   3   2
M  END
>  <reaction>  (2) 
rxn_1263

>  <mol_properties>  (2) 
{"2": {"label": "acceptor", "atom_type": "Cs"}}

>  <type>  (2) 
r2

$$$$

     RDKit          3D

 12 11  0  0  0  0  0  0  0  0999 V2000
    1.9877    0.1011    0.4814 C   0  0  0  0  0  0  0  0  0  0  0  0
    0.8179    0.5502    0.0525 C   0  0  0  0  0  0  0  0  0  0  0  0
   -0.2939   -0.2692   -0.5320 C   0  0  0  0  0  0  0  0  0  0  0  0
   -0.0292   -1.7631   -0.6328 C   0  0  0  0  0  0  0  0  0  0  0  0
    2.2522   -0.9490    0.4436 H   0  0  0  0  0  0  0  0  0  0  0  0
    2.7295    0.7757    0.8896 H   0  0  0  0  0  0  0  0  0  0  0  0
    0.6162    1.6164    0.1190 H   0  0  0  0  0  0  0  0  0  0  0  0
   -0.5268    0.1319   -1.5245 H   0  0  0  0  0  0  0  0  0  0  0  0
   -1.1959   -0.0938    0.0644 H   0  0  0  0  0  0  0  0  0  0  0  0
    0.1590   -2.1992    0.3502 H   0  0  0  0  0  0  0  0  0  0  0  0
    0.8382   -1.9701   -1.2626 H   0  0  0  0  0  0  0  0  0  0  0  0
   -0.8879   -2.2759   -1.0672 H   0  0  0  0  0  0  0  0  0  0  0  0
  1  2  2  3
  1  5  1  0
  1  6  1  0
  2  3  1  0
  2  7  1  0
  3  4  1  0
  3  8  1  0
  3  9  1  0
  4 10  1  0
  4 11  1  0
  4 12  1  0
M  END
>  <reaction>  (3) 
rxn_1263

>  <mol_properties>  (3) 
{"0": {"label": "a_hydrogen", "atom_type": "H0"}, "3": {"label": "acceptor", "atom_type": "Cs"}}

>  <type>  (3) 
r2h

$$$$

     RDKit          3D

 21 19  0  0  0  0  0  0  0  0999 V2000
   -1.8488   -0.5734   -1.8556 C   0  0  0  0  0  0  0  0  0  0  0  0
   -1.6793    0.0495   -0.8389 C   0  0  0  0  0  0  0  0  0  0  0  0
   -1.4153    0.7600    0.3622 C   0  0  0  0  0  3  0  0  0  0  0  0
   -0.8685    2.1622    0.2315 C   0  0  0  0  0  0  0  0  0  0  0  0
   -2.0157   -1.1147   -2.7552 H   0  0  0  0  0  0  0  0  0  0  0  0
   -0.3634    0.0906    0.9448 H   0  0  0  0  0  0  0  0  0  0  0  0
   -2.1899    0.6392    1.1176 H   0  0  0  0  0  0  0  0  0  0  0  0
   -1.6073    2.8376   -0.2069 H   0  0  0  0  0  0  0  0  0  0  0  0
   -0.5882    2.5539    1.2105 H   0  0  0  0  0  0  0  0  0  0  0  0
    0.0151    2.1677   -0.4084 H   0  0  0  0  0  0  0  0  0  0  0  0
    2.4226   -0.3754   -0.3681 C   0  0  0  0  0  0  0  0  0  0  0  0
    1.8249    0.0571    0.7456 C   0  0  0  0  0  0  0  0  0  0  0  0
    0.6858   -0.5721    1.4055 C   0  0  0  0  0  0  0  0  0  0  0  0
    0.3394   -2.0006    1.0720 C   0  0  0  0  0  0  0  0  0  0  0  0
    3.2415    0.1754   -0.8118 H   0  0  0  0  0  0  0  0  0  0  0  0
    2.1199   -1.2890   -0.8647 H   0  0  0  0  0  0  0  0  0  0  0  0
    2.1757    0.9844    1.1903 H   0  0  0  0  0  0  0  0  0  0  0  0
    0.6222   -0.3371    2.4676 H   0  0  0  0  0  0  0  0  0  0  0  0
    1.1626   -2.6751    1.3242 H   0  0  0  0  0  0  0  0  0  0  0  0
   -0.5450   -2.3220    1.6229 H   0  0  0  0  0  0  0  0  0  0  0  0
    0.1230   -2.1161    0.0083 H   0  0  0  0  0  0  0  0  0  0  0  0
  1  2  3  0
  1  5  1  0
  2  3  1  0
  3  4  1  0
  3  7  1  0
  4  8  1  0
  4  9  1  0
  4 10  1  0
  6 13  1  0
 11 12  2  3
 11 15  1  0
 11 16  1  0
 12 13  1  0
 12 17  1  0
 13 14  1  0
 13 18  1  0
 14 19  1  0
 14 20  1  0
 14 21  1  0
M  RAD  1   3   2
M  END
>  <reaction>  (4) 
rxn_1263

>  <mol_properties>  (4) 
{"1": {"label": "*4", "atom_type": "Ct"}, "2": {"label": "*3", "atom_type": "Cs"}, "5": {"label": "*2", "atom_type": "H0"}, "11": {"label": "*0", "atom_type": "Cd"}, "12": {"label": "*1", "atom_type": "Cs"}}

>  <type>  (4) 
ts

$$$$

     RDKit          3D

 21 19  0  0  0  0  0  0  0  0999 V2000
   -1.5340    0.4075   -2.8800 C   0  0  0  0  0  0  0  0  0  0  0  0
   -1.5340    0.4075   -1.6823 C   0  0  0  0  0  0  0  0  0  0  0  0
   -1.5340    0.4357   -0.2231 C   0  0  0  0  0  0  0  0  0  0  0  0
   -1.5340    1.8571    0.3425 C   0  0  0  0  0  0  0  0  0  0  0  0
   -1.5340    0.4075   -3.9433 H   0  0  0  0  0  0  0  0  0  0  0  0
   -0.4834   -0.2184    0.2109 H   0  0  0  0  0  0  0  0  0  0  0  0
   -2.4095   -0.1094    0.1386 H   0  0  0  0  0  0  0  0  0  0  0  0
   -2.4162    2.4049    0.0110 H   0  0  0  0  0  0  0  0  0  0  0  0
   -1.5340    1.8298    1.4327 H   0  0  0  0  0  0  0  0  0  0  0  0
   -0.6517    2.4049    0.0110 H   0  0  0  0  0  0  0  0  0  0  0  0
    2.6827   -0.0817    1.7761 C   0  0  0  0  0  0  0  0  0  0  0  0
    1.4078    0.0726    1.4525 C   0  0  0  0  0  0  0  0  0  0  0  0
    0.5697   -0.8741    0.6460 C   0  0  0  0  0  3  0  0  0  0  0  0
    1.2756   -2.1307    0.1617 C   0  0  0  0  0  0  0  0  0  0  0  0
    3.2035    0.6622    2.3655 H   0  0  0  0  0  0  0  0  0  0  0  0
    3.2553   -0.9490    1.4694 H   0  0  0  0  0  0  0  0  0  0  0  0
    0.8915    0.9669    1.7926 H   0  0  0  0  0  0  0  0  0  0  0  0
   -0.3047   -1.1501    1.2455 H   0  0  0  0  0  0  0  0  0  0  0  0
    1.6482   -2.7236    0.9994 H   0  0  0  0  0  0  0  0  0  0  0  0
    0.5923   -2.7567   -0.4132 H   0  0  0  0  0  0  0  0  0  0  0  0
    2.1249   -1.8860   -0.4792 H   0  0  0  0  0  0  0  0  0  0  0  0
  1  2  3  0
  1  5  1  0
  2  3  1  0
  3  4  1  0
  3  6  1  0
  3  7  1  0
  4  8  1  0
  4  9  1  0
  4 10  1  0
 11 12  2  3
 11 15  1  0
 11 16  1  0
 12 13  1  0
 12 17  1  0
 13 14  1  0
 13 18  1  0
 14 19  1  0
 14 20  1  0
 14 21  1  0
M  RAD  1  13   2
M  END
>  <reaction>  (5) 
rxn_1263

>  <mol_properties>  (5) 
{"1": {"label": "*4", "atom_type": "Ct"}, "2": {"label": "*3", "atom_type": "Cs"}, "5": {"label": "*2", "atom_type": "H0"}, "11": {"label": "*0", "atom_type": "Cd"}, "12": {"label": "*1", "atom_type": "Cs"}}

>  <type>  (5) 
unop_1

>  <geom_source>  (5) 
Heuristics

$$$$

     RDKit          3D

 21 19  0  0  0  0  0  0  0  0999 V2000
   -1.4371    0.7193   -2.4949 C   0  0  0  0  0  0  0  0  0  0  0  0
   -1.4371    0.7193   -1.2972 C   0  0  0  0  0  0  0  0  0  0  0  0
   -1.4371    0.7475    0.1620 C   0  0  0  0  0  0  0  0  0  0  0  0
   -1.4371    2.1689    0.7276 C   0  0  0  0  0  0  0  0  0  0  0  0
   -1.4371    0.7193   -3.5582 H   0  0  0  0  0  0  0  0  0  0  0  0
   -0.3865    0.0934    0.5960 H   0  0  0  0  0  0  0  0  0  0  0  0
   -2.3126    0.2025    0.5237 H   0  0  0  0  0  0  0  0  0  0  0  0
   -2.3193    2.7168    0.3961 H   0  0  0  0  0  0  0  0  0  0  0  0
   -1.4371    2.1416    1.8178 H   0  0  0  0  0  0  0  0  0  0  0  0
   -0.5549    2.7167    0.3961 H   0  0  0  0  0  0  0  0  0  0  0  0
    2.6179   -1.3630   -0.3548 C   0  0  0  0  0  0  0  0  0  0  0  0
    1.7555   -0.4260    0.0090 C   0  0  0  0  0  0  0  0  0  0  0  0
    0.6666   -0.5623    1.0311 C   0  0  0  0  0  3  0  0  0  0  0  0
    0.5608   -1.9214    1.7044 C   0  0  0  0  0  0  0  0  0  0  0  0
    3.3721   -1.1667   -1.1063 H   0  0  0  0  0  0  0  0  0  0  0  0
    2.6078   -2.3564    0.0777 H   0  0  0  0  0  0  0  0  0  0  0  0
    1.8205    0.5503   -0.4649 H   0  0  0  0  0  0  0  0  0  0  0  0
    0.8124    0.2147    1.7896 H   0  0  0  0  0  0  0  0  0  0  0  0
    1.4813   -2.1738    2.2343 H   0  0  0  0  0  0  0  0  0  0  0  0
   -0.2544   -1.9278    2.4288 H   0  0  0  0  0  0  0  0  0  0  0  0
    0.3669   -2.7107    0.9754 H   0  0  0  0  0  0  0  0  0  0  0  0
  1  2  3  0
  1  5  1  0
  2  3  1  0
  3  4  1  0
  3  6  1  0
  3  7  1  0
  4  8  1  0
  4  9  1  0
  4 10  1  0
 11 12  2  3
 11 15  1  0
 11 16  1  0
 12 13  1  0
 12 17  1  0
 13 14  1  0
 13 18  1  0
 14 19  1  0
 14 20  1  0
 14 21  1  0
M  RAD  1  13   2
M  END
>  <reaction>  (6) 
rxn_1263

>  <mol_properties>  (6) 
{"1": {"label": "*4", "atom_type": "Ct"}, "2": {"label": "*3", "atom_type": "Cs"}, "5": {"label": "*2", "atom_type": "H0"}, "11": {"label": "*0", "atom_type": "Cd"}, "12": {"label": "*1", "atom_type": "Cs"}}

>  <type>  (6) 
unop_2

>  <geom_source>  (6) 
Heuristics

$$$$

     RDKit          3D

 21 19  0  0  0  0  0  0  0  0999 V2000
   -1.4814    0.3810   -2.9757 C   0  0  0  0  0  0  0  0  0  0  0  0
   -1.4814    0.3810   -1.7780 C   0  0  0  0  0  0  0  0  0  0  0  0
   -1.4814    0.4092   -0.3188 C   0  0  0  0  0  0  0  0  0  0  0  0
   -1.4814    1.8306    0.2468 C   0  0  0  0  0  0  0  0  0  0  0  0
   -1.4814    0.3810   -4.0390 H   0  0  0  0  0  0  0  0  0  0  0  0
   -0.4308   -0.2449    0.1152 H   0  0  0  0  0  0  0  0  0  0  0  0
   -2.3569   -0.1359    0.0429 H   0  0  0  0  0  0  0  0  0  0  0  0
   -2.3636    2.3784   -0.0847 H   0  0  0  0  0  0  0  0  0  0  0  0
   -1.4814    1.8033    1.3371 H   0  0  0  0  0  0  0  0  0  0  0  0
   -0.5992    2.3784   -0.0847 H   0  0  0  0  0  0  0  0  0  0  0  0
    2.2694   -0.2506    2.3487 C   0  0  0  0  0  0  0  0  0  0  0  0
    1.0403   -0.2962    1.8577 C   0  0  0  0  0  0  0  0  0  0  0  0
    0.6223   -0.9006    0.5503 C   0  0  0  0  0  3  0  0  0  0  0  0
    1.7385   -1.5172   -0.2778 C   0  0  0  0  0  0  0  0  0  0  0  0
    2.4713    0.2102    3.3073 H   0  0  0  0  0  0  0  0  0  0  0  0
    3.1184   -0.6674    1.8198 H   0  0  0  0  0  0  0  0  0  0  0  0
    0.2331    0.1411    2.4400 H   0  0  0  0  0  0  0  0  0  0  0  0
   -0.1456   -1.6549    0.7540 H   0  0  0  0  0  0  0  0  0  0  0  0
    2.2335   -2.3255    0.2639 H   0  0  0  0  0  0  0  0  0  0  0  0
    1.3434   -1.9300   -1.2066 H   0  0  0  0  0  0  0  0  0  0  0  0
    2.4960   -0.7748   -0.5369 H   0  0  0  0  0  0  0  0  0  0  0  0
  1  2  3  0
  1  5  1  0
  2  3  1  0
  3  4  1  0
  3  6  1  0
  3  7  1  0
  4  8  1  0
  4  9  1  0
  4 10  1  0
 11 12  2  3
 11 15  1  0
 11 16  1  0
 12 13  1  0
 12 17  1  0
 13 14  1  0
 13 18  1  0
 14 19  1  0
 14 20  1  0
 14 21  1  0
M  RAD  1  13   2
M  END
>  <reaction>  (7) 
rxn_1263

>  <mol_properties>  (7) 
{"1": {"label": "*4", "atom_type": "Ct"}, "2": {"label": "*3", "atom_type": "Cs"}, "5": {"label": "*2", "atom_type": "H0"}, "11": {"label": "*0", "atom_type": "Cd"}, "12": {"label": "*1", "atom_type": "Cs"}}

>  <type>  (7) 
unop_3

>  <geom_source>  (7) 
Heuristics

$$$$

     RDKit          3D

 21 19  0  0  0  0  0  0  0  0999 V2000
   -0.8903    0.8957   -2.8493 C   0  0  0  0  0  0  0  0  0  0  0  0
   -0.8903    0.8957   -1.6516 C   0  0  0  0  0  0  0  0  0  0  0  0
   -0.8903    0.9239   -0.1924 C   0  0  0  0  0  0  0  0  0  0  0  0
   -0.8903    2.3453    0.3732 C   0  0  0  0  0  0  0  0  0  0  0  0
   -0.8903    0.8957   -3.9126 H   0  0  0  0  0  0  0  0  0  0  0  0
    0.1603    0.2698    0.2416 H   0  0  0  0  0  0  0  0  0  0  0  0
   -1.7659    0.3788    0.1693 H   0  0  0  0  0  0  0  0  0  0  0  0
   -1.7726    2.8932    0.0417 H   0  0  0  0  0  0  0  0  0  0  0  0
   -0.8903    2.3180    1.4635 H   0  0  0  0  0  0  0  0  0  0  0  0
   -0.0081    2.8931    0.0417 H   0  0  0  0  0  0  0  0  0  0  0  0
    0.5682   -2.8222    0.8089 C   0  0  0  0  0  0  0  0  0  0  0  0
    1.1220   -1.7975    0.1787 C   0  0  0  0  0  0  0  0  0  0  0  0
    1.2134   -0.3859    0.6767 C   0  0  0  0  0  3  0  0  0  0  0  0
    0.6020   -0.1286    2.0449 C   0  0  0  0  0  0  0  0  0  0  0  0
    0.5519   -3.8091    0.3640 H   0  0  0  0  0  0  0  0  0  0  0  0
    0.1118   -2.7206    1.7864 H   0  0  0  0  0  0  0  0  0  0  0  0
    1.5628   -1.9682   -0.8003 H   0  0  0  0  0  0  0  0  0  0  0  0
    2.2696   -0.0951    0.6842 H   0  0  0  0  0  0  0  0  0  0  0  0
    1.0849   -0.7336    2.8148 H   0  0  0  0  0  0  0  0  0  0  0  0
    0.7144    0.9196    2.3239 H   0  0  0  0  0  0  0  0  0  0  0  0
   -0.4639   -0.3647    2.0532 H   0  0  0  0  0  0  0  0  0  0  0  0
  1  2  3  0
  1  5  1  0
  2  3  1  0
  3  4  1  0
  3  6  1  0
  3  7  1  0
  4  8  1  0
  4  9  1  0
  4 10  1  0
 11 12  2  3
 11 15  1  0
 11 16  1  0
 12 13  1  0
 12 17  1  0
 13 14  1  0
 13 18  1  0
 14 19  1  0
 14 20  1  0
 14 21  1  0
M  RAD  1  13   2
M  END
>  <reaction>  (8) 
rxn_1263

>  <mol_properties>  (8) 
{"1": {"label": "*4", "atom_type": "Ct"}, "2": {"label": "*3", "atom_type": "Cs"}, "5": {"label": "*2", "atom_type": "H0"}, "11": {"label": "*0", "atom_type": "Cd"}, "12": {"label": "*1", "atom_type": "Cs"}}

>  <type>  (8) 
unop_4

>  <geom_source>  (8) 
Heuristics

$$$$

     RDKit          3D

 21 19  0  0  0  0  0  0  0  0999 V2000
   -1.3626    0.3065   -3.0817 C   0  0  0  0  0  0  0  0  0  0  0  0
   -1.3626    0.3065   -1.8840 C   0  0  0  0  0  0  0  0  0  0  0  0
   -1.3626    0.3347   -0.4248 C   0  0  0  0  0  0  0  0  0  0  0  0
   -1.3626    1.7561    0.1408 C   0  0  0  0  0  0  0  0  0  0  0  0
   -1.3626    0.3065   -4.1450 H   0  0  0  0  0  0  0  0  0  0  0  0
   -0.3120   -0.3194    0.0092 H   0  0  0  0  0  0  0  0  0  0  0  0
   -2.2381   -0.2104   -0.0631 H   0  0  0  0  0  0  0  0  0  0  0  0
   -2.2448    2.3039   -0.1907 H   0  0  0  0  0  0  0  0  0  0  0  0
   -1.3626    1.7288    1.2311 H   0  0  0  0  0  0  0  0  0  0  0  0
   -0.4804    2.3039   -0.1907 H   0  0  0  0  0  0  0  0  0  0  0  0
    1.6885   -0.4783    2.7302 C   0  0  0  0  0  0  0  0  0  0  0  0
    0.7271   -0.9373    1.9435 C   0  0  0  0  0  0  0  0  0  0  0  0
    0.7411   -0.9751    0.4443 C   0  0  0  0  0  3  0  0  0  0  0  0
    1.9952   -0.4262   -0.2173 C   0  0  0  0  0  0  0  0  0  0  0  0
    1.5840   -0.4939    3.8076 H   0  0  0  0  0  0  0  0  0  0  0  0
    2.6122   -0.0713    2.3360 H   0  0  0  0  0  0  0  0  0  0  0  0
   -0.1749   -1.3325    2.4041 H   0  0  0  0  0  0  0  0  0  0  0  0
    0.5811   -2.0118    0.1284 H   0  0  0  0  0  0  0  0  0  0  0  0
    2.8818   -0.9845    0.0896 H   0  0  0  0  0  0  0  0  0  0  0  0
    1.9167   -0.4937   -1.3029 H   0  0  0  0  0  0  0  0  0  0  0  0
    2.1534    0.6224    0.0422 H   0  0  0  0  0  0  0  0  0  0  0  0
  1  2  3  0
  1  5  1  0
  2  3  1  0
  3  4  1  0
  3  6  1  0
  3  7  1  0
  4  8  1  0
  4  9  1  0
  4 10  1  0
 11 12  2  3
 11 15  1  0
 11 16  1  0
 12 13  1  0
 12 17  1  0
 13 14  1  0
 13 18  1  0
 14 19  1  0
 14 20  1  0
 14 21  1  0
M  RAD  1  13   2
M  END
>  <reaction>  (9) 
rxn_1263

>  <mol_properties>  (9) 
{"1": {"label": "*4", "atom_type": "Ct"}, "2": {"label": "*3", "atom_type": "Cs"}, "5": {"label": "*2", "atom_type": "H0"}, "11": {"label": "*0", "atom_type": "Cd"}, "12": {"label": "*1", "atom_type": "Cs"}}

>  <type>  (9) 
unop_5

>  <geom_source>  (9) 
Heuristics

$$$$

     RDKit          3D

 21 19  0  0  0  0  0  0  0  0999 V2000
   -0.8541    0.7466   -3.0460 C   0  0  0  0  0  0  0  0  0  0  0  0
   -0.8541    0.7466   -1.8483 C   0  0  0  0  0  0  0  0  0  0  0  0
   -0.8541    0.7748   -0.3892 C   0  0  0  0  0  0  0  0  0  0  0  0
   -0.8541    2.1962    0.1764 C   0  0  0  0  0  0  0  0  0  0  0  0
   -0.8541    0.7466   -4.1093 H   0  0  0  0  0  0  0  0  0  0  0  0
    0.1965    0.1207    0.0449 H   0  0  0  0  0  0  0  0  0  0  0  0
   -1.7296    0.2297   -0.0275 H   0  0  0  0  0  0  0  0  0  0  0  0
   -1.7363    2.7440   -0.1550 H   0  0  0  0  0  0  0  0  0  0  0  0
   -0.8541    2.1689    1.2667 H   0  0  0  0  0  0  0  0  0  0  0  0
    0.0282    2.7440   -0.1550 H   0  0  0  0  0  0  0  0  0  0  0  0
    0.2807   -2.5081    1.7200 C   0  0  0  0  0  0  0  0  0  0  0  0
    0.8628   -1.9730    0.6575 C   0  0  0  0  0  0  0  0  0  0  0  0
    1.2496   -0.5350    0.4800 C   0  0  0  0  0  3  0  0  0  0  0  0
    0.9321    0.3824    1.6502 C   0  0  0  0  0  0  0  0  0  0  0  0
    0.0396   -3.5630    1.7531 H   0  0  0  0  0  0  0  0  0  0  0  0
    0.0225   -1.9215    2.5937 H   0  0  0  0  0  0  0  0  0  0  0  0
    1.0951   -2.6183   -0.1860 H   0  0  0  0  0  0  0  0  0  0  0  0
    2.3223   -0.4956    0.2609 H   0  0  0  0  0  0  0  0  0  0  0  0
    1.4462    0.0596    2.5575 H   0  0  0  0  0  0  0  0  0  0  0  0
    1.2469    1.4037    1.4329 H   0  0  0  0  0  0  0  0  0  0  0  0
   -0.1390    0.4000    1.8605 H   0  0  0  0  0  0  0  0  0  0  0  0
  1  2  3  0
  1  5  1  0
  2  3  1  0
  3  4  1  0
  3  6  1  0
  3  7  1  0
  4  8  1  0
  4  9  1  0
  4 10  1  0
 11 12  2  3
 11 15  1  0
 11 16  1  0
 12 13  1  0
 12 17  1  0
 13 14  1  0
 13 18  1  0
 14 19  1  0
 14 20  1  0
 14 21  1  0
M  RAD  1  13   2
M  END
>  <reaction>  (10) 
rxn_1263

>  <mol_properties>  (10) 
{"1": {"label": "*4", "atom_type": "Ct"}, "2": {"label": "*3", "atom_type": "Cs"}, "5": {"label": "*2", "atom_type": "H0"}, "11": {"label": "*0", "atom_type": "Cd"}, "12": {"label": "*1", "atom_type": "Cs"}}

>  <type>  (10) 
unop_6

>  <geom_source>  (10) 
Heuristics

$$$$

     RDKit          3D

 21 19  0  0  0  0  0  0  0  0999 V2000
   -0.9313    0.5389   -3.1772 C   0  0  0  0  0  0  0  0  0  0  0  0
   -0.9313    0.5389   -1.9795 C   0  0  0  0  0  0  0  0  0  0  0  0
   -0.9313    0.5672   -0.5203 C   0  0  0  0  0  0  0  0  0  0  0  0
   -0.9313    1.9885    0.0453 C   0  0  0  0  0  0  0  0  0  0  0  0
   -0.9313    0.5389   -4.2405 H   0  0  0  0  0  0  0  0  0  0  0  0
    0.1193   -0.0870   -0.0862 H   0  0  0  0  0  0  0  0  0  0  0  0
   -1.8068    0.0221   -0.1586 H   0  0  0  0  0  0  0  0  0  0  0  0
   -1.8135    2.5364   -0.2862 H   0  0  0  0  0  0  0  0  0  0  0  0
   -0.9313    1.9612    1.1356 H   0  0  0  0  0  0  0  0  0  0  0  0
   -0.0490    2.5364   -0.2862 H   0  0  0  0  0  0  0  0  0  0  0  0
    0.3878   -1.8369    2.4834 C   0  0  0  0  0  0  0  0  0  0  0  0
    0.6937   -1.8840    1.1957 C   0  0  0  0  0  0  0  0  0  0  0  0
    1.1724   -0.7426    0.3488 C   0  0  0  0  0  3  0  0  0  0  0  0
    1.3132    0.5932    1.0613 C   0  0  0  0  0  0  0  0  0  0  0  0
    0.0491   -2.7202    3.0098 H   0  0  0  0  0  0  0  0  0  0  0  0
    0.4617   -0.9234    3.0615 H   0  0  0  0  0  0  0  0  0  0  0  0
    0.5974   -2.8332    0.6746 H   0  0  0  0  0  0  0  0  0  0  0  0
    2.1330   -1.0272   -0.0946 H   0  0  0  0  0  0  0  0  0  0  0  0
    2.0282    0.5300    1.8839 H   0  0  0  0  0  0  0  0  0  0  0  0
    1.6649    1.3606    0.3709 H   0  0  0  0  0  0  0  0  0  0  0  0
    0.3581    0.9254    1.4727 H   0  0  0  0  0  0  0  0  0  0  0  0
  1  2  3  0
  1  5  1  0
  2  3  1  0
  3  4  1  0
  3  6  1  0
  3  7  1  0
  4  8  1  0
  4  9  1  0
  4 10  1  0
 11 12  2  3
 11 15  1  0
 11 16  1  0
 12 13  1  0
 12 17  1  0
 13 14  1  0
 13 18  1  0
 14 19  1  0
 14 20  1  0
 14 21  1  0
M  RAD  1  13   2
M  END
>  <reaction>  (11) 
rxn_1263

>  <mol_properties>  (11) 
{"1": {"label": "*4", "atom_type": "Ct"}, "2": {"label": "*3", "atom_type": "Cs"}, "5": {"label": "*2", "atom_type": "H0"}, "11": {"label": "*0", "atom_type": "Cd"}, "12": {"label": "*1", "atom_type": "Cs"}}

>  <type>  (11) 
unop_7

>  <geom_source>  (11) 
Heuristics

$$$$

     RDKit          3D

 21 19  0  0  0  0  0  0  0  0999 V2000
   -1.5674    0.4453   -2.7436 C   0  0  0  0  0  0  0  0  0  0  0  0
   -1.5674    0.4453   -1.5459 C   0  0  0  0  0  0  0  0  0  0  0  0
   -1.5674    0.4736   -0.0867 C   0  0  0  0  0  0  0  0  0  0  0  0
   -1.5674    1.8949    0.4789 C   0  0  0  0  0  0  0  0  0  0  0  0
   -1.5674    0.4453   -3.8069 H   0  0  0  0  0  0  0  0  0  0  0  0
   -0.5168   -0.1806    0.3473 H   0  0  0  0  0  0  0  0  0  0  0  0
   -2.4429   -0.0715    0.2750 H   0  0  0  0  0  0  0  0  0  0  0  0
   -2.4496    2.4428    0.1474 H   0  0  0  0  0  0  0  0  0  0  0  0
   -1.5674    1.8676    1.5691 H   0  0  0  0  0  0  0  0  0  0  0  0
   -0.6851    2.4428    0.1474 H   0  0  0  0  0  0  0  0  0  0  0  0
    2.9581   -0.1590    0.9966 C   0  0  0  0  0  0  0  0  0  0  0  0
    1.6699    0.1369    0.9134 C   0  0  0  0  0  0  0  0  0  0  0  0
    0.5363   -0.8362    0.7824 C   0  0  0  0  0  3  0  0  0  0  0  0
    0.9292   -2.3046    0.7434 C   0  0  0  0  0  0  0  0  0  0  0  0
    3.7052    0.6190    1.0893 H   0  0  0  0  0  0  0  0  0  0  0  0
    3.3184   -1.1807    0.9761 H   0  0  0  0  0  0  0  0  0  0  0  0
    1.3758    1.1831    0.9401 H   0  0  0  0  0  0  0  0  0  0  0  0
   -0.1590   -0.6624    1.6109 H   0  0  0  0  0  0  0  0  0  0  0  0
    1.4528   -2.5989    1.6550 H   0  0  0  0  0  0  0  0  0  0  0  0
    0.0448   -2.9354    0.6473 H   0  0  0  0  0  0  0  0  0  0  0  0
    1.5853   -2.5168   -0.1029 H   0  0  0  0  0  0  0  0  0  0  0  0
  1  2  3  0
  1  5  1  0
  2  3  1  0
  3  4  1  0
  3  6  1  0
  3  7  1  0
  4  8  1  0
  4  9  1  0
  4 10  1  0
 11 12  2  3
 11 15  1  0
 11 16  1  0
 12 13  1  0
 12 17  1  0
 13 14  1  0
 13 18  1  0
 14 19  1  0
 14 20  1  0
 14 21  1  0
M  RAD  1  13   2
M  END
>  <reaction>  (12) 
rxn_1263

>  <mol_properties>  (12) 
{"1": {"label": "*4", "atom_type": "Ct"}, "2": {"label": "*3", "atom_type": "Cs"}, "5": {"label": "*2", "atom_type": "H0"}, "11": {"label": "*0", "atom_type": "Cd"}, "12": {"label": "*1", "atom_type": "Cs"}}

>  <type>  (12) 
unop_8

>  <geom_source>  (12) 
Heuristics

$$$$

     RDKit          3D

 21 19  0  0  0  0  0  0  0  0999 V2000
   -1.0313    0.9475   -2.6478 C   0  0  0  0  0  0  0  0  0  0  0  0
   -1.0313    0.9475   -1.4501 C   0  0  0  0  0  0  0  0  0  0  0  0
   -1.0313    0.9757    0.0091 C   0  0  0  0  0  0  0  0  0  0  0  0
   -1.0313    2.3971    0.5747 C   0  0  0  0  0  0  0  0  0  0  0  0
   -1.0313    0.9475   -3.7111 H   0  0  0  0  0  0  0  0  0  0  0  0
    0.0193    0.3216    0.4432 H   0  0  0  0  0  0  0  0  0  0  0  0
   -1.9068    0.4306    0.3708 H   0  0  0  0  0  0  0  0  0  0  0  0
   -1.9135    2.9450    0.2432 H   0  0  0  0  0  0  0  0  0  0  0  0
   -1.0313    2.3698    1.6650 H   0  0  0  0  0  0  0  0  0  0  0  0
   -0.1491    2.9449    0.2432 H   0  0  0  0  0  0  0  0  0  0  0  0
    1.1750   -2.7017    0.0103 C   0  0  0  0  0  0  0  0  0  0  0  0
    1.4011   -1.4034   -0.1206 C   0  0  0  0  0  0  0  0  0  0  0  0
    1.0724   -0.3341    0.8782 C   0  0  0  0  0  3  0  0  0  0  0  0
    0.4139   -0.8118    2.1628 C   0  0  0  0  0  0  0  0  0  0  0  0
    1.4502   -3.3983   -0.7714 H   0  0  0  0  0  0  0  0  0  0  0  0
    0.7101   -3.1206    0.8950 H   0  0  0  0  0  0  0  0  0  0  0  0
    1.8714   -1.0489   -1.0344 H   0  0  0  0  0  0  0  0  0  0  0  0
    1.9958    0.2055    1.1157 H   0  0  0  0  0  0  0  0  0  0  0  0
    1.0548   -1.5144    2.6990 H   0  0  0  0  0  0  0  0  0  0  0  0
    0.2124    0.0300    2.8261 H   0  0  0  0  0  0  0  0  0  0  0  0
   -0.5348   -1.3122    1.9593 H   0  0  0  0  0  0  0  0  0  0  0  0
  1  2  3  0
  1  5  1  0
  2  3  1  0
  3  4  1  0
  3  6  1  0
  3  7  1  0
  4  8  1  0
  4  9  1  0
  4 10  1  0
 11 12  2  3
 11 15  1  0
 11 16  1  0
 12 13  1  0
 12 17  1  0
 13 14  1  0
 13 18  1  0
 14 19  1  0
 14 20  1  0
 14 21  1  0
M  RAD  1  13   2
M  END
>  <reaction>  (13) 
rxn_1263

>  <mol_properties>  (13) 
{"1": {"label": "*4", "atom_type": "Ct"}, "2": {"label": "*3", "atom_type": "Cs"}, "5": {"label": "*2", "atom_type": "H0"}, "11": {"label": "*0", "atom_type": "Cd"}, "12": {"label": "*1", "atom_type": "Cs"}}

>  <type>  (13) 
unop_9

>  <geom_source>  (13) 
Heuristics

$$$$

     RDKit          3D

 21 19  0  0  0  0  0  0  0  0999 V2000
   -1.5471    0.5512   -2.5935 C   0  0  0  0  0  0  0  0  0  0  0  0
   -1.5471    0.5512   -1.3958 C   0  0  0  0  0  0  0  0  0  0  0  0
   -1.5471    0.5794    0.0634 C   0  0  0  0  0  0  0  0  0  0  0  0
   -1.5471    2.0008    0.6290 C   0  0  0  0  0  0  0  0  0  0  0  0
   -1.5471    0.5512   -3.6568 H   0  0  0  0  0  0  0  0  0  0  0  0
   -0.4965   -0.0747    0.4974 H   0  0  0  0  0  0  0  0  0  0  0  0
   -2.4226    0.0344    0.4251 H   0  0  0  0  0  0  0  0  0  0  0  0
   -2.4293    2.5487    0.2975 H   0  0  0  0  0  0  0  0  0  0  0  0
   -1.5471    1.9735    1.7192 H   0  0  0  0  0  0  0  0  0  0  0  0
   -0.6648    2.5486    0.2975 H   0  0  0  0  0  0  0  0  0  0  0  0
    2.9678   -0.6098    0.1968 C   0  0  0  0  0  0  0  0  0  0  0  0
    1.7821   -0.0539    0.3941 C   0  0  0  0  0  0  0  0  0  0  0  0
    0.5566   -0.7304    0.9325 C   0  0  0  0  0  3  0  0  0  0  0  0
    0.7149   -2.2022    1.2799 C   0  0  0  0  0  0  0  0  0  0  0  0
    3.7956   -0.0348   -0.1984 H   0  0  0  0  0  0  0  0  0  0  0  0
    3.1609   -1.6525    0.4193 H   0  0  0  0  0  0  0  0  0  0  0  0
    1.6557    0.9979    0.1497 H   0  0  0  0  0  0  0  0  0  0  0  0
    0.2228   -0.1765    1.8168 H   0  0  0  0  0  0  0  0  0  0  0  0
    1.4799   -2.3486    2.0449 H   0  0  0  0  0  0  0  0  0  0  0  0
   -0.2221   -2.6086    1.6619 H   0  0  0  0  0  0  0  0  0  0  0  0
    1.0011   -2.7874    0.4038 H   0  0  0  0  0  0  0  0  0  0  0  0
  1  2  3  0
  1  5  1  0
  2  3  1  0
  3  4  1  0
  3  6  1  0
  3  7  1  0
  4  8  1  0
  4  9  1  0
  4 10  1  0
 11 12  2  3
 11 15  1  0
 11 16  1  0
 12 13  1  0
 12 17  1  0
 13 14  1  0
 13 18  1  0
 14 19  1  0
 14 20  1  0
 14 21  1  0
M  RAD  1  13   2
M  END
>  <reaction>  (14) 
rxn_1263

>  <mol_properties>  (14) 
{"1": {"label": "*4", "atom_type": "Ct"}, "2": {"label": "*3", "atom_type": "Cs"}, "5": {"label": "*2", "atom_type": "H0"}, "11": {"label": "*0", "atom_type": "Cd"}, "12": {"label": "*1", "atom_type": "Cs"}}

>  <type>  (14) 
unop_10

>  <geom_source>  (14) 
Heuristics

$$$$

     RDKit          3D

 21 19  0  0  0  0  0  0  0  0999 V2000
   -1.1225    0.3466   -3.1907 C   0  0  0  0  0  0  0  0  0  0  0  0
   -1.1225    0.3466   -1.9930 C   0  0  0  0  0  0  0  0  0  0  0  0
   -1.1225    0.3748   -0.5338 C   0  0  0  0  0  0  0  0  0  0  0  0
   -1.1225    1.7962    0.0318 C   0  0  0  0  0  0  0  0  0  0  0  0
   -1.1225    0.3466   -4.2540 H   0  0  0  0  0  0  0  0  0  0  0  0
   -0.0720   -0.2793   -0.0998 H   0  0  0  0  0  0  0  0  0  0  0  0
   -1.9981   -0.1702   -0.1721 H   0  0  0  0  0  0  0  0  0  0  0  0
   -2.0048    2.3441   -0.2997 H   0  0  0  0  0  0  0  0  0  0  0  0
   -1.1225    1.7689    1.1221 H   0  0  0  0  0  0  0  0  0  0  0  0
   -0.2403    2.3441   -0.2997 H   0  0  0  0  0  0  0  0  0  0  0  0
    0.9118   -1.0244    2.8566 C   0  0  0  0  0  0  0  0  0  0  0  0
    0.6390   -1.5361    1.6660 C   0  0  0  0  0  0  0  0  0  0  0  0
    0.9812   -0.9350    0.3353 C   0  0  0  0  0  3  0  0  0  0  0  0
    1.7150    0.3959    0.3823 C   0  0  0  0  0  0  0  0  0  0  0  0
    0.6217   -1.5371    3.7649 H   0  0  0  0  0  0  0  0  0  0  0  0
    1.4314   -0.0808    2.9742 H   0  0  0  0  0  0  0  0  0  0  0  0
    0.1146   -2.4873    1.6186 H   0  0  0  0  0  0  0  0  0  0  0  0
    1.5761   -1.6646   -0.2250 H   0  0  0  0  0  0  0  0  0  0  0  0
    2.6682    0.3044    0.9067 H   0  0  0  0  0  0  0  0  0  0  0  0
    1.9214    0.7555   -0.6263 H   0  0  0  0  0  0  0  0  0  0  0  0
    1.1229    1.1569    0.8944 H   0  0  0  0  0  0  0  0  0  0  0  0
  1  2  3  0
  1  5  1  0
  2  3  1  0
  3  4  1  0
  3  6  1  0
  3  7  1  0
  4  8  1  0
  4  9  1  0
  4 10  1  0
 11 12  2  3
 11 15  1  0
 11 16  1  0
 12 13  1  0
 12 17  1  0
 13 14  1  0
 13 18  1  0
 14 19  1  0
 14 20  1  0
 14 21  1  0
M  RAD  1  13   2
M  END
>  <reaction>  (15) 
rxn_1263

>  <mol_properties>  (15) 
{"1": {"label": "*4", "atom_type": "Ct"}, "2": {"label": "*3", "atom_type": "Cs"}, "5": {"label": "*2", "atom_type": "H0"}, "11": {"label": "*0", "atom_type": "Cd"}, "12": {"label": "*1", "atom_type": "Cs"}}

>  <type>  (15) 
unop_11

>  <geom_source>  (15) 
Heuristics

$$$$

     RDKit          3D

 21 19  0  0  0  0  0  0  0  0999 V2000
   -1.2413    0.8802   -2.5107 C   0  0  0  0  0  0  0  0  0  0  0  0
   -1.2413    0.8802   -1.3130 C   0  0  0  0  0  0  0  0  0  0  0  0
   -1.2413    0.9084    0.1462 C   0  0  0  0  0  0  0  0  0  0  0  0
   -1.2413    2.3298    0.7118 C   0  0  0  0  0  0  0  0  0  0  0  0
   -1.2413    0.8802   -3.5740 H   0  0  0  0  0  0  0  0  0  0  0  0
   -0.1907    0.2543    0.5802 H   0  0  0  0  0  0  0  0  0  0  0  0
   -2.1168    0.3633    0.5079 H   0  0  0  0  0  0  0  0  0  0  0  0
   -2.1235    2.8777    0.3803 H   0  0  0  0  0  0  0  0  0  0  0  0
   -1.2413    2.3025    1.8020 H   0  0  0  0  0  0  0  0  0  0  0  0
   -0.3590    2.8776    0.3803 H   0  0  0  0  0  0  0  0  0  0  0  0
    1.9460   -2.1627   -0.4314 C   0  0  0  0  0  0  0  0  0  0  0  0
    1.6231   -0.9041   -0.1753 C   0  0  0  0  0  0  0  0  0  0  0  0
    0.8624   -0.4014    1.0153 C   0  0  0  0  0  3  0  0  0  0  0  0
    0.4284   -1.4609    2.0157 C   0  0  0  0  0  0  0  0  0  0  0  0
    2.5002   -2.4270   -1.3231 H   0  0  0  0  0  0  0  0  0  0  0  0
    1.6735   -2.9751    0.2318 H   0  0  0  0  0  0  0  0  0  0  0  0
    1.9276   -0.1368   -0.8828 H   0  0  0  0  0  0  0  0  0  0  0  0
    1.4780    0.3517    1.5194 H   0  0  0  0  0  0  0  0  0  0  0  0
    1.2885   -1.9901    2.4305 H   0  0  0  0  0  0  0  0  0  0  0  0
   -0.1155   -1.0058    2.8442 H   0  0  0  0  0  0  0  0  0  0  0  0
   -0.2270   -2.1999    1.5508 H   0  0  0  0  0  0  0  0  0  0  0  0
  1  2  3  0
  1  5  1  0
  2  3  1  0
  3  4  1  0
  3  6  1  0
  3  7  1  0
  4  8  1  0
  4  9  1  0
  4 10  1  0
 11 12  2  3
 11 15  1  0
 11 16  1  0
 12 13  1  0
 12 17  1  0
 13 14  1  0
 13 18  1  0
 14 19  1  0
 14 20  1  0
 14 21  1  0
M  RAD  1  13   2
M  END
>  <reaction>  (16) 
rxn_1263

>  <mol_properties>  (16) 
{"1": {"label": "*4", "atom_type": "Ct"}, "2": {"label": "*3", "atom_type": "Cs"}, "5": {"label": "*2", "atom_type": "H0"}, "11": {"label": "*0", "atom_type": "Cd"}, "12": {"label": "*1", "atom_type": "Cs"}}

>  <type>  (16) 
unop_12

>  <geom_source>  (16) 
Heuristics

$$$$

     RDKit          3D

 21 19  0  0  0  0  0  0  0  0999 V2000
   -1.0136   -0.5905   -0.4932 C   0  0  0  0  0  3  0  0  0  0  0  0
   -0.9675   -2.0961   -0.2610 C   0  0  0  0  0  0  0  0  0  0  0  0
    1.6737    1.4985    1.2030 C   0  0  0  0  0  0  0  0  0  0  0  0
   -2.2777    0.0103    0.0544 C   0  0  0  0  0  0  0  0  0  0  0  0
    1.2330    0.6826   -0.0035 C   0  0  0  0  0  0  0  0  0  0  0  0
   -2.4950    1.3249   -0.0202 C   0  0  0  0  0  0  0  0  0  0  0  0
    2.3206   -0.1836   -0.4710 C   0  0  0  0  0  0  0  0  0  0  0  0
    3.2139   -0.8959   -0.8558 C   0  0  0  0  0  0  0  0  0  0  0  0
   -0.9499   -0.3878   -1.5843 H   0  0  0  0  0  0  0  0  0  0  0  0
    0.0681   -0.0119    0.1269 H   0  0  0  0  0  0  0  0  0  0  0  0
   -1.0062   -2.3171    0.8268 H   0  0  0  0  0  0  0  0  0  0  0  0
   -1.8215   -2.5921   -0.7701 H   0  0  0  0  0  0  0  0  0  0  0  0
   -0.0205   -2.5038   -0.6724 H   0  0  0  0  0  0  0  0  0  0  0  0
    1.9652    0.8239    2.0360 H   0  0  0  0  0  0  0  0  0  0  0  0
    0.8304    2.1354    1.5421 H   0  0  0  0  0  0  0  0  0  0  0  0
    2.5324    2.1521    0.9372 H   0  0  0  0  0  0  0  0  0  0  0  0
   -3.0280   -0.6214    0.5229 H   0  0  0  0  0  0  0  0  0  0  0  0
    0.9203    1.3597   -0.8261 H   0  0  0  0  0  0  0  0  0  0  0  0
   -1.7658    1.9860   -0.4792 H   0  0  0  0  0  0  0  0  0  0  0  0
   -3.4103    1.7480    0.3808 H   0  0  0  0  0  0  0  0  0  0  0  0
    3.9982   -1.5211   -1.1934 H   0  0  0  0  0  0  0  0  0  0  0  0
  1  2  1  0
  1  4  1  0
  1  9  1  0
  2 11  1  0
  2 12  1  0
  2 13  1  0
  3  5  1  0
  3 14  1  0
  3 15  1  0
  3 16  1  0
  4  6  2  3
  4 17  1  0
  5  7  1  0
  5 10  1  0
  5 18  1  0
  6 19  1  0
  6 20  1  0
  7  8  3  0
  8 21  1  0
M  RAD  1   1   2
M  END
>  <reaction>  (17) 
rxn_1263

>  <mol_properties>  (17) 
{"1": {"label": "*4", "atom_type": "Ct"}, "2": {"label": "*3", "atom_type": "Cs"}, "5": {"label": "*2", "atom_type": "H0"}, "11": {"label": "*0", "atom_type": "Cd"}, "12": {"label": "*1", "atom_type": "Cs"}}

>  <type>  (17) 
unop_13

>  <geom_source>  (17) 
AutoTST

$$$$
