
     RDKit          3D

  9  8  0  0  0  0  0  0  0  0999 V2000
   -0.8818   -0.3578    0.1297 C   0  0  0  0  0  0  0  0  0  0  0  0
    0.6153   -0.3021   -0.1188 C   0  0  0  0  0  0  0  0  0  0  0  0
    1.5354   -1.7170    0.5545 S   0  0  0  0  0  0  0  0  0  0  0  0
   -1.1018   -0.3317    1.1984 H   0  0  0  0  0  0  0  0  0  0  0  0
   -1.3114   -1.2723   -0.2799 H   0  0  0  0  0  0  0  0  0  0  0  0
   -1.3767    0.4976   -0.3363 H   0  0  0  0  0  0  0  0  0  0  0  0
    1.0467    0.6194    0.2718 H   0  0  0  0  0  0  0  0  0  0  0  0
    0.8295   -0.3275   -1.1882 H   0  0  0  0  0  0  0  0  0  0  0  0
    1.2306   -1.5077    1.8423 H   0  0  0  0  0  0  0  0  0  0  0  0
  1  2  1  0
  1  4  1  0
  1  5  1  0
  1  6  1  0
  2  3  1  0
  2  7  1  0
  2  8  1  0
  3  9  1  0
M  END
>  <reaction>  (1) 
rxn_1898

>  <mol_properties>  (1) 
{"1": {"label": "donator", "atom_type": "Cs"}, "6": {"label": "d_hydrogen", "atom_type": "H0"}}

>  <type>  (1) 
r1h

$$$$

     RDKit          3D

 10  9  0  0  0  0  0  0  0  0999 V2000
   -1.2648    0.1959    0.8197 C   0  0  0  0  0  0  0  0  0  0  0  0
   -0.2805    0.0995   -0.3030 C   0  0  0  0  0  3  0  0  0  0  0  0
   -0.0444    1.1347   -1.1797 C   0  0  0  0  0  0  0  0  0  0  0  0
    0.1640    2.0467   -1.9525 C   0  0  0  0  0  0  0  0  0  0  0  0
    0.5686   -1.4168   -0.4488 S   0  0  0  0  0  0  0  0  0  0  0  0
   -2.0466   -0.5638    0.7258 H   0  0  0  0  0  0  0  0  0  0  0  0
   -0.7765    0.0454    1.7871 H   0  0  0  0  0  0  0  0  0  0  0  0
   -1.7371    1.1762    0.8222 H   0  0  0  0  0  0  0  0  0  0  0  0
    0.3433    2.8484   -2.6273 H   0  0  0  0  0  0  0  0  0  0  0  0
    1.3075   -1.0953   -1.5176 H   0  0  0  0  0  0  0  0  0  0  0  0
  1  2  1  0
  1  6  1  0
  1  7  1  0
  1  8  1  0
  2  3  1  0
  2  5  1  0
  3  4  3  0
  4  9  1  0
  5 10  1  0
M  RAD  1   2   2
M  END
>  <reaction>  (2) 
rxn_1898

>  <mol_properties>  (2) 
{"1": {"label": "acceptor", "atom_type": "Cs"}}

>  <type>  (2) 
r2

$$$$

     RDKit          3D

 11 10  0  0  0  0  0  0  0  0999 V2000
   -1.2582   -0.5130    0.2160 C   0  0  0  0  0  0  0  0  0  0  0  0
   -0.1109    0.0509   -0.6210 C   0  0  0  0  0  0  0  0  0  0  0  0
    1.1862   -0.2025   -0.0072 C   0  0  0  0  0  0  0  0  0  0  0  0
    2.2351   -0.4206    0.5274 C   0  0  0  0  0  0  0  0  0  0  0  0
   -0.3298    1.8272   -1.0120 S   0  0  0  0  0  0  0  0  0  0  0  0
   -1.2875   -0.0327    1.1945 H   0  0  0  0  0  0  0  0  0  0  0  0
   -2.2088   -0.3391   -0.2866 H   0  0  0  0  0  0  0  0  0  0  0  0
   -1.1220   -1.5854    0.3655 H   0  0  0  0  0  0  0  0  0  0  0  0
   -0.1222   -0.4181   -1.6078 H   0  0  0  0  0  0  0  0  0  0  0  0
    3.1729   -0.6098    0.9920 H   0  0  0  0  0  0  0  0  0  0  0  0
   -0.1942    2.2663    0.2466 H   0  0  0  0  0  0  0  0  0  0  0  0
  1  2  1  0
  1  6  1  0
  1  7  1  0
  1  8  1  0
  2  3  1  0
  2  5  1  0
  2  9  1  0
  3  4  3  0
  4 10  1  0
  5 11  1  0
M  END
>  <reaction>  (3) 
rxn_1898

>  <mol_properties>  (3) 
{"1": {"label": "acceptor", "atom_type": "Cs"}, "10": {"label": "a_hydrogen", "atom_type": "H0"}}

>  <type>  (3) 
r2h

$$$$

     RDKit          3D

 19 17  0  0  0  0  0  0  0  0999 V2000
    0.3826   -0.7483    2.1317 C   0  0  0  0  0  0  0  0  0  0  0  0
    0.5781   -0.8426    0.6309 C   0  0  0  0  0  0  0  0  0  0  0  0
    0.4946   -2.1552    0.0688 C   0  0  0  0  0  0  0  0  0  0  0  0
    0.3651   -3.2369   -0.4380 C   0  0  0  0  0  0  0  0  0  0  0  0
    2.0221    0.1060    0.1085 S   0  0  0  0  0  0  0  0  0  0  0  0
    1.2042   -1.2243    2.6709 H   0  0  0  0  0  0  0  0  0  0  0  0
    0.3175    0.2976    2.4363 H   0  0  0  0  0  0  0  0  0  0  0  0
   -0.5466   -1.2455    2.4104 H   0  0  0  0  0  0  0  0  0  0  0  0
    0.2665   -4.2023   -0.8727 H   0  0  0  0  0  0  0  0  0  0  0  0
    2.0480   -0.3324   -1.1562 H   0  0  0  0  0  0  0  0  0  0  0  0
   -1.2413    0.4664   -1.8690 C   0  0  0  0  0  0  0  0  0  0  0  0
   -1.4743    0.5743   -0.3876 C   0  0  0  0  0  3  0  0  0  0  0  0
   -1.3845    2.1686    0.3673 S   0  0  0  0  0  0  0  0  0  0  0  0
   -0.2797    0.9066   -2.1424 H   0  0  0  0  0  0  0  0  0  0  0  0
   -2.0193    0.9842   -2.4370 H   0  0  0  0  0  0  0  0  0  0  0  0
   -1.2331   -0.5828   -2.1716 H   0  0  0  0  0  0  0  0  0  0  0  0
   -0.4434   -0.1883    0.1526 H   0  0  0  0  0  0  0  0  0  0  0  0
   -2.3648    0.0642   -0.0248 H   0  0  0  0  0  0  0  0  0  0  0  0
   -0.2037    2.5253   -0.1603 H   0  0  0  0  0  0  0  0  0  0  0  0
  1  2  1  0
  1  6  1  0
  1  7  1  0
  1  8  1  0
  2  3  1  0
  2  5  1  0
  2 17  1  0
  3  4  3  0
  4  9  1  0
  5 10  1  0
 11 12  1  0
 11 14  1  0
 11 15  1  0
 11 16  1  0
 12 13  1  0
 12 18  1  0
 13 19  1  0
M  RAD  1  12   2
M  END
>  <reaction>  (4) 
rxn_1898

>  <mol_properties>  (4) 
{"1": {"label": "*1", "atom_type": "Cs"}, "4": {"label": "*0", "atom_type": "S2s"}, "11": {"label": "*3", "atom_type": "Cs"}, "12": {"label": "*4", "atom_type": "S2s"}, "16": {"label": "*2", "atom_type": "H0"}}

>  <type>  (4) 
ts

$$$$

     RDKit          3D

 19 17  0  0  0  0  0  0  0  0999 V2000
    1.6911    0.3168    1.1306 C   0  0  0  0  0  0  0  0  0  0  0  0
    0.8232   -0.6059    0.2761 C   0  0  0  0  0  3  0  0  0  0  0  0
   -0.3363   -1.0961    1.0100 C   0  0  0  0  0  0  0  0  0  0  0  0
   -1.2744   -1.4864    1.6435 C   0  0  0  0  0  0  0  0  0  0  0  0
    1.7762   -1.9834   -0.4655 S   0  0  0  0  0  0  0  0  0  0  0  0
    2.0846   -0.2217    1.9933 H   0  0  0  0  0  0  0  0  0  0  0  0
    2.5276    0.6937    0.5434 H   0  0  0  0  0  0  0  0  0  0  0  0
    1.0993    1.1586    1.4939 H   0  0  0  0  0  0  0  0  0  0  0  0
   -2.1076   -1.8331    2.2061 H   0  0  0  0  0  0  0  0  0  0  0  0
    2.0482   -2.6048    0.6899 H   0  0  0  0  0  0  0  0  0  0  0  0
   -1.2033    0.7546   -2.1920 C   0  0  0  0  0  0  0  0  0  0  0  0
   -1.2033    0.7546   -0.6734 C   0  0  0  0  0  0  0  0  0  0  0  0
   -1.2033    2.4120    0.0716 S   0  0  0  0  0  0  0  0  0  0  0  0
   -0.2966    1.2200   -2.5828 H   0  0  0  0  0  0  0  0  0  0  0  0
   -2.0592    1.3058   -2.5821 H   0  0  0  0  0  0  0  0  0  0  0  0
   -1.2463   -0.2687   -2.5723 H   0  0  0  0  0  0  0  0  0  0  0  0
   -0.1914    0.0753   -0.1992 H   0  0  0  0  0  0  0  0  0  0  0  0
   -2.1109    0.2876   -0.2882 H   0  0  0  0  0  0  0  0  0  0  0  0
   -0.0285    2.8137   -0.4319 H   0  0  0  0  0  0  0  0  0  0  0  0
  1  2  1  0
  1  6  1  0
  1  7  1  0
  1  8  1  0
  2  3  1  0
  2  5  1  0
  3  4  3  0
  4  9  1  0
  5 10  1  0
 11 12  1  0
 11 14  1  0
 11 15  1  0
 11 16  1  0
 12 13  1  0
 12 17  1  0
 12 18  1  0
 13 19  1  0
M  RAD  1   2   2
M  END
>  <reaction>  (5) 
rxn_1898

>  <mol_properties>  (5) 
{"1": {"label": "*1", "atom_type": "Cs"}, "4": {"label": "*0", "atom_type": "S2s"}, "11": {"label": "*3", "atom_type": "Cs"}, "12": {"label": "*4", "atom_type": "S2s"}, "16": {"label": "*2", "atom_type": "H0"}}

>  <type>  (5) 
unop_1

>  <geom_source>  (5) 
Heuristics

$$$$

     RDKit          3D

 19 17  0  0  0  0  0  0  0  0999 V2000
    1.9077   -0.7010   -0.8915 C   0  0  0  0  0  0  0  0  0  0  0  0
    0.7409   -0.7867    0.0913 C   0  0  0  0  0  3  0  0  0  0  0  0
    0.9179    0.1105    1.2258 C   0  0  0  0  0  0  0  0  0  0  0  0
    1.0974    0.8529    2.1479 C   0  0  0  0  0  0  0  0  0  0  0  0
    0.4065   -2.5018    0.6413 S   0  0  0  0  0  0  0  0  0  0  0  0
    2.8364   -1.0049   -0.4074 H   0  0  0  0  0  0  0  0  0  0  0  0
    1.7282   -1.3553   -1.7437 H   0  0  0  0  0  0  0  0  0  0  0  0
    2.0262    0.3247   -1.2450 H   0  0  0  0  0  0  0  0  0  0  0  0
    1.2569    1.5122    2.9669 H   0  0  0  0  0  0  0  0  0  0  0  0
    1.5494   -2.6565    1.3233 H   0  0  0  0  0  0  0  0  0  0  0  0
   -1.2856    0.5738   -2.3769 C   0  0  0  0  0  0  0  0  0  0  0  0
   -1.2856    0.5738   -0.8583 C   0  0  0  0  0  0  0  0  0  0  0  0
   -1.2856    2.2311   -0.1133 S   0  0  0  0  0  0  0  0  0  0  0  0
   -0.3790    1.0392   -2.7677 H   0  0  0  0  0  0  0  0  0  0  0  0
   -2.1416    1.1250   -2.7670 H   0  0  0  0  0  0  0  0  0  0  0  0
   -1.3287   -0.4496   -2.7572 H   0  0  0  0  0  0  0  0  0  0  0  0
   -0.2737   -0.1056   -0.3841 H   0  0  0  0  0  0  0  0  0  0  0  0
   -2.1932    0.1067   -0.4731 H   0  0  0  0  0  0  0  0  0  0  0  0
   -0.1108    2.6328   -0.6168 H   0  0  0  0  0  0  0  0  0  0  0  0
  1  2  1  0
  1  6  1  0
  1  7  1  0
  1  8  1  0
  2  3  1  0
  2  5  1  0
  3  4  3  0
  4  9  1  0
  5 10  1  0
 11 12  1  0
 11 14  1  0
 11 15  1  0
 11 16  1  0
 12 13  1  0
 12 17  1  0
 12 18  1  0
 13 19  1  0
M  RAD  1   2   2
M  END
>  <reaction>  (6) 
rxn_1898

>  <mol_properties>  (6) 
{"1": {"label": "*1", "atom_type": "Cs"}, "4": {"label": "*0", "atom_type": "S2s"}, "11": {"label": "*3", "atom_type": "Cs"}, "12": {"label": "*4", "atom_type": "S2s"}, "16": {"label": "*2", "atom_type": "H0"}}

>  <type>  (6) 
unop_2

>  <geom_source>  (6) 
Heuristics

$$$$

     RDKit          3D

 19 17  0  0  0  0  0  0  0  0999 V2000
    1.1296   -0.0209    1.7767 C   0  0  0  0  0  0  0  0  0  0  0  0
    0.7152   -0.6118    0.4299 C   0  0  0  0  0  3  0  0  0  0  0  0
   -0.2482   -1.6942    0.5838 C   0  0  0  0  0  0  0  0  0  0  0  0
   -1.0330   -2.5840    0.7456 C   0  0  0  0  0  0  0  0  0  0  0  0
    2.1498   -1.1329   -0.5832 S   0  0  0  0  0  0  0  0  0  0  0  0
    1.6202   -0.7777    2.3897 H   0  0  0  0  0  0  0  0  0  0  0  0
    1.8209    0.8072    1.6253 H   0  0  0  0  0  0  0  0  0  0  0  0
    0.2512    0.3385    2.3152 H   0  0  0  0  0  0  0  0  0  0  0  0
   -1.7299   -3.3742    0.8894 H   0  0  0  0  0  0  0  0  0  0  0  0
    2.5338   -2.1339    0.2205 H   0  0  0  0  0  0  0  0  0  0  0  0
   -1.3113    0.7487   -2.0383 C   0  0  0  0  0  0  0  0  0  0  0  0
   -1.3113    0.7487   -0.5196 C   0  0  0  0  0  0  0  0  0  0  0  0
   -1.3113    2.4060    0.2254 S   0  0  0  0  0  0  0  0  0  0  0  0
   -0.4047    1.2141   -2.4290 H   0  0  0  0  0  0  0  0  0  0  0  0
   -2.1673    1.2999   -2.4284 H   0  0  0  0  0  0  0  0  0  0  0  0
   -1.3544   -0.2747   -2.4186 H   0  0  0  0  0  0  0  0  0  0  0  0
   -0.2994    0.0693   -0.0455 H   0  0  0  0  0  0  0  0  0  0  0  0
   -2.2189    0.2816   -0.1345 H   0  0  0  0  0  0  0  0  0  0  0  0
   -0.1365    2.8077   -0.2782 H   0  0  0  0  0  0  0  0  0  0  0  0
  1  2  1  0
  1  6  1  0
  1  7  1  0
  1  8  1  0
  2  3  1  0
  2  5  1  0
  3  4  3  0
  4  9  1  0
  5 10  1  0
 11 12  1  0
 11 14  1  0
 11 15  1  0
 11 16  1  0
 12 13  1  0
 12 17  1  0
 12 18  1  0
 13 19  1  0
M  RAD  1   2   2
M  END
>  <reaction>  (7) 
rxn_1898

>  <mol_properties>  (7) 
{"1": {"label": "*1", "atom_type": "Cs"}, "4": {"label": "*0", "atom_type": "S2s"}, "11": {"label": "*3", "atom_type": "Cs"}, "12": {"label": "*4", "atom_type": "S2s"}, "16": {"label": "*2", "atom_type": "H0"}}

>  <type>  (7) 
unop_3

>  <geom_source>  (7) 
Heuristics

$$$$

     RDKit          3D

 19 17  0  0  0  0  0  0  0  0999 V2000
    0.6557   -2.3929   -0.4376 C   0  0  0  0  0  0  0  0  0  0  0  0
    0.7467   -0.9486    0.0529 C   0  0  0  0  0  3  0  0  0  0  0  0
    2.1245   -0.5433    0.2992 C   0  0  0  0  0  0  0  0  0  0  0  0
    3.2668   -0.2447    0.4987 C   0  0  0  0  0  0  0  0  0  0  0  0
   -0.3145   -0.6310    1.5120 S   0  0  0  0  0  0  0  0  0  0  0  0
    1.0416   -3.0769    0.3188 H   0  0  0  0  0  0  0  0  0  0  0  0
   -0.3814   -2.6527   -0.6463 H   0  0  0  0  0  0  0  0  0  0  0  0
    1.2471   -2.5188   -1.3460 H   0  0  0  0  0  0  0  0  0  0  0  0
    4.2813    0.0204    0.6759 H   0  0  0  0  0  0  0  0  0  0  0  0
    0.3715   -1.4116    2.3577 H   0  0  0  0  0  0  0  0  0  0  0  0
   -1.2799    0.4119   -2.4153 C   0  0  0  0  0  0  0  0  0  0  0  0
   -1.2799    0.4119   -0.8967 C   0  0  0  0  0  0  0  0  0  0  0  0
   -1.2799    2.0692   -0.1517 S   0  0  0  0  0  0  0  0  0  0  0  0
   -0.3732    0.8773   -2.8061 H   0  0  0  0  0  0  0  0  0  0  0  0
   -2.1358    0.9631   -2.8054 H   0  0  0  0  0  0  0  0  0  0  0  0
   -1.3229   -0.6115   -2.7956 H   0  0  0  0  0  0  0  0  0  0  0  0
   -0.2680   -0.2675   -0.4225 H   0  0  0  0  0  0  0  0  0  0  0  0
   -2.1875   -0.0552   -0.5115 H   0  0  0  0  0  0  0  0  0  0  0  0
   -0.1051    2.4709   -0.6552 H   0  0  0  0  0  0  0  0  0  0  0  0
  1  2  1  0
  1  6  1  0
  1  7  1  0
  1  8  1  0
  2  3  1  0
  2  5  1  0
  3  4  3  0
  4  9  1  0
  5 10  1  0
 11 12  1  0
 11 14  1  0
 11 15  1  0
 11 16  1  0
 12 13  1  0
 12 17  1  0
 12 18  1  0
 13 19  1  0
M  RAD  1   2   2
M  END
>  <reaction>  (8) 
rxn_1898

>  <mol_properties>  (8) 
{"1": {"label": "*1", "atom_type": "Cs"}, "4": {"label": "*0", "atom_type": "S2s"}, "11": {"label": "*3", "atom_type": "Cs"}, "12": {"label": "*4", "atom_type": "S2s"}, "16": {"label": "*2", "atom_type": "H0"}}

>  <type>  (8) 
unop_4

>  <geom_source>  (8) 
Heuristics

$$$$

     RDKit          3D

 19 17  0  0  0  0  0  0  0  0999 V2000
    0.4926   -0.7699    2.0323 C   0  0  0  0  0  0  0  0  0  0  0  0
    0.5385   -0.8008    0.5053 C   0  0  0  0  0  3  0  0  0  0  0  0
    0.4625   -2.1601   -0.0141 C   0  0  0  0  0  0  0  0  0  0  0  0
    0.4055   -3.2896   -0.4076 C   0  0  0  0  0  0  0  0  0  0  0  0
    1.9846    0.0947   -0.1751 S   0  0  0  0  0  0  0  0  0  0  0  0
    1.3482   -1.3017    2.4497 H   0  0  0  0  0  0  0  0  0  0  0  0
    0.5150    0.2598    2.3867 H   0  0  0  0  0  0  0  0  0  0  0  0
   -0.4181   -1.2531    2.3902 H   0  0  0  0  0  0  0  0  0  0  0  0
    0.3549   -4.2927   -0.7570 H   0  0  0  0  0  0  0  0  0  0  0  0
    2.9095   -0.7527    0.2956 H   0  0  0  0  0  0  0  0  0  0  0  0
   -1.4880    0.5597   -1.9629 C   0  0  0  0  0  0  0  0  0  0  0  0
   -1.4880    0.5597   -0.4442 C   0  0  0  0  0  0  0  0  0  0  0  0
   -1.4880    2.2171    0.3007 S   0  0  0  0  0  0  0  0  0  0  0  0
   -0.5813    1.0251   -2.3537 H   0  0  0  0  0  0  0  0  0  0  0  0
   -2.3439    1.1109   -2.3530 H   0  0  0  0  0  0  0  0  0  0  0  0
   -1.5310   -0.4637   -2.3432 H   0  0  0  0  0  0  0  0  0  0  0  0
   -0.4761   -0.1196    0.0299 H   0  0  0  0  0  0  0  0  0  0  0  0
   -2.3956    0.0927   -0.0591 H   0  0  0  0  0  0  0  0  0  0  0  0
   -0.3132    2.6187   -0.2028 H   0  0  0  0  0  0  0  0  0  0  0  0
  1  2  1  0
  1  6  1  0
  1  7  1  0
  1  8  1  0
  2  3  1  0
  2  5  1  0
  3  4  3  0
  4  9  1  0
  5 10  1  0
 11 12  1  0
 11 14  1  0
 11 15  1  0
 11 16  1  0
 12 13  1  0
 12 17  1  0
 12 18  1  0
 13 19  1  0
M  RAD  1   2   2
M  END
>  <reaction>  (9) 
rxn_1898

>  <mol_properties>  (9) 
{"1": {"label": "*1", "atom_type": "Cs"}, "4": {"label": "*0", "atom_type": "S2s"}, "11": {"label": "*3", "atom_type": "Cs"}, "12": {"label": "*4", "atom_type": "S2s"}, "16": {"label": "*2", "atom_type": "H0"}}

>  <type>  (9) 
unop_5

>  <geom_source>  (9) 
Heuristics

$$$$

     RDKit          3D

 19 17  0  0  0  0  0  0  0  0999 V2000
    0.2696   -2.5193    0.2824 C   0  0  0  0  0  0  0  0  0  0  0  0
    0.6856   -1.0604    0.1004 C   0  0  0  0  0  3  0  0  0  0  0  0
    2.1328   -0.9139    0.0136 C   0  0  0  0  0  0  0  0  0  0  0  0
    3.3255   -0.8275   -0.0466 C   0  0  0  0  0  0  0  0  0  0  0  0
   -0.0219    0.0401    1.3827 S   0  0  0  0  0  0  0  0  0  0  0  0
    0.6704   -2.9159    1.2158 H   0  0  0  0  0  0  0  0  0  0  0  0
   -0.8165   -2.5985    0.3075 H   0  0  0  0  0  0  0  0  0  0  0  0
    0.6549   -3.1249   -0.5397 H   0  0  0  0  0  0  0  0  0  0  0  0
    4.3849   -0.7509   -0.1001 H   0  0  0  0  0  0  0  0  0  0  0  0
    0.6702   -0.4749    2.4079 H   0  0  0  0  0  0  0  0  0  0  0  0
   -1.3409    0.3001   -2.3678 C   0  0  0  0  0  0  0  0  0  0  0  0
   -1.3409    0.3001   -0.8492 C   0  0  0  0  0  0  0  0  0  0  0  0
   -1.3409    1.9575   -0.1042 S   0  0  0  0  0  0  0  0  0  0  0  0
   -0.4343    0.7655   -2.7586 H   0  0  0  0  0  0  0  0  0  0  0  0
   -2.1969    0.8513   -2.7579 H   0  0  0  0  0  0  0  0  0  0  0  0
   -1.3840   -0.7232   -2.7481 H   0  0  0  0  0  0  0  0  0  0  0  0
   -0.3290   -0.3792   -0.3750 H   0  0  0  0  0  0  0  0  0  0  0  0
   -2.2486   -0.1669   -0.4640 H   0  0  0  0  0  0  0  0  0  0  0  0
   -0.1661    2.3592   -0.6077 H   0  0  0  0  0  0  0  0  0  0  0  0
  1  2  1  0
  1  6  1  0
  1  7  1  0
  1  8  1  0
  2  3  1  0
  2  5  1  0
  3  4  3  0
  4  9  1  0
  5 10  1  0
 11 12  1  0
 11 14  1  0
 11 15  1  0
 11 16  1  0
 12 13  1  0
 12 17  1  0
 12 18  1  0
 13 19  1  0
M  RAD  1   2   2
M  END
>  <reaction>  (10) 
rxn_1898

>  <mol_properties>  (10) 
{"1": {"label": "*1", "atom_type": "Cs"}, "4": {"label": "*0", "atom_type": "S2s"}, "11": {"label": "*3", "atom_type": "Cs"}, "12": {"label": "*4", "atom_type": "S2s"}, "16": {"label": "*2", "atom_type": "H0"}}

>  <type>  (10) 
unop_6

>  <geom_source>  (10) 
Heuristics

$$$$

     RDKit          3D

 19 17  0  0  0  0  0  0  0  0999 V2000
    0.0660   -2.2696    1.0742 C   0  0  0  0  0  0  0  0  0  0  0  0
    0.5914   -1.1170    0.2197 C   0  0  0  0  0  3  0  0  0  0  0  0
    1.9533   -1.3569   -0.2397 C   0  0  0  0  0  0  0  0  0  0  0  0
    3.0747   -1.5817   -0.5941 C   0  0  0  0  0  0  0  0  0  0  0  0
    0.4446    0.5057    1.0570 S   0  0  0  0  0  0  0  0  0  0  0  0
    0.6727   -2.3846    1.9730 H   0  0  0  0  0  0  0  0  0  0  0  0
   -0.9641   -2.0763    1.3710 H   0  0  0  0  0  0  0  0  0  0  0  0
    0.1083   -3.2037    0.5115 H   0  0  0  0  0  0  0  0  0  0  0  0
    4.0707   -1.7813   -0.9089 H   0  0  0  0  0  0  0  0  0  0  0  0
    1.3391    0.2485    2.0208 H   0  0  0  0  0  0  0  0  0  0  0  0
   -1.4351    0.2435   -2.2485 C   0  0  0  0  0  0  0  0  0  0  0  0
   -1.4351    0.2435   -0.7298 C   0  0  0  0  0  0  0  0  0  0  0  0
   -1.4351    1.9008    0.0152 S   0  0  0  0  0  0  0  0  0  0  0  0
   -0.5285    0.7089   -2.6392 H   0  0  0  0  0  0  0  0  0  0  0  0
   -2.2911    0.7947   -2.6386 H   0  0  0  0  0  0  0  0  0  0  0  0
   -1.4782   -0.7799   -2.6288 H   0  0  0  0  0  0  0  0  0  0  0  0
   -0.4232   -0.4359   -0.2557 H   0  0  0  0  0  0  0  0  0  0  0  0
   -2.3427   -0.2236   -0.3447 H   0  0  0  0  0  0  0  0  0  0  0  0
   -0.2603    2.3025   -0.4884 H   0  0  0  0  0  0  0  0  0  0  0  0
  1  2  1  0
  1  6  1  0
  1  7  1  0
  1  8  1  0
  2  3  1  0
  2  5  1  0
  3  4  3  0
  4  9  1  0
  5 10  1  0
 11 12  1  0
 11 14  1  0
 11 15  1  0
 11 16  1  0
 12 13  1  0
 12 17  1  0
 12 18  1  0
 13 19  1  0
M  RAD  1   2   2
M  END
>  <reaction>  (11) 
rxn_1898

>  <mol_properties>  (11) 
{"1": {"label": "*1", "atom_type": "Cs"}, "4": {"label": "*0", "atom_type": "S2s"}, "11": {"label": "*3", "atom_type": "Cs"}, "12": {"label": "*4", "atom_type": "S2s"}, "16": {"label": "*2", "atom_type": "H0"}}

>  <type>  (11) 
unop_7

>  <geom_source>  (11) 
Heuristics

$$$$

     RDKit          3D

 19 17  0  0  0  0  0  0  0  0999 V2000
    2.0250    0.2614    0.3389 C   0  0  0  0  0  0  0  0  0  0  0  0
    0.8322   -0.6761    0.1569 C   0  0  0  0  0  3  0  0  0  0  0  0
   -0.1098   -0.5796    1.2645 C   0  0  0  0  0  0  0  0  0  0  0  0
   -0.8593   -0.4814    2.1931 C   0  0  0  0  0  0  0  0  0  0  0  0
    1.3378   -2.4114   -0.1412 S   0  0  0  0  0  0  0  0  0  0  0  0
    2.5847   -0.0045    1.2361 H   0  0  0  0  0  0  0  0  0  0  0  0
    2.6903    0.1917   -0.5208 H   0  0  0  0  0  0  0  0  0  0  0  0
    1.6803    1.2915    0.4437 H   0  0  0  0  0  0  0  0  0  0  0  0
   -1.5250   -0.3943    3.0178 H   0  0  0  0  0  0  0  0  0  0  0  0
    1.8590   -2.6174    1.0758 H   0  0  0  0  0  0  0  0  0  0  0  0
   -1.1944    0.6844   -2.3113 C   0  0  0  0  0  0  0  0  0  0  0  0
   -1.1944    0.6844   -0.7927 C   0  0  0  0  0  0  0  0  0  0  0  0
   -1.1944    2.3418   -0.0477 S   0  0  0  0  0  0  0  0  0  0  0  0
   -0.2877    1.1499   -2.7021 H   0  0  0  0  0  0  0  0  0  0  0  0
   -2.0503    1.2356   -2.7014 H   0  0  0  0  0  0  0  0  0  0  0  0
   -1.2374   -0.3389   -2.6916 H   0  0  0  0  0  0  0  0  0  0  0  0
   -0.1824    0.0051   -0.3185 H   0  0  0  0  0  0  0  0  0  0  0  0
   -2.1020    0.2174   -0.4075 H   0  0  0  0  0  0  0  0  0  0  0  0
   -0.0195    2.7435   -0.5512 H   0  0  0  0  0  0  0  0  0  0  0  0
  1  2  1  0
  1  6  1  0
  1  7  1  0
  1  8  1  0
  2  3  1  0
  2  5  1  0
  3  4  3  0
  4  9  1  0
  5 10  1  0
 11 12  1  0
 11 14  1  0
 11 15  1  0
 11 16  1  0
 12 13  1  0
 12 17  1  0
 12 18  1  0
 13 19  1  0
M  RAD  1   2   2
M  END
>  <reaction>  (12) 
rxn_1898

>  <mol_properties>  (12) 
{"1": {"label": "*1", "atom_type": "Cs"}, "4": {"label": "*0", "atom_type": "S2s"}, "11": {"label": "*3", "atom_type": "Cs"}, "12": {"label": "*4", "atom_type": "S2s"}, "16": {"label": "*2", "atom_type": "H0"}}

>  <type>  (12) 
unop_8

>  <geom_source>  (12) 
Heuristics

$$$$

     RDKit          3D

 19 17  0  0  0  0  0  0  0  0999 V2000
    1.1184   -1.9591   -0.9196 C   0  0  0  0  0  0  0  0  0  0  0  0
    0.7560   -0.8466    0.0632 C   0  0  0  0  0  3  0  0  0  0  0  0
    1.9398   -0.1918    0.6047 C   0  0  0  0  0  0  0  0  0  0  0  0
    2.9328    0.3199    1.0358 C   0  0  0  0  0  0  0  0  0  0  0  0
   -0.3598   -1.4205    1.3980 S   0  0  0  0  0  0  0  0  0  0  0  0
    1.6924   -2.7385   -0.4175 H   0  0  0  0  0  0  0  0  0  0  0  0
    0.2136   -2.4033   -1.3324 H   0  0  0  0  0  0  0  0  0  0  0  0
    1.7251   -1.5581   -1.7332 H   0  0  0  0  0  0  0  0  0  0  0  0
    3.8147    0.7743    1.4188 H   0  0  0  0  0  0  0  0  0  0  0  0
    0.5289   -2.2337    1.9847 H   0  0  0  0  0  0  0  0  0  0  0  0
   -1.2705    0.5139   -2.4050 C   0  0  0  0  0  0  0  0  0  0  0  0
   -1.2705    0.5139   -0.8863 C   0  0  0  0  0  0  0  0  0  0  0  0
   -1.2705    2.1712   -0.1413 S   0  0  0  0  0  0  0  0  0  0  0  0
   -0.3639    0.9793   -2.7957 H   0  0  0  0  0  0  0  0  0  0  0  0
   -2.1265    1.0651   -2.7951 H   0  0  0  0  0  0  0  0  0  0  0  0
   -1.3136   -0.5095   -2.7853 H   0  0  0  0  0  0  0  0  0  0  0  0
   -0.2586   -0.1655   -0.4122 H   0  0  0  0  0  0  0  0  0  0  0  0
   -2.1781    0.0468   -0.5012 H   0  0  0  0  0  0  0  0  0  0  0  0
   -0.0957    2.5729   -0.6449 H   0  0  0  0  0  0  0  0  0  0  0  0
  1  2  1  0
  1  6  1  0
  1  7  1  0
  1  8  1  0
  2  3  1  0
  2  5  1  0
  3  4  3  0
  4  9  1  0
  5 10  1  0
 11 12  1  0
 11 14  1  0
 11 15  1  0
 11 16  1  0
 12 13  1  0
 12 17  1  0
 12 18  1  0
 13 19  1  0
M  RAD  1   2   2
M  END
>  <reaction>  (13) 
rxn_1898

>  <mol_properties>  (13) 
{"1": {"label": "*1", "atom_type": "Cs"}, "4": {"label": "*0", "atom_type": "S2s"}, "11": {"label": "*3", "atom_type": "Cs"}, "12": {"label": "*4", "atom_type": "S2s"}, "16": {"label": "*2", "atom_type": "H0"}}

>  <type>  (13) 
unop_9

>  <geom_source>  (13) 
Heuristics

$$$$

     RDKit          3D

 19 17  0  0  0  0  0  0  0  0999 V2000
    2.0895   -0.1184   -0.3904 C   0  0  0  0  0  0  0  0  0  0  0  0
    0.7872   -0.7495    0.1001 C   0  0  0  0  0  3  0  0  0  0  0  0
    0.3265   -0.1487    1.3452 C   0  0  0  0  0  0  0  0  0  0  0  0
   -0.0201    0.3612    2.3716 C   0  0  0  0  0  0  0  0  0  0  0  0
    0.8950   -2.5730    0.2376 S   0  0  0  0  0  0  0  0  0  0  0  0
    2.8871   -0.2780    0.3359 H   0  0  0  0  0  0  0  0  0  0  0  0
    2.3871   -0.5636   -1.3389 H   0  0  0  0  0  0  0  0  0  0  0  0
    1.9586    0.9568   -0.5237 H   0  0  0  0  0  0  0  0  0  0  0  0
   -0.3280    0.8141    3.2832 H   0  0  0  0  0  0  0  0  0  0  0  0
    1.7797   -2.5864    1.2438 H   0  0  0  0  0  0  0  0  0  0  0  0
   -1.2393    0.6110   -2.3681 C   0  0  0  0  0  0  0  0  0  0  0  0
   -1.2393    0.6110   -0.8494 C   0  0  0  0  0  0  0  0  0  0  0  0
   -1.2393    2.2684   -0.1044 S   0  0  0  0  0  0  0  0  0  0  0  0
   -0.3327    1.0765   -2.7588 H   0  0  0  0  0  0  0  0  0  0  0  0
   -2.0953    1.1622   -2.7582 H   0  0  0  0  0  0  0  0  0  0  0  0
   -1.2824   -0.4123   -2.7484 H   0  0  0  0  0  0  0  0  0  0  0  0
   -0.2274   -0.0683   -0.3753 H   0  0  0  0  0  0  0  0  0  0  0  0
   -2.1469    0.1440   -0.4643 H   0  0  0  0  0  0  0  0  0  0  0  0
   -0.0645    2.6701   -0.6080 H   0  0  0  0  0  0  0  0  0  0  0  0
  1  2  1  0
  1  6  1  0
  1  7  1  0
  1  8  1  0
  2  3  1  0
  2  5  1  0
  3  4  3  0
  4  9  1  0
  5 10  1  0
 11 12  1  0
 11 14  1  0
 11 15  1  0
 11 16  1  0
 12 13  1  0
 12 17  1  0
 12 18  1  0
 13 19  1  0
M  RAD  1   2   2
M  END
>  <reaction>  (14) 
rxn_1898

>  <mol_properties>  (14) 
{"1": {"label": "*1", "atom_type": "Cs"}, "4": {"label": "*0", "atom_type": "S2s"}, "11": {"label": "*3", "atom_type": "Cs"}, "12": {"label": "*4", "atom_type": "S2s"}, "16": {"label": "*2", "atom_type": "H0"}}

>  <type>  (14) 
unop_10

>  <geom_source>  (14) 
Heuristics

$$$$

     RDKit          3D

 19 17  0  0  0  0  0  0  0  0999 V2000
    0.1164   -1.6528    1.7349 C   0  0  0  0  0  0  0  0  0  0  0  0
    0.5064   -1.0455    0.3882 C   0  0  0  0  0  3  0  0  0  0  0  0
    1.4416   -1.8928   -0.3406 C   0  0  0  0  0  0  0  0  0  0  0  0
    2.2147   -2.6085   -0.9095 C   0  0  0  0  0  0  0  0  0  0  0  0
    1.1374    0.6673    0.5429 S   0  0  0  0  0  0  0  0  0  0  0  0
    0.9935   -1.7553    2.3747 H   0  0  0  0  0  0  0  0  0  0  0  0
   -0.6091   -1.0144    2.2374 H   0  0  0  0  0  0  0  0  0  0  0  0
   -0.3175   -2.6434    1.5885 H   0  0  0  0  0  0  0  0  0  0  0  0
    2.9014   -3.2442   -1.4147 H   0  0  0  0  0  0  0  0  0  0  0  0
    2.2571    0.3458    1.2048 H   0  0  0  0  0  0  0  0  0  0  0  0
   -1.5201    0.3150   -2.0800 C   0  0  0  0  0  0  0  0  0  0  0  0
   -1.5201    0.3150   -0.5614 C   0  0  0  0  0  0  0  0  0  0  0  0
   -1.5201    1.9723    0.1836 S   0  0  0  0  0  0  0  0  0  0  0  0
   -0.6135    0.7804   -2.4708 H   0  0  0  0  0  0  0  0  0  0  0  0
   -2.3761    0.8662   -2.4701 H   0  0  0  0  0  0  0  0  0  0  0  0
   -1.5632   -0.7084   -2.4603 H   0  0  0  0  0  0  0  0  0  0  0  0
   -0.5082   -0.3644   -0.0872 H   0  0  0  0  0  0  0  0  0  0  0  0
   -2.4277   -0.1521   -0.1762 H   0  0  0  0  0  0  0  0  0  0  0  0
   -0.3453    2.3740   -0.3199 H   0  0  0  0  0  0  0  0  0  0  0  0
  1  2  1  0
  1  6  1  0
  1  7  1  0
  1  8  1  0
  2  3  1  0
  2  5  1  0
  3  4  3  0
  4  9  1  0
  5 10  1  0
 11 12  1  0
 11 14  1  0
 11 15  1  0
 11 16  1  0
 12 13  1  0
 12 17  1  0
 12 18  1  0
 13 19  1  0
M  RAD  1   2   2
M  END
>  <reaction>  (15) 
rxn_1898

>  <mol_properties>  (15) 
{"1": {"label": "*1", "atom_type": "Cs"}, "4": {"label": "*0", "atom_type": "S2s"}, "11": {"label": "*3", "atom_type": "Cs"}, "12": {"label": "*4", "atom_type": "S2s"}, "16": {"label": "*2", "atom_type": "H0"}}

>  <type>  (15) 
unop_11

>  <geom_source>  (15) 
Heuristics

$$$$

     RDKit          3D

 19 17  0  0  0  0  0  0  0  0999 V2000
    1.5582   -1.3519   -1.0759 C   0  0  0  0  0  0  0  0  0  0  0  0
    0.7354   -0.7995    0.0871 C   0  0  0  0  0  3  0  0  0  0  0  0
    1.5217    0.0830    0.9392 C   0  0  0  0  0  0  0  0  0  0  0  0
    2.1977    0.7969    1.6227 C   0  0  0  0  0  0  0  0  0  0  0  0
   -0.0808   -2.1179    1.0626 S   0  0  0  0  0  0  0  0  0  0  0  0
    2.3888   -1.9522   -0.7033 H   0  0  0  0  0  0  0  0  0  0  0  0
    0.9337   -1.9775   -1.7124 H   0  0  0  0  0  0  0  0  0  0  0  0
    1.9677   -0.5323   -1.6687 H   0  0  0  0  0  0  0  0  0  0  0  0
    2.7980    1.4310    2.2298 H   0  0  0  0  0  0  0  0  0  0  0  0
    1.0472   -2.6486    1.5538 H   0  0  0  0  0  0  0  0  0  0  0  0
   -1.2911    0.5610   -2.3811 C   0  0  0  0  0  0  0  0  0  0  0  0
   -1.2911    0.5610   -0.8625 C   0  0  0  0  0  0  0  0  0  0  0  0
   -1.2911    2.2183   -0.1175 S   0  0  0  0  0  0  0  0  0  0  0  0
   -0.3845    1.0264   -2.7719 H   0  0  0  0  0  0  0  0  0  0  0  0
   -2.1471    1.1122   -2.7712 H   0  0  0  0  0  0  0  0  0  0  0  0
   -1.3342   -0.4624   -2.7614 H   0  0  0  0  0  0  0  0  0  0  0  0
   -0.2792   -0.1184   -0.3883 H   0  0  0  0  0  0  0  0  0  0  0  0
   -2.1987    0.0939   -0.4773 H   0  0  0  0  0  0  0  0  0  0  0  0
   -0.1163    2.6200   -0.6210 H   0  0  0  0  0  0  0  0  0  0  0  0
  1  2  1  0
  1  6  1  0
  1  7  1  0
  1  8  1  0
  2  3  1  0
  2  5  1  0
  3  4  3  0
  4  9  1  0
  5 10  1  0
 11 12  1  0
 11 14  1  0
 11 15  1  0
 11 16  1  0
 12 13  1  0
 12 17  1  0
 12 18  1  0
 13 19  1  0
M  RAD  1   2   2
M  END
>  <reaction>  (16) 
rxn_1898

>  <mol_properties>  (16) 
{"1": {"label": "*1", "atom_type": "Cs"}, "4": {"label": "*0", "atom_type": "S2s"}, "11": {"label": "*3", "atom_type": "Cs"}, "12": {"label": "*4", "atom_type": "S2s"}, "16": {"label": "*2", "atom_type": "H0"}}

>  <type>  (16) 
unop_12

>  <geom_source>  (16) 
Heuristics

$$$$

     RDKit          3D

 19 17  0  0  0  0  0  0  0  0999 V2000
    2.1119    0.9193   -1.2007 S   0  0  0  0  0  0  0  0  0  0  0  0
   -1.9743   -1.3283   -0.8343 S   0  0  0  0  0  0  0  0  0  0  0  0
    1.2187   -0.2279   -0.1063 C   0  0  0  0  0  0  0  0  0  0  0  0
    1.2954    0.2505    1.3405 C   0  0  0  0  0  0  0  0  0  0  0  0
   -2.3578    1.3062   -0.1412 C   0  0  0  0  0  0  0  0  0  0  0  0
   -1.2806    0.3366   -0.6006 C   0  0  0  0  0  3  0  0  0  0  0  0
    1.8062   -1.5666   -0.2319 C   0  0  0  0  0  0  0  0  0  0  0  0
    2.2876   -2.6672   -0.3352 C   0  0  0  0  0  0  0  0  0  0  0  0
   -0.0474   -0.2824   -0.4806 H   0  0  0  0  0  0  0  0  0  0  0  0
    0.7454   -0.4508    2.0039 H   0  0  0  0  0  0  0  0  0  0  0  0
    2.3527    0.3156    1.6773 H   0  0  0  0  0  0  0  0  0  0  0  0
    0.8266    1.2529    1.4313 H   0  0  0  0  0  0  0  0  0  0  0  0
   -3.1695    1.3649   -0.8971 H   0  0  0  0  0  0  0  0  0  0  0  0
   -1.9133    2.3146   -0.0096 H   0  0  0  0  0  0  0  0  0  0  0  0
   -2.7796    0.9737    0.8303 H   0  0  0  0  0  0  0  0  0  0  0  0
   -0.8426    0.6884   -1.5583 H   0  0  0  0  0  0  0  0  0  0  0  0
    1.1741    1.9519   -1.0095 H   0  0  0  0  0  0  0  0  0  0  0  0
   -2.1637   -1.5183    0.5477 H   0  0  0  0  0  0  0  0  0  0  0  0
    2.7102   -3.6332   -0.4257 H   0  0  0  0  0  0  0  0  0  0  0  0
  1  3  1  0
  1 17  1  0
  2  6  1  0
  2 18  1  0
  3  4  1  0
  3  7  1  0
  3  9  1  0
  4 10  1  0
  4 11  1  0
  4 12  1  0
  5  6  1  0
  5 13  1  0
  5 14  1  0
  5 15  1  0
  6 16  1  0
  7  8  3  0
  8 19  1  0
M  RAD  1   6   2
M  END
>  <reaction>  (17) 
rxn_1898

>  <mol_properties>  (17) 
{"1": {"label": "*1", "atom_type": "Cs"}, "4": {"label": "*0", "atom_type": "S2s"}, "11": {"label": "*3", "atom_type": "Cs"}, "12": {"label": "*4", "atom_type": "S2s"}, "16": {"label": "*2", "atom_type": "H0"}}

>  <type>  (17) 
unop_13

>  <geom_source>  (17) 
AutoTST

$$$$
