
     RDKit          3D

  9  8  0  0  0  0  0  0  0  0999 V2000
   -0.8818   -0.3578    0.1297 C   0  0  0  0  0  0  0  0  0  0  0  0
    0.6153   -0.3021   -0.1188 C   0  0  0  0  0  0  0  0  0  0  0  0
    1.5354   -1.7170    0.5545 S   0  0  0  0  0  0  0  0  0  0  0  0
   -1.1018   -0.3317    1.1984 H   0  0  0  0  0  0  0  0  0  0  0  0
   -1.3114   -1.2723   -0.2799 H   0  0  0  0  0  0  0  0  0  0  0  0
   -1.3767    0.4976   -0.3363 H   0  0  0  0  0  0  0  0  0  0  0  0
    1.0467    0.6194    0.2718 H   0  0  0  0  0  0  0  0  0  0  0  0
    0.8295   -0.3275   -1.1882 H   0  0  0  0  0  0  0  0  0  0  0  0
    1.2306   -1.5077    1.8423 H   0  0  0  0  0  0  0  0  0  0  0  0
  1  2  1  0
  1  4  1  0
  1  5  1  0
  1  6  1  0
  2  3  1  0
  2  7  1  0
  2  8  1  0
  3  9  1  0
M  END
>  <reaction>  (1) 
rxn_1889

>  <mol_properties>  (1) 
{"1": {"label": "donator", "atom_type": "Cs"}, "6": {"label": "d_hydrogen", "atom_type": "H0"}}

>  <type>  (1) 
r1h

$$$$

     RDKit          3D

  9  8  0  0  0  0  0  0  0  0999 V2000
   -1.2704   -0.1236    0.1096 C   0  0  0  0  0  0  0  0  0  0  0  0
    0.0713   -0.5323    0.5887 C   0  0  0  0  0  0  0  0  0  0  0  0
    0.9521   -1.3639   -0.0464 C   0  0  0  0  0  0  0  0  0  0  0  0
    0.6900   -2.1109   -1.5335 S   0  0  0  0  0  1  0  0  0  0  0  0
   -1.3201    0.9657    0.0241 H   0  0  0  0  0  0  0  0  0  0  0  0
   -1.5103   -0.5706   -0.8526 H   0  0  0  0  0  0  0  0  0  0  0  0
   -2.0312   -0.4112    0.8411 H   0  0  0  0  0  0  0  0  0  0  0  0
    0.3863   -0.1265    1.5468 H   0  0  0  0  0  0  0  0  0  0  0  0
    1.8971   -1.5543    0.4552 H   0  0  0  0  0  0  0  0  0  0  0  0
  1  2  1  0
  1  5  1  0
  1  6  1  0
  1  7  1  0
  2  3  2  3
  2  8  1  0
  3  4  1  0
  3  9  1  0
M  RAD  1   4   2
M  END
>  <reaction>  (2) 
rxn_1889

>  <mol_properties>  (2) 
{"1": {"label": "acceptor", "atom_type": "Cs"}}

>  <type>  (2) 
r2

$$$$

     RDKit          3D

 10  9  0  0  0  0  0  0  0  0999 V2000
   -1.1508    0.0666    0.2839 C   0  0  0  0  0  0  0  0  0  0  0  0
    0.1022   -0.3749   -0.4771 C   0  0  0  0  0  0  0  0  0  0  0  0
    1.3428    0.1620    0.1542 C   0  0  0  0  0  0  0  0  0  0  0  0
    2.5613   -0.6971    0.7526 S   0  0  0  0  0  0  0  0  0  0  0  0
   -1.2137    1.1546    0.3481 H   0  0  0  0  0  0  0  0  0  0  0  0
   -2.0472   -0.2935   -0.2212 H   0  0  0  0  0  0  0  0  0  0  0  0
   -1.1467   -0.3334    1.2987 H   0  0  0  0  0  0  0  0  0  0  0  0
    0.1602   -1.4616   -0.5369 H   0  0  0  0  0  0  0  0  0  0  0  0
    0.0536    0.0174   -1.4997 H   0  0  0  0  0  0  0  0  0  0  0  0
    1.3824    1.2528    0.2110 H   0  0  0  0  0  0  0  0  0  0  0  0
  1  2  1  0
  1  5  1  0
  1  6  1  0
  1  7  1  0
  2  3  1  0
  2  8  1  0
  2  9  1  0
  3  4  2  0
  3 10  1  0
M  END
>  <reaction>  (3) 
rxn_1889

>  <mol_properties>  (3) 
{"0": {"label": "a_hydrogen", "atom_type": "H0"}, "2": {"label": "acceptor", "atom_type": "Cs"}}

>  <type>  (3) 
r2h

$$$$

     RDKit          3D

 18 16  0  0  0  0  0  0  0  0999 V2000
   -1.3852   -0.0977   -1.9247 C   0  0  0  0  0  0  0  0  0  0  0  0
   -1.7194   -0.1564   -0.4633 C   0  0  0  0  0  3  0  0  0  0  0  0
   -1.6331    1.3057    0.4960 S   0  0  0  0  0  0  0  0  0  0  0  0
   -0.3712    0.2795   -2.0753 H   0  0  0  0  0  0  0  0  0  0  0  0
   -2.0757    0.5614   -2.4589 H   0  0  0  0  0  0  0  0  0  0  0  0
   -1.4467   -1.0913   -2.3701 H   0  0  0  0  0  0  0  0  0  0  0  0
   -0.6473   -0.9858    0.0804 H   0  0  0  0  0  0  0  0  0  0  0  0
   -2.6082   -0.7220   -0.1941 H   0  0  0  0  0  0  0  0  0  0  0  0
   -0.5181    1.8010   -0.0624 H   0  0  0  0  0  0  0  0  0  0  0  0
    0.6621   -2.5674   -0.7515 C   0  0  0  0  0  0  0  0  0  0  0  0
    0.3813   -1.6489    0.4137 C   0  0  0  0  0  0  0  0  0  0  0  0
    1.3070   -0.5888    0.7382 C   0  0  0  0  0  0  0  0  0  0  0  0
    2.3793    0.1170   -0.2752 S   0  0  0  0  0  0  0  0  0  0  0  0
    0.9426   -2.0014   -1.6387 H   0  0  0  0  0  0  0  0  0  0  0  0
    1.4909   -3.2392   -0.5173 H   0  0  0  0  0  0  0  0  0  0  0  0
   -0.2135   -3.1767   -0.9807 H   0  0  0  0  0  0  0  0  0  0  0  0
    0.0063   -2.1602    1.3013 H   0  0  0  0  0  0  0  0  0  0  0  0
    1.2134   -0.1930    1.7489 H   0  0  0  0  0  0  0  0  0  0  0  0
  1  2  1  0
  1  4  1  0
  1  5  1  0
  1  6  1  0
  2  3  1  0
  2  8  1  0
  3  9  1  0
  7 11  1  0
 10 11  1  0
 10 14  1  0
 10 15  1  0
 10 16  1  0
 11 12  1  0
 11 17  1  0
 12 13  2  0
 12 18  1  0
M  RAD  1   2   2
M  END
>  <reaction>  (4) 
rxn_1889

>  <mol_properties>  (4) 
{"1": {"label": "*3", "atom_type": "Cs"}, "2": {"label": "*4", "atom_type": "S2s"}, "6": {"label": "*2", "atom_type": "H0"}, "10": {"label": "*1", "atom_type": "Cs"}, "11": {"label": "*0", "atom_type": "CS"}}

>  <type>  (4) 
ts

$$$$

     RDKit          3D

 18 16  0  0  0  0  0  0  0  0999 V2000
   -0.4591    0.3536   -2.3242 C   0  0  0  0  0  0  0  0  0  0  0  0
   -0.4591    0.3536   -0.8055 C   0  0  0  0  0  0  0  0  0  0  0  0
   -0.4591    2.0109   -0.0606 S   0  0  0  0  0  0  0  0  0  0  0  0
    0.4475    0.8190   -2.7150 H   0  0  0  0  0  0  0  0  0  0  0  0
   -1.3151    0.9048   -2.7143 H   0  0  0  0  0  0  0  0  0  0  0  0
   -0.5022   -0.6698   -2.7045 H   0  0  0  0  0  0  0  0  0  0  0  0
    0.5528   -0.3258   -0.3314 H   0  0  0  0  0  0  0  0  0  0  0  0
   -1.3667   -0.1135   -0.4204 H   0  0  0  0  0  0  0  0  0  0  0  0
    0.7157    2.4126   -0.5641 H   0  0  0  0  0  0  0  0  0  0  0  0
    2.4641   -0.1180    1.0077 C   0  0  0  0  0  0  0  0  0  0  0  0
    1.5648   -1.0051    0.1428 C   0  0  0  0  0  0  0  0  0  0  0  0
    0.3977   -1.5200    0.9166 C   0  0  0  0  0  0  0  0  0  0  0  0
   -1.1546   -1.2643    0.5913 S   0  0  0  0  0  1  0  0  0  0  0  0
    1.9246    0.7693    1.3414 H   0  0  0  0  0  0  0  0  0  0  0  0
    2.8176   -0.6526    1.8915 H   0  0  0  0  0  0  0  0  0  0  0  0
    3.3357    0.2064    0.4391 H   0  0  0  0  0  0  0  0  0  0  0  0
    2.1435   -1.8707   -0.2003 H   0  0  0  0  0  0  0  0  0  0  0  0
    0.6668   -2.1130    1.7944 H   0  0  0  0  0  0  0  0  0  0  0  0
  1  2  1  0
  1  4  1  0
  1  5  1  0
  1  6  1  0
  2  3  1  0
  2  7  1  0
  2  8  1  0
  3  9  1  0
 10 11  1  0
 10 14  1  0
 10 15  1  0
 10 16  1  0
 11 12  2  3
 11 17  1  0
 12 13  1  0
 12 18  1  0
M  RAD  1  13   2
M  END
>  <reaction>  (5) 
rxn_1889

>  <mol_properties>  (5) 
{"1": {"label": "*3", "atom_type": "Cs"}, "2": {"label": "*4", "atom_type": "S2s"}, "6": {"label": "*2", "atom_type": "H0"}, "10": {"label": "*1", "atom_type": "Cs"}, "11": {"label": "*0", "atom_type": "CS"}}

>  <type>  (5) 
unop_1

>  <geom_source>  (5) 
Heuristics

$$$$

     RDKit          3D

 18 17  0  0  0  0  0  0  0  0999 V2000
   -1.0995   -0.2489   -2.4337 C   0  0  0  0  0  0  0  0  0  0  0  0
   -1.0995   -0.2489   -0.9151 C   0  0  0  0  0  0  0  0  0  0  0  0
   -1.0995    1.4085   -0.1701 S   0  0  0  0  0  3  0  0  0  0  0  0
   -0.1928    0.2165   -2.8245 H   0  0  0  0  0  0  0  0  0  0  0  0
   -1.9554    0.3023   -2.8238 H   0  0  0  0  0  0  0  0  0  0  0  0
   -1.1425   -1.2722   -2.8140 H   0  0  0  0  0  0  0  0  0  0  0  0
   -0.0876   -0.9282   -0.4409 H   0  0  0  0  0  0  0  0  0  0  0  0
   -2.0071   -0.7159   -0.5299 H   0  0  0  0  0  0  0  0  0  0  0  0
    0.0753    1.8102   -0.6736 H   0  0  0  0  0  0  0  0  0  0  0  0
    2.1199   -1.5494   -0.9215 C   0  0  0  0  0  0  0  0  0  0  0  0
    0.9244   -1.6076    0.0332 C   0  0  0  0  0  0  0  0  0  0  0  0
    1.1290   -0.7266    1.2198 C   0  0  0  0  0  0  0  0  0  0  0  0
    0.2079    0.5134    1.6616 S   0  0  0  0  0  0  0  0  0  0  0  0
    2.2419   -0.5438   -1.3259 H   0  0  0  0  0  0  0  0  0  0  0  0
    3.0465   -1.8262   -0.4150 H   0  0  0  0  0  0  0  0  0  0  0  0
    1.9730   -2.2368   -1.7547 H   0  0  0  0  0  0  0  0  0  0  0  0
    0.8108   -2.6350    0.3983 H   0  0  0  0  0  0  0  0  0  0  0  0
    2.0130   -0.9712    1.8141 H   0  0  0  0  0  0  0  0  0  0  0  0
  1  2  1  0
  1  4  1  0
  1  5  1  0
  1  6  1  0
  2  3  1  0
  2  7  1  0
  2  8  1  0
  3 13  1  0
  3  9  1  0
 10 11  1  0
 10 14  1  0
 10 15  1  0
 10 16  1  0
 11 12  2  3
 11 17  1  0
 12 13  1  0
 12 18  1  0
M  RAD  1   3   2
M  END
>  <reaction>  (6) 
rxn_1889

>  <mol_properties>  (6) 
{"1": {"label": "*3", "atom_type": "Cs"}, "2": {"label": "*4", "atom_type": "S2s"}, "6": {"label": "*2", "atom_type": "H0"}, "10": {"label": "*1", "atom_type": "Cs"}, "11": {"label": "*0", "atom_type": "CS"}}

>  <type>  (6) 
unop_2

>  <geom_source>  (6) 
Heuristics

$$$$

     RDKit          3D

 18 16  0  0  0  0  0  0  0  0999 V2000
   -0.4857    0.6649   -2.1224 C   0  0  0  0  0  0  0  0  0  0  0  0
   -0.4857    0.6649   -0.6037 C   0  0  0  0  0  0  0  0  0  0  0  0
   -0.4857    2.3222    0.1413 S   0  0  0  0  0  0  0  0  0  0  0  0
    0.4210    1.1303   -2.5131 H   0  0  0  0  0  0  0  0  0  0  0  0
   -1.3416    1.2161   -2.5125 H   0  0  0  0  0  0  0  0  0  0  0  0
   -0.5287   -0.3585   -2.5027 H   0  0  0  0  0  0  0  0  0  0  0  0
    0.5263   -0.0145   -0.1296 H   0  0  0  0  0  0  0  0  0  0  0  0
   -1.3933    0.1978   -0.2186 H   0  0  0  0  0  0  0  0  0  0  0  0
    0.6891    2.7239   -0.3623 H   0  0  0  0  0  0  0  0  0  0  0  0
    1.9885   -0.1353    1.6972 C   0  0  0  0  0  0  0  0  0  0  0  0
    1.5382   -0.6939    0.3446 C   0  0  0  0  0  0  0  0  0  0  0  0
    0.5684   -1.8152    0.5117 C   0  0  0  0  0  0  0  0  0  0  0  0
   -0.9405   -1.8657   -0.0378 S   0  0  0  0  0  1  0  0  0  0  0  0
    1.1435    0.2918    2.2386 H   0  0  0  0  0  0  0  0  0  0  0  0
    2.4324   -0.9139    2.3204 H   0  0  0  0  0  0  0  0  0  0  0  0
    2.7334    0.6476    1.5545 H   0  0  0  0  0  0  0  0  0  0  0  0
    2.4128   -1.0878   -0.1862 H   0  0  0  0  0  0  0  0  0  0  0  0
    0.9549   -2.6622    1.0840 H   0  0  0  0  0  0  0  0  0  0  0  0
  1  2  1  0
  1  4  1  0
  1  5  1  0
  1  6  1  0
  2  3  1  0
  2  7  1  0
  2  8  1  0
  3  9  1  0
 10 11  1  0
 10 14  1  0
 10 15  1  0
 10 16  1  0
 11 12  2  3
 11 17  1  0
 12 13  1  0
 12 18  1  0
M  RAD  1  13   2
M  END
>  <reaction>  (7) 
rxn_1889

>  <mol_properties>  (7) 
{"1": {"label": "*3", "atom_type": "Cs"}, "2": {"label": "*4", "atom_type": "S2s"}, "6": {"label": "*2", "atom_type": "H0"}, "10": {"label": "*1", "atom_type": "Cs"}, "11": {"label": "*0", "atom_type": "CS"}}

>  <type>  (7) 
unop_3

>  <geom_source>  (7) 
Heuristics

$$$$

     RDKit          3D

 18 16  0  0  0  0  0  0  0  0999 V2000
   -1.7558    0.0858   -1.9360 C   0  0  0  0  0  0  0  0  0  0  0  0
   -1.7558    0.0858   -0.4173 C   0  0  0  0  0  0  0  0  0  0  0  0
   -1.7558    1.7432    0.3277 S   0  0  0  0  0  0  0  0  0  0  0  0
   -0.8492    0.5513   -2.3267 H   0  0  0  0  0  0  0  0  0  0  0  0
   -2.6118    0.6370   -2.3261 H   0  0  0  0  0  0  0  0  0  0  0  0
   -1.7989   -0.9375   -2.3163 H   0  0  0  0  0  0  0  0  0  0  0  0
   -0.7439   -0.5935    0.0568 H   0  0  0  0  0  0  0  0  0  0  0  0
   -2.6634   -0.3812   -0.0322 H   0  0  0  0  0  0  0  0  0  0  0  0
   -0.5810    2.1449   -0.1758 H   0  0  0  0  0  0  0  0  0  0  0  0
    0.2177   -2.7301    0.0638 C   0  0  0  0  0  0  0  0  0  0  0  0
    0.2681   -1.2729    0.5310 C   0  0  0  0  0  0  0  0  0  0  0  0
    1.6629   -0.8480    0.8470 C   0  0  0  0  0  0  0  0  0  0  0  0
    2.4823    0.3436    0.1472 S   0  0  0  0  0  1  0  0  0  0  0  0
    0.7757   -2.8569   -0.8647 H   0  0  0  0  0  0  0  0  0  0  0  0
    0.6449   -3.4016    0.8110 H   0  0  0  0  0  0  0  0  0  0  0  0
   -0.8136   -3.0355   -0.1133 H   0  0  0  0  0  0  0  0  0  0  0  0
   -0.3251   -1.1728    1.4475 H   0  0  0  0  0  0  0  0  0  0  0  0
    2.1476   -1.4408    1.6268 H   0  0  0  0  0  0  0  0  0  0  0  0
  1  2  1  0
  1  4  1  0
  1  5  1  0
  1  6  1  0
  2  3  1  0
  2  7  1  0
  2  8  1  0
  3  9  1  0
 10 11  1  0
 10 14  1  0
 10 15  1  0
 10 16  1  0
 11 12  2  3
 11 17  1  0
 12 13  1  0
 12 18  1  0
M  RAD  1  13   2
M  END
>  <reaction>  (8) 
rxn_1889

>  <mol_properties>  (8) 
{"1": {"label": "*3", "atom_type": "Cs"}, "2": {"label": "*4", "atom_type": "S2s"}, "6": {"label": "*2", "atom_type": "H0"}, "10": {"label": "*1", "atom_type": "Cs"}, "11": {"label": "*0", "atom_type": "CS"}}

>  <type>  (8) 
unop_4

>  <geom_source>  (8) 
Heuristics

$$$$

     RDKit          3D

 18 16  0  0  0  0  0  0  0  0999 V2000
   -0.8401    0.9491   -1.8112 C   0  0  0  0  0  0  0  0  0  0  0  0
   -0.8401    0.9491   -0.2925 C   0  0  0  0  0  0  0  0  0  0  0  0
   -0.8401    2.6065    0.4525 S   0  0  0  0  0  0  0  0  0  0  0  0
    0.0666    1.4145   -2.2019 H   0  0  0  0  0  0  0  0  0  0  0  0
   -1.6960    1.5003   -2.2013 H   0  0  0  0  0  0  0  0  0  0  0  0
   -0.8831   -0.0743   -2.1914 H   0  0  0  0  0  0  0  0  0  0  0  0
    0.1719    0.2698    0.1816 H   0  0  0  0  0  0  0  0  0  0  0  0
   -1.7477    0.4821    0.0926 H   0  0  0  0  0  0  0  0  0  0  0  0
    0.3347    3.0081   -0.0510 H   0  0  0  0  0  0  0  0  0  0  0  0
    1.1781   -0.4058    2.1869 C   0  0  0  0  0  0  0  0  0  0  0  0
    1.1838   -0.4096    0.6558 C   0  0  0  0  0  0  0  0  0  0  0  0
    1.1570   -1.7989    0.1125 C   0  0  0  0  0  0  0  0  0  0  0  0
    0.0277   -2.4336   -0.8377 S   0  0  0  0  0  1  0  0  0  0  0  0
    0.2577   -0.8482    2.5702 H   0  0  0  0  0  0  0  0  0  0  0  0
    2.0202   -0.9726    2.5886 H   0  0  0  0  0  0  0  0  0  0  0  0
    1.2487    0.6148    2.5632 H   0  0  0  0  0  0  0  0  0  0  0  0
    2.1056    0.0672    0.3026 H   0  0  0  0  0  0  0  0  0  0  0  0
    1.9986   -2.4210    0.4276 H   0  0  0  0  0  0  0  0  0  0  0  0
  1  2  1  0
  1  4  1  0
  1  5  1  0
  1  6  1  0
  2  3  1  0
  2  7  1  0
  2  8  1  0
  3  9  1  0
 10 11  1  0
 10 14  1  0
 10 15  1  0
 10 16  1  0
 11 12  2  3
 11 17  1  0
 12 13  1  0
 12 18  1  0
M  RAD  1  13   2
M  END
>  <reaction>  (9) 
rxn_1889

>  <mol_properties>  (9) 
{"1": {"label": "*3", "atom_type": "Cs"}, "2": {"label": "*4", "atom_type": "S2s"}, "6": {"label": "*2", "atom_type": "H0"}, "10": {"label": "*1", "atom_type": "Cs"}, "11": {"label": "*0", "atom_type": "CS"}}

>  <type>  (9) 
unop_5

>  <geom_source>  (9) 
Heuristics

$$$$

     RDKit          3D

 18 16  0  0  0  0  0  0  0  0999 V2000
   -1.7595    0.2992   -1.7801 C   0  0  0  0  0  0  0  0  0  0  0  0
   -1.7595    0.2992   -0.2615 C   0  0  0  0  0  0  0  0  0  0  0  0
   -1.7595    1.9566    0.4835 S   0  0  0  0  0  0  0  0  0  0  0  0
   -0.8529    0.7646   -2.1709 H   0  0  0  0  0  0  0  0  0  0  0  0
   -2.6155    0.8504   -2.1702 H   0  0  0  0  0  0  0  0  0  0  0  0
   -1.8026   -0.7241   -2.1604 H   0  0  0  0  0  0  0  0  0  0  0  0
   -0.7476   -0.3801    0.2127 H   0  0  0  0  0  0  0  0  0  0  0  0
   -2.6671   -0.1678    0.1237 H   0  0  0  0  0  0  0  0  0  0  0  0
   -0.5847    2.3583   -0.0200 H   0  0  0  0  0  0  0  0  0  0  0  0
   -0.1078   -2.5313    0.8857 C   0  0  0  0  0  0  0  0  0  0  0  0
    0.2644   -1.0595    0.6868 C   0  0  0  0  0  0  0  0  0  0  0  0
    1.7438   -0.8682    0.6629 C   0  0  0  0  0  0  0  0  0  0  0  0
    2.6117   -0.2655   -0.5473 S   0  0  0  0  0  1  0  0  0  0  0  0
    0.2482   -3.1354    0.0503 H   0  0  0  0  0  0  0  0  0  0  0  0
    0.3281   -2.9306    1.8034 H   0  0  0  0  0  0  0  0  0  0  0  0
   -1.1902   -2.6427    0.9506 H   0  0  0  0  0  0  0  0  0  0  0  0
   -0.1323   -0.4760    1.5259 H   0  0  0  0  0  0  0  0  0  0  0  0
    2.2543   -1.1973    1.5715 H   0  0  0  0  0  0  0  0  0  0  0  0
  1  2  1  0
  1  4  1  0
  1  5  1  0
  1  6  1  0
  2  3  1  0
  2  7  1  0
  2  8  1  0
  3  9  1  0
 10 11  1  0
 10 14  1  0
 10 15  1  0
 10 16  1  0
 11 12  2  3
 11 17  1  0
 12 13  1  0
 12 18  1  0
M  RAD  1  13   2
M  END
>  <reaction>  (10) 
rxn_1889

>  <mol_properties>  (10) 
{"1": {"label": "*3", "atom_type": "Cs"}, "2": {"label": "*4", "atom_type": "S2s"}, "6": {"label": "*2", "atom_type": "H0"}, "10": {"label": "*1", "atom_type": "Cs"}, "11": {"label": "*0", "atom_type": "CS"}}

>  <type>  (10) 
unop_6

>  <geom_source>  (10) 
Heuristics

$$$$

     RDKit          3D

 18 16  0  0  0  0  0  0  0  0999 V2000
   -1.6551    0.5489   -1.6532 C   0  0  0  0  0  0  0  0  0  0  0  0
   -1.6551    0.5489   -0.1345 C   0  0  0  0  0  0  0  0  0  0  0  0
   -1.6551    2.2063    0.6105 S   0  0  0  0  0  0  0  0  0  0  0  0
   -0.7485    1.0143   -2.0439 H   0  0  0  0  0  0  0  0  0  0  0  0
   -2.5111    1.1001   -2.0433 H   0  0  0  0  0  0  0  0  0  0  0  0
   -1.6982   -0.4744   -2.0335 H   0  0  0  0  0  0  0  0  0  0  0  0
   -0.6432   -0.1304    0.3396 H   0  0  0  0  0  0  0  0  0  0  0  0
   -2.5627    0.0819    0.2506 H   0  0  0  0  0  0  0  0  0  0  0  0
   -0.4803    2.6080    0.1070 H   0  0  0  0  0  0  0  0  0  0  0  0
   -0.1118   -1.9781    1.6788 C   0  0  0  0  0  0  0  0  0  0  0  0
    0.3687   -0.8098    0.8138 C   0  0  0  0  0  0  0  0  0  0  0  0
    1.7890   -0.9888    0.3935 C   0  0  0  0  0  0  0  0  0  0  0  0
    2.3360   -1.0881   -1.1139 S   0  0  0  0  0  1  0  0  0  0  0  0
   -0.0934   -2.9103    1.1126 H   0  0  0  0  0  0  0  0  0  0  0  0
    0.5183   -2.1044    2.5613 H   0  0  0  0  0  0  0  0  0  0  0  0
   -1.1336   -1.8041    2.0164 H   0  0  0  0  0  0  0  0  0  0  0  0
    0.3102    0.1144    1.4005 H   0  0  0  0  0  0  0  0  0  0  0  0
    2.4960   -1.0724    1.2227 H   0  0  0  0  0  0  0  0  0  0  0  0
  1  2  1  0
  1  4  1  0
  1  5  1  0
  1  6  1  0
  2  3  1  0
  2  7  1  0
  2  8  1  0
  3  9  1  0
 10 11  1  0
 10 14  1  0
 10 15  1  0
 10 16  1  0
 11 12  2  3
 11 17  1  0
 12 13  1  0
 12 18  1  0
M  RAD  1  13   2
M  END
>  <reaction>  (11) 
rxn_1889

>  <mol_properties>  (11) 
{"1": {"label": "*3", "atom_type": "Cs"}, "2": {"label": "*4", "atom_type": "S2s"}, "6": {"label": "*2", "atom_type": "H0"}, "10": {"label": "*1", "atom_type": "Cs"}, "11": {"label": "*0", "atom_type": "CS"}}

>  <type>  (11) 
unop_7

>  <geom_source>  (11) 
Heuristics

$$$$

     RDKit          3D

 18 16  0  0  0  0  0  0  0  0999 V2000
   -0.5780    0.0997   -2.4453 C   0  0  0  0  0  0  0  0  0  0  0  0
   -0.5780    0.0997   -0.9266 C   0  0  0  0  0  0  0  0  0  0  0  0
   -0.5780    1.7570   -0.1816 S   0  0  0  0  0  0  0  0  0  0  0  0
    0.3287    0.5651   -2.8360 H   0  0  0  0  0  0  0  0  0  0  0  0
   -1.4339    0.6509   -2.8354 H   0  0  0  0  0  0  0  0  0  0  0  0
   -0.6210   -0.9237   -2.8256 H   0  0  0  0  0  0  0  0  0  0  0  0
    0.4339   -0.5797   -0.4525 H   0  0  0  0  0  0  0  0  0  0  0  0
   -1.4856   -0.3674   -0.5415 H   0  0  0  0  0  0  0  0  0  0  0  0
    0.5968    2.1587   -0.6852 H   0  0  0  0  0  0  0  0  0  0  0  0
    2.6672   -0.3573    0.2206 C   0  0  0  0  0  0  0  0  0  0  0  0
    1.4459   -1.2590    0.0217 C   0  0  0  0  0  0  0  0  0  0  0  0
    0.5110   -1.1769    1.1815 C   0  0  0  0  0  0  0  0  0  0  0  0
   -1.0227   -0.7001    1.1428 S   0  0  0  0  0  1  0  0  0  0  0  0
    2.3681    0.6901    0.2770 H   0  0  0  0  0  0  0  0  0  0  0  0
    3.2005   -0.6080    1.1396 H   0  0  0  0  0  0  0  0  0  0  0  0
    3.3607   -0.4698   -0.6128 H   0  0  0  0  0  0  0  0  0  0  0  0
    1.7819   -2.2993   -0.0608 H   0  0  0  0  0  0  0  0  0  0  0  0
    0.9554   -1.4629    2.1381 H   0  0  0  0  0  0  0  0  0  0  0  0
  1  2  1  0
  1  4  1  0
  1  5  1  0
  1  6  1  0
  2  3  1  0
  2  7  1  0
  2  8  1  0
  3  9  1  0
 10 11  1  0
 10 14  1  0
 10 15  1  0
 10 16  1  0
 11 12  2  3
 11 17  1  0
 12 13  1  0
 12 18  1  0
M  RAD  1  13   2
M  END
>  <reaction>  (12) 
rxn_1889

>  <mol_properties>  (12) 
{"1": {"label": "*3", "atom_type": "Cs"}, "2": {"label": "*4", "atom_type": "S2s"}, "6": {"label": "*2", "atom_type": "H0"}, "10": {"label": "*1", "atom_type": "Cs"}, "11": {"label": "*0", "atom_type": "CS"}}

>  <type>  (12) 
unop_8

>  <geom_source>  (12) 
Heuristics

$$$$

     RDKit          3D

 18 16  0  0  0  0  0  0  0  0999 V2000
   -1.6488   -0.1073   -2.1079 C   0  0  0  0  0  0  0  0  0  0  0  0
   -1.6488   -0.1073   -0.5892 C   0  0  0  0  0  0  0  0  0  0  0  0
   -1.6488    1.5501    0.1558 S   0  0  0  0  0  0  0  0  0  0  0  0
   -0.7422    0.3581   -2.4987 H   0  0  0  0  0  0  0  0  0  0  0  0
   -2.5048    0.4439   -2.4980 H   0  0  0  0  0  0  0  0  0  0  0  0
   -1.6919   -1.1306   -2.4882 H   0  0  0  0  0  0  0  0  0  0  0  0
   -0.6369   -0.7866   -0.1151 H   0  0  0  0  0  0  0  0  0  0  0  0
   -2.5564   -0.5743   -0.2041 H   0  0  0  0  0  0  0  0  0  0  0  0
   -0.4740    1.9518   -0.3478 H   0  0  0  0  0  0  0  0  0  0  0  0
    0.7738   -2.5945   -0.5957 C   0  0  0  0  0  0  0  0  0  0  0  0
    0.3751   -1.4660    0.3591 C   0  0  0  0  0  0  0  0  0  0  0  0
    1.5723   -0.8146    0.9658 C   0  0  0  0  0  0  0  0  0  0  0  0
    1.9913    0.7308    0.8337 S   0  0  0  0  0  1  0  0  0  0  0  0
    1.3473   -2.2034   -1.4370 H   0  0  0  0  0  0  0  0  0  0  0  0
    1.3830   -3.3461   -0.0898 H   0  0  0  0  0  0  0  0  0  0  0  0
   -0.1143   -3.0895   -0.9888 H   0  0  0  0  0  0  0  0  0  0  0  0
   -0.2237   -1.8862    1.1756 H   0  0  0  0  0  0  0  0  0  0  0  0
    2.2120   -1.4924    1.5365 H   0  0  0  0  0  0  0  0  0  0  0  0
  1  2  1  0
  1  4  1  0
  1  5  1  0
  1  6  1  0
  2  3  1  0
  2  7  1  0
  2  8  1  0
  3  9  1  0
 10 11  1  0
 10 14  1  0
 10 15  1  0
 10 16  1  0
 11 12  2  3
 11 17  1  0
 12 13  1  0
 12 18  1  0
M  RAD  1  13   2
M  END
>  <reaction>  (13) 
rxn_1889

>  <mol_properties>  (13) 
{"1": {"label": "*3", "atom_type": "Cs"}, "2": {"label": "*4", "atom_type": "S2s"}, "6": {"label": "*2", "atom_type": "H0"}, "10": {"label": "*1", "atom_type": "Cs"}, "11": {"label": "*0", "atom_type": "CS"}}

>  <type>  (13) 
unop_9

>  <geom_source>  (13) 
Heuristics

$$$$

     RDKit          3D

 18 17  0  0  0  0  0  0  0  0999 V2000
   -0.7976   -0.1136   -2.4882 C   0  0  0  0  0  0  0  0  0  0  0  0
   -0.7976   -0.1136   -0.9695 C   0  0  0  0  0  0  0  0  0  0  0  0
   -0.7976    1.5438   -0.2245 S   0  0  0  0  0  3  0  0  0  0  0  0
    0.1091    0.3518   -2.8789 H   0  0  0  0  0  0  0  0  0  0  0  0
   -1.6535    0.4376   -2.8783 H   0  0  0  0  0  0  0  0  0  0  0  0
   -0.8407   -1.1369   -2.8684 H   0  0  0  0  0  0  0  0  0  0  0  0
    0.2143   -0.7929   -0.4954 H   0  0  0  0  0  0  0  0  0  0  0  0
   -1.7052   -0.5806   -0.5844 H   0  0  0  0  0  0  0  0  0  0  0  0
    0.3772    1.9455   -0.7280 H   0  0  0  0  0  0  0  0  0  0  0  0
    2.5559   -0.8740   -0.4884 C   0  0  0  0  0  0  0  0  0  0  0  0
    1.2263   -1.4723   -0.0212 C   0  0  0  0  0  0  0  0  0  0  0  0
    0.7879   -0.8831    1.2775 C   0  0  0  0  0  0  0  0  0  0  0  0
   -0.5721   -0.0724    1.5503 S   0  0  0  0  0  0  0  0  0  0  0  0
    2.4527    0.1954   -0.6765 H   0  0  0  0  0  0  0  0  0  0  0  0
    3.3386   -1.0130    0.2598 H   0  0  0  0  0  0  0  0  0  0  0  0
    2.8832   -1.3529   -1.4113 H   0  0  0  0  0  0  0  0  0  0  0  0
    1.3553   -2.5504    0.1302 H   0  0  0  0  0  0  0  0  0  0  0  0
    1.4968   -1.0243    2.0972 H   0  0  0  0  0  0  0  0  0  0  0  0
  1  2  1  0
  1  4  1  0
  1  5  1  0
  1  6  1  0
  2  3  1  0
  2  7  1  0
  2  8  1  0
  3 13  1  0
  3  9  1  0
 10 11  1  0
 10 14  1  0
 10 15  1  0
 10 16  1  0
 11 12  2  3
 11 17  1  0
 12 13  1  0
 12 18  1  0
M  RAD  1   3   2
M  END
>  <reaction>  (14) 
rxn_1889

>  <mol_properties>  (14) 
{"1": {"label": "*3", "atom_type": "Cs"}, "2": {"label": "*4", "atom_type": "S2s"}, "6": {"label": "*2", "atom_type": "H0"}, "10": {"label": "*1", "atom_type": "Cs"}, "11": {"label": "*0", "atom_type": "CS"}}

>  <type>  (14) 
unop_10

>  <geom_source>  (14) 
Heuristics

$$$$

     RDKit          3D

 18 16  0  0  0  0  0  0  0  0999 V2000
   -1.3710    0.8345   -1.6172 C   0  0  0  0  0  0  0  0  0  0  0  0
   -1.3710    0.8345   -0.0985 C   0  0  0  0  0  0  0  0  0  0  0  0
   -1.3710    2.4919    0.6465 S   0  0  0  0  0  0  0  0  0  0  0  0
   -0.4643    1.3000   -2.0079 H   0  0  0  0  0  0  0  0  0  0  0  0
   -2.2269    1.3857   -2.0073 H   0  0  0  0  0  0  0  0  0  0  0  0
   -1.4140   -0.1888   -1.9974 H   0  0  0  0  0  0  0  0  0  0  0  0
   -0.3590    0.1552    0.3756 H   0  0  0  0  0  0  0  0  0  0  0  0
   -2.2786    0.3675    0.2866 H   0  0  0  0  0  0  0  0  0  0  0  0
   -0.1962    2.8936    0.1430 H   0  0  0  0  0  0  0  0  0  0  0  0
    0.3065   -1.1524    2.2024 C   0  0  0  0  0  0  0  0  0  0  0  0
    0.6529   -0.5242    0.8498 C   0  0  0  0  0  0  0  0  0  0  0  0
    1.6728   -1.3303    0.1178 C   0  0  0  0  0  0  0  0  0  0  0  0
    1.4940   -2.0213   -1.3215 S   0  0  0  0  0  1  0  0  0  0  0  0
   -0.1457   -2.1357    2.0664 H   0  0  0  0  0  0  0  0  0  0  0  0
    1.1956   -1.2707    2.8247 H   0  0  0  0  0  0  0  0  0  0  0  0
   -0.4012   -0.5230    2.7421 H   0  0  0  0  0  0  0  0  0  0  0  0
    1.0767    0.4726    1.0190 H   0  0  0  0  0  0  0  0  0  0  0  0
    2.6173   -1.4538    0.6537 H   0  0  0  0  0  0  0  0  0  0  0  0
  1  2  1  0
  1  4  1  0
  1  5  1  0
  1  6  1  0
  2  3  1  0
  2  7  1  0
  2  8  1  0
  3  9  1  0
 10 11  1  0
 10 14  1  0
 10 15  1  0
 10 16  1  0
 11 12  2  3
 11 17  1  0
 12 13  1  0
 12 18  1  0
M  RAD  1  13   2
M  END
>  <reaction>  (15) 
rxn_1889

>  <mol_properties>  (15) 
{"1": {"label": "*3", "atom_type": "Cs"}, "2": {"label": "*4", "atom_type": "S2s"}, "6": {"label": "*2", "atom_type": "H0"}, "10": {"label": "*1", "atom_type": "Cs"}, "11": {"label": "*0", "atom_type": "CS"}}

>  <type>  (15) 
unop_11

>  <geom_source>  (15) 
Heuristics

$$$$

     RDKit          3D

 18 16  0  0  0  0  0  0  0  0999 V2000
   -1.4176   -0.2447   -2.2890 C   0  0  0  0  0  0  0  0  0  0  0  0
   -1.4176   -0.2447   -0.7703 C   0  0  0  0  0  0  0  0  0  0  0  0
   -1.4176    1.4127   -0.0253 S   0  0  0  0  0  0  0  0  0  0  0  0
   -0.5110    0.2207   -2.6797 H   0  0  0  0  0  0  0  0  0  0  0  0
   -2.2736    0.3065   -2.6791 H   0  0  0  0  0  0  0  0  0  0  0  0
   -1.4607   -1.2681   -2.6693 H   0  0  0  0  0  0  0  0  0  0  0  0
   -0.4057   -0.9240   -0.2962 H   0  0  0  0  0  0  0  0  0  0  0  0
   -2.3252   -0.7117   -0.3852 H   0  0  0  0  0  0  0  0  0  0  0  0
   -0.2428    1.8144   -0.5288 H   0  0  0  0  0  0  0  0  0  0  0  0
    1.4610   -2.1773   -0.9552 C   0  0  0  0  0  0  0  0  0  0  0  0
    0.6063   -1.6034    0.1780 C   0  0  0  0  0  0  0  0  0  0  0  0
    1.4130   -0.7377    1.0867 C   0  0  0  0  0  0  0  0  0  0  0  0
    1.1671    0.8202    1.3925 S   0  0  0  0  0  1  0  0  0  0  0  0
    1.8501   -1.3781   -1.5875 H   0  0  0  0  0  0  0  0  0  0  0  0
    2.3083   -2.7446   -0.5654 H   0  0  0  0  0  0  0  0  0  0  0  0
    0.8657   -2.8456   -1.5775 H   0  0  0  0  0  0  0  0  0  0  0  0
    0.2068   -2.4309    0.7759 H   0  0  0  0  0  0  0  0  0  0  0  0
    2.2560   -1.2465    1.5609 H   0  0  0  0  0  0  0  0  0  0  0  0
  1  2  1  0
  1  4  1  0
  1  5  1  0
  1  6  1  0
  2  3  1  0
  2  7  1  0
  2  8  1  0
  3  9  1  0
 10 11  1  0
 10 14  1  0
 10 15  1  0
 10 16  1  0
 11 12  2  3
 11 17  1  0
 12 13  1  0
 12 18  1  0
M  RAD  1  13   2
M  END
>  <reaction>  (16) 
rxn_1889

>  <mol_properties>  (16) 
{"1": {"label": "*3", "atom_type": "Cs"}, "2": {"label": "*4", "atom_type": "S2s"}, "6": {"label": "*2", "atom_type": "H0"}, "10": {"label": "*1", "atom_type": "Cs"}, "11": {"label": "*0", "atom_type": "CS"}}

>  <type>  (16) 
unop_12

>  <geom_source>  (16) 
Heuristics

$$$$

     RDKit          3D

 18 16  0  0  0  0  0  0  0  0999 V2000
    1.8631    1.8885   -0.6183 S   0  0  0  0  0  0  0  0  0  0  0  0
   -1.5139   -2.0236   -1.6879 S   0  0  0  0  0  0  0  0  0  0  0  0
   -1.2794    0.1191   -0.3295 C   0  0  0  0  0  0  0  0  0  0  0  0
   -1.8445    0.7846    0.9200 C   0  0  0  0  0  0  0  0  0  0  0  0
    2.0428   -0.5980    0.5520 C   0  0  0  0  0  0  0  0  0  0  0  0
    1.3436    0.1454   -0.5748 C   0  0  0  0  0  3  0  0  0  0  0  0
   -1.9360   -1.2077   -0.5850 C   0  0  0  0  0  0  0  0  0  0  0  0
   -1.4406    0.7909   -1.2010 H   0  0  0  0  0  0  0  0  0  0  0  0
    0.0541   -0.0617   -0.1605 H   0  0  0  0  0  0  0  0  0  0  0  0
   -1.3356    1.7577    1.0821 H   0  0  0  0  0  0  0  0  0  0  0  0
   -1.6712    0.1409    1.8085 H   0  0  0  0  0  0  0  0  0  0  0  0
   -2.9343    0.9664    0.8018 H   0  0  0  0  0  0  0  0  0  0  0  0
    1.8056   -0.1196    1.5253 H   0  0  0  0  0  0  0  0  0  0  0  0
    3.1421   -0.5921    0.3942 H   0  0  0  0  0  0  0  0  0  0  0  0
    1.6875   -1.6491    0.5750 H   0  0  0  0  0  0  0  0  0  0  0  0
    1.5647   -0.3378   -1.5500 H   0  0  0  0  0  0  0  0  0  0  0  0
   -2.7223   -1.5730    0.0691 H   0  0  0  0  0  0  0  0  0  0  0  0
    3.1742    1.5690   -1.0210 H   0  0  0  0  0  0  0  0  0  0  0  0
  1  6  1  0
  1 18  1  0
  2  7  2  0
  3  4  1  0
  3  7  1  0
  3  8  1  0
  3  9  1  0
  4 10  1  0
  4 11  1  0
  4 12  1  0
  5  6  1  0
  5 13  1  0
  5 14  1  0
  5 15  1  0
  6 16  1  0
  7 17  1  0
M  RAD  1   6   2
M  END
>  <reaction>  (17) 
rxn_1889

>  <mol_properties>  (17) 
{"1": {"label": "*3", "atom_type": "Cs"}, "2": {"label": "*4", "atom_type": "S2s"}, "6": {"label": "*2", "atom_type": "H0"}, "10": {"label": "*1", "atom_type": "Cs"}, "11": {"label": "*0", "atom_type": "CS"}}

>  <type>  (17) 
unop_13

>  <geom_source>  (17) 
AutoTST

$$$$
