
     RDKit          3D

 15 14  0  0  0  0  0  0  0  0999 V2000
    2.0043    0.7173    0.1415 C   0  0  0  0  0  0  0  0  0  0  0  0
    0.9848   -0.3507   -0.1014 C   0  0  0  0  0  0  0  0  0  0  0  0
    0.8002   -1.0846   -1.1962 C   0  0  0  0  0  0  0  0  0  0  0  0
    1.6156   -0.9764   -2.4524 C   0  0  0  0  0  0  0  0  0  0  0  0
   -0.2866   -2.1212   -1.2568 C   0  0  0  0  0  0  0  0  0  0  0  0
    1.5168    1.6665    0.3801 H   0  0  0  0  0  0  0  0  0  0  0  0
    2.6315    0.4616    0.9998 H   0  0  0  0  0  0  0  0  0  0  0  0
    2.6606    0.8863   -0.7105 H   0  0  0  0  0  0  0  0  0  0  0  0
    0.3172   -0.5374    0.7365 H   0  0  0  0  0  0  0  0  0  0  0  0
    2.0860   -1.9369   -2.6825 H   0  0  0  0  0  0  0  0  0  0  0  0
    0.9714   -0.7321   -3.3022 H   0  0  0  0  0  0  0  0  0  0  0  0
    2.3987   -0.2235   -2.3971 H   0  0  0  0  0  0  0  0  0  0  0  0
   -0.9822   -1.9068   -2.0737 H   0  0  0  0  0  0  0  0  0  0  0  0
   -0.8547   -2.1689   -0.3278 H   0  0  0  0  0  0  0  0  0  0  0  0
    0.1331   -3.1124   -1.4537 H   0  0  0  0  0  0  0  0  0  0  0  0
  1  2  1  0
  1  6  1  0
  1  7  1  0
  1  8  1  0
  2  3  2  3
  2  9  1  0
  3  4  1  0
  3  5  1  0
  4 10  1  0
  4 11  1  0
  4 12  1  0
  5 13  1  0
  5 14  1  0
  5 15  1  0
M  END
>  <reaction>  (1) 
rxn_106

>  <mol_properties>  (1) 
{"3": {"label": "donator", "atom_type": "Cs"}, "9": {"label": "d_hydrogen", "atom_type": "H0"}}

>  <type>  (1) 
r1h

$$$$

     RDKit          3D

  3  2  0  0  0  0  0  0  0  0999 V2000
    0.0002    0.4233    0.0000 N   0  0  0  0  0  2  0  0  0  0  0  0
   -0.8051   -0.2112    0.0000 H   0  0  0  0  0  0  0  0  0  0  0  0
    0.8049   -0.2121    0.0000 H   0  0  0  0  0  0  0  0  0  0  0  0
  1  2  1  0
  1  3  1  0
M  RAD  1   1   2
M  END
>  <reaction>  (2) 
rxn_106

>  <mol_properties>  (2) 
{"0": {"label": "acceptor", "atom_type": "N3s"}}

>  <type>  (2) 
r2

$$$$

     RDKit          3D

  4  3  0  0  0  0  0  0  0  0999 V2000
    0.0006   -0.0009    0.2762 N   0  0  0  0  0  0  0  0  0  0  0  0
   -0.4188    0.8439   -0.0883 H   0  0  0  0  0  0  0  0  0  0  0  0
   -0.5215   -0.7840   -0.0936 H   0  0  0  0  0  0  0  0  0  0  0  0
    0.9397   -0.0590   -0.0943 H   0  0  0  0  0  0  0  0  0  0  0  0
  1  2  1  0
  1  3  1  0
  1  4  1  0
M  END
>  <reaction>  (3) 
rxn_106

>  <mol_properties>  (3) 
{"0": {"label": "acceptor", "atom_type": "N3s"}, "3": {"label": "a_hydrogen", "atom_type": "H0"}}

>  <type>  (3) 
r2h

$$$$

     RDKit          3D

 18 16  0  0  0  0  0  0  0  0999 V2000
   -1.7607    2.1132    0.3190 N   0  0  0  0  0  2  0  0  0  0  0  0
   -2.1901    1.2094    0.5323 H   0  0  0  0  0  0  0  0  0  0  0  0
   -1.5612    2.5158    1.2377 H   0  0  0  0  0  0  0  0  0  0  0  0
    0.1448   -1.2967   -1.9973 C   0  0  0  0  0  0  0  0  0  0  0  0
    0.2964   -1.3401   -0.5114 C   0  0  0  0  0  0  0  0  0  0  0  0
    0.5105   -0.3150    0.3213 C   0  0  0  0  0  0  0  0  0  0  0  0
    0.6128    1.0920   -0.1078 C   0  0  0  0  0  0  0  0  0  0  0  0
    0.6017   -0.5340    1.8063 C   0  0  0  0  0  0  0  0  0  0  0  0
    0.9073   -1.9129   -2.4817 H   0  0  0  0  0  0  0  0  0  0  0  0
   -0.8244   -1.7074   -2.2932 H   0  0  0  0  0  0  0  0  0  0  0  0
    0.2136   -0.2899   -2.4053 H   0  0  0  0  0  0  0  0  0  0  0  0
    0.2208   -2.3310   -0.0709 H   0  0  0  0  0  0  0  0  0  0  0  0
   -0.4991    1.6308    0.0110 H   0  0  0  0  0  0  0  0  0  0  0  0
    1.2579    1.6957    0.5303 H   0  0  0  0  0  0  0  0  0  0  0  0
    0.8407    1.2573   -1.1575 H   0  0  0  0  0  0  0  0  0  0  0  0
    1.5725   -0.2085    2.1898 H   0  0  0  0  0  0  0  0  0  0  0  0
    0.4605   -1.5811    2.0732 H   0  0  0  0  0  0  0  0  0  0  0  0
   -0.1583    0.0576    2.3264 H   0  0  0  0  0  0  0  0  0  0  0  0
  1  2  1  0
  1  3  1  0
  4  5  1  0
  4  9  1  0
  4 10  1  0
  4 11  1  0
  5  6  2  3
  5 12  1  0
  6  7  1  0
  6  8  1  0
  7 13  1  0
  7 14  1  0
  7 15  1  0
  8 16  1  0
  8 17  1  0
  8 18  1  0
M  RAD  1   1   2
M  END
>  <reaction>  (4) 
rxn_106

>  <mol_properties>  (4) 
{"0": {"label": "*3", "atom_type": "N3s"}, "1": {"label": "*4", "atom_type": "H0"}, "5": {"label": "*0", "atom_type": "Cd"}, "6": {"label": "*1", "atom_type": "Cs"}, "12": {"label": "*2", "atom_type": "H0"}}

>  <type>  (4) 
ts

$$$$

     RDKit          3D

 18 16  0  0  0  0  0  0  0  0999 V2000
   -1.6521    2.2473    0.7537 N   0  0  0  0  0  0  0  0  0  0  0  0
   -1.3200    3.0032    1.3376 H   0  0  0  0  0  0  0  0  0  0  0  0
   -1.5242    2.6497   -0.1651 H   0  0  0  0  0  0  0  0  0  0  0  0
    0.3736   -1.4237   -2.0703 C   0  0  0  0  0  0  0  0  0  0  0  0
    0.3736   -1.4237   -0.5740 C   0  0  0  0  0  0  0  0  0  0  0  0
    0.3736   -0.3812    0.2533 C   0  0  0  0  0  0  0  0  0  0  0  0
    0.3736    1.0579   -0.1755 C   0  0  0  0  0  3  0  0  0  0  0  0
    0.3736   -0.5779    1.7435 C   0  0  0  0  0  0  0  0  0  0  0  0
    1.2508   -1.9513   -2.4545 H   0  0  0  0  0  0  0  0  0  0  0  0
   -0.5037   -1.9513   -2.4545 H   0  0  0  0  0  0  0  0  0  0  0  0
    0.3736   -0.4233   -2.4999 H   0  0  0  0  0  0  0  0  0  0  0  0
    0.3736   -2.4128   -0.1219 H   0  0  0  0  0  0  0  0  0  0  0  0
   -0.6791    1.6760    0.3074 H   0  0  0  0  0  0  0  0  0  0  0  0
    1.2508    1.5729    0.2268 H   0  0  0  0  0  0  0  0  0  0  0  0
    0.3735    1.1881   -1.2555 H   0  0  0  0  0  0  0  0  0  0  0  0
    1.2513   -0.1076    2.1970 H   0  0  0  0  0  0  0  0  0  0  0  0
    0.3736   -1.6338    2.0137 H   0  0  0  0  0  0  0  0  0  0  0  0
   -0.5042   -0.1076    2.1970 H   0  0  0  0  0  0  0  0  0  0  0  0
  1  2  1  0
  1  3  1  0
  1 13  1  0
  4  5  1  0
  4  9  1  0
  4 10  1  0
  4 11  1  0
  5  6  2  3
  5 12  1  0
  6  7  1  0
  6  8  1  0
  7 14  1  0
  7 15  1  0
  8 16  1  0
  8 17  1  0
  8 18  1  0
M  RAD  1   7   2
M  END
>  <reaction>  (5) 
rxn_106

>  <mol_properties>  (5) 
{"0": {"label": "*3", "atom_type": "N3s"}, "1": {"label": "*4", "atom_type": "H0"}, "5": {"label": "*0", "atom_type": "Cd"}, "6": {"label": "*1", "atom_type": "Cs"}, "12": {"label": "*2", "atom_type": "H0"}}

>  <type>  (5) 
unop_1

>  <geom_source>  (5) 
Heuristics

$$$$

     RDKit          3D

 18 16  0  0  0  0  0  0  0  0999 V2000
   -1.6526    2.2580    0.7397 N   0  0  0  0  0  0  0  0  0  0  0  0
   -1.8935    1.8110    1.6141 H   0  0  0  0  0  0  0  0  0  0  0  0
   -0.9134    2.9480    0.7337 H   0  0  0  0  0  0  0  0  0  0  0  0
    0.3731   -1.4130   -2.0844 C   0  0  0  0  0  0  0  0  0  0  0  0
    0.3731   -1.4130   -0.5881 C   0  0  0  0  0  0  0  0  0  0  0  0
    0.3731   -0.3705    0.2392 C   0  0  0  0  0  0  0  0  0  0  0  0
    0.3731    1.0686   -0.1896 C   0  0  0  0  0  3  0  0  0  0  0  0
    0.3731   -0.5672    1.7294 C   0  0  0  0  0  0  0  0  0  0  0  0
    1.2504   -1.9406   -2.4685 H   0  0  0  0  0  0  0  0  0  0  0  0
   -0.5041   -1.9406   -2.4685 H   0  0  0  0  0  0  0  0  0  0  0  0
    0.3731   -0.4126   -2.5139 H   0  0  0  0  0  0  0  0  0  0  0  0
    0.3731   -2.4020   -0.1360 H   0  0  0  0  0  0  0  0  0  0  0  0
   -0.6795    1.6867    0.2933 H   0  0  0  0  0  0  0  0  0  0  0  0
    1.2503    1.5836    0.2128 H   0  0  0  0  0  0  0  0  0  0  0  0
    0.3731    1.1988   -1.2695 H   0  0  0  0  0  0  0  0  0  0  0  0
    1.2509   -0.0969    2.1829 H   0  0  0  0  0  0  0  0  0  0  0  0
    0.3731   -1.6231    1.9996 H   0  0  0  0  0  0  0  0  0  0  0  0
   -0.5047   -0.0969    2.1829 H   0  0  0  0  0  0  0  0  0  0  0  0
  1  2  1  0
  1  3  1  0
  1 13  1  0
  4  5  1  0
  4  9  1  0
  4 10  1  0
  4 11  1  0
  5  6  2  3
  5 12  1  0
  6  7  1  0
  6  8  1  0
  7 14  1  0
  7 15  1  0
  8 16  1  0
  8 17  1  0
  8 18  1  0
M  RAD  1   7   2
M  END
>  <reaction>  (6) 
rxn_106

>  <mol_properties>  (6) 
{"0": {"label": "*3", "atom_type": "N3s"}, "1": {"label": "*4", "atom_type": "H0"}, "5": {"label": "*0", "atom_type": "Cd"}, "6": {"label": "*1", "atom_type": "Cs"}, "12": {"label": "*2", "atom_type": "H0"}}

>  <type>  (6) 
unop_2

>  <geom_source>  (6) 
Heuristics

$$$$

     RDKit          3D

 18 16  0  0  0  0  0  0  0  0999 V2000
   -1.6457    2.2474    0.7591 N   0  0  0  0  0  0  0  0  0  0  0  0
   -1.3924    3.2164    0.8985 H   0  0  0  0  0  0  0  0  0  0  0  0
   -1.9830    2.4279   -0.1769 H   0  0  0  0  0  0  0  0  0  0  0  0
    0.3799   -1.4236   -2.0649 C   0  0  0  0  0  0  0  0  0  0  0  0
    0.3799   -1.4236   -0.5686 C   0  0  0  0  0  0  0  0  0  0  0  0
    0.3799   -0.3811    0.2587 C   0  0  0  0  0  0  0  0  0  0  0  0
    0.3799    1.0580   -0.1701 C   0  0  0  0  0  3  0  0  0  0  0  0
    0.3799   -0.5778    1.7489 C   0  0  0  0  0  0  0  0  0  0  0  0
    1.2572   -1.9512   -2.4491 H   0  0  0  0  0  0  0  0  0  0  0  0
   -0.4973   -1.9512   -2.4491 H   0  0  0  0  0  0  0  0  0  0  0  0
    0.3799   -0.4232   -2.4945 H   0  0  0  0  0  0  0  0  0  0  0  0
    0.3799   -2.4127   -0.1165 H   0  0  0  0  0  0  0  0  0  0  0  0
   -0.6727    1.6761    0.3128 H   0  0  0  0  0  0  0  0  0  0  0  0
    1.2571    1.5730    0.2323 H   0  0  0  0  0  0  0  0  0  0  0  0
    0.3799    1.1882   -1.2500 H   0  0  0  0  0  0  0  0  0  0  0  0
    1.2577   -0.1075    2.2024 H   0  0  0  0  0  0  0  0  0  0  0  0
    0.3799   -1.6337    2.0191 H   0  0  0  0  0  0  0  0  0  0  0  0
   -0.4978   -0.1075    2.2024 H   0  0  0  0  0  0  0  0  0  0  0  0
  1  2  1  0
  1  3  1  0
  1 13  1  0
  4  5  1  0
  4  9  1  0
  4 10  1  0
  4 11  1  0
  5  6  2  3
  5 12  1  0
  6  7  1  0
  6  8  1  0
  7 14  1  0
  7 15  1  0
  8 16  1  0
  8 17  1  0
  8 18  1  0
M  RAD  1   7   2
M  END
>  <reaction>  (7) 
rxn_106

>  <mol_properties>  (7) 
{"0": {"label": "*3", "atom_type": "N3s"}, "1": {"label": "*4", "atom_type": "H0"}, "5": {"label": "*0", "atom_type": "Cd"}, "6": {"label": "*1", "atom_type": "Cs"}, "12": {"label": "*2", "atom_type": "H0"}}

>  <type>  (7) 
unop_3

>  <geom_source>  (7) 
Heuristics

$$$$

     RDKit          3D

 18 16  0  0  0  0  0  0  0  0999 V2000
   -1.6364    2.2628    0.7428 N   0  0  0  0  0  0  0  0  0  0  0  0
   -2.4567    1.7935    0.3829 H   0  0  0  0  0  0  0  0  0  0  0  0
   -1.6957    2.5676    1.7051 H   0  0  0  0  0  0  0  0  0  0  0  0
    0.3892   -1.4082   -2.0813 C   0  0  0  0  0  0  0  0  0  0  0  0
    0.3892   -1.4082   -0.5850 C   0  0  0  0  0  0  0  0  0  0  0  0
    0.3892   -0.3657    0.2423 C   0  0  0  0  0  0  0  0  0  0  0  0
    0.3892    1.0733   -0.1865 C   0  0  0  0  0  3  0  0  0  0  0  0
    0.3892   -0.5624    1.7325 C   0  0  0  0  0  0  0  0  0  0  0  0
    1.2665   -1.9358   -2.4654 H   0  0  0  0  0  0  0  0  0  0  0  0
   -0.4880   -1.9358   -2.4654 H   0  0  0  0  0  0  0  0  0  0  0  0
    0.3892   -0.4078   -2.5108 H   0  0  0  0  0  0  0  0  0  0  0  0
    0.3892   -2.3973   -0.1329 H   0  0  0  0  0  0  0  0  0  0  0  0
   -0.6634    1.6914    0.2964 H   0  0  0  0  0  0  0  0  0  0  0  0
    1.2664    1.5884    0.2159 H   0  0  0  0  0  0  0  0  0  0  0  0
    0.3892    1.2035   -1.2664 H   0  0  0  0  0  0  0  0  0  0  0  0
    1.2670   -0.0921    2.1860 H   0  0  0  0  0  0  0  0  0  0  0  0
    0.3892   -1.6183    2.0028 H   0  0  0  0  0  0  0  0  0  0  0  0
   -0.4885   -0.0921    2.1860 H   0  0  0  0  0  0  0  0  0  0  0  0
  1  2  1  0
  1  3  1  0
  1 13  1  0
  4  5  1  0
  4  9  1  0
  4 10  1  0
  4 11  1  0
  5  6  2  3
  5 12  1  0
  6  7  1  0
  6  8  1  0
  7 14  1  0
  7 15  1  0
  8 16  1  0
  8 17  1  0
  8 18  1  0
M  RAD  1   7   2
M  END
>  <reaction>  (8) 
rxn_106

>  <mol_properties>  (8) 
{"0": {"label": "*3", "atom_type": "N3s"}, "1": {"label": "*4", "atom_type": "H0"}, "5": {"label": "*0", "atom_type": "Cd"}, "6": {"label": "*1", "atom_type": "Cs"}, "12": {"label": "*2", "atom_type": "H0"}}

>  <type>  (8) 
unop_4

>  <geom_source>  (8) 
Heuristics

$$$$

     RDKit          3D

 18 16  0  0  0  0  0  0  0  0999 V2000
   -1.6368    2.2506    0.7590 N   0  0  0  0  0  0  0  0  0  0  0  0
   -1.5956    3.2115    0.4466 H   0  0  0  0  0  0  0  0  0  0  0  0
   -2.5263    2.1656    0.2856 H   0  0  0  0  0  0  0  0  0  0  0  0
    0.3889   -1.4204   -2.0651 C   0  0  0  0  0  0  0  0  0  0  0  0
    0.3889   -1.4204   -0.5687 C   0  0  0  0  0  0  0  0  0  0  0  0
    0.3889   -0.3779    0.2586 C   0  0  0  0  0  0  0  0  0  0  0  0
    0.3889    1.0612   -0.1702 C   0  0  0  0  0  3  0  0  0  0  0  0
    0.3889   -0.5746    1.7487 C   0  0  0  0  0  0  0  0  0  0  0  0
    1.2661   -1.9480   -2.4492 H   0  0  0  0  0  0  0  0  0  0  0  0
   -0.4884   -1.9480   -2.4492 H   0  0  0  0  0  0  0  0  0  0  0  0
    0.3889   -0.4200   -2.4946 H   0  0  0  0  0  0  0  0  0  0  0  0
    0.3889   -2.4095   -0.1166 H   0  0  0  0  0  0  0  0  0  0  0  0
   -0.6638    1.6793    0.3126 H   0  0  0  0  0  0  0  0  0  0  0  0
    1.2661    1.5762    0.2321 H   0  0  0  0  0  0  0  0  0  0  0  0
    0.3888    1.1914   -1.2502 H   0  0  0  0  0  0  0  0  0  0  0  0
    1.2666   -0.1043    2.2022 H   0  0  0  0  0  0  0  0  0  0  0  0
    0.3889   -1.6305    2.0190 H   0  0  0  0  0  0  0  0  0  0  0  0
   -0.4889   -0.1043    2.2022 H   0  0  0  0  0  0  0  0  0  0  0  0
  1  2  1  0
  1  3  1  0
  1 13  1  0
  4  5  1  0
  4  9  1  0
  4 10  1  0
  4 11  1  0
  5  6  2  3
  5 12  1  0
  6  7  1  0
  6  8  1  0
  7 14  1  0
  7 15  1  0
  8 16  1  0
  8 17  1  0
  8 18  1  0
M  RAD  1   7   2
M  END
>  <reaction>  (9) 
rxn_106

>  <mol_properties>  (9) 
{"0": {"label": "*3", "atom_type": "N3s"}, "1": {"label": "*4", "atom_type": "H0"}, "5": {"label": "*0", "atom_type": "Cd"}, "6": {"label": "*1", "atom_type": "Cs"}, "12": {"label": "*2", "atom_type": "H0"}}

>  <type>  (9) 
unop_5

>  <geom_source>  (9) 
Heuristics

$$$$

     RDKit          3D

 18 16  0  0  0  0  0  0  0  0999 V2000
   -1.6333    2.2603    0.7470 N   0  0  0  0  0  0  0  0  0  0  0  0
   -2.3780    2.1682    0.0691 H   0  0  0  0  0  0  0  0  0  0  0  0
   -2.0338    2.4025    1.6646 H   0  0  0  0  0  0  0  0  0  0  0  0
    0.3923   -1.4107   -2.0771 C   0  0  0  0  0  0  0  0  0  0  0  0
    0.3923   -1.4107   -0.5807 C   0  0  0  0  0  0  0  0  0  0  0  0
    0.3923   -0.3682    0.2466 C   0  0  0  0  0  0  0  0  0  0  0  0
    0.3923    1.0708   -0.1822 C   0  0  0  0  0  3  0  0  0  0  0  0
    0.3923   -0.5649    1.7367 C   0  0  0  0  0  0  0  0  0  0  0  0
    1.2696   -1.9384   -2.4612 H   0  0  0  0  0  0  0  0  0  0  0  0
   -0.4849   -1.9384   -2.4612 H   0  0  0  0  0  0  0  0  0  0  0  0
    0.3923   -0.4103   -2.5066 H   0  0  0  0  0  0  0  0  0  0  0  0
    0.3923   -2.3998   -0.1286 H   0  0  0  0  0  0  0  0  0  0  0  0
   -0.6603    1.6889    0.3006 H   0  0  0  0  0  0  0  0  0  0  0  0
    1.2696    1.5859    0.2201 H   0  0  0  0  0  0  0  0  0  0  0  0
    0.3923    1.2010   -1.2622 H   0  0  0  0  0  0  0  0  0  0  0  0
    1.2701   -0.0947    2.1902 H   0  0  0  0  0  0  0  0  0  0  0  0
    0.3923   -1.6208    2.0070 H   0  0  0  0  0  0  0  0  0  0  0  0
   -0.4854   -0.0947    2.1902 H   0  0  0  0  0  0  0  0  0  0  0  0
  1  2  1  0
  1  3  1  0
  1 13  1  0
  4  5  1  0
  4  9  1  0
  4 10  1  0
  4 11  1  0
  5  6  2  3
  5 12  1  0
  6  7  1  0
  6  8  1  0
  7 14  1  0
  7 15  1  0
  8 16  1  0
  8 17  1  0
  8 18  1  0
M  RAD  1   7   2
M  END
>  <reaction>  (10) 
rxn_106

>  <mol_properties>  (10) 
{"0": {"label": "*3", "atom_type": "N3s"}, "1": {"label": "*4", "atom_type": "H0"}, "5": {"label": "*0", "atom_type": "Cd"}, "6": {"label": "*1", "atom_type": "Cs"}, "12": {"label": "*2", "atom_type": "H0"}}

>  <type>  (10) 
unop_6

>  <geom_source>  (10) 
Heuristics

$$$$

     RDKit          3D

 18 16  0  0  0  0  0  0  0  0999 V2000
   -1.6322    2.2568    0.7505 N   0  0  0  0  0  0  0  0  0  0  0  0
   -2.1671    2.6051   -0.0338 H   0  0  0  0  0  0  0  0  0  0  0  0
   -2.3393    2.2535    1.4734 H   0  0  0  0  0  0  0  0  0  0  0  0
    0.3935   -1.4142   -2.0735 C   0  0  0  0  0  0  0  0  0  0  0  0
    0.3935   -1.4142   -0.5772 C   0  0  0  0  0  0  0  0  0  0  0  0
    0.3935   -0.3717    0.2501 C   0  0  0  0  0  0  0  0  0  0  0  0
    0.3935    1.0674   -0.1787 C   0  0  0  0  0  3  0  0  0  0  0  0
    0.3935   -0.5684    1.7402 C   0  0  0  0  0  0  0  0  0  0  0  0
    1.2707   -1.9418   -2.4577 H   0  0  0  0  0  0  0  0  0  0  0  0
   -0.4838   -1.9418   -2.4577 H   0  0  0  0  0  0  0  0  0  0  0  0
    0.3935   -0.4137   -2.5031 H   0  0  0  0  0  0  0  0  0  0  0  0
    0.3935   -2.4032   -0.1251 H   0  0  0  0  0  0  0  0  0  0  0  0
   -0.6592    1.6855    0.3042 H   0  0  0  0  0  0  0  0  0  0  0  0
    1.2707    1.5825    0.2236 H   0  0  0  0  0  0  0  0  0  0  0  0
    0.3935    1.1976   -1.2587 H   0  0  0  0  0  0  0  0  0  0  0  0
    1.2712   -0.0981    2.1938 H   0  0  0  0  0  0  0  0  0  0  0  0
    0.3935   -1.6243    2.0105 H   0  0  0  0  0  0  0  0  0  0  0  0
   -0.4843   -0.0981    2.1938 H   0  0  0  0  0  0  0  0  0  0  0  0
  1  2  1  0
  1  3  1  0
  1 13  1  0
  4  5  1  0
  4  9  1  0
  4 10  1  0
  4 11  1  0
  5  6  2  3
  5 12  1  0
  6  7  1  0
  6  8  1  0
  7 14  1  0
  7 15  1  0
  8 16  1  0
  8 17  1  0
  8 18  1  0
M  RAD  1   7   2
M  END
>  <reaction>  (11) 
rxn_106

>  <mol_properties>  (11) 
{"0": {"label": "*3", "atom_type": "N3s"}, "1": {"label": "*4", "atom_type": "H0"}, "5": {"label": "*0", "atom_type": "Cd"}, "6": {"label": "*1", "atom_type": "Cs"}, "12": {"label": "*2", "atom_type": "H0"}}

>  <type>  (11) 
unop_7

>  <geom_source>  (11) 
Heuristics

$$$$

     RDKit          3D

 18 16  0  0  0  0  0  0  0  0999 V2000
   -1.6548    2.2500    0.7478 N   0  0  0  0  0  0  0  0  0  0  0  0
   -1.3984    2.6287    1.6497 H   0  0  0  0  0  0  0  0  0  0  0  0
   -1.2180    2.7989    0.0195 H   0  0  0  0  0  0  0  0  0  0  0  0
    0.3708   -1.4210   -2.0763 C   0  0  0  0  0  0  0  0  0  0  0  0
    0.3708   -1.4210   -0.5800 C   0  0  0  0  0  0  0  0  0  0  0  0
    0.3708   -0.3785    0.2473 C   0  0  0  0  0  0  0  0  0  0  0  0
    0.3708    1.0606   -0.1815 C   0  0  0  0  0  3  0  0  0  0  0  0
    0.3708   -0.5752    1.7375 C   0  0  0  0  0  0  0  0  0  0  0  0
    1.2481   -1.9486   -2.4604 H   0  0  0  0  0  0  0  0  0  0  0  0
   -0.5064   -1.9486   -2.4604 H   0  0  0  0  0  0  0  0  0  0  0  0
    0.3708   -0.4206   -2.5058 H   0  0  0  0  0  0  0  0  0  0  0  0
    0.3708   -2.4101   -0.1278 H   0  0  0  0  0  0  0  0  0  0  0  0
   -0.6818    1.6787    0.3014 H   0  0  0  0  0  0  0  0  0  0  0  0
    1.2480    1.5756    0.2209 H   0  0  0  0  0  0  0  0  0  0  0  0
    0.3708    1.1908   -1.2614 H   0  0  0  0  0  0  0  0  0  0  0  0
    1.2486   -0.1049    2.1910 H   0  0  0  0  0  0  0  0  0  0  0  0
    0.3708   -1.6311    2.0078 H   0  0  0  0  0  0  0  0  0  0  0  0
   -0.5069   -0.1049    2.1910 H   0  0  0  0  0  0  0  0  0  0  0  0
  1  2  1  0
  1  3  1  0
  1 13  1  0
  4  5  1  0
  4  9  1  0
  4 10  1  0
  4 11  1  0
  5  6  2  3
  5 12  1  0
  6  7  1  0
  6  8  1  0
  7 14  1  0
  7 15  1  0
  8 16  1  0
  8 17  1  0
  8 18  1  0
M  RAD  1   7   2
M  END
>  <reaction>  (12) 
rxn_106

>  <mol_properties>  (12) 
{"0": {"label": "*3", "atom_type": "N3s"}, "1": {"label": "*4", "atom_type": "H0"}, "5": {"label": "*0", "atom_type": "Cd"}, "6": {"label": "*1", "atom_type": "Cs"}, "12": {"label": "*2", "atom_type": "H0"}}

>  <type>  (12) 
unop_8

>  <geom_source>  (12) 
Heuristics

$$$$

     RDKit          3D

 18 16  0  0  0  0  0  0  0  0999 V2000
   -1.6417    2.2632    0.7391 N   0  0  0  0  0  0  0  0  0  0  0  0
   -2.3832    1.5808    0.8237 H   0  0  0  0  0  0  0  0  0  0  0  0
   -1.3284    2.7464    1.5703 H   0  0  0  0  0  0  0  0  0  0  0  0
    0.3839   -1.4078   -2.0850 C   0  0  0  0  0  0  0  0  0  0  0  0
    0.3839   -1.4078   -0.5887 C   0  0  0  0  0  0  0  0  0  0  0  0
    0.3839   -0.3653    0.2386 C   0  0  0  0  0  0  0  0  0  0  0  0
    0.3839    1.0738   -0.1902 C   0  0  0  0  0  3  0  0  0  0  0  0
    0.3840   -0.5620    1.7288 C   0  0  0  0  0  0  0  0  0  0  0  0
    1.2612   -1.9354   -2.4691 H   0  0  0  0  0  0  0  0  0  0  0  0
   -0.4933   -1.9354   -2.4691 H   0  0  0  0  0  0  0  0  0  0  0  0
    0.3840   -0.4074   -2.5145 H   0  0  0  0  0  0  0  0  0  0  0  0
    0.3840   -2.3969   -0.1365 H   0  0  0  0  0  0  0  0  0  0  0  0
   -0.6687    1.6918    0.2927 H   0  0  0  0  0  0  0  0  0  0  0  0
    1.2612    1.5888    0.2122 H   0  0  0  0  0  0  0  0  0  0  0  0
    0.3839    1.2040   -1.2701 H   0  0  0  0  0  0  0  0  0  0  0  0
    1.2617   -0.0917    2.1823 H   0  0  0  0  0  0  0  0  0  0  0  0
    0.3840   -1.6179    1.9991 H   0  0  0  0  0  0  0  0  0  0  0  0
   -0.4938   -0.0917    2.1823 H   0  0  0  0  0  0  0  0  0  0  0  0
  1  2  1  0
  1  3  1  0
  1 13  1  0
  4  5  1  0
  4  9  1  0
  4 10  1  0
  4 11  1  0
  5  6  2  3
  5 12  1  0
  6  7  1  0
  6  8  1  0
  7 14  1  0
  7 15  1  0
  8 16  1  0
  8 17  1  0
  8 18  1  0
M  RAD  1   7   2
M  END
>  <reaction>  (13) 
rxn_106

>  <mol_properties>  (13) 
{"0": {"label": "*3", "atom_type": "N3s"}, "1": {"label": "*4", "atom_type": "H0"}, "5": {"label": "*0", "atom_type": "Cd"}, "6": {"label": "*1", "atom_type": "Cs"}, "12": {"label": "*2", "atom_type": "H0"}}

>  <type>  (13) 
unop_9

>  <geom_source>  (13) 
Heuristics

$$$$

     RDKit          3D

 18 16  0  0  0  0  0  0  0  0999 V2000
   -1.6549    2.2540    0.7430 N   0  0  0  0  0  0  0  0  0  0  0  0
   -1.6081    2.1924    1.7513 H   0  0  0  0  0  0  0  0  0  0  0  0
   -1.0071    2.9022    0.3155 H   0  0  0  0  0  0  0  0  0  0  0  0
    0.3708   -1.4170   -2.0811 C   0  0  0  0  0  0  0  0  0  0  0  0
    0.3708   -1.4170   -0.5847 C   0  0  0  0  0  0  0  0  0  0  0  0
    0.3708   -0.3745    0.2426 C   0  0  0  0  0  0  0  0  0  0  0  0
    0.3708    1.0646   -0.1862 C   0  0  0  0  0  3  0  0  0  0  0  0
    0.3708   -0.5712    1.7327 C   0  0  0  0  0  0  0  0  0  0  0  0
    1.2481   -1.9446   -2.4652 H   0  0  0  0  0  0  0  0  0  0  0  0
   -0.5064   -1.9446   -2.4652 H   0  0  0  0  0  0  0  0  0  0  0  0
    0.3708   -0.4166   -2.5106 H   0  0  0  0  0  0  0  0  0  0  0  0
    0.3708   -2.4061   -0.1326 H   0  0  0  0  0  0  0  0  0  0  0  0
   -0.6818    1.6826    0.2966 H   0  0  0  0  0  0  0  0  0  0  0  0
    1.2480    1.5796    0.2161 H   0  0  0  0  0  0  0  0  0  0  0  0
    0.3708    1.1948   -1.2662 H   0  0  0  0  0  0  0  0  0  0  0  0
    1.2486   -0.1009    2.1862 H   0  0  0  0  0  0  0  0  0  0  0  0
    0.3708   -1.6271    2.0030 H   0  0  0  0  0  0  0  0  0  0  0  0
   -0.5070   -0.1009    2.1862 H   0  0  0  0  0  0  0  0  0  0  0  0
  1  2  1  0
  1  3  1  0
  1 13  1  0
  4  5  1  0
  4  9  1  0
  4 10  1  0
  4 11  1  0
  5  6  2  3
  5 12  1  0
  6  7  1  0
  6  8  1  0
  7 14  1  0
  7 15  1  0
  8 16  1  0
  8 17  1  0
  8 18  1  0
M  RAD  1   7   2
M  END
>  <reaction>  (14) 
rxn_106

>  <mol_properties>  (14) 
{"0": {"label": "*3", "atom_type": "N3s"}, "1": {"label": "*4", "atom_type": "H0"}, "5": {"label": "*0", "atom_type": "Cd"}, "6": {"label": "*1", "atom_type": "Cs"}, "12": {"label": "*2", "atom_type": "H0"}}

>  <type>  (14) 
unop_10

>  <geom_source>  (14) 
Heuristics

$$$$

     RDKit          3D

 18 16  0  0  0  0  0  0  0  0999 V2000
   -1.6326    2.2537    0.7540 N   0  0  0  0  0  0  0  0  0  0  0  0
   -1.8799    2.9874    0.1035 H   0  0  0  0  0  0  0  0  0  0  0  0
   -2.5935    2.1312    1.0441 H   0  0  0  0  0  0  0  0  0  0  0  0
    0.3931   -1.4173   -2.0700 C   0  0  0  0  0  0  0  0  0  0  0  0
    0.3931   -1.4173   -0.5737 C   0  0  0  0  0  0  0  0  0  0  0  0
    0.3931   -0.3748    0.2536 C   0  0  0  0  0  0  0  0  0  0  0  0
    0.3931    1.0643   -0.1752 C   0  0  0  0  0  3  0  0  0  0  0  0
    0.3931   -0.5715    1.7437 C   0  0  0  0  0  0  0  0  0  0  0  0
    1.2703   -1.9449   -2.4542 H   0  0  0  0  0  0  0  0  0  0  0  0
   -0.4842   -1.9449   -2.4542 H   0  0  0  0  0  0  0  0  0  0  0  0
    0.3931   -0.4169   -2.4996 H   0  0  0  0  0  0  0  0  0  0  0  0
    0.3931   -2.4064   -0.1216 H   0  0  0  0  0  0  0  0  0  0  0  0
   -0.6596    1.6824    0.3077 H   0  0  0  0  0  0  0  0  0  0  0  0
    1.2703    1.5793    0.2271 H   0  0  0  0  0  0  0  0  0  0  0  0
    0.3931    1.1945   -1.2552 H   0  0  0  0  0  0  0  0  0  0  0  0
    1.2708   -0.1012    2.1973 H   0  0  0  0  0  0  0  0  0  0  0  0
    0.3931   -1.6274    2.0140 H   0  0  0  0  0  0  0  0  0  0  0  0
   -0.4847   -0.1012    2.1973 H   0  0  0  0  0  0  0  0  0  0  0  0
  1  2  1  0
  1  3  1  0
  1 13  1  0
  4  5  1  0
  4  9  1  0
  4 10  1  0
  4 11  1  0
  5  6  2  3
  5 12  1  0
  6  7  1  0
  6  8  1  0
  7 14  1  0
  7 15  1  0
  8 16  1  0
  8 17  1  0
  8 18  1  0
M  RAD  1   7   2
M  END
>  <reaction>  (15) 
rxn_106

>  <mol_properties>  (15) 
{"0": {"label": "*3", "atom_type": "N3s"}, "1": {"label": "*4", "atom_type": "H0"}, "5": {"label": "*0", "atom_type": "Cd"}, "6": {"label": "*1", "atom_type": "Cs"}, "12": {"label": "*2", "atom_type": "H0"}}

>  <type>  (15) 
unop_11

>  <geom_source>  (15) 
Heuristics

$$$$

     RDKit          3D

 18 16  0  0  0  0  0  0  0  0999 V2000
   -1.6479    2.2613    0.7380 N   0  0  0  0  0  0  0  0  0  0  0  0
   -2.1773    1.5871    1.2744 H   0  0  0  0  0  0  0  0  0  0  0  0
   -1.0206    2.8958    1.2138 H   0  0  0  0  0  0  0  0  0  0  0  0
    0.3778   -1.4097   -2.0861 C   0  0  0  0  0  0  0  0  0  0  0  0
    0.3778   -1.4097   -0.5898 C   0  0  0  0  0  0  0  0  0  0  0  0
    0.3778   -0.3672    0.2375 C   0  0  0  0  0  0  0  0  0  0  0  0
    0.3778    1.0719   -0.1913 C   0  0  0  0  0  3  0  0  0  0  0  0
    0.3778   -0.5639    1.7277 C   0  0  0  0  0  0  0  0  0  0  0  0
    1.2550   -1.9373   -2.4702 H   0  0  0  0  0  0  0  0  0  0  0  0
   -0.4995   -1.9373   -2.4702 H   0  0  0  0  0  0  0  0  0  0  0  0
    0.3778   -0.4092   -2.5156 H   0  0  0  0  0  0  0  0  0  0  0  0
    0.3778   -2.3987   -0.1377 H   0  0  0  0  0  0  0  0  0  0  0  0
   -0.6748    1.6900    0.2916 H   0  0  0  0  0  0  0  0  0  0  0  0
    1.2550    1.5870    0.2111 H   0  0  0  0  0  0  0  0  0  0  0  0
    0.3778    1.2021   -1.2712 H   0  0  0  0  0  0  0  0  0  0  0  0
    1.2556   -0.0936    2.1812 H   0  0  0  0  0  0  0  0  0  0  0  0
    0.3778   -1.6198    1.9980 H   0  0  0  0  0  0  0  0  0  0  0  0
   -0.5000   -0.0936    2.1812 H   0  0  0  0  0  0  0  0  0  0  0  0
  1  2  1  0
  1  3  1  0
  1 13  1  0
  4  5  1  0
  4  9  1  0
  4 10  1  0
  4 11  1  0
  5  6  2  3
  5 12  1  0
  6  7  1  0
  6  8  1  0
  7 14  1  0
  7 15  1  0
  8 16  1  0
  8 17  1  0
  8 18  1  0
M  RAD  1   7   2
M  END
>  <reaction>  (16) 
rxn_106

>  <mol_properties>  (16) 
{"0": {"label": "*3", "atom_type": "N3s"}, "1": {"label": "*4", "atom_type": "H0"}, "5": {"label": "*0", "atom_type": "Cd"}, "6": {"label": "*1", "atom_type": "Cs"}, "12": {"label": "*2", "atom_type": "H0"}}

>  <type>  (16) 
unop_12

>  <geom_source>  (16) 
Heuristics

$$$$
