
     RDKit          3D

 11 10  0  0  0  0  0  0  0  0999 V2000
   -1.2710    0.1907   -0.2084 C   0  0  0  0  0  0  0  0  0  0  0  0
    0.0202   -0.6130   -0.2928 C   0  0  0  0  0  0  0  0  0  0  0  0
    0.1086   -1.6953    0.7756 C   0  0  0  0  0  0  0  0  0  0  0  0
   -1.3607    0.6851    0.7620 H   0  0  0  0  0  0  0  0  0  0  0  0
   -2.1429   -0.4567   -0.3299 H   0  0  0  0  0  0  0  0  0  0  0  0
   -1.3158    0.9602   -0.9809 H   0  0  0  0  0  0  0  0  0  0  0  0
    0.8757    0.0616   -0.1992 H   0  0  0  0  0  0  0  0  0  0  0  0
    0.0997   -1.0712   -1.2825 H   0  0  0  0  0  0  0  0  0  0  0  0
   -0.7198   -2.4022    0.6850 H   0  0  0  0  0  0  0  0  0  0  0  0
    1.0395   -2.2596    0.6989 H   0  0  0  0  0  0  0  0  0  0  0  0
    0.0624   -1.2603    1.7770 H   0  0  0  0  0  0  0  0  0  0  0  0
  1  2  1  0
  1  4  1  0
  1  5  1  0
  1  6  1  0
  2  3  1  0
  2  7  1  0
  2  8  1  0
  3  9  1  0
  3 10  1  0
  3 11  1  0
M  END
>  <reaction>  (1) 
rxn_912

>  <mol_properties>  (1) 
{"1": {"label": "donator", "atom_type": "Cs"}, "6": {"label": "d_hydrogen", "atom_type": "H0"}}

>  <type>  (1) 
r1h

$$$$

     RDKit          3D

 13 12  0  0  0  0  0  0  0  0999 V2000
   -1.3649   -0.5967   -0.3477 C   0  0  0  0  0  0  0  0  0  0  0  0
   -0.1601   -0.2776    0.4669 C   0  0  0  0  0  3  0  0  0  0  0  0
    1.1241   -0.9571    0.1414 C   0  0  0  0  0  0  0  0  0  0  0  0
   -0.1188    1.0130    1.2082 C   0  0  0  0  0  0  0  0  0  0  0  0
   -1.4265   -1.6632   -0.5770 H   0  0  0  0  0  0  0  0  0  0  0  0
   -2.2858   -0.3004    0.1602 H   0  0  0  0  0  0  0  0  0  0  0  0
   -1.3532   -0.0668   -1.3139 H   0  0  0  0  0  0  0  0  0  0  0  0
    1.6174   -0.4963   -0.7297 H   0  0  0  0  0  0  0  0  0  0  0  0
    0.9723   -2.0104   -0.1064 H   0  0  0  0  0  0  0  0  0  0  0  0
    1.8338   -0.8977    0.9701 H   0  0  0  0  0  0  0  0  0  0  0  0
   -1.0851    1.2507    1.6593 H   0  0  0  0  0  0  0  0  0  0  0  0
    0.6358    1.0009    1.9983 H   0  0  0  0  0  0  0  0  0  0  0  0
    0.1343    1.8546    0.5434 H   0  0  0  0  0  0  0  0  0  0  0  0
  1  2  1  0
  1  5  1  0
  1  6  1  0
  1  7  1  0
  2  3  1  0
  2  4  1  0
  3  8  1  0
  3  9  1  0
  3 10  1  0
  4 11  1  0
  4 12  1  0
  4 13  1  0
M  RAD  1   2   2
M  END
>  <reaction>  (2) 
rxn_912

>  <mol_properties>  (2) 
{"1": {"label": "acceptor", "atom_type": "Cs"}}

>  <type>  (2) 
r2

$$$$

     RDKit          3D

 14 13  0  0  0  0  0  0  0  0999 V2000
   -0.7647   -1.2352   -0.0349 C   0  0  0  0  0  0  0  0  0  0  0  0
    0.0570   -0.0126    0.3624 C   0  0  0  0  0  0  0  0  0  0  0  0
    1.4161   -0.0194   -0.3307 C   0  0  0  0  0  0  0  0  0  0  0  0
   -0.7022    1.2765    0.0629 C   0  0  0  0  0  0  0  0  0  0  0  0
   -0.2387   -2.1618    0.2039 H   0  0  0  0  0  0  0  0  0  0  0  0
   -0.9625   -1.2315   -1.1108 H   0  0  0  0  0  0  0  0  0  0  0  0
   -1.7273   -1.2512    0.4806 H   0  0  0  0  0  0  0  0  0  0  0  0
    0.2295   -0.0590    1.4432 H   0  0  0  0  0  0  0  0  0  0  0  0
    1.2933    0.0259   -1.4168 H   0  0  0  0  0  0  0  0  0  0  0  0
    2.0206    0.8381   -0.0279 H   0  0  0  0  0  0  0  0  0  0  0  0
    1.9767   -0.9268   -0.0965 H   0  0  0  0  0  0  0  0  0  0  0  0
   -1.6638    1.3002    0.5800 H   0  0  0  0  0  0  0  0  0  0  0  0
   -0.8979    1.3663   -1.0096 H   0  0  0  0  0  0  0  0  0  0  0  0
   -0.1313    2.1545    0.3720 H   0  0  0  0  0  0  0  0  0  0  0  0
  1  2  1  0
  1  5  1  0
  1  6  1  0
  1  7  1  0
  2  3  1  0
  2  4  1  0
  2  8  1  0
  3  9  1  0
  3 10  1  0
  3 11  1  0
  4 12  1  0
  4 13  1  0
  4 14  1  0
M  END
>  <reaction>  (3) 
rxn_912

>  <mol_properties>  (3) 
{"1": {"label": "acceptor", "atom_type": "Cs"}, "13": {"label": "a_hydrogen", "atom_type": "H0"}}

>  <type>  (3) 
r2h

$$$$

     RDKit          3D

 24 22  0  0  0  0  0  0  0  0999 V2000
    0.8140   -0.3578    2.0156 C   0  0  0  0  0  0  0  0  0  0  0  0
    0.6337   -0.7333    0.5645 C   0  0  0  0  0  0  0  0  0  0  0  0
    1.8258   -0.4127   -0.3045 C   0  0  0  0  0  0  0  0  0  0  0  0
    0.0793   -2.1219    0.3557 C   0  0  0  0  0  0  0  0  0  0  0  0
    1.1185    0.6861    2.1202 H   0  0  0  0  0  0  0  0  0  0  0  0
   -0.1112   -0.4989    2.5792 H   0  0  0  0  0  0  0  0  0  0  0  0
    1.5866   -0.9754    2.4904 H   0  0  0  0  0  0  0  0  0  0  0  0
    2.6864   -1.0407   -0.0414 H   0  0  0  0  0  0  0  0  0  0  0  0
    2.1330    0.6290   -0.1886 H   0  0  0  0  0  0  0  0  0  0  0  0
    1.6054   -0.5861   -1.3604 H   0  0  0  0  0  0  0  0  0  0  0  0
   -0.8547   -2.2624    0.9047 H   0  0  0  0  0  0  0  0  0  0  0  0
   -0.1164   -2.3161   -0.7012 H   0  0  0  0  0  0  0  0  0  0  0  0
    0.7853   -2.8854    0.7059 H   0  0  0  0  0  0  0  0  0  0  0  0
   -1.6418    0.3697   -1.7082 C   0  0  0  0  0  0  0  0  0  0  0  0
   -1.2756    0.9234   -0.3567 C   0  0  0  0  0  3  0  0  0  0  0  0
   -0.6248    2.2813   -0.3560 C   0  0  0  0  0  0  0  0  0  0  0  0
   -0.7650    0.3220   -2.3603 H   0  0  0  0  0  0  0  0  0  0  0  0
   -2.3856    0.9970   -2.2136 H   0  0  0  0  0  0  0  0  0  0  0  0
   -2.0577   -0.6364   -1.6306 H   0  0  0  0  0  0  0  0  0  0  0  0
   -0.3267    0.0742    0.1334 H   0  0  0  0  0  0  0  0  0  0  0  0
   -2.0758    0.8299    0.3785 H   0  0  0  0  0  0  0  0  0  0  0  0
   -1.3048    3.0552   -0.7314 H   0  0  0  0  0  0  0  0  0  0  0  0
   -0.3134    2.5764    0.6479 H   0  0  0  0  0  0  0  0  0  0  0  0
    0.2597    2.2897   -0.9988 H   0  0  0  0  0  0  0  0  0  0  0  0
  1  2  1  0
  1  5  1  0
  1  6  1  0
  1  7  1  0
  2  3  1  0
  2  4  1  0
  2 20  1  0
  3  8  1  0
  3  9  1  0
  3 10  1  0
  4 11  1  0
  4 12  1  0
  4 13  1  0
 14 15  1  0
 14 17  1  0
 14 18  1  0
 14 19  1  0
 15 16  1  0
 15 21  1  0
 16 22  1  0
 16 23  1  0
 16 24  1  0
M  RAD  1  15   2
M  END
>  <reaction>  (4) 
rxn_912

>  <mol_properties>  (4) 
{"0": {"label": "*0", "atom_type": "Cs"}, "1": {"label": "*1", "atom_type": "Cs"}, "13": {"label": "*4", "atom_type": "Cs"}, "14": {"label": "*3", "atom_type": "Cs"}, "19": {"label": "*2", "atom_type": "H0"}}

>  <type>  (4) 
ts

$$$$

     RDKit          3D

 24 22  0  0  0  0  0  0  0  0999 V2000
    1.6701    0.2924    1.1884 C   0  0  0  0  0  0  0  0  0  0  0  0
    0.8333   -0.6671    0.3476 C   0  0  0  0  0  3  0  0  0  0  0  0
    1.6903   -1.8064   -0.1959 C   0  0  0  0  0  0  0  0  0  0  0  0
   -0.3481   -1.2066    1.1482 C   0  0  0  0  0  0  0  0  0  0  0  0
    2.5008    0.7046    0.6117 H   0  0  0  0  0  0  0  0  0  0  0  0
    1.0683    1.1261    1.5563 H   0  0  0  0  0  0  0  0  0  0  0  0
    2.0903   -0.2242    2.0562 H   0  0  0  0  0  0  0  0  0  0  0  0
    2.1113   -2.3951    0.6244 H   0  0  0  0  0  0  0  0  0  0  0  0
    2.5213   -1.4274   -0.7946 H   0  0  0  0  0  0  0  0  0  0  0  0
    1.1031   -2.4808   -0.8227 H   0  0  0  0  0  0  0  0  0  0  0  0
   -0.9819   -0.3966    1.5154 H   0  0  0  0  0  0  0  0  0  0  0  0
   -0.9676   -1.8715    0.5427 H   0  0  0  0  0  0  0  0  0  0  0  0
    0.0028   -1.7747    2.0147 H   0  0  0  0  0  0  0  0  0  0  0  0
   -1.2674    0.6453   -2.0501 C   0  0  0  0  0  0  0  0  0  0  0  0
   -1.2674    0.6453   -0.5268 C   0  0  0  0  0  0  0  0  0  0  0  0
   -1.2674    2.0511    0.0599 C   0  0  0  0  0  0  0  0  0  0  0  0
   -0.3860    1.1595   -2.4407 H   0  0  0  0  0  0  0  0  0  0  0  0
   -2.1489    1.1595   -2.4407 H   0  0  0  0  0  0  0  0  0  0  0  0
   -1.2674   -0.3696   -2.4513 H   0  0  0  0  0  0  0  0  0  0  0  0
   -0.2180   -0.0104   -0.0900 H   0  0  0  0  0  0  0  0  0  0  0  0
   -2.1419    0.0989   -0.1628 H   0  0  0  0  0  0  0  0  0  0  0  0
   -2.1489    2.6096   -0.2642 H   0  0  0  0  0  0  0  0  0  0  0  0
   -1.2674    2.0304    1.1511 H   0  0  0  0  0  0  0  0  0  0  0  0
   -0.3860    2.6096   -0.2642 H   0  0  0  0  0  0  0  0  0  0  0  0
  1  2  1  0
  1  5  1  0
  1  6  1  0
  1  7  1  0
  2  3  1  0
  2  4  1  0
  3  8  1  0
  3  9  1  0
  3 10  1  0
  4 11  1  0
  4 12  1  0
  4 13  1  0
 14 15  1  0
 14 17  1  0
 14 18  1  0
 14 19  1  0
 15 16  1  0
 15 20  1  0
 15 21  1  0
 16 22  1  0
 16 23  1  0
 16 24  1  0
M  RAD  1   2   2
M  END
>  <reaction>  (5) 
rxn_912

>  <mol_properties>  (5) 
{"0": {"label": "*0", "atom_type": "Cs"}, "1": {"label": "*1", "atom_type": "Cs"}, "13": {"label": "*4", "atom_type": "Cs"}, "14": {"label": "*3", "atom_type": "Cs"}, "19": {"label": "*2", "atom_type": "H0"}}

>  <type>  (5) 
unop_1

>  <geom_source>  (5) 
Heuristics

$$$$

     RDKit          3D

 24 22  0  0  0  0  0  0  0  0999 V2000
    1.8377   -0.5702   -0.6081 C   0  0  0  0  0  0  0  0  0  0  0  0
    0.7226   -0.7294    0.4211 C   0  0  0  0  0  3  0  0  0  0  0  0
    0.6331   -2.1718    0.9105 C   0  0  0  0  0  0  0  0  0  0  0  0
    0.9164    0.2325    1.5893 C   0  0  0  0  0  0  0  0  0  0  0  0
    1.6887   -1.2357   -1.4610 H   0  0  0  0  0  0  0  0  0  0  0  0
    1.8878    0.4538   -0.9839 H   0  0  0  0  0  0  0  0  0  0  0  0
    2.8078   -0.8102   -0.1630 H   0  0  0  0  0  0  0  0  0  0  0  0
    1.5619   -2.4667    1.4076 H   0  0  0  0  0  0  0  0  0  0  0  0
    0.4651   -2.8626    0.0816 H   0  0  0  0  0  0  0  0  0  0  0  0
   -0.1822   -2.2984    1.6258 H   0  0  0  0  0  0  0  0  0  0  0  0
    0.9519    1.2693    1.2483 H   0  0  0  0  0  0  0  0  0  0  0  0
    0.1055    0.1439    2.3154 H   0  0  0  0  0  0  0  0  0  0  0  0
    1.8549    0.0202    2.1098 H   0  0  0  0  0  0  0  0  0  0  0  0
   -1.3781    0.5830   -1.9766 C   0  0  0  0  0  0  0  0  0  0  0  0
   -1.3781    0.5830   -0.4533 C   0  0  0  0  0  0  0  0  0  0  0  0
   -1.3781    1.9888    0.1334 C   0  0  0  0  0  0  0  0  0  0  0  0
   -0.4966    1.0972   -2.3673 H   0  0  0  0  0  0  0  0  0  0  0  0
   -2.2595    1.0972   -2.3673 H   0  0  0  0  0  0  0  0  0  0  0  0
   -1.3781   -0.4319   -2.3778 H   0  0  0  0  0  0  0  0  0  0  0  0
   -0.3287   -0.0727   -0.0165 H   0  0  0  0  0  0  0  0  0  0  0  0
   -2.2526    0.0366   -0.0893 H   0  0  0  0  0  0  0  0  0  0  0  0
   -2.2595    2.5473   -0.1907 H   0  0  0  0  0  0  0  0  0  0  0  0
   -1.3781    1.9681    1.2245 H   0  0  0  0  0  0  0  0  0  0  0  0
   -0.4966    2.5473   -0.1907 H   0  0  0  0  0  0  0  0  0  0  0  0
  1  2  1  0
  1  5  1  0
  1  6  1  0
  1  7  1  0
  2  3  1  0
  2  4  1  0
  3  8  1  0
  3  9  1  0
  3 10  1  0
  4 11  1  0
  4 12  1  0
  4 13  1  0
 14 15  1  0
 14 17  1  0
 14 18  1  0
 14 19  1  0
 15 16  1  0
 15 20  1  0
 15 21  1  0
 16 22  1  0
 16 23  1  0
 16 24  1  0
M  RAD  1   2   2
M  END
>  <reaction>  (6) 
rxn_912

>  <mol_properties>  (6) 
{"0": {"label": "*0", "atom_type": "Cs"}, "1": {"label": "*1", "atom_type": "Cs"}, "13": {"label": "*4", "atom_type": "Cs"}, "14": {"label": "*3", "atom_type": "Cs"}, "19": {"label": "*2", "atom_type": "H0"}}

>  <type>  (6) 
unop_2

>  <geom_source>  (6) 
Heuristics

$$$$

     RDKit          3D

 24 22  0  0  0  0  0  0  0  0999 V2000
    1.2166   -0.0203    1.7445 C   0  0  0  0  0  0  0  0  0  0  0  0
    0.8113   -0.6229    0.4027 C   0  0  0  0  0  3  0  0  0  0  0  0
    2.0373   -1.0723   -0.3865 C   0  0  0  0  0  0  0  0  0  0  0  0
   -0.1671   -1.7775    0.5959 C   0  0  0  0  0  0  0  0  0  0  0  0
    1.8943    0.8256    1.6114 H   0  0  0  0  0  0  0  0  0  0  0  0
    0.3452    0.3300    2.3018 H   0  0  0  0  0  0  0  0  0  0  0  0
    1.7293   -0.7649    2.3605 H   0  0  0  0  0  0  0  0  0  0  0  0
    2.5782   -1.8530    0.1563 H   0  0  0  0  0  0  0  0  0  0  0  0
    2.7279   -0.2431   -0.5534 H   0  0  0  0  0  0  0  0  0  0  0  0
    1.7556   -1.4780   -1.3605 H   0  0  0  0  0  0  0  0  0  0  0  0
   -1.0604   -1.4550    1.1350 H   0  0  0  0  0  0  0  0  0  0  0  0
   -0.4836   -2.1944   -0.3625 H   0  0  0  0  0  0  0  0  0  0  0  0
    0.2981   -2.5825    1.1725 H   0  0  0  0  0  0  0  0  0  0  0  0
   -1.2894    0.6894   -1.9950 C   0  0  0  0  0  0  0  0  0  0  0  0
   -1.2894    0.6894   -0.4716 C   0  0  0  0  0  0  0  0  0  0  0  0
   -1.2894    2.0953    0.1151 C   0  0  0  0  0  0  0  0  0  0  0  0
   -0.4079    1.2037   -2.3856 H   0  0  0  0  0  0  0  0  0  0  0  0
   -2.1708    1.2037   -2.3856 H   0  0  0  0  0  0  0  0  0  0  0  0
   -1.2894   -0.3255   -2.3961 H   0  0  0  0  0  0  0  0  0  0  0  0
   -0.2399    0.0338   -0.0348 H   0  0  0  0  0  0  0  0  0  0  0  0
   -2.1639    0.1431   -0.1076 H   0  0  0  0  0  0  0  0  0  0  0  0
   -2.1708    2.6538   -0.2091 H   0  0  0  0  0  0  0  0  0  0  0  0
   -1.2894    2.0746    1.2062 H   0  0  0  0  0  0  0  0  0  0  0  0
   -0.4079    2.6538   -0.2091 H   0  0  0  0  0  0  0  0  0  0  0  0
  1  2  1  0
  1  5  1  0
  1  6  1  0
  1  7  1  0
  2  3  1  0
  2  4  1  0
  3  8  1  0
  3  9  1  0
  3 10  1  0
  4 11  1  0
  4 12  1  0
  4 13  1  0
 14 15  1  0
 14 17  1  0
 14 18  1  0
 14 19  1  0
 15 16  1  0
 15 20  1  0
 15 21  1  0
 16 22  1  0
 16 23  1  0
 16 24  1  0
M  RAD  1   2   2
M  END
>  <reaction>  (7) 
rxn_912

>  <mol_properties>  (7) 
{"0": {"label": "*0", "atom_type": "Cs"}, "1": {"label": "*1", "atom_type": "Cs"}, "13": {"label": "*4", "atom_type": "Cs"}, "14": {"label": "*3", "atom_type": "Cs"}, "19": {"label": "*2", "atom_type": "H0"}}

>  <type>  (7) 
unop_3

>  <geom_source>  (7) 
Heuristics

$$$$

     RDKit          3D

 24 22  0  0  0  0  0  0  0  0999 V2000
    0.7344   -2.0754   -0.1576 C   0  0  0  0  0  0  0  0  0  0  0  0
    0.8200   -0.6466    0.3705 C   0  0  0  0  0  3  0  0  0  0  0  0
    0.0497   -0.5011    1.6794 C   0  0  0  0  0  0  0  0  0  0  0  0
    2.2731   -0.2136    0.5411 C   0  0  0  0  0  0  0  0  0  0  0  0
   -0.3029   -2.3811   -0.3095 H   0  0  0  0  0  0  0  0  0  0  0  0
    1.2595   -2.1790   -1.1094 H   0  0  0  0  0  0  0  0  0  0  0  0
    1.1878   -2.7744    0.5514 H   0  0  0  0  0  0  0  0  0  0  0  0
    0.4795   -1.1461    2.4514 H   0  0  0  0  0  0  0  0  0  0  0  0
   -0.9984   -0.7818    1.5566 H   0  0  0  0  0  0  0  0  0  0  0  0
    0.0828    0.5264    2.0475 H   0  0  0  0  0  0  0  0  0  0  0  0
    2.8225   -0.2877   -0.3997 H   0  0  0  0  0  0  0  0  0  0  0  0
    2.3413    0.8185    0.8912 H   0  0  0  0  0  0  0  0  0  0  0  0
    2.7793   -0.8487    1.2740 H   0  0  0  0  0  0  0  0  0  0  0  0
   -1.2807    0.6658   -2.0272 C   0  0  0  0  0  0  0  0  0  0  0  0
   -1.2807    0.6658   -0.5038 C   0  0  0  0  0  0  0  0  0  0  0  0
   -1.2807    2.0716    0.0829 C   0  0  0  0  0  0  0  0  0  0  0  0
   -0.3992    1.1801   -2.4178 H   0  0  0  0  0  0  0  0  0  0  0  0
   -2.1621    1.1801   -2.4178 H   0  0  0  0  0  0  0  0  0  0  0  0
   -1.2807   -0.3491   -2.4283 H   0  0  0  0  0  0  0  0  0  0  0  0
   -0.2312    0.0102   -0.0670 H   0  0  0  0  0  0  0  0  0  0  0  0
   -2.1552    0.1195   -0.1398 H   0  0  0  0  0  0  0  0  0  0  0  0
   -2.1621    2.6302   -0.2413 H   0  0  0  0  0  0  0  0  0  0  0  0
   -1.2807    2.0510    1.1740 H   0  0  0  0  0  0  0  0  0  0  0  0
   -0.3992    2.6302   -0.2413 H   0  0  0  0  0  0  0  0  0  0  0  0
  1  2  1  0
  1  5  1  0
  1  6  1  0
  1  7  1  0
  2  3  1  0
  2  4  1  0
  3  8  1  0
  3  9  1  0
  3 10  1  0
  4 11  1  0
  4 12  1  0
  4 13  1  0
 14 15  1  0
 14 17  1  0
 14 18  1  0
 14 19  1  0
 15 16  1  0
 15 20  1  0
 15 21  1  0
 16 22  1  0
 16 23  1  0
 16 24  1  0
M  RAD  1   2   2
M  END
>  <reaction>  (8) 
rxn_912

>  <mol_properties>  (8) 
{"0": {"label": "*0", "atom_type": "Cs"}, "1": {"label": "*1", "atom_type": "Cs"}, "13": {"label": "*4", "atom_type": "Cs"}, "14": {"label": "*3", "atom_type": "Cs"}, "19": {"label": "*2", "atom_type": "H0"}}

>  <type>  (8) 
unop_4

>  <geom_source>  (8) 
Heuristics

$$$$

     RDKit          3D

 24 22  0  0  0  0  0  0  0  0999 V2000
    0.7029   -0.6481    1.9712 C   0  0  0  0  0  0  0  0  0  0  0  0
    0.7371   -0.6695    0.4461 C   0  0  0  0  0  3  0  0  0  0  0  0
    1.9837    0.0341   -0.0820 C   0  0  0  0  0  0  0  0  0  0  0  0
    0.6515   -2.0983   -0.0821 C   0  0  0  0  0  0  0  0  0  0  0  0
    0.7344    0.3738    2.3548 H   0  0  0  0  0  0  0  0  0  0  0  0
   -0.2017   -1.1247    2.3548 H   0  0  0  0  0  0  0  0  0  0  0  0
    1.5628   -1.1853    2.3820 H   0  0  0  0  0  0  0  0  0  0  0  0
    2.8875   -0.4797    0.2582 H   0  0  0  0  0  0  0  0  0  0  0  0
    2.0354    1.0668    0.2690 H   0  0  0  0  0  0  0  0  0  0  0  0
    1.9994    0.0477   -1.1739 H   0  0  0  0  0  0  0  0  0  0  0  0
   -0.2539   -2.5978    0.2690 H   0  0  0  0  0  0  0  0  0  0  0  0
    0.6461   -2.1184   -1.1739 H   0  0  0  0  0  0  0  0  0  0  0  0
    1.5096   -2.6854    0.2582 H   0  0  0  0  0  0  0  0  0  0  0  0
   -1.3636    0.6429   -1.9516 C   0  0  0  0  0  0  0  0  0  0  0  0
   -1.3636    0.6429   -0.4283 C   0  0  0  0  0  0  0  0  0  0  0  0
   -1.3636    2.0487    0.1584 C   0  0  0  0  0  0  0  0  0  0  0  0
   -0.4821    1.1571   -2.3423 H   0  0  0  0  0  0  0  0  0  0  0  0
   -2.2451    1.1571   -2.3423 H   0  0  0  0  0  0  0  0  0  0  0  0
   -1.3636   -0.3720   -2.3528 H   0  0  0  0  0  0  0  0  0  0  0  0
   -0.3142   -0.0127    0.0085 H   0  0  0  0  0  0  0  0  0  0  0  0
   -2.2381    0.0965   -0.0643 H   0  0  0  0  0  0  0  0  0  0  0  0
   -2.2451    2.6073   -0.1657 H   0  0  0  0  0  0  0  0  0  0  0  0
   -1.3636    2.0280    1.2495 H   0  0  0  0  0  0  0  0  0  0  0  0
   -0.4821    2.6073   -0.1657 H   0  0  0  0  0  0  0  0  0  0  0  0
  1  2  1  0
  1  5  1  0
  1  6  1  0
  1  7  1  0
  2  3  1  0
  2  4  1  0
  3  8  1  0
  3  9  1  0
  3 10  1  0
  4 11  1  0
  4 12  1  0
  4 13  1  0
 14 15  1  0
 14 17  1  0
 14 18  1  0
 14 19  1  0
 15 16  1  0
 15 20  1  0
 15 21  1  0
 16 22  1  0
 16 23  1  0
 16 24  1  0
M  RAD  1   2   2
M  END
>  <reaction>  (9) 
rxn_912

>  <mol_properties>  (9) 
{"0": {"label": "*0", "atom_type": "Cs"}, "1": {"label": "*1", "atom_type": "Cs"}, "13": {"label": "*4", "atom_type": "Cs"}, "14": {"label": "*3", "atom_type": "Cs"}, "19": {"label": "*2", "atom_type": "H0"}}

>  <type>  (9) 
unop_5

>  <geom_source>  (9) 
Heuristics

$$$$

     RDKit          3D

 24 22  0  0  0  0  0  0  0  0999 V2000
    0.4230   -2.1682    0.4934 C   0  0  0  0  0  0  0  0  0  0  0  0
    0.8166   -0.7025    0.3370 C   0  0  0  0  0  3  0  0  0  0  0  0
    0.3203    0.1252    1.5188 C   0  0  0  0  0  0  0  0  0  0  0  0
    2.3256   -0.5577    0.1643 C   0  0  0  0  0  0  0  0  0  0  0  0
   -0.6590   -2.2809    0.5882 H   0  0  0  0  0  0  0  0  0  0  0  0
    0.7501   -2.7608   -0.3637 H   0  0  0  0  0  0  0  0  0  0  0  0
    0.8827   -2.5956    1.3893 H   0  0  0  0  0  0  0  0  0  0  0  0
    0.7765   -0.2235    2.4500 H   0  0  0  0  0  0  0  0  0  0  0  0
   -0.7633    0.0488    1.6298 H   0  0  0  0  0  0  0  0  0  0  0  0
    0.5737    1.1806    1.3986 H   0  0  0  0  0  0  0  0  0  0  0  0
    2.6827   -1.1247   -0.6980 H   0  0  0  0  0  0  0  0  0  0  0  0
    2.6106    0.4869    0.0227 H   0  0  0  0  0  0  0  0  0  0  0  0
    2.8506   -0.9298    1.0489 H   0  0  0  0  0  0  0  0  0  0  0  0
   -1.2841    0.6099   -2.0607 C   0  0  0  0  0  0  0  0  0  0  0  0
   -1.2841    0.6099   -0.5373 C   0  0  0  0  0  0  0  0  0  0  0  0
   -1.2841    2.0157    0.0494 C   0  0  0  0  0  0  0  0  0  0  0  0
   -0.4027    1.1242   -2.4513 H   0  0  0  0  0  0  0  0  0  0  0  0
   -2.1656    1.1242   -2.4513 H   0  0  0  0  0  0  0  0  0  0  0  0
   -1.2841   -0.4050   -2.4618 H   0  0  0  0  0  0  0  0  0  0  0  0
   -0.2347   -0.0457   -0.1005 H   0  0  0  0  0  0  0  0  0  0  0  0
   -2.1587    0.0636   -0.1733 H   0  0  0  0  0  0  0  0  0  0  0  0
   -2.1656    2.5743   -0.2748 H   0  0  0  0  0  0  0  0  0  0  0  0
   -1.2841    1.9950    1.1405 H   0  0  0  0  0  0  0  0  0  0  0  0
   -0.4027    2.5743   -0.2748 H   0  0  0  0  0  0  0  0  0  0  0  0
  1  2  1  0
  1  5  1  0
  1  6  1  0
  1  7  1  0
  2  3  1  0
  2  4  1  0
  3  8  1  0
  3  9  1  0
  3 10  1  0
  4 11  1  0
  4 12  1  0
  4 13  1  0
 14 15  1  0
 14 17  1  0
 14 18  1  0
 14 19  1  0
 15 16  1  0
 15 20  1  0
 15 21  1  0
 16 22  1  0
 16 23  1  0
 16 24  1  0
M  RAD  1   2   2
M  END
>  <reaction>  (10) 
rxn_912

>  <mol_properties>  (10) 
{"0": {"label": "*0", "atom_type": "Cs"}, "1": {"label": "*1", "atom_type": "Cs"}, "13": {"label": "*4", "atom_type": "Cs"}, "14": {"label": "*3", "atom_type": "Cs"}, "19": {"label": "*2", "atom_type": "H0"}}

>  <type>  (10) 
unop_6

>  <geom_source>  (10) 
Heuristics

$$$$

     RDKit          3D

 24 22  0  0  0  0  0  0  0  0999 V2000
    0.2818   -1.9298    1.1884 C   0  0  0  0  0  0  0  0  0  0  0  0
    0.7772   -0.7570    0.3476 C   0  0  0  0  0  3  0  0  0  0  0  0
    0.7438    0.5413    1.1482 C   0  0  0  0  0  0  0  0  0  0  0  0
    2.1769   -1.0276   -0.1959 C   0  0  0  0  0  0  0  0  0  0  0  0
   -0.7314   -1.7546    1.5562 H   0  0  0  0  0  0  0  0  0  0  0  0
    0.2756   -2.8572    0.6117 H   0  0  0  0  0  0  0  0  0  0  0  0
    0.9304   -2.0809    2.0562 H   0  0  0  0  0  0  0  0  0  0  0  0
    1.4083    0.4751    2.0147 H   0  0  0  0  0  0  0  0  0  0  0  0
   -0.2620    0.7556    1.5154 H   0  0  0  0  0  0  0  0  0  0  0  0
    1.0698    1.3896    0.5427 H   0  0  0  0  0  0  0  0  0  0  0  0
    2.2007   -1.9406   -0.7946 H   0  0  0  0  0  0  0  0  0  0  0  0
    2.5254   -0.2041   -0.8227 H   0  0  0  0  0  0  0  0  0  0  0  0
    2.8906   -1.1477    0.6244 H   0  0  0  0  0  0  0  0  0  0  0  0
   -1.3236    0.5554   -2.0501 C   0  0  0  0  0  0  0  0  0  0  0  0
   -1.3236    0.5554   -0.5268 C   0  0  0  0  0  0  0  0  0  0  0  0
   -1.3236    1.9612    0.0599 C   0  0  0  0  0  0  0  0  0  0  0  0
   -0.4421    1.0696   -2.4407 H   0  0  0  0  0  0  0  0  0  0  0  0
   -2.2050    1.0696   -2.4407 H   0  0  0  0  0  0  0  0  0  0  0  0
   -1.3236   -0.4595   -2.4513 H   0  0  0  0  0  0  0  0  0  0  0  0
   -0.2741   -0.1002   -0.0900 H   0  0  0  0  0  0  0  0  0  0  0  0
   -2.1981    0.0090   -0.1628 H   0  0  0  0  0  0  0  0  0  0  0  0
   -2.2050    2.5198   -0.2642 H   0  0  0  0  0  0  0  0  0  0  0  0
   -1.3236    1.9405    1.1511 H   0  0  0  0  0  0  0  0  0  0  0  0
   -0.4421    2.5198   -0.2642 H   0  0  0  0  0  0  0  0  0  0  0  0
  1  2  1  0
  1  5  1  0
  1  6  1  0
  1  7  1  0
  2  3  1  0
  2  4  1  0
  3  8  1  0
  3  9  1  0
  3 10  1  0
  4 11  1  0
  4 12  1  0
  4 13  1  0
 14 15  1  0
 14 17  1  0
 14 18  1  0
 14 19  1  0
 15 16  1  0
 15 20  1  0
 15 21  1  0
 16 22  1  0
 16 23  1  0
 16 24  1  0
M  RAD  1   2   2
M  END
>  <reaction>  (11) 
rxn_912

>  <mol_properties>  (11) 
{"0": {"label": "*0", "atom_type": "Cs"}, "1": {"label": "*1", "atom_type": "Cs"}, "13": {"label": "*4", "atom_type": "Cs"}, "14": {"label": "*3", "atom_type": "Cs"}, "19": {"label": "*2", "atom_type": "H0"}}

>  <type>  (11) 
unop_7

>  <geom_source>  (11) 
Heuristics

$$$$

     RDKit          3D

 24 22  0  0  0  0  0  0  0  0999 V2000
    1.9463    0.2700    0.4934 C   0  0  0  0  0  0  0  0  0  0  0  0
    0.8016   -0.7265    0.3370 C   0  0  0  0  0  3  0  0  0  0  0  0
    1.3332   -2.1461    0.1643 C   0  0  0  0  0  0  0  0  0  0  0  0
   -0.1598   -0.6435    1.5188 C   0  0  0  0  0  0  0  0  0  0  0  0
    2.6222    0.2360   -0.3637 H   0  0  0  0  0  0  0  0  0  0  0  0
    1.5730    1.2919    0.5882 H   0  0  0  0  0  0  0  0  0  0  0  0
    2.5320    0.0443    1.3893 H   0  0  0  0  0  0  0  0  0  0  0  0
    1.8979   -2.4548    1.0489 H   0  0  0  0  0  0  0  0  0  0  0  0
    1.9994   -2.2184   -0.6980 H   0  0  0  0  0  0  0  0  0  0  0  0
    0.5194   -2.8603    0.0227 H   0  0  0  0  0  0  0  0  0  0  0  0
   -0.5665    0.3639    1.6298 H   0  0  0  0  0  0  0  0  0  0  0  0
   -0.9973   -1.3340    1.3986 H   0  0  0  0  0  0  0  0  0  0  0  0
    0.3535   -0.9005    2.4500 H   0  0  0  0  0  0  0  0  0  0  0  0
   -1.2991    0.5859   -2.0607 C   0  0  0  0  0  0  0  0  0  0  0  0
   -1.2991    0.5859   -0.5373 C   0  0  0  0  0  0  0  0  0  0  0  0
   -1.2991    1.9917    0.0494 C   0  0  0  0  0  0  0  0  0  0  0  0
   -0.4177    1.1002   -2.4513 H   0  0  0  0  0  0  0  0  0  0  0  0
   -2.1806    1.1002   -2.4513 H   0  0  0  0  0  0  0  0  0  0  0  0
   -1.2991   -0.4290   -2.4618 H   0  0  0  0  0  0  0  0  0  0  0  0
   -0.2497   -0.0697   -0.1005 H   0  0  0  0  0  0  0  0  0  0  0  0
   -2.1737    0.0396   -0.1733 H   0  0  0  0  0  0  0  0  0  0  0  0
   -2.1806    2.5503   -0.2748 H   0  0  0  0  0  0  0  0  0  0  0  0
   -1.2991    1.9711    1.1405 H   0  0  0  0  0  0  0  0  0  0  0  0
   -0.4177    2.5503   -0.2748 H   0  0  0  0  0  0  0  0  0  0  0  0
  1  2  1  0
  1  5  1  0
  1  6  1  0
  1  7  1  0
  2  3  1  0
  2  4  1  0
  3  8  1  0
  3  9  1  0
  3 10  1  0
  4 11  1  0
  4 12  1  0
  4 13  1  0
 14 15  1  0
 14 17  1  0
 14 18  1  0
 14 19  1  0
 15 16  1  0
 15 20  1  0
 15 21  1  0
 16 22  1  0
 16 23  1  0
 16 24  1  0
M  RAD  1   2   2
M  END
>  <reaction>  (12) 
rxn_912

>  <mol_properties>  (12) 
{"0": {"label": "*0", "atom_type": "Cs"}, "1": {"label": "*1", "atom_type": "Cs"}, "13": {"label": "*4", "atom_type": "Cs"}, "14": {"label": "*3", "atom_type": "Cs"}, "19": {"label": "*2", "atom_type": "H0"}}

>  <type>  (12) 
unop_8

>  <geom_source>  (12) 
Heuristics

$$$$

     RDKit          3D

 24 22  0  0  0  0  0  0  0  0999 V2000
    1.1305   -1.7021   -0.6081 C   0  0  0  0  0  0  0  0  0  0  0  0
    0.7846   -0.6302    0.4211 C   0  0  0  0  0  3  0  0  0  0  0  0
    0.0050   -1.2262    1.5893 C   0  0  0  0  0  0  0  0  0  0  0  0
    2.0416    0.0828    0.9105 C   0  0  0  0  0  0  0  0  0  0  0  0
    0.2322   -2.1963   -0.9839 H   0  0  0  0  0  0  0  0  0  0  0  0
    1.6633   -1.2765   -1.4610 H   0  0  0  0  0  0  0  0  0  0  0  0
    1.7716   -2.4687   -0.1630 H   0  0  0  0  0  0  0  0  0  0  0  0
    0.6075   -1.9765    2.1098 H   0  0  0  0  0  0  0  0  0  0  0  0
   -0.9111   -1.7128    1.2482 H   0  0  0  0  0  0  0  0  0  0  0  0
   -0.2709   -0.4586    2.3154 H   0  0  0  0  0  0  0  0  0  0  0  0
    2.5888    0.5367    0.0816 H   0  0  0  0  0  0  0  0  0  0  0  0
    1.7979    0.8711    1.6258 H   0  0  0  0  0  0  0  0  0  0  0  0
    2.7140   -0.6226    1.4076 H   0  0  0  0  0  0  0  0  0  0  0  0
   -1.3161    0.6822   -1.9766 C   0  0  0  0  0  0  0  0  0  0  0  0
   -1.3161    0.6822   -0.4533 C   0  0  0  0  0  0  0  0  0  0  0  0
   -1.3161    2.0880    0.1334 C   0  0  0  0  0  0  0  0  0  0  0  0
   -0.4346    1.1965   -2.3673 H   0  0  0  0  0  0  0  0  0  0  0  0
   -2.1976    1.1964   -2.3673 H   0  0  0  0  0  0  0  0  0  0  0  0
   -1.3161   -0.3327   -2.3778 H   0  0  0  0  0  0  0  0  0  0  0  0
   -0.2667    0.0266   -0.0165 H   0  0  0  0  0  0  0  0  0  0  0  0
   -2.1906    0.1358   -0.0893 H   0  0  0  0  0  0  0  0  0  0  0  0
   -2.1976    2.6466   -0.1907 H   0  0  0  0  0  0  0  0  0  0  0  0
   -1.3161    2.0673    1.2245 H   0  0  0  0  0  0  0  0  0  0  0  0
   -0.4346    2.6466   -0.1907 H   0  0  0  0  0  0  0  0  0  0  0  0
  1  2  1  0
  1  5  1  0
  1  6  1  0
  1  7  1  0
  2  3  1  0
  2  4  1  0
  3  8  1  0
  3  9  1  0
  3 10  1  0
  4 11  1  0
  4 12  1  0
  4 13  1  0
 14 15  1  0
 14 17  1  0
 14 18  1  0
 14 19  1  0
 15 16  1  0
 15 20  1  0
 15 21  1  0
 16 22  1  0
 16 23  1  0
 16 24  1  0
M  RAD  1   2   2
M  END
>  <reaction>  (13) 
rxn_912

>  <mol_properties>  (13) 
{"0": {"label": "*0", "atom_type": "Cs"}, "1": {"label": "*1", "atom_type": "Cs"}, "13": {"label": "*4", "atom_type": "Cs"}, "14": {"label": "*3", "atom_type": "Cs"}, "19": {"label": "*2", "atom_type": "H0"}}

>  <type>  (13) 
unop_9

>  <geom_source>  (13) 
Heuristics

$$$$

     RDKit          3D

 24 22  0  0  0  0  0  0  0  0999 V2000
    1.9994   -0.0505   -0.1576 C   0  0  0  0  0  0  0  0  0  0  0  0
    0.7529   -0.7541    0.3705 C   0  0  0  0  0  3  0  0  0  0  0  0
    1.0010   -2.2498    0.5411 C   0  0  0  0  0  0  0  0  0  0  0  0
    0.2843   -0.1256    1.6795 C   0  0  0  0  0  0  0  0  0  0  0  0
    2.3228   -0.4770   -1.1094 H   0  0  0  0  0  0  0  0  0  0  0  0
    1.8192    1.0157   -0.3095 H   0  0  0  0  0  0  0  0  0  0  0  0
    2.8264   -0.1515    0.5514 H   0  0  0  0  0  0  0  0  0  0  0  0
    1.7937   -2.4262    1.2740 H   0  0  0  0  0  0  0  0  0  0  0  0
    1.3085   -2.7111   -0.3998 H   0  0  0  0  0  0  0  0  0  0  0  0
    0.1033   -2.7638    0.8912 H   0  0  0  0  0  0  0  0  0  0  0  0
    0.0769    0.9395    1.5566 H   0  0  0  0  0  0  0  0  0  0  0  0
   -0.6246   -0.6060    2.0476 H   0  0  0  0  0  0  0  0  0  0  0  0
    1.0525   -0.2290    2.4515 H   0  0  0  0  0  0  0  0  0  0  0  0
   -1.3479    0.5583   -2.0272 C   0  0  0  0  0  0  0  0  0  0  0  0
   -1.3479    0.5583   -0.5038 C   0  0  0  0  0  0  0  0  0  0  0  0
   -1.3479    1.9641    0.0829 C   0  0  0  0  0  0  0  0  0  0  0  0
   -0.4664    1.0726   -2.4178 H   0  0  0  0  0  0  0  0  0  0  0  0
   -2.2293    1.0726   -2.4178 H   0  0  0  0  0  0  0  0  0  0  0  0
   -1.3479   -0.4566   -2.4283 H   0  0  0  0  0  0  0  0  0  0  0  0
   -0.2984   -0.0973   -0.0670 H   0  0  0  0  0  0  0  0  0  0  0  0
   -2.2224    0.0119   -0.1398 H   0  0  0  0  0  0  0  0  0  0  0  0
   -2.2293    2.5227   -0.2413 H   0  0  0  0  0  0  0  0  0  0  0  0
   -1.3479    1.9434    1.1740 H   0  0  0  0  0  0  0  0  0  0  0  0
   -0.4664    2.5227   -0.2413 H   0  0  0  0  0  0  0  0  0  0  0  0
  1  2  1  0
  1  5  1  0
  1  6  1  0
  1  7  1  0
  2  3  1  0
  2  4  1  0
  3  8  1  0
  3  9  1  0
  3 10  1  0
  4 11  1  0
  4 12  1  0
  4 13  1  0
 14 15  1  0
 14 17  1  0
 14 18  1  0
 14 19  1  0
 15 16  1  0
 15 20  1  0
 15 21  1  0
 16 22  1  0
 16 23  1  0
 16 24  1  0
M  RAD  1   2   2
M  END
>  <reaction>  (14) 
rxn_912

>  <mol_properties>  (14) 
{"0": {"label": "*0", "atom_type": "Cs"}, "1": {"label": "*1", "atom_type": "Cs"}, "13": {"label": "*4", "atom_type": "Cs"}, "14": {"label": "*3", "atom_type": "Cs"}, "19": {"label": "*2", "atom_type": "H0"}}

>  <type>  (14) 
unop_10

>  <geom_source>  (14) 
Heuristics

$$$$

     RDKit          3D

 24 22  0  0  0  0  0  0  0  0999 V2000
    0.3639   -1.3851    1.7445 C   0  0  0  0  0  0  0  0  0  0  0  0
    0.7278   -0.7566    0.4027 C   0  0  0  0  0  3  0  0  0  0  0  0
    1.3363    0.6291    0.5959 C   0  0  0  0  0  0  0  0  0  0  0  0
    1.6693   -1.6613   -0.3865 C   0  0  0  0  0  0  0  0  0  0  0  0
   -0.3330   -0.7557    2.3018 H   0  0  0  0  0  0  0  0  0  0  0  0
   -0.0990   -2.3652    1.6114 H   0  0  0  0  0  0  0  0  0  0  0  0
    1.2580   -1.5193    2.3605 H   0  0  0  0  0  0  0  0  0  0  0  0
    2.2637    0.5640    1.1725 H   0  0  0  0  0  0  0  0  0  0  0  0
    0.6547    1.2904    1.1350 H   0  0  0  0  0  0  0  0  0  0  0  0
    1.5721    1.0963   -0.3625 H   0  0  0  0  0  0  0  0  0  0  0  0
    1.2270   -2.6457   -0.5534 H   0  0  0  0  0  0  0  0  0  0  0  0
    1.9104   -1.2303   -1.3605 H   0  0  0  0  0  0  0  0  0  0  0  0
    2.6082   -1.8050    0.1563 H   0  0  0  0  0  0  0  0  0  0  0  0
   -1.3729    0.5558   -1.9950 C   0  0  0  0  0  0  0  0  0  0  0  0
   -1.3729    0.5558   -0.4716 C   0  0  0  0  0  0  0  0  0  0  0  0
   -1.3729    1.9616    0.1151 C   0  0  0  0  0  0  0  0  0  0  0  0
   -0.4915    1.0700   -2.3856 H   0  0  0  0  0  0  0  0  0  0  0  0
   -2.2544    1.0700   -2.3856 H   0  0  0  0  0  0  0  0  0  0  0  0
   -1.3729   -0.4591   -2.3961 H   0  0  0  0  0  0  0  0  0  0  0  0
   -0.3235   -0.0999   -0.0348 H   0  0  0  0  0  0  0  0  0  0  0  0
   -2.2474    0.0094   -0.1076 H   0  0  0  0  0  0  0  0  0  0  0  0
   -2.2544    2.5201   -0.2091 H   0  0  0  0  0  0  0  0  0  0  0  0
   -1.3729    1.9409    1.2062 H   0  0  0  0  0  0  0  0  0  0  0  0
   -0.4915    2.5201   -0.2091 H   0  0  0  0  0  0  0  0  0  0  0  0
  1  2  1  0
  1  5  1  0
  1  6  1  0
  1  7  1  0
  2  3  1  0
  2  4  1  0
  3  8  1  0
  3  9  1  0
  3 10  1  0
  4 11  1  0
  4 12  1  0
  4 13  1  0
 14 15  1  0
 14 17  1  0
 14 18  1  0
 14 19  1  0
 15 16  1  0
 15 20  1  0
 15 21  1  0
 16 22  1  0
 16 23  1  0
 16 24  1  0
M  RAD  1   2   2
M  END
>  <reaction>  (15) 
rxn_912

>  <mol_properties>  (15) 
{"0": {"label": "*0", "atom_type": "Cs"}, "1": {"label": "*1", "atom_type": "Cs"}, "13": {"label": "*4", "atom_type": "Cs"}, "14": {"label": "*3", "atom_type": "Cs"}, "19": {"label": "*2", "atom_type": "H0"}}

>  <type>  (15) 
unop_11

>  <geom_source>  (15) 
Heuristics

$$$$

     RDKit          3D

 24 22  0  0  0  0  0  0  0  0999 V2000
    1.5225   -1.1602   -0.7665 C   0  0  0  0  0  0  0  0  0  0  0  0
    0.7371   -0.6695    0.4461 C   0  0  0  0  0  3  0  0  0  0  0  0
    0.2417   -1.8423    1.2868 C   0  0  0  0  0  0  0  0  0  0  0  0
    1.5739    0.2901    1.2868 C   0  0  0  0  0  0  0  0  0  0  0  0
    0.9188   -1.8247   -1.3882 H   0  0  0  0  0  0  0  0  0  0  0  0
    1.8550   -0.3262   -1.3882 H   0  0  0  0  0  0  0  0  0  0  0  0
    2.4105   -1.7150   -0.4497 H   0  0  0  0  0  0  0  0  0  0  0  0
    1.0857   -2.4206    1.6740 H   0  0  0  0  0  0  0  0  0  0  0  0
   -0.3823   -2.5176    0.6976 H   0  0  0  0  0  0  0  0  0  0  0  0
   -0.3461   -1.4985    2.1405 H   0  0  0  0  0  0  0  0  0  0  0  0
    1.9071    1.1470    0.6976 H   0  0  0  0  0  0  0  0  0  0  0  0
    1.0071    0.6676    2.1405 H   0  0  0  0  0  0  0  0  0  0  0  0
    2.4637   -0.2149    1.6741 H   0  0  0  0  0  0  0  0  0  0  0  0
   -1.3636    0.6429   -1.9516 C   0  0  0  0  0  0  0  0  0  0  0  0
   -1.3636    0.6429   -0.4283 C   0  0  0  0  0  0  0  0  0  0  0  0
   -1.3636    2.0487    0.1584 C   0  0  0  0  0  0  0  0  0  0  0  0
   -0.4821    1.1571   -2.3423 H   0  0  0  0  0  0  0  0  0  0  0  0
   -2.2451    1.1571   -2.3423 H   0  0  0  0  0  0  0  0  0  0  0  0
   -1.3636   -0.3720   -2.3528 H   0  0  0  0  0  0  0  0  0  0  0  0
   -0.3142   -0.0127    0.0085 H   0  0  0  0  0  0  0  0  0  0  0  0
   -2.2381    0.0965   -0.0643 H   0  0  0  0  0  0  0  0  0  0  0  0
   -2.2451    2.6073   -0.1657 H   0  0  0  0  0  0  0  0  0  0  0  0
   -1.3636    2.0280    1.2495 H   0  0  0  0  0  0  0  0  0  0  0  0
   -0.4821    2.6073   -0.1657 H   0  0  0  0  0  0  0  0  0  0  0  0
  1  2  1  0
  1  5  1  0
  1  6  1  0
  1  7  1  0
  2  3  1  0
  2  4  1  0
  3  8  1  0
  3  9  1  0
  3 10  1  0
  4 11  1  0
  4 12  1  0
  4 13  1  0
 14 15  1  0
 14 17  1  0
 14 18  1  0
 14 19  1  0
 15 16  1  0
 15 20  1  0
 15 21  1  0
 16 22  1  0
 16 23  1  0
 16 24  1  0
M  RAD  1   2   2
M  END
>  <reaction>  (16) 
rxn_912

>  <mol_properties>  (16) 
{"0": {"label": "*0", "atom_type": "Cs"}, "1": {"label": "*1", "atom_type": "Cs"}, "13": {"label": "*4", "atom_type": "Cs"}, "14": {"label": "*3", "atom_type": "Cs"}, "19": {"label": "*2", "atom_type": "H0"}}

>  <type>  (16) 
unop_12

>  <geom_source>  (16) 
Heuristics

$$$$

     RDKit          3D

 24 22  0  0  0  0  0  0  0  0999 V2000
   -1.1091    0.0787   -0.0834 C   0  0  0  0  0  3  0  0  0  0  0  0
   -2.0020   -0.3592    1.0812 C   0  0  0  0  0  0  0  0  0  0  0  0
   -0.9208   -1.0673   -1.0817 C   0  0  0  0  0  0  0  0  0  0  0  0
   -1.6927    1.3119   -0.7790 C   0  0  0  0  0  0  0  0  0  0  0  0
    2.0916   -1.2400    0.4353 C   0  0  0  0  0  0  0  0  0  0  0  0
    2.0881    1.2308   -0.0662 C   0  0  0  0  0  0  0  0  0  0  0  0
    1.3623    0.0841    0.6264 C   0  0  0  0  0  0  0  0  0  0  0  0
    0.1029    0.4085    0.4144 H   0  0  0  0  0  0  0  0  0  0  0  0
   -3.0136   -0.6410    0.7174 H   0  0  0  0  0  0  0  0  0  0  0  0
   -2.1003    0.4673    1.8166 H   0  0  0  0  0  0  0  0  0  0  0  0
   -1.5495   -1.2304    1.6006 H   0  0  0  0  0  0  0  0  0  0  0  0
   -1.8960   -1.3731   -1.5185 H   0  0  0  0  0  0  0  0  0  0  0  0
   -0.4626   -1.9424   -0.5740 H   0  0  0  0  0  0  0  0  0  0  0  0
   -0.2419   -0.7500   -1.9013 H   0  0  0  0  0  0  0  0  0  0  0  0
   -2.6938    1.0865   -1.2056 H   0  0  0  0  0  0  0  0  0  0  0  0
   -1.0179    1.6421   -1.5970 H   0  0  0  0  0  0  0  0  0  0  0  0
   -1.7893    2.1475   -0.0537 H   0  0  0  0  0  0  0  0  0  0  0  0
    1.5224   -2.0483    0.9397 H   0  0  0  0  0  0  0  0  0  0  0  0
    3.1097   -1.1880    0.8766 H   0  0  0  0  0  0  0  0  0  0  0  0
    2.1682   -1.4818   -0.6458 H   0  0  0  0  0  0  0  0  0  0  0  0
    1.5165    2.1703    0.0835 H   0  0  0  0  0  0  0  0  0  0  0  0
    3.1061    1.3577    0.3600 H   0  0  0  0  0  0  0  0  0  0  0  0
    2.1647    1.0323   -1.1560 H   0  0  0  0  0  0  0  0  0  0  0  0
    1.2567    0.3039    1.7106 H   0  0  0  0  0  0  0  0  0  0  0  0
  1  2  1  0
  1  3  1  0
  1  4  1  0
  2  9  1  0
  2 10  1  0
  2 11  1  0
  3 12  1  0
  3 13  1  0
  3 14  1  0
  4 15  1  0
  4 16  1  0
  4 17  1  0
  5  7  1  0
  5 18  1  0
  5 19  1  0
  5 20  1  0
  6  7  1  0
  6 21  1  0
  6 22  1  0
  6 23  1  0
  7  8  1  0
  7 24  1  0
M  RAD  1   1   2
M  END
>  <reaction>  (17) 
rxn_912

>  <mol_properties>  (17) 
{"0": {"label": "*0", "atom_type": "Cs"}, "1": {"label": "*1", "atom_type": "Cs"}, "13": {"label": "*4", "atom_type": "Cs"}, "14": {"label": "*3", "atom_type": "Cs"}, "19": {"label": "*2", "atom_type": "H0"}}

>  <type>  (17) 
unop_13

>  <geom_source>  (17) 
AutoTST

$$$$

     RDKit          3D

 24 22  0  0  0  0  0  0  0  0999 V2000
    1.8377   -0.5702   -0.6080 C   0  0  0  0  0  0  0  0  0  0  0  0
    0.7226   -0.7294    0.4211 C   0  0  0  0  0  3  0  0  0  0  0  0
    0.6331   -2.1718    0.9105 C   0  0  0  0  0  0  0  0  0  0  0  0
    0.9164    0.2326    1.5894 C   0  0  0  0  0  0  0  0  0  0  0  0
    1.6887   -1.2357   -1.4610 H   0  0  0  0  0  0  0  0  0  0  0  0
    1.8879    0.4538   -0.9839 H   0  0  0  0  0  0  0  0  0  0  0  0
    2.8078   -0.8102   -0.1630 H   0  0  0  0  0  0  0  0  0  0  0  0
    1.5619   -2.4667    1.4076 H   0  0  0  0  0  0  0  0  0  0  0  0
    0.4651   -2.8626    0.0816 H   0  0  0  0  0  0  0  0  0  0  0  0
   -0.1822   -2.2984    1.6258 H   0  0  0  0  0  0  0  0  0  0  0  0
    0.9519    1.2693    1.2483 H   0  0  0  0  0  0  0  0  0  0  0  0
    0.1055    0.1439    2.3154 H   0  0  0  0  0  0  0  0  0  0  0  0
    1.8549    0.0202    2.1098 H   0  0  0  0  0  0  0  0  0  0  0  0
   -1.3781    0.5829   -1.9766 C   0  0  0  0  0  0  0  0  0  0  0  0
   -1.3781    0.5829   -0.4533 C   0  0  0  0  0  0  0  0  0  0  0  0
   -1.3781    1.9888    0.1334 C   0  0  0  0  0  0  0  0  0  0  0  0
   -0.4966    1.0972   -2.3673 H   0  0  0  0  0  0  0  0  0  0  0  0
   -2.2595    1.0972   -2.3673 H   0  0  0  0  0  0  0  0  0  0  0  0
   -1.3781   -0.4320   -2.3778 H   0  0  0  0  0  0  0  0  0  0  0  0
   -0.3286   -0.0727   -0.0165 H   0  0  0  0  0  0  0  0  0  0  0  0
   -2.2526    0.0366   -0.0893 H   0  0  0  0  0  0  0  0  0  0  0  0
   -2.2595    2.5473   -0.1907 H   0  0  0  0  0  0  0  0  0  0  0  0
   -1.3781    1.9681    1.2245 H   0  0  0  0  0  0  0  0  0  0  0  0
   -0.4966    2.5473   -0.1907 H   0  0  0  0  0  0  0  0  0  0  0  0
  1  2  1  0
  1  5  1  0
  1  6  1  0
  1  7  1  0
  2  3  1  0
  2  4  1  0
  3  8  1  0
  3  9  1  0
  3 10  1  0
  4 11  1  0
  4 12  1  0
  4 13  1  0
 14 15  1  0
 14 17  1  0
 14 18  1  0
 14 19  1  0
 15 16  1  0
 15 20  1  0
 15 21  1  0
 16 22  1  0
 16 23  1  0
 16 24  1  0
M  RAD  1   2   2
M  END
>  <reaction>  (18) 
rxn_912

>  <mol_properties>  (18) 
{"0": {"label": "*0", "atom_type": "Cs"}, "1": {"label": "*1", "atom_type": "Cs"}, "13": {"label": "*4", "atom_type": "Cs"}, "14": {"label": "*3", "atom_type": "Cs"}, "19": {"label": "*2", "atom_type": "H0"}}

>  <type>  (18) 
unop_14

>  <geom_source>  (18) 
gaussian_log

$$$$
