
     RDKit          3D

  7  6  0  0  0  0  0  0  0  0999 V2000
   -0.6782    0.0507    0.0301 C   0  0  0  0  0  0  0  0  0  0  0  0
    0.8092    0.0996    0.0213 C   0  0  0  0  0  0  0  0  0  0  0  0
    1.7473    0.7521    1.1507 S   0  0  0  0  0  0  0  0  0  0  0  0
   -1.0667    0.5456   -0.8653 H   0  0  0  0  0  0  0  0  0  0  0  0
   -1.0112   -0.9904   -0.0239 H   0  0  0  0  0  0  0  0  0  0  0  0
   -1.0920    0.5225    0.9188 H   0  0  0  0  0  0  0  0  0  0  0  0
    1.2740   -0.3620   -0.8520 H   0  0  0  0  0  0  0  0  0  0  0  0
  1  2  1  0
  1  4  1  0
  1  5  1  0
  1  6  1  0
  2  3  2  0
  2  7  1  0
M  END
>  <reaction>  (1) 
rxn_1966

>  <mol_properties>  (1) 
{"0": {"label": "donator", "atom_type": "Cs"}, "3": {"label": "d_hydrogen", "atom_type": "H0"}}

>  <type>  (1) 
r1h

$$$$

     RDKit          3D

 14 14  0  0  0  0  0  0  0  0999 V2000
    2.3111    0.1295    0.0255 C   0  0  0  0  0  0  0  0  0  0  0  0
    0.9132    0.0511    0.0101 C   0  0  0  0  0  0  0  0  0  0  0  0
    0.1101    1.2180   -0.0350 C   0  0  0  0  0  3  0  0  0  0  0  0
   -1.2644    1.1347   -0.0499 C   0  0  0  0  0  0  0  0  0  0  0  0
   -1.8967   -0.1062   -0.0209 C   0  0  0  0  0  0  0  0  0  0  0  0
   -1.1306   -1.2689    0.0235 C   0  0  0  0  0  0  0  0  0  0  0  0
    0.2446   -1.1981    0.0389 C   0  0  0  0  0  0  0  0  0  0  0  0
    2.9188   -0.7647    0.0599 H   0  0  0  0  0  0  0  0  0  0  0  0
    2.8158    1.0859    0.0034 H   0  0  0  0  0  0  0  0  0  0  0  0
    0.5964    2.1860   -0.0577 H   0  0  0  0  0  0  0  0  0  0  0  0
   -1.8572    2.0404   -0.0845 H   0  0  0  0  0  0  0  0  0  0  0  0
   -2.9772   -0.1668   -0.0328 H   0  0  0  0  0  0  0  0  0  0  0  0
   -1.6191   -2.2351    0.0461 H   0  0  0  0  0  0  0  0  0  0  0  0
    0.8353   -2.1058    0.0735 H   0  0  0  0  0  0  0  0  0  0  0  0
  1  2  2  3
  1  8  1  0
  1  9  1  0
  2  3  1  0
  2  7  1  0
  3  4  1  0
  3 10  1  0
  4  5  2  0
  4 11  1  0
  5  6  1  0
  5 12  1  0
  6  7  2  0
  6 13  1  0
  7 14  1  0
M  RAD  1   3   2
M  END
>  <reaction>  (2) 
rxn_1966

>  <mol_properties>  (2) 
{"0": {"label": "acceptor", "atom_type": "Cs"}}

>  <type>  (2) 
r2

$$$$

     RDKit          3D

 15 15  0  0  0  0  0  0  0  0999 V2000
    2.2033   -0.2106   -0.1691 C   0  0  0  0  0  0  0  0  0  0  0  0
    0.7079   -0.0769   -0.0833 C   0  0  0  0  0  0  0  0  0  0  0  0
    0.0133   -0.5320    1.0332 C   0  0  0  0  0  0  0  0  0  0  0  0
   -1.3681   -0.4375    1.1023 C   0  0  0  0  0  0  0  0  0  0  0  0
   -2.0817    0.1179    0.0512 C   0  0  0  0  0  0  0  0  0  0  0  0
   -1.4017    0.5784   -1.0658 C   0  0  0  0  0  0  0  0  0  0  0  0
   -0.0203    0.4813   -1.1294 C   0  0  0  0  0  0  0  0  0  0  0  0
    2.6627   -0.1689    0.8190 H   0  0  0  0  0  0  0  0  0  0  0  0
    2.4808   -1.1663   -0.6212 H   0  0  0  0  0  0  0  0  0  0  0  0
    2.6378    0.5807   -0.7809 H   0  0  0  0  0  0  0  0  0  0  0  0
    0.5630   -0.9645    1.8617 H   0  0  0  0  0  0  0  0  0  0  0  0
   -1.8884   -0.7961    1.9818 H   0  0  0  0  0  0  0  0  0  0  0  0
   -3.1603    0.1950    0.1041 H   0  0  0  0  0  0  0  0  0  0  0  0
   -1.9485    1.0183   -1.8907 H   0  0  0  0  0  0  0  0  0  0  0  0
    0.5030    0.8475   -2.0056 H   0  0  0  0  0  0  0  0  0  0  0  0
  1  2  1  0
  1  8  1  0
  1  9  1  0
  1 10  1  0
  2  3  2  0
  2  7  1  0
  3  4  1  0
  3 11  1  0
  4  5  2  0
  4 12  1  0
  5  6  1  0
  5 13  1  0
  6  7  2  0
  6 14  1  0
  7 15  1  0
M  END
>  <reaction>  (3) 
rxn_1966

>  <mol_properties>  (3) 
{"0": {"label": "acceptor", "atom_type": "Cs"}, "14": {"label": "a_hydrogen", "atom_type": "H0"}}

>  <type>  (3) 
r2h

$$$$

     RDKit          3D

 21 20  0  0  0  0  0  0  0  0999 V2000
   -0.2780    1.8193    1.0816 C   0  0  0  0  0  0  0  0  0  0  0  0
   -0.9741    0.5523    0.9805 C   0  0  0  0  0  0  0  0  0  0  0  0
   -1.3827    0.0624   -0.2662 C   0  0  0  0  0  3  0  0  0  0  0  0
   -1.9784   -1.1816   -0.3766 C   0  0  0  0  0  0  0  0  0  0  0  0
   -2.1755   -1.9637    0.7524 C   0  0  0  0  0  0  0  0  0  0  0  0
   -1.7711   -1.4940    1.9964 C   0  0  0  0  0  0  0  0  0  0  0  0
   -1.1724   -0.2540    2.1092 C   0  0  0  0  0  0  0  0  0  0  0  0
   -0.1746    2.2565    2.0698 H   0  0  0  0  0  0  0  0  0  0  0  0
   -0.4363    2.5382    0.2834 H   0  0  0  0  0  0  0  0  0  0  0  0
   -1.2234    0.6668   -1.1507 H   0  0  0  0  0  0  0  0  0  0  0  0
   -2.2875   -1.5438   -1.3487 H   0  0  0  0  0  0  0  0  0  0  0  0
   -2.6427   -2.9362    0.6652 H   0  0  0  0  0  0  0  0  0  0  0  0
   -1.9244   -2.1006    2.8801 H   0  0  0  0  0  0  0  0  0  0  0  0
   -0.8560    0.1077    3.0808 H   0  0  0  0  0  0  0  0  0  0  0  0
    2.2412    1.1460    0.3948 C   0  0  0  0  0  0  0  0  0  0  0  0
    2.0357    0.2580   -0.7133 C   0  0  0  0  0  0  0  0  0  0  0  0
    1.9222    0.7184   -2.2771 S   0  0  0  0  0  0  0  0  0  0  0  0
    1.0444    1.4741    0.7690 H   0  0  0  0  0  0  0  0  0  0  0  0
    2.6301    0.6959    1.3060 H   0  0  0  0  0  0  0  0  0  0  0  0
    2.6656    2.1162    0.1510 H   0  0  0  0  0  0  0  0  0  0  0  0
    1.8858   -0.7915   -0.4615 H   0  0  0  0  0  0  0  0  0  0  0  0
  1  2  2  3
  1  8  1  0
  1  9  1  0
  2  3  1  0
  2  7  1  0
  3  4  1  0
  3 10  1  0
  4  5  2  0
  4 11  1  0
  5  6  1  0
  5 12  1  0
  6  7  2  0
  6 13  1  0
  7 14  1  0
 15 16  1  0
 15 18  1  0
 15 19  1  0
 15 20  1  0
 16 17  2  0
 16 21  1  0
M  RAD  1   3   2
M  END
>  <reaction>  (4) 
rxn_1966

>  <mol_properties>  (4) 
{"0": {"label": "*3", "atom_type": "Cd"}, "1": {"label": "*4", "atom_type": "Cd"}, "14": {"label": "*1", "atom_type": "Cs"}, "15": {"label": "*0", "atom_type": "CS"}, "17": {"label": "*2", "atom_type": "H0"}}

>  <type>  (4) 
ts

$$$$

     RDKit          3D

 21 20  0  0  0  0  0  0  0  0999 V2000
   -1.2126    0.3528   -0.2284 C   0  0  0  0  0  0  0  0  0  0  0  0
   -0.8115    0.3331    1.2207 C   0  0  0  0  0  0  0  0  0  0  0  0
   -0.2097   -0.7900    1.7798 C   0  0  0  0  0  0  0  0  0  0  0  0
    0.1337   -0.8223    3.1226 C   0  0  0  0  0  0  0  0  0  0  0  0
   -0.1188    0.2742    3.9327 C   0  0  0  0  0  0  0  0  0  0  0  0
   -0.7148    1.4011    3.3876 C   0  0  0  0  0  0  0  0  0  0  0  0
   -1.0561    1.4278    2.0442 C   0  0  0  0  0  0  0  0  0  0  0  0
   -1.1821    1.3644   -0.6348 H   0  0  0  0  0  0  0  0  0  0  0  0
   -2.2320   -0.0214   -0.3527 H   0  0  0  0  0  0  0  0  0  0  0  0
   -0.0050   -1.6510    1.1534 H   0  0  0  0  0  0  0  0  0  0  0  0
    0.6032   -1.7061    3.5365 H   0  0  0  0  0  0  0  0  0  0  0  0
    0.1510    0.2521    4.9809 H   0  0  0  0  0  0  0  0  0  0  0  0
   -0.9124    2.2651    4.0100 H   0  0  0  0  0  0  0  0  0  0  0  0
   -1.5185    2.3149    1.6262 H   0  0  0  0  0  0  0  0  0  0  0  0
    0.8864    0.4173   -1.7982 C   0  0  0  0  0  0  0  0  0  0  0  0
    0.8864   -0.7812   -2.6804 C   0  0  0  0  0  0  0  0  0  0  0  0
    0.8864   -0.7812   -4.2871 S   0  0  0  0  0  1  0  0  0  0  0  0
   -0.1649    0.3850   -1.0119 H   0  0  0  0  0  0  0  0  0  0  0  0
    1.7626    0.3904   -1.1430 H   0  0  0  0  0  0  0  0  0  0  0  0
    0.8864    1.3411   -2.3729 H   0  0  0  0  0  0  0  0  0  0  0  0
    0.8864   -1.7356   -2.1505 H   0  0  0  0  0  0  0  0  0  0  0  0
  1  2  1  0
  1  8  1  0
  1  9  1  0
  1 18  1  0
  2  3  2  0
  2  7  1  0
  3  4  1  0
  3 10  1  0
  4  5  2  0
  4 11  1  0
  5  6  1  0
  5 12  1  0
  6  7  2  0
  6 13  1  0
  7 14  1  0
 15 16  2  3
 15 19  1  0
 15 20  1  0
 16 17  1  0
 16 21  1  0
M  RAD  1  17   2
M  END
>  <reaction>  (5) 
rxn_1966

>  <mol_properties>  (5) 
{"0": {"label": "*3", "atom_type": "Cd"}, "1": {"label": "*4", "atom_type": "Cd"}, "14": {"label": "*1", "atom_type": "Cs"}, "15": {"label": "*0", "atom_type": "CS"}, "17": {"label": "*2", "atom_type": "H0"}}

>  <type>  (5) 
unop_1

>  <geom_source>  (5) 
Heuristics

$$$$

     RDKit          3D

 21 20  0  0  0  0  0  0  0  0999 V2000
   -0.4029    1.7309    0.9135 C   0  0  0  0  0  0  0  0  0  0  0  0
   -0.8170    0.3172    1.2154 C   0  0  0  0  0  0  0  0  0  0  0  0
   -0.9496   -0.6211    0.1964 C   0  0  0  0  0  0  0  0  0  0  0  0
   -1.3604   -1.9170    0.4680 C   0  0  0  0  0  0  0  0  0  0  0  0
   -1.6455   -2.2990    1.7700 C   0  0  0  0  0  0  0  0  0  0  0  0
   -1.5142   -1.3750    2.7953 C   0  0  0  0  0  0  0  0  0  0  0  0
   -1.1030   -0.0804    2.5178 C   0  0  0  0  0  0  0  0  0  0  0  0
    0.1305    2.1761    1.7540 H   0  0  0  0  0  0  0  0  0  0  0  0
   -1.2769    2.3550    0.7103 H   0  0  0  0  0  0  0  0  0  0  0  0
   -0.7255   -0.3327   -0.8245 H   0  0  0  0  0  0  0  0  0  0  0  0
   -1.4549   -2.6318   -0.3402 H   0  0  0  0  0  0  0  0  0  0  0  0
   -1.9639   -3.3112    1.9847 H   0  0  0  0  0  0  0  0  0  0  0  0
   -1.7296   -1.6636    3.8166 H   0  0  0  0  0  0  0  0  0  0  0  0
   -0.9998    0.6342    3.3267 H   0  0  0  0  0  0  0  0  0  0  0  0
    1.6961    1.7953   -0.6563 C   0  0  0  0  0  0  0  0  0  0  0  0
    1.6961    0.5969   -1.5385 C   0  0  0  0  0  0  0  0  0  0  0  0
    1.6961    0.5969   -3.1452 S   0  0  0  0  0  1  0  0  0  0  0  0
    0.6447    1.7631    0.1300 H   0  0  0  0  0  0  0  0  0  0  0  0
    2.5723    1.7685   -0.0011 H   0  0  0  0  0  0  0  0  0  0  0  0
    1.6961    2.7191   -1.2310 H   0  0  0  0  0  0  0  0  0  0  0  0
    1.6961   -0.3576   -1.0086 H   0  0  0  0  0  0  0  0  0  0  0  0
  1  2  1  0
  1  8  1  0
  1  9  1  0
  1 18  1  0
  2  3  2  0
  2  7  1  0
  3  4  1  0
  3 10  1  0
  4  5  2  0
  4 11  1  0
  5  6  1  0
  5 12  1  0
  6  7  2  0
  6 13  1  0
  7 14  1  0
 15 16  2  3
 15 19  1  0
 15 20  1  0
 16 17  1  0
 16 21  1  0
M  RAD  1  17   2
M  END
>  <reaction>  (6) 
rxn_1966

>  <mol_properties>  (6) 
{"0": {"label": "*3", "atom_type": "Cd"}, "1": {"label": "*4", "atom_type": "Cd"}, "14": {"label": "*1", "atom_type": "Cs"}, "15": {"label": "*0", "atom_type": "CS"}, "17": {"label": "*2", "atom_type": "H0"}}

>  <type>  (6) 
unop_2

>  <geom_source>  (6) 
Heuristics

$$$$

     RDKit          3D

 21 20  0  0  0  0  0  0  0  0999 V2000
   -1.0916   -0.3374   -0.0941 C   0  0  0  0  0  0  0  0  0  0  0  0
   -0.8148    0.3439    1.2175 C   0  0  0  0  0  0  0  0  0  0  0  0
    0.2091   -0.0982    2.0497 C   0  0  0  0  0  0  0  0  0  0  0  0
    0.4472    0.5087    3.2732 C   0  0  0  0  0  0  0  0  0  0  0  0
   -0.3375    1.5744    3.6866 C   0  0  0  0  0  0  0  0  0  0  0  0
   -1.3589    2.0271    2.8656 C   0  0  0  0  0  0  0  0  0  0  0  0
   -1.5925    1.4164    1.6432 C   0  0  0  0  0  0  0  0  0  0  0  0
   -1.5150    0.3572   -0.8204 H   0  0  0  0  0  0  0  0  0  0  0  0
   -1.8070   -1.1532    0.0371 H   0  0  0  0  0  0  0  0  0  0  0  0
    0.8304   -0.9286    1.7333 H   0  0  0  0  0  0  0  0  0  0  0  0
    1.2509    0.1498    3.9042 H   0  0  0  0  0  0  0  0  0  0  0  0
   -0.1516    2.0515    4.6405 H   0  0  0  0  0  0  0  0  0  0  0  0
   -1.9751    2.8618    3.1763 H   0  0  0  0  0  0  0  0  0  0  0  0
   -2.3913    1.7798    1.0064 H   0  0  0  0  0  0  0  0  0  0  0  0
    1.0074   -0.2730   -1.6640 C   0  0  0  0  0  0  0  0  0  0  0  0
    1.0074   -1.4714   -2.5461 C   0  0  0  0  0  0  0  0  0  0  0  0
    1.0074   -1.4714   -4.1528 S   0  0  0  0  0  1  0  0  0  0  0  0
   -0.0439   -0.3052   -0.8777 H   0  0  0  0  0  0  0  0  0  0  0  0
    1.8836   -0.2998   -1.0087 H   0  0  0  0  0  0  0  0  0  0  0  0
    1.0074    0.6508   -2.2386 H   0  0  0  0  0  0  0  0  0  0  0  0
    1.0074   -2.4259   -2.0162 H   0  0  0  0  0  0  0  0  0  0  0  0
  1  2  1  0
  1  8  1  0
  1  9  1  0
  1 18  1  0
  2  3  2  0
  2  7  1  0
  3  4  1  0
  3 10  1  0
  4  5  2  0
  4 11  1  0
  5  6  1  0
  5 12  1  0
  6  7  2  0
  6 13  1  0
  7 14  1  0
 15 16  2  3
 15 19  1  0
 15 20  1  0
 16 17  1  0
 16 21  1  0
M  RAD  1  17   2
M  END
>  <reaction>  (7) 
rxn_1966

>  <mol_properties>  (7) 
{"0": {"label": "*3", "atom_type": "Cd"}, "1": {"label": "*4", "atom_type": "Cd"}, "14": {"label": "*1", "atom_type": "Cs"}, "15": {"label": "*0", "atom_type": "CS"}, "17": {"label": "*2", "atom_type": "H0"}}

>  <type>  (7) 
unop_3

>  <geom_source>  (7) 
Heuristics

$$$$

     RDKit          3D

 21 20  0  0  0  0  0  0  0  0999 V2000
    0.4396    0.3205    2.0014 C   0  0  0  0  0  0  0  0  0  0  0  0
   -0.8373    0.3133    1.2074 C   0  0  0  0  0  0  0  0  0  0  0  0
   -0.8130    0.3075   -0.1839 C   0  0  0  0  0  0  0  0  0  0  0  0
   -1.9883    0.3313   -0.9188 C   0  0  0  0  0  0  0  0  0  0  0  0
   -3.2141    0.3599   -0.2715 C   0  0  0  0  0  0  0  0  0  0  0  0
   -3.2528    0.3625    1.1144 C   0  0  0  0  0  0  0  0  0  0  0  0
   -2.0743    0.3386    1.8442 C   0  0  0  0  0  0  0  0  0  0  0  0
    0.3086   -0.1674    2.9679 H   0  0  0  0  0  0  0  0  0  0  0  0
    0.7710    1.3445    2.1918 H   0  0  0  0  0  0  0  0  0  0  0  0
    0.1407    0.2816   -0.6990 H   0  0  0  0  0  0  0  0  0  0  0  0
   -1.9462    0.3242   -2.0009 H   0  0  0  0  0  0  0  0  0  0  0  0
   -4.1332    0.3759   -0.8433 H   0  0  0  0  0  0  0  0  0  0  0  0
   -4.2047    0.3800    1.6306 H   0  0  0  0  0  0  0  0  0  0  0  0
   -2.1147    0.3372    2.9277 H   0  0  0  0  0  0  0  0  0  0  0  0
    2.5386    0.3849    0.4316 C   0  0  0  0  0  0  0  0  0  0  0  0
    2.5386   -0.8136   -0.4506 C   0  0  0  0  0  0  0  0  0  0  0  0
    2.5386   -0.8136   -2.0572 S   0  0  0  0  0  1  0  0  0  0  0  0
    1.4873    0.3526    1.2179 H   0  0  0  0  0  0  0  0  0  0  0  0
    3.4148    0.3580    1.0868 H   0  0  0  0  0  0  0  0  0  0  0  0
    2.5386    1.3087   -0.1430 H   0  0  0  0  0  0  0  0  0  0  0  0
    2.5386   -1.7680    0.0794 H   0  0  0  0  0  0  0  0  0  0  0  0
  1  2  1  0
  1  8  1  0
  1  9  1  0
  1 18  1  0
  2  3  2  0
  2  7  1  0
  3  4  1  0
  3 10  1  0
  4  5  2  0
  4 11  1  0
  5  6  1  0
  5 12  1  0
  6  7  2  0
  6 13  1  0
  7 14  1  0
 15 16  2  3
 15 19  1  0
 15 20  1  0
 16 17  1  0
 16 21  1  0
M  RAD  1  17   2
M  END
>  <reaction>  (8) 
rxn_1966

>  <mol_properties>  (8) 
{"0": {"label": "*3", "atom_type": "Cd"}, "1": {"label": "*4", "atom_type": "Cd"}, "14": {"label": "*1", "atom_type": "Cs"}, "15": {"label": "*0", "atom_type": "CS"}, "17": {"label": "*2", "atom_type": "H0"}}

>  <type>  (8) 
unop_4

>  <geom_source>  (8) 
Heuristics

$$$$

     RDKit          3D

 21 20  0  0  0  0  0  0  0  0999 V2000
   -0.7886   -0.8455    0.2972 C   0  0  0  0  0  0  0  0  0  0  0  0
   -0.8277    0.3506    1.2078 C   0  0  0  0  0  0  0  0  0  0  0  0
    0.3472    0.9638    1.6320 C   0  0  0  0  0  0  0  0  0  0  0  0
    0.3154    2.0479    2.4954 C   0  0  0  0  0  0  0  0  0  0  0  0
   -0.8980    2.5407    2.9504 C   0  0  0  0  0  0  0  0  0  0  0  0
   -2.0765    1.9413    2.5328 C   0  0  0  0  0  0  0  0  0  0  0  0
   -2.0386    0.8574    1.6693 C   0  0  0  0  0  0  0  0  0  0  0  0
   -1.6805   -0.8974   -0.3281 H   0  0  0  0  0  0  0  0  0  0  0  0
   -0.7383   -1.7710    0.8765 H   0  0  0  0  0  0  0  0  0  0  0  0
    1.3008    0.5877    1.2787 H   0  0  0  0  0  0  0  0  0  0  0  0
    1.2419    2.5112    2.8113 H   0  0  0  0  0  0  0  0  0  0  0  0
   -0.9253    3.3889    3.6226 H   0  0  0  0  0  0  0  0  0  0  0  0
   -3.0302    2.3208    2.8781 H   0  0  0  0  0  0  0  0  0  0  0  0
   -2.9656    0.3975    1.3454 H   0  0  0  0  0  0  0  0  0  0  0  0
    1.3104   -0.7811   -1.2726 C   0  0  0  0  0  0  0  0  0  0  0  0
    1.3104   -1.9795   -2.1548 C   0  0  0  0  0  0  0  0  0  0  0  0
    1.3104   -1.9795   -3.7614 S   0  0  0  0  0  1  0  0  0  0  0  0
    0.2590   -0.8133   -0.4863 H   0  0  0  0  0  0  0  0  0  0  0  0
    2.1866   -0.8079   -0.6174 H   0  0  0  0  0  0  0  0  0  0  0  0
    1.3104    0.1427   -1.8472 H   0  0  0  0  0  0  0  0  0  0  0  0
    1.3104   -2.9339   -1.6248 H   0  0  0  0  0  0  0  0  0  0  0  0
  1  2  1  0
  1  8  1  0
  1  9  1  0
  1 18  1  0
  2  3  2  0
  2  7  1  0
  3  4  1  0
  3 10  1  0
  4  5  2  0
  4 11  1  0
  5  6  1  0
  5 12  1  0
  6  7  2  0
  6 13  1  0
  7 14  1  0
 15 16  2  3
 15 19  1  0
 15 20  1  0
 16 17  1  0
 16 21  1  0
M  RAD  1  17   2
M  END
>  <reaction>  (9) 
rxn_1966

>  <mol_properties>  (9) 
{"0": {"label": "*3", "atom_type": "Cd"}, "1": {"label": "*4", "atom_type": "Cd"}, "14": {"label": "*1", "atom_type": "Cs"}, "15": {"label": "*0", "atom_type": "CS"}, "17": {"label": "*2", "atom_type": "H0"}}

>  <type>  (9) 
unop_5

>  <geom_source>  (9) 
Heuristics

$$$$

     RDKit          3D

 21 20  0  0  0  0  0  0  0  0999 V2000
    0.3327   -0.3720    1.8340 C   0  0  0  0  0  0  0  0  0  0  0  0
   -0.8438    0.3201    1.2030 C   0  0  0  0  0  0  0  0  0  0  0  0
   -0.8034    0.7276   -0.1269 C   0  0  0  0  0  0  0  0  0  0  0  0
   -1.8749    1.3927   -0.7027 C   0  0  0  0  0  0  0  0  0  0  0  0
   -3.0112    1.6615    0.0449 C   0  0  0  0  0  0  0  0  0  0  0  0
   -3.0659    1.2579    1.3702 C   0  0  0  0  0  0  0  0  0  0  0  0
   -1.9915    0.5932    1.9408 C   0  0  0  0  0  0  0  0  0  0  0  0
    0.0157   -1.0485    2.6284 H   0  0  0  0  0  0  0  0  0  0  0  0
    1.0185    0.3557    2.2753 H   0  0  0  0  0  0  0  0  0  0  0  0
    0.0795    0.5187   -0.7205 H   0  0  0  0  0  0  0  0  0  0  0  0
   -1.8229    1.6991   -1.7402 H   0  0  0  0  0  0  0  0  0  0  0  0
   -3.8500    2.1785   -0.4035 H   0  0  0  0  0  0  0  0  0  0  0  0
   -3.9503    1.4584    1.9623 H   0  0  0  0  0  0  0  0  0  0  0  0
   -2.0451    0.2783    2.9769 H   0  0  0  0  0  0  0  0  0  0  0  0
    2.4317   -0.3076    0.2642 C   0  0  0  0  0  0  0  0  0  0  0  0
    2.4317   -1.5061   -0.6180 C   0  0  0  0  0  0  0  0  0  0  0  0
    2.4317   -1.5061   -2.2247 S   0  0  0  0  0  1  0  0  0  0  0  0
    1.3803   -0.3399    1.0504 H   0  0  0  0  0  0  0  0  0  0  0  0
    3.3079   -0.3345    0.9194 H   0  0  0  0  0  0  0  0  0  0  0  0
    2.4317    0.6162   -0.3105 H   0  0  0  0  0  0  0  0  0  0  0  0
    2.4317   -2.4605   -0.0881 H   0  0  0  0  0  0  0  0  0  0  0  0
  1  2  1  0
  1  8  1  0
  1  9  1  0
  1 18  1  0
  2  3  2  0
  2  7  1  0
  3  4  1  0
  3 10  1  0
  4  5  2  0
  4 11  1  0
  5  6  1  0
  5 12  1  0
  6  7  2  0
  6 13  1  0
  7 14  1  0
 15 16  2  3
 15 19  1  0
 15 20  1  0
 16 17  1  0
 16 21  1  0
M  RAD  1  17   2
M  END
>  <reaction>  (10) 
rxn_1966

>  <mol_properties>  (10) 
{"0": {"label": "*3", "atom_type": "Cd"}, "1": {"label": "*4", "atom_type": "Cd"}, "14": {"label": "*1", "atom_type": "Cs"}, "15": {"label": "*0", "atom_type": "CS"}, "17": {"label": "*2", "atom_type": "H0"}}

>  <type>  (10) 
unop_6

>  <geom_source>  (10) 
Heuristics

$$$$

     RDKit          3D

 21 20  0  0  0  0  0  0  0  0999 V2000
    0.0319   -0.8718    1.4115 C   0  0  0  0  0  0  0  0  0  0  0  0
   -0.8462    0.3305    1.2004 C   0  0  0  0  0  0  0  0  0  0  0  0
   -0.6220    1.2008    0.1381 C   0  0  0  0  0  0  0  0  0  0  0  0
   -1.4110    2.3265   -0.0416 C   0  0  0  0  0  0  0  0  0  0  0  0
   -2.4438    2.6015    0.8416 C   0  0  0  0  0  0  0  0  0  0  0  0
   -2.6803    1.7408    1.9025 C   0  0  0  0  0  0  0  0  0  0  0  0
   -1.8881    0.6166    2.0773 C   0  0  0  0  0  0  0  0  0  0  0  0
   -0.5130   -1.6801    1.9004 H   0  0  0  0  0  0  0  0  0  0  0  0
    0.8863   -0.6203    2.0451 H   0  0  0  0  0  0  0  0  0  0  0  0
    0.1811    0.9921   -0.5599 H   0  0  0  0  0  0  0  0  0  0  0  0
   -1.2201    2.9893   -0.8766 H   0  0  0  0  0  0  0  0  0  0  0  0
   -3.0628    3.4785    0.7017 H   0  0  0  0  0  0  0  0  0  0  0  0
   -3.4873    1.9431    2.5958 H   0  0  0  0  0  0  0  0  0  0  0  0
   -2.0830   -0.0526    2.9078 H   0  0  0  0  0  0  0  0  0  0  0  0
    2.1309   -0.8074   -0.1583 C   0  0  0  0  0  0  0  0  0  0  0  0
    2.1309   -2.0059   -1.0405 C   0  0  0  0  0  0  0  0  0  0  0  0
    2.1309   -2.0059   -2.6472 S   0  0  0  0  0  1  0  0  0  0  0  0
    1.0795   -0.8397    0.6280 H   0  0  0  0  0  0  0  0  0  0  0  0
    3.0071   -0.8343    0.4969 H   0  0  0  0  0  0  0  0  0  0  0  0
    2.1309    0.1164   -0.7330 H   0  0  0  0  0  0  0  0  0  0  0  0
    2.1309   -2.9603   -0.5106 H   0  0  0  0  0  0  0  0  0  0  0  0
  1  2  1  0
  1  8  1  0
  1  9  1  0
  1 18  1  0
  2  3  2  0
  2  7  1  0
  3  4  1  0
  3 10  1  0
  4  5  2  0
  4 11  1  0
  5  6  1  0
  5 12  1  0
  6  7  2  0
  6 13  1  0
  7 14  1  0
 15 16  2  3
 15 19  1  0
 15 20  1  0
 16 17  1  0
 16 21  1  0
M  RAD  1  17   2
M  END
>  <reaction>  (11) 
rxn_1966

>  <mol_properties>  (11) 
{"0": {"label": "*3", "atom_type": "Cd"}, "1": {"label": "*4", "atom_type": "Cd"}, "14": {"label": "*1", "atom_type": "Cs"}, "15": {"label": "*0", "atom_type": "CS"}, "17": {"label": "*2", "atom_type": "H0"}}

>  <type>  (11) 
unop_7

>  <geom_source>  (11) 
Heuristics

$$$$

     RDKit          3D

 21 20  0  0  0  0  0  0  0  0999 V2000
   -1.1129    1.0444   -0.0667 C   0  0  0  0  0  0  0  0  0  0  0  0
   -0.8123    0.3253    1.2193 C   0  0  0  0  0  0  0  0  0  0  0  0
   -0.5975   -1.0494    1.2355 C   0  0  0  0  0  0  0  0  0  0  0  0
   -0.3500   -1.7196    2.4235 C   0  0  0  0  0  0  0  0  0  0  0  0
   -0.3115   -1.0227    3.6215 C   0  0  0  0  0  0  0  0  0  0  0  0
   -0.5204    0.3480    3.6193 C   0  0  0  0  0  0  0  0  0  0  0  0
   -0.7675    1.0130    2.4282 C   0  0  0  0  0  0  0  0  0  0  0  0
   -0.7651    2.0774   -0.0343 H   0  0  0  0  0  0  0  0  0  0  0  0
   -2.1892    1.0650   -0.2558 H   0  0  0  0  0  0  0  0  0  0  0  0
   -0.6221   -1.6024    0.3032 H   0  0  0  0  0  0  0  0  0  0  0  0
   -0.1835   -2.7896    2.4128 H   0  0  0  0  0  0  0  0  0  0  0  0
   -0.1158   -1.5436    4.5501 H   0  0  0  0  0  0  0  0  0  0  0  0
   -0.4879    0.9033    4.5485 H   0  0  0  0  0  0  0  0  0  0  0  0
   -0.9261    2.0856    2.4361 H   0  0  0  0  0  0  0  0  0  0  0  0
    0.9861    1.1088   -1.6365 C   0  0  0  0  0  0  0  0  0  0  0  0
    0.9861   -0.0897   -2.5187 C   0  0  0  0  0  0  0  0  0  0  0  0
    0.9861   -0.0897   -4.1254 S   0  0  0  0  0  1  0  0  0  0  0  0
   -0.0652    1.0765   -0.8502 H   0  0  0  0  0  0  0  0  0  0  0  0
    1.8623    1.0819   -0.9813 H   0  0  0  0  0  0  0  0  0  0  0  0
    0.9861    2.0326   -2.2112 H   0  0  0  0  0  0  0  0  0  0  0  0
    0.9861   -1.0441   -1.9888 H   0  0  0  0  0  0  0  0  0  0  0  0
  1  2  1  0
  1  8  1  0
  1  9  1  0
  1 18  1  0
  2  3  2  0
  2  7  1  0
  3  4  1  0
  3 10  1  0
  4  5  2  0
  4 11  1  0
  5  6  1  0
  5 12  1  0
  6  7  2  0
  6 13  1  0
  7 14  1  0
 15 16  2  3
 15 19  1  0
 15 20  1  0
 16 17  1  0
 16 21  1  0
M  RAD  1  17   2
M  END
>  <reaction>  (12) 
rxn_1966

>  <mol_properties>  (12) 
{"0": {"label": "*3", "atom_type": "Cd"}, "1": {"label": "*4", "atom_type": "Cd"}, "14": {"label": "*1", "atom_type": "Cs"}, "15": {"label": "*0", "atom_type": "CS"}, "17": {"label": "*2", "atom_type": "H0"}}

>  <type>  (12) 
unop_8

>  <geom_source>  (12) 
Heuristics

$$$$

     RDKit          3D

 21 20  0  0  0  0  0  0  0  0999 V2000
    0.3236    1.0195    1.8684 C   0  0  0  0  0  0  0  0  0  0  0  0
   -0.8290    0.3114    1.2118 C   0  0  0  0  0  0  0  0  0  0  0  0
   -0.8014    0.0094   -0.1463 C   0  0  0  0  0  0  0  0  0  0  0  0
   -1.8752   -0.6163   -0.7606 C   0  0  0  0  0  0  0  0  0  0  0  0
   -2.9998   -0.9539   -0.0233 C   0  0  0  0  0  0  0  0  0  0  0  0
   -3.0390   -0.6618    1.3315 C   0  0  0  0  0  0  0  0  0  0  0  0
   -1.9624   -0.0360    1.9406 C   0  0  0  0  0  0  0  0  0  0  0  0
    0.4087    0.7474    2.9210 H   0  0  0  0  0  0  0  0  0  0  0  0
    0.1910    2.1033    1.8181 H   0  0  0  0  0  0  0  0  0  0  0  0
    0.0752    0.2662   -0.7304 H   0  0  0  0  0  0  0  0  0  0  0  0
   -1.8316   -0.8439   -1.8186 H   0  0  0  0  0  0  0  0  0  0  0  0
   -3.8383   -1.4449   -0.5005 H   0  0  0  0  0  0  0  0  0  0  0  0
   -3.9104   -0.9252    1.9183 H   0  0  0  0  0  0  0  0  0  0  0  0
   -2.0008    0.1851    3.0014 H   0  0  0  0  0  0  0  0  0  0  0  0
    2.4226    1.0840    0.2986 C   0  0  0  0  0  0  0  0  0  0  0  0
    2.4226   -0.1145   -0.5836 C   0  0  0  0  0  0  0  0  0  0  0  0
    2.4226   -0.1145   -2.1903 S   0  0  0  0  0  1  0  0  0  0  0  0
    1.3713    1.0517    1.0849 H   0  0  0  0  0  0  0  0  0  0  0  0
    3.2988    1.0571    0.9538 H   0  0  0  0  0  0  0  0  0  0  0  0
    2.4226    2.0077   -0.2761 H   0  0  0  0  0  0  0  0  0  0  0  0
    2.4226   -1.0689   -0.0537 H   0  0  0  0  0  0  0  0  0  0  0  0
  1  2  1  0
  1  8  1  0
  1  9  1  0
  1 18  1  0
  2  3  2  0
  2  7  1  0
  3  4  1  0
  3 10  1  0
  4  5  2  0
  4 11  1  0
  5  6  1  0
  5 12  1  0
  6  7  2  0
  6 13  1  0
  7 14  1  0
 15 16  2  3
 15 19  1  0
 15 20  1  0
 16 17  1  0
 16 21  1  0
M  RAD  1  17   2
M  END
>  <reaction>  (13) 
rxn_1966

>  <mol_properties>  (13) 
{"0": {"label": "*3", "atom_type": "Cd"}, "1": {"label": "*4", "atom_type": "Cd"}, "14": {"label": "*1", "atom_type": "Cs"}, "15": {"label": "*0", "atom_type": "CS"}, "17": {"label": "*2", "atom_type": "H0"}}

>  <type>  (13) 
unop_9

>  <geom_source>  (13) 
Heuristics

$$$$

     RDKit          3D

 21 20  0  0  0  0  0  0  0  0999 V2000
   -0.8165    1.5499    0.3508 C   0  0  0  0  0  0  0  0  0  0  0  0
   -0.8143    0.3206    1.2169 C   0  0  0  0  0  0  0  0  0  0  0  0
   -0.8677   -0.9504    0.6530 C   0  0  0  0  0  0  0  0  0  0  0  0
   -0.8963   -2.0845    1.4497 C   0  0  0  0  0  0  0  0  0  0  0  0
   -0.8703   -1.9664    2.8309 C   0  0  0  0  0  0  0  0  0  0  0  0
   -0.8136   -0.7060    3.4059 C   0  0  0  0  0  0  0  0  0  0  0  0
   -0.7852    0.4247    2.6042 C   0  0  0  0  0  0  0  0  0  0  0  0
   -0.2856    2.3734    0.8295 H   0  0  0  0  0  0  0  0  0  0  0  0
   -1.8388    1.8851    0.1577 H   0  0  0  0  0  0  0  0  0  0  0  0
   -0.8848   -1.0529   -0.4263 H   0  0  0  0  0  0  0  0  0  0  0  0
   -0.9357   -3.0641    0.9896 H   0  0  0  0  0  0  0  0  0  0  0  0
   -0.8898   -2.8508    3.4549 H   0  0  0  0  0  0  0  0  0  0  0  0
   -0.7881   -0.6020    4.4836 H   0  0  0  0  0  0  0  0  0  0  0  0
   -0.7373    1.4059    3.0630 H   0  0  0  0  0  0  0  0  0  0  0  0
    1.2825    1.6143   -1.2190 C   0  0  0  0  0  0  0  0  0  0  0  0
    1.2825    0.4158   -2.1012 C   0  0  0  0  0  0  0  0  0  0  0  0
    1.2825    0.4158   -3.7079 S   0  0  0  0  0  1  0  0  0  0  0  0
    0.2311    1.5820   -0.4327 H   0  0  0  0  0  0  0  0  0  0  0  0
    2.1586    1.5874   -0.5638 H   0  0  0  0  0  0  0  0  0  0  0  0
    1.2825    2.5381   -1.7937 H   0  0  0  0  0  0  0  0  0  0  0  0
    1.2825   -0.5386   -1.5713 H   0  0  0  0  0  0  0  0  0  0  0  0
  1  2  1  0
  1  8  1  0
  1  9  1  0
  1 18  1  0
  2  3  2  0
  2  7  1  0
  3  4  1  0
  3 10  1  0
  4  5  2  0
  4 11  1  0
  5  6  1  0
  5 12  1  0
  6  7  2  0
  6 13  1  0
  7 14  1  0
 15 16  2  3
 15 19  1  0
 15 20  1  0
 16 17  1  0
 16 21  1  0
M  RAD  1  17   2
M  END
>  <reaction>  (14) 
rxn_1966

>  <mol_properties>  (14) 
{"0": {"label": "*3", "atom_type": "Cd"}, "1": {"label": "*4", "atom_type": "Cd"}, "14": {"label": "*1", "atom_type": "Cs"}, "15": {"label": "*0", "atom_type": "CS"}, "17": {"label": "*2", "atom_type": "H0"}}

>  <type>  (14) 
unop_10

>  <geom_source>  (14) 
Heuristics

$$$$

     RDKit          3D

 21 20  0  0  0  0  0  0  0  0999 V2000
   -0.3802   -1.0440    0.8479 C   0  0  0  0  0  0  0  0  0  0  0  0
   -0.8419    0.3428    1.2011 C   0  0  0  0  0  0  0  0  0  0  0  0
   -0.1625    1.4628    0.7318 C   0  0  0  0  0  0  0  0  0  0  0  0
   -0.5678    2.7419    1.0802 C   0  0  0  0  0  0  0  0  0  0  0  0
   -1.6660    2.9237    1.9069 C   0  0  0  0  0  0  0  0  0  0  0  0
   -2.3542    1.8164    2.3788 C   0  0  0  0  0  0  0  0  0  0  0  0
   -1.9443    0.5396    2.0270 C   0  0  0  0  0  0  0  0  0  0  0  0
   -1.2136   -1.7470    0.8294 H   0  0  0  0  0  0  0  0  0  0  0  0
    0.3427   -1.4096    1.5817 H   0  0  0  0  0  0  0  0  0  0  0  0
    0.6953    1.3307    0.0819 H   0  0  0  0  0  0  0  0  0  0  0  0
   -0.0256    3.5997    0.7019 H   0  0  0  0  0  0  0  0  0  0  0  0
   -1.9859    3.9217    2.1781 H   0  0  0  0  0  0  0  0  0  0  0  0
   -3.2163    1.9466    3.0212 H   0  0  0  0  0  0  0  0  0  0  0  0
   -2.4910   -0.3201    2.3981 H   0  0  0  0  0  0  0  0  0  0  0  0
    1.7188   -0.9796   -0.7219 C   0  0  0  0  0  0  0  0  0  0  0  0
    1.7188   -2.1781   -1.6041 C   0  0  0  0  0  0  0  0  0  0  0  0
    1.7188   -2.1781   -3.2108 S   0  0  0  0  0  1  0  0  0  0  0  0
    0.6675   -1.0119    0.0644 H   0  0  0  0  0  0  0  0  0  0  0  0
    2.5950   -1.0065   -0.0667 H   0  0  0  0  0  0  0  0  0  0  0  0
    1.7188   -0.0558   -1.2966 H   0  0  0  0  0  0  0  0  0  0  0  0
    1.7188   -3.1325   -1.0742 H   0  0  0  0  0  0  0  0  0  0  0  0
  1  2  1  0
  1  8  1  0
  1  9  1  0
  1 18  1  0
  2  3  2  0
  2  7  1  0
  3  4  1  0
  3 10  1  0
  4  5  2  0
  4 11  1  0
  5  6  1  0
  5 12  1  0
  6  7  2  0
  6 13  1  0
  7 14  1  0
 15 16  2  3
 15 19  1  0
 15 20  1  0
 16 17  1  0
 16 21  1  0
M  RAD  1  17   2
M  END
>  <reaction>  (15) 
rxn_1966

>  <mol_properties>  (15) 
{"0": {"label": "*3", "atom_type": "Cd"}, "1": {"label": "*4", "atom_type": "Cd"}, "14": {"label": "*1", "atom_type": "Cs"}, "15": {"label": "*0", "atom_type": "CS"}, "17": {"label": "*2", "atom_type": "H0"}}

>  <type>  (15) 
unop_11

>  <geom_source>  (15) 
Heuristics

$$$$

     RDKit          3D

 21 20  0  0  0  0  0  0  0  0999 V2000
    0.0152    1.5366    1.4698 C   0  0  0  0  0  0  0  0  0  0  0  0
   -0.8216    0.3136    1.2143 C   0  0  0  0  0  0  0  0  0  0  0  0
   -0.8730   -0.2651   -0.0501 C   0  0  0  0  0  0  0  0  0  0  0  0
   -1.6671   -1.3745   -0.2959 C   0  0  0  0  0  0  0  0  0  0  0  0
   -2.4259   -1.9279    0.7241 C   0  0  0  0  0  0  0  0  0  0  0  0
   -2.3813   -1.3633    1.9896 C   0  0  0  0  0  0  0  0  0  0  0  0
   -1.5854   -0.2538    2.2297 C   0  0  0  0  0  0  0  0  0  0  0  0
    0.3612    1.5717    2.5034 H   0  0  0  0  0  0  0  0  0  0  0  0
   -0.5623    2.4460    1.2848 H   0  0  0  0  0  0  0  0  0  0  0  0
   -0.2804    0.1585   -0.8532 H   0  0  0  0  0  0  0  0  0  0  0  0
   -1.6905   -1.8102   -1.2872 H   0  0  0  0  0  0  0  0  0  0  0  0
   -3.0446   -2.7959    0.5350 H   0  0  0  0  0  0  0  0  0  0  0  0
   -2.9661   -1.7900    2.7950 H   0  0  0  0  0  0  0  0  0  0  0  0
   -1.5543    0.1786    3.2235 H   0  0  0  0  0  0  0  0  0  0  0  0
    2.1142    1.6010   -0.1000 C   0  0  0  0  0  0  0  0  0  0  0  0
    2.1142    0.4026   -0.9822 C   0  0  0  0  0  0  0  0  0  0  0  0
    2.1142    0.4026   -2.5889 S   0  0  0  0  0  1  0  0  0  0  0  0
    1.0628    1.5688    0.6863 H   0  0  0  0  0  0  0  0  0  0  0  0
    2.9904    1.5742    0.5552 H   0  0  0  0  0  0  0  0  0  0  0  0
    2.1142    2.5248   -0.6747 H   0  0  0  0  0  0  0  0  0  0  0  0
    2.1142   -0.5519   -0.4523 H   0  0  0  0  0  0  0  0  0  0  0  0
  1  2  1  0
  1  8  1  0
  1  9  1  0
  1 18  1  0
  2  3  2  0
  2  7  1  0
  3  4  1  0
  3 10  1  0
  4  5  2  0
  4 11  1  0
  5  6  1  0
  5 12  1  0
  6  7  2  0
  6 13  1  0
  7 14  1  0
 15 16  2  3
 15 19  1  0
 15 20  1  0
 16 17  1  0
 16 21  1  0
M  RAD  1  17   2
M  END
>  <reaction>  (16) 
rxn_1966

>  <mol_properties>  (16) 
{"0": {"label": "*3", "atom_type": "Cd"}, "1": {"label": "*4", "atom_type": "Cd"}, "14": {"label": "*1", "atom_type": "Cs"}, "15": {"label": "*0", "atom_type": "CS"}, "17": {"label": "*2", "atom_type": "H0"}}

>  <type>  (16) 
unop_12

>  <geom_source>  (16) 
Heuristics

$$$$

     RDKit          3D

 21 20  0  0  0  0  0  0  0  0999 V2000
    2.5214    0.6336    1.3132 S   0  0  0  0  0  1  0  0  0  0  0  0
    0.4795   -1.1389   -0.8703 C   0  0  0  0  0  0  0  0  0  0  0  0
   -0.6978   -0.5671   -0.1389 C   0  0  0  0  0  0  0  0  0  0  0  0
   -1.7239    0.0799   -0.8462 C   0  0  0  0  0  0  0  0  0  0  0  0
   -0.7486   -0.6112    1.2638 C   0  0  0  0  0  0  0  0  0  0  0  0
   -2.8024    0.6471   -0.1596 C   0  0  0  0  0  0  0  0  0  0  0  0
   -2.8561    0.5835    1.2356 C   0  0  0  0  0  0  0  0  0  0  0  0
   -1.8287   -0.0429    1.9469 C   0  0  0  0  0  0  0  0  0  0  0  0
    2.7112    0.1871   -1.1702 C   0  0  0  0  0  0  0  0  0  0  0  0
    3.1363    0.9266    0.0520 C   0  0  0  0  0  0  0  0  0  0  0  0
    0.9033   -2.0035   -0.3163 H   0  0  0  0  0  0  0  0  0  0  0  0
    0.1803   -1.4912   -1.8805 H   0  0  0  0  0  0  0  0  0  0  0  0
    1.4197   -0.1978   -0.9967 H   0  0  0  0  0  0  0  0  0  0  0  0
   -1.6894    0.1447   -1.9268 H   0  0  0  0  0  0  0  0  0  0  0  0
   -3.5944    1.1394   -0.7090 H   0  0  0  0  0  0  0  0  0  0  0  0
   -3.6906    1.0241    1.7657 H   0  0  0  0  0  0  0  0  0  0  0  0
   -1.8672   -0.0846    3.0277 H   0  0  0  0  0  0  0  0  0  0  0  0
    0.0459   -1.0849    1.8272 H   0  0  0  0  0  0  0  0  0  0  0  0
    4.0216    1.5531    0.0208 H   0  0  0  0  0  0  0  0  0  0  0  0
    3.4634   -0.5909   -1.4178 H   0  0  0  0  0  0  0  0  0  0  0  0
    2.6164    0.8939   -2.0205 H   0  0  0  0  0  0  0  0  0  0  0  0
  1 10  1  0
  2  3  1  0
  2 11  1  0
  2 12  1  0
  2 13  1  0
  3  4  2  0
  3  5  1  0
  4  6  1  0
  4 14  1  0
  5  8  2  0
  5 18  1  0
  6  7  2  0
  6 15  1  0
  7  8  1  0
  7 16  1  0
  8 17  1  0
  9 10  2  3
  9 20  1  0
  9 21  1  0
 10 19  1  0
M  RAD  1   1   2
M  END
>  <reaction>  (17) 
rxn_1966

>  <mol_properties>  (17) 
{"0": {"label": "*3", "atom_type": "Cd"}, "1": {"label": "*4", "atom_type": "Cd"}, "14": {"label": "*1", "atom_type": "Cs"}, "15": {"label": "*0", "atom_type": "CS"}, "17": {"label": "*2", "atom_type": "H0"}}

>  <type>  (17) 
unop_13

>  <geom_source>  (17) 
AutoTST

$$$$
