
     RDKit          3D

 12 11  0  0  0  0  0  0  0  0999 V2000
    1.2394   -0.3763   -0.3020 C   0  0  0  0  0  0  0  0  0  0  0  0
    0.1007    0.3023    0.4464 C   0  0  0  0  0  0  0  0  0  0  0  0
   -0.1187    2.0399   -0.0725 S   0  0  0  0  0  0  0  0  0  0  0  0
   -1.1974   -0.4877    0.3552 C   0  0  0  0  0  0  0  0  0  0  0  0
    2.1681    0.1849   -0.2048 H   0  0  0  0  0  0  0  0  0  0  0  0
    1.0031   -0.4606   -1.3656 H   0  0  0  0  0  0  0  0  0  0  0  0
    1.3994   -1.3856    0.0860 H   0  0  0  0  0  0  0  0  0  0  0  0
    0.3796    0.4050    1.4981 H   0  0  0  0  0  0  0  0  0  0  0  0
   -0.4500    1.7779   -1.3452 H   0  0  0  0  0  0  0  0  0  0  0  0
   -1.0545   -1.4978    0.7479 H   0  0  0  0  0  0  0  0  0  0  0  0
   -1.5206   -0.5759   -0.6849 H   0  0  0  0  0  0  0  0  0  0  0  0
   -1.9957   -0.0054    0.9183 H   0  0  0  0  0  0  0  0  0  0  0  0
  1  2  1  0
  1  5  1  0
  1  6  1  0
  1  7  1  0
  2  4  1  0
  2  3  1  0
  2  8  1  0
  3  9  1  0
  4 10  1  0
  4 11  1  0
  4 12  1  0
M  END
>  <reaction>  (1) 
rxn_1999

>  <mol_properties>  (1) 
{"1": {"label": "donator", "atom_type": "Cs"}, "7": {"label": "d_hydrogen", "atom_type": "H0"}}

>  <type>  (1) 
r1h

$$$$

     RDKit          3D

  7  6  0  0  0  0  0  0  0  0999 V2000
    1.3002    0.7433    2.1279 C   0  0  0  0  0  0  0  0  0  0  0  0
    0.5758    0.3292    1.2319 C   0  0  0  0  0  0  0  0  0  0  0  0
   -0.2057   -0.1176    0.2652 C   0  0  0  0  0  3  0  0  0  0  0  0
   -0.9747   -0.5572   -0.6858 C   0  0  0  0  0  0  0  0  0  0  0  0
    1.9293    1.1030    2.9060 H   0  0  0  0  0  0  0  0  0  0  0  0
   -1.9977   -0.8727   -0.4932 H   0  0  0  0  0  0  0  0  0  0  0  0
   -0.6274   -0.6280   -1.7143 H   0  0  0  0  0  0  0  0  0  0  0  0
  1  2  3  0
  1  5  1  0
  2  3  1  0
  3  4  2  3
  4  6  1  0
  4  7  1  0
M  RAD  1   3   2
M  END
>  <reaction>  (2) 
rxn_1999

>  <mol_properties>  (2) 
{"2": {"label": "acceptor", "atom_type": "Cd"}}

>  <type>  (2) 
r2

$$$$

     RDKit          3D

  8  7  0  0  0  0  0  0  0  0999 V2000
    1.9029    0.9046   -0.2050 C   0  0  0  0  0  0  0  0  0  0  0  0
    0.8517    0.4283    0.1217 C   0  0  0  0  0  0  0  0  0  0  0  0
   -0.3908   -0.1311    0.5404 C   0  0  0  0  0  0  0  0  0  0  0  0
   -1.2847   -0.6576   -0.2899 C   0  0  0  0  0  0  0  0  0  0  0  0
    2.8335    1.3255   -0.5014 H   0  0  0  0  0  0  0  0  0  0  0  0
   -0.5867   -0.1096    1.6074 H   0  0  0  0  0  0  0  0  0  0  0  0
   -2.2126   -1.0686    0.0850 H   0  0  0  0  0  0  0  0  0  0  0  0
   -1.1134   -0.6914   -1.3582 H   0  0  0  0  0  0  0  0  0  0  0  0
  1  2  3  0
  1  5  1  0
  2  3  1  0
  3  4  2  3
  3  6  1  0
  4  7  1  0
  4  8  1  0
M  END
>  <reaction>  (3) 
rxn_1999

>  <mol_properties>  (3) 
{"2": {"label": "acceptor", "atom_type": "Cd"}, "7": {"label": "a_hydrogen", "atom_type": "H0"}}

>  <type>  (3) 
r2h

$$$$

     RDKit          3D

 19 17  0  0  0  0  0  0  0  0999 V2000
   -2.8619   -1.0748   -1.2507 C   0  0  0  0  0  0  0  0  0  0  0  0
   -2.1103   -0.8966   -0.3244 C   0  0  0  0  0  0  0  0  0  0  0  0
   -1.1674   -0.6051    0.6564 C   0  0  0  0  0  3  0  0  0  0  0  0
   -1.0189   -0.9587    1.9181 C   0  0  0  0  0  0  0  0  0  0  0  0
   -3.5434   -1.2531   -2.0473 H   0  0  0  0  0  0  0  0  0  0  0  0
   -1.7199   -1.6226    2.4163 H   0  0  0  0  0  0  0  0  0  0  0  0
   -0.1809   -0.5874    2.4987 H   0  0  0  0  0  0  0  0  0  0  0  0
    1.0982    0.5210   -1.5789 C   0  0  0  0  0  0  0  0  0  0  0  0
    0.7370    1.0652   -0.2172 C   0  0  0  0  0  0  0  0  0  0  0  0
    2.0663    1.0670    0.9855 S   0  0  0  0  0  0  0  0  0  0  0  0
    0.0433    2.4083   -0.2397 C   0  0  0  0  0  0  0  0  0  0  0  0
    1.5169   -0.4841   -1.5096 H   0  0  0  0  0  0  0  0  0  0  0  0
    1.8305    1.1644   -2.0745 H   0  0  0  0  0  0  0  0  0  0  0  0
    0.2032    0.4697   -2.2031 H   0  0  0  0  0  0  0  0  0  0  0  0
   -0.1461    0.2601    0.2171 H   0  0  0  0  0  0  0  0  0  0  0  0
    2.5168   -0.1696    0.7343 H   0  0  0  0  0  0  0  0  0  0  0  0
   -0.8616    2.3395   -0.8464 H   0  0  0  0  0  0  0  0  0  0  0  0
    0.6874    3.1775   -0.6757 H   0  0  0  0  0  0  0  0  0  0  0  0
   -0.2443    2.7272    0.7630 H   0  0  0  0  0  0  0  0  0  0  0  0
  1  2  3  0
  1  5  1  0
  2  3  1  0
  3  4  2  3
  4  6  1  0
  4  7  1  0
  8  9  1  0
  8 12  1  0
  8 13  1  0
  8 14  1  0
  9 11  1  0
  9 10  1  0
  9 15  1  0
 10 16  1  0
 11 17  1  0
 11 18  1  0
 11 19  1  0
M  RAD  1   3   2
M  END
>  <reaction>  (4) 
rxn_1999

>  <mol_properties>  (4) 
{"1": {"label": "*4", "atom_type": "Ct"}, "2": {"label": "*3", "atom_type": "Cd"}, "8": {"label": "*1", "atom_type": "Cs"}, "9": {"label": "*0", "atom_type": "S2s"}, "14": {"label": "*2", "atom_type": "H0"}}

>  <type>  (4) 
ts

$$$$

     RDKit          3D

 19 17  0  0  0  0  0  0  0  0999 V2000
   -1.1332   -2.5646    1.6586 C   0  0  0  0  0  0  0  0  0  0  0  0
   -1.3504   -1.5895    0.9949 C   0  0  0  0  0  0  0  0  0  0  0  0
   -1.5852   -0.4392    0.1863 C   0  0  0  0  0  0  0  0  0  0  0  0
   -2.5211    0.4689    0.4420 C   0  0  0  0  0  0  0  0  0  0  0  0
   -0.9405   -3.4292    2.2471 H   0  0  0  0  0  0  0  0  0  0  0  0
   -3.1737    0.3823    1.3012 H   0  0  0  0  0  0  0  0  0  0  0  0
   -2.6543    1.3236   -0.2079 H   0  0  0  0  0  0  0  0  0  0  0  0
    0.5428    0.8200   -2.1829 C   0  0  0  0  0  0  0  0  0  0  0  0
    0.5428    0.8200   -0.6606 C   0  0  0  0  0  3  0  0  0  0  0  0
    1.8978   -0.1964    0.0230 S   0  0  0  0  0  0  0  0  0  0  0  0
    0.5428    2.2300   -0.0865 C   0  0  0  0  0  0  0  0  0  0  0  0
    0.5142   -0.1942   -2.5796 H   0  0  0  0  0  0  0  0  0  0  0  0
    1.4412    1.3097   -2.5665 H   0  0  0  0  0  0  0  0  0  0  0  0
   -0.3242    1.3674   -2.5617 H   0  0  0  0  0  0  0  0  0  0  0  0
   -0.5251    0.1881   -0.2356 H   0  0  0  0  0  0  0  0  0  0  0  0
    2.9040    0.5391   -0.4716 H   0  0  0  0  0  0  0  0  0  0  0  0
   -0.3242    2.7872   -0.4507 H   0  0  0  0  0  0  0  0  0  0  0  0
    1.4412    2.7699   -0.3955 H   0  0  0  0  0  0  0  0  0  0  0  0
    0.5142    2.2149    1.0024 H   0  0  0  0  0  0  0  0  0  0  0  0
  1  2  3  0
  1  5  1  0
  2  3  1  0
  3  4  2  3
  3 15  1  0
  4  6  1  0
  4  7  1  0
  8  9  1  0
  8 12  1  0
  8 13  1  0
  8 14  1  0
  9 11  1  0
  9 10  1  0
 10 16  1  0
 11 17  1  0
 11 18  1  0
 11 19  1  0
M  RAD  1   9   2
M  END
>  <reaction>  (5) 
rxn_1999

>  <mol_properties>  (5) 
{"1": {"label": "*4", "atom_type": "Ct"}, "2": {"label": "*3", "atom_type": "Cd"}, "8": {"label": "*1", "atom_type": "Cs"}, "9": {"label": "*0", "atom_type": "S2s"}, "14": {"label": "*2", "atom_type": "H0"}}

>  <type>  (5) 
unop_1

>  <geom_source>  (5) 
Heuristics

$$$$

     RDKit          3D

 19 17  0  0  0  0  0  0  0  0999 V2000
   -2.3385   -2.2790   -1.0355 C   0  0  0  0  0  0  0  0  0  0  0  0
   -1.9386   -1.4180   -0.3025 C   0  0  0  0  0  0  0  0  0  0  0  0
   -1.4466   -0.3825    0.5447 C   0  0  0  0  0  0  0  0  0  0  0  0
   -1.7678   -0.2586    1.8281 C   0  0  0  0  0  0  0  0  0  0  0  0
   -2.6931   -3.0424   -1.6855 H   0  0  0  0  0  0  0  0  0  0  0  0
   -2.4387   -0.9559    2.3133 H   0  0  0  0  0  0  0  0  0  0  0  0
   -1.3632    0.5489    2.4238 H   0  0  0  0  0  0  0  0  0  0  0  0
    0.6814    0.8766   -1.8245 C   0  0  0  0  0  0  0  0  0  0  0  0
    0.6814    0.8766   -0.3021 C   0  0  0  0  0  3  0  0  0  0  0  0
    2.0364   -0.1398    0.3815 S   0  0  0  0  0  0  0  0  0  0  0  0
    0.6814    2.2866    0.2719 C   0  0  0  0  0  0  0  0  0  0  0  0
    0.6528   -0.1376   -2.2211 H   0  0  0  0  0  0  0  0  0  0  0  0
    1.5798    1.3664   -2.2081 H   0  0  0  0  0  0  0  0  0  0  0  0
   -0.1855    1.4241   -2.2033 H   0  0  0  0  0  0  0  0  0  0  0  0
   -0.3865    0.2448    0.1228 H   0  0  0  0  0  0  0  0  0  0  0  0
    3.0427    0.5957   -0.1132 H   0  0  0  0  0  0  0  0  0  0  0  0
   -0.1855    2.8439   -0.0923 H   0  0  0  0  0  0  0  0  0  0  0  0
    1.5798    2.8265   -0.0370 H   0  0  0  0  0  0  0  0  0  0  0  0
    0.6528    2.2715    1.3608 H   0  0  0  0  0  0  0  0  0  0  0  0
  1  2  3  0
  1  5  1  0
  2  3  1  0
  3  4  2  3
  3 15  1  0
  4  6  1  0
  4  7  1  0
  8  9  1  0
  8 12  1  0
  8 13  1  0
  8 14  1  0
  9 11  1  0
  9 10  1  0
 10 16  1  0
 11 17  1  0
 11 18  1  0
 11 19  1  0
M  RAD  1   9   2
M  END
>  <reaction>  (6) 
rxn_1999

>  <mol_properties>  (6) 
{"1": {"label": "*4", "atom_type": "Ct"}, "2": {"label": "*3", "atom_type": "Cd"}, "8": {"label": "*1", "atom_type": "Cs"}, "9": {"label": "*0", "atom_type": "S2s"}, "14": {"label": "*2", "atom_type": "H0"}}

>  <type>  (6) 
unop_2

>  <geom_source>  (6) 
Heuristics

$$$$

     RDKit          3D

 19 17  0  0  0  0  0  0  0  0999 V2000
   -1.2730   -1.7737    2.4382 C   0  0  0  0  0  0  0  0  0  0  0  0
   -1.4054   -1.2058    1.3901 C   0  0  0  0  0  0  0  0  0  0  0  0
   -1.5322   -0.5365    0.1379 C   0  0  0  0  0  0  0  0  0  0  0  0
   -2.6603    0.0137   -0.2984 C   0  0  0  0  0  0  0  0  0  0  0  0
   -1.1556   -2.2773    3.3675 H   0  0  0  0  0  0  0  0  0  0  0  0
   -3.5690   -0.0173    0.2891 H   0  0  0  0  0  0  0  0  0  0  0  0
   -2.6980    0.5098   -1.2592 H   0  0  0  0  0  0  0  0  0  0  0  0
    0.5958    0.7227   -2.2313 C   0  0  0  0  0  0  0  0  0  0  0  0
    0.5958    0.7227   -0.7090 C   0  0  0  0  0  3  0  0  0  0  0  0
    1.9508   -0.2938   -0.0254 S   0  0  0  0  0  0  0  0  0  0  0  0
    0.5958    2.1326   -0.1350 C   0  0  0  0  0  0  0  0  0  0  0  0
    0.5672   -0.2916   -2.6280 H   0  0  0  0  0  0  0  0  0  0  0  0
    1.4942    1.2124   -2.6149 H   0  0  0  0  0  0  0  0  0  0  0  0
   -0.2712    1.2701   -2.6101 H   0  0  0  0  0  0  0  0  0  0  0  0
   -0.4721    0.0908   -0.2840 H   0  0  0  0  0  0  0  0  0  0  0  0
    2.9571    0.4417   -0.5201 H   0  0  0  0  0  0  0  0  0  0  0  0
   -0.2712    2.6899   -0.4991 H   0  0  0  0  0  0  0  0  0  0  0  0
    1.4942    2.6726   -0.4439 H   0  0  0  0  0  0  0  0  0  0  0  0
    0.5672    2.1176    0.9540 H   0  0  0  0  0  0  0  0  0  0  0  0
  1  2  3  0
  1  5  1  0
  2  3  1  0
  3  4  2  3
  3 15  1  0
  4  6  1  0
  4  7  1  0
  8  9  1  0
  8 12  1  0
  8 13  1  0
  8 14  1  0
  9 11  1  0
  9 10  1  0
 10 16  1  0
 11 17  1  0
 11 18  1  0
 11 19  1  0
M  RAD  1   9   2
M  END
>  <reaction>  (7) 
rxn_1999

>  <mol_properties>  (7) 
{"1": {"label": "*4", "atom_type": "Ct"}, "2": {"label": "*3", "atom_type": "Cd"}, "8": {"label": "*1", "atom_type": "Cs"}, "9": {"label": "*0", "atom_type": "S2s"}, "14": {"label": "*2", "atom_type": "H0"}}

>  <type>  (7) 
unop_3

>  <geom_source>  (7) 
Heuristics

$$$$

     RDKit          3D

 19 17  0  0  0  0  0  0  0  0999 V2000
   -3.5824    0.2657   -0.3339 C   0  0  0  0  0  0  0  0  0  0  0  0
   -2.5398   -0.2036    0.0284 C   0  0  0  0  0  0  0  0  0  0  0  0
   -1.2873   -0.7517    0.4320 C   0  0  0  0  0  0  0  0  0  0  0  0
   -1.0896   -1.3797    1.5862 C   0  0  0  0  0  0  0  0  0  0  0  0
   -4.5068    0.6819   -0.6552 H   0  0  0  0  0  0  0  0  0  0  0  0
   -1.8905   -1.5129    2.3022 H   0  0  0  0  0  0  0  0  0  0  0  0
   -0.1155   -1.7762    1.8401 H   0  0  0  0  0  0  0  0  0  0  0  0
    0.8407    0.5074   -1.9372 C   0  0  0  0  0  0  0  0  0  0  0  0
    0.8407    0.5074   -0.4149 C   0  0  0  0  0  3  0  0  0  0  0  0
    2.1957   -0.5090    0.2687 S   0  0  0  0  0  0  0  0  0  0  0  0
    0.8407    1.9174    0.1591 C   0  0  0  0  0  0  0  0  0  0  0  0
    0.8121   -0.5068   -2.3339 H   0  0  0  0  0  0  0  0  0  0  0  0
    1.7391    0.9971   -2.3208 H   0  0  0  0  0  0  0  0  0  0  0  0
   -0.0263    1.0548   -2.3160 H   0  0  0  0  0  0  0  0  0  0  0  0
   -0.2272   -0.1245    0.0101 H   0  0  0  0  0  0  0  0  0  0  0  0
    3.2020    0.2265   -0.2260 H   0  0  0  0  0  0  0  0  0  0  0  0
   -0.0263    2.4746   -0.2050 H   0  0  0  0  0  0  0  0  0  0  0  0
    1.7391    2.4573   -0.1498 H   0  0  0  0  0  0  0  0  0  0  0  0
    0.8121    1.9023    1.2481 H   0  0  0  0  0  0  0  0  0  0  0  0
  1  2  3  0
  1  5  1  0
  2  3  1  0
  3  4  2  3
  3 15  1  0
  4  6  1  0
  4  7  1  0
  8  9  1  0
  8 12  1  0
  8 13  1  0
  8 14  1  0
  9 11  1  0
  9 10  1  0
 10 16  1  0
 11 17  1  0
 11 18  1  0
 11 19  1  0
M  RAD  1   9   2
M  END
>  <reaction>  (8) 
rxn_1999

>  <mol_properties>  (8) 
{"1": {"label": "*4", "atom_type": "Ct"}, "2": {"label": "*3", "atom_type": "Cd"}, "8": {"label": "*1", "atom_type": "Cs"}, "9": {"label": "*0", "atom_type": "S2s"}, "14": {"label": "*2", "atom_type": "H0"}}

>  <type>  (8) 
unop_4

>  <geom_source>  (8) 
Heuristics

$$$$

     RDKit          3D

 19 17  0  0  0  0  0  0  0  0999 V2000
   -1.7388   -0.7335    2.7489 C   0  0  0  0  0  0  0  0  0  0  0  0
   -1.6341   -0.6716    1.5556 C   0  0  0  0  0  0  0  0  0  0  0  0
   -1.4826   -0.5819    0.1411 C   0  0  0  0  0  0  0  0  0  0  0  0
   -2.3452   -1.0923   -0.7314 C   0  0  0  0  0  0  0  0  0  0  0  0
   -1.8316   -0.7884    3.8068 H   0  0  0  0  0  0  0  0  0  0  0  0
   -3.2339   -1.6181   -0.4067 H   0  0  0  0  0  0  0  0  0  0  0  0
   -2.1785   -0.9937   -1.7958 H   0  0  0  0  0  0  0  0  0  0  0  0
    0.6454    0.6773   -2.2282 C   0  0  0  0  0  0  0  0  0  0  0  0
    0.6454    0.6773   -0.7058 C   0  0  0  0  0  3  0  0  0  0  0  0
    2.0005   -0.3391   -0.0222 S   0  0  0  0  0  0  0  0  0  0  0  0
    0.6454    2.0873   -0.1318 C   0  0  0  0  0  0  0  0  0  0  0  0
    0.6169   -0.3370   -2.6248 H   0  0  0  0  0  0  0  0  0  0  0  0
    1.5439    1.1670   -2.6118 H   0  0  0  0  0  0  0  0  0  0  0  0
   -0.2215    1.2247   -2.6070 H   0  0  0  0  0  0  0  0  0  0  0  0
   -0.4224    0.0454   -0.2808 H   0  0  0  0  0  0  0  0  0  0  0  0
    3.0067    0.3964   -0.5169 H   0  0  0  0  0  0  0  0  0  0  0  0
   -0.2215    2.6445   -0.4960 H   0  0  0  0  0  0  0  0  0  0  0  0
    1.5439    2.6272   -0.4407 H   0  0  0  0  0  0  0  0  0  0  0  0
    0.6169    2.0722    0.9572 H   0  0  0  0  0  0  0  0  0  0  0  0
  1  2  3  0
  1  5  1  0
  2  3  1  0
  3  4  2  3
  3 15  1  0
  4  6  1  0
  4  7  1  0
  8  9  1  0
  8 12  1  0
  8 13  1  0
  8 14  1  0
  9 11  1  0
  9 10  1  0
 10 16  1  0
 11 17  1  0
 11 18  1  0
 11 19  1  0
M  RAD  1   9   2
M  END
>  <reaction>  (9) 
rxn_1999

>  <mol_properties>  (9) 
{"1": {"label": "*4", "atom_type": "Ct"}, "2": {"label": "*3", "atom_type": "Cd"}, "8": {"label": "*1", "atom_type": "Cs"}, "9": {"label": "*0", "atom_type": "S2s"}, "14": {"label": "*2", "atom_type": "H0"}}

>  <type>  (9) 
unop_5

>  <geom_source>  (9) 
Heuristics

$$$$

     RDKit          3D

 19 17  0  0  0  0  0  0  0  0999 V2000
   -3.4668    0.7048    0.6469 C   0  0  0  0  0  0  0  0  0  0  0  0
   -2.4954    0.0170    0.4989 C   0  0  0  0  0  0  0  0  0  0  0  0
   -1.3341   -0.7846    0.2964 C   0  0  0  0  0  0  0  0  0  0  0  0
   -0.9562   -1.7627    1.1126 C   0  0  0  0  0  0  0  0  0  0  0  0
   -4.3281    1.3147    0.7781 H   0  0  0  0  0  0  0  0  0  0  0  0
   -1.5249   -2.0108    1.9996 H   0  0  0  0  0  0  0  0  0  0  0  0
   -0.0637   -2.3392    0.9085 H   0  0  0  0  0  0  0  0  0  0  0  0
    0.7939    0.4746   -2.0728 C   0  0  0  0  0  0  0  0  0  0  0  0
    0.7939    0.4746   -0.5505 C   0  0  0  0  0  3  0  0  0  0  0  0
    2.1489   -0.5418    0.1332 S   0  0  0  0  0  0  0  0  0  0  0  0
    0.7939    1.8846    0.0236 C   0  0  0  0  0  0  0  0  0  0  0  0
    0.7653   -0.5397   -2.4694 H   0  0  0  0  0  0  0  0  0  0  0  0
    1.6923    0.9643   -2.4564 H   0  0  0  0  0  0  0  0  0  0  0  0
   -0.0731    1.0220   -2.4516 H   0  0  0  0  0  0  0  0  0  0  0  0
   -0.2740   -0.1573   -0.1255 H   0  0  0  0  0  0  0  0  0  0  0  0
    3.1552    0.1937   -0.3615 H   0  0  0  0  0  0  0  0  0  0  0  0
   -0.0731    2.4418   -0.3406 H   0  0  0  0  0  0  0  0  0  0  0  0
    1.6923    2.4245   -0.2853 H   0  0  0  0  0  0  0  0  0  0  0  0
    0.7653    1.8695    1.1125 H   0  0  0  0  0  0  0  0  0  0  0  0
  1  2  3  0
  1  5  1  0
  2  3  1  0
  3  4  2  3
  3 15  1  0
  4  6  1  0
  4  7  1  0
  8  9  1  0
  8 12  1  0
  8 13  1  0
  8 14  1  0
  9 11  1  0
  9 10  1  0
 10 16  1  0
 11 17  1  0
 11 18  1  0
 11 19  1  0
M  RAD  1   9   2
M  END
>  <reaction>  (10) 
rxn_1999

>  <mol_properties>  (10) 
{"1": {"label": "*4", "atom_type": "Ct"}, "2": {"label": "*3", "atom_type": "Cd"}, "8": {"label": "*1", "atom_type": "Cs"}, "9": {"label": "*0", "atom_type": "S2s"}, "14": {"label": "*2", "atom_type": "H0"}}

>  <type>  (10) 
unop_6

>  <geom_source>  (10) 
Heuristics

$$$$

     RDKit          3D

 19 17  0  0  0  0  0  0  0  0999 V2000
   -3.0523    0.6788    1.6586 C   0  0  0  0  0  0  0  0  0  0  0  0
   -2.3021    0.0190    0.9949 C   0  0  0  0  0  0  0  0  0  0  0  0
   -1.4069   -0.7406    0.1863 C   0  0  0  0  0  0  0  0  0  0  0  0
   -1.0614   -1.9979    0.4420 C   0  0  0  0  0  0  0  0  0  0  0  0
   -3.7174    1.2638    2.2471 H   0  0  0  0  0  0  0  0  0  0  0  0
   -1.4515   -2.5283    1.3012 H   0  0  0  0  0  0  0  0  0  0  0  0
   -0.3764   -2.5261   -0.2079 H   0  0  0  0  0  0  0  0  0  0  0  0
    0.7211    0.5186   -2.1829 C   0  0  0  0  0  0  0  0  0  0  0  0
    0.7211    0.5186   -0.6606 C   0  0  0  0  0  3  0  0  0  0  0  0
    2.0761   -0.4978    0.0230 S   0  0  0  0  0  0  0  0  0  0  0  0
    0.7211    1.9286   -0.0865 C   0  0  0  0  0  0  0  0  0  0  0  0
    0.6925   -0.4957   -2.5796 H   0  0  0  0  0  0  0  0  0  0  0  0
    1.6195    1.0083   -2.5665 H   0  0  0  0  0  0  0  0  0  0  0  0
   -0.1459    1.0660   -2.5617 H   0  0  0  0  0  0  0  0  0  0  0  0
   -0.3468   -0.1133   -0.2356 H   0  0  0  0  0  0  0  0  0  0  0  0
    3.0824    0.2377   -0.4716 H   0  0  0  0  0  0  0  0  0  0  0  0
   -0.1459    2.4858   -0.4507 H   0  0  0  0  0  0  0  0  0  0  0  0
    1.6195    2.4685   -0.3955 H   0  0  0  0  0  0  0  0  0  0  0  0
    0.6925    1.9135    1.0024 H   0  0  0  0  0  0  0  0  0  0  0  0
  1  2  3  0
  1  5  1  0
  2  3  1  0
  3  4  2  3
  3 15  1  0
  4  6  1  0
  4  7  1  0
  8  9  1  0
  8 12  1  0
  8 13  1  0
  8 14  1  0
  9 11  1  0
  9 10  1  0
 10 16  1  0
 11 17  1  0
 11 18  1  0
 11 19  1  0
M  RAD  1   9   2
M  END
>  <reaction>  (11) 
rxn_1999

>  <mol_properties>  (11) 
{"1": {"label": "*4", "atom_type": "Ct"}, "2": {"label": "*3", "atom_type": "Cd"}, "8": {"label": "*1", "atom_type": "Cs"}, "9": {"label": "*0", "atom_type": "S2s"}, "14": {"label": "*2", "atom_type": "H0"}}

>  <type>  (11) 
unop_7

>  <geom_source>  (11) 
Heuristics

$$$$

     RDKit          3D

 19 17  0  0  0  0  0  0  0  0999 V2000
   -1.3098   -2.9404    0.6469 C   0  0  0  0  0  0  0  0  0  0  0  0
   -1.4452   -1.7579    0.4989 C   0  0  0  0  0  0  0  0  0  0  0  0
   -1.5888   -0.3542    0.2964 C   0  0  0  0  0  0  0  0  0  0  0  0
   -2.2642    0.4479    1.1126 C   0  0  0  0  0  0  0  0  0  0  0  0
   -1.1898   -3.9889    0.7781 H   0  0  0  0  0  0  0  0  0  0  0  0
   -2.7554    0.0688    1.9996 H   0  0  0  0  0  0  0  0  0  0  0  0
   -2.3400    1.5077    0.9085 H   0  0  0  0  0  0  0  0  0  0  0  0
    0.5392    0.9050   -2.0728 C   0  0  0  0  0  0  0  0  0  0  0  0
    0.5392    0.9050   -0.5505 C   0  0  0  0  0  3  0  0  0  0  0  0
    1.8942   -0.1115    0.1332 S   0  0  0  0  0  0  0  0  0  0  0  0
    0.5392    2.3149    0.0236 C   0  0  0  0  0  0  0  0  0  0  0  0
    0.5106   -0.1093   -2.4694 H   0  0  0  0  0  0  0  0  0  0  0  0
    1.4376    1.3947   -2.4564 H   0  0  0  0  0  0  0  0  0  0  0  0
   -0.3278    1.4524   -2.4516 H   0  0  0  0  0  0  0  0  0  0  0  0
   -0.5287    0.2731   -0.1255 H   0  0  0  0  0  0  0  0  0  0  0  0
    2.9005    0.6240   -0.3615 H   0  0  0  0  0  0  0  0  0  0  0  0
   -0.3278    2.8722   -0.3406 H   0  0  0  0  0  0  0  0  0  0  0  0
    1.4376    2.8549   -0.2853 H   0  0  0  0  0  0  0  0  0  0  0  0
    0.5106    2.2998    1.1125 H   0  0  0  0  0  0  0  0  0  0  0  0
  1  2  3  0
  1  5  1  0
  2  3  1  0
  3  4  2  3
  3 15  1  0
  4  6  1  0
  4  7  1  0
  8  9  1  0
  8 12  1  0
  8 13  1  0
  8 14  1  0
  9 11  1  0
  9 10  1  0
 10 16  1  0
 11 17  1  0
 11 18  1  0
 11 19  1  0
M  RAD  1   9   2
M  END
>  <reaction>  (12) 
rxn_1999

>  <mol_properties>  (12) 
{"1": {"label": "*4", "atom_type": "Ct"}, "2": {"label": "*3", "atom_type": "Cd"}, "8": {"label": "*1", "atom_type": "Cs"}, "9": {"label": "*0", "atom_type": "S2s"}, "14": {"label": "*2", "atom_type": "H0"}}

>  <type>  (12) 
unop_8

>  <geom_source>  (12) 
Heuristics

$$$$

     RDKit          3D

 19 17  0  0  0  0  0  0  0  0999 V2000
   -3.3821   -0.5152   -1.0355 C   0  0  0  0  0  0  0  0  0  0  0  0
   -2.4350   -0.5791   -0.3025 C   0  0  0  0  0  0  0  0  0  0  0  0
   -1.2905   -0.6463    0.5447 C   0  0  0  0  0  0  0  0  0  0  0  0
   -1.3365   -0.9875    1.8281 C   0  0  0  0  0  0  0  0  0  0  0  0
   -4.2219   -0.4586   -1.6855 H   0  0  0  0  0  0  0  0  0  0  0  0
   -2.2706   -1.2399    2.3133 H   0  0  0  0  0  0  0  0  0  0  0  0
   -0.4339   -1.0216    2.4238 H   0  0  0  0  0  0  0  0  0  0  0  0
    0.8375    0.6129   -1.8245 C   0  0  0  0  0  0  0  0  0  0  0  0
    0.8375    0.6129   -0.3021 C   0  0  0  0  0  3  0  0  0  0  0  0
    2.1925   -0.4035    0.3815 S   0  0  0  0  0  0  0  0  0  0  0  0
    0.8375    2.0228    0.2719 C   0  0  0  0  0  0  0  0  0  0  0  0
    0.8089   -0.4014   -2.2211 H   0  0  0  0  0  0  0  0  0  0  0  0
    1.7359    1.1026   -2.2081 H   0  0  0  0  0  0  0  0  0  0  0  0
   -0.0295    1.1603   -2.2033 H   0  0  0  0  0  0  0  0  0  0  0  0
   -0.2304   -0.0190    0.1228 H   0  0  0  0  0  0  0  0  0  0  0  0
    3.1988    0.3319   -0.1132 H   0  0  0  0  0  0  0  0  0  0  0  0
   -0.0295    2.5801   -0.0923 H   0  0  0  0  0  0  0  0  0  0  0  0
    1.7359    2.5628   -0.0370 H   0  0  0  0  0  0  0  0  0  0  0  0
    0.8089    2.0078    1.3608 H   0  0  0  0  0  0  0  0  0  0  0  0
  1  2  3  0
  1  5  1  0
  2  3  1  0
  3  4  2  3
  3 15  1  0
  4  6  1  0
  4  7  1  0
  8  9  1  0
  8 12  1  0
  8 13  1  0
  8 14  1  0
  9 11  1  0
  9 10  1  0
 10 16  1  0
 11 17  1  0
 11 18  1  0
 11 19  1  0
M  RAD  1   9   2
M  END
>  <reaction>  (13) 
rxn_1999

>  <mol_properties>  (13) 
{"1": {"label": "*4", "atom_type": "Ct"}, "2": {"label": "*3", "atom_type": "Cd"}, "8": {"label": "*1", "atom_type": "Cs"}, "9": {"label": "*0", "atom_type": "S2s"}, "14": {"label": "*2", "atom_type": "H0"}}

>  <type>  (13) 
unop_9

>  <geom_source>  (13) 
Heuristics

$$$$

     RDKit          3D

 19 17  0  0  0  0  0  0  0  0999 V2000
   -1.7504   -2.8304   -0.3339 C   0  0  0  0  0  0  0  0  0  0  0  0
   -1.6599   -1.6907    0.0284 C   0  0  0  0  0  0  0  0  0  0  0  0
   -1.5375   -0.3290    0.4320 C   0  0  0  0  0  0  0  0  0  0  0  0
   -1.9928    0.1466    1.5862 C   0  0  0  0  0  0  0  0  0  0  0  0
   -1.8305   -3.8410   -0.6552 H   0  0  0  0  0  0  0  0  0  0  0  0
   -2.4949   -0.4913    2.3022 H   0  0  0  0  0  0  0  0  0  0  0  0
   -1.8714    1.1913    1.8401 H   0  0  0  0  0  0  0  0  0  0  0  0
    0.5905    0.9302   -1.9372 C   0  0  0  0  0  0  0  0  0  0  0  0
    0.5905    0.9302   -0.4149 C   0  0  0  0  0  3  0  0  0  0  0  0
    1.9455   -0.0862    0.2687 S   0  0  0  0  0  0  0  0  0  0  0  0
    0.5905    2.3402    0.1591 C   0  0  0  0  0  0  0  0  0  0  0  0
    0.5619   -0.0840   -2.3339 H   0  0  0  0  0  0  0  0  0  0  0  0
    1.4889    1.4199   -2.3208 H   0  0  0  0  0  0  0  0  0  0  0  0
   -0.2765    1.4776   -2.3160 H   0  0  0  0  0  0  0  0  0  0  0  0
   -0.4774    0.2983    0.0101 H   0  0  0  0  0  0  0  0  0  0  0  0
    2.9518    0.6493   -0.2260 H   0  0  0  0  0  0  0  0  0  0  0  0
   -0.2765    2.8974   -0.2050 H   0  0  0  0  0  0  0  0  0  0  0  0
    1.4889    2.8801   -0.1498 H   0  0  0  0  0  0  0  0  0  0  0  0
    0.5619    2.3251    1.2481 H   0  0  0  0  0  0  0  0  0  0  0  0
  1  2  3  0
  1  5  1  0
  2  3  1  0
  3  4  2  3
  3 15  1  0
  4  6  1  0
  4  7  1  0
  8  9  1  0
  8 12  1  0
  8 13  1  0
  8 14  1  0
  9 11  1  0
  9 10  1  0
 10 16  1  0
 11 17  1  0
 11 18  1  0
 11 19  1  0
M  RAD  1   9   2
M  END
>  <reaction>  (14) 
rxn_1999

>  <mol_properties>  (14) 
{"1": {"label": "*4", "atom_type": "Ct"}, "2": {"label": "*3", "atom_type": "Cd"}, "8": {"label": "*1", "atom_type": "Cs"}, "9": {"label": "*0", "atom_type": "S2s"}, "14": {"label": "*2", "atom_type": "H0"}}

>  <type>  (14) 
unop_10

>  <geom_source>  (14) 
Heuristics

$$$$

     RDKit          3D

 19 17  0  0  0  0  0  0  0  0999 V2000
   -2.4264    0.1755    2.4382 C   0  0  0  0  0  0  0  0  0  0  0  0
   -1.9923   -0.2139    1.3901 C   0  0  0  0  0  0  0  0  0  0  0  0
   -1.4667   -0.6472    0.1379 C   0  0  0  0  0  0  0  0  0  0  0  0
   -1.5275   -1.9009   -0.2984 C   0  0  0  0  0  0  0  0  0  0  0  0
   -2.8113    0.5208    3.3675 H   0  0  0  0  0  0  0  0  0  0  0  0
   -1.9920   -2.6824    0.2891 H   0  0  0  0  0  0  0  0  0  0  0  0
   -1.1108   -2.1727   -1.2592 H   0  0  0  0  0  0  0  0  0  0  0  0
    0.6613    0.6119   -2.2313 C   0  0  0  0  0  0  0  0  0  0  0  0
    0.6613    0.6119   -0.7090 C   0  0  0  0  0  3  0  0  0  0  0  0
    2.0163   -0.4045   -0.0254 S   0  0  0  0  0  0  0  0  0  0  0  0
    0.6613    2.0219   -0.1350 C   0  0  0  0  0  0  0  0  0  0  0  0
    0.6327   -0.4023   -2.6280 H   0  0  0  0  0  0  0  0  0  0  0  0
    1.5597    1.1017   -2.6149 H   0  0  0  0  0  0  0  0  0  0  0  0
   -0.2057    1.1593   -2.6101 H   0  0  0  0  0  0  0  0  0  0  0  0
   -0.4066   -0.0200   -0.2840 H   0  0  0  0  0  0  0  0  0  0  0  0
    3.0226    0.3310   -0.5201 H   0  0  0  0  0  0  0  0  0  0  0  0
   -0.2057    2.5791   -0.4991 H   0  0  0  0  0  0  0  0  0  0  0  0
    1.5597    2.5618   -0.4439 H   0  0  0  0  0  0  0  0  0  0  0  0
    0.6327    2.0068    0.9540 H   0  0  0  0  0  0  0  0  0  0  0  0
  1  2  3  0
  1  5  1  0
  2  3  1  0
  3  4  2  3
  3 15  1  0
  4  6  1  0
  4  7  1  0
  8  9  1  0
  8 12  1  0
  8 13  1  0
  8 14  1  0
  9 11  1  0
  9 10  1  0
 10 16  1  0
 11 17  1  0
 11 18  1  0
 11 19  1  0
M  RAD  1   9   2
M  END
>  <reaction>  (15) 
rxn_1999

>  <mol_properties>  (15) 
{"1": {"label": "*4", "atom_type": "Ct"}, "2": {"label": "*3", "atom_type": "Cd"}, "8": {"label": "*1", "atom_type": "Cs"}, "9": {"label": "*0", "atom_type": "S2s"}, "14": {"label": "*2", "atom_type": "H0"}}

>  <type>  (15) 
unop_11

>  <geom_source>  (15) 
Heuristics

$$$$

     RDKit          3D

 19 17  0  0  0  0  0  0  0  0999 V2000
   -2.9289   -1.4377   -1.2886 C   0  0  0  0  0  0  0  0  0  0  0  0
   -2.2166   -1.0162   -0.4205 C   0  0  0  0  0  0  0  0  0  0  0  0
   -1.3505   -0.5037    0.5891 C   0  0  0  0  0  0  0  0  0  0  0  0
   -1.5717   -0.6346    1.8928 C   0  0  0  0  0  0  0  0  0  0  0  0
   -3.5604   -1.8114   -2.0583 H   0  0  0  0  0  0  0  0  0  0  0  0
   -2.4451   -1.1514    2.2694 H   0  0  0  0  0  0  0  0  0  0  0  0
   -0.8784   -0.2244    2.6150 H   0  0  0  0  0  0  0  0  0  0  0  0
    0.7775    0.7554   -1.7801 C   0  0  0  0  0  0  0  0  0  0  0  0
    0.7775    0.7554   -0.2578 C   0  0  0  0  0  3  0  0  0  0  0  0
    2.1325   -0.2610    0.4258 S   0  0  0  0  0  0  0  0  0  0  0  0
    0.7775    2.1654    0.3162 C   0  0  0  0  0  0  0  0  0  0  0  0
    0.7489   -0.2588   -2.1768 H   0  0  0  0  0  0  0  0  0  0  0  0
    1.6759    1.2452   -2.1637 H   0  0  0  0  0  0  0  0  0  0  0  0
   -0.0895    1.3029   -2.1589 H   0  0  0  0  0  0  0  0  0  0  0  0
   -0.2904    0.1236    0.1672 H   0  0  0  0  0  0  0  0  0  0  0  0
    3.1388    0.4745   -0.0688 H   0  0  0  0  0  0  0  0  0  0  0  0
   -0.0895    2.7227   -0.0479 H   0  0  0  0  0  0  0  0  0  0  0  0
    1.6759    2.7054    0.0073 H   0  0  0  0  0  0  0  0  0  0  0  0
    0.7489    2.1503    1.4052 H   0  0  0  0  0  0  0  0  0  0  0  0
  1  2  3  0
  1  5  1  0
  2  3  1  0
  3  4  2  3
  3 15  1  0
  4  6  1  0
  4  7  1  0
  8  9  1  0
  8 12  1  0
  8 13  1  0
  8 14  1  0
  9 11  1  0
  9 10  1  0
 10 16  1  0
 11 17  1  0
 11 18  1  0
 11 19  1  0
M  RAD  1   9   2
M  END
>  <reaction>  (16) 
rxn_1999

>  <mol_properties>  (16) 
{"1": {"label": "*4", "atom_type": "Ct"}, "2": {"label": "*3", "atom_type": "Cd"}, "8": {"label": "*1", "atom_type": "Cs"}, "9": {"label": "*0", "atom_type": "S2s"}, "14": {"label": "*2", "atom_type": "H0"}}

>  <type>  (16) 
unop_12

>  <geom_source>  (16) 
Heuristics

$$$$

     RDKit          3D

 19 17  0  0  0  0  0  0  0  0999 V2000
   -1.9641   -0.5161   -1.7795 S   0  0  0  0  0  0  0  0  0  0  0  0
   -1.6384   -1.0430    0.8999 C   0  0  0  0  0  0  0  0  0  0  0  0
   -1.3799    1.3543    0.1589 C   0  0  0  0  0  0  0  0  0  0  0  0
   -1.1459   -0.1105   -0.2027 C   0  0  0  0  0  3  0  0  0  0  0  0
    1.4360   -0.3111    0.0794 C   0  0  0  0  0  0  0  0  0  0  0  0
    1.9089   -0.3722    1.3186 C   0  0  0  0  0  0  0  0  0  0  0  0
    2.3027   -0.0053   -1.0266 C   0  0  0  0  0  0  0  0  0  0  0  0
    3.0284    0.2509   -1.9546 C   0  0  0  0  0  0  0  0  0  0  0  0
   -1.1082   -0.8205    1.8499 H   0  0  0  0  0  0  0  0  0  0  0  0
   -1.4255   -2.0963    0.6212 H   0  0  0  0  0  0  0  0  0  0  0  0
   -2.7321   -0.9224    1.0550 H   0  0  0  0  0  0  0  0  0  0  0  0
   -0.8547    1.5997    1.1060 H   0  0  0  0  0  0  0  0  0  0  0  0
   -0.9750    2.0082   -0.6415 H   0  0  0  0  0  0  0  0  0  0  0  0
   -2.4654    1.5584    0.2799 H   0  0  0  0  0  0  0  0  0  0  0  0
    0.2161   -0.5225   -0.1344 H   0  0  0  0  0  0  0  0  0  0  0  0
    1.2416   -0.6037    2.1380 H   0  0  0  0  0  0  0  0  0  0  0  0
    2.9569   -0.1939    1.5284 H   0  0  0  0  0  0  0  0  0  0  0  0
   -1.0669    0.2701   -2.5268 H   0  0  0  0  0  0  0  0  0  0  0  0
    3.6655    0.4759   -2.7691 H   0  0  0  0  0  0  0  0  0  0  0  0
  1  4  1  0
  1 18  1  0
  2  4  1  0
  2  9  1  0
  2 10  1  0
  2 11  1  0
  3  4  1  0
  3 12  1  0
  3 13  1  0
  3 14  1  0
  5  6  2  3
  5  7  1  0
  5 15  1  0
  6 16  1  0
  6 17  1  0
  7  8  3  0
  8 19  1  0
M  RAD  1   4   2
M  END
>  <reaction>  (17) 
rxn_1999

>  <mol_properties>  (17) 
{"1": {"label": "*4", "atom_type": "Ct"}, "2": {"label": "*3", "atom_type": "Cd"}, "8": {"label": "*1", "atom_type": "Cs"}, "9": {"label": "*0", "atom_type": "S2s"}, "14": {"label": "*2", "atom_type": "H0"}}

>  <type>  (17) 
unop_13

>  <geom_source>  (17) 
AutoTST

$$$$
