
     RDKit          3D

 12 11  0  0  0  0  0  0  0  0999 V2000
    1.9877    0.1011    0.4814 C   0  0  0  0  0  0  0  0  0  0  0  0
    0.8179    0.5502    0.0525 C   0  0  0  0  0  0  0  0  0  0  0  0
   -0.2939   -0.2692   -0.5320 C   0  0  0  0  0  0  0  0  0  0  0  0
   -0.0292   -1.7631   -0.6328 C   0  0  0  0  0  0  0  0  0  0  0  0
    2.2522   -0.9490    0.4436 H   0  0  0  0  0  0  0  0  0  0  0  0
    2.7295    0.7757    0.8896 H   0  0  0  0  0  0  0  0  0  0  0  0
    0.6162    1.6164    0.1190 H   0  0  0  0  0  0  0  0  0  0  0  0
   -0.5268    0.1319   -1.5245 H   0  0  0  0  0  0  0  0  0  0  0  0
   -1.1959   -0.0938    0.0644 H   0  0  0  0  0  0  0  0  0  0  0  0
    0.1590   -2.1992    0.3502 H   0  0  0  0  0  0  0  0  0  0  0  0
    0.8382   -1.9701   -1.2626 H   0  0  0  0  0  0  0  0  0  0  0  0
   -0.8879   -2.2759   -1.0672 H   0  0  0  0  0  0  0  0  0  0  0  0
  1  2  2  3
  1  5  1  0
  1  6  1  0
  2  3  1  0
  2  7  1  0
  3  4  1  0
  3  8  1  0
  3  9  1  0
  4 10  1  0
  4 11  1  0
  4 12  1  0
M  END
>  <reaction>  (1) 
rxn_38

>  <mol_properties>  (1) 
{"2": {"label": "donator", "atom_type": "Cs"}, "7": {"label": "d_hydrogen", "atom_type": "H0"}}

>  <type>  (1) 
r1h

$$$$

     RDKit          3D

  6  5  0  0  0  0  0  0  0  0999 V2000
   -0.4344    0.0212    0.0006 C   0  0  0  0  0  0  0  0  0  0  0  0
    0.8754    0.5852   -0.1558 O   0  0  0  0  0  0  0  0  0  0  0  0
    1.8009   -0.3034    0.0506 O   0  0  0  0  0  1  0  0  0  0  0  0
   -0.5437   -0.3548    1.0170 H   0  0  0  0  0  0  0  0  0  0  0  0
   -1.1312    0.8347   -0.1903 H   0  0  0  0  0  0  0  0  0  0  0  0
   -0.5670   -0.7829   -0.7220 H   0  0  0  0  0  0  0  0  0  0  0  0
  1  2  1  0
  1  4  1  0
  1  5  1  0
  1  6  1  0
  2  3  1  0
M  RAD  1   3   2
M  END
>  <reaction>  (2) 
rxn_38

>  <mol_properties>  (2) 
{"2": {"label": "acceptor", "atom_type": "O2s"}}

>  <type>  (2) 
r2

$$$$

     RDKit          3D

  7  6  0  0  0  0  0  0  0  0999 V2000
   -0.7707    0.0268   -0.0047 C   0  0  0  0  0  0  0  0  0  0  0  0
    0.4327    0.7555    0.0056 O   0  0  0  0  0  0  0  0  0  0  0  0
    0.2257    1.8886    0.8427 O   0  0  0  0  0  0  0  0  0  0  0  0
   -1.5847    0.6016   -0.4574 H   0  0  0  0  0  0  0  0  0  0  0  0
   -1.0534   -0.2811    1.0050 H   0  0  0  0  0  0  0  0  0  0  0  0
   -0.5599   -0.8542   -0.6123 H   0  0  0  0  0  0  0  0  0  0  0  0
    0.2626    2.6067    0.2016 H   0  0  0  0  0  0  0  0  0  0  0  0
  1  2  1  0
  1  4  1  0
  1  5  1  0
  1  6  1  0
  2  3  1  0
  3  7  1  0
M  END
>  <reaction>  (3) 
rxn_38

>  <mol_properties>  (3) 
{"0": {"label": "a_hydrogen", "atom_type": "H0"}, "3": {"label": "acceptor", "atom_type": "O2s"}}

>  <type>  (3) 
r2h

$$$$

     RDKit          3D

 18 16  0  0  0  0  0  0  0  0999 V2000
   -0.6551   -0.9203   -1.8587 C   0  0  0  0  0  0  0  0  0  0  0  0
   -1.1278   -0.8704   -0.6089 C   0  0  0  0  0  0  0  0  0  0  0  0
   -1.4168    0.3415    0.1439 C   0  0  0  0  0  3  0  0  0  0  0  0
   -1.5360    1.6556   -0.5843 C   0  0  0  0  0  0  0  0  0  0  0  0
   -0.4805   -0.0251   -2.4422 H   0  0  0  0  0  0  0  0  0  0  0  0
   -0.4381   -1.8672   -2.3356 H   0  0  0  0  0  0  0  0  0  0  0  0
   -1.2743   -1.8055   -0.0754 H   0  0  0  0  0  0  0  0  0  0  0  0
   -0.3421    0.5065    0.8594 H   0  0  0  0  0  0  0  0  0  0  0  0
   -2.1540    0.1956    0.9333 H   0  0  0  0  0  0  0  0  0  0  0  0
   -2.3688    1.6359   -1.2934 H   0  0  0  0  0  0  0  0  0  0  0  0
   -0.6248    1.8822   -1.1401 H   0  0  0  0  0  0  0  0  0  0  0  0
   -1.7045    2.4699    0.1194 H   0  0  0  0  0  0  0  0  0  0  0  0
    2.1836   -0.8220    0.6936 C   0  0  0  0  0  0  0  0  0  0  0  0
    1.6702    0.4681    0.4146 O   0  0  0  0  0  0  0  0  0  0  0  0
    0.7502    0.7980    1.3717 O   0  0  0  0  0  0  0  0  0  0  0  0
    1.3880   -1.5690    0.6595 H   0  0  0  0  0  0  0  0  0  0  0  0
    2.9131   -1.0213   -0.0910 H   0  0  0  0  0  0  0  0  0  0  0  0
    2.6677   -0.8340    1.6722 H   0  0  0  0  0  0  0  0  0  0  0  0
  1  2  2  3
  1  5  1  0
  1  6  1  0
  2  3  1  0
  2  7  1  0
  3  4  1  0
  3  9  1  0
  4 10  1  0
  4 11  1  0
  4 12  1  0
  8 15  1  0
 13 14  1  0
 13 16  1  0
 13 17  1  0
 13 18  1  0
 14 15  1  0
M  RAD  1   3   2
M  END
>  <reaction>  (4) 
rxn_38

>  <mol_properties>  (4) 
{"1": {"label": "*4", "atom_type": "Cd"}, "2": {"label": "*3", "atom_type": "Cs"}, "7": {"label": "*2", "atom_type": "H0"}, "13": {"label": "*0", "atom_type": "O2s"}, "14": {"label": "*1", "atom_type": "O2s"}}

>  <type>  (4) 
ts

$$$$

     RDKit          3D

 18 16  0  0  0  0  0  0  0  0999 V2000
   -1.3174   -1.3350   -2.3207 C   0  0  0  0  0  0  0  0  0  0  0  0
   -1.3174   -1.3350   -0.9964 C   0  0  0  0  0  0  0  0  0  0  0  0
   -1.3174   -0.1305   -0.1029 C   0  0  0  0  0  3  0  0  0  0  0  0
   -1.3174    1.2153   -0.8106 C   0  0  0  0  0  0  0  0  0  0  0  0
   -1.3174   -0.4181   -2.8982 H   0  0  0  0  0  0  0  0  0  0  0  0
   -1.3174   -2.2623   -2.8794 H   0  0  0  0  0  0  0  0  0  0  0  0
   -1.3174   -2.2907   -0.4782 H   0  0  0  0  0  0  0  0  0  0  0  0
   -0.2741   -0.2121    0.6928 H   0  0  0  0  0  0  0  0  0  0  0  0
   -2.1868   -0.1985    0.5602 H   0  0  0  0  0  0  0  0  0  0  0  0
   -2.1998    1.3303   -1.4431 H   0  0  0  0  0  0  0  0  0  0  0  0
   -0.4350    1.3303   -1.4431 H   0  0  0  0  0  0  0  0  0  0  0  0
   -1.3174    2.0296   -0.0853 H   0  0  0  0  0  0  0  0  0  0  0  0
    2.7119    0.6594    1.3016 C   0  0  0  0  0  0  0  0  0  0  0  0
    1.3495    0.9044    1.0504 O   0  0  0  0  0  0  0  0  0  0  0  0
    0.6432   -0.2838    1.3925 O   0  0  0  0  0  0  0  0  0  0  0  0
    3.1041   -0.1312    0.6542 H   0  0  0  0  0  0  0  0  0  0  0  0
    3.2125    1.6019    1.0762 H   0  0  0  0  0  0  0  0  0  0  0  0
    2.8781    0.3952    2.3489 H   0  0  0  0  0  0  0  0  0  0  0  0
  1  2  2  3
  1  5  1  0
  1  6  1  0
  2  3  1  0
  2  7  1  0
  3  4  1  0
  3  9  1  0
  4 10  1  0
  4 11  1  0
  4 12  1  0
  8 15  1  0
 13 14  1  0
 13 16  1  0
 13 17  1  0
 13 18  1  0
 14 15  1  0
M  RAD  1   3   2
M  END
>  <reaction>  (5) 
rxn_38

>  <mol_properties>  (5) 
{"1": {"label": "*4", "atom_type": "Cd"}, "2": {"label": "*3", "atom_type": "Cs"}, "7": {"label": "*2", "atom_type": "H0"}, "13": {"label": "*0", "atom_type": "O2s"}, "14": {"label": "*1", "atom_type": "O2s"}}

>  <type>  (5) 
unop_1

>  <geom_source>  (5) 
Heuristics

$$$$

     RDKit          3D

 18 16  0  0  0  0  0  0  0  0999 V2000
   -1.2581   -0.6426   -2.2612 C   0  0  0  0  0  0  0  0  0  0  0  0
   -1.2581   -0.6426   -0.9368 C   0  0  0  0  0  0  0  0  0  0  0  0
   -1.2581    0.5619   -0.0434 C   0  0  0  0  0  3  0  0  0  0  0  0
   -1.2581    1.9076   -0.7511 C   0  0  0  0  0  0  0  0  0  0  0  0
   -1.2581    0.2743   -2.8386 H   0  0  0  0  0  0  0  0  0  0  0  0
   -1.2581   -1.5700   -2.8199 H   0  0  0  0  0  0  0  0  0  0  0  0
   -1.2581   -1.5983   -0.4187 H   0  0  0  0  0  0  0  0  0  0  0  0
   -0.2148    0.4803    0.7524 H   0  0  0  0  0  0  0  0  0  0  0  0
   -2.1275    0.4939    0.6197 H   0  0  0  0  0  0  0  0  0  0  0  0
   -2.1406    2.0226   -1.3835 H   0  0  0  0  0  0  0  0  0  0  0  0
   -0.3757    2.0226   -1.3835 H   0  0  0  0  0  0  0  0  0  0  0  0
   -1.2581    2.7220   -0.0258 H   0  0  0  0  0  0  0  0  0  0  0  0
    2.1763   -1.3249    1.4333 C   0  0  0  0  0  0  0  0  0  0  0  0
    1.6224   -0.3078    0.6347 O   0  0  0  0  0  0  0  0  0  0  0  0
    0.7025    0.4086    1.4521 O   0  0  0  0  0  0  0  0  0  0  0  0
    1.4162   -2.0463    1.7496 H   0  0  0  0  0  0  0  0  0  0  0  0
    2.9077   -1.8182    0.7920 H   0  0  0  0  0  0  0  0  0  0  0  0
    2.6772   -0.9082    2.3106 H   0  0  0  0  0  0  0  0  0  0  0  0
  1  2  2  3
  1  5  1  0
  1  6  1  0
  2  3  1  0
  2  7  1  0
  3  4  1  0
  3  9  1  0
  4 10  1  0
  4 11  1  0
  4 12  1  0
  8 15  1  0
 13 14  1  0
 13 16  1  0
 13 17  1  0
 13 18  1  0
 14 15  1  0
M  RAD  1   3   2
M  END
>  <reaction>  (6) 
rxn_38

>  <mol_properties>  (6) 
{"1": {"label": "*4", "atom_type": "Cd"}, "2": {"label": "*3", "atom_type": "Cs"}, "7": {"label": "*2", "atom_type": "H0"}, "13": {"label": "*0", "atom_type": "O2s"}, "14": {"label": "*1", "atom_type": "O2s"}}

>  <type>  (6) 
unop_2

>  <geom_source>  (6) 
Heuristics

$$$$

     RDKit          3D

 18 16  0  0  0  0  0  0  0  0999 V2000
   -1.1985   -1.4493   -2.4479 C   0  0  0  0  0  0  0  0  0  0  0  0
   -1.1985   -1.4493   -1.1235 C   0  0  0  0  0  0  0  0  0  0  0  0
   -1.1985   -0.2448   -0.2301 C   0  0  0  0  0  3  0  0  0  0  0  0
   -1.1985    1.1010   -0.9378 C   0  0  0  0  0  0  0  0  0  0  0  0
   -1.1985   -0.5324   -3.0253 H   0  0  0  0  0  0  0  0  0  0  0  0
   -1.1985   -2.3766   -3.0066 H   0  0  0  0  0  0  0  0  0  0  0  0
   -1.1985   -2.4050   -0.6053 H   0  0  0  0  0  0  0  0  0  0  0  0
   -0.1552   -0.3264    0.5657 H   0  0  0  0  0  0  0  0  0  0  0  0
   -2.0679   -0.3128    0.4331 H   0  0  0  0  0  0  0  0  0  0  0  0
   -2.0809    1.2160   -1.5702 H   0  0  0  0  0  0  0  0  0  0  0  0
   -0.3160    1.2160   -1.5702 H   0  0  0  0  0  0  0  0  0  0  0  0
   -1.1985    1.9153   -0.2125 H   0  0  0  0  0  0  0  0  0  0  0  0
    2.4550    1.1098    1.4602 C   0  0  0  0  0  0  0  0  0  0  0  0
    1.0546    0.9781    1.4851 O   0  0  0  0  0  0  0  0  0  0  0  0
    0.7621   -0.3981    1.2654 O   0  0  0  0  0  0  0  0  0  0  0  0
    2.8647    0.8594    0.4766 H   0  0  0  0  0  0  0  0  0  0  0  0
    2.6417    2.1617    1.6798 H   0  0  0  0  0  0  0  0  0  0  0  0
    2.9231    0.4850    2.2249 H   0  0  0  0  0  0  0  0  0  0  0  0
  1  2  2  3
  1  5  1  0
  1  6  1  0
  2  3  1  0
  2  7  1  0
  3  4  1  0
  3  9  1  0
  4 10  1  0
  4 11  1  0
  4 12  1  0
  8 15  1  0
 13 14  1  0
 13 16  1  0
 13 17  1  0
 13 18  1  0
 14 15  1  0
M  RAD  1   3   2
M  END
>  <reaction>  (7) 
rxn_38

>  <mol_properties>  (7) 
{"1": {"label": "*4", "atom_type": "Cd"}, "2": {"label": "*3", "atom_type": "Cs"}, "7": {"label": "*2", "atom_type": "H0"}, "13": {"label": "*0", "atom_type": "O2s"}, "14": {"label": "*1", "atom_type": "O2s"}}

>  <type>  (7) 
unop_3

>  <geom_source>  (7) 
Heuristics

$$$$

     RDKit          3D

 18 16  0  0  0  0  0  0  0  0999 V2000
   -0.6664   -0.6872   -2.7389 C   0  0  0  0  0  0  0  0  0  0  0  0
   -0.6664   -0.6872   -1.4146 C   0  0  0  0  0  0  0  0  0  0  0  0
   -0.6664    0.5173   -0.5211 C   0  0  0  0  0  3  0  0  0  0  0  0
   -0.6664    1.8631   -1.2288 C   0  0  0  0  0  0  0  0  0  0  0  0
   -0.6664    0.2297   -3.3164 H   0  0  0  0  0  0  0  0  0  0  0  0
   -0.6664   -1.6145   -3.2976 H   0  0  0  0  0  0  0  0  0  0  0  0
   -0.6664   -1.6429   -0.8964 H   0  0  0  0  0  0  0  0  0  0  0  0
    0.3769    0.4358    0.2746 H   0  0  0  0  0  0  0  0  0  0  0  0
   -1.5358    0.4494    0.1420 H   0  0  0  0  0  0  0  0  0  0  0  0
   -1.5488    1.9781   -1.8613 H   0  0  0  0  0  0  0  0  0  0  0  0
    0.2161    1.9781   -1.8613 H   0  0  0  0  0  0  0  0  0  0  0  0
   -0.6664    2.6775   -0.5035 H   0  0  0  0  0  0  0  0  0  0  0  0
    0.0486   -0.5872    2.6238 C   0  0  0  0  0  0  0  0  0  0  0  0
    1.0318   -0.8588    1.6550 O   0  0  0  0  0  0  0  0  0  0  0  0
    1.2942    0.3640    0.9743 O   0  0  0  0  0  0  0  0  0  0  0  0
   -0.8957   -0.2805    2.1630 H   0  0  0  0  0  0  0  0  0  0  0  0
   -0.0899   -1.5298    3.1548 H   0  0  0  0  0  0  0  0  0  0  0  0
    0.3857    0.1829    3.3221 H   0  0  0  0  0  0  0  0  0  0  0  0
  1  2  2  3
  1  5  1  0
  1  6  1  0
  2  3  1  0
  2  7  1  0
  3  4  1  0
  3  9  1  0
  4 10  1  0
  4 11  1  0
  4 12  1  0
  8 15  1  0
 13 14  1  0
 13 16  1  0
 13 17  1  0
 13 18  1  0
 14 15  1  0
M  RAD  1   3   2
M  END
>  <reaction>  (8) 
rxn_38

>  <mol_properties>  (8) 
{"1": {"label": "*4", "atom_type": "Cd"}, "2": {"label": "*3", "atom_type": "Cs"}, "7": {"label": "*2", "atom_type": "H0"}, "13": {"label": "*0", "atom_type": "O2s"}, "14": {"label": "*1", "atom_type": "O2s"}}

>  <type>  (8) 
unop_4

>  <geom_source>  (8) 
Heuristics

$$$$

     RDKit          3D

 18 16  0  0  0  0  0  0  0  0999 V2000
   -1.0172   -1.5025   -2.5631 C   0  0  0  0  0  0  0  0  0  0  0  0
   -1.0172   -1.5025   -1.2387 C   0  0  0  0  0  0  0  0  0  0  0  0
   -1.0172   -0.2980   -0.3453 C   0  0  0  0  0  3  0  0  0  0  0  0
   -1.0172    1.0477   -1.0530 C   0  0  0  0  0  0  0  0  0  0  0  0
   -1.0172   -0.5856   -3.1405 H   0  0  0  0  0  0  0  0  0  0  0  0
   -1.0172   -2.4298   -3.1218 H   0  0  0  0  0  0  0  0  0  0  0  0
   -1.0172   -2.4582   -0.7206 H   0  0  0  0  0  0  0  0  0  0  0  0
    0.0260   -0.3796    0.4505 H   0  0  0  0  0  0  0  0  0  0  0  0
   -1.8866   -0.3660    0.3178 H   0  0  0  0  0  0  0  0  0  0  0  0
   -1.8997    1.1628   -1.6854 H   0  0  0  0  0  0  0  0  0  0  0  0
   -0.1348    1.1628   -1.6854 H   0  0  0  0  0  0  0  0  0  0  0  0
   -1.0172    1.8621   -0.3277 H   0  0  0  0  0  0  0  0  0  0  0  0
    1.8716    1.5841    1.5661 C   0  0  0  0  0  0  0  0  0  0  0  0
    0.8031    0.7395    1.9183 O   0  0  0  0  0  0  0  0  0  0  0  0
    0.9434   -0.4513    1.1502 O   0  0  0  0  0  0  0  0  0  0  0  0
    1.8163    1.8852    0.5152 H   0  0  0  0  0  0  0  0  0  0  0  0
    1.7595    2.4599    2.2063 H   0  0  0  0  0  0  0  0  0  0  0  0
    2.8339    1.1048    1.7626 H   0  0  0  0  0  0  0  0  0  0  0  0
  1  2  2  3
  1  5  1  0
  1  6  1  0
  2  3  1  0
  2  7  1  0
  3  4  1  0
  3  9  1  0
  4 10  1  0
  4 11  1  0
  4 12  1  0
  8 15  1  0
 13 14  1  0
 13 16  1  0
 13 17  1  0
 13 18  1  0
 14 15  1  0
M  RAD  1   3   2
M  END
>  <reaction>  (9) 
rxn_38

>  <mol_properties>  (9) 
{"1": {"label": "*4", "atom_type": "Cd"}, "2": {"label": "*3", "atom_type": "Cs"}, "7": {"label": "*2", "atom_type": "H0"}, "13": {"label": "*0", "atom_type": "O2s"}, "14": {"label": "*1", "atom_type": "O2s"}}

>  <type>  (9) 
unop_5

>  <geom_source>  (9) 
Heuristics

$$$$

     RDKit          3D

 18 16  0  0  0  0  0  0  0  0999 V2000
   -0.5970   -0.9341   -2.8200 C   0  0  0  0  0  0  0  0  0  0  0  0
   -0.5970   -0.9341   -1.4956 C   0  0  0  0  0  0  0  0  0  0  0  0
   -0.5970    0.2704   -0.6022 C   0  0  0  0  0  3  0  0  0  0  0  0
   -0.5969    1.6161   -1.3099 C   0  0  0  0  0  0  0  0  0  0  0  0
   -0.5970   -0.0172   -3.3974 H   0  0  0  0  0  0  0  0  0  0  0  0
   -0.5970   -1.8615   -3.3787 H   0  0  0  0  0  0  0  0  0  0  0  0
   -0.5970   -1.8899   -0.9774 H   0  0  0  0  0  0  0  0  0  0  0  0
    0.4463    0.1888    0.1936 H   0  0  0  0  0  0  0  0  0  0  0  0
   -1.4663    0.2024    0.0610 H   0  0  0  0  0  0  0  0  0  0  0  0
   -1.4794    1.7311   -1.9423 H   0  0  0  0  0  0  0  0  0  0  0  0
    0.2855    1.7311   -1.9423 H   0  0  0  0  0  0  0  0  0  0  0  0
   -0.5969    2.4305   -0.5846 H   0  0  0  0  0  0  0  0  0  0  0  0
   -0.0601    0.2838    2.6603 C   0  0  0  0  0  0  0  0  0  0  0  0
    0.8172   -0.5948    1.9988 O   0  0  0  0  0  0  0  0  0  0  0  0
    1.3637    0.1171    0.8933 O   0  0  0  0  0  0  0  0  0  0  0  0
   -0.9054    0.5628    2.0233 H   0  0  0  0  0  0  0  0  0  0  0  0
   -0.4195   -0.2764    3.5243 H   0  0  0  0  0  0  0  0  0  0  0  0
    0.4619    1.1834    2.9957 H   0  0  0  0  0  0  0  0  0  0  0  0
  1  2  2  3
  1  5  1  0
  1  6  1  0
  2  3  1  0
  2  7  1  0
  3  4  1  0
  3  9  1  0
  4 10  1  0
  4 11  1  0
  4 12  1  0
  8 15  1  0
 13 14  1  0
 13 16  1  0
 13 17  1  0
 13 18  1  0
 14 15  1  0
M  RAD  1   3   2
M  END
>  <reaction>  (10) 
rxn_38

>  <mol_properties>  (10) 
{"1": {"label": "*4", "atom_type": "Cd"}, "2": {"label": "*3", "atom_type": "Cs"}, "7": {"label": "*2", "atom_type": "H0"}, "13": {"label": "*0", "atom_type": "O2s"}, "14": {"label": "*1", "atom_type": "O2s"}}

>  <type>  (10) 
unop_6

>  <geom_source>  (10) 
Heuristics

$$$$

     RDKit          3D

 18 16  0  0  0  0  0  0  0  0999 V2000
   -0.6342   -1.2089   -2.8076 C   0  0  0  0  0  0  0  0  0  0  0  0
   -0.6342   -1.2089   -1.4833 C   0  0  0  0  0  0  0  0  0  0  0  0
   -0.6342   -0.0044   -0.5898 C   0  0  0  0  0  3  0  0  0  0  0  0
   -0.6342    1.3413   -1.2975 C   0  0  0  0  0  0  0  0  0  0  0  0
   -0.6342   -0.2920   -3.3851 H   0  0  0  0  0  0  0  0  0  0  0  0
   -0.6342   -2.1363   -3.3663 H   0  0  0  0  0  0  0  0  0  0  0  0
   -0.6342   -2.1647   -0.9651 H   0  0  0  0  0  0  0  0  0  0  0  0
    0.4091   -0.0860    0.2059 H   0  0  0  0  0  0  0  0  0  0  0  0
   -1.5036   -0.0724    0.0733 H   0  0  0  0  0  0  0  0  0  0  0  0
   -1.5167    1.4563   -1.9299 H   0  0  0  0  0  0  0  0  0  0  0  0
    0.2482    1.4563   -1.9299 H   0  0  0  0  0  0  0  0  0  0  0  0
   -0.6342    2.1557   -0.5722 H   0  0  0  0  0  0  0  0  0  0  0  0
    0.2218    1.1284    2.4233 C   0  0  0  0  0  0  0  0  0  0  0  0
    0.7017   -0.1725    2.1852 O   0  0  0  0  0  0  0  0  0  0  0  0
    1.3264   -0.1577    0.9056 O   0  0  0  0  0  0  0  0  0  0  0  0
   -0.5536    1.4087    1.7034 H   0  0  0  0  0  0  0  0  0  0  0  0
   -0.2038    1.0910    3.4268 H   0  0  0  0  0  0  0  0  0  0  0  0
    1.0338    1.8592    2.3945 H   0  0  0  0  0  0  0  0  0  0  0  0
  1  2  2  3
  1  5  1  0
  1  6  1  0
  2  3  1  0
  2  7  1  0
  3  4  1  0
  3  9  1  0
  4 10  1  0
  4 11  1  0
  4 12  1  0
  8 15  1  0
 13 14  1  0
 13 16  1  0
 13 17  1  0
 13 18  1  0
 14 15  1  0
M  RAD  1   3   2
M  END
>  <reaction>  (11) 
rxn_38

>  <mol_properties>  (11) 
{"1": {"label": "*4", "atom_type": "Cd"}, "2": {"label": "*3", "atom_type": "Cs"}, "7": {"label": "*2", "atom_type": "H0"}, "13": {"label": "*0", "atom_type": "O2s"}, "14": {"label": "*1", "atom_type": "O2s"}}

>  <type>  (11) 
unop_7

>  <geom_source>  (11) 
Heuristics

$$$$

     RDKit          3D

 18 16  0  0  0  0  0  0  0  0999 V2000
   -1.3857   -1.1403   -2.2152 C   0  0  0  0  0  0  0  0  0  0  0  0
   -1.3857   -1.1403   -0.8909 C   0  0  0  0  0  0  0  0  0  0  0  0
   -1.3857    0.0642    0.0026 C   0  0  0  0  0  3  0  0  0  0  0  0
   -1.3857    1.4099   -0.7051 C   0  0  0  0  0  0  0  0  0  0  0  0
   -1.3857   -0.2234   -2.7927 H   0  0  0  0  0  0  0  0  0  0  0  0
   -1.3857   -2.0676   -2.7739 H   0  0  0  0  0  0  0  0  0  0  0  0
   -1.3857   -2.0960   -0.3727 H   0  0  0  0  0  0  0  0  0  0  0  0
   -0.3424   -0.0174    0.7983 H   0  0  0  0  0  0  0  0  0  0  0  0
   -2.2551   -0.0038    0.6657 H   0  0  0  0  0  0  0  0  0  0  0  0
   -2.2681    1.5250   -1.3376 H   0  0  0  0  0  0  0  0  0  0  0  0
   -0.5032    1.5250   -1.3376 H   0  0  0  0  0  0  0  0  0  0  0  0
   -1.3857    2.2243    0.0202 H   0  0  0  0  0  0  0  0  0  0  0  0
    2.8141    0.0776    1.1299 C   0  0  0  0  0  0  0  0  0  0  0  0
    1.5653    0.5880    0.7311 O   0  0  0  0  0  0  0  0  0  0  0  0
    0.5749   -0.0891    1.4980 O   0  0  0  0  0  0  0  0  0  0  0  0
    2.9092   -0.9858    0.8887 H   0  0  0  0  0  0  0  0  0  0  0  0
    3.5464    0.6511    0.5604 H   0  0  0  0  0  0  0  0  0  0  0  0
    2.9784    0.2295    2.1996 H   0  0  0  0  0  0  0  0  0  0  0  0
  1  2  2  3
  1  5  1  0
  1  6  1  0
  2  3  1  0
  2  7  1  0
  3  4  1  0
  3  9  1  0
  4 10  1  0
  4 11  1  0
  4 12  1  0
  8 15  1  0
 13 14  1  0
 13 16  1  0
 13 17  1  0
 13 18  1  0
 14 15  1  0
M  RAD  1   3   2
M  END
>  <reaction>  (12) 
rxn_38

>  <mol_properties>  (12) 
{"1": {"label": "*4", "atom_type": "Cd"}, "2": {"label": "*3", "atom_type": "Cs"}, "7": {"label": "*2", "atom_type": "H0"}, "13": {"label": "*0", "atom_type": "O2s"}, "14": {"label": "*1", "atom_type": "O2s"}}

>  <type>  (12) 
unop_8

>  <geom_source>  (12) 
Heuristics

$$$$

     RDKit          3D

 18 16  0  0  0  0  0  0  0  0999 V2000
   -0.8274   -0.5276   -2.5931 C   0  0  0  0  0  0  0  0  0  0  0  0
   -0.8274   -0.5276   -1.2688 C   0  0  0  0  0  0  0  0  0  0  0  0
   -0.8274    0.6769   -0.3753 C   0  0  0  0  0  3  0  0  0  0  0  0
   -0.8274    2.0226   -1.0830 C   0  0  0  0  0  0  0  0  0  0  0  0
   -0.8274    0.3893   -3.1706 H   0  0  0  0  0  0  0  0  0  0  0  0
   -0.8274   -1.4549   -3.1518 H   0  0  0  0  0  0  0  0  0  0  0  0
   -0.8274   -1.4833   -0.7506 H   0  0  0  0  0  0  0  0  0  0  0  0
    0.2159    0.5953    0.4204 H   0  0  0  0  0  0  0  0  0  0  0  0
   -1.6968    0.6089    0.2878 H   0  0  0  0  0  0  0  0  0  0  0  0
   -1.7098    2.1377   -1.7155 H   0  0  0  0  0  0  0  0  0  0  0  0
    0.0551    2.1377   -1.7155 H   0  0  0  0  0  0  0  0  0  0  0  0
   -0.8274    2.8370   -0.3577 H   0  0  0  0  0  0  0  0  0  0  0  0
    0.5381   -1.2877    2.3620 C   0  0  0  0  0  0  0  0  0  0  0  0
    1.2847   -0.8872    1.2390 O   0  0  0  0  0  0  0  0  0  0  0  0
    1.1332    0.5236    1.1201 O   0  0  0  0  0  0  0  0  0  0  0  0
   -0.5313   -1.1019    2.2207 H   0  0  0  0  0  0  0  0  0  0  0  0
    0.7169   -2.3600    2.4500 H   0  0  0  0  0  0  0  0  0  0  0  0
    0.8843   -0.7811    3.2663 H   0  0  0  0  0  0  0  0  0  0  0  0
  1  2  2  3
  1  5  1  0
  1  6  1  0
  2  3  1  0
  2  7  1  0
  3  4  1  0
  3  9  1  0
  4 10  1  0
  4 11  1  0
  4 12  1  0
  8 15  1  0
 13 14  1  0
 13 16  1  0
 13 17  1  0
 13 18  1  0
 14 15  1  0
M  RAD  1   3   2
M  END
>  <reaction>  (13) 
rxn_38

>  <mol_properties>  (13) 
{"1": {"label": "*4", "atom_type": "Cd"}, "2": {"label": "*3", "atom_type": "Cs"}, "7": {"label": "*2", "atom_type": "H0"}, "13": {"label": "*0", "atom_type": "O2s"}, "14": {"label": "*1", "atom_type": "O2s"}}

>  <type>  (13) 
unop_9

>  <geom_source>  (13) 
Heuristics

$$$$

     RDKit          3D

 18 16  0  0  0  0  0  0  0  0999 V2000
   -1.3742   -0.8863   -2.1863 C   0  0  0  0  0  0  0  0  0  0  0  0
   -1.3742   -0.8863   -0.8620 C   0  0  0  0  0  0  0  0  0  0  0  0
   -1.3742    0.3182    0.0315 C   0  0  0  0  0  3  0  0  0  0  0  0
   -1.3742    1.6639   -0.6762 C   0  0  0  0  0  0  0  0  0  0  0  0
   -1.3742    0.0306   -2.7637 H   0  0  0  0  0  0  0  0  0  0  0  0
   -1.3742   -1.8137   -2.7450 H   0  0  0  0  0  0  0  0  0  0  0  0
   -1.3742   -1.8421   -0.3438 H   0  0  0  0  0  0  0  0  0  0  0  0
   -0.3309    0.2366    0.8273 H   0  0  0  0  0  0  0  0  0  0  0  0
   -2.2436    0.2502    0.6946 H   0  0  0  0  0  0  0  0  0  0  0  0
   -2.2566    1.7789   -1.3086 H   0  0  0  0  0  0  0  0  0  0  0  0
   -0.4917    1.7789   -1.3086 H   0  0  0  0  0  0  0  0  0  0  0  0
   -1.3742    2.4783    0.0491 H   0  0  0  0  0  0  0  0  0  0  0  0
    2.6744   -0.6517    1.1386 C   0  0  0  0  0  0  0  0  0  0  0  0
    1.6550    0.1449    0.5860 O   0  0  0  0  0  0  0  0  0  0  0  0
    0.5864    0.1649    1.5270 O   0  0  0  0  0  0  0  0  0  0  0  0
    2.3508   -1.6901    1.2618 H   0  0  0  0  0  0  0  0  0  0  0  0
    3.4905   -0.6036    0.4166 H   0  0  0  0  0  0  0  0  0  0  0  0
    3.0088   -0.2530    2.0996 H   0  0  0  0  0  0  0  0  0  0  0  0
  1  2  2  3
  1  5  1  0
  1  6  1  0
  2  3  1  0
  2  7  1  0
  3  4  1  0
  3  9  1  0
  4 10  1  0
  4 11  1  0
  4 12  1  0
  8 15  1  0
 13 14  1  0
 13 16  1  0
 13 17  1  0
 13 18  1  0
 14 15  1  0
M  RAD  1   3   2
M  END
>  <reaction>  (14) 
rxn_38

>  <mol_properties>  (14) 
{"1": {"label": "*4", "atom_type": "Cd"}, "2": {"label": "*3", "atom_type": "Cs"}, "7": {"label": "*2", "atom_type": "H0"}, "13": {"label": "*0", "atom_type": "O2s"}, "14": {"label": "*1", "atom_type": "O2s"}}

>  <type>  (14) 
unop_10

>  <geom_source>  (14) 
Heuristics

$$$$

     RDKit          3D

 18 16  0  0  0  0  0  0  0  0999 V2000
   -0.7866   -1.4299   -2.7016 C   0  0  0  0  0  0  0  0  0  0  0  0
   -0.7866   -1.4299   -1.3772 C   0  0  0  0  0  0  0  0  0  0  0  0
   -0.7866   -0.2254   -0.4838 C   0  0  0  0  0  3  0  0  0  0  0  0
   -0.7866    1.1204   -1.1915 C   0  0  0  0  0  0  0  0  0  0  0  0
   -0.7866   -0.5130   -3.2790 H   0  0  0  0  0  0  0  0  0  0  0  0
   -0.7866   -2.3572   -3.2603 H   0  0  0  0  0  0  0  0  0  0  0  0
   -0.7866   -2.3856   -0.8590 H   0  0  0  0  0  0  0  0  0  0  0  0
    0.2566   -0.3070    0.3120 H   0  0  0  0  0  0  0  0  0  0  0  0
   -1.6560   -0.2934    0.1794 H   0  0  0  0  0  0  0  0  0  0  0  0
   -1.6691    1.2354   -1.8239 H   0  0  0  0  0  0  0  0  0  0  0  0
    0.0958    1.2354   -1.8239 H   0  0  0  0  0  0  0  0  0  0  0  0
   -0.7866    1.9347   -0.4662 H   0  0  0  0  0  0  0  0  0  0  0  0
    0.9210    1.6758    1.9563 C   0  0  0  0  0  0  0  0  0  0  0  0
    0.6980    0.3030    2.1677 O   0  0  0  0  0  0  0  0  0  0  0  0
    1.1740   -0.3787    1.0117 O   0  0  0  0  0  0  0  0  0  0  0  0
    0.3357    2.0527    1.1117 H   0  0  0  0  0  0  0  0  0  0  0  0
    0.5914    2.1586    2.8771 H   0  0  0  0  0  0  0  0  0  0  0  0
    1.9815    1.8819    1.7916 H   0  0  0  0  0  0  0  0  0  0  0  0
  1  2  2  3
  1  5  1  0
  1  6  1  0
  2  3  1  0
  2  7  1  0
  3  4  1  0
  3  9  1  0
  4 10  1  0
  4 11  1  0
  4 12  1  0
  8 15  1  0
 13 14  1  0
 13 16  1  0
 13 17  1  0
 13 18  1  0
 14 15  1  0
M  RAD  1   3   2
M  END
>  <reaction>  (15) 
rxn_38

>  <mol_properties>  (15) 
{"1": {"label": "*4", "atom_type": "Cd"}, "2": {"label": "*3", "atom_type": "Cs"}, "7": {"label": "*2", "atom_type": "H0"}, "13": {"label": "*0", "atom_type": "O2s"}, "14": {"label": "*1", "atom_type": "O2s"}}

>  <type>  (15) 
unop_11

>  <geom_source>  (15) 
Heuristics

$$$$

     RDKit          3D

 18 16  0  0  0  0  0  0  0  0999 V2000
   -1.0501   -0.5045   -2.4177 C   0  0  0  0  0  0  0  0  0  0  0  0
   -1.0501   -0.5045   -1.0934 C   0  0  0  0  0  0  0  0  0  0  0  0
   -1.0501    0.7000   -0.1999 C   0  0  0  0  0  3  0  0  0  0  0  0
   -1.0501    2.0458   -0.9076 C   0  0  0  0  0  0  0  0  0  0  0  0
   -1.0501    0.4125   -2.9952 H   0  0  0  0  0  0  0  0  0  0  0  0
   -1.0501   -1.4318   -2.9764 H   0  0  0  0  0  0  0  0  0  0  0  0
   -1.0501   -1.4602   -0.5752 H   0  0  0  0  0  0  0  0  0  0  0  0
   -0.0068    0.6185    0.5958 H   0  0  0  0  0  0  0  0  0  0  0  0
   -1.9195    0.6321    0.4632 H   0  0  0  0  0  0  0  0  0  0  0  0
   -1.9325    2.1608   -1.5400 H   0  0  0  0  0  0  0  0  0  0  0  0
   -0.1676    2.1608   -1.5400 H   0  0  0  0  0  0  0  0  0  0  0  0
   -1.0501    2.8602   -0.1823 H   0  0  0  0  0  0  0  0  0  0  0  0
    1.3506   -1.5956    1.9232 C   0  0  0  0  0  0  0  0  0  0  0  0
    1.4948   -0.6787    0.8660 O   0  0  0  0  0  0  0  0  0  0  0  0
    0.9105    0.5468    1.2955 O   0  0  0  0  0  0  0  0  0  0  0  0
    0.2970   -1.8100    2.1283 H   0  0  0  0  0  0  0  0  0  0  0  0
    1.8503   -2.5018    1.5787 H   0  0  0  0  0  0  0  0  0  0  0  0
    1.8362   -1.2296    2.8312 H   0  0  0  0  0  0  0  0  0  0  0  0
  1  2  2  3
  1  5  1  0
  1  6  1  0
  2  3  1  0
  2  7  1  0
  3  4  1  0
  3  9  1  0
  4 10  1  0
  4 11  1  0
  4 12  1  0
  8 15  1  0
 13 14  1  0
 13 16  1  0
 13 17  1  0
 13 18  1  0
 14 15  1  0
M  RAD  1   3   2
M  END
>  <reaction>  (16) 
rxn_38

>  <mol_properties>  (16) 
{"1": {"label": "*4", "atom_type": "Cd"}, "2": {"label": "*3", "atom_type": "Cs"}, "7": {"label": "*2", "atom_type": "H0"}, "13": {"label": "*0", "atom_type": "O2s"}, "14": {"label": "*1", "atom_type": "O2s"}}

>  <type>  (16) 
unop_12

>  <geom_source>  (16) 
Heuristics

$$$$

     RDKit          3D

 18 16  0  0  0  0  0  0  0  0999 V2000
    1.7586    0.4642    1.3485 O   0  0  0  0  0  0  0  0  0  0  0  0
    1.0213   -0.6086    1.1327 O   0  0  0  0  0  1  0  0  0  0  0  0
   -0.5619    0.2783   -1.7364 C   0  0  0  0  0  0  0  0  0  0  0  0
    2.9566    0.2515    0.6530 C   0  0  0  0  0  0  0  0  0  0  0  0
   -0.8052   -0.5959   -0.5145 C   0  0  0  0  0  0  0  0  0  0  0  0
   -2.1639   -0.3450    0.0615 C   0  0  0  0  0  0  0  0  0  0  0  0
   -2.2981    0.1746    1.2819 C   0  0  0  0  0  0  0  0  0  0  0  0
    0.4580    0.0844   -2.1287 H   0  0  0  0  0  0  0  0  0  0  0  0
   -1.3030    0.0477   -2.5314 H   0  0  0  0  0  0  0  0  0  0  0  0
   -0.6377    1.3511   -1.4589 H   0  0  0  0  0  0  0  0  0  0  0  0
    3.6209    1.1270    0.8051 H   0  0  0  0  0  0  0  0  0  0  0  0
    3.4779   -0.6525    1.0382 H   0  0  0  0  0  0  0  0  0  0  0  0
    2.7634    0.1463   -0.4374 H   0  0  0  0  0  0  0  0  0  0  0  0
   -0.7076   -1.6682   -0.7870 H   0  0  0  0  0  0  0  0  0  0  0  0
   -3.0476   -0.5815   -0.5240 H   0  0  0  0  0  0  0  0  0  0  0  0
   -1.4271    0.4221    1.8816 H   0  0  0  0  0  0  0  0  0  0  0  0
   -3.2874    0.3565    1.6889 H   0  0  0  0  0  0  0  0  0  0  0  0
    0.1827   -0.2518    0.2271 H   0  0  0  0  0  0  0  0  0  0  0  0
  1  4  1  0
  1  2  1  0
  3  5  1  0
  3  8  1  0
  3  9  1  0
  3 10  1  0
  4 11  1  0
  4 12  1  0
  4 13  1  0
  5  6  1  0
  5 14  1  0
  5 18  1  0
  6  7  2  3
  6 15  1  0
  7 16  1  0
  7 17  1  0
M  RAD  1   2   2
M  END
>  <reaction>  (17) 
rxn_38

>  <mol_properties>  (17) 
{"1": {"label": "*4", "atom_type": "Cd"}, "2": {"label": "*3", "atom_type": "Cs"}, "7": {"label": "*2", "atom_type": "H0"}, "13": {"label": "*0", "atom_type": "O2s"}, "14": {"label": "*1", "atom_type": "O2s"}}

>  <type>  (17) 
unop_13

>  <geom_source>  (17) 
AutoTST

$$$$

     RDKit          3D

 18 16  0  0  0  0  0  0  0  0999 V2000
   -1.2581   -0.6426   -2.2612 C   0  0  0  0  0  0  0  0  0  0  0  0
   -1.2581   -0.6426   -0.9368 C   0  0  0  0  0  0  0  0  0  0  0  0
   -1.2581    0.5619   -0.0434 C   0  0  0  0  0  3  0  0  0  0  0  0
   -1.2581    1.9076   -0.7511 C   0  0  0  0  0  0  0  0  0  0  0  0
   -1.2581    0.2743   -2.8386 H   0  0  0  0  0  0  0  0  0  0  0  0
   -1.2581   -1.5700   -2.8199 H   0  0  0  0  0  0  0  0  0  0  0  0
   -1.2581   -1.5983   -0.4187 H   0  0  0  0  0  0  0  0  0  0  0  0
   -0.2148    0.4803    0.7524 H   0  0  0  0  0  0  0  0  0  0  0  0
   -2.1275    0.4939    0.6197 H   0  0  0  0  0  0  0  0  0  0  0  0
   -2.1406    2.0227   -1.3835 H   0  0  0  0  0  0  0  0  0  0  0  0
   -0.3757    2.0227   -1.3835 H   0  0  0  0  0  0  0  0  0  0  0  0
   -1.2581    2.7220   -0.0258 H   0  0  0  0  0  0  0  0  0  0  0  0
    2.1763   -1.3249    1.4333 C   0  0  0  0  0  0  0  0  0  0  0  0
    1.6224   -0.3078    0.6347 O   0  0  0  0  0  0  0  0  0  0  0  0
    0.7025    0.4086    1.4521 O   0  0  0  0  0  0  0  0  0  0  0  0
    1.4162   -2.0463    1.7496 H   0  0  0  0  0  0  0  0  0  0  0  0
    2.9077   -1.8182    0.7920 H   0  0  0  0  0  0  0  0  0  0  0  0
    2.6772   -0.9082    2.3106 H   0  0  0  0  0  0  0  0  0  0  0  0
  1  2  2  3
  1  5  1  0
  1  6  1  0
  2  3  1  0
  2  7  1  0
  3  4  1  0
  3  9  1  0
  4 10  1  0
  4 11  1  0
  4 12  1  0
  8 15  1  0
 13 14  1  0
 13 16  1  0
 13 17  1  0
 13 18  1  0
 14 15  1  0
M  RAD  1   3   2
M  END
>  <reaction>  (18) 
rxn_38

>  <mol_properties>  (18) 
{"1": {"label": "*4", "atom_type": "Cd"}, "2": {"label": "*3", "atom_type": "Cs"}, "7": {"label": "*2", "atom_type": "H0"}, "13": {"label": "*0", "atom_type": "O2s"}, "14": {"label": "*1", "atom_type": "O2s"}}

>  <type>  (18) 
unop_14

>  <geom_source>  (18) 
gaussian_log

$$$$
