
     RDKit          3D

  9  8  0  0  0  0  0  0  0  0999 V2000
    1.1303   -0.2933   -0.7510 C   0  0  0  0  0  0  0  0  0  0  0  0
    0.2866    0.4560   -0.0588 C   0  0  0  0  0  0  0  0  0  0  0  0
   -0.9719   -0.0331    0.5823 C   0  0  0  0  0  0  0  0  0  0  0  0
    2.0274    0.1230   -1.1916 H   0  0  0  0  0  0  0  0  0  0  0  0
    0.9532   -1.3530   -0.9023 H   0  0  0  0  0  0  0  0  0  0  0  0
    0.5065    1.5132    0.0659 H   0  0  0  0  0  0  0  0  0  0  0  0
   -0.9526    0.1426    1.6610 H   0  0  0  0  0  0  0  0  0  0  0  0
   -1.1182   -1.1002    0.4106 H   0  0  0  0  0  0  0  0  0  0  0  0
   -1.8412    0.5010    0.1901 H   0  0  0  0  0  0  0  0  0  0  0  0
  1  2  2  3
  1  4  1  0
  1  5  1  0
  2  3  1  0
  2  6  1  0
  3  7  1  0
  3  8  1  0
  3  9  1  0
M  END
>  <reaction>  (1) 
rxn_1036

>  <mol_properties>  (1) 
{"2": {"label": "donator", "atom_type": "Cs"}, "6": {"label": "d_hydrogen", "atom_type": "H0"}}

>  <type>  (1) 
r1h

$$$$

     RDKit          3D

  4  3  0  0  0  0  0  0  0  0999 V2000
   -0.7528   -0.8706   -0.3839 S   0  0  0  0  0  0  0  0  0  0  0  0
    0.7502   -0.2564   -0.0649 C   0  0  0  0  0  3  0  0  0  0  0  0
    1.5655    0.9691    0.4633 S   0  0  0  0  0  0  0  0  0  0  0  0
   -1.5629    0.1579   -0.0146 H   0  0  0  0  0  0  0  0  0  0  0  0
  1  2  1  0
  1  4  1  0
  2  3  2  0
M  RAD  1   2   2
M  END
>  <reaction>  (2) 
rxn_1036

>  <mol_properties>  (2) 
{"1": {"label": "acceptor", "atom_type": "CS"}}

>  <type>  (2) 
r2

$$$$

     RDKit          3D

  5  4  0  0  0  0  0  0  0  0999 V2000
    1.2280   -0.4626    0.1225 S   0  0  0  0  0  0  0  0  0  0  0  0
   -0.4732   -0.2566   -0.0746 C   0  0  0  0  0  0  0  0  0  0  0  0
   -1.3314    1.1074   -0.0947 S   0  0  0  0  0  0  0  0  0  0  0  0
    1.5289    0.8405    0.2416 H   0  0  0  0  0  0  0  0  0  0  0  0
   -0.9523   -1.2286   -0.1949 H   0  0  0  0  0  0  0  0  0  0  0  0
  1  2  1  0
  1  4  1  0
  2  3  2  0
  2  5  1  0
M  END
>  <reaction>  (3) 
rxn_1036

>  <mol_properties>  (3) 
{"1": {"label": "acceptor", "atom_type": "CS"}, "4": {"label": "a_hydrogen", "atom_type": "H0"}}

>  <type>  (3) 
r2h

$$$$

     RDKit          3D

 13 11  0  0  0  0  0  0  0  0999 V2000
   -0.1885    1.1571    1.8540 S   0  0  0  0  0  0  0  0  0  0  0  0
   -0.3456    0.0656    0.5589 C   0  0  0  0  0  3  0  0  0  0  0  0
   -1.5557   -0.7729   -0.0417 S   0  0  0  0  0  0  0  0  0  0  0  0
   -1.4591    1.1488    2.3045 H   0  0  0  0  0  0  0  0  0  0  0  0
    1.1349   -0.8655   -3.0242 C   0  0  0  0  0  0  0  0  0  0  0  0
    1.6321   -1.1533   -1.8145 C   0  0  0  0  0  0  0  0  0  0  0  0
    1.9829   -0.1678   -0.8141 C   0  0  0  0  0  0  0  0  0  0  0  0
    0.8464   -1.6453   -3.7163 H   0  0  0  0  0  0  0  0  0  0  0  0
    1.0073    0.1605   -3.3510 H   0  0  0  0  0  0  0  0  0  0  0  0
    1.7293   -2.1966   -1.5294 H   0  0  0  0  0  0  0  0  0  0  0  0
    0.8787   -0.0415   -0.0768 H   0  0  0  0  0  0  0  0  0  0  0  0
    2.1301    0.8473   -1.1780 H   0  0  0  0  0  0  0  0  0  0  0  0
    2.7203   -0.4688   -0.0741 H   0  0  0  0  0  0  0  0  0  0  0  0
  1  2  1  0
  1  4  1  0
  2  3  2  0
  5  6  2  3
  5  8  1  0
  5  9  1  0
  6  7  1  0
  6 10  1  0
  7 11  1  0
  7 12  1  0
  7 13  1  0
M  RAD  1   2   2
M  END
>  <reaction>  (4) 
rxn_1036

>  <mol_properties>  (4) 
{"0": {"label": "*4", "atom_type": "S2s"}, "1": {"label": "*3", "atom_type": "CS"}, "5": {"label": "*0", "atom_type": "Cd"}, "6": {"label": "*1", "atom_type": "Cs"}, "10": {"label": "*2", "atom_type": "H0"}}

>  <type>  (4) 
ts

$$$$

     RDKit          3D

 13 11  0  0  0  0  0  0  0  0999 V2000
   -0.0486    0.0851    2.2795 S   0  0  0  0  0  0  0  0  0  0  0  0
   -0.5452    0.0661    0.6277 C   0  0  0  0  0  0  0  0  0  0  0  0
   -1.7600    0.8605   -0.0726 S   0  0  0  0  0  0  0  0  0  0  0  0
   -0.9859    0.9432    2.7129 H   0  0  0  0  0  0  0  0  0  0  0  0
    1.5587   -1.1972   -3.1175 C   0  0  0  0  0  0  0  0  0  0  0  0
    1.5587   -1.1972   -1.7938 C   0  0  0  0  0  0  0  0  0  0  0  0
    1.5587    0.0250   -0.9333 C   0  0  0  0  0  3  0  0  0  0  0  0
    1.5587   -2.1199   -3.6840 H   0  0  0  0  0  0  0  0  0  0  0  0
    1.5587   -0.2716   -3.6835 H   0  0  0  0  0  0  0  0  0  0  0  0
    1.5587   -2.1498   -1.2703 H   0  0  0  0  0  0  0  0  0  0  0  0
    0.5055    0.0456   -0.1518 H   0  0  0  0  0  0  0  0  0  0  0  0
    1.5587    0.9355   -1.5339 H   0  0  0  0  0  0  0  0  0  0  0  0
    2.4364    0.0421   -0.2820 H   0  0  0  0  0  0  0  0  0  0  0  0
  1  2  1  0
  1  4  1  0
  2  3  2  0
  2 11  1  0
  5  6  2  3
  5  8  1  0
  5  9  1  0
  6  7  1  0
  6 10  1  0
  7 12  1  0
  7 13  1  0
M  RAD  1   7   2
M  END
>  <reaction>  (5) 
rxn_1036

>  <mol_properties>  (5) 
{"0": {"label": "*4", "atom_type": "S2s"}, "1": {"label": "*3", "atom_type": "CS"}, "5": {"label": "*0", "atom_type": "Cd"}, "6": {"label": "*1", "atom_type": "Cs"}, "10": {"label": "*2", "atom_type": "H0"}}

>  <type>  (5) 
unop_1

>  <geom_source>  (5) 
Heuristics

$$$$

     RDKit          3D

 13 11  0  0  0  0  0  0  0  0999 V2000
   -0.9840   -1.2448    0.9571 S   0  0  0  0  0  0  0  0  0  0  0  0
   -0.4992    0.3682    0.5851 C   0  0  0  0  0  0  0  0  0  0  0  0
   -0.8787    1.7389    1.3432 S   0  0  0  0  0  0  0  0  0  0  0  0
   -1.7332   -0.9380    2.0283 H   0  0  0  0  0  0  0  0  0  0  0  0
    1.6047   -0.8950   -3.1601 C   0  0  0  0  0  0  0  0  0  0  0  0
    1.6047   -0.8950   -1.8364 C   0  0  0  0  0  0  0  0  0  0  0  0
    1.6047    0.3272   -0.9758 C   0  0  0  0  0  3  0  0  0  0  0  0
    1.6047   -1.8177   -3.7266 H   0  0  0  0  0  0  0  0  0  0  0  0
    1.6047    0.0306   -3.7261 H   0  0  0  0  0  0  0  0  0  0  0  0
    1.6047   -1.8476   -1.3128 H   0  0  0  0  0  0  0  0  0  0  0  0
    0.5514    0.3477   -0.1944 H   0  0  0  0  0  0  0  0  0  0  0  0
    1.6047    1.2377   -1.5764 H   0  0  0  0  0  0  0  0  0  0  0  0
    2.4824    0.3443   -0.3246 H   0  0  0  0  0  0  0  0  0  0  0  0
  1  2  1  0
  1  4  1  0
  2  3  2  0
  2 11  1  0
  5  6  2  3
  5  8  1  0
  5  9  1  0
  6  7  1  0
  6 10  1  0
  7 12  1  0
  7 13  1  0
M  RAD  1   7   2
M  END
>  <reaction>  (6) 
rxn_1036

>  <mol_properties>  (6) 
{"0": {"label": "*4", "atom_type": "S2s"}, "1": {"label": "*3", "atom_type": "CS"}, "5": {"label": "*0", "atom_type": "Cd"}, "6": {"label": "*1", "atom_type": "Cs"}, "10": {"label": "*2", "atom_type": "H0"}}

>  <type>  (6) 
unop_2

>  <geom_source>  (6) 
Heuristics

$$$$

     RDKit          3D

 13 11  0  0  0  0  0  0  0  0999 V2000
   -0.0786    0.9278    2.1578 S   0  0  0  0  0  0  0  0  0  0  0  0
   -0.4529    0.0989    0.6921 C   0  0  0  0  0  0  0  0  0  0  0  0
   -1.8754   -0.0508   -0.0504 S   0  0  0  0  0  0  0  0  0  0  0  0
   -1.3239    1.3596    2.4137 H   0  0  0  0  0  0  0  0  0  0  0  0
    1.6510   -1.1643   -3.0531 C   0  0  0  0  0  0  0  0  0  0  0  0
    1.6510   -1.1643   -1.7294 C   0  0  0  0  0  0  0  0  0  0  0  0
    1.6510    0.0579   -0.8688 C   0  0  0  0  0  3  0  0  0  0  0  0
    1.6510   -2.0870   -3.6196 H   0  0  0  0  0  0  0  0  0  0  0  0
    1.6510   -0.2387   -3.6191 H   0  0  0  0  0  0  0  0  0  0  0  0
    1.6510   -2.1169   -1.2058 H   0  0  0  0  0  0  0  0  0  0  0  0
    0.5978    0.0784   -0.0874 H   0  0  0  0  0  0  0  0  0  0  0  0
    1.6510    0.9684   -1.4694 H   0  0  0  0  0  0  0  0  0  0  0  0
    2.5287    0.0750   -0.2176 H   0  0  0  0  0  0  0  0  0  0  0  0
  1  2  1  0
  1  4  1  0
  2  3  2  0
  2 11  1  0
  5  6  2  3
  5  8  1  0
  5  9  1  0
  6  7  1  0
  6 10  1  0
  7 12  1  0
  7 13  1  0
M  RAD  1   7   2
M  END
>  <reaction>  (7) 
rxn_1036

>  <mol_properties>  (7) 
{"0": {"label": "*4", "atom_type": "S2s"}, "1": {"label": "*3", "atom_type": "CS"}, "5": {"label": "*0", "atom_type": "Cd"}, "6": {"label": "*1", "atom_type": "Cs"}, "10": {"label": "*2", "atom_type": "H0"}}

>  <type>  (7) 
unop_3

>  <geom_source>  (7) 
Heuristics

$$$$

     RDKit          3D

 13 11  0  0  0  0  0  0  0  0999 V2000
   -1.8439    0.1032   -0.1824 S   0  0  0  0  0  0  0  0  0  0  0  0
   -0.4067    0.1039    0.7715 C   0  0  0  0  0  0  0  0  0  0  0  0
   -0.1481    0.7821    2.2105 S   0  0  0  0  0  0  0  0  0  0  0  0
   -2.5938    0.8236    0.6671 H   0  0  0  0  0  0  0  0  0  0  0  0
    1.6971   -1.1593   -2.9737 C   0  0  0  0  0  0  0  0  0  0  0  0
    1.6971   -1.1593   -1.6499 C   0  0  0  0  0  0  0  0  0  0  0  0
    1.6971    0.0629   -0.7894 C   0  0  0  0  0  3  0  0  0  0  0  0
    1.6971   -2.0820   -3.5402 H   0  0  0  0  0  0  0  0  0  0  0  0
    1.6971   -0.2337   -3.5397 H   0  0  0  0  0  0  0  0  0  0  0  0
    1.6971   -2.1119   -1.1264 H   0  0  0  0  0  0  0  0  0  0  0  0
    0.6439    0.0835   -0.0080 H   0  0  0  0  0  0  0  0  0  0  0  0
    1.6971    0.9734   -1.3900 H   0  0  0  0  0  0  0  0  0  0  0  0
    2.5748    0.0800   -0.1382 H   0  0  0  0  0  0  0  0  0  0  0  0
  1  2  1  0
  1  4  1  0
  2  3  2  0
  2 11  1  0
  5  6  2  3
  5  8  1  0
  5  9  1  0
  6  7  1  0
  6 10  1  0
  7 12  1  0
  7 13  1  0
M  RAD  1   7   2
M  END
>  <reaction>  (8) 
rxn_1036

>  <mol_properties>  (8) 
{"0": {"label": "*4", "atom_type": "S2s"}, "1": {"label": "*3", "atom_type": "CS"}, "5": {"label": "*0", "atom_type": "Cd"}, "6": {"label": "*1", "atom_type": "Cs"}, "10": {"label": "*2", "atom_type": "H0"}}

>  <type>  (8) 
unop_4

>  <geom_source>  (8) 
Heuristics

$$$$

     RDKit          3D

 13 11  0  0  0  0  0  0  0  0999 V2000
   -0.4200    1.6379    1.6142 S   0  0  0  0  0  0  0  0  0  0  0  0
   -0.4457    0.2190    0.6338 C   0  0  0  0  0  0  0  0  0  0  0  0
   -1.5386   -0.9649    0.5962 S   0  0  0  0  0  0  0  0  0  0  0  0
   -1.5635    1.3914    2.2733 H   0  0  0  0  0  0  0  0  0  0  0  0
    1.6582   -1.0442   -3.1114 C   0  0  0  0  0  0  0  0  0  0  0  0
    1.6582   -1.0442   -1.7877 C   0  0  0  0  0  0  0  0  0  0  0  0
    1.6582    0.1779   -0.9271 C   0  0  0  0  0  3  0  0  0  0  0  0
    1.6582   -1.9670   -3.6779 H   0  0  0  0  0  0  0  0  0  0  0  0
    1.6582   -0.1186   -3.6774 H   0  0  0  0  0  0  0  0  0  0  0  0
    1.6582   -1.9969   -1.2641 H   0  0  0  0  0  0  0  0  0  0  0  0
    0.6049    0.1985   -0.1457 H   0  0  0  0  0  0  0  0  0  0  0  0
    1.6582    1.0884   -1.5277 H   0  0  0  0  0  0  0  0  0  0  0  0
    2.5359    0.1951   -0.2759 H   0  0  0  0  0  0  0  0  0  0  0  0
  1  2  1  0
  1  4  1  0
  2  3  2  0
  2 11  1  0
  5  6  2  3
  5  8  1  0
  5  9  1  0
  6  7  1  0
  6 10  1  0
  7 12  1  0
  7 13  1  0
M  RAD  1   7   2
M  END
>  <reaction>  (9) 
rxn_1036

>  <mol_properties>  (9) 
{"0": {"label": "*4", "atom_type": "S2s"}, "1": {"label": "*3", "atom_type": "CS"}, "5": {"label": "*0", "atom_type": "Cd"}, "6": {"label": "*1", "atom_type": "Cs"}, "10": {"label": "*2", "atom_type": "H0"}}

>  <type>  (9) 
unop_5

>  <geom_source>  (9) 
Heuristics

$$$$

     RDKit          3D

 13 11  0  0  0  0  0  0  0  0999 V2000
   -1.7957    0.8566   -0.0963 S   0  0  0  0  0  0  0  0  0  0  0  0
   -0.4953    0.0449    0.6946 C   0  0  0  0  0  0  0  0  0  0  0  0
   -0.0571    0.1072    2.2443 S   0  0  0  0  0  0  0  0  0  0  0  0
   -2.2572    1.5017    0.9871 H   0  0  0  0  0  0  0  0  0  0  0  0
    1.6085   -1.2183   -3.0506 C   0  0  0  0  0  0  0  0  0  0  0  0
    1.6085   -1.2183   -1.7268 C   0  0  0  0  0  0  0  0  0  0  0  0
    1.6085    0.0039   -0.8663 C   0  0  0  0  0  3  0  0  0  0  0  0
    1.6085   -2.1410   -3.6171 H   0  0  0  0  0  0  0  0  0  0  0  0
    1.6085   -0.2927   -3.6166 H   0  0  0  0  0  0  0  0  0  0  0  0
    1.6085   -2.1709   -1.2033 H   0  0  0  0  0  0  0  0  0  0  0  0
    0.5553    0.0244   -0.0849 H   0  0  0  0  0  0  0  0  0  0  0  0
    1.6085    0.9143   -1.4669 H   0  0  0  0  0  0  0  0  0  0  0  0
    2.4862    0.0210   -0.2151 H   0  0  0  0  0  0  0  0  0  0  0  0
  1  2  1  0
  1  4  1  0
  2  3  2  0
  2 11  1  0
  5  6  2  3
  5  8  1  0
  5  9  1  0
  6  7  1  0
  6 10  1  0
  7 12  1  0
  7 13  1  0
M  RAD  1   7   2
M  END
>  <reaction>  (10) 
rxn_1036

>  <mol_properties>  (10) 
{"0": {"label": "*4", "atom_type": "S2s"}, "1": {"label": "*3", "atom_type": "CS"}, "5": {"label": "*0", "atom_type": "Cd"}, "6": {"label": "*1", "atom_type": "Cs"}, "10": {"label": "*2", "atom_type": "H0"}}

>  <type>  (10) 
unop_6

>  <geom_source>  (10) 
Heuristics

$$$$

     RDKit          3D

 13 11  0  0  0  0  0  0  0  0999 V2000
   -1.5072    1.4954    0.2765 S   0  0  0  0  0  0  0  0  0  0  0  0
   -0.5661    0.0863    0.5990 C   0  0  0  0  0  0  0  0  0  0  0  0
   -0.2394   -0.6097    2.0155 S   0  0  0  0  0  0  0  0  0  0  0  0
   -1.8311    1.7604    1.5523 H   0  0  0  0  0  0  0  0  0  0  0  0
    1.5378   -1.1769   -3.1463 C   0  0  0  0  0  0  0  0  0  0  0  0
    1.5378   -1.1769   -1.8225 C   0  0  0  0  0  0  0  0  0  0  0  0
    1.5378    0.0453   -0.9620 C   0  0  0  0  0  3  0  0  0  0  0  0
    1.5378   -2.0997   -3.7127 H   0  0  0  0  0  0  0  0  0  0  0  0
    1.5378   -0.2513   -3.7123 H   0  0  0  0  0  0  0  0  0  0  0  0
    1.5378   -2.1296   -1.2990 H   0  0  0  0  0  0  0  0  0  0  0  0
    0.4845    0.0658   -0.1805 H   0  0  0  0  0  0  0  0  0  0  0  0
    1.5378    0.9557   -1.5626 H   0  0  0  0  0  0  0  0  0  0  0  0
    2.4155    0.0624   -0.3108 H   0  0  0  0  0  0  0  0  0  0  0  0
  1  2  1  0
  1  4  1  0
  2  3  2  0
  2 11  1  0
  5  6  2  3
  5  8  1  0
  5  9  1  0
  6  7  1  0
  6 10  1  0
  7 12  1  0
  7 13  1  0
M  RAD  1   7   2
M  END
>  <reaction>  (11) 
rxn_1036

>  <mol_properties>  (11) 
{"0": {"label": "*4", "atom_type": "S2s"}, "1": {"label": "*3", "atom_type": "CS"}, "5": {"label": "*0", "atom_type": "Cd"}, "6": {"label": "*1", "atom_type": "Cs"}, "10": {"label": "*2", "atom_type": "H0"}}

>  <type>  (11) 
unop_7

>  <geom_source>  (11) 
Heuristics

$$$$

     RDKit          3D

 13 11  0  0  0  0  0  0  0  0999 V2000
   -0.2414   -0.6461    2.0381 S   0  0  0  0  0  0  0  0  0  0  0  0
   -0.6012    0.1472    0.5493 C   0  0  0  0  0  0  0  0  0  0  0  0
   -1.4748    1.4779    0.2975 S   0  0  0  0  0  0  0  0  0  0  0  0
   -0.9136    0.2026    2.8321 H   0  0  0  0  0  0  0  0  0  0  0  0
    1.5027   -1.1160   -3.1959 C   0  0  0  0  0  0  0  0  0  0  0  0
    1.5027   -1.1160   -1.8722 C   0  0  0  0  0  0  0  0  0  0  0  0
    1.5027    0.1062   -1.0117 C   0  0  0  0  0  3  0  0  0  0  0  0
    1.5027   -2.0387   -3.7624 H   0  0  0  0  0  0  0  0  0  0  0  0
    1.5027   -0.1904   -3.7619 H   0  0  0  0  0  0  0  0  0  0  0  0
    1.5027   -2.0686   -1.3487 H   0  0  0  0  0  0  0  0  0  0  0  0
    0.4495    0.1267   -0.2302 H   0  0  0  0  0  0  0  0  0  0  0  0
    1.5027    1.0166   -1.6123 H   0  0  0  0  0  0  0  0  0  0  0  0
    2.3804    0.1233   -0.3604 H   0  0  0  0  0  0  0  0  0  0  0  0
  1  2  1  0
  1  4  1  0
  2  3  2  0
  2 11  1  0
  5  6  2  3
  5  8  1  0
  5  9  1  0
  6  7  1  0
  6 10  1  0
  7 12  1  0
  7 13  1  0
M  RAD  1   7   2
M  END
>  <reaction>  (12) 
rxn_1036

>  <mol_properties>  (12) 
{"0": {"label": "*4", "atom_type": "S2s"}, "1": {"label": "*3", "atom_type": "CS"}, "5": {"label": "*0", "atom_type": "Cd"}, "6": {"label": "*1", "atom_type": "Cs"}, "10": {"label": "*2", "atom_type": "H0"}}

>  <type>  (12) 
unop_8

>  <geom_source>  (12) 
Heuristics

$$$$

     RDKit          3D

 13 11  0  0  0  0  0  0  0  0999 V2000
   -1.6755   -0.5762    0.0076 S   0  0  0  0  0  0  0  0  0  0  0  0
   -0.3606    0.2342    0.7754 C   0  0  0  0  0  0  0  0  0  0  0  0
   -0.3927    1.2690    2.0106 S   0  0  0  0  0  0  0  0  0  0  0  0
   -2.6473   -0.0543    0.7731 H   0  0  0  0  0  0  0  0  0  0  0  0
    1.7432   -1.0290   -2.9698 C   0  0  0  0  0  0  0  0  0  0  0  0
    1.7432   -1.0290   -1.6461 C   0  0  0  0  0  0  0  0  0  0  0  0
    1.7432    0.1932   -0.7855 C   0  0  0  0  0  3  0  0  0  0  0  0
    1.7432   -1.9517   -3.5363 H   0  0  0  0  0  0  0  0  0  0  0  0
    1.7432   -0.1034   -3.5358 H   0  0  0  0  0  0  0  0  0  0  0  0
    1.7432   -1.9816   -1.1225 H   0  0  0  0  0  0  0  0  0  0  0  0
    0.6900    0.2138   -0.0041 H   0  0  0  0  0  0  0  0  0  0  0  0
    1.7432    1.1037   -1.3861 H   0  0  0  0  0  0  0  0  0  0  0  0
    2.6209    0.2103   -0.1343 H   0  0  0  0  0  0  0  0  0  0  0  0
  1  2  1  0
  1  4  1  0
  2  3  2  0
  2 11  1  0
  5  6  2  3
  5  8  1  0
  5  9  1  0
  6  7  1  0
  6 10  1  0
  7 12  1  0
  7 13  1  0
M  RAD  1   7   2
M  END
>  <reaction>  (13) 
rxn_1036

>  <mol_properties>  (13) 
{"0": {"label": "*4", "atom_type": "S2s"}, "1": {"label": "*3", "atom_type": "CS"}, "5": {"label": "*0", "atom_type": "Cd"}, "6": {"label": "*1", "atom_type": "Cs"}, "10": {"label": "*2", "atom_type": "H0"}}

>  <type>  (13) 
unop_9

>  <geom_source>  (13) 
Heuristics

$$$$

     RDKit          3D

 13 11  0  0  0  0  0  0  0  0999 V2000
   -0.5838   -1.1151    1.5480 S   0  0  0  0  0  0  0  0  0  0  0  0
   -0.5843    0.2757    0.5277 C   0  0  0  0  0  0  0  0  0  0  0  0
   -1.1523    1.7530    0.8315 S   0  0  0  0  0  0  0  0  0  0  0  0
   -1.1871   -0.5364    2.5987 H   0  0  0  0  0  0  0  0  0  0  0  0
    1.5195   -0.9875   -3.2176 C   0  0  0  0  0  0  0  0  0  0  0  0
    1.5195   -0.9875   -1.8938 C   0  0  0  0  0  0  0  0  0  0  0  0
    1.5195    0.2346   -1.0333 C   0  0  0  0  0  3  0  0  0  0  0  0
    1.5195   -1.9103   -3.7841 H   0  0  0  0  0  0  0  0  0  0  0  0
    1.5195   -0.0619   -3.7836 H   0  0  0  0  0  0  0  0  0  0  0  0
    1.5195   -1.9402   -1.3703 H   0  0  0  0  0  0  0  0  0  0  0  0
    0.4663    0.2552   -0.2518 H   0  0  0  0  0  0  0  0  0  0  0  0
    1.5195    1.1451   -1.6339 H   0  0  0  0  0  0  0  0  0  0  0  0
    2.3972    0.2517   -0.3821 H   0  0  0  0  0  0  0  0  0  0  0  0
  1  2  1  0
  1  4  1  0
  2  3  2  0
  2 11  1  0
  5  6  2  3
  5  8  1  0
  5  9  1  0
  6  7  1  0
  6 10  1  0
  7 12  1  0
  7 13  1  0
M  RAD  1   7   2
M  END
>  <reaction>  (14) 
rxn_1036

>  <mol_properties>  (14) 
{"0": {"label": "*4", "atom_type": "S2s"}, "1": {"label": "*3", "atom_type": "CS"}, "5": {"label": "*0", "atom_type": "Cd"}, "6": {"label": "*1", "atom_type": "Cs"}, "10": {"label": "*2", "atom_type": "H0"}}

>  <type>  (14) 
unop_10

>  <geom_source>  (14) 
Heuristics

$$$$

     RDKit          3D

 13 11  0  0  0  0  0  0  0  0999 V2000
   -1.0076    1.8259    0.8822 S   0  0  0  0  0  0  0  0  0  0  0  0
   -0.5518    0.1946    0.5563 C   0  0  0  0  0  0  0  0  0  0  0  0
   -0.7717   -1.1180    1.4653 S   0  0  0  0  0  0  0  0  0  0  0  0
   -1.5663    1.5940    2.0808 H   0  0  0  0  0  0  0  0  0  0  0  0
    1.5521   -1.0686   -3.1889 C   0  0  0  0  0  0  0  0  0  0  0  0
    1.5521   -1.0686   -1.8652 C   0  0  0  0  0  0  0  0  0  0  0  0
    1.5521    0.1535   -1.0047 C   0  0  0  0  0  3  0  0  0  0  0  0
    1.5521   -1.9914   -3.7554 H   0  0  0  0  0  0  0  0  0  0  0  0
    1.5521   -0.1431   -3.7549 H   0  0  0  0  0  0  0  0  0  0  0  0
    1.5521   -2.0213   -1.3417 H   0  0  0  0  0  0  0  0  0  0  0  0
    0.4989    0.1741   -0.2232 H   0  0  0  0  0  0  0  0  0  0  0  0
    1.5521    1.0640   -1.6053 H   0  0  0  0  0  0  0  0  0  0  0  0
    2.4298    0.1706   -0.3534 H   0  0  0  0  0  0  0  0  0  0  0  0
  1  2  1  0
  1  4  1  0
  2  3  2  0
  2 11  1  0
  5  6  2  3
  5  8  1  0
  5  9  1  0
  6  7  1  0
  6 10  1  0
  7 12  1  0
  7 13  1  0
M  RAD  1   7   2
M  END
>  <reaction>  (15) 
rxn_1036

>  <mol_properties>  (15) 
{"0": {"label": "*4", "atom_type": "S2s"}, "1": {"label": "*3", "atom_type": "CS"}, "5": {"label": "*0", "atom_type": "Cd"}, "6": {"label": "*1", "atom_type": "Cs"}, "10": {"label": "*2", "atom_type": "H0"}}

>  <type>  (15) 
unop_11

>  <geom_source>  (15) 
Heuristics

$$$$

     RDKit          3D

 13 11  0  0  0  0  0  0  0  0999 V2000
   -1.3649   -1.0480    0.4112 S   0  0  0  0  0  0  0  0  0  0  0  0
   -0.3986    0.3527    0.6937 C   0  0  0  0  0  0  0  0  0  0  0  0
   -0.6493    1.5628    1.7283 S   0  0  0  0  0  0  0  0  0  0  0  0
   -2.3205   -0.7604    1.3095 H   0  0  0  0  0  0  0  0  0  0  0  0
    1.7052   -0.9105   -3.0515 C   0  0  0  0  0  0  0  0  0  0  0  0
    1.7052   -0.9105   -1.7278 C   0  0  0  0  0  0  0  0  0  0  0  0
    1.7052    0.3116   -0.8673 C   0  0  0  0  0  3  0  0  0  0  0  0
    1.7052   -1.8333   -3.6180 H   0  0  0  0  0  0  0  0  0  0  0  0
    1.7052    0.0151   -3.6175 H   0  0  0  0  0  0  0  0  0  0  0  0
    1.7052   -1.8632   -1.2043 H   0  0  0  0  0  0  0  0  0  0  0  0
    0.6520    0.3322   -0.0858 H   0  0  0  0  0  0  0  0  0  0  0  0
    1.7052    1.2221   -1.4679 H   0  0  0  0  0  0  0  0  0  0  0  0
    2.5829    0.3288   -0.2160 H   0  0  0  0  0  0  0  0  0  0  0  0
  1  2  1  0
  1  4  1  0
  2  3  2  0
  2 11  1  0
  5  6  2  3
  5  8  1  0
  5  9  1  0
  6  7  1  0
  6 10  1  0
  7 12  1  0
  7 13  1  0
M  RAD  1   7   2
M  END
>  <reaction>  (16) 
rxn_1036

>  <mol_properties>  (16) 
{"0": {"label": "*4", "atom_type": "S2s"}, "1": {"label": "*3", "atom_type": "CS"}, "5": {"label": "*0", "atom_type": "Cd"}, "6": {"label": "*1", "atom_type": "Cs"}, "10": {"label": "*2", "atom_type": "H0"}}

>  <type>  (16) 
unop_12

>  <geom_source>  (16) 
Heuristics

$$$$

     RDKit          3D

 13 11  0  0  0  0  0  0  0  0999 V2000
    3.2036    0.5314   -0.6125 S   0  0  0  0  0  0  0  0  0  0  0  0
    1.8118    1.5540    1.5876 S   0  0  0  0  0  0  0  0  0  0  0  0
   -1.3419   -0.1790   -0.6301 C   0  0  0  0  0  0  0  0  0  0  0  0
   -0.2746   -0.8892    0.1391 C   0  0  0  0  0  0  0  0  0  0  0  0
   -2.3385    0.4443    0.0002 C   0  0  0  0  0  3  0  0  0  0  0  0
    1.7470    0.7491    0.4035 C   0  0  0  0  0  0  0  0  0  0  0  0
   -1.2977   -0.1599   -1.7150 H   0  0  0  0  0  0  0  0  0  0  0  0
   -2.3998    0.4443    1.0846 H   0  0  0  0  0  0  0  0  0  0  0  0
   -3.1032    0.9611   -0.5706 H   0  0  0  0  0  0  0  0  0  0  0  0
    0.4922   -1.2888   -0.5569 H   0  0  0  0  0  0  0  0  0  0  0  0
   -0.7168   -1.7288    0.7159 H   0  0  0  0  0  0  0  0  0  0  0  0
    0.6266    0.1851    0.0617 H   0  0  0  0  0  0  0  0  0  0  0  0
    3.5913   -0.6236    0.0926 H   0  0  0  0  0  0  0  0  0  0  0  0
  1  6  1  0
  1 13  1  0
  2  6  2  0
  3  4  2  3
  3  5  1  0
  3  7  1  0
  4 10  1  0
  4 11  1  0
  5  8  1  0
  5  9  1  0
  6 12  1  0
M  RAD  1   5   2
M  END
>  <reaction>  (17) 
rxn_1036

>  <mol_properties>  (17) 
{"0": {"label": "*4", "atom_type": "S2s"}, "1": {"label": "*3", "atom_type": "CS"}, "5": {"label": "*0", "atom_type": "Cd"}, "6": {"label": "*1", "atom_type": "Cs"}, "10": {"label": "*2", "atom_type": "H0"}}

>  <type>  (17) 
unop_13

>  <geom_source>  (17) 
AutoTST

$$$$
