
     RDKit          3D

  9  8  0  0  0  0  0  0  0  0999 V2000
   -0.8818   -0.3578    0.1297 C   0  0  0  0  0  0  0  0  0  0  0  0
    0.6153   -0.3021   -0.1188 C   0  0  0  0  0  0  0  0  0  0  0  0
    1.5354   -1.7170    0.5545 S   0  0  0  0  0  0  0  0  0  0  0  0
   -1.1018   -0.3317    1.1984 H   0  0  0  0  0  0  0  0  0  0  0  0
   -1.3114   -1.2723   -0.2799 H   0  0  0  0  0  0  0  0  0  0  0  0
   -1.3767    0.4976   -0.3363 H   0  0  0  0  0  0  0  0  0  0  0  0
    1.0467    0.6194    0.2718 H   0  0  0  0  0  0  0  0  0  0  0  0
    0.8295   -0.3275   -1.1882 H   0  0  0  0  0  0  0  0  0  0  0  0
    1.2306   -1.5077    1.8423 H   0  0  0  0  0  0  0  0  0  0  0  0
  1  2  1  0
  1  4  1  0
  1  5  1  0
  1  6  1  0
  2  3  1  0
  2  7  1  0
  2  8  1  0
  3  9  1  0
M  END
>  <reaction>  (1) 
rxn_1904

>  <mol_properties>  (1) 
{"1": {"label": "donator", "atom_type": "Cs"}, "6": {"label": "d_hydrogen", "atom_type": "H0"}}

>  <type>  (1) 
r1h

$$$$

     RDKit          3D

  7  6  0  0  0  0  0  0  0  0999 V2000
   -0.6904   -0.9066   -0.0346 C   0  0  0  0  0  0  0  0  0  0  0  0
    0.1413    0.0254   -0.6161 C   0  0  0  0  0  0  0  0  0  0  0  0
    0.4603    0.1105   -1.9267 C   0  0  0  0  0  3  0  0  0  0  0  0
    0.8318    0.2180   -3.4201 S   0  0  0  0  0  0  0  0  0  0  0  0
   -0.8731   -0.8770    1.0287 H   0  0  0  0  0  0  0  0  0  0  0  0
   -1.1718   -1.6767   -0.6199 H   0  0  0  0  0  0  0  0  0  0  0  0
    0.6090    0.7866    0.0044 H   0  0  0  0  0  0  0  0  0  0  0  0
  1  2  2  3
  1  5  1  0
  1  6  1  0
  2  3  1  0
  2  7  1  0
  3  4  2  0
M  RAD  1   3   2
M  END
>  <reaction>  (2) 
rxn_1904

>  <mol_properties>  (2) 
{"2": {"label": "acceptor", "atom_type": "CS"}}

>  <type>  (2) 
r2

$$$$

     RDKit          3D

  8  7  0  0  0  0  0  0  0  0999 V2000
   -1.1617    0.0338    0.5053 C   0  0  0  0  0  0  0  0  0  0  0  0
   -0.1023    0.4503   -0.1863 C   0  0  0  0  0  0  0  0  0  0  0  0
    1.0978   -0.3557   -0.3104 C   0  0  0  0  0  0  0  0  0  0  0  0
    2.4251    0.0667   -1.1256 S   0  0  0  0  0  0  0  0  0  0  0  0
   -1.1653   -0.9292    1.0039 H   0  0  0  0  0  0  0  0  0  0  0  0
   -2.0546    0.6389    0.5948 H   0  0  0  0  0  0  0  0  0  0  0  0
   -0.0991    1.4132   -0.6847 H   0  0  0  0  0  0  0  0  0  0  0  0
    1.0601   -1.3180    0.2032 H   0  0  0  0  0  0  0  0  0  0  0  0
  1  2  2  3
  1  5  1  0
  1  6  1  0
  2  3  1  0
  2  7  1  0
  3  4  2  0
  3  8  1  0
M  END
>  <reaction>  (3) 
rxn_1904

>  <mol_properties>  (3) 
{"0": {"label": "a_hydrogen", "atom_type": "H0"}, "3": {"label": "acceptor", "atom_type": "CS"}}

>  <type>  (3) 
r2h

$$$$

     RDKit          3D

 16 14  0  0  0  0  0  0  0  0999 V2000
   -1.3844    0.2328   -2.0369 C   0  0  0  0  0  0  0  0  0  0  0  0
   -1.1309    0.8126   -0.6717 C   0  0  0  0  0  3  0  0  0  0  0  0
   -0.7562    2.5468   -0.5671 S   0  0  0  0  0  0  0  0  0  0  0  0
   -0.5200    0.3752   -2.6886 H   0  0  0  0  0  0  0  0  0  0  0  0
   -2.2497    0.7020   -2.5129 H   0  0  0  0  0  0  0  0  0  0  0  0
   -1.5681   -0.8406   -1.9633 H   0  0  0  0  0  0  0  0  0  0  0  0
   -0.0604    0.1158   -0.2082 H   0  0  0  0  0  0  0  0  0  0  0  0
   -1.9100    0.5964    0.0586 H   0  0  0  0  0  0  0  0  0  0  0  0
    0.2692    2.5445   -1.4315 H   0  0  0  0  0  0  0  0  0  0  0  0
    0.9036    0.4822    2.2788 C   0  0  0  0  0  0  0  0  0  0  0  0
    1.3846   -0.5011    1.5187 C   0  0  0  0  0  0  0  0  0  0  0  0
    0.9767   -0.6782    0.1418 C   0  0  0  0  0  0  0  0  0  0  0  0
    1.5490   -1.6926   -0.9479 S   0  0  0  0  0  0  0  0  0  0  0  0
    1.2321    0.6088    3.3027 H   0  0  0  0  0  0  0  0  0  0  0  0
    0.1889    1.1983    1.8909 H   0  0  0  0  0  0  0  0  0  0  0  0
    2.1207   -1.1976    1.9111 H   0  0  0  0  0  0  0  0  0  0  0  0
  1  2  1  0
  1  4  1  0
  1  5  1  0
  1  6  1  0
  2  3  1  0
  2  8  1  0
  3  9  1  0
  7 12  1  0
 10 11  2  3
 10 14  1  0
 10 15  1  0
 11 12  1  0
 11 16  1  0
 12 13  2  0
M  RAD  1   2   2
M  END
>  <reaction>  (4) 
rxn_1904

>  <mol_properties>  (4) 
{"1": {"label": "*3", "atom_type": "Cs"}, "2": {"label": "*4", "atom_type": "S2s"}, "6": {"label": "*2", "atom_type": "H0"}, "11": {"label": "*1", "atom_type": "CS"}, "12": {"label": "*0", "atom_type": "S2d"}}

>  <type>  (4) 
ts

$$$$

     RDKit          3D

 16 14  0  0  0  0  0  0  0  0999 V2000
   -1.1991    0.3923   -2.2455 C   0  0  0  0  0  0  0  0  0  0  0  0
   -1.1991    0.3923   -0.7269 C   0  0  0  0  0  0  0  0  0  0  0  0
   -1.1991    2.0497    0.0181 S   0  0  0  0  0  0  0  0  0  0  0  0
   -0.2925    0.8577   -2.6363 H   0  0  0  0  0  0  0  0  0  0  0  0
   -2.0551    0.9435   -2.6356 H   0  0  0  0  0  0  0  0  0  0  0  0
   -1.2422   -0.6311   -2.6258 H   0  0  0  0  0  0  0  0  0  0  0  0
   -0.1872   -0.2870   -0.2527 H   0  0  0  0  0  0  0  0  0  0  0  0
   -2.1067   -0.0747   -0.3417 H   0  0  0  0  0  0  0  0  0  0  0  0
   -0.0243    2.4513   -0.4854 H   0  0  0  0  0  0  0  0  0  0  0  0
    2.1063    1.0354    0.7445 C   0  0  0  0  0  0  0  0  0  0  0  0
    1.7361   -0.2054    1.0569 C   0  0  0  0  0  0  0  0  0  0  0  0
    0.8263   -0.9674    0.2221 C   0  0  0  0  0  3  0  0  0  0  0  0
    0.3243   -2.4719    0.5210 S   0  0  0  0  0  0  0  0  0  0  0  0
    2.7853    1.5995    1.3706 H   0  0  0  0  0  0  0  0  0  0  0  0
    1.7385    1.5239   -0.1510 H   0  0  0  0  0  0  0  0  0  0  0  0
    2.1041   -0.6936    1.9524 H   0  0  0  0  0  0  0  0  0  0  0  0
  1  2  1  0
  1  4  1  0
  1  5  1  0
  1  6  1  0
  2  3  1  0
  2  7  1  0
  2  8  1  0
  3  9  1  0
 10 11  2  3
 10 14  1  0
 10 15  1  0
 11 12  1  0
 11 16  1  0
 12 13  2  0
M  RAD  1  12   2
M  END
>  <reaction>  (5) 
rxn_1904

>  <mol_properties>  (5) 
{"1": {"label": "*3", "atom_type": "Cs"}, "2": {"label": "*4", "atom_type": "S2s"}, "6": {"label": "*2", "atom_type": "H0"}, "11": {"label": "*1", "atom_type": "CS"}, "12": {"label": "*0", "atom_type": "S2d"}}

>  <type>  (5) 
unop_1

>  <geom_source>  (5) 
Heuristics

$$$$

     RDKit          3D

 16 14  0  0  0  0  0  0  0  0999 V2000
   -1.3248    0.3786   -2.0975 C   0  0  0  0  0  0  0  0  0  0  0  0
   -1.3248    0.3786   -0.5789 C   0  0  0  0  0  0  0  0  0  0  0  0
   -1.3248    2.0359    0.1661 S   0  0  0  0  0  0  0  0  0  0  0  0
   -0.4181    0.8440   -2.4883 H   0  0  0  0  0  0  0  0  0  0  0  0
   -2.1807    0.9298   -2.4876 H   0  0  0  0  0  0  0  0  0  0  0  0
   -1.3678   -0.6448   -2.4778 H   0  0  0  0  0  0  0  0  0  0  0  0
   -0.3128   -0.3008   -0.1047 H   0  0  0  0  0  0  0  0  0  0  0  0
   -2.2324   -0.0885   -0.1937 H   0  0  0  0  0  0  0  0  0  0  0  0
   -0.1500    2.4376   -0.3374 H   0  0  0  0  0  0  0  0  0  0  0  0
    1.8308   -0.6513   -1.7598 C   0  0  0  0  0  0  0  0  0  0  0  0
    1.8831   -0.9824   -0.4707 C   0  0  0  0  0  0  0  0  0  0  0  0
    0.7006   -0.9812    0.3701 C   0  0  0  0  0  3  0  0  0  0  0  0
    0.6696   -1.3667    1.9370 S   0  0  0  0  0  0  0  0  0  0  0  0
    2.7159   -0.6539   -2.3826 H   0  0  0  0  0  0  0  0  0  0  0  0
    0.8961   -0.3670   -2.2304 H   0  0  0  0  0  0  0  0  0  0  0  0
    2.8179   -1.2666   -0.0005 H   0  0  0  0  0  0  0  0  0  0  0  0
  1  2  1  0
  1  4  1  0
  1  5  1  0
  1  6  1  0
  2  3  1  0
  2  7  1  0
  2  8  1  0
  3  9  1  0
 10 11  2  3
 10 14  1  0
 10 15  1  0
 11 12  1  0
 11 16  1  0
 12 13  2  0
M  RAD  1  12   2
M  END
>  <reaction>  (6) 
rxn_1904

>  <mol_properties>  (6) 
{"1": {"label": "*3", "atom_type": "Cs"}, "2": {"label": "*4", "atom_type": "S2s"}, "6": {"label": "*2", "atom_type": "H0"}, "11": {"label": "*1", "atom_type": "CS"}, "12": {"label": "*0", "atom_type": "S2d"}}

>  <type>  (6) 
unop_2

>  <geom_source>  (6) 
Heuristics

$$$$

     RDKit          3D

 16 14  0  0  0  0  0  0  0  0999 V2000
   -1.1954    0.4569   -2.2135 C   0  0  0  0  0  0  0  0  0  0  0  0
   -1.1954    0.4569   -0.6948 C   0  0  0  0  0  0  0  0  0  0  0  0
   -1.1954    2.1142    0.0502 S   0  0  0  0  0  0  0  0  0  0  0  0
   -0.2887    0.9223   -2.6042 H   0  0  0  0  0  0  0  0  0  0  0  0
   -2.0514    1.0081   -2.6036 H   0  0  0  0  0  0  0  0  0  0  0  0
   -1.2385   -0.5665   -2.5938 H   0  0  0  0  0  0  0  0  0  0  0  0
   -0.1835   -0.2225   -0.2207 H   0  0  0  0  0  0  0  0  0  0  0  0
   -2.1030   -0.0102   -0.3097 H   0  0  0  0  0  0  0  0  0  0  0  0
   -0.0206    2.5159   -0.4534 H   0  0  0  0  0  0  0  0  0  0  0  0
    1.2677    0.8376    1.8979 C   0  0  0  0  0  0  0  0  0  0  0  0
    1.3263   -0.4434    1.5379 C   0  0  0  0  0  0  0  0  0  0  0  0
    0.8300   -0.9029    0.2542 C   0  0  0  0  0  3  0  0  0  0  0  0
    0.8597   -2.4307   -0.2650 S   0  0  0  0  0  0  0  0  0  0  0  0
    1.6393    1.1751    2.8567 H   0  0  0  0  0  0  0  0  0  0  0  0
    0.8440    1.5883    1.2400 H   0  0  0  0  0  0  0  0  0  0  0  0
    1.7500   -1.1938    2.1960 H   0  0  0  0  0  0  0  0  0  0  0  0
  1  2  1  0
  1  4  1  0
  1  5  1  0
  1  6  1  0
  2  3  1  0
  2  7  1  0
  2  8  1  0
  3  9  1  0
 10 11  2  3
 10 14  1  0
 10 15  1  0
 11 12  1  0
 11 16  1  0
 12 13  2  0
M  RAD  1  12   2
M  END
>  <reaction>  (7) 
rxn_1904

>  <mol_properties>  (7) 
{"1": {"label": "*3", "atom_type": "Cs"}, "2": {"label": "*4", "atom_type": "S2s"}, "6": {"label": "*2", "atom_type": "H0"}, "11": {"label": "*1", "atom_type": "CS"}, "12": {"label": "*0", "atom_type": "S2d"}}

>  <type>  (7) 
unop_3

>  <geom_source>  (7) 
Heuristics

$$$$

     RDKit          3D

 16 14  0  0  0  0  0  0  0  0999 V2000
   -1.1797    0.5138   -2.1630 C   0  0  0  0  0  0  0  0  0  0  0  0
   -1.1797    0.5138   -0.6443 C   0  0  0  0  0  0  0  0  0  0  0  0
   -1.1797    2.1712    0.1006 S   0  0  0  0  0  0  0  0  0  0  0  0
   -0.2731    0.9792   -2.5538 H   0  0  0  0  0  0  0  0  0  0  0  0
   -2.0357    1.0650   -2.5531 H   0  0  0  0  0  0  0  0  0  0  0  0
   -1.2228   -0.5096   -2.5433 H   0  0  0  0  0  0  0  0  0  0  0  0
   -0.1678   -0.1655   -0.1702 H   0  0  0  0  0  0  0  0  0  0  0  0
   -2.0874    0.0468   -0.2592 H   0  0  0  0  0  0  0  0  0  0  0  0
   -0.0049    2.5729   -0.4029 H   0  0  0  0  0  0  0  0  0  0  0  0
    0.4101   -2.6562   -1.2625 C   0  0  0  0  0  0  0  0  0  0  0  0
    0.8810   -2.2425   -0.0872 C   0  0  0  0  0  0  0  0  0  0  0  0
    0.8456   -0.8459    0.3047 C   0  0  0  0  0  3  0  0  0  0  0  0
    1.3914   -0.2555    1.7040 S   0  0  0  0  0  0  0  0  0  0  0  0
    0.4389   -3.6992   -1.5499 H   0  0  0  0  0  0  0  0  0  0  0  0
   -0.0195   -1.9592   -1.9735 H   0  0  0  0  0  0  0  0  0  0  0  0
    1.3106   -2.9396    0.6235 H   0  0  0  0  0  0  0  0  0  0  0  0
  1  2  1  0
  1  4  1  0
  1  5  1  0
  1  6  1  0
  2  3  1  0
  2  7  1  0
  2  8  1  0
  3  9  1  0
 10 11  2  3
 10 14  1  0
 10 15  1  0
 11 12  1  0
 11 16  1  0
 12 13  2  0
M  RAD  1  12   2
M  END
>  <reaction>  (8) 
rxn_1904

>  <mol_properties>  (8) 
{"1": {"label": "*3", "atom_type": "Cs"}, "2": {"label": "*4", "atom_type": "S2s"}, "6": {"label": "*2", "atom_type": "H0"}, "11": {"label": "*1", "atom_type": "CS"}, "12": {"label": "*0", "atom_type": "S2d"}}

>  <type>  (8) 
unop_4

>  <geom_source>  (8) 
Heuristics

$$$$

     RDKit          3D

 16 14  0  0  0  0  0  0  0  0999 V2000
   -1.2624    0.4358   -2.1723 C   0  0  0  0  0  0  0  0  0  0  0  0
   -1.2624    0.4358   -0.6537 C   0  0  0  0  0  0  0  0  0  0  0  0
   -1.2624    2.0931    0.0913 S   0  0  0  0  0  0  0  0  0  0  0  0
   -0.3558    0.9012   -2.5631 H   0  0  0  0  0  0  0  0  0  0  0  0
   -2.1184    0.9870   -2.5625 H   0  0  0  0  0  0  0  0  0  0  0  0
   -1.3055   -0.5876   -2.5526 H   0  0  0  0  0  0  0  0  0  0  0  0
   -0.2505   -0.2436   -0.1796 H   0  0  0  0  0  0  0  0  0  0  0  0
   -2.1700   -0.0313   -0.2686 H   0  0  0  0  0  0  0  0  0  0  0  0
   -0.0876    2.4948   -0.4122 H   0  0  0  0  0  0  0  0  0  0  0  0
   -0.0604   -0.3713    2.5177 C   0  0  0  0  0  0  0  0  0  0  0  0
    0.8394   -0.9753    1.7434 C   0  0  0  0  0  0  0  0  0  0  0  0
    0.7630   -0.9240    0.2953 C   0  0  0  0  0  3  0  0  0  0  0  0
    1.8050   -1.6235   -0.7193 S   0  0  0  0  0  0  0  0  0  0  0  0
    0.0012   -0.4126    3.5975 H   0  0  0  0  0  0  0  0  0  0  0  0
   -0.8880    0.1844    2.0909 H   0  0  0  0  0  0  0  0  0  0  0  0
    1.6668   -1.5308    2.1705 H   0  0  0  0  0  0  0  0  0  0  0  0
  1  2  1  0
  1  4  1  0
  1  5  1  0
  1  6  1  0
  2  3  1  0
  2  7  1  0
  2  8  1  0
  3  9  1  0
 10 11  2  3
 10 14  1  0
 10 15  1  0
 11 12  1  0
 11 16  1  0
 12 13  2  0
M  RAD  1  12   2
M  END
>  <reaction>  (9) 
rxn_1904

>  <mol_properties>  (9) 
{"1": {"label": "*3", "atom_type": "Cs"}, "2": {"label": "*4", "atom_type": "S2s"}, "6": {"label": "*2", "atom_type": "H0"}, "11": {"label": "*1", "atom_type": "CS"}, "12": {"label": "*0", "atom_type": "S2d"}}

>  <type>  (9) 
unop_5

>  <geom_source>  (9) 
Heuristics

$$$$

     RDKit          3D

 16 14  0  0  0  0  0  0  0  0999 V2000
   -1.1665    0.4618   -2.2238 C   0  0  0  0  0  0  0  0  0  0  0  0
   -1.1665    0.4618   -0.7051 C   0  0  0  0  0  0  0  0  0  0  0  0
   -1.1665    2.1192    0.0399 S   0  0  0  0  0  0  0  0  0  0  0  0
   -0.2598    0.9272   -2.6145 H   0  0  0  0  0  0  0  0  0  0  0  0
   -2.0224    1.0130   -2.6139 H   0  0  0  0  0  0  0  0  0  0  0  0
   -1.2096   -0.5616   -2.6041 H   0  0  0  0  0  0  0  0  0  0  0  0
   -0.1546   -0.2175   -0.2310 H   0  0  0  0  0  0  0  0  0  0  0  0
   -2.0741   -0.0052   -0.3200 H   0  0  0  0  0  0  0  0  0  0  0  0
    0.0083    2.5208   -0.4637 H   0  0  0  0  0  0  0  0  0  0  0  0
   -0.1197   -3.0340   -0.3902 C   0  0  0  0  0  0  0  0  0  0  0  0
    0.5979   -2.3079    0.4653 C   0  0  0  0  0  0  0  0  0  0  0  0
    0.8589   -0.8979    0.2439 C   0  0  0  0  0  3  0  0  0  0  0  0
    1.7150    0.0575    1.2232 S   0  0  0  0  0  0  0  0  0  0  0  0
   -0.3115   -4.0855   -0.2204 H   0  0  0  0  0  0  0  0  0  0  0  0
   -0.5375   -2.5944   -1.2892 H   0  0  0  0  0  0  0  0  0  0  0  0
    1.0155   -2.7478    1.3641 H   0  0  0  0  0  0  0  0  0  0  0  0
  1  2  1  0
  1  4  1  0
  1  5  1  0
  1  6  1  0
  2  3  1  0
  2  7  1  0
  2  8  1  0
  3  9  1  0
 10 11  2  3
 10 14  1  0
 10 15  1  0
 11 12  1  0
 11 16  1  0
 12 13  2  0
M  RAD  1  12   2
M  END
>  <reaction>  (10) 
rxn_1904

>  <mol_properties>  (10) 
{"1": {"label": "*3", "atom_type": "Cs"}, "2": {"label": "*4", "atom_type": "S2s"}, "6": {"label": "*2", "atom_type": "H0"}, "11": {"label": "*1", "atom_type": "CS"}, "12": {"label": "*0", "atom_type": "S2d"}}

>  <type>  (10) 
unop_6

>  <geom_source>  (10) 
Heuristics

$$$$

     RDKit          3D

 16 14  0  0  0  0  0  0  0  0999 V2000
   -1.1983    0.3936   -2.2455 C   0  0  0  0  0  0  0  0  0  0  0  0
   -1.1983    0.3936   -0.7269 C   0  0  0  0  0  0  0  0  0  0  0  0
   -1.1983    2.0510    0.0181 S   0  0  0  0  0  0  0  0  0  0  0  0
   -0.2916    0.8590   -2.6363 H   0  0  0  0  0  0  0  0  0  0  0  0
   -2.0542    0.9448   -2.6356 H   0  0  0  0  0  0  0  0  0  0  0  0
   -1.2413   -0.6298   -2.6258 H   0  0  0  0  0  0  0  0  0  0  0  0
   -0.1863   -0.2857   -0.2527 H   0  0  0  0  0  0  0  0  0  0  0  0
   -2.1059   -0.0734   -0.3417 H   0  0  0  0  0  0  0  0  0  0  0  0
   -0.0234    2.4526   -0.4854 H   0  0  0  0  0  0  0  0  0  0  0  0
   -0.5419   -2.9092    0.7445 C   0  0  0  0  0  0  0  0  0  0  0  0
    0.4663   -2.0968    1.0569 C   0  0  0  0  0  0  0  0  0  0  0  0
    0.8271   -0.9661    0.2221 C   0  0  0  0  0  3  0  0  0  0  0  0
    2.0295    0.0681    0.5210 S   0  0  0  0  0  0  0  0  0  0  0  0
   -0.8069   -3.7513    1.3706 H   0  0  0  0  0  0  0  0  0  0  0  0
   -1.1333   -2.7538   -0.1510 H   0  0  0  0  0  0  0  0  0  0  0  0
    1.0575   -2.2525    1.9524 H   0  0  0  0  0  0  0  0  0  0  0  0
  1  2  1  0
  1  4  1  0
  1  5  1  0
  1  6  1  0
  2  3  1  0
  2  7  1  0
  2  8  1  0
  3  9  1  0
 10 11  2  3
 10 14  1  0
 10 15  1  0
 11 12  1  0
 11 16  1  0
 12 13  2  0
M  RAD  1  12   2
M  END
>  <reaction>  (11) 
rxn_1904

>  <mol_properties>  (11) 
{"1": {"label": "*3", "atom_type": "Cs"}, "2": {"label": "*4", "atom_type": "S2s"}, "6": {"label": "*2", "atom_type": "H0"}, "11": {"label": "*1", "atom_type": "CS"}, "12": {"label": "*0", "atom_type": "S2d"}}

>  <type>  (11) 
unop_7

>  <geom_source>  (11) 
Heuristics

$$$$

     RDKit          3D

 16 14  0  0  0  0  0  0  0  0999 V2000
   -1.2502    0.3371   -2.2238 C   0  0  0  0  0  0  0  0  0  0  0  0
   -1.2502    0.3371   -0.7051 C   0  0  0  0  0  0  0  0  0  0  0  0
   -1.2502    1.9944    0.0399 S   0  0  0  0  0  0  0  0  0  0  0  0
   -0.3436    0.8025   -2.6145 H   0  0  0  0  0  0  0  0  0  0  0  0
   -2.1062    0.8883   -2.6139 H   0  0  0  0  0  0  0  0  0  0  0  0
   -1.2933   -0.6863   -2.6041 H   0  0  0  0  0  0  0  0  0  0  0  0
   -0.2383   -0.3423   -0.2310 H   0  0  0  0  0  0  0  0  0  0  0  0
   -2.1578   -0.1300   -0.3200 H   0  0  0  0  0  0  0  0  0  0  0  0
   -0.0754    2.3961   -0.4637 H   0  0  0  0  0  0  0  0  0  0  0  0
    2.3817    0.6919   -0.3902 C   0  0  0  0  0  0  0  0  0  0  0  0
    1.9814   -0.2472    0.4653 C   0  0  0  0  0  0  0  0  0  0  0  0
    0.7752   -1.0227    0.2439 C   0  0  0  0  0  3  0  0  0  0  0  0
    0.2151   -2.1768    1.2232 S   0  0  0  0  0  0  0  0  0  0  0  0
    3.2823    1.2675   -0.2204 H   0  0  0  0  0  0  0  0  0  0  0  0
    1.8166    0.9121   -1.2892 H   0  0  0  0  0  0  0  0  0  0  0  0
    2.5466   -0.4672    1.3641 H   0  0  0  0  0  0  0  0  0  0  0  0
  1  2  1  0
  1  4  1  0
  1  5  1  0
  1  6  1  0
  2  3  1  0
  2  7  1  0
  2  8  1  0
  3  9  1  0
 10 11  2  3
 10 14  1  0
 10 15  1  0
 11 12  1  0
 11 16  1  0
 12 13  2  0
M  RAD  1  12   2
M  END
>  <reaction>  (12) 
rxn_1904

>  <mol_properties>  (12) 
{"1": {"label": "*3", "atom_type": "Cs"}, "2": {"label": "*4", "atom_type": "S2s"}, "6": {"label": "*2", "atom_type": "H0"}, "11": {"label": "*1", "atom_type": "CS"}, "12": {"label": "*0", "atom_type": "S2d"}}

>  <type>  (12) 
unop_8

>  <geom_source>  (12) 
Heuristics

$$$$

     RDKit          3D

 16 14  0  0  0  0  0  0  0  0999 V2000
   -1.2331    0.5151   -2.0975 C   0  0  0  0  0  0  0  0  0  0  0  0
   -1.2331    0.5151   -0.5789 C   0  0  0  0  0  0  0  0  0  0  0  0
   -1.2331    2.1724    0.1661 S   0  0  0  0  0  0  0  0  0  0  0  0
   -0.3265    0.9805   -2.4883 H   0  0  0  0  0  0  0  0  0  0  0  0
   -2.0891    1.0663   -2.4876 H   0  0  0  0  0  0  0  0  0  0  0  0
   -1.2762   -0.5083   -2.4778 H   0  0  0  0  0  0  0  0  0  0  0  0
   -0.2212   -0.1643   -0.1047 H   0  0  0  0  0  0  0  0  0  0  0  0
   -2.1407    0.0480   -0.1937 H   0  0  0  0  0  0  0  0  0  0  0  0
   -0.0583    2.5741   -0.3374 H   0  0  0  0  0  0  0  0  0  0  0  0
    0.9149   -2.0155   -1.7598 C   0  0  0  0  0  0  0  0  0  0  0  0
    1.2412   -1.9386   -0.4707 C   0  0  0  0  0  0  0  0  0  0  0  0
    0.7923   -0.8447    0.3701 C   0  0  0  0  0  3  0  0  0  0  0  0
    1.1374   -0.6700    1.9370 S   0  0  0  0  0  0  0  0  0  0  0  0
    1.2524   -2.8338   -2.3826 H   0  0  0  0  0  0  0  0  0  0  0  0
    0.2979   -1.2581   -2.2304 H   0  0  0  0  0  0  0  0  0  0  0  0
    1.8582   -2.6961   -0.0005 H   0  0  0  0  0  0  0  0  0  0  0  0
  1  2  1  0
  1  4  1  0
  1  5  1  0
  1  6  1  0
  2  3  1  0
  2  7  1  0
  2  8  1  0
  3  9  1  0
 10 11  2  3
 10 14  1  0
 10 15  1  0
 11 12  1  0
 11 16  1  0
 12 13  2  0
M  RAD  1  12   2
M  END
>  <reaction>  (13) 
rxn_1904

>  <mol_properties>  (13) 
{"1": {"label": "*3", "atom_type": "Cs"}, "2": {"label": "*4", "atom_type": "S2s"}, "6": {"label": "*2", "atom_type": "H0"}, "11": {"label": "*1", "atom_type": "CS"}, "12": {"label": "*0", "atom_type": "S2d"}}

>  <type>  (13) 
unop_9

>  <geom_source>  (13) 
Heuristics

$$$$

     RDKit          3D

 16 14  0  0  0  0  0  0  0  0999 V2000
   -1.3034    0.3297   -2.1630 C   0  0  0  0  0  0  0  0  0  0  0  0
   -1.3034    0.3297   -0.6443 C   0  0  0  0  0  0  0  0  0  0  0  0
   -1.3034    1.9870    0.1006 S   0  0  0  0  0  0  0  0  0  0  0  0
   -0.3967    0.7951   -2.5538 H   0  0  0  0  0  0  0  0  0  0  0  0
   -2.1593    0.8809   -2.5531 H   0  0  0  0  0  0  0  0  0  0  0  0
   -1.3464   -0.6937   -2.5433 H   0  0  0  0  0  0  0  0  0  0  0  0
   -0.2915   -0.3497   -0.1702 H   0  0  0  0  0  0  0  0  0  0  0  0
   -2.2110   -0.1374   -0.2592 H   0  0  0  0  0  0  0  0  0  0  0  0
   -0.1286    2.3887   -0.4029 H   0  0  0  0  0  0  0  0  0  0  0  0
    2.2326    0.0585   -1.2625 C   0  0  0  0  0  0  0  0  0  0  0  0
    2.0280   -0.5340   -0.0872 C   0  0  0  0  0  0  0  0  0  0  0  0
    0.7220   -1.0301    0.3047 C   0  0  0  0  0  3  0  0  0  0  0  0
    0.3821   -1.7588    1.7040 S   0  0  0  0  0  0  0  0  0  0  0  0
    3.2088    0.4268   -1.5499 H   0  0  0  0  0  0  0  0  0  0  0  0
    1.4248    0.1923   -1.9735 H   0  0  0  0  0  0  0  0  0  0  0  0
    2.8359   -0.6676    0.6235 H   0  0  0  0  0  0  0  0  0  0  0  0
  1  2  1  0
  1  4  1  0
  1  5  1  0
  1  6  1  0
  2  3  1  0
  2  7  1  0
  2  8  1  0
  3  9  1  0
 10 11  2  3
 10 14  1  0
 10 15  1  0
 11 12  1  0
 11 16  1  0
 12 13  2  0
M  RAD  1  12   2
M  END
>  <reaction>  (14) 
rxn_1904

>  <mol_properties>  (14) 
{"1": {"label": "*3", "atom_type": "Cs"}, "2": {"label": "*4", "atom_type": "S2s"}, "6": {"label": "*2", "atom_type": "H0"}, "11": {"label": "*1", "atom_type": "CS"}, "12": {"label": "*0", "atom_type": "S2d"}}

>  <type>  (14) 
unop_10

>  <geom_source>  (14) 
Heuristics

$$$$

     RDKit          3D

 16 14  0  0  0  0  0  0  0  0999 V2000
   -1.2566    0.3657   -2.2135 C   0  0  0  0  0  0  0  0  0  0  0  0
   -1.2566    0.3657   -0.6948 C   0  0  0  0  0  0  0  0  0  0  0  0
   -1.2566    2.0231    0.0502 S   0  0  0  0  0  0  0  0  0  0  0  0
   -0.3500    0.8311   -2.6042 H   0  0  0  0  0  0  0  0  0  0  0  0
   -2.1126    0.9169   -2.6036 H   0  0  0  0  0  0  0  0  0  0  0  0
   -1.2997   -0.6577   -2.5938 H   0  0  0  0  0  0  0  0  0  0  0  0
   -0.2447   -0.3136   -0.2207 H   0  0  0  0  0  0  0  0  0  0  0  0
   -2.1642   -0.1014   -0.3097 H   0  0  0  0  0  0  0  0  0  0  0  0
   -0.0818    2.4247   -0.4534 H   0  0  0  0  0  0  0  0  0  0  0  0
   -0.6763   -2.0581    1.8979 C   0  0  0  0  0  0  0  0  0  0  0  0
    0.5315   -1.6274    1.5379 C   0  0  0  0  0  0  0  0  0  0  0  0
    0.7688   -0.9940    0.2542 C   0  0  0  0  0  3  0  0  0  0  0  0
    2.1941   -0.4430   -0.2650 S   0  0  0  0  0  0  0  0  0  0  0  0
   -0.8480   -2.5299    2.8567 H   0  0  0  0  0  0  0  0  0  0  0  0
   -1.5316   -1.9503    1.2400 H   0  0  0  0  0  0  0  0  0  0  0  0
    1.3864   -1.7354    2.1960 H   0  0  0  0  0  0  0  0  0  0  0  0
  1  2  1  0
  1  4  1  0
  1  5  1  0
  1  6  1  0
  2  3  1  0
  2  7  1  0
  2  8  1  0
  3  9  1  0
 10 11  2  3
 10 14  1  0
 10 15  1  0
 11 12  1  0
 11 16  1  0
 12 13  2  0
M  RAD  1  12   2
M  END
>  <reaction>  (15) 
rxn_1904

>  <mol_properties>  (15) 
{"1": {"label": "*3", "atom_type": "Cs"}, "2": {"label": "*4", "atom_type": "S2s"}, "6": {"label": "*2", "atom_type": "H0"}, "11": {"label": "*1", "atom_type": "CS"}, "12": {"label": "*0", "atom_type": "S2d"}}

>  <type>  (15) 
unop_11

>  <geom_source>  (15) 
Heuristics

$$$$

     RDKit          3D

 16 14  0  0  0  0  0  0  0  0999 V2000
   -1.2959    0.4582   -2.0687 C   0  0  0  0  0  0  0  0  0  0  0  0
   -1.2959    0.4582   -0.5501 C   0  0  0  0  0  0  0  0  0  0  0  0
   -1.2959    2.1156    0.1949 S   0  0  0  0  0  0  0  0  0  0  0  0
   -0.3893    0.9236   -2.4595 H   0  0  0  0  0  0  0  0  0  0  0  0
   -2.1519    1.0094   -2.4588 H   0  0  0  0  0  0  0  0  0  0  0  0
   -1.3390   -0.5651   -2.4490 H   0  0  0  0  0  0  0  0  0  0  0  0
   -0.2840   -0.2211   -0.0759 H   0  0  0  0  0  0  0  0  0  0  0  0
   -2.2035   -0.0088   -0.1649 H   0  0  0  0  0  0  0  0  0  0  0  0
   -0.1211    2.5173   -0.3086 H   0  0  0  0  0  0  0  0  0  0  0  0
    1.3695   -1.3312   -1.9094 C   0  0  0  0  0  0  0  0  0  0  0  0
    1.5983   -1.4848   -0.6062 C   0  0  0  0  0  0  0  0  0  0  0  0
    0.7295   -0.9015    0.3989 C   0  0  0  0  0  3  0  0  0  0  0  0
    0.9283   -1.0350    1.9950 S   0  0  0  0  0  0  0  0  0  0  0  0
    2.0207   -1.7684   -2.6551 H   0  0  0  0  0  0  0  0  0  0  0  0
    0.5200   -0.7609   -2.2683 H   0  0  0  0  0  0  0  0  0  0  0  0
    2.4478   -2.0551   -0.2476 H   0  0  0  0  0  0  0  0  0  0  0  0
  1  2  1  0
  1  4  1  0
  1  5  1  0
  1  6  1  0
  2  3  1  0
  2  7  1  0
  2  8  1  0
  3  9  1  0
 10 11  2  3
 10 14  1  0
 10 15  1  0
 11 12  1  0
 11 16  1  0
 12 13  2  0
M  RAD  1  12   2
M  END
>  <reaction>  (16) 
rxn_1904

>  <mol_properties>  (16) 
{"1": {"label": "*3", "atom_type": "Cs"}, "2": {"label": "*4", "atom_type": "S2s"}, "6": {"label": "*2", "atom_type": "H0"}, "11": {"label": "*1", "atom_type": "CS"}, "12": {"label": "*0", "atom_type": "S2d"}}

>  <type>  (16) 
unop_12

>  <geom_source>  (16) 
Heuristics

$$$$

     RDKit          3D

 16 14  0  0  0  0  0  0  0  0999 V2000
   -3.0741   -1.4614    0.1292 S   0  0  0  0  0  0  0  0  0  0  0  0
    0.6702   -0.1536   -2.2899 S   0  0  0  0  0  0  0  0  0  0  0  0
   -1.6244    0.8384    0.5501 C   0  0  0  0  0  0  0  0  0  0  0  0
   -1.5012   -0.6763    0.5956 C   0  0  0  0  0  3  0  0  0  0  0  0
    1.9742   -0.1106    0.1222 C   0  0  0  0  0  0  0  0  0  0  0  0
    3.0966    0.3943   -0.3903 C   0  0  0  0  0  0  0  0  0  0  0  0
    0.7689   -0.4096   -0.6733 C   0  0  0  0  0  0  0  0  0  0  0  0
   -1.8778    1.1687   -0.4790 H   0  0  0  0  0  0  0  0  0  0  0  0
   -0.6559    1.2951    0.8420 H   0  0  0  0  0  0  0  0  0  0  0  0
   -2.4123    1.1810    1.2540 H   0  0  0  0  0  0  0  0  0  0  0  0
    1.9379   -0.3160    1.1843 H   0  0  0  0  0  0  0  0  0  0  0  0
   -1.2204   -0.9996    1.6200 H   0  0  0  0  0  0  0  0  0  0  0  0
    3.1955    0.6210   -1.4434 H   0  0  0  0  0  0  0  0  0  0  0  0
    3.9423    0.5880    0.2568 H   0  0  0  0  0  0  0  0  0  0  0  0
   -0.2643   -0.8993   -0.0636 H   0  0  0  0  0  0  0  0  0  0  0  0
   -2.9553   -1.0599   -1.2149 H   0  0  0  0  0  0  0  0  0  0  0  0
  1  4  1  0
  1 16  1  0
  2  7  2  0
  3  4  1  0
  3  8  1  0
  3  9  1  0
  3 10  1  0
  4 12  1  0
  5  6  2  3
  5  7  1  0
  5 11  1  0
  6 13  1  0
  6 14  1  0
  7 15  1  0
M  RAD  1   4   2
M  END
>  <reaction>  (17) 
rxn_1904

>  <mol_properties>  (17) 
{"1": {"label": "*3", "atom_type": "Cs"}, "2": {"label": "*4", "atom_type": "S2s"}, "6": {"label": "*2", "atom_type": "H0"}, "11": {"label": "*1", "atom_type": "CS"}, "12": {"label": "*0", "atom_type": "S2d"}}

>  <type>  (17) 
unop_13

>  <geom_source>  (17) 
AutoTST

$$$$
