
     RDKit          3D

 13 12  0  0  0  0  0  0  0  0999 V2000
    3.0977   -0.3549   -0.5105 C   0  0  0  0  0  0  0  0  0  0  0  0
    2.0556    0.4221   -0.2627 C   0  0  0  0  0  0  0  0  0  0  0  0
    0.6313   -0.0354   -0.2366 C   0  0  0  0  0  0  0  0  0  0  0  0
   -0.2567    0.6038   -1.2694 C   0  0  0  0  0  0  0  0  0  0  0  0
    0.1459    1.3456   -2.2891 C   0  0  0  0  0  0  0  0  0  0  0  0
    4.1081    0.0344   -0.5074 H   0  0  0  0  0  0  0  0  0  0  0  0
    2.9777   -1.4116   -0.7243 H   0  0  0  0  0  0  0  0  0  0  0  0
    2.2171    1.4781   -0.0618 H   0  0  0  0  0  0  0  0  0  0  0  0
    0.5865   -1.1233   -0.3540 H   0  0  0  0  0  0  0  0  0  0  0  0
    0.2065    0.1743    0.7521 H   0  0  0  0  0  0  0  0  0  0  0  0
   -1.3190    0.4126   -1.1445 H   0  0  0  0  0  0  0  0  0  0  0  0
    1.1948    1.5564   -2.4628 H   0  0  0  0  0  0  0  0  0  0  0  0
   -0.5644    1.7621   -2.9918 H   0  0  0  0  0  0  0  0  0  0  0  0
  1  2  2  3
  1  6  1  0
  1  7  1  0
  2  3  1  0
  2  8  1  0
  3  4  1  0
  3  9  1  0
  3 10  1  0
  4  5  2  3
  4 11  1  0
  5 12  1  0
  5 13  1  0
M  END
>  <reaction>  (1) 
rxn_1149

>  <mol_properties>  (1) 
{"2": {"label": "donator", "atom_type": "Cs"}, "8": {"label": "d_hydrogen", "atom_type": "H0"}}

>  <type>  (1) 
r1h

$$$$

     RDKit          3D

 11 10  0  0  0  0  0  0  0  0999 V2000
    1.0781   -1.0166   -0.1159 C   0  0  0  0  0  0  0  0  0  0  0  0
    0.2180    0.1942   -0.2297 C   0  0  0  0  0  3  0  0  0  0  0  0
    0.9343    1.7769   -0.3011 S   0  0  0  0  0  0  0  0  0  0  0  0
   -1.1949    0.1490    0.2439 C   0  0  0  0  0  0  0  0  0  0  0  0
    1.4718   -1.1461    0.9024 H   0  0  0  0  0  0  0  0  0  0  0  0
    1.9367   -0.9751   -0.7902 H   0  0  0  0  0  0  0  0  0  0  0  0
    0.5033   -1.9136   -0.3576 H   0  0  0  0  0  0  0  0  0  0  0  0
    2.1166    1.4195   -0.8209 H   0  0  0  0  0  0  0  0  0  0  0  0
   -1.2620    0.0939    1.3399 H   0  0  0  0  0  0  0  0  0  0  0  0
   -1.7600    1.0270   -0.0739 H   0  0  0  0  0  0  0  0  0  0  0  0
   -1.6972   -0.7380   -0.1506 H   0  0  0  0  0  0  0  0  0  0  0  0
  1  2  1  0
  1  5  1  0
  1  6  1  0
  1  7  1  0
  2  4  1  0
  2  3  1  0
  3  8  1  0
  4  9  1  0
  4 10  1  0
  4 11  1  0
M  RAD  1   2   2
M  END
>  <reaction>  (2) 
rxn_1149

>  <mol_properties>  (2) 
{"1": {"label": "acceptor", "atom_type": "Cs"}}

>  <type>  (2) 
r2

$$$$

     RDKit          3D

 12 11  0  0  0  0  0  0  0  0999 V2000
    1.2394   -0.3763   -0.3020 C   0  0  0  0  0  0  0  0  0  0  0  0
    0.1007    0.3023    0.4464 C   0  0  0  0  0  0  0  0  0  0  0  0
   -0.1187    2.0399   -0.0725 S   0  0  0  0  0  0  0  0  0  0  0  0
   -1.1974   -0.4877    0.3552 C   0  0  0  0  0  0  0  0  0  0  0  0
    2.1681    0.1849   -0.2048 H   0  0  0  0  0  0  0  0  0  0  0  0
    1.0031   -0.4606   -1.3656 H   0  0  0  0  0  0  0  0  0  0  0  0
    1.3994   -1.3856    0.0860 H   0  0  0  0  0  0  0  0  0  0  0  0
    0.3796    0.4050    1.4981 H   0  0  0  0  0  0  0  0  0  0  0  0
   -0.4500    1.7779   -1.3452 H   0  0  0  0  0  0  0  0  0  0  0  0
   -1.0545   -1.4978    0.7479 H   0  0  0  0  0  0  0  0  0  0  0  0
   -1.5206   -0.5759   -0.6849 H   0  0  0  0  0  0  0  0  0  0  0  0
   -1.9957   -0.0054    0.9183 H   0  0  0  0  0  0  0  0  0  0  0  0
  1  2  1  0
  1  5  1  0
  1  6  1  0
  1  7  1  0
  2  4  1  0
  2  3  1  0
  2  8  1  0
  3  9  1  0
  4 10  1  0
  4 11  1  0
  4 12  1  0
M  END
>  <reaction>  (3) 
rxn_1149

>  <mol_properties>  (3) 
{"1": {"label": "acceptor", "atom_type": "Cs"}, "11": {"label": "a_hydrogen", "atom_type": "H0"}}

>  <type>  (3) 
r2h

$$$$

     RDKit          3D

 24 22  0  0  0  0  0  0  0  0999 V2000
   -0.4495    2.3666    0.9532 C   0  0  0  0  0  0  0  0  0  0  0  0
   -0.1352    1.4189   -0.1726 C   0  0  0  0  0  3  0  0  0  0  0  0
   -1.3612    1.4670   -1.4556 S   0  0  0  0  0  0  0  0  0  0  0  0
    1.3019    1.3697   -0.6113 C   0  0  0  0  0  0  0  0  0  0  0  0
   -1.4863    2.2733    1.2805 H   0  0  0  0  0  0  0  0  0  0  0  0
   -0.2786    3.4084    0.6606 H   0  0  0  0  0  0  0  0  0  0  0  0
    0.1999    2.1502    1.8044 H   0  0  0  0  0  0  0  0  0  0  0  0
   -0.8159    0.5197   -2.2313 H   0  0  0  0  0  0  0  0  0  0  0  0
    1.9457    1.1902    0.2536 H   0  0  0  0  0  0  0  0  0  0  0  0
    1.4706    0.5671   -1.3316 H   0  0  0  0  0  0  0  0  0  0  0  0
    1.6074    2.3125   -1.0770 H   0  0  0  0  0  0  0  0  0  0  0  0
   -0.4207   -2.4563   -1.1125 C   0  0  0  0  0  0  0  0  0  0  0  0
    0.2666   -1.8889   -0.1232 C   0  0  0  0  0  0  0  0  0  0  0  0
   -0.3257   -1.0499    0.9262 C   0  0  0  0  0  0  0  0  0  0  0  0
    0.3286   -0.9301    2.2391 C   0  0  0  0  0  0  0  0  0  0  0  0
    1.5648   -1.2998    2.5705 C   0  0  0  0  0  0  0  0  0  0  0  0
    0.0727   -3.0329   -1.8842 H   0  0  0  0  0  0  0  0  0  0  0  0
   -1.5003   -2.3703   -1.1719 H   0  0  0  0  0  0  0  0  0  0  0  0
    1.3464   -2.0032   -0.1135 H   0  0  0  0  0  0  0  0  0  0  0  0
   -0.2817    0.1344    0.4340 H   0  0  0  0  0  0  0  0  0  0  0  0
   -1.4078   -1.1641    0.9990 H   0  0  0  0  0  0  0  0  0  0  0  0
   -0.2741   -0.4404    2.9993 H   0  0  0  0  0  0  0  0  0  0  0  0
    2.2302   -1.8024    1.8794 H   0  0  0  0  0  0  0  0  0  0  0  0
    1.9471   -1.1204    3.5667 H   0  0  0  0  0  0  0  0  0  0  0  0
  1  2  1  0
  1  5  1  0
  1  6  1  0
  1  7  1  0
  2  4  1  0
  2  3  1  0
  3  8  1  0
  4  9  1  0
  4 10  1  0
  4 11  1  0
 12 13  2  3
 12 17  1  0
 12 18  1  0
 13 14  1  0
 13 19  1  0
 14 15  1  0
 14 20  1  0
 14 21  1  0
 15 16  2  3
 15 22  1  0
 16 23  1  0
 16 24  1  0
M  RAD  1   2   2
M  END
>  <reaction>  (4) 
rxn_1149

>  <mol_properties>  (4) 
{"1": {"label": "*3", "atom_type": "Cs"}, "2": {"label": "*4", "atom_type": "S2s"}, "12": {"label": "*0", "atom_type": "Cd"}, "13": {"label": "*1", "atom_type": "Cs"}, "19": {"label": "*2", "atom_type": "H0"}}

>  <type>  (4) 
ts

$$$$

     RDKit          3D

 24 22  0  0  0  0  0  0  0  0999 V2000
   -1.8008    1.8485    0.0834 C   0  0  0  0  0  0  0  0  0  0  0  0
   -0.5383    1.1011   -0.3225 C   0  0  0  0  0  0  0  0  0  0  0  0
   -0.1214    1.3677   -2.0808 S   0  0  0  0  0  0  0  0  0  0  0  0
    0.6350    1.4154    0.5952 C   0  0  0  0  0  0  0  0  0  0  0  0
   -2.6388    1.5926   -0.5641 H   0  0  0  0  0  0  0  0  0  0  0  0
   -1.6431    2.9282    0.0244 H   0  0  0  0  0  0  0  0  0  0  0  0
   -2.0699    1.6056    1.1146 H   0  0  0  0  0  0  0  0  0  0  0  0
    0.0938    2.6880   -1.9875 H   0  0  0  0  0  0  0  0  0  0  0  0
    0.3830    1.1695    1.6300 H   0  0  0  0  0  0  0  0  0  0  0  0
    1.5232    0.8526    0.3104 H   0  0  0  0  0  0  0  0  0  0  0  0
    0.8795    2.4797    0.5545 H   0  0  0  0  0  0  0  0  0  0  0  0
   -0.2983   -2.2666   -1.0041 C   0  0  0  0  0  0  0  0  0  0  0  0
   -0.2983   -2.2666    0.3192 C   0  0  0  0  0  0  0  0  0  0  0  0
   -0.2983   -1.0408    1.1772 C   0  0  0  0  0  3  0  0  0  0  0  0
    0.9114   -0.8865    2.0584 C   0  0  0  0  0  0  0  0  0  0  0  0
    2.0225   -1.6022    1.9859 C   0  0  0  0  0  0  0  0  0  0  0  0
   -0.3065   -3.1894   -1.5706 H   0  0  0  0  0  0  0  0  0  0  0  0
   -0.2920   -1.3412   -1.5701 H   0  0  0  0  0  0  0  0  0  0  0  0
   -0.2958   -3.2154    0.8497 H   0  0  0  0  0  0  0  0  0  0  0  0
   -0.4184    0.0311    0.4266 H   0  0  0  0  0  0  0  0  0  0  0  0
   -1.1863   -1.0543    1.8200 H   0  0  0  0  0  0  0  0  0  0  0  0
    0.8387   -0.1014    2.8061 H   0  0  0  0  0  0  0  0  0  0  0  0
    2.1480   -2.3890    1.2511 H   0  0  0  0  0  0  0  0  0  0  0  0
    2.8507   -1.4179    2.6583 H   0  0  0  0  0  0  0  0  0  0  0  0
  1  2  1  0
  1  5  1  0
  1  6  1  0
  1  7  1  0
  2  4  1  0
  2  3  1  0
  2 20  1  0
  3  8  1  0
  4  9  1  0
  4 10  1  0
  4 11  1  0
 12 13  2  3
 12 17  1  0
 12 18  1  0
 13 14  1  0
 13 19  1  0
 14 15  1  0
 14 21  1  0
 15 16  2  3
 15 22  1  0
 16 23  1  0
 16 24  1  0
M  RAD  1  14   2
M  END
>  <reaction>  (5) 
rxn_1149

>  <mol_properties>  (5) 
{"1": {"label": "*3", "atom_type": "Cs"}, "2": {"label": "*4", "atom_type": "S2s"}, "12": {"label": "*0", "atom_type": "Cd"}, "13": {"label": "*1", "atom_type": "Cs"}, "19": {"label": "*2", "atom_type": "H0"}}

>  <type>  (5) 
unop_1

>  <geom_source>  (5) 
Heuristics

$$$$

     RDKit          3D

 24 22  0  0  0  0  0  0  0  0999 V2000
   -1.4231    0.6764   -1.7015 C   0  0  0  0  0  0  0  0  0  0  0  0
   -0.6200    1.0322   -0.4582 C   0  0  0  0  0  0  0  0  0  0  0  0
    0.9190    1.9253   -0.8708 S   0  0  0  0  0  0  0  0  0  0  0  0
   -1.4557    1.7820    0.5699 C   0  0  0  0  0  0  0  0  0  0  0  0
   -0.8209    0.1159   -2.4157 H   0  0  0  0  0  0  0  0  0  0  0  0
   -1.7838    1.5810   -2.1971 H   0  0  0  0  0  0  0  0  0  0  0  0
   -2.2938    0.0737   -1.4305 H   0  0  0  0  0  0  0  0  0  0  0  0
    0.3298    3.0050   -1.4048 H   0  0  0  0  0  0  0  0  0  0  0  0
   -2.3267    1.1871    0.8568 H   0  0  0  0  0  0  0  0  0  0  0  0
   -0.8766    2.0051    1.4653 H   0  0  0  0  0  0  0  0  0  0  0  0
   -1.8175    2.7261    0.1552 H   0  0  0  0  0  0  0  0  0  0  0  0
   -0.3801   -2.3355   -1.1397 C   0  0  0  0  0  0  0  0  0  0  0  0
   -0.3801   -2.3355    0.1835 C   0  0  0  0  0  0  0  0  0  0  0  0
   -0.3801   -1.1097    1.0415 C   0  0  0  0  0  3  0  0  0  0  0  0
    0.8296   -0.9554    1.9227 C   0  0  0  0  0  0  0  0  0  0  0  0
    1.9408   -1.6711    1.8503 C   0  0  0  0  0  0  0  0  0  0  0  0
   -0.3883   -3.2583   -1.7063 H   0  0  0  0  0  0  0  0  0  0  0  0
   -0.3737   -1.4101   -1.7057 H   0  0  0  0  0  0  0  0  0  0  0  0
   -0.3775   -3.2843    0.7140 H   0  0  0  0  0  0  0  0  0  0  0  0
   -0.5002   -0.0378    0.2910 H   0  0  0  0  0  0  0  0  0  0  0  0
   -1.2681   -1.1232    1.6843 H   0  0  0  0  0  0  0  0  0  0  0  0
    0.7569   -0.1703    2.6704 H   0  0  0  0  0  0  0  0  0  0  0  0
    2.0662   -2.4579    1.1154 H   0  0  0  0  0  0  0  0  0  0  0  0
    2.7690   -1.4868    2.5226 H   0  0  0  0  0  0  0  0  0  0  0  0
  1  2  1  0
  1  5  1  0
  1  6  1  0
  1  7  1  0
  2  4  1  0
  2  3  1  0
  2 20  1  0
  3  8  1  0
  4  9  1  0
  4 10  1  0
  4 11  1  0
 12 13  2  3
 12 17  1  0
 12 18  1  0
 13 14  1  0
 13 19  1  0
 14 15  1  0
 14 21  1  0
 15 16  2  3
 15 22  1  0
 16 23  1  0
 16 24  1  0
M  RAD  1  14   2
M  END
>  <reaction>  (6) 
rxn_1149

>  <mol_properties>  (6) 
{"1": {"label": "*3", "atom_type": "Cs"}, "2": {"label": "*4", "atom_type": "S2s"}, "12": {"label": "*0", "atom_type": "Cd"}, "13": {"label": "*1", "atom_type": "Cs"}, "19": {"label": "*2", "atom_type": "H0"}}

>  <type>  (6) 
unop_2

>  <geom_source>  (6) 
Heuristics

$$$$

     RDKit          3D

 24 22  0  0  0  0  0  0  0  0999 V2000
   -1.1355    2.2399    0.5167 C   0  0  0  0  0  0  0  0  0  0  0  0
   -0.4150    1.1595   -0.2779 C   0  0  0  0  0  0  0  0  0  0  0  0
   -0.9626    1.1123   -2.0199 S   0  0  0  0  0  0  0  0  0  0  0  0
    1.0985    1.2727   -0.1593 C   0  0  0  0  0  0  0  0  0  0  0  0
   -2.2170    2.1297    0.4457 H   0  0  0  0  0  0  0  0  0  0  0  0
   -0.8697    3.2320    0.1437 H   0  0  0  0  0  0  0  0  0  0  0  0
   -0.8480    2.1905    1.5701 H   0  0  0  0  0  0  0  0  0  0  0  0
   -0.5310    2.3387   -2.3483 H   0  0  0  0  0  0  0  0  0  0  0  0
    1.4015    1.2166    0.8894 H   0  0  0  0  0  0  0  0  0  0  0  0
    1.6000    0.4772   -0.7093 H   0  0  0  0  0  0  0  0  0  0  0  0
    1.4438    2.2304   -0.5564 H   0  0  0  0  0  0  0  0  0  0  0  0
   -0.1751   -2.2082   -0.9595 C   0  0  0  0  0  0  0  0  0  0  0  0
   -0.1751   -2.2082    0.3637 C   0  0  0  0  0  0  0  0  0  0  0  0
   -0.1751   -0.9824    1.2217 C   0  0  0  0  0  3  0  0  0  0  0  0
    1.0346   -0.8280    2.1030 C   0  0  0  0  0  0  0  0  0  0  0  0
    2.1458   -1.5437    2.0305 C   0  0  0  0  0  0  0  0  0  0  0  0
   -0.1833   -3.1309   -1.5260 H   0  0  0  0  0  0  0  0  0  0  0  0
   -0.1687   -1.2827   -1.5255 H   0  0  0  0  0  0  0  0  0  0  0  0
   -0.1725   -3.1569    0.8943 H   0  0  0  0  0  0  0  0  0  0  0  0
   -0.2952    0.0896    0.4712 H   0  0  0  0  0  0  0  0  0  0  0  0
   -1.0631   -0.9959    1.8645 H   0  0  0  0  0  0  0  0  0  0  0  0
    0.9619   -0.0430    2.8507 H   0  0  0  0  0  0  0  0  0  0  0  0
    2.2713   -2.3306    1.2957 H   0  0  0  0  0  0  0  0  0  0  0  0
    2.9740   -1.3594    2.7029 H   0  0  0  0  0  0  0  0  0  0  0  0
  1  2  1  0
  1  5  1  0
  1  6  1  0
  1  7  1  0
  2  4  1  0
  2  3  1  0
  2 20  1  0
  3  8  1  0
  4  9  1  0
  4 10  1  0
  4 11  1  0
 12 13  2  3
 12 17  1  0
 12 18  1  0
 13 14  1  0
 13 19  1  0
 14 15  1  0
 14 21  1  0
 15 16  2  3
 15 22  1  0
 16 23  1  0
 16 24  1  0
M  RAD  1  14   2
M  END
>  <reaction>  (7) 
rxn_1149

>  <mol_properties>  (7) 
{"1": {"label": "*3", "atom_type": "Cs"}, "2": {"label": "*4", "atom_type": "S2s"}, "12": {"label": "*0", "atom_type": "Cd"}, "13": {"label": "*1", "atom_type": "Cs"}, "19": {"label": "*2", "atom_type": "H0"}}

>  <type>  (7) 
unop_3

>  <geom_source>  (7) 
Heuristics

$$$$

     RDKit          3D

 24 22  0  0  0  0  0  0  0  0999 V2000
    0.6232    1.1105   -1.7609 C   0  0  0  0  0  0  0  0  0  0  0  0
   -0.5492    1.0532   -0.7916 C   0  0  0  0  0  0  0  0  0  0  0  0
   -0.0983    1.6784    0.8644 S   0  0  0  0  0  0  0  0  0  0  0  0
   -1.7861    1.7469   -1.3451 C   0  0  0  0  0  0  0  0  0  0  0  0
    1.4919    0.5863   -1.3642 H   0  0  0  0  0  0  0  0  0  0  0  0
    0.9107    2.1469   -1.9543 H   0  0  0  0  0  0  0  0  0  0  0  0
    0.3475    0.6561   -2.7161 H   0  0  0  0  0  0  0  0  0  0  0  0
    0.1685    2.9365    0.4846 H   0  0  0  0  0  0  0  0  0  0  0  0
   -2.0786    1.2970   -2.2973 H   0  0  0  0  0  0  0  0  0  0  0  0
   -2.6248    1.6737   -0.6536 H   0  0  0  0  0  0  0  0  0  0  0  0
   -1.5844    2.8060   -1.5236 H   0  0  0  0  0  0  0  0  0  0  0  0
   -0.3093   -2.3145   -1.4732 C   0  0  0  0  0  0  0  0  0  0  0  0
   -0.3093   -2.3145   -0.1499 C   0  0  0  0  0  0  0  0  0  0  0  0
   -0.3093   -1.0887    0.7081 C   0  0  0  0  0  3  0  0  0  0  0  0
    0.9004   -0.9343    1.5893 C   0  0  0  0  0  0  0  0  0  0  0  0
    2.0116   -1.6500    1.5169 C   0  0  0  0  0  0  0  0  0  0  0  0
   -0.3175   -3.2372   -2.0397 H   0  0  0  0  0  0  0  0  0  0  0  0
   -0.3030   -1.3890   -2.0391 H   0  0  0  0  0  0  0  0  0  0  0  0
   -0.3068   -3.2632    0.3806 H   0  0  0  0  0  0  0  0  0  0  0  0
   -0.4294   -0.0167   -0.0425 H   0  0  0  0  0  0  0  0  0  0  0  0
   -1.1973   -1.1022    1.3509 H   0  0  0  0  0  0  0  0  0  0  0  0
    0.8277   -0.1493    2.3370 H   0  0  0  0  0  0  0  0  0  0  0  0
    2.1370   -2.4369    0.7820 H   0  0  0  0  0  0  0  0  0  0  0  0
    2.8398   -1.4657    2.1892 H   0  0  0  0  0  0  0  0  0  0  0  0
  1  2  1  0
  1  5  1  0
  1  6  1  0
  1  7  1  0
  2  4  1  0
  2  3  1  0
  2 20  1  0
  3  8  1  0
  4  9  1  0
  4 10  1  0
  4 11  1  0
 12 13  2  3
 12 17  1  0
 12 18  1  0
 13 14  1  0
 13 19  1  0
 14 15  1  0
 14 21  1  0
 15 16  2  3
 15 22  1  0
 16 23  1  0
 16 24  1  0
M  RAD  1  14   2
M  END
>  <reaction>  (8) 
rxn_1149

>  <mol_properties>  (8) 
{"1": {"label": "*3", "atom_type": "Cs"}, "2": {"label": "*4", "atom_type": "S2s"}, "12": {"label": "*0", "atom_type": "Cd"}, "13": {"label": "*1", "atom_type": "Cs"}, "19": {"label": "*2", "atom_type": "H0"}}

>  <type>  (8) 
unop_4

>  <geom_source>  (8) 
Heuristics

$$$$

     RDKit          3D

 24 22  0  0  0  0  0  0  0  0999 V2000
   -0.2001    2.4341    0.5163 C   0  0  0  0  0  0  0  0  0  0  0  0
   -0.2027    1.2026   -0.3786 C   0  0  0  0  0  0  0  0  0  0  0  0
   -1.8243    0.9419   -1.1779 S   0  0  0  0  0  0  0  0  0  0  0  0
    0.9342    1.2260   -1.3907 C   0  0  0  0  0  0  0  0  0  0  0  0
   -1.0011    2.3905    1.2535 H   0  0  0  0  0  0  0  0  0  0  0  0
   -0.3347    3.3409   -0.0785 H   0  0  0  0  0  0  0  0  0  0  0  0
    0.7543    2.5180    1.0426 H   0  0  0  0  0  0  0  0  0  0  0  0
   -1.8240    2.0748   -1.8955 H   0  0  0  0  0  0  0  0  0  0  0  0
    1.8965    1.3014   -0.8777 H   0  0  0  0  0  0  0  0  0  0  0  0
    0.9371    0.3263   -2.0049 H   0  0  0  0  0  0  0  0  0  0  0  0
    0.8401    2.0897   -2.0535 H   0  0  0  0  0  0  0  0  0  0  0  0
    0.0372   -2.1651   -1.0601 C   0  0  0  0  0  0  0  0  0  0  0  0
    0.0372   -2.1651    0.2631 C   0  0  0  0  0  0  0  0  0  0  0  0
    0.0372   -0.9393    1.1211 C   0  0  0  0  0  3  0  0  0  0  0  0
    1.2469   -0.7849    2.0023 C   0  0  0  0  0  0  0  0  0  0  0  0
    2.3581   -1.5006    1.9299 C   0  0  0  0  0  0  0  0  0  0  0  0
    0.0291   -3.0878   -1.6267 H   0  0  0  0  0  0  0  0  0  0  0  0
    0.0436   -1.2397   -1.6261 H   0  0  0  0  0  0  0  0  0  0  0  0
    0.0398   -3.1139    0.7936 H   0  0  0  0  0  0  0  0  0  0  0  0
   -0.0828    0.1327    0.3706 H   0  0  0  0  0  0  0  0  0  0  0  0
   -0.8507   -0.9528    1.7639 H   0  0  0  0  0  0  0  0  0  0  0  0
    1.1743    0.0001    2.7500 H   0  0  0  0  0  0  0  0  0  0  0  0
    2.4836   -2.2875    1.1950 H   0  0  0  0  0  0  0  0  0  0  0  0
    3.1863   -1.3163    2.6022 H   0  0  0  0  0  0  0  0  0  0  0  0
  1  2  1  0
  1  5  1  0
  1  6  1  0
  1  7  1  0
  2  4  1  0
  2  3  1  0
  2 20  1  0
  3  8  1  0
  4  9  1  0
  4 10  1  0
  4 11  1  0
 12 13  2  3
 12 17  1  0
 12 18  1  0
 13 14  1  0
 13 19  1  0
 14 15  1  0
 14 21  1  0
 15 16  2  3
 15 22  1  0
 16 23  1  0
 16 24  1  0
M  RAD  1  14   2
M  END
>  <reaction>  (9) 
rxn_1149

>  <mol_properties>  (9) 
{"1": {"label": "*3", "atom_type": "Cs"}, "2": {"label": "*4", "atom_type": "S2s"}, "12": {"label": "*0", "atom_type": "Cd"}, "13": {"label": "*1", "atom_type": "Cs"}, "19": {"label": "*2", "atom_type": "H0"}}

>  <type>  (9) 
unop_5

>  <geom_source>  (9) 
Heuristics

$$$$

     RDKit          3D

 24 22  0  0  0  0  0  0  0  0999 V2000
    0.9897    1.5678   -1.2332 C   0  0  0  0  0  0  0  0  0  0  0  0
   -0.3986    1.0851   -0.8368 C   0  0  0  0  0  0  0  0  0  0  0  0
   -0.7732    1.4447    0.9145 S   0  0  0  0  0  0  0  0  0  0  0  0
   -1.4785    1.6138   -1.7705 C   0  0  0  0  0  0  0  0  0  0  0  0
    1.7549    1.1594   -0.5740 H   0  0  0  0  0  0  0  0  0  0  0  0
    1.0454    2.6580   -1.1839 H   0  0  0  0  0  0  0  0  0  0  0  0
    1.2165    1.2673   -2.2593 H   0  0  0  0  0  0  0  0  0  0  0  0
   -0.7253    2.7806    0.8091 H   0  0  0  0  0  0  0  0  0  0  0  0
   -1.2689    1.3136   -2.8004 H   0  0  0  0  0  0  0  0  0  0  0  0
   -2.4624    1.2380   -1.4921 H   0  0  0  0  0  0  0  0  0  0  0  0
   -1.5108    2.7057   -1.7404 H   0  0  0  0  0  0  0  0  0  0  0  0
   -0.1587   -2.2826   -1.5183 C   0  0  0  0  0  0  0  0  0  0  0  0
   -0.1587   -2.2826   -0.1951 C   0  0  0  0  0  0  0  0  0  0  0  0
   -0.1587   -1.0568    0.6629 C   0  0  0  0  0  3  0  0  0  0  0  0
    1.0510   -0.9024    1.5441 C   0  0  0  0  0  0  0  0  0  0  0  0
    2.1622   -1.6181    1.4717 C   0  0  0  0  0  0  0  0  0  0  0  0
   -0.1669   -3.2053   -2.0849 H   0  0  0  0  0  0  0  0  0  0  0  0
   -0.1524   -1.3571   -2.0843 H   0  0  0  0  0  0  0  0  0  0  0  0
   -0.1561   -3.2313    0.3354 H   0  0  0  0  0  0  0  0  0  0  0  0
   -0.2788    0.0152   -0.0876 H   0  0  0  0  0  0  0  0  0  0  0  0
   -1.0467   -1.0703    1.3057 H   0  0  0  0  0  0  0  0  0  0  0  0
    0.9783   -0.1174    2.2918 H   0  0  0  0  0  0  0  0  0  0  0  0
    2.2876   -2.4050    0.7368 H   0  0  0  0  0  0  0  0  0  0  0  0
    2.9904   -1.4338    2.1440 H   0  0  0  0  0  0  0  0  0  0  0  0
  1  2  1  0
  1  5  1  0
  1  6  1  0
  1  7  1  0
  2  4  1  0
  2  3  1  0
  2 20  1  0
  3  8  1  0
  4  9  1  0
  4 10  1  0
  4 11  1  0
 12 13  2  3
 12 17  1  0
 12 18  1  0
 13 14  1  0
 13 19  1  0
 14 15  1  0
 14 21  1  0
 15 16  2  3
 15 22  1  0
 16 23  1  0
 16 24  1  0
M  RAD  1  14   2
M  END
>  <reaction>  (10) 
rxn_1149

>  <mol_properties>  (10) 
{"1": {"label": "*3", "atom_type": "Cs"}, "2": {"label": "*4", "atom_type": "S2s"}, "12": {"label": "*0", "atom_type": "Cd"}, "13": {"label": "*1", "atom_type": "Cs"}, "19": {"label": "*2", "atom_type": "H0"}}

>  <type>  (10) 
unop_6

>  <geom_source>  (10) 
Heuristics

$$$$

     RDKit          3D

 24 22  0  0  0  0  0  0  0  0999 V2000
    0.9777    2.0224   -0.5810 C   0  0  0  0  0  0  0  0  0  0  0  0
   -0.2424    1.1359   -0.7882 C   0  0  0  0  0  0  0  0  0  0  0  0
   -1.3771    1.1892    0.6422 S   0  0  0  0  0  0  0  0  0  0  0  0
   -0.9592    1.4424   -2.0958 C   0  0  0  0  0  0  0  0  0  0  0  0
    1.4966    1.7731    0.3440 H   0  0  0  0  0  0  0  0  0  0  0  0
    0.6842    3.0739   -0.5333 H   0  0  0  0  0  0  0  0  0  0  0  0
    1.6755    1.9073   -1.4144 H   0  0  0  0  0  0  0  0  0  0  0  0
   -1.6878    2.4899    0.5414 H   0  0  0  0  0  0  0  0  0  0  0  0
   -0.2749    1.3233   -2.9399 H   0  0  0  0  0  0  0  0  0  0  0  0
   -1.8130    0.7821   -2.2444 H   0  0  0  0  0  0  0  0  0  0  0  0
   -1.3217    2.4732   -2.1021 H   0  0  0  0  0  0  0  0  0  0  0  0
   -0.0025   -2.2318   -1.4698 C   0  0  0  0  0  0  0  0  0  0  0  0
   -0.0025   -2.2318   -0.1466 C   0  0  0  0  0  0  0  0  0  0  0  0
   -0.0025   -1.0060    0.7114 C   0  0  0  0  0  3  0  0  0  0  0  0
    1.2072   -0.8517    1.5926 C   0  0  0  0  0  0  0  0  0  0  0  0
    2.3184   -1.5674    1.5202 C   0  0  0  0  0  0  0  0  0  0  0  0
   -0.0107   -3.1546   -2.0364 H   0  0  0  0  0  0  0  0  0  0  0  0
    0.0039   -1.3064   -2.0358 H   0  0  0  0  0  0  0  0  0  0  0  0
    0.0001   -3.1806    0.3839 H   0  0  0  0  0  0  0  0  0  0  0  0
   -0.1226    0.0659   -0.0391 H   0  0  0  0  0  0  0  0  0  0  0  0
   -0.8905   -1.0195    1.3542 H   0  0  0  0  0  0  0  0  0  0  0  0
    1.1345   -0.0666    2.3403 H   0  0  0  0  0  0  0  0  0  0  0  0
    2.4438   -2.3542    0.7853 H   0  0  0  0  0  0  0  0  0  0  0  0
    3.1466   -1.3831    2.1925 H   0  0  0  0  0  0  0  0  0  0  0  0
  1  2  1  0
  1  5  1  0
  1  6  1  0
  1  7  1  0
  2  4  1  0
  2  3  1  0
  2 20  1  0
  3  8  1  0
  4  9  1  0
  4 10  1  0
  4 11  1  0
 12 13  2  3
 12 17  1  0
 12 18  1  0
 13 14  1  0
 13 19  1  0
 14 15  1  0
 14 21  1  0
 15 16  2  3
 15 22  1  0
 16 23  1  0
 16 24  1  0
M  RAD  1  14   2
M  END
>  <reaction>  (11) 
rxn_1149

>  <mol_properties>  (11) 
{"1": {"label": "*3", "atom_type": "Cs"}, "2": {"label": "*4", "atom_type": "S2s"}, "12": {"label": "*0", "atom_type": "Cd"}, "13": {"label": "*1", "atom_type": "Cs"}, "19": {"label": "*2", "atom_type": "H0"}}

>  <type>  (11) 
unop_7

>  <geom_source>  (11) 
Heuristics

$$$$

     RDKit          3D

 24 22  0  0  0  0  0  0  0  0999 V2000
   -2.0531    1.3791   -0.5466 C   0  0  0  0  0  0  0  0  0  0  0  0
   -0.5746    1.0570   -0.3795 C   0  0  0  0  0  0  0  0  0  0  0  0
    0.4134    1.6195   -1.8092 S   0  0  0  0  0  0  0  0  0  0  0  0
   -0.0187    1.5790    0.9380 C   0  0  0  0  0  0  0  0  0  0  0  0
   -2.4440    0.9754   -1.4799 H   0  0  0  0  0  0  0  0  0  0  0  0
   -2.2120    2.4602   -0.5509 H   0  0  0  0  0  0  0  0  0  0  0  0
   -2.6282    0.9598    0.2830 H   0  0  0  0  0  0  0  0  0  0  0  0
    0.1720    2.9295   -1.6548 H   0  0  0  0  0  0  0  0  0  0  0  0
   -0.5796    1.1611    1.7780 H   0  0  0  0  0  0  0  0  0  0  0  0
    1.0321    1.3170    1.0567 H   0  0  0  0  0  0  0  0  0  0  0  0
   -0.1051    2.6673    0.9865 H   0  0  0  0  0  0  0  0  0  0  0  0
   -0.3347   -2.3107   -1.0611 C   0  0  0  0  0  0  0  0  0  0  0  0
   -0.3347   -2.3107    0.2621 C   0  0  0  0  0  0  0  0  0  0  0  0
   -0.3347   -1.0849    1.1201 C   0  0  0  0  0  3  0  0  0  0  0  0
    0.8750   -0.9305    2.0013 C   0  0  0  0  0  0  0  0  0  0  0  0
    1.9862   -1.6462    1.9289 C   0  0  0  0  0  0  0  0  0  0  0  0
   -0.3429   -3.2335   -1.6277 H   0  0  0  0  0  0  0  0  0  0  0  0
   -0.3283   -1.3853   -1.6271 H   0  0  0  0  0  0  0  0  0  0  0  0
   -0.3321   -3.2595    0.7926 H   0  0  0  0  0  0  0  0  0  0  0  0
   -0.4548   -0.0129    0.3696 H   0  0  0  0  0  0  0  0  0  0  0  0
   -1.2227   -1.0984    1.7629 H   0  0  0  0  0  0  0  0  0  0  0  0
    0.8023   -0.1455    2.7490 H   0  0  0  0  0  0  0  0  0  0  0  0
    2.1116   -2.4331    1.1940 H   0  0  0  0  0  0  0  0  0  0  0  0
    2.8144   -1.4619    2.6012 H   0  0  0  0  0  0  0  0  0  0  0  0
  1  2  1  0
  1  5  1  0
  1  6  1  0
  1  7  1  0
  2  4  1  0
  2  3  1  0
  2 20  1  0
  3  8  1  0
  4  9  1  0
  4 10  1  0
  4 11  1  0
 12 13  2  3
 12 17  1  0
 12 18  1  0
 13 14  1  0
 13 19  1  0
 14 15  1  0
 14 21  1  0
 15 16  2  3
 15 22  1  0
 16 23  1  0
 16 24  1  0
M  RAD  1  14   2
M  END
>  <reaction>  (12) 
rxn_1149

>  <mol_properties>  (12) 
{"1": {"label": "*3", "atom_type": "Cs"}, "2": {"label": "*4", "atom_type": "S2s"}, "12": {"label": "*0", "atom_type": "Cd"}, "13": {"label": "*1", "atom_type": "Cs"}, "19": {"label": "*2", "atom_type": "H0"}}

>  <type>  (12) 
unop_8

>  <geom_source>  (12) 
Heuristics

$$$$

     RDKit          3D

 24 22  0  0  0  0  0  0  0  0999 V2000
   -0.0164    0.7642   -2.0346 C   0  0  0  0  0  0  0  0  0  0  0  0
   -0.6467    1.0398   -0.6765 C   0  0  0  0  0  0  0  0  0  0  0  0
    0.5237    1.8492    0.4688 S   0  0  0  0  0  0  0  0  0  0  0  0
   -1.9531    1.8122   -0.7961 C   0  0  0  0  0  0  0  0  0  0  0  0
    0.9022    0.1869   -1.9357 H   0  0  0  0  0  0  0  0  0  0  0  0
    0.2241    1.7011   -2.5431 H   0  0  0  0  0  0  0  0  0  0  0  0
   -0.7114    0.2082   -2.6690 H   0  0  0  0  0  0  0  0  0  0  0  0
    0.6782    2.9754   -0.2425 H   0  0  0  0  0  0  0  0  0  0  0  0
   -2.6617    1.2634   -1.4218 H   0  0  0  0  0  0  0  0  0  0  0  0
   -2.4069    1.9775    0.1804 H   0  0  0  0  0  0  0  0  0  0  0  0
   -1.7816    2.7864   -1.2604 H   0  0  0  0  0  0  0  0  0  0  0  0
   -0.4067   -2.3279   -1.3581 C   0  0  0  0  0  0  0  0  0  0  0  0
   -0.4067   -2.3279   -0.0348 C   0  0  0  0  0  0  0  0  0  0  0  0
   -0.4067   -1.1021    0.8232 C   0  0  0  0  0  3  0  0  0  0  0  0
    0.8030   -0.9478    1.7044 C   0  0  0  0  0  0  0  0  0  0  0  0
    1.9141   -1.6635    1.6319 C   0  0  0  0  0  0  0  0  0  0  0  0
   -0.4149   -3.2507   -1.9246 H   0  0  0  0  0  0  0  0  0  0  0  0
   -0.4004   -1.4025   -1.9241 H   0  0  0  0  0  0  0  0  0  0  0  0
   -0.4042   -3.2767    0.4957 H   0  0  0  0  0  0  0  0  0  0  0  0
   -0.5268   -0.0302    0.0726 H   0  0  0  0  0  0  0  0  0  0  0  0
   -1.2947   -1.1156    1.4659 H   0  0  0  0  0  0  0  0  0  0  0  0
    0.7303   -0.1627    2.4521 H   0  0  0  0  0  0  0  0  0  0  0  0
    2.0396   -2.4503    0.8971 H   0  0  0  0  0  0  0  0  0  0  0  0
    2.7423   -1.4792    2.3043 H   0  0  0  0  0  0  0  0  0  0  0  0
  1  2  1  0
  1  5  1  0
  1  6  1  0
  1  7  1  0
  2  4  1  0
  2  3  1  0
  2 20  1  0
  3  8  1  0
  4  9  1  0
  4 10  1  0
  4 11  1  0
 12 13  2  3
 12 17  1  0
 12 18  1  0
 13 14  1  0
 13 19  1  0
 14 15  1  0
 14 21  1  0
 15 16  2  3
 15 22  1  0
 16 23  1  0
 16 24  1  0
M  RAD  1  14   2
M  END
>  <reaction>  (13) 
rxn_1149

>  <mol_properties>  (13) 
{"1": {"label": "*3", "atom_type": "Cs"}, "2": {"label": "*4", "atom_type": "S2s"}, "12": {"label": "*0", "atom_type": "Cd"}, "13": {"label": "*1", "atom_type": "Cs"}, "19": {"label": "*2", "atom_type": "H0"}}

>  <type>  (13) 
unop_9

>  <geom_source>  (13) 
Heuristics

$$$$

     RDKit          3D

 24 22  0  0  0  0  0  0  0  0999 V2000
   -1.8983    0.9540   -1.1882 C   0  0  0  0  0  0  0  0  0  0  0  0
   -0.5881    1.0357   -0.4175 C   0  0  0  0  0  0  0  0  0  0  0  0
    0.7373    1.8159   -1.4031 S   0  0  0  0  0  0  0  0  0  0  0  0
   -0.7603    1.7068    0.9381 C   0  0  0  0  0  0  0  0  0  0  0  0
   -1.7658    0.4467   -2.1432 H   0  0  0  0  0  0  0  0  0  0  0  0
   -2.2898    1.9548   -1.3865 H   0  0  0  0  0  0  0  0  0  0  0  0
   -2.6473    0.4113   -0.6057 H   0  0  0  0  0  0  0  0  0  0  0  0
    0.1545    3.0183   -1.5168 H   0  0  0  0  0  0  0  0  0  0  0  0
   -1.5013    1.1693    1.5354 H   0  0  0  0  0  0  0  0  0  0  0  0
    0.1787    1.7330    1.4899 H   0  0  0  0  0  0  0  0  0  0  0  0
   -1.1112    2.7344    0.8155 H   0  0  0  0  0  0  0  0  0  0  0  0
   -0.3481   -2.3320   -1.0991 C   0  0  0  0  0  0  0  0  0  0  0  0
   -0.3481   -2.3320    0.2242 C   0  0  0  0  0  0  0  0  0  0  0  0
   -0.3481   -1.1062    1.0822 C   0  0  0  0  0  3  0  0  0  0  0  0
    0.8616   -0.9518    1.9634 C   0  0  0  0  0  0  0  0  0  0  0  0
    1.9727   -1.6675    1.8909 C   0  0  0  0  0  0  0  0  0  0  0  0
   -0.3563   -3.2547   -1.6656 H   0  0  0  0  0  0  0  0  0  0  0  0
   -0.3418   -1.4065   -1.6651 H   0  0  0  0  0  0  0  0  0  0  0  0
   -0.3456   -3.2807    0.7547 H   0  0  0  0  0  0  0  0  0  0  0  0
   -0.4682   -0.0342    0.3316 H   0  0  0  0  0  0  0  0  0  0  0  0
   -1.2361   -1.1196    1.7249 H   0  0  0  0  0  0  0  0  0  0  0  0
    0.7889   -0.1668    2.7111 H   0  0  0  0  0  0  0  0  0  0  0  0
    2.0982   -2.4543    1.1561 H   0  0  0  0  0  0  0  0  0  0  0  0
    2.8009   -1.4832    2.5633 H   0  0  0  0  0  0  0  0  0  0  0  0
  1  2  1  0
  1  5  1  0
  1  6  1  0
  1  7  1  0
  2  4  1  0
  2  3  1  0
  2 20  1  0
  3  8  1  0
  4  9  1  0
  4 10  1  0
  4 11  1  0
 12 13  2  3
 12 17  1  0
 12 18  1  0
 13 14  1  0
 13 19  1  0
 14 15  1  0
 14 21  1  0
 15 16  2  3
 15 22  1  0
 16 23  1  0
 16 24  1  0
M  RAD  1  14   2
M  END
>  <reaction>  (14) 
rxn_1149

>  <mol_properties>  (14) 
{"1": {"label": "*3", "atom_type": "Cs"}, "2": {"label": "*4", "atom_type": "S2s"}, "12": {"label": "*0", "atom_type": "Cd"}, "13": {"label": "*1", "atom_type": "Cs"}, "19": {"label": "*2", "atom_type": "H0"}}

>  <type>  (14) 
unop_10

>  <geom_source>  (14) 
Heuristics

$$$$

     RDKit          3D

 24 22  0  0  0  0  0  0  0  0999 V2000
    0.5749    2.3491    0.0537 C   0  0  0  0  0  0  0  0  0  0  0  0
   -0.1381    1.1885   -0.6262 C   0  0  0  0  0  0  0  0  0  0  0  0
   -1.8468    0.9830   -0.0143 S   0  0  0  0  0  0  0  0  0  0  0  0
   -0.0851    1.2922   -2.1441 C   0  0  0  0  0  0  0  0  0  0  0  0
    0.5535    2.2472    1.1381 H   0  0  0  0  0  0  0  0  0  0  0  0
    0.0994    3.2976   -0.2080 H   0  0  0  0  0  0  0  0  0  0  0  0
    1.6172    2.3964   -0.2719 H   0  0  0  0  0  0  0  0  0  0  0  0
   -2.3062    2.1667   -0.4456 H   0  0  0  0  0  0  0  0  0  0  0  0
    0.9527    1.3321   -2.4851 H   0  0  0  0  0  0  0  0  0  0  0  0
   -0.5741    0.4413   -2.6171 H   0  0  0  0  0  0  0  0  0  0  0  0
   -0.5840    2.2030   -2.4840 H   0  0  0  0  0  0  0  0  0  0  0  0
    0.1019   -2.1792   -1.3078 C   0  0  0  0  0  0  0  0  0  0  0  0
    0.1019   -2.1792    0.0154 C   0  0  0  0  0  0  0  0  0  0  0  0
    0.1019   -0.9534    0.8734 C   0  0  0  0  0  3  0  0  0  0  0  0
    1.3116   -0.7990    1.7546 C   0  0  0  0  0  0  0  0  0  0  0  0
    2.4227   -1.5147    1.6822 C   0  0  0  0  0  0  0  0  0  0  0  0
    0.0937   -3.1020   -1.8744 H   0  0  0  0  0  0  0  0  0  0  0  0
    0.1082   -1.2538   -1.8738 H   0  0  0  0  0  0  0  0  0  0  0  0
    0.1044   -3.1280    0.5459 H   0  0  0  0  0  0  0  0  0  0  0  0
   -0.0182    0.1186    0.1229 H   0  0  0  0  0  0  0  0  0  0  0  0
   -0.7861   -0.9669    1.5162 H   0  0  0  0  0  0  0  0  0  0  0  0
    1.2389   -0.0140    2.5023 H   0  0  0  0  0  0  0  0  0  0  0  0
    2.5482   -2.3016    0.9473 H   0  0  0  0  0  0  0  0  0  0  0  0
    3.2509   -1.3304    2.3545 H   0  0  0  0  0  0  0  0  0  0  0  0
  1  2  1  0
  1  5  1  0
  1  6  1  0
  1  7  1  0
  2  4  1  0
  2  3  1  0
  2 20  1  0
  3  8  1  0
  4  9  1  0
  4 10  1  0
  4 11  1  0
 12 13  2  3
 12 17  1  0
 12 18  1  0
 13 14  1  0
 13 19  1  0
 14 15  1  0
 14 21  1  0
 15 16  2  3
 15 22  1  0
 16 23  1  0
 16 24  1  0
M  RAD  1  14   2
M  END
>  <reaction>  (15) 
rxn_1149

>  <mol_properties>  (15) 
{"1": {"label": "*3", "atom_type": "Cs"}, "2": {"label": "*4", "atom_type": "S2s"}, "12": {"label": "*0", "atom_type": "Cd"}, "13": {"label": "*1", "atom_type": "Cs"}, "19": {"label": "*2", "atom_type": "H0"}}

>  <type>  (15) 
unop_11

>  <geom_source>  (15) 
Heuristics

$$$$

     RDKit          3D

 24 22  0  0  0  0  0  0  0  0999 V2000
   -0.7530    0.6083   -2.0029 C   0  0  0  0  0  0  0  0  0  0  0  0
   -0.6602    1.0351   -0.5446 C   0  0  0  0  0  0  0  0  0  0  0  0
    0.8897    1.9355   -0.1930 S   0  0  0  0  0  0  0  0  0  0  0  0
   -1.8873    1.8165   -0.0959 C   0  0  0  0  0  0  0  0  0  0  0  0
    0.1181    0.0265   -2.3021 H   0  0  0  0  0  0  0  0  0  0  0  0
   -0.8179    1.4827   -2.6551 H   0  0  0  0  0  0  0  0  0  0  0  0
   -1.6490    0.0034   -2.1643 H   0  0  0  0  0  0  0  0  0  0  0  0
    0.6457    2.9789   -0.9992 H   0  0  0  0  0  0  0  0  0  0  0  0
   -2.7912    1.2200   -0.2440 H   0  0  0  0  0  0  0  0  0  0  0  0
   -1.8201    2.0907    0.9563 H   0  0  0  0  0  0  0  0  0  0  0  0
   -1.9926    2.7339   -0.6802 H   0  0  0  0  0  0  0  0  0  0  0  0
   -0.4203   -2.3326   -1.2262 C   0  0  0  0  0  0  0  0  0  0  0  0
   -0.4203   -2.3326    0.0971 C   0  0  0  0  0  0  0  0  0  0  0  0
   -0.4203   -1.1068    0.9551 C   0  0  0  0  0  3  0  0  0  0  0  0
    0.7894   -0.9524    1.8363 C   0  0  0  0  0  0  0  0  0  0  0  0
    1.9006   -1.6681    1.7638 C   0  0  0  0  0  0  0  0  0  0  0  0
   -0.4285   -3.2553   -1.7927 H   0  0  0  0  0  0  0  0  0  0  0  0
   -0.4139   -1.4071   -1.7922 H   0  0  0  0  0  0  0  0  0  0  0  0
   -0.4177   -3.2813    0.6276 H   0  0  0  0  0  0  0  0  0  0  0  0
   -0.5404   -0.0348    0.2045 H   0  0  0  0  0  0  0  0  0  0  0  0
   -1.3083   -1.1203    1.5978 H   0  0  0  0  0  0  0  0  0  0  0  0
    0.7167   -0.1674    2.5840 H   0  0  0  0  0  0  0  0  0  0  0  0
    2.0261   -2.4550    1.0290 H   0  0  0  0  0  0  0  0  0  0  0  0
    2.7288   -1.4838    2.4362 H   0  0  0  0  0  0  0  0  0  0  0  0
  1  2  1  0
  1  5  1  0
  1  6  1  0
  1  7  1  0
  2  4  1  0
  2  3  1  0
  2 20  1  0
  3  8  1  0
  4  9  1  0
  4 10  1  0
  4 11  1  0
 12 13  2  3
 12 17  1  0
 12 18  1  0
 13 14  1  0
 13 19  1  0
 14 15  1  0
 14 21  1  0
 15 16  2  3
 15 22  1  0
 16 23  1  0
 16 24  1  0
M  RAD  1  14   2
M  END
>  <reaction>  (16) 
rxn_1149

>  <mol_properties>  (16) 
{"1": {"label": "*3", "atom_type": "Cs"}, "2": {"label": "*4", "atom_type": "S2s"}, "12": {"label": "*0", "atom_type": "Cd"}, "13": {"label": "*1", "atom_type": "Cs"}, "19": {"label": "*2", "atom_type": "H0"}}

>  <type>  (16) 
unop_12

>  <geom_source>  (16) 
Heuristics

$$$$

     RDKit          3D

 24 22  0  0  0  0  0  0  0  0999 V2000
    1.8732    1.9314    0.1816 S   0  0  0  0  0  0  0  0  0  0  0  0
    1.6132    0.1346    0.0142 C   0  0  0  0  0  0  0  0  0  0  0  0
    1.9138   -0.5539    1.3437 C   0  0  0  0  0  0  0  0  0  0  0  0
    2.4966   -0.4214   -1.1018 C   0  0  0  0  0  0  0  0  0  0  0  0
   -1.0303    0.0099    0.0095 C   0  0  0  0  0  3  0  0  0  0  0  0
   -1.9356    1.1430   -0.3600 C   0  0  0  0  0  0  0  0  0  0  0  0
   -1.8128   -1.2390    0.2848 C   0  0  0  0  0  0  0  0  0  0  0  0
   -1.9692    1.6053   -1.6101 C   0  0  0  0  0  0  0  0  0  0  0  0
   -2.5235   -1.3889    1.4061 C   0  0  0  0  0  0  0  0  0  0  0  0
    0.3787   -0.0756   -0.2880 H   0  0  0  0  0  0  0  0  0  0  0  0
    1.7285   -1.6457    1.2584 H   0  0  0  0  0  0  0  0  0  0  0  0
    1.2490   -0.1490    2.1357 H   0  0  0  0  0  0  0  0  0  0  0  0
    2.9716   -0.3873    1.6408 H   0  0  0  0  0  0  0  0  0  0  0  0
    2.2429    0.0692   -2.0650 H   0  0  0  0  0  0  0  0  0  0  0  0
    2.3274   -1.5133   -1.2138 H   0  0  0  0  0  0  0  0  0  0  0  0
    3.5699   -0.2416   -0.8774 H   0  0  0  0  0  0  0  0  0  0  0  0
   -2.5838    1.5800    0.3939 H   0  0  0  0  0  0  0  0  0  0  0  0
   -0.3908    0.2820    0.8763 H   0  0  0  0  0  0  0  0  0  0  0  0
   -1.7934   -2.0396   -0.4476 H   0  0  0  0  0  0  0  0  0  0  0  0
   -1.3359    1.1758   -2.3809 H   0  0  0  0  0  0  0  0  0  0  0  0
   -2.6359    2.4212   -1.8697 H   0  0  0  0  0  0  0  0  0  0  0  0
   -3.0787   -2.3051    1.5788 H   0  0  0  0  0  0  0  0  0  0  0  0
   -2.5563   -0.6035    2.1553 H   0  0  0  0  0  0  0  0  0  0  0  0
    1.2815    2.2117   -1.0649 H   0  0  0  0  0  0  0  0  0  0  0  0
  1  2  1  0
  1 24  1  0
  2  3  1  0
  2  4  1  0
  2 10  1  0
  3 11  1  0
  3 12  1  0
  3 13  1  0
  4 14  1  0
  4 15  1  0
  4 16  1  0
  5  6  1  0
  5  7  1  0
  5 18  1  0
  6  8  2  3
  6 17  1  0
  7  9  2  3
  7 19  1  0
  8 20  1  0
  8 21  1  0
  9 22  1  0
  9 23  1  0
M  RAD  1   5   2
M  END
>  <reaction>  (17) 
rxn_1149

>  <mol_properties>  (17) 
{"1": {"label": "*3", "atom_type": "Cs"}, "2": {"label": "*4", "atom_type": "S2s"}, "12": {"label": "*0", "atom_type": "Cd"}, "13": {"label": "*1", "atom_type": "Cs"}, "19": {"label": "*2", "atom_type": "H0"}}

>  <type>  (17) 
unop_13

>  <geom_source>  (17) 
AutoTST

$$$$
