
     RDKit          3D

  3  2  0  0  0  0  0  0  0  0999 V2000
   -0.0003    0.3867    0.0000 O   0  0  0  0  0  0  0  0  0  0  0  0
   -0.7617   -0.1940    0.0000 H   0  0  0  0  0  0  0  0  0  0  0  0
    0.7620   -0.1927    0.0000 H   0  0  0  0  0  0  0  0  0  0  0  0
  1  2  1  0
  1  3  1  0
M  END
>  <reaction>  (1) 
rxn_383

>  <mol_properties>  (1) 
{"0": {"label": "donator", "atom_type": "O2s"}, "1": {"label": "d_hydrogen", "atom_type": "H0"}}

>  <type>  (1) 
r1h

$$$$

     RDKit          3D

  5  4  0  0  0  0  0  0  0  0999 V2000
    0.0397    0.7134    0.0000 C   0  0  0  0  0  3  0  0  0  0  0  0
    0.0458   -0.5870    0.0000 C   0  0  0  0  0  0  0  0  0  0  0  0
   -0.6871    1.5118    0.0000 H   0  0  0  0  0  0  0  0  0  0  0  0
   -0.8806   -1.1637    0.0000 H   0  0  0  0  0  0  0  0  0  0  0  0
    0.9690   -1.1600    0.0000 H   0  0  0  0  0  0  0  0  0  0  0  0
  1  2  2  3
  1  3  1  0
  2  4  1  0
  2  5  1  0
M  RAD  1   1   2
M  END
>  <reaction>  (2) 
rxn_383

>  <mol_properties>  (2) 
{"0": {"label": "acceptor", "atom_type": "Cd"}}

>  <type>  (2) 
r2

$$$$

     RDKit          3D

  6  5  0  0  0  0  0  0  0  0999 V2000
    0.6594    0.0438   -0.0050 C   0  0  0  0  0  0  0  0  0  0  0  0
   -0.6594   -0.0438    0.0050 C   0  0  0  0  0  0  0  0  0  0  0  0
    1.1706    0.8681   -0.4881 H   0  0  0  0  0  0  0  0  0  0  0  0
    1.2824   -0.7051    0.4696 H   0  0  0  0  0  0  0  0  0  0  0  0
   -1.2824    0.7051   -0.4696 H   0  0  0  0  0  0  0  0  0  0  0  0
   -1.1706   -0.8681    0.4881 H   0  0  0  0  0  0  0  0  0  0  0  0
  1  2  2  3
  1  3  1  0
  1  4  1  0
  2  5  1  0
  2  6  1  0
M  END
>  <reaction>  (3) 
rxn_383

>  <mol_properties>  (3) 
{"0": {"label": "a_hydrogen", "atom_type": "H0"}, "1": {"label": "acceptor", "atom_type": "Cd"}}

>  <type>  (3) 
r2h

$$$$

     RDKit          3D

  8  6  0  0  0  0  0  0  0  0999 V2000
   -0.3152   -1.7099   -0.3539 O   0  0  0  0  0  1  0  0  0  0  0  0
   -0.3041   -0.5468    0.1632 H   0  0  0  0  0  0  0  0  0  0  0  0
    0.6014   -1.7644   -0.6562 H   0  0  0  0  0  0  0  0  0  0  0  0
   -0.0103    0.5890    0.5169 C   0  0  0  0  0  0  0  0  0  0  0  0
   -0.0581    1.5557   -0.3689 C   0  0  0  0  0  0  0  0  0  0  0  0
    0.2533    0.6572    1.5655 H   0  0  0  0  0  0  0  0  0  0  0  0
    0.1584    2.5834   -0.0922 H   0  0  0  0  0  0  0  0  0  0  0  0
   -0.3256    1.3674   -1.4022 H   0  0  0  0  0  0  0  0  0  0  0  0
  1  3  1  0
  2  4  1  0
  4  5  2  3
  4  6  1  0
  5  7  1  0
  5  8  1  0
M  RAD  1   1   2
M  END
>  <reaction>  (4) 
rxn_383

>  <mol_properties>  (4) 
{"0": {"label": "*3", "atom_type": "O2s"}, "1": {"label": "*2", "atom_type": "H0"}, "2": {"label": "*4", "atom_type": "H0"}, "3": {"label": "*1", "atom_type": "Cd"}, "4": {"label": "*0", "atom_type": "Cd"}}

>  <type>  (4) 
ts

$$$$

     RDKit          3D

  8  6  0  0  0  0  0  0  0  0999 V2000
    0.2987   -1.6175   -0.6217 O   0  0  0  0  0  0  0  0  0  0  0  0
    0.2987   -0.5098   -0.3159 H   0  0  0  0  0  0  0  0  0  0  0  0
    0.2987   -1.6175   -1.5792 H   0  0  0  0  0  0  0  0  0  0  0  0
    0.2987    0.7437    0.0301 C   0  0  0  0  0  3  0  0  0  0  0  0
   -0.6758    1.2623    0.7569 C   0  0  0  0  0  0  0  0  0  0  0  0
    1.3407    0.9422    0.2519 H   0  0  0  0  0  0  0  0  0  0  0  0
   -0.4720    1.9068    1.6039 H   0  0  0  0  0  0  0  0  0  0  0  0
   -1.7177    1.0638    0.5351 H   0  0  0  0  0  0  0  0  0  0  0  0
  1  2  1  0
  1  3  1  0
  4  5  2  3
  4  6  1  0
  5  7  1  0
  5  8  1  0
M  RAD  1   4   2
M  END
>  <reaction>  (5) 
rxn_383

>  <mol_properties>  (5) 
{"0": {"label": "*3", "atom_type": "O2s"}, "1": {"label": "*2", "atom_type": "H0"}, "2": {"label": "*4", "atom_type": "H0"}, "3": {"label": "*1", "atom_type": "Cd"}, "4": {"label": "*0", "atom_type": "Cd"}}

>  <type>  (5) 
unop_1

>  <geom_source>  (5) 
Heuristics

$$$$

     RDKit          3D

  8  6  0  0  0  0  0  0  0  0999 V2000
    0.1808   -1.7522   -0.1504 O   0  0  0  0  0  0  0  0  0  0  0  0
    0.1808   -0.6445    0.1554 H   0  0  0  0  0  0  0  0  0  0  0  0
    0.1808   -1.7522   -1.1080 H   0  0  0  0  0  0  0  0  0  0  0  0
    0.1808    0.6090    0.5014 C   0  0  0  0  0  3  0  0  0  0  0  0
   -0.3818    1.5366   -0.2536 C   0  0  0  0  0  0  0  0  0  0  0  0
    0.4095    0.7875    1.5454 H   0  0  0  0  0  0  0  0  0  0  0  0
   -0.6370    2.5129    0.1411 H   0  0  0  0  0  0  0  0  0  0  0  0
   -0.6106    1.3580   -1.2976 H   0  0  0  0  0  0  0  0  0  0  0  0
  1  2  1  0
  1  3  1  0
  4  5  2  3
  4  6  1  0
  5  7  1  0
  5  8  1  0
M  RAD  1   4   2
M  END
>  <reaction>  (6) 
rxn_383

>  <mol_properties>  (6) 
{"0": {"label": "*3", "atom_type": "O2s"}, "1": {"label": "*2", "atom_type": "H0"}, "2": {"label": "*4", "atom_type": "H0"}, "3": {"label": "*1", "atom_type": "Cd"}, "4": {"label": "*0", "atom_type": "Cd"}}

>  <type>  (6) 
unop_2

>  <geom_source>  (6) 
Heuristics

$$$$

     RDKit          3D

  8  6  0  0  0  0  0  0  0  0999 V2000
    0.1654   -1.5866   -0.7397 O   0  0  0  0  0  0  0  0  0  0  0  0
    0.1654   -0.4789   -0.4339 H   0  0  0  0  0  0  0  0  0  0  0  0
    0.1654   -1.5866   -1.6973 H   0  0  0  0  0  0  0  0  0  0  0  0
    0.1654    0.7745   -0.0879 C   0  0  0  0  0  3  0  0  0  0  0  0
   -0.3973    1.1835    1.0359 C   0  0  0  0  0  0  0  0  0  0  0  0
    1.0852    1.2137   -0.4557 H   0  0  0  0  0  0  0  0  0  0  0  0
    0.0386    1.9744    1.6348 H   0  0  0  0  0  0  0  0  0  0  0  0
   -1.3172    0.7444    1.4037 H   0  0  0  0  0  0  0  0  0  0  0  0
  1  2  1  0
  1  3  1  0
  4  5  2  3
  4  6  1  0
  5  7  1  0
  5  8  1  0
M  RAD  1   4   2
M  END
>  <reaction>  (7) 
rxn_383

>  <mol_properties>  (7) 
{"0": {"label": "*3", "atom_type": "O2s"}, "1": {"label": "*2", "atom_type": "H0"}, "2": {"label": "*4", "atom_type": "H0"}, "3": {"label": "*1", "atom_type": "Cd"}, "4": {"label": "*0", "atom_type": "Cd"}}

>  <type>  (7) 
unop_3

>  <geom_source>  (7) 
Heuristics

$$$$

     RDKit          3D

  8  6  0  0  0  0  0  0  0  0999 V2000
   -0.3103   -1.7146   -0.2792 O   0  0  0  0  0  0  0  0  0  0  0  0
   -0.3103   -0.6070    0.0265 H   0  0  0  0  0  0  0  0  0  0  0  0
   -0.3103   -1.7146   -1.2368 H   0  0  0  0  0  0  0  0  0  0  0  0
   -0.3103    0.6465    0.3725 C   0  0  0  0  0  3  0  0  0  0  0  0
    0.6643    1.4645    0.0146 C   0  0  0  0  0  0  0  0  0  0  0  0
   -0.8370    0.7666    1.3118 H   0  0  0  0  0  0  0  0  0  0  0  0
    0.9757    2.2882    0.6461 H   0  0  0  0  0  0  0  0  0  0  0  0
    1.1910    1.3444   -0.9248 H   0  0  0  0  0  0  0  0  0  0  0  0
  1  2  1  0
  1  3  1  0
  4  5  2  3
  4  6  1  0
  5  7  1  0
  5  8  1  0
M  RAD  1   4   2
M  END
>  <reaction>  (8) 
rxn_383

>  <mol_properties>  (8) 
{"0": {"label": "*3", "atom_type": "O2s"}, "1": {"label": "*2", "atom_type": "H0"}, "2": {"label": "*4", "atom_type": "H0"}, "3": {"label": "*1", "atom_type": "Cd"}, "4": {"label": "*0", "atom_type": "Cd"}}

>  <type>  (8) 
unop_4

>  <geom_source>  (8) 
Heuristics

$$$$

     RDKit          3D

  8  6  0  0  0  0  0  0  0  0999 V2000
   -0.0000   -1.5798   -0.7780 O   0  0  0  0  0  0  0  0  0  0  0  0
   -0.0000   -0.4721   -0.4722 H   0  0  0  0  0  0  0  0  0  0  0  0
   -0.0000   -1.5798   -1.7355 H   0  0  0  0  0  0  0  0  0  0  0  0
   -0.0000    0.7813   -0.1262 C   0  0  0  0  0  3  0  0  0  0  0  0
   -0.0000    1.1502    1.1430 C   0  0  0  0  0  0  0  0  0  0  0  0
    0.0000    1.5086   -0.9295 H   0  0  0  0  0  0  0  0  0  0  0  0
    0.0000    2.1948    1.4313 H   0  0  0  0  0  0  0  0  0  0  0  0
   -0.0000    0.4229    1.9463 H   0  0  0  0  0  0  0  0  0  0  0  0
  1  2  1  0
  1  3  1  0
  4  5  2  3
  4  6  1  0
  5  7  1  0
  5  8  1  0
M  RAD  1   4   2
M  END
>  <reaction>  (9) 
rxn_383

>  <mol_properties>  (9) 
{"0": {"label": "*3", "atom_type": "O2s"}, "1": {"label": "*2", "atom_type": "H0"}, "2": {"label": "*4", "atom_type": "H0"}, "3": {"label": "*1", "atom_type": "Cd"}, "4": {"label": "*0", "atom_type": "Cd"}}

>  <type>  (9) 
unop_5

>  <geom_source>  (9) 
Heuristics

$$$$

     RDKit          3D

  8  6  0  0  0  0  0  0  0  0999 V2000
   -0.3530   -1.6649   -0.4525 O   0  0  0  0  0  0  0  0  0  0  0  0
   -0.3530   -0.5573   -0.1467 H   0  0  0  0  0  0  0  0  0  0  0  0
   -0.3530   -1.6649   -1.4101 H   0  0  0  0  0  0  0  0  0  0  0  0
   -0.3530    0.6962    0.1992 C   0  0  0  0  0  3  0  0  0  0  0  0
    0.7723    1.3645    0.3837 C   0  0  0  0  0  0  0  0  0  0  0  0
   -1.1961    0.8061    0.8711 H   0  0  0  0  0  0  0  0  0  0  0  0
    0.8971    2.0492    1.2142 H   0  0  0  0  0  0  0  0  0  0  0  0
    1.6153    1.2545   -0.2882 H   0  0  0  0  0  0  0  0  0  0  0  0
  1  2  1  0
  1  3  1  0
  4  5  2  3
  4  6  1  0
  5  7  1  0
  5  8  1  0
M  RAD  1   4   2
M  END
>  <reaction>  (10) 
rxn_383

>  <mol_properties>  (10) 
{"0": {"label": "*3", "atom_type": "O2s"}, "1": {"label": "*2", "atom_type": "H0"}, "2": {"label": "*4", "atom_type": "H0"}, "3": {"label": "*1", "atom_type": "Cd"}, "4": {"label": "*0", "atom_type": "Cd"}}

>  <type>  (10) 
unop_6

>  <geom_source>  (10) 
Heuristics

$$$$

     RDKit          3D

  8  6  0  0  0  0  0  0  0  0999 V2000
   -0.2987   -1.6175   -0.6217 O   0  0  0  0  0  0  0  0  0  0  0  0
   -0.2987   -0.5098   -0.3159 H   0  0  0  0  0  0  0  0  0  0  0  0
   -0.2987   -1.6175   -1.5792 H   0  0  0  0  0  0  0  0  0  0  0  0
   -0.2987    0.7437    0.0301 C   0  0  0  0  0  3  0  0  0  0  0  0
    0.6758    1.2623    0.7569 C   0  0  0  0  0  0  0  0  0  0  0  0
   -1.3407    0.9422    0.2519 H   0  0  0  0  0  0  0  0  0  0  0  0
    0.4720    1.9068    1.6039 H   0  0  0  0  0  0  0  0  0  0  0  0
    1.7177    1.0638    0.5351 H   0  0  0  0  0  0  0  0  0  0  0  0
  1  2  1  0
  1  3  1  0
  4  5  2  3
  4  6  1  0
  5  7  1  0
  5  8  1  0
M  RAD  1   4   2
M  END
>  <reaction>  (11) 
rxn_383

>  <mol_properties>  (11) 
{"0": {"label": "*3", "atom_type": "O2s"}, "1": {"label": "*2", "atom_type": "H0"}, "2": {"label": "*4", "atom_type": "H0"}, "3": {"label": "*1", "atom_type": "Cd"}, "4": {"label": "*0", "atom_type": "Cd"}}

>  <type>  (11) 
unop_7

>  <geom_source>  (11) 
Heuristics

$$$$

     RDKit          3D

  8  6  0  0  0  0  0  0  0  0999 V2000
    0.3530   -1.6649   -0.4525 O   0  0  0  0  0  0  0  0  0  0  0  0
    0.3530   -0.5573   -0.1467 H   0  0  0  0  0  0  0  0  0  0  0  0
    0.3530   -1.6649   -1.4101 H   0  0  0  0  0  0  0  0  0  0  0  0
    0.3530    0.6962    0.1992 C   0  0  0  0  0  3  0  0  0  0  0  0
   -0.7723    1.3645    0.3837 C   0  0  0  0  0  0  0  0  0  0  0  0
    1.1961    0.8061    0.8711 H   0  0  0  0  0  0  0  0  0  0  0  0
   -0.8971    2.0492    1.2142 H   0  0  0  0  0  0  0  0  0  0  0  0
   -1.6153    1.2545   -0.2882 H   0  0  0  0  0  0  0  0  0  0  0  0
  1  2  1  0
  1  3  1  0
  4  5  2  3
  4  6  1  0
  5  7  1  0
  5  8  1  0
M  RAD  1   4   2
M  END
>  <reaction>  (12) 
rxn_383

>  <mol_properties>  (12) 
{"0": {"label": "*3", "atom_type": "O2s"}, "1": {"label": "*2", "atom_type": "H0"}, "2": {"label": "*4", "atom_type": "H0"}, "3": {"label": "*1", "atom_type": "Cd"}, "4": {"label": "*0", "atom_type": "Cd"}}

>  <type>  (12) 
unop_8

>  <geom_source>  (12) 
Heuristics

$$$$

     RDKit          3D

  8  6  0  0  0  0  0  0  0  0999 V2000
   -0.1808   -1.7522   -0.1504 O   0  0  0  0  0  0  0  0  0  0  0  0
   -0.1808   -0.6445    0.1554 H   0  0  0  0  0  0  0  0  0  0  0  0
   -0.1808   -1.7522   -1.1080 H   0  0  0  0  0  0  0  0  0  0  0  0
   -0.1808    0.6090    0.5014 C   0  0  0  0  0  3  0  0  0  0  0  0
    0.3818    1.5366   -0.2536 C   0  0  0  0  0  0  0  0  0  0  0  0
   -0.4095    0.7875    1.5454 H   0  0  0  0  0  0  0  0  0  0  0  0
    0.6370    2.5129    0.1411 H   0  0  0  0  0  0  0  0  0  0  0  0
    0.6106    1.3580   -1.2976 H   0  0  0  0  0  0  0  0  0  0  0  0
  1  2  1  0
  1  3  1  0
  4  5  2  3
  4  6  1  0
  5  7  1  0
  5  8  1  0
M  RAD  1   4   2
M  END
>  <reaction>  (13) 
rxn_383

>  <mol_properties>  (13) 
{"0": {"label": "*3", "atom_type": "O2s"}, "1": {"label": "*2", "atom_type": "H0"}, "2": {"label": "*4", "atom_type": "H0"}, "3": {"label": "*1", "atom_type": "Cd"}, "4": {"label": "*0", "atom_type": "Cd"}}

>  <type>  (13) 
unop_9

>  <geom_source>  (13) 
Heuristics

$$$$

     RDKit          3D

  8  6  0  0  0  0  0  0  0  0999 V2000
    0.3103   -1.7146   -0.2792 O   0  0  0  0  0  0  0  0  0  0  0  0
    0.3103   -0.6070    0.0265 H   0  0  0  0  0  0  0  0  0  0  0  0
    0.3103   -1.7146   -1.2368 H   0  0  0  0  0  0  0  0  0  0  0  0
    0.3103    0.6465    0.3725 C   0  0  0  0  0  3  0  0  0  0  0  0
   -0.6643    1.4645    0.0146 C   0  0  0  0  0  0  0  0  0  0  0  0
    0.8370    0.7666    1.3118 H   0  0  0  0  0  0  0  0  0  0  0  0
   -0.9757    2.2882    0.6461 H   0  0  0  0  0  0  0  0  0  0  0  0
   -1.1910    1.3444   -0.9248 H   0  0  0  0  0  0  0  0  0  0  0  0
  1  2  1  0
  1  3  1  0
  4  5  2  3
  4  6  1  0
  5  7  1  0
  5  8  1  0
M  RAD  1   4   2
M  END
>  <reaction>  (14) 
rxn_383

>  <mol_properties>  (14) 
{"0": {"label": "*3", "atom_type": "O2s"}, "1": {"label": "*2", "atom_type": "H0"}, "2": {"label": "*4", "atom_type": "H0"}, "3": {"label": "*1", "atom_type": "Cd"}, "4": {"label": "*0", "atom_type": "Cd"}}

>  <type>  (14) 
unop_10

>  <geom_source>  (14) 
Heuristics

$$$$

     RDKit          3D

  8  6  0  0  0  0  0  0  0  0999 V2000
   -0.1654   -1.5866   -0.7397 O   0  0  0  0  0  0  0  0  0  0  0  0
   -0.1654   -0.4789   -0.4339 H   0  0  0  0  0  0  0  0  0  0  0  0
   -0.1654   -1.5866   -1.6973 H   0  0  0  0  0  0  0  0  0  0  0  0
   -0.1654    0.7745   -0.0879 C   0  0  0  0  0  3  0  0  0  0  0  0
    0.3973    1.1835    1.0359 C   0  0  0  0  0  0  0  0  0  0  0  0
   -1.0852    1.2137   -0.4557 H   0  0  0  0  0  0  0  0  0  0  0  0
   -0.0386    1.9744    1.6348 H   0  0  0  0  0  0  0  0  0  0  0  0
    1.3172    0.7444    1.4037 H   0  0  0  0  0  0  0  0  0  0  0  0
  1  2  1  0
  1  3  1  0
  4  5  2  3
  4  6  1  0
  5  7  1  0
  5  8  1  0
M  RAD  1   4   2
M  END
>  <reaction>  (15) 
rxn_383

>  <mol_properties>  (15) 
{"0": {"label": "*3", "atom_type": "O2s"}, "1": {"label": "*2", "atom_type": "H0"}, "2": {"label": "*4", "atom_type": "H0"}, "3": {"label": "*1", "atom_type": "Cd"}, "4": {"label": "*0", "atom_type": "Cd"}}

>  <type>  (15) 
unop_11

>  <geom_source>  (15) 
Heuristics

$$$$

     RDKit          3D

  8  6  0  0  0  0  0  0  0  0999 V2000
    0.0000   -1.7662   -0.1028 O   0  0  0  0  0  0  0  0  0  0  0  0
    0.0000   -0.6585    0.2030 H   0  0  0  0  0  0  0  0  0  0  0  0
    0.0000   -1.7662   -1.0603 H   0  0  0  0  0  0  0  0  0  0  0  0
    0.0000    0.5950    0.5490 C   0  0  0  0  0  3  0  0  0  0  0  0
    0.0000    1.5627   -0.3513 C   0  0  0  0  0  0  0  0  0  0  0  0
   -0.0000    0.8072    1.6116 H   0  0  0  0  0  0  0  0  0  0  0  0
   -0.0000    2.6072   -0.0630 H   0  0  0  0  0  0  0  0  0  0  0  0
    0.0000    1.3504   -1.4139 H   0  0  0  0  0  0  0  0  0  0  0  0
  1  2  1  0
  1  3  1  0
  4  5  2  3
  4  6  1  0
  5  7  1  0
  5  8  1  0
M  RAD  1   4   2
M  END
>  <reaction>  (16) 
rxn_383

>  <mol_properties>  (16) 
{"0": {"label": "*3", "atom_type": "O2s"}, "1": {"label": "*2", "atom_type": "H0"}, "2": {"label": "*4", "atom_type": "H0"}, "3": {"label": "*1", "atom_type": "Cd"}, "4": {"label": "*0", "atom_type": "Cd"}}

>  <type>  (16) 
unop_12

>  <geom_source>  (16) 
Heuristics

$$$$

     RDKit          3D

  8  6  0  0  0  0  0  0  0  0999 V2000
    1.9810    0.0680   -0.1502 O   0  0  0  0  0  0  0  0  0  0  0  0
   -0.3218   -0.4033    0.4020 C   0  0  0  0  0  3  0  0  0  0  0  0
   -1.3507    0.2660   -0.1111 C   0  0  0  0  0  0  0  0  0  0  0  0
   -0.4200   -0.9118    1.3556 H   0  0  0  0  0  0  0  0  0  0  0  0
    0.8372   -0.4521   -0.2548 H   0  0  0  0  0  0  0  0  0  0  0  0
   -1.2476    0.7726   -1.0646 H   0  0  0  0  0  0  0  0  0  0  0  0
   -2.2960    0.3085    0.4201 H   0  0  0  0  0  0  0  0  0  0  0  0
    2.8179    0.3520   -0.5970 H   0  0  0  0  0  0  0  0  0  0  0  0
  1  5  1  0
  1  8  1  0
  2  3  2  3
  2  4  1  0
  3  6  1  0
  3  7  1  0
M  RAD  1   2   2
M  END
>  <reaction>  (17) 
rxn_383

>  <mol_properties>  (17) 
{"0": {"label": "*3", "atom_type": "O2s"}, "1": {"label": "*2", "atom_type": "H0"}, "2": {"label": "*4", "atom_type": "H0"}, "3": {"label": "*1", "atom_type": "Cd"}, "4": {"label": "*0", "atom_type": "Cd"}}

>  <type>  (17) 
unop_13

>  <geom_source>  (17) 
AutoTST

$$$$
