
     RDKit          3D

 14 13  0  0  0  0  0  0  0  0999 V2000
   -0.7647   -1.2351   -0.0349 C   0  0  0  0  0  0  0  0  0  0  0  0
    0.0570   -0.0126    0.3624 C   0  0  0  0  0  0  0  0  0  0  0  0
    1.4161   -0.0194   -0.3307 C   0  0  0  0  0  0  0  0  0  0  0  0
   -0.7022    1.2765    0.0630 C   0  0  0  0  0  0  0  0  0  0  0  0
   -0.2387   -2.1618    0.2040 H   0  0  0  0  0  0  0  0  0  0  0  0
   -0.9624   -1.2316   -1.1108 H   0  0  0  0  0  0  0  0  0  0  0  0
   -1.7273   -1.2511    0.4805 H   0  0  0  0  0  0  0  0  0  0  0  0
    0.2295   -0.0590    1.4432 H   0  0  0  0  0  0  0  0  0  0  0  0
    1.2933    0.0259   -1.4168 H   0  0  0  0  0  0  0  0  0  0  0  0
    2.0206    0.8382   -0.0279 H   0  0  0  0  0  0  0  0  0  0  0  0
    1.9767   -0.9268   -0.0966 H   0  0  0  0  0  0  0  0  0  0  0  0
   -1.6638    1.3002    0.5800 H   0  0  0  0  0  0  0  0  0  0  0  0
   -0.8979    1.3663   -1.0096 H   0  0  0  0  0  0  0  0  0  0  0  0
   -0.1313    2.1545    0.3721 H   0  0  0  0  0  0  0  0  0  0  0  0
  1  2  1  0
  1  5  1  0
  1  6  1  0
  1  7  1  0
  2  3  1  0
  2  4  1  0
  2  8  1  0
  3  9  1  0
  3 10  1  0
  3 11  1  0
  4 12  1  0
  4 13  1  0
  4 14  1  0
M  END
>  <reaction>  (1) 
rxn_965

>  <mol_properties>  (1) 
{"1": {"label": "donator", "atom_type": "Cs"}, "7": {"label": "d_hydrogen", "atom_type": "H0"}}

>  <type>  (1) 
r1h

$$$$

     RDKit          3D

 11 10  0  0  0  0  0  0  0  0999 V2000
   -0.9580    1.1013   -2.2955 C   0  0  0  0  0  0  0  0  0  0  0  0
   -0.5129    0.5941   -1.2929 C   0  0  0  0  0  0  0  0  0  0  0  0
   -0.0301   -0.0160   -0.1357 C   0  0  0  0  0  3  0  0  0  0  0  0
   -0.6593   -1.2845    0.3661 C   0  0  0  0  0  0  0  0  0  0  0  0
    1.0691    0.5292    0.5269 C   0  0  0  0  0  0  0  0  0  0  0  0
    2.0168    0.9794    1.1266 C   0  0  0  0  0  0  0  0  0  0  0  0
   -1.3415    1.5561   -3.1769 H   0  0  0  0  0  0  0  0  0  0  0  0
   -1.7166   -1.3186    0.1054 H   0  0  0  0  0  0  0  0  0  0  0  0
   -0.1742   -2.1550   -0.0865 H   0  0  0  0  0  0  0  0  0  0  0  0
   -0.5505   -1.3663    1.4470 H   0  0  0  0  0  0  0  0  0  0  0  0
    2.8514    1.3842    1.6465 H   0  0  0  0  0  0  0  0  0  0  0  0
  1  2  3  0
  1  7  1  0
  2  3  1  0
  3  4  1  0
  3  5  1  0
  4  8  1  0
  4  9  1  0
  4 10  1  0
  5  6  3  0
  6 11  1  0
M  RAD  1   3   2
M  END
>  <reaction>  (2) 
rxn_965

>  <mol_properties>  (2) 
{"2": {"label": "acceptor", "atom_type": "Cs"}}

>  <type>  (2) 
r2

$$$$

     RDKit          3D

 12 11  0  0  0  0  0  0  0  0999 V2000
    2.1696    0.6854    1.1310 C   0  0  0  0  0  0  0  0  0  0  0  0
    1.2518    0.4145    0.4134 C   0  0  0  0  0  0  0  0  0  0  0  0
    0.1391    0.0443   -0.4683 C   0  0  0  0  0  0  0  0  0  0  0  0
   -0.2054   -1.4492   -0.3339 C   0  0  0  0  0  0  0  0  0  0  0  0
   -1.0375    0.8853   -0.2222 C   0  0  0  0  0  0  0  0  0  0  0  0
   -2.0160    1.5463   -0.0311 C   0  0  0  0  0  0  0  0  0  0  0  0
    2.9819    0.9356    1.7702 H   0  0  0  0  0  0  0  0  0  0  0  0
    0.4629    0.2285   -1.4981 H   0  0  0  0  0  0  0  0  0  0  0  0
   -0.5327   -1.6703    0.6812 H   0  0  0  0  0  0  0  0  0  0  0  0
    0.6727   -2.0535   -0.5593 H   0  0  0  0  0  0  0  0  0  0  0  0
   -1.0064   -1.7081   -1.0256 H   0  0  0  0  0  0  0  0  0  0  0  0
   -2.8802    2.1413    0.1426 H   0  0  0  0  0  0  0  0  0  0  0  0
  1  2  3  0
  1  7  1  0
  2  3  1  0
  3  4  1  0
  3  5  1  0
  3  8  1  0
  4  9  1  0
  4 10  1  0
  4 11  1  0
  5  6  3  0
  6 12  1  0
M  END
>  <reaction>  (3) 
rxn_965

>  <mol_properties>  (3) 
{"2": {"label": "acceptor", "atom_type": "Cs"}, "11": {"label": "a_hydrogen", "atom_type": "H0"}}

>  <type>  (3) 
r2h

$$$$

     RDKit          3D

 25 23  0  0  0  0  0  0  0  0999 V2000
    2.7335    0.8954   -0.6998 C   0  0  0  0  0  0  0  0  0  0  0  0
    1.8919    0.2518   -0.1362 C   0  0  0  0  0  0  0  0  0  0  0  0
    0.8363   -0.5176    0.4743 C   0  0  0  0  0  0  0  0  0  0  0  0
    0.8508   -2.0028    0.1260 C   0  0  0  0  0  0  0  0  0  0  0  0
    0.6171   -0.2312    1.8703 C   0  0  0  0  0  0  0  0  0  0  0  0
    0.3693   -0.0002    3.0216 C   0  0  0  0  0  0  0  0  0  0  0  0
    3.4936    1.4631   -1.1799 H   0  0  0  0  0  0  0  0  0  0  0  0
    0.8843   -2.1292   -0.9562 H   0  0  0  0  0  0  0  0  0  0  0  0
    1.7211   -2.4978    0.5598 H   0  0  0  0  0  0  0  0  0  0  0  0
   -0.0486   -2.4826    0.5122 H   0  0  0  0  0  0  0  0  0  0  0  0
    0.1733    0.2052    4.0462 H   0  0  0  0  0  0  0  0  0  0  0  0
   -1.1569    0.1232   -2.1797 C   0  0  0  0  0  0  0  0  0  0  0  0
   -1.4030    0.4111   -0.7248 C   0  0  0  0  0  3  0  0  0  0  0  0
   -1.3337    1.8606   -0.3321 C   0  0  0  0  0  0  0  0  0  0  0  0
   -2.4974   -0.3845   -0.0696 C   0  0  0  0  0  0  0  0  0  0  0  0
   -0.2214    0.5740   -2.5175 H   0  0  0  0  0  0  0  0  0  0  0  0
   -1.9645    0.5356   -2.7982 H   0  0  0  0  0  0  0  0  0  0  0  0
   -1.1124   -0.9502   -2.3740 H   0  0  0  0  0  0  0  0  0  0  0  0
   -0.2306   -0.0843   -0.0993 H   0  0  0  0  0  0  0  0  0  0  0  0
   -2.1885    2.4134   -0.7421 H   0  0  0  0  0  0  0  0  0  0  0  0
   -1.3523    1.9766    0.7533 H   0  0  0  0  0  0  0  0  0  0  0  0
   -0.4227    2.3287   -0.7100 H   0  0  0  0  0  0  0  0  0  0  0  0
   -2.4219   -1.4462   -0.3129 H   0  0  0  0  0  0  0  0  0  0  0  0
   -3.4829   -0.0395   -0.4081 H   0  0  0  0  0  0  0  0  0  0  0  0
   -2.4665   -0.2763    1.0166 H   0  0  0  0  0  0  0  0  0  0  0  0
  1  2  3  0
  1  7  1  0
  2  3  1  0
  3  4  1  0
  3  5  1  0
  3 19  1  0
  4  8  1  0
  4  9  1  0
  4 10  1  0
  5  6  3  0
  6 11  1  0
 12 13  1  0
 12 16  1  0
 12 17  1  0
 12 18  1  0
 13 14  1  0
 13 15  1  0
 14 20  1  0
 14 21  1  0
 14 22  1  0
 15 23  1  0
 15 24  1  0
 15 25  1  0
M  RAD  1  13   2
M  END
>  <reaction>  (4) 
rxn_965

>  <mol_properties>  (4) 
{"1": {"label": "*0", "atom_type": "Ct"}, "2": {"label": "*1", "atom_type": "Cs"}, "11": {"label": "*4", "atom_type": "Cs"}, "12": {"label": "*3", "atom_type": "Cs"}, "18": {"label": "*2", "atom_type": "H0"}}

>  <type>  (4) 
ts

$$$$

     RDKit          3D

 25 23  0  0  0  0  0  0  0  0999 V2000
    2.4433    1.2179    1.4788 C   0  0  0  0  0  0  0  0  0  0  0  0
    1.8068    0.4291    0.8436 C   0  0  0  0  0  0  0  0  0  0  0  0
    1.0588   -0.5463    0.0427 C   0  0  0  0  0  0  0  0  0  0  0  0
    1.9920   -1.6228   -0.5385 C   0  0  0  0  0  0  0  0  0  0  0  0
   -0.0298   -1.1497    0.8193 C   0  0  0  0  0  0  0  0  0  0  0  0
   -0.9147   -1.6688    1.4344 C   0  0  0  0  0  0  0  0  0  0  0  0
    3.0092    1.9191    2.0436 H   0  0  0  0  0  0  0  0  0  0  0  0
    2.7678   -1.1534   -1.1425 H   0  0  0  0  0  0  0  0  0  0  0  0
    2.4648   -2.1853    0.2655 H   0  0  0  0  0  0  0  0  0  0  0  0
    1.4208   -2.3114   -1.1603 H   0  0  0  0  0  0  0  0  0  0  0  0
   -1.7014   -2.1303    1.9812 H   0  0  0  0  0  0  0  0  0  0  0  0
   -1.1482    0.6303   -2.2920 C   0  0  0  0  0  0  0  0  0  0  0  0
   -1.1482    0.6303   -0.7663 C   0  0  0  0  0  3  0  0  0  0  0  0
   -1.1482    2.0549   -0.2203 C   0  0  0  0  0  0  0  0  0  0  0  0
   -2.3310   -0.1638   -0.2203 C   0  0  0  0  0  0  0  0  0  0  0  0
   -0.2874    1.1725   -2.6891 H   0  0  0  0  0  0  0  0  0  0  0  0
   -2.0521    1.1123   -2.6759 H   0  0  0  0  0  0  0  0  0  0  0  0
   -1.1188   -0.3866   -2.6891 H   0  0  0  0  0  0  0  0  0  0  0  0
   -0.0445    0.0419   -0.3618 H   0  0  0  0  0  0  0  0  0  0  0  0
   -2.0521    2.5858   -0.5330 H   0  0  0  0  0  0  0  0  0  0  0  0
   -1.1187    2.0618    0.8713 H   0  0  0  0  0  0  0  0  0  0  0  0
   -0.2875    2.6197   -0.5845 H   0  0  0  0  0  0  0  0  0  0  0  0
   -2.3202   -1.1933   -0.5845 H   0  0  0  0  0  0  0  0  0  0  0  0
   -3.2756    0.2908   -0.5330 H   0  0  0  0  0  0  0  0  0  0  0  0
   -2.3202   -0.1921    0.8713 H   0  0  0  0  0  0  0  0  0  0  0  0
  1  2  3  0
  1  7  1  0
  2  3  1  0
  3  4  1  0
  3  5  1  0
  3 19  1  0
  4  8  1  0
  4  9  1  0
  4 10  1  0
  5  6  3  0
  6 11  1  0
 12 13  1  0
 12 16  1  0
 12 17  1  0
 12 18  1  0
 13 14  1  0
 13 15  1  0
 14 20  1  0
 14 21  1  0
 14 22  1  0
 15 23  1  0
 15 24  1  0
 15 25  1  0
M  RAD  1  13   2
M  END
>  <reaction>  (5) 
rxn_965

>  <mol_properties>  (5) 
{"1": {"label": "*0", "atom_type": "Ct"}, "2": {"label": "*1", "atom_type": "Cs"}, "11": {"label": "*4", "atom_type": "Cs"}, "12": {"label": "*3", "atom_type": "Cs"}, "18": {"label": "*2", "atom_type": "H0"}}

>  <type>  (5) 
unop_1

>  <geom_source>  (5) 
Heuristics

$$$$

     RDKit          3D

 25 23  0  0  0  0  0  0  0  0999 V2000
    2.6268   -0.3001   -1.5484 C   0  0  0  0  0  0  0  0  0  0  0  0
    1.7912   -0.4693   -0.7093 C   0  0  0  0  0  0  0  0  0  0  0  0
    0.7648   -0.7155    0.3097 C   0  0  0  0  0  0  0  0  0  0  0  0
    0.7934   -2.1778    0.7875 C   0  0  0  0  0  0  0  0  0  0  0  0
    0.8995    0.2144    1.4364 C   0  0  0  0  0  0  0  0  0  0  0  0
    0.9964    0.9499    2.3747 C   0  0  0  0  0  0  0  0  0  0  0  0
    3.3697   -0.1497   -2.2943 H   0  0  0  0  0  0  0  0  0  0  0  0
    0.6524   -2.8472   -0.0605 H   0  0  0  0  0  0  0  0  0  0  0  0
    1.7505   -2.4020    1.2567 H   0  0  0  0  0  0  0  0  0  0  0  0
   -0.0016   -2.3458    1.5133 H   0  0  0  0  0  0  0  0  0  0  0  0
    1.0826    1.6038    3.2090 H   0  0  0  0  0  0  0  0  0  0  0  0
   -1.4422    0.4611   -2.0251 C   0  0  0  0  0  0  0  0  0  0  0  0
   -1.4422    0.4611   -0.4994 C   0  0  0  0  0  3  0  0  0  0  0  0
   -1.4422    1.8857    0.0467 C   0  0  0  0  0  0  0  0  0  0  0  0
   -2.6250   -0.3330    0.0467 C   0  0  0  0  0  0  0  0  0  0  0  0
   -0.5814    1.0033   -2.4221 H   0  0  0  0  0  0  0  0  0  0  0  0
   -2.3461    0.9431   -2.4089 H   0  0  0  0  0  0  0  0  0  0  0  0
   -1.4127   -0.5558   -2.4221 H   0  0  0  0  0  0  0  0  0  0  0  0
   -0.3385   -0.1273   -0.0948 H   0  0  0  0  0  0  0  0  0  0  0  0
   -2.3461    2.4166   -0.2660 H   0  0  0  0  0  0  0  0  0  0  0  0
   -1.4127    1.8926    1.1383 H   0  0  0  0  0  0  0  0  0  0  0  0
   -0.5814    2.4505   -0.3176 H   0  0  0  0  0  0  0  0  0  0  0  0
   -2.6142   -1.3624   -0.3175 H   0  0  0  0  0  0  0  0  0  0  0  0
   -3.5696    0.1216   -0.2660 H   0  0  0  0  0  0  0  0  0  0  0  0
   -2.6142   -0.3613    1.1383 H   0  0  0  0  0  0  0  0  0  0  0  0
  1  2  3  0
  1  7  1  0
  2  3  1  0
  3  4  1  0
  3  5  1  0
  3 19  1  0
  4  8  1  0
  4  9  1  0
  4 10  1  0
  5  6  3  0
  6 11  1  0
 12 13  1  0
 12 16  1  0
 12 17  1  0
 12 18  1  0
 13 14  1  0
 13 15  1  0
 14 20  1  0
 14 21  1  0
 14 22  1  0
 15 23  1  0
 15 24  1  0
 15 25  1  0
M  RAD  1  13   2
M  END
>  <reaction>  (6) 
rxn_965

>  <mol_properties>  (6) 
{"1": {"label": "*0", "atom_type": "Ct"}, "2": {"label": "*1", "atom_type": "Cs"}, "11": {"label": "*4", "atom_type": "Cs"}, "12": {"label": "*3", "atom_type": "Cs"}, "18": {"label": "*2", "atom_type": "H0"}}

>  <type>  (6) 
unop_2

>  <geom_source>  (6) 
Heuristics

$$$$

     RDKit          3D

 25 23  0  0  0  0  0  0  0  0999 V2000
    1.7586    0.7153    2.4260 C   0  0  0  0  0  0  0  0  0  0  0  0
    1.4309    0.2178    1.3887 C   0  0  0  0  0  0  0  0  0  0  0  0
    1.0632   -0.3796    0.1002 C   0  0  0  0  0  0  0  0  0  0  0  0
    2.3117   -0.7337   -0.7264 C   0  0  0  0  0  0  0  0  0  0  0  0
    0.1978   -1.5500    0.2837 C   0  0  0  0  0  0  0  0  0  0  0  0
   -0.4959   -2.5168    0.4055 C   0  0  0  0  0  0  0  0  0  0  0  0
    2.0500    1.1575    3.3482 H   0  0  0  0  0  0  0  0  0  0  0  0
    2.9177    0.1582   -0.8825 H   0  0  0  0  0  0  0  0  0  0  0  0
    2.9107   -1.4783   -0.2036 H   0  0  0  0  0  0  0  0  0  0  0  0
    2.0133   -1.1384   -1.6930 H   0  0  0  0  0  0  0  0  0  0  0  0
   -1.1126   -3.3764    0.5139 H   0  0  0  0  0  0  0  0  0  0  0  0
   -1.1438    0.7970   -2.2345 C   0  0  0  0  0  0  0  0  0  0  0  0
   -1.1438    0.7970   -0.7088 C   0  0  0  0  0  3  0  0  0  0  0  0
   -1.1438    2.2216   -0.1628 C   0  0  0  0  0  0  0  0  0  0  0  0
   -2.3266    0.0029   -0.1628 C   0  0  0  0  0  0  0  0  0  0  0  0
   -0.2830    1.3392   -2.6316 H   0  0  0  0  0  0  0  0  0  0  0  0
   -2.0477    1.2790   -2.6183 H   0  0  0  0  0  0  0  0  0  0  0  0
   -1.1144   -0.2199   -2.6316 H   0  0  0  0  0  0  0  0  0  0  0  0
   -0.0401    0.2086   -0.3042 H   0  0  0  0  0  0  0  0  0  0  0  0
   -2.0478    2.7525   -0.4755 H   0  0  0  0  0  0  0  0  0  0  0  0
   -1.1143    2.2285    0.9288 H   0  0  0  0  0  0  0  0  0  0  0  0
   -0.2831    2.7864   -0.5270 H   0  0  0  0  0  0  0  0  0  0  0  0
   -2.3158   -1.0265   -0.5270 H   0  0  0  0  0  0  0  0  0  0  0  0
   -3.2712    0.4575   -0.4754 H   0  0  0  0  0  0  0  0  0  0  0  0
   -2.3158   -0.0254    0.9288 H   0  0  0  0  0  0  0  0  0  0  0  0
  1  2  3  0
  1  7  1  0
  2  3  1  0
  3  4  1  0
  3  5  1  0
  3 19  1  0
  4  8  1  0
  4  9  1  0
  4 10  1  0
  5  6  3  0
  6 11  1  0
 12 13  1  0
 12 16  1  0
 12 17  1  0
 12 18  1  0
 13 14  1  0
 13 15  1  0
 14 20  1  0
 14 21  1  0
 14 22  1  0
 15 23  1  0
 15 24  1  0
 15 25  1  0
M  RAD  1  13   2
M  END
>  <reaction>  (7) 
rxn_965

>  <mol_properties>  (7) 
{"1": {"label": "*0", "atom_type": "Ct"}, "2": {"label": "*1", "atom_type": "Cs"}, "11": {"label": "*4", "atom_type": "Cs"}, "12": {"label": "*3", "atom_type": "Cs"}, "18": {"label": "*2", "atom_type": "H0"}}

>  <type>  (7) 
unop_3

>  <geom_source>  (7) 
Heuristics

$$$$

     RDKit          3D

 25 23  0  0  0  0  0  0  0  0999 V2000
    0.7542   -2.8440   -0.6031 C   0  0  0  0  0  0  0  0  0  0  0  0
    0.7922   -1.7235   -0.1862 C   0  0  0  0  0  0  0  0  0  0  0  0
    0.8049   -0.3560    0.3451 C   0  0  0  0  0  0  0  0  0  0  0  0
    0.0584   -0.2730    1.6880 C   0  0  0  0  0  0  0  0  0  0  0  0
    2.1746    0.1554    0.4661 C   0  0  0  0  0  0  0  0  0  0  0  0
    3.2817    0.5913    0.5896 C   0  0  0  0  0  0  0  0  0  0  0  0
    0.7205   -3.8402   -0.9737 H   0  0  0  0  0  0  0  0  0  0  0  0
   -0.9666   -0.6209    1.5639 H   0  0  0  0  0  0  0  0  0  0  0  0
    0.5528   -0.8954    2.4327 H   0  0  0  0  0  0  0  0  0  0  0  0
    0.0473    0.7572    2.0424 H   0  0  0  0  0  0  0  0  0  0  0  0
    4.2659    0.9788    0.6993 H   0  0  0  0  0  0  0  0  0  0  0  0
   -1.4021    0.8205   -1.9896 C   0  0  0  0  0  0  0  0  0  0  0  0
   -1.4021    0.8205   -0.4639 C   0  0  0  0  0  3  0  0  0  0  0  0
   -1.4021    2.2452    0.0821 C   0  0  0  0  0  0  0  0  0  0  0  0
   -2.5849    0.0264    0.0821 C   0  0  0  0  0  0  0  0  0  0  0  0
   -0.5414    1.3627   -2.3867 H   0  0  0  0  0  0  0  0  0  0  0  0
   -2.3061    1.3025   -2.3734 H   0  0  0  0  0  0  0  0  0  0  0  0
   -1.3727   -0.1963   -2.3867 H   0  0  0  0  0  0  0  0  0  0  0  0
   -0.2984    0.2322   -0.0593 H   0  0  0  0  0  0  0  0  0  0  0  0
   -2.3061    2.7760   -0.2306 H   0  0  0  0  0  0  0  0  0  0  0  0
   -1.3727    2.2520    1.1737 H   0  0  0  0  0  0  0  0  0  0  0  0
   -0.5414    2.8100   -0.2821 H   0  0  0  0  0  0  0  0  0  0  0  0
   -2.5741   -1.0030   -0.2821 H   0  0  0  0  0  0  0  0  0  0  0  0
   -3.5295    0.4811   -0.2306 H   0  0  0  0  0  0  0  0  0  0  0  0
   -2.5742   -0.0018    1.1737 H   0  0  0  0  0  0  0  0  0  0  0  0
  1  2  3  0
  1  7  1  0
  2  3  1  0
  3  4  1  0
  3  5  1  0
  3 19  1  0
  4  8  1  0
  4  9  1  0
  4 10  1  0
  5  6  3  0
  6 11  1  0
 12 13  1  0
 12 16  1  0
 12 17  1  0
 12 18  1  0
 13 14  1  0
 13 15  1  0
 14 20  1  0
 14 21  1  0
 14 22  1  0
 15 23  1  0
 15 24  1  0
 15 25  1  0
M  RAD  1  13   2
M  END
>  <reaction>  (8) 
rxn_965

>  <mol_properties>  (8) 
{"1": {"label": "*0", "atom_type": "Ct"}, "2": {"label": "*1", "atom_type": "Cs"}, "11": {"label": "*4", "atom_type": "Cs"}, "12": {"label": "*3", "atom_type": "Cs"}, "18": {"label": "*2", "atom_type": "H0"}}

>  <type>  (8) 
unop_4

>  <geom_source>  (8) 
Heuristics

$$$$

     RDKit          3D

 25 23  0  0  0  0  0  0  0  0999 V2000
    0.9371   -0.2648    2.8721 C   0  0  0  0  0  0  0  0  0  0  0  0
    0.9311   -0.2987    1.6765 C   0  0  0  0  0  0  0  0  0  0  0  0
    0.9437   -0.3054    0.2094 C   0  0  0  0  0  0  0  0  0  0  0  0
    2.1404    0.4897   -0.3412 C   0  0  0  0  0  0  0  0  0  0  0  0
    0.9282   -1.6748   -0.3167 C   0  0  0  0  0  0  0  0  0  0  0  0
    0.9317   -2.7809   -0.7722 C   0  0  0  0  0  0  0  0  0  0  0  0
    0.9424   -0.2348    3.9352 H   0  0  0  0  0  0  0  0  0  0  0  0
    2.1084    1.5128    0.0318 H   0  0  0  0  0  0  0  0  0  0  0  0
    3.0757    0.0296   -0.0250 H   0  0  0  0  0  0  0  0  0  0  0  0
    2.1062    0.5035   -1.4301 H   0  0  0  0  0  0  0  0  0  0  0  0
    0.9348   -3.7642   -1.1770 H   0  0  0  0  0  0  0  0  0  0  0  0
   -1.2633    0.8712   -2.1253 C   0  0  0  0  0  0  0  0  0  0  0  0
   -1.2633    0.8712   -0.5996 C   0  0  0  0  0  3  0  0  0  0  0  0
   -1.2633    2.2958   -0.0535 C   0  0  0  0  0  0  0  0  0  0  0  0
   -2.4461    0.0771   -0.0535 C   0  0  0  0  0  0  0  0  0  0  0  0
   -0.4025    1.4134   -2.5223 H   0  0  0  0  0  0  0  0  0  0  0  0
   -2.1672    1.3532   -2.5091 H   0  0  0  0  0  0  0  0  0  0  0  0
   -1.2339   -0.1457   -2.5223 H   0  0  0  0  0  0  0  0  0  0  0  0
   -0.1596    0.2828   -0.1950 H   0  0  0  0  0  0  0  0  0  0  0  0
   -2.1672    2.8267   -0.3662 H   0  0  0  0  0  0  0  0  0  0  0  0
   -1.2338    2.3027    1.0381 H   0  0  0  0  0  0  0  0  0  0  0  0
   -0.4026    2.8606   -0.4178 H   0  0  0  0  0  0  0  0  0  0  0  0
   -2.4353   -0.9524   -0.4178 H   0  0  0  0  0  0  0  0  0  0  0  0
   -3.3907    0.5317   -0.3662 H   0  0  0  0  0  0  0  0  0  0  0  0
   -2.4353    0.0488    1.0381 H   0  0  0  0  0  0  0  0  0  0  0  0
  1  2  3  0
  1  7  1  0
  2  3  1  0
  3  4  1  0
  3  5  1  0
  3 19  1  0
  4  8  1  0
  4  9  1  0
  4 10  1  0
  5  6  3  0
  6 11  1  0
 12 13  1  0
 12 16  1  0
 12 17  1  0
 12 18  1  0
 13 14  1  0
 13 15  1  0
 14 20  1  0
 14 21  1  0
 14 22  1  0
 15 23  1  0
 15 24  1  0
 15 25  1  0
M  RAD  1  13   2
M  END
>  <reaction>  (9) 
rxn_965

>  <mol_properties>  (9) 
{"1": {"label": "*0", "atom_type": "Ct"}, "2": {"label": "*1", "atom_type": "Cs"}, "11": {"label": "*4", "atom_type": "Cs"}, "12": {"label": "*3", "atom_type": "Cs"}, "18": {"label": "*2", "atom_type": "H0"}}

>  <type>  (9) 
unop_5

>  <geom_source>  (9) 
Heuristics

$$$$

     RDKit          3D

 25 23  0  0  0  0  0  0  0  0999 V2000
    0.2815   -2.9405    0.5361 C   0  0  0  0  0  0  0  0  0  0  0  0
    0.5443   -1.7807    0.4071 C   0  0  0  0  0  0  0  0  0  0  0  0
    0.8353   -0.3490    0.2723 C   0  0  0  0  0  0  0  0  0  0  0  0
    0.3185    0.4415    1.4871 C   0  0  0  0  0  0  0  0  0  0  0  0
    2.2674   -0.1150    0.0562 C   0  0  0  0  0  0  0  0  0  0  0  0
    3.4320    0.1049   -0.1055 C   0  0  0  0  0  0  0  0  0  0  0  0
    0.0479   -3.9716    0.6508 H   0  0  0  0  0  0  0  0  0  0  0  0
   -0.7531    0.2829    1.6033 H   0  0  0  0  0  0  0  0  0  0  0  0
    0.8230    0.1106    2.3939 H   0  0  0  0  0  0  0  0  0  0  0  0
    0.5107    1.5046    1.3459 H   0  0  0  0  0  0  0  0  0  0  0  0
    4.4674    0.3005   -0.2493 H   0  0  0  0  0  0  0  0  0  0  0  0
   -1.3717    0.8275   -2.0624 C   0  0  0  0  0  0  0  0  0  0  0  0
   -1.3717    0.8275   -0.5367 C   0  0  0  0  0  3  0  0  0  0  0  0
   -1.3717    2.2522    0.0093 C   0  0  0  0  0  0  0  0  0  0  0  0
   -2.5545    0.0334    0.0094 C   0  0  0  0  0  0  0  0  0  0  0  0
   -0.5110    1.3697   -2.4594 H   0  0  0  0  0  0  0  0  0  0  0  0
   -2.2757    1.3095   -2.4462 H   0  0  0  0  0  0  0  0  0  0  0  0
   -1.3423   -0.1893   -2.4595 H   0  0  0  0  0  0  0  0  0  0  0  0
   -0.2680    0.2391   -0.1321 H   0  0  0  0  0  0  0  0  0  0  0  0
   -2.2757    2.7830   -0.3034 H   0  0  0  0  0  0  0  0  0  0  0  0
   -1.3423    2.2590    1.1009 H   0  0  0  0  0  0  0  0  0  0  0  0
   -0.5110    2.8170   -0.3549 H   0  0  0  0  0  0  0  0  0  0  0  0
   -2.5437   -0.9960   -0.3549 H   0  0  0  0  0  0  0  0  0  0  0  0
   -3.4991    0.4880   -0.3033 H   0  0  0  0  0  0  0  0  0  0  0  0
   -2.5438    0.0052    1.1010 H   0  0  0  0  0  0  0  0  0  0  0  0
  1  2  3  0
  1  7  1  0
  2  3  1  0
  3  4  1  0
  3  5  1  0
  3 19  1  0
  4  8  1  0
  4  9  1  0
  4 10  1  0
  5  6  3  0
  6 11  1  0
 12 13  1  0
 12 16  1  0
 12 17  1  0
 12 18  1  0
 13 14  1  0
 13 15  1  0
 14 20  1  0
 14 21  1  0
 14 22  1  0
 15 23  1  0
 15 24  1  0
 15 25  1  0
M  RAD  1  13   2
M  END
>  <reaction>  (10) 
rxn_965

>  <mol_properties>  (10) 
{"1": {"label": "*0", "atom_type": "Ct"}, "2": {"label": "*1", "atom_type": "Cs"}, "11": {"label": "*4", "atom_type": "Cs"}, "12": {"label": "*3", "atom_type": "Cs"}, "18": {"label": "*2", "atom_type": "H0"}}

>  <type>  (10) 
unop_6

>  <geom_source>  (10) 
Heuristics

$$$$

     RDKit          3D

 25 23  0  0  0  0  0  0  0  0999 V2000
    0.1046   -2.4663    1.7087 C   0  0  0  0  0  0  0  0  0  0  0  0
    0.4434   -1.5362    1.0372 C   0  0  0  0  0  0  0  0  0  0  0  0
    0.8364   -0.3715    0.2363 C   0  0  0  0  0  0  0  0  0  0  0  0
    0.7471    0.9260    1.0586 C   0  0  0  0  0  0  0  0  0  0  0  0
    2.1757   -0.5466   -0.3364 C   0  0  0  0  0  0  0  0  0  0  0  0
    3.2716   -0.6569   -0.8027 C   0  0  0  0  0  0  0  0  0  0  0  0
   -0.1967   -3.2932    2.3057 H   0  0  0  0  0  0  0  0  0  0  0  0
   -0.2654    1.0537    1.4399 H   0  0  0  0  0  0  0  0  0  0  0  0
    1.4372    0.8865    1.9004 H   0  0  0  0  0  0  0  0  0  0  0  0
    1.0050    1.7796    0.4325 H   0  0  0  0  0  0  0  0  0  0  0  0
    4.2460   -0.7550   -1.2173 H   0  0  0  0  0  0  0  0  0  0  0  0
   -1.3706    0.8051   -2.0984 C   0  0  0  0  0  0  0  0  0  0  0  0
   -1.3706    0.8051   -0.5727 C   0  0  0  0  0  3  0  0  0  0  0  0
   -1.3706    2.2297   -0.0267 C   0  0  0  0  0  0  0  0  0  0  0  0
   -2.5535    0.0110   -0.0267 C   0  0  0  0  0  0  0  0  0  0  0  0
   -0.5099    1.3473   -2.4955 H   0  0  0  0  0  0  0  0  0  0  0  0
   -2.2746    1.2871   -2.4822 H   0  0  0  0  0  0  0  0  0  0  0  0
   -1.3412   -0.2118   -2.4955 H   0  0  0  0  0  0  0  0  0  0  0  0
   -0.2669    0.2167   -0.1681 H   0  0  0  0  0  0  0  0  0  0  0  0
   -2.2746    2.7606   -0.3394 H   0  0  0  0  0  0  0  0  0  0  0  0
   -1.3412    2.2366    1.0649 H   0  0  0  0  0  0  0  0  0  0  0  0
   -0.5099    2.7945   -0.3909 H   0  0  0  0  0  0  0  0  0  0  0  0
   -2.5426   -1.0185   -0.3909 H   0  0  0  0  0  0  0  0  0  0  0  0
   -3.4981    0.4656   -0.3393 H   0  0  0  0  0  0  0  0  0  0  0  0
   -2.5427   -0.0173    1.0649 H   0  0  0  0  0  0  0  0  0  0  0  0
  1  2  3  0
  1  7  1  0
  2  3  1  0
  3  4  1  0
  3  5  1  0
  3 19  1  0
  4  8  1  0
  4  9  1  0
  4 10  1  0
  5  6  3  0
  6 11  1  0
 12 13  1  0
 12 16  1  0
 12 17  1  0
 12 18  1  0
 13 14  1  0
 13 15  1  0
 14 20  1  0
 14 21  1  0
 14 22  1  0
 15 23  1  0
 15 24  1  0
 15 25  1  0
M  RAD  1  13   2
M  END
>  <reaction>  (11) 
rxn_965

>  <mol_properties>  (11) 
{"1": {"label": "*0", "atom_type": "Ct"}, "2": {"label": "*1", "atom_type": "Cs"}, "11": {"label": "*4", "atom_type": "Cs"}, "12": {"label": "*3", "atom_type": "Cs"}, "18": {"label": "*2", "atom_type": "H0"}}

>  <type>  (11) 
unop_7

>  <geom_source>  (11) 
Heuristics

$$$$

     RDKit          3D

 25 23  0  0  0  0  0  0  0  0999 V2000
    2.8569    1.1800    0.3038 C   0  0  0  0  0  0  0  0  0  0  0  0
    1.9996    0.3509    0.2114 C   0  0  0  0  0  0  0  0  0  0  0  0
    0.9732   -0.6887    0.0766 C   0  0  0  0  0  0  0  0  0  0  0  0
    1.6080   -2.0754   -0.1270 C   0  0  0  0  0  0  0  0  0  0  0  0
    0.0590   -0.6860    1.2241 C   0  0  0  0  0  0  0  0  0  0  0  0
   -0.6912   -0.7159    2.1552 C   0  0  0  0  0  0  0  0  0  0  0  0
    3.6190    1.9171    0.3859 H   0  0  0  0  0  0  0  0  0  0  0  0
    2.2510   -2.0628   -1.0065 H   0  0  0  0  0  0  0  0  0  0  0  0
    2.2064   -2.3469    0.7418 H   0  0  0  0  0  0  0  0  0  0  0  0
    0.8276   -2.8234   -0.2637 H   0  0  0  0  0  0  0  0  0  0  0  0
   -1.3582   -0.7425    2.9831 H   0  0  0  0  0  0  0  0  0  0  0  0
   -1.2338    0.4879   -2.2581 C   0  0  0  0  0  0  0  0  0  0  0  0
   -1.2338    0.4879   -0.7324 C   0  0  0  0  0  3  0  0  0  0  0  0
   -1.2338    1.9125   -0.1863 C   0  0  0  0  0  0  0  0  0  0  0  0
   -2.4166   -0.3062   -0.1863 C   0  0  0  0  0  0  0  0  0  0  0  0
   -0.3730    1.0301   -2.6551 H   0  0  0  0  0  0  0  0  0  0  0  0
   -2.1377    0.9699   -2.6419 H   0  0  0  0  0  0  0  0  0  0  0  0
   -1.2044   -0.5290   -2.6551 H   0  0  0  0  0  0  0  0  0  0  0  0
   -0.1301   -0.1005   -0.3278 H   0  0  0  0  0  0  0  0  0  0  0  0
   -2.1377    2.4434   -0.4990 H   0  0  0  0  0  0  0  0  0  0  0  0
   -1.2043    1.9194    0.9053 H   0  0  0  0  0  0  0  0  0  0  0  0
   -0.3730    2.4773   -0.5506 H   0  0  0  0  0  0  0  0  0  0  0  0
   -2.4058   -1.3356   -0.5506 H   0  0  0  0  0  0  0  0  0  0  0  0
   -3.3612    0.1484   -0.4990 H   0  0  0  0  0  0  0  0  0  0  0  0
   -2.4058   -0.3344    0.9053 H   0  0  0  0  0  0  0  0  0  0  0  0
  1  2  3  0
  1  7  1  0
  2  3  1  0
  3  4  1  0
  3  5  1  0
  3 19  1  0
  4  8  1  0
  4  9  1  0
  4 10  1  0
  5  6  3  0
  6 11  1  0
 12 13  1  0
 12 16  1  0
 12 17  1  0
 12 18  1  0
 13 14  1  0
 13 15  1  0
 14 20  1  0
 14 21  1  0
 14 22  1  0
 15 23  1  0
 15 24  1  0
 15 25  1  0
M  RAD  1  13   2
M  END
>  <reaction>  (12) 
rxn_965

>  <mol_properties>  (12) 
{"1": {"label": "*0", "atom_type": "Ct"}, "2": {"label": "*1", "atom_type": "Cs"}, "11": {"label": "*4", "atom_type": "Cs"}, "12": {"label": "*3", "atom_type": "Cs"}, "18": {"label": "*2", "atom_type": "H0"}}

>  <type>  (12) 
unop_8

>  <geom_source>  (12) 
Heuristics

$$$$

     RDKit          3D

 25 23  0  0  0  0  0  0  0  0999 V2000
    1.3955   -2.2522   -1.4314 C   0  0  0  0  0  0  0  0  0  0  0  0
    1.1203   -1.4265   -0.6108 C   0  0  0  0  0  0  0  0  0  0  0  0
    0.7526   -0.4371    0.4082 C   0  0  0  0  0  0  0  0  0  0  0  0
    0.0422   -1.1023    1.6000 C   0  0  0  0  0  0  0  0  0  0  0  0
    1.9212    0.3330    0.8485 C   0  0  0  0  0  0  0  0  0  0  0  0
    2.8597    0.9648    1.2366 C   0  0  0  0  0  0  0  0  0  0  0  0
    1.6401   -2.9862   -2.1610 H   0  0  0  0  0  0  0  0  0  0  0  0
   -0.8429   -1.6346    1.2533 H   0  0  0  0  0  0  0  0  0  0  0  0
    0.7096   -1.8111    2.0884 H   0  0  0  0  0  0  0  0  0  0  0  0
   -0.2556   -0.3441    2.3236 H   0  0  0  0  0  0  0  0  0  0  0  0
    3.6942    1.5265    1.5818 H   0  0  0  0  0  0  0  0  0  0  0  0
   -1.4544    0.7394   -1.9266 C   0  0  0  0  0  0  0  0  0  0  0  0
   -1.4544    0.7394   -0.4008 C   0  0  0  0  0  3  0  0  0  0  0  0
   -1.4544    2.1641    0.1452 C   0  0  0  0  0  0  0  0  0  0  0  0
   -2.6372   -0.0547    0.1452 C   0  0  0  0  0  0  0  0  0  0  0  0
   -0.5936    1.2816   -2.3236 H   0  0  0  0  0  0  0  0  0  0  0  0
   -2.3583    1.2214   -2.3104 H   0  0  0  0  0  0  0  0  0  0  0  0
   -1.4250   -0.2774   -2.3236 H   0  0  0  0  0  0  0  0  0  0  0  0
   -0.3507    0.1510    0.0037 H   0  0  0  0  0  0  0  0  0  0  0  0
   -2.3583    2.6949   -0.1675 H   0  0  0  0  0  0  0  0  0  0  0  0
   -1.4249    2.1709    1.2368 H   0  0  0  0  0  0  0  0  0  0  0  0
   -0.5936    2.7289   -0.2191 H   0  0  0  0  0  0  0  0  0  0  0  0
   -2.6264   -1.0841   -0.2190 H   0  0  0  0  0  0  0  0  0  0  0  0
   -3.5818    0.3999   -0.1675 H   0  0  0  0  0  0  0  0  0  0  0  0
   -2.6264   -0.0829    1.2368 H   0  0  0  0  0  0  0  0  0  0  0  0
  1  2  3  0
  1  7  1  0
  2  3  1  0
  3  4  1  0
  3  5  1  0
  3 19  1  0
  4  8  1  0
  4  9  1  0
  4 10  1  0
  5  6  3  0
  6 11  1  0
 12 13  1  0
 12 16  1  0
 12 17  1  0
 12 18  1  0
 13 14  1  0
 13 15  1  0
 14 20  1  0
 14 21  1  0
 14 22  1  0
 15 23  1  0
 15 24  1  0
 15 25  1  0
M  RAD  1  13   2
M  END
>  <reaction>  (13) 
rxn_965

>  <mol_properties>  (13) 
{"1": {"label": "*0", "atom_type": "Ct"}, "2": {"label": "*1", "atom_type": "Cs"}, "11": {"label": "*4", "atom_type": "Cs"}, "12": {"label": "*3", "atom_type": "Cs"}, "18": {"label": "*2", "atom_type": "H0"}}

>  <type>  (13) 
unop_9

>  <geom_source>  (13) 
Heuristics

$$$$

     RDKit          3D

 25 23  0  0  0  0  0  0  0  0999 V2000
    2.9207    0.6214   -0.7988 C   0  0  0  0  0  0  0  0  0  0  0  0
    1.9896    0.0185   -0.3511 C   0  0  0  0  0  0  0  0  0  0  0  0
    0.8613   -0.7542    0.1803 C   0  0  0  0  0  0  0  0  0  0  0  0
    1.2253   -2.2418    0.3284 C   0  0  0  0  0  0  0  0  0  0  0  0
    0.3840   -0.1949    1.4498 C   0  0  0  0  0  0  0  0  0  0  0  0
   -0.0148    0.2312    2.4939 C   0  0  0  0  0  0  0  0  0  0  0  0
    3.7485    1.1574   -1.1968 H   0  0  0  0  0  0  0  0  0  0  0  0
    1.5387   -2.6440   -0.6344 H   0  0  0  0  0  0  0  0  0  0  0  0
    2.0404   -2.3609    1.0410 H   0  0  0  0  0  0  0  0  0  0  0  0
    0.3611   -2.8005    0.6864 H   0  0  0  0  0  0  0  0  0  0  0  0
   -0.3695    0.6100    3.4222 H   0  0  0  0  0  0  0  0  0  0  0  0
   -1.3457    0.4224   -2.1545 C   0  0  0  0  0  0  0  0  0  0  0  0
   -1.3457    0.4224   -0.6288 C   0  0  0  0  0  3  0  0  0  0  0  0
   -1.3457    1.8470   -0.0827 C   0  0  0  0  0  0  0  0  0  0  0  0
   -2.5285   -0.3717   -0.0827 C   0  0  0  0  0  0  0  0  0  0  0  0
   -0.4849    0.9646   -2.5515 H   0  0  0  0  0  0  0  0  0  0  0  0
   -2.2496    0.9044   -2.5383 H   0  0  0  0  0  0  0  0  0  0  0  0
   -1.3163   -0.5945   -2.5515 H   0  0  0  0  0  0  0  0  0  0  0  0
   -0.2420   -0.1660   -0.2242 H   0  0  0  0  0  0  0  0  0  0  0  0
   -2.2496    2.3779   -0.3954 H   0  0  0  0  0  0  0  0  0  0  0  0
   -1.3162    1.8539    1.0089 H   0  0  0  0  0  0  0  0  0  0  0  0
   -0.4849    2.4118   -0.4470 H   0  0  0  0  0  0  0  0  0  0  0  0
   -2.5177   -1.4011   -0.4469 H   0  0  0  0  0  0  0  0  0  0  0  0
   -3.4731    0.0829   -0.3954 H   0  0  0  0  0  0  0  0  0  0  0  0
   -2.5177   -0.4000    1.0089 H   0  0  0  0  0  0  0  0  0  0  0  0
  1  2  3  0
  1  7  1  0
  2  3  1  0
  3  4  1  0
  3  5  1  0
  3 19  1  0
  4  8  1  0
  4  9  1  0
  4 10  1  0
  5  6  3  0
  6 11  1  0
 12 13  1  0
 12 16  1  0
 12 17  1  0
 12 18  1  0
 13 14  1  0
 13 15  1  0
 14 20  1  0
 14 21  1  0
 14 22  1  0
 15 23  1  0
 15 24  1  0
 15 25  1  0
M  RAD  1  13   2
M  END
>  <reaction>  (14) 
rxn_965

>  <mol_properties>  (14) 
{"1": {"label": "*0", "atom_type": "Ct"}, "2": {"label": "*1", "atom_type": "Cs"}, "11": {"label": "*4", "atom_type": "Cs"}, "12": {"label": "*3", "atom_type": "Cs"}, "18": {"label": "*2", "atom_type": "H0"}}

>  <type>  (14) 
unop_10

>  <geom_source>  (14) 
Heuristics

$$$$

     RDKit          3D

 25 23  0  0  0  0  0  0  0  0999 V2000
    0.3119   -1.4872    2.5932 C   0  0  0  0  0  0  0  0  0  0  0  0
    0.5540   -0.9964    1.5296 C   0  0  0  0  0  0  0  0  0  0  0  0
    0.8450   -0.3582    0.2411 C   0  0  0  0  0  0  0  0  0  0  0  0
    1.3799    1.0714    0.4354 C   0  0  0  0  0  0  0  0  0  0  0  0
    1.7718   -1.1684   -0.5570 C   0  0  0  0  0  0  0  0  0  0  0  0
    2.5384   -1.8017   -1.2219 C   0  0  0  0  0  0  0  0  0  0  0  0
    0.0967   -1.9236    3.5389 H   0  0  0  0  0  0  0  0  0  0  0  0
    0.6578    1.6639    0.9962 H   0  0  0  0  0  0  0  0  0  0  0  0
    2.3197    1.0502    0.9857 H   0  0  0  0  0  0  0  0  0  0  0  0
    1.5510    1.5378   -0.5342 H   0  0  0  0  0  0  0  0  0  0  0  0
    3.2200   -2.3647   -1.8129 H   0  0  0  0  0  0  0  0  0  0  0  0
   -1.3620    0.8184   -2.0937 C   0  0  0  0  0  0  0  0  0  0  0  0
   -1.3620    0.8184   -0.5680 C   0  0  0  0  0  3  0  0  0  0  0  0
   -1.3620    2.2430   -0.0219 C   0  0  0  0  0  0  0  0  0  0  0  0
   -2.5448    0.0243   -0.0219 C   0  0  0  0  0  0  0  0  0  0  0  0
   -0.5012    1.3606   -2.4907 H   0  0  0  0  0  0  0  0  0  0  0  0
   -2.2659    1.3004   -2.4775 H   0  0  0  0  0  0  0  0  0  0  0  0
   -1.3326   -0.1985   -2.4907 H   0  0  0  0  0  0  0  0  0  0  0  0
   -0.2583    0.2300   -0.1634 H   0  0  0  0  0  0  0  0  0  0  0  0
   -2.2660    2.7739   -0.3346 H   0  0  0  0  0  0  0  0  0  0  0  0
   -1.3326    2.2499    1.0697 H   0  0  0  0  0  0  0  0  0  0  0  0
   -0.5013    2.8079   -0.3862 H   0  0  0  0  0  0  0  0  0  0  0  0
   -2.5340   -1.0051   -0.3861 H   0  0  0  0  0  0  0  0  0  0  0  0
   -3.4894    0.4789   -0.3346 H   0  0  0  0  0  0  0  0  0  0  0  0
   -2.5341   -0.0039    1.0697 H   0  0  0  0  0  0  0  0  0  0  0  0
  1  2  3  0
  1  7  1  0
  2  3  1  0
  3  4  1  0
  3  5  1  0
  3 19  1  0
  4  8  1  0
  4  9  1  0
  4 10  1  0
  5  6  3  0
  6 11  1  0
 12 13  1  0
 12 16  1  0
 12 17  1  0
 12 18  1  0
 13 14  1  0
 13 15  1  0
 14 20  1  0
 14 21  1  0
 14 22  1  0
 15 23  1  0
 15 24  1  0
 15 25  1  0
M  RAD  1  13   2
M  END
>  <reaction>  (15) 
rxn_965

>  <mol_properties>  (15) 
{"1": {"label": "*0", "atom_type": "Ct"}, "2": {"label": "*1", "atom_type": "Cs"}, "11": {"label": "*4", "atom_type": "Cs"}, "12": {"label": "*3", "atom_type": "Cs"}, "18": {"label": "*2", "atom_type": "H0"}}

>  <type>  (15) 
unop_11

>  <geom_source>  (15) 
Heuristics

$$$$

     RDKit          3D

 25 23  0  0  0  0  0  0  0  0999 V2000
    2.0675   -1.3369   -1.7707 C   0  0  0  0  0  0  0  0  0  0  0  0
    1.4725   -0.9827   -0.7954 C   0  0  0  0  0  0  0  0  0  0  0  0
    0.7246   -0.5840    0.4021 C   0  0  0  0  0  0  0  0  0  0  0  0
    0.3329   -1.8082    1.2479 C   0  0  0  0  0  0  0  0  0  0  0  0
    1.4755    0.3934    1.1979 C   0  0  0  0  0  0  0  0  0  0  0  0
    2.0729    1.1791    1.8736 C   0  0  0  0  0  0  0  0  0  0  0  0
    2.5964   -1.6518   -2.6379 H   0  0  0  0  0  0  0  0  0  0  0  0
   -0.2565   -2.5001    0.6471 H   0  0  0  0  0  0  0  0  0  0  0  0
    1.2255   -2.3226    1.6017 H   0  0  0  0  0  0  0  0  0  0  0  0
   -0.2543   -1.4908    2.1090 H   0  0  0  0  0  0  0  0  0  0  0  0
    2.6040    1.8777    2.4743 H   0  0  0  0  0  0  0  0  0  0  0  0
   -1.4824    0.5926   -1.9326 C   0  0  0  0  0  0  0  0  0  0  0  0
   -1.4824    0.5926   -0.4069 C   0  0  0  0  0  3  0  0  0  0  0  0
   -1.4824    2.0172    0.1391 C   0  0  0  0  0  0  0  0  0  0  0  0
   -2.6652   -0.2015    0.1391 C   0  0  0  0  0  0  0  0  0  0  0  0
   -0.6217    1.1348   -2.3297 H   0  0  0  0  0  0  0  0  0  0  0  0
   -2.3864    1.0746   -2.3164 H   0  0  0  0  0  0  0  0  0  0  0  0
   -1.4530   -0.4243   -2.3297 H   0  0  0  0  0  0  0  0  0  0  0  0
   -0.3787    0.0042   -0.0023 H   0  0  0  0  0  0  0  0  0  0  0  0
   -2.3864    2.5481   -0.1736 H   0  0  0  0  0  0  0  0  0  0  0  0
   -1.4530    2.0241    1.2307 H   0  0  0  0  0  0  0  0  0  0  0  0
   -0.6217    2.5820   -0.2251 H   0  0  0  0  0  0  0  0  0  0  0  0
   -2.6544   -1.2309   -0.2251 H   0  0  0  0  0  0  0  0  0  0  0  0
   -3.6098    0.2531   -0.1735 H   0  0  0  0  0  0  0  0  0  0  0  0
   -2.6545   -0.2298    1.2307 H   0  0  0  0  0  0  0  0  0  0  0  0
  1  2  3  0
  1  7  1  0
  2  3  1  0
  3  4  1  0
  3  5  1  0
  3 19  1  0
  4  8  1  0
  4  9  1  0
  4 10  1  0
  5  6  3  0
  6 11  1  0
 12 13  1  0
 12 16  1  0
 12 17  1  0
 12 18  1  0
 13 14  1  0
 13 15  1  0
 14 20  1  0
 14 21  1  0
 14 22  1  0
 15 23  1  0
 15 24  1  0
 15 25  1  0
M  RAD  1  13   2
M  END
>  <reaction>  (16) 
rxn_965

>  <mol_properties>  (16) 
{"1": {"label": "*0", "atom_type": "Ct"}, "2": {"label": "*1", "atom_type": "Cs"}, "11": {"label": "*4", "atom_type": "Cs"}, "12": {"label": "*3", "atom_type": "Cs"}, "18": {"label": "*2", "atom_type": "H0"}}

>  <type>  (16) 
unop_12

>  <geom_source>  (16) 
Heuristics

$$$$

     RDKit          3D

 25 23  0  0  0  0  0  0  0  0999 V2000
    1.3303   -0.0583   -0.0634 C   0  0  0  0  0  0  0  0  0  0  0  0
    1.4175   -0.7248   -1.4345 C   0  0  0  0  0  0  0  0  0  0  0  0
   -1.0513    1.4296    0.0510 C   0  0  0  0  0  0  0  0  0  0  0  0
   -1.7540   -0.6018    1.3792 C   0  0  0  0  0  0  0  0  0  0  0  0
   -2.1631   -0.5182   -1.1129 C   0  0  0  0  0  0  0  0  0  0  0  0
   -1.2433   -0.0882    0.0316 C   0  0  0  0  0  3  0  0  0  0  0  0
    2.0682    1.2108   -0.0637 C   0  0  0  0  0  0  0  0  0  0  0  0
    1.8822   -0.9419    0.9709 C   0  0  0  0  0  0  0  0  0  0  0  0
    2.6728    2.2542   -0.0645 C   0  0  0  0  0  0  0  0  0  0  0  0
    2.3338   -1.6685    1.8208 C   0  0  0  0  0  0  0  0  0  0  0  0
    0.0577    0.1871    0.2184 H   0  0  0  0  0  0  0  0  0  0  0  0
    2.4743   -0.9449   -1.7026 H   0  0  0  0  0  0  0  0  0  0  0  0
    0.9809   -0.0583   -2.2089 H   0  0  0  0  0  0  0  0  0  0  0  0
    0.8412   -1.6747   -1.4321 H   0  0  0  0  0  0  0  0  0  0  0  0
   -2.0199    1.9451    0.2273 H   0  0  0  0  0  0  0  0  0  0  0  0
   -0.3388    1.7110    0.8548 H   0  0  0  0  0  0  0  0  0  0  0  0
   -0.6299    1.7705   -0.9181 H   0  0  0  0  0  0  0  0  0  0  0  0
   -2.7518   -0.1706    1.6106 H   0  0  0  0  0  0  0  0  0  0  0  0
   -1.0426   -0.3234    2.1850 H   0  0  0  0  0  0  0  0  0  0  0  0
   -1.8336   -1.7092    1.3570 H   0  0  0  0  0  0  0  0  0  0  0  0
   -2.2432   -1.6254   -1.1387 H   0  0  0  0  0  0  0  0  0  0  0  0
   -1.7433   -0.1802   -2.0837 H   0  0  0  0  0  0  0  0  0  0  0  0
   -3.1778   -0.0835   -0.9848 H   0  0  0  0  0  0  0  0  0  0  0  0
    3.2036    3.1697   -0.0652 H   0  0  0  0  0  0  0  0  0  0  0  0
    2.7303   -2.3061    2.5665 H   0  0  0  0  0  0  0  0  0  0  0  0
  1  2  1  0
  1  7  1  0
  1  8  1  0
  1 11  1  0
  2 12  1  0
  2 13  1  0
  2 14  1  0
  3  6  1  0
  3 15  1  0
  3 16  1  0
  3 17  1  0
  4  6  1  0
  4 18  1  0
  4 19  1  0
  4 20  1  0
  5  6  1  0
  5 21  1  0
  5 22  1  0
  5 23  1  0
  7  9  3  0
  8 10  3  0
  9 24  1  0
 10 25  1  0
M  RAD  1   6   2
M  END
>  <reaction>  (17) 
rxn_965

>  <mol_properties>  (17) 
{"1": {"label": "*0", "atom_type": "Ct"}, "2": {"label": "*1", "atom_type": "Cs"}, "11": {"label": "*4", "atom_type": "Cs"}, "12": {"label": "*3", "atom_type": "Cs"}, "18": {"label": "*2", "atom_type": "H0"}}

>  <type>  (17) 
unop_13

>  <geom_source>  (17) 
AutoTST

$$$$
