
     RDKit          3D

 10  9  0  0  0  0  0  0  0  0999 V2000
    1.8334    0.0847   -0.1062 C   0  0  0  0  0  0  0  0  0  0  0  0
    0.5993   -0.4071   -0.0750 C   0  0  0  0  0  0  0  0  0  0  0  0
   -0.5993    0.4071    0.0750 C   0  0  0  0  0  0  0  0  0  0  0  0
   -1.8334   -0.0847    0.1062 C   0  0  0  0  0  0  0  0  0  0  0  0
    2.0179    1.1498   -0.0189 H   0  0  0  0  0  0  0  0  0  0  0  0
    2.6972   -0.5572   -0.2194 H   0  0  0  0  0  0  0  0  0  0  0  0
    0.4465   -1.4793   -0.1649 H   0  0  0  0  0  0  0  0  0  0  0  0
   -0.4465    1.4793    0.1649 H   0  0  0  0  0  0  0  0  0  0  0  0
   -2.0179   -1.1498    0.0189 H   0  0  0  0  0  0  0  0  0  0  0  0
   -2.6972    0.5572    0.2194 H   0  0  0  0  0  0  0  0  0  0  0  0
  1  2  2  3
  1  5  1  0
  1  6  1  0
  2  3  1  0
  2  7  1  0
  3  4  2  3
  3  8  1  0
  4  9  1  0
  4 10  1  0
M  END
>  <reaction>  (1) 
rxn_1653

>  <mol_properties>  (1) 
{"2": {"label": "donator", "atom_type": "Cd"}, "7": {"label": "d_hydrogen", "atom_type": "H0"}}

>  <type>  (1) 
r1h

$$$$

     RDKit          3D

 14 13  0  0  0  0  0  0  0  0999 V2000
    1.0767   -1.6838    1.2931 C   0  0  0  0  0  0  0  0  0  0  0  0
    1.0020   -0.3665    0.9163 C   0  0  0  0  0  0  0  0  0  0  0  0
    1.3965    0.7260    1.6806 C   0  0  0  0  0  3  0  0  0  0  0  0
    1.2666    2.1197    1.1619 C   0  0  0  0  0  0  0  0  0  0  0  0
    1.9670    0.5479    3.0536 C   0  0  0  0  0  0  0  0  0  0  0  0
    0.7448   -2.4705    0.6300 H   0  0  0  0  0  0  0  0  0  0  0  0
    1.4663   -1.9826    2.2578 H   0  0  0  0  0  0  0  0  0  0  0  0
    0.5980   -0.1511   -0.0695 H   0  0  0  0  0  0  0  0  0  0  0  0
    0.6296    2.7241    1.8172 H   0  0  0  0  0  0  0  0  0  0  0  0
    2.2410    2.6200    1.1341 H   0  0  0  0  0  0  0  0  0  0  0  0
    0.8426    2.1448    0.1579 H   0  0  0  0  0  0  0  0  0  0  0  0
    2.8745   -0.0634    3.0328 H   0  0  0  0  0  0  0  0  0  0  0  0
    1.2599    0.0408    3.7173 H   0  0  0  0  0  0  0  0  0  0  0  0
    2.2205    1.5071    3.5054 H   0  0  0  0  0  0  0  0  0  0  0  0
  1  2  2  3
  1  6  1  0
  1  7  1  0
  2  3  1  0
  2  8  1  0
  3  4  1  0
  3  5  1  0
  4  9  1  0
  4 10  1  0
  4 11  1  0
  5 12  1  0
  5 13  1  0
  5 14  1  0
M  RAD  1   3   2
M  END
>  <reaction>  (2) 
rxn_1653

>  <mol_properties>  (2) 
{"2": {"label": "acceptor", "atom_type": "Cs"}}

>  <type>  (2) 
r2

$$$$

     RDKit          3D

 15 14  0  0  0  0  0  0  0  0999 V2000
    2.1256    0.4849   -0.6284 C   0  0  0  0  0  0  0  0  0  0  0  0
    1.1128    0.2141    0.1794 C   0  0  0  0  0  0  0  0  0  0  0  0
   -0.3017   -0.0425   -0.2513 C   0  0  0  0  0  0  0  0  0  0  0  0
   -1.2427    1.0075    0.3423 C   0  0  0  0  0  0  0  0  0  0  0  0
   -0.7381   -1.4526    0.1504 C   0  0  0  0  0  0  0  0  0  0  0  0
    3.1243    0.6602   -0.2486 H   0  0  0  0  0  0  0  0  0  0  0  0
    1.9908    0.5411   -1.7036 H   0  0  0  0  0  0  0  0  0  0  0  0
    1.2888    0.1665    1.2533 H   0  0  0  0  0  0  0  0  0  0  0  0
   -0.3426    0.0343   -1.3424 H   0  0  0  0  0  0  0  0  0  0  0  0
   -0.9570    2.0133    0.0315 H   0  0  0  0  0  0  0  0  0  0  0  0
   -1.2189    0.9728    1.4350 H   0  0  0  0  0  0  0  0  0  0  0  0
   -2.2723    0.8287    0.0254 H   0  0  0  0  0  0  0  0  0  0  0  0
   -0.6964   -1.5744    1.2363 H   0  0  0  0  0  0  0  0  0  0  0  0
   -0.0911   -2.2079   -0.2978 H   0  0  0  0  0  0  0  0  0  0  0  0
   -1.7646   -1.6461   -0.1677 H   0  0  0  0  0  0  0  0  0  0  0  0
  1  2  2  3
  1  6  1  0
  1  7  1  0
  2  3  1  0
  2  8  1  0
  3  4  1  0
  3  5  1  0
  3  9  1  0
  4 10  1  0
  4 11  1  0
  4 12  1  0
  5 13  1  0
  5 14  1  0
  5 15  1  0
M  END
>  <reaction>  (3) 
rxn_1653

>  <mol_properties>  (3) 
{"0": {"label": "a_hydrogen", "atom_type": "H0"}, "3": {"label": "acceptor", "atom_type": "Cs"}}

>  <type>  (3) 
r2h

$$$$

     RDKit          3D

 24 22  0  0  0  0  0  0  0  0999 V2000
    0.9117   -2.5743   -1.2841 C   0  0  0  0  0  0  0  0  0  0  0  0
    0.4249   -2.6277   -0.0484 C   0  0  0  0  0  0  0  0  0  0  0  0
   -0.0460   -1.4907    0.7055 C   0  0  0  0  0  3  0  0  0  0  0  0
   -0.6372   -1.4116    1.8794 C   0  0  0  0  0  0  0  0  0  0  0  0
    0.9885   -1.6354   -1.8184 H   0  0  0  0  0  0  0  0  0  0  0  0
    1.2436   -3.4672   -1.7972 H   0  0  0  0  0  0  0  0  0  0  0  0
    0.3622   -3.5918    0.4577 H   0  0  0  0  0  0  0  0  0  0  0  0
    0.1474   -0.1221    0.0954 H   0  0  0  0  0  0  0  0  0  0  0  0
   -0.8608   -2.3016    2.4666 H   0  0  0  0  0  0  0  0  0  0  0  0
   -0.9318   -0.4562    2.3008 H   0  0  0  0  0  0  0  0  0  0  0  0
   -1.3096    2.5314    0.9703 C   0  0  0  0  0  0  0  0  0  0  0  0
   -0.1676    1.8681    0.8171 C   0  0  0  0  0  0  0  0  0  0  0  0
    0.2248    1.0256   -0.3367 C   0  0  0  0  0  0  0  0  0  0  0  0
    1.6867    1.1979   -0.7141 C   0  0  0  0  0  0  0  0  0  0  0  0
   -0.7146    1.0539   -1.5239 C   0  0  0  0  0  0  0  0  0  0  0  0
   -1.5032    3.1074    1.8662 H   0  0  0  0  0  0  0  0  0  0  0  0
   -2.0843    2.5313    0.2133 H   0  0  0  0  0  0  0  0  0  0  0  0
    0.5684    1.9174    1.6168 H   0  0  0  0  0  0  0  0  0  0  0  0
    1.9908    0.4613   -1.4598 H   0  0  0  0  0  0  0  0  0  0  0  0
    1.8623    2.1924   -1.1350 H   0  0  0  0  0  0  0  0  0  0  0  0
    2.3353    1.0815    0.1561 H   0  0  0  0  0  0  0  0  0  0  0  0
   -0.7630    2.0555   -1.9618 H   0  0  0  0  0  0  0  0  0  0  0  0
   -1.7256    0.7572   -1.2411 H   0  0  0  0  0  0  0  0  0  0  0  0
   -0.3727    0.3662   -2.2992 H   0  0  0  0  0  0  0  0  0  0  0  0
  1  2  2  3
  1  5  1  0
  1  6  1  0
  2  3  1  0
  2  7  1  0
  3  4  2  3
  4  9  1  0
  4 10  1  0
  8 13  1  0
 11 12  2  3
 11 16  1  0
 11 17  1  0
 12 13  1  0
 12 18  1  0
 13 14  1  0
 13 15  1  0
 14 19  1  0
 14 20  1  0
 14 21  1  0
 15 22  1  0
 15 23  1  0
 15 24  1  0
M  RAD  1   3   2
M  END
>  <reaction>  (4) 
rxn_1653

>  <mol_properties>  (4) 
{"1": {"label": "*4", "atom_type": "Cd"}, "2": {"label": "*3", "atom_type": "Cd"}, "7": {"label": "*2", "atom_type": "H0"}, "11": {"label": "*0", "atom_type": "Cd"}, "12": {"label": "*1", "atom_type": "Cs"}}

>  <type>  (4) 
ts

$$$$

     RDKit          3D

 24 22  0  0  0  0  0  0  0  0999 V2000
    0.1088   -2.4545   -1.3789 C   0  0  0  0  0  0  0  0  0  0  0  0
    0.1088   -2.4545   -0.0500 C   0  0  0  0  0  0  0  0  0  0  0  0
    0.1088   -1.2471    0.7653 C   0  0  0  0  0  0  0  0  0  0  0  0
    0.1088   -1.2471    2.0942 C   0  0  0  0  0  0  0  0  0  0  0  0
    0.1088   -1.5279   -1.9423 H   0  0  0  0  0  0  0  0  0  0  0  0
    0.1088   -3.3760   -1.9460 H   0  0  0  0  0  0  0  0  0  0  0  0
    0.1088   -3.3994    0.4866 H   0  0  0  0  0  0  0  0  0  0  0  0
    0.1088   -0.1132    0.1214 H   0  0  0  0  0  0  0  0  0  0  0  0
    0.1088   -2.1737    2.6576 H   0  0  0  0  0  0  0  0  0  0  0  0
    0.1088   -0.3256    2.6614 H   0  0  0  0  0  0  0  0  0  0  0  0
   -1.5424    1.7751    1.2131 C   0  0  0  0  0  0  0  0  0  0  0  0
   -0.6047    2.0429    0.3183 C   0  0  0  0  0  0  0  0  0  0  0  0
    0.1088    1.0289   -0.5272 C   0  0  0  0  0  3  0  0  0  0  0  0
    1.6100    1.0449   -0.2328 C   0  0  0  0  0  0  0  0  0  0  0  0
   -0.1565    1.2852   -2.0119 C   0  0  0  0  0  0  0  0  0  0  0  0
   -2.0173    2.5585    1.7904 H   0  0  0  0  0  0  0  0  0  0  0  0
   -1.8697    0.7578    1.4007 H   0  0  0  0  0  0  0  0  0  0  0  0
   -0.3035    3.0774    0.1589 H   0  0  0  0  0  0  0  0  0  0  0  0
    2.1322    0.3032   -0.8408 H   0  0  0  0  0  0  0  0  0  0  0  0
    2.0373    2.0250   -0.4616 H   0  0  0  0  0  0  0  0  0  0  0  0
    1.8076    0.8288    0.8181 H   0  0  0  0  0  0  0  0  0  0  0  0
    0.2083    2.2738   -2.3037 H   0  0  0  0  0  0  0  0  0  0  0  0
   -1.2235    1.2412   -2.2347 H   0  0  0  0  0  0  0  0  0  0  0  0
    0.3551    0.5450   -2.6305 H   0  0  0  0  0  0  0  0  0  0  0  0
  1  2  2  3
  1  5  1  0
  1  6  1  0
  2  3  1  0
  2  7  1  0
  3  4  2  3
  3  8  1  0
  4  9  1  0
  4 10  1  0
 11 12  2  3
 11 16  1  0
 11 17  1  0
 12 13  1  0
 12 18  1  0
 13 14  1  0
 13 15  1  0
 14 19  1  0
 14 20  1  0
 14 21  1  0
 15 22  1  0
 15 23  1  0
 15 24  1  0
M  RAD  1  13   2
M  END
>  <reaction>  (5) 
rxn_1653

>  <mol_properties>  (5) 
{"1": {"label": "*4", "atom_type": "Cd"}, "2": {"label": "*3", "atom_type": "Cd"}, "7": {"label": "*2", "atom_type": "H0"}, "11": {"label": "*0", "atom_type": "Cd"}, "12": {"label": "*1", "atom_type": "Cs"}}

>  <type>  (5) 
unop_1

>  <geom_source>  (5) 
Heuristics

$$$$

     RDKit          3D

 24 22  0  0  0  0  0  0  0  0999 V2000
    0.2393   -2.2835   -1.0818 C   0  0  0  0  0  0  0  0  0  0  0  0
    0.2393   -2.2835    0.2471 C   0  0  0  0  0  0  0  0  0  0  0  0
    0.2393   -1.0761    1.0623 C   0  0  0  0  0  0  0  0  0  0  0  0
    0.2393   -1.0761    2.3912 C   0  0  0  0  0  0  0  0  0  0  0  0
    0.2393   -1.3569   -1.6453 H   0  0  0  0  0  0  0  0  0  0  0  0
    0.2393   -3.2050   -1.6490 H   0  0  0  0  0  0  0  0  0  0  0  0
    0.2393   -3.2284    0.7837 H   0  0  0  0  0  0  0  0  0  0  0  0
    0.2393    0.0578    0.4184 H   0  0  0  0  0  0  0  0  0  0  0  0
    0.2393   -2.0027    2.9547 H   0  0  0  0  0  0  0  0  0  0  0  0
    0.2393   -0.1546    2.9584 H   0  0  0  0  0  0  0  0  0  0  0  0
   -1.5927    0.2075   -1.6341 C   0  0  0  0  0  0  0  0  0  0  0  0
   -0.9966    1.2512   -1.0799 C   0  0  0  0  0  0  0  0  0  0  0  0
    0.2393    1.1999   -0.2302 C   0  0  0  0  0  3  0  0  0  0  0  0
   -0.0550    1.7207    1.1778 C   0  0  0  0  0  0  0  0  0  0  0  0
    1.3710    1.9986   -0.8795 C   0  0  0  0  0  0  0  0  0  0  0  0
   -2.4850    0.3171   -2.2377 H   0  0  0  0  0  0  0  0  0  0  0  0
   -1.2074   -0.7982   -1.5029 H   0  0  0  0  0  0  0  0  0  0  0  0
   -1.4144    2.2451   -1.2352 H   0  0  0  0  0  0  0  0  0  0  0  0
    0.8402    1.6782    1.8018 H   0  0  0  0  0  0  0  0  0  0  0  0
   -0.3881    2.7615    1.1421 H   0  0  0  0  0  0  0  0  0  0  0  0
   -0.8380    1.1333    1.6595 H   0  0  0  0  0  0  0  0  0  0  0  0
    1.0884    3.0493   -0.9880 H   0  0  0  0  0  0  0  0  0  0  0  0
    1.6089    1.6102   -1.8708 H   0  0  0  0  0  0  0  0  0  0  0  0
    2.2747    1.9578   -0.2678 H   0  0  0  0  0  0  0  0  0  0  0  0
  1  2  2  3
  1  5  1  0
  1  6  1  0
  2  3  1  0
  2  7  1  0
  3  4  2  3
  3  8  1  0
  4  9  1  0
  4 10  1  0
 11 12  2  3
 11 16  1  0
 11 17  1  0
 12 13  1  0
 12 18  1  0
 13 14  1  0
 13 15  1  0
 14 19  1  0
 14 20  1  0
 14 21  1  0
 15 22  1  0
 15 23  1  0
 15 24  1  0
M  RAD  1  13   2
M  END
>  <reaction>  (6) 
rxn_1653

>  <mol_properties>  (6) 
{"1": {"label": "*4", "atom_type": "Cd"}, "2": {"label": "*3", "atom_type": "Cd"}, "7": {"label": "*2", "atom_type": "H0"}, "11": {"label": "*0", "atom_type": "Cd"}, "12": {"label": "*1", "atom_type": "Cs"}}

>  <type>  (6) 
unop_2

>  <geom_source>  (6) 
Heuristics

$$$$

     RDKit          3D

 24 22  0  0  0  0  0  0  0  0999 V2000
   -0.0000   -2.4696   -1.3943 C   0  0  0  0  0  0  0  0  0  0  0  0
   -0.0000   -2.4696   -0.0654 C   0  0  0  0  0  0  0  0  0  0  0  0
   -0.0000   -1.2622    0.7499 C   0  0  0  0  0  0  0  0  0  0  0  0
   -0.0000   -1.2622    2.0787 C   0  0  0  0  0  0  0  0  0  0  0  0
   -0.0000   -1.5430   -1.9578 H   0  0  0  0  0  0  0  0  0  0  0  0
    0.0000   -3.3911   -1.9615 H   0  0  0  0  0  0  0  0  0  0  0  0
   -0.0000   -3.4145    0.4712 H   0  0  0  0  0  0  0  0  0  0  0  0
   -0.0000   -0.1283    0.1059 H   0  0  0  0  0  0  0  0  0  0  0  0
    0.0000   -2.1889    2.6422 H   0  0  0  0  0  0  0  0  0  0  0  0
    0.0000   -0.3407    2.6459 H   0  0  0  0  0  0  0  0  0  0  0  0
   -0.0000    1.9640    1.7831 C   0  0  0  0  0  0  0  0  0  0  0  0
   -0.0000    2.1222    0.4691 C   0  0  0  0  0  0  0  0  0  0  0  0
   -0.0000    1.0138   -0.5427 C   0  0  0  0  0  3  0  0  0  0  0  0
    1.2593    1.0773   -1.4089 C   0  0  0  0  0  0  0  0  0  0  0  0
   -1.2593    1.0773   -1.4089 C   0  0  0  0  0  0  0  0  0  0  0  0
   -0.0000    2.8112    2.4575 H   0  0  0  0  0  0  0  0  0  0  0  0
   -0.0000    0.9766    2.2329 H   0  0  0  0  0  0  0  0  0  0  0  0
    0.0000    3.1301    0.0561 H   0  0  0  0  0  0  0  0  0  0  0  0
    1.2668    0.2679   -2.1419 H   0  0  0  0  0  0  0  0  0  0  0  0
    1.3039    2.0233   -1.9556 H   0  0  0  0  0  0  0  0  0  0  0  0
    2.1609    0.9981   -0.7999 H   0  0  0  0  0  0  0  0  0  0  0  0
   -1.3039    2.0233   -1.9556 H   0  0  0  0  0  0  0  0  0  0  0  0
   -2.1609    0.9981   -0.7999 H   0  0  0  0  0  0  0  0  0  0  0  0
   -1.2668    0.2679   -2.1419 H   0  0  0  0  0  0  0  0  0  0  0  0
  1  2  2  3
  1  5  1  0
  1  6  1  0
  2  3  1  0
  2  7  1  0
  3  4  2  3
  3  8  1  0
  4  9  1  0
  4 10  1  0
 11 12  2  3
 11 16  1  0
 11 17  1  0
 12 13  1  0
 12 18  1  0
 13 14  1  0
 13 15  1  0
 14 19  1  0
 14 20  1  0
 14 21  1  0
 15 22  1  0
 15 23  1  0
 15 24  1  0
M  RAD  1  13   2
M  END
>  <reaction>  (7) 
rxn_1653

>  <mol_properties>  (7) 
{"1": {"label": "*4", "atom_type": "Cd"}, "2": {"label": "*3", "atom_type": "Cd"}, "7": {"label": "*2", "atom_type": "H0"}, "11": {"label": "*0", "atom_type": "Cd"}, "12": {"label": "*1", "atom_type": "Cs"}}

>  <type>  (7) 
unop_3

>  <geom_source>  (7) 
Heuristics

$$$$

     RDKit          3D

 24 22  0  0  0  0  0  0  0  0999 V2000
   -0.1437   -2.2336   -0.9840 C   0  0  0  0  0  0  0  0  0  0  0  0
   -0.1437   -2.2336    0.3449 C   0  0  0  0  0  0  0  0  0  0  0  0
   -0.1437   -1.0263    1.1602 C   0  0  0  0  0  0  0  0  0  0  0  0
   -0.1437   -1.0263    2.4891 C   0  0  0  0  0  0  0  0  0  0  0  0
   -0.1437   -1.3070   -1.5474 H   0  0  0  0  0  0  0  0  0  0  0  0
   -0.1437   -3.1552   -1.5512 H   0  0  0  0  0  0  0  0  0  0  0  0
   -0.1437   -3.1786    0.8815 H   0  0  0  0  0  0  0  0  0  0  0  0
   -0.1437    0.1076    0.5163 H   0  0  0  0  0  0  0  0  0  0  0  0
   -0.1437   -1.9529    3.0525 H   0  0  0  0  0  0  0  0  0  0  0  0
   -0.1437   -0.1048    3.0563 H   0  0  0  0  0  0  0  0  0  0  0  0
    0.8017   -0.1274   -2.0090 C   0  0  0  0  0  0  0  0  0  0  0  0
    0.5699    1.0431   -1.4363 C   0  0  0  0  0  0  0  0  0  0  0  0
   -0.1437    1.2497   -0.1323 C   0  0  0  0  0  3  0  0  0  0  0  0
   -1.4110    2.0812   -0.3395 C   0  0  0  0  0  0  0  0  0  0  0  0
    0.7825    1.9155    0.8871 C   0  0  0  0  0  0  0  0  0  0  0  0
    1.3245   -0.2039   -2.9542 H   0  0  0  0  0  0  0  0  0  0  0  0
    0.4752   -1.0549   -1.5504 H   0  0  0  0  0  0  0  0  0  0  0  0
    0.9137    1.9519   -1.9284 H   0  0  0  0  0  0  0  0  0  0  0  0
   -1.9373    2.2278    0.6060 H   0  0  0  0  0  0  0  0  0  0  0  0
   -1.1635    3.0679   -0.7403 H   0  0  0  0  0  0  0  0  0  0  0  0
   -2.0913    1.5946   -1.0398 H   0  0  0  0  0  0  0  0  0  0  0  0
    1.1076    2.8964    0.5297 H   0  0  0  0  0  0  0  0  0  0  0  0
    1.6725    1.3103    1.0649 H   0  0  0  0  0  0  0  0  0  0  0  0
    0.2693    2.0611    1.8400 H   0  0  0  0  0  0  0  0  0  0  0  0
  1  2  2  3
  1  5  1  0
  1  6  1  0
  2  3  1  0
  2  7  1  0
  3  4  2  3
  3  8  1  0
  4  9  1  0
  4 10  1  0
 11 12  2  3
 11 16  1  0
 11 17  1  0
 12 13  1  0
 12 18  1  0
 13 14  1  0
 13 15  1  0
 14 19  1  0
 14 20  1  0
 14 21  1  0
 15 22  1  0
 15 23  1  0
 15 24  1  0
M  RAD  1  13   2
M  END
>  <reaction>  (8) 
rxn_1653

>  <mol_properties>  (8) 
{"1": {"label": "*4", "atom_type": "Cd"}, "2": {"label": "*3", "atom_type": "Cd"}, "7": {"label": "*2", "atom_type": "H0"}, "11": {"label": "*0", "atom_type": "Cd"}, "12": {"label": "*1", "atom_type": "Cs"}}

>  <type>  (8) 
unop_4

>  <geom_source>  (8) 
Heuristics

$$$$

     RDKit          3D

 24 22  0  0  0  0  0  0  0  0999 V2000
   -0.1088   -2.4545   -1.3789 C   0  0  0  0  0  0  0  0  0  0  0  0
   -0.1088   -2.4545   -0.0500 C   0  0  0  0  0  0  0  0  0  0  0  0
   -0.1088   -1.2471    0.7653 C   0  0  0  0  0  0  0  0  0  0  0  0
   -0.1088   -1.2471    2.0942 C   0  0  0  0  0  0  0  0  0  0  0  0
   -0.1088   -1.5279   -1.9423 H   0  0  0  0  0  0  0  0  0  0  0  0
   -0.1088   -3.3760   -1.9460 H   0  0  0  0  0  0  0  0  0  0  0  0
   -0.1088   -3.3994    0.4866 H   0  0  0  0  0  0  0  0  0  0  0  0
   -0.1088   -0.1132    0.1214 H   0  0  0  0  0  0  0  0  0  0  0  0
   -0.1088   -2.1737    2.6576 H   0  0  0  0  0  0  0  0  0  0  0  0
   -0.1088   -0.3256    2.6614 H   0  0  0  0  0  0  0  0  0  0  0  0
    1.5424    1.7751    1.2131 C   0  0  0  0  0  0  0  0  0  0  0  0
    0.6047    2.0429    0.3183 C   0  0  0  0  0  0  0  0  0  0  0  0
   -0.1088    1.0289   -0.5272 C   0  0  0  0  0  3  0  0  0  0  0  0
    0.1565    1.2852   -2.0119 C   0  0  0  0  0  0  0  0  0  0  0  0
   -1.6100    1.0449   -0.2328 C   0  0  0  0  0  0  0  0  0  0  0  0
    2.0173    2.5585    1.7904 H   0  0  0  0  0  0  0  0  0  0  0  0
    1.8697    0.7578    1.4007 H   0  0  0  0  0  0  0  0  0  0  0  0
    0.3035    3.0774    0.1589 H   0  0  0  0  0  0  0  0  0  0  0  0
   -0.3551    0.5450   -2.6305 H   0  0  0  0  0  0  0  0  0  0  0  0
   -0.2083    2.2738   -2.3037 H   0  0  0  0  0  0  0  0  0  0  0  0
    1.2235    1.2412   -2.2347 H   0  0  0  0  0  0  0  0  0  0  0  0
   -2.0373    2.0250   -0.4616 H   0  0  0  0  0  0  0  0  0  0  0  0
   -1.8076    0.8288    0.8181 H   0  0  0  0  0  0  0  0  0  0  0  0
   -2.1322    0.3032   -0.8408 H   0  0  0  0  0  0  0  0  0  0  0  0
  1  2  2  3
  1  5  1  0
  1  6  1  0
  2  3  1  0
  2  7  1  0
  3  4  2  3
  3  8  1  0
  4  9  1  0
  4 10  1  0
 11 12  2  3
 11 16  1  0
 11 17  1  0
 12 13  1  0
 12 18  1  0
 13 14  1  0
 13 15  1  0
 14 19  1  0
 14 20  1  0
 14 21  1  0
 15 22  1  0
 15 23  1  0
 15 24  1  0
M  RAD  1  13   2
M  END
>  <reaction>  (9) 
rxn_1653

>  <mol_properties>  (9) 
{"1": {"label": "*4", "atom_type": "Cd"}, "2": {"label": "*3", "atom_type": "Cd"}, "7": {"label": "*2", "atom_type": "H0"}, "11": {"label": "*0", "atom_type": "Cd"}, "12": {"label": "*1", "atom_type": "Cs"}}

>  <type>  (9) 
unop_5

>  <geom_source>  (9) 
Heuristics

$$$$

     RDKit          3D

 24 22  0  0  0  0  0  0  0  0999 V2000
   -0.2393   -2.2835   -1.0818 C   0  0  0  0  0  0  0  0  0  0  0  0
   -0.2393   -2.2835    0.2471 C   0  0  0  0  0  0  0  0  0  0  0  0
   -0.2393   -1.0761    1.0623 C   0  0  0  0  0  0  0  0  0  0  0  0
   -0.2393   -1.0761    2.3912 C   0  0  0  0  0  0  0  0  0  0  0  0
   -0.2393   -1.3569   -1.6453 H   0  0  0  0  0  0  0  0  0  0  0  0
   -0.2393   -3.2050   -1.6490 H   0  0  0  0  0  0  0  0  0  0  0  0
   -0.2393   -3.2284    0.7837 H   0  0  0  0  0  0  0  0  0  0  0  0
   -0.2393    0.0578    0.4184 H   0  0  0  0  0  0  0  0  0  0  0  0
   -0.2393   -2.0027    2.9547 H   0  0  0  0  0  0  0  0  0  0  0  0
   -0.2393   -0.1546    2.9584 H   0  0  0  0  0  0  0  0  0  0  0  0
    1.5928    0.2075   -1.6341 C   0  0  0  0  0  0  0  0  0  0  0  0
    0.9966    1.2512   -1.0799 C   0  0  0  0  0  0  0  0  0  0  0  0
   -0.2393    1.1999   -0.2302 C   0  0  0  0  0  3  0  0  0  0  0  0
   -1.3710    1.9986   -0.8795 C   0  0  0  0  0  0  0  0  0  0  0  0
    0.0550    1.7207    1.1778 C   0  0  0  0  0  0  0  0  0  0  0  0
    2.4850    0.3171   -2.2377 H   0  0  0  0  0  0  0  0  0  0  0  0
    1.2074   -0.7982   -1.5029 H   0  0  0  0  0  0  0  0  0  0  0  0
    1.4144    2.2451   -1.2352 H   0  0  0  0  0  0  0  0  0  0  0  0
   -2.2747    1.9578   -0.2678 H   0  0  0  0  0  0  0  0  0  0  0  0
   -1.0884    3.0493   -0.9880 H   0  0  0  0  0  0  0  0  0  0  0  0
   -1.6089    1.6102   -1.8708 H   0  0  0  0  0  0  0  0  0  0  0  0
    0.3881    2.7615    1.1421 H   0  0  0  0  0  0  0  0  0  0  0  0
    0.8380    1.1333    1.6595 H   0  0  0  0  0  0  0  0  0  0  0  0
   -0.8402    1.6782    1.8018 H   0  0  0  0  0  0  0  0  0  0  0  0
  1  2  2  3
  1  5  1  0
  1  6  1  0
  2  3  1  0
  2  7  1  0
  3  4  2  3
  3  8  1  0
  4  9  1  0
  4 10  1  0
 11 12  2  3
 11 16  1  0
 11 17  1  0
 12 13  1  0
 12 18  1  0
 13 14  1  0
 13 15  1  0
 14 19  1  0
 14 20  1  0
 14 21  1  0
 15 22  1  0
 15 23  1  0
 15 24  1  0
M  RAD  1  13   2
M  END
>  <reaction>  (10) 
rxn_1653

>  <mol_properties>  (10) 
{"1": {"label": "*4", "atom_type": "Cd"}, "2": {"label": "*3", "atom_type": "Cd"}, "7": {"label": "*2", "atom_type": "H0"}, "11": {"label": "*0", "atom_type": "Cd"}, "12": {"label": "*1", "atom_type": "Cs"}}

>  <type>  (10) 
unop_6

>  <geom_source>  (10) 
Heuristics

$$$$

     RDKit          3D

 24 22  0  0  0  0  0  0  0  0999 V2000
   -0.2613   -2.3491   -1.2046 C   0  0  0  0  0  0  0  0  0  0  0  0
   -0.2613   -2.3491    0.1243 C   0  0  0  0  0  0  0  0  0  0  0  0
   -0.2613   -1.1417    0.9396 C   0  0  0  0  0  0  0  0  0  0  0  0
   -0.2613   -1.1417    2.2685 C   0  0  0  0  0  0  0  0  0  0  0  0
   -0.2613   -1.4225   -1.7680 H   0  0  0  0  0  0  0  0  0  0  0  0
   -0.2613   -3.2706   -1.7718 H   0  0  0  0  0  0  0  0  0  0  0  0
   -0.2613   -3.2940    0.6609 H   0  0  0  0  0  0  0  0  0  0  0  0
   -0.2613   -0.0078    0.2956 H   0  0  0  0  0  0  0  0  0  0  0  0
   -0.2613   -2.0683    2.8319 H   0  0  0  0  0  0  0  0  0  0  0  0
   -0.2613   -0.2202    2.8357 H   0  0  0  0  0  0  0  0  0  0  0  0
    2.1572    0.7170   -0.8902 C   0  0  0  0  0  0  0  0  0  0  0  0
    1.1658    1.5379   -0.5822 C   0  0  0  0  0  0  0  0  0  0  0  0
   -0.2613    1.1343   -0.3529 C   0  0  0  0  0  3  0  0  0  0  0  0
   -1.1804    1.8066   -1.3746 C   0  0  0  0  0  0  0  0  0  0  0  0
   -0.6935    1.4758    1.0743 C   0  0  0  0  0  0  0  0  0  0  0  0
    3.1669    1.0774   -1.0423 H   0  0  0  0  0  0  0  0  0  0  0  0
    1.9930   -0.3497   -1.0017 H   0  0  0  0  0  0  0  0  0  0  0  0
    1.3712    2.6027   -0.4792 H   0  0  0  0  0  0  0  0  0  0  0  0
   -2.2192    1.5097   -1.2158 H   0  0  0  0  0  0  0  0  0  0  0  0
   -1.1266    2.8949   -1.2841 H   0  0  0  0  0  0  0  0  0  0  0  0
   -0.8984    1.5395   -2.3940 H   0  0  0  0  0  0  0  0  0  0  0  0
   -0.6224    2.5524    1.2515 H   0  0  0  0  0  0  0  0  0  0  0  0
   -0.0628    0.9719    1.8081 H   0  0  0  0  0  0  0  0  0  0  0  0
   -1.7294    1.1769    1.2477 H   0  0  0  0  0  0  0  0  0  0  0  0
  1  2  2  3
  1  5  1  0
  1  6  1  0
  2  3  1  0
  2  7  1  0
  3  4  2  3
  3  8  1  0
  4  9  1  0
  4 10  1  0
 11 12  2  3
 11 16  1  0
 11 17  1  0
 12 13  1  0
 12 18  1  0
 13 14  1  0
 13 15  1  0
 14 19  1  0
 14 20  1  0
 14 21  1  0
 15 22  1  0
 15 23  1  0
 15 24  1  0
M  RAD  1  13   2
M  END
>  <reaction>  (11) 
rxn_1653

>  <mol_properties>  (11) 
{"1": {"label": "*4", "atom_type": "Cd"}, "2": {"label": "*3", "atom_type": "Cd"}, "7": {"label": "*2", "atom_type": "H0"}, "11": {"label": "*0", "atom_type": "Cd"}, "12": {"label": "*1", "atom_type": "Cs"}}

>  <type>  (11) 
unop_7

>  <geom_source>  (11) 
Heuristics

$$$$

     RDKit          3D

 24 22  0  0  0  0  0  0  0  0999 V2000
    0.2098   -2.4115   -1.3141 C   0  0  0  0  0  0  0  0  0  0  0  0
    0.2098   -2.4115    0.0148 C   0  0  0  0  0  0  0  0  0  0  0  0
    0.2098   -1.2041    0.8301 C   0  0  0  0  0  0  0  0  0  0  0  0
    0.2098   -1.2041    2.1590 C   0  0  0  0  0  0  0  0  0  0  0  0
    0.2098   -1.4849   -1.8775 H   0  0  0  0  0  0  0  0  0  0  0  0
    0.2098   -3.3330   -1.8812 H   0  0  0  0  0  0  0  0  0  0  0  0
    0.2098   -3.3564    0.5514 H   0  0  0  0  0  0  0  0  0  0  0  0
    0.2098   -0.0702    0.1862 H   0  0  0  0  0  0  0  0  0  0  0  0
    0.2098   -2.1307    2.7225 H   0  0  0  0  0  0  0  0  0  0  0  0
    0.2098   -0.2826    2.7262 H   0  0  0  0  0  0  0  0  0  0  0  0
   -2.2200    1.2956    0.1362 C   0  0  0  0  0  0  0  0  0  0  0  0
   -1.0262    1.8279   -0.0712 C   0  0  0  0  0  0  0  0  0  0  0  0
    0.2098    1.0719   -0.4624 C   0  0  0  0  0  3  0  0  0  0  0  0
    1.2917    1.2201    0.6090 C   0  0  0  0  0  0  0  0  0  0  0  0
    0.7229    1.5485   -1.8225 C   0  0  0  0  0  0  0  0  0  0  0  0
   -3.0717    1.9022    0.4174 H   0  0  0  0  0  0  0  0  0  0  0  0
   -2.3884    0.2288    0.0315 H   0  0  0  0  0  0  0  0  0  0  0  0
   -0.8976    2.9034    0.0441 H   0  0  0  0  0  0  0  0  0  0  0  0
    2.1904    0.6653    0.3316 H   0  0  0  0  0  0  0  0  0  0  0  0
    1.5718    2.2699    0.7314 H   0  0  0  0  0  0  0  0  0  0  0  0
    0.9435    0.8501    1.5743 H   0  0  0  0  0  0  0  0  0  0  0  0
    0.9829    2.6100   -1.7861 H   0  0  0  0  0  0  0  0  0  0  0  0
   -0.0325    1.4137   -2.5979 H   0  0  0  0  0  0  0  0  0  0  0  0
    1.6183    0.9957   -2.1144 H   0  0  0  0  0  0  0  0  0  0  0  0
  1  2  2  3
  1  5  1  0
  1  6  1  0
  2  3  1  0
  2  7  1  0
  3  4  2  3
  3  8  1  0
  4  9  1  0
  4 10  1  0
 11 12  2  3
 11 16  1  0
 11 17  1  0
 12 13  1  0
 12 18  1  0
 13 14  1  0
 13 15  1  0
 14 19  1  0
 14 20  1  0
 14 21  1  0
 15 22  1  0
 15 23  1  0
 15 24  1  0
M  RAD  1  13   2
M  END
>  <reaction>  (12) 
rxn_1653

>  <mol_properties>  (12) 
{"1": {"label": "*4", "atom_type": "Cd"}, "2": {"label": "*3", "atom_type": "Cd"}, "7": {"label": "*2", "atom_type": "H0"}, "11": {"label": "*0", "atom_type": "Cd"}, "12": {"label": "*1", "atom_type": "Cs"}}

>  <type>  (12) 
unop_8

>  <geom_source>  (12) 
Heuristics

$$$$

     RDKit          3D

 24 22  0  0  0  0  0  0  0  0999 V2000
    0.2613   -2.3491   -1.2046 C   0  0  0  0  0  0  0  0  0  0  0  0
    0.2613   -2.3491    0.1243 C   0  0  0  0  0  0  0  0  0  0  0  0
    0.2613   -1.1417    0.9396 C   0  0  0  0  0  0  0  0  0  0  0  0
    0.2613   -1.1417    2.2685 C   0  0  0  0  0  0  0  0  0  0  0  0
    0.2613   -1.4225   -1.7680 H   0  0  0  0  0  0  0  0  0  0  0  0
    0.2613   -3.2706   -1.7718 H   0  0  0  0  0  0  0  0  0  0  0  0
    0.2613   -3.2940    0.6609 H   0  0  0  0  0  0  0  0  0  0  0  0
    0.2613   -0.0078    0.2956 H   0  0  0  0  0  0  0  0  0  0  0  0
    0.2613   -2.0683    2.8319 H   0  0  0  0  0  0  0  0  0  0  0  0
    0.2613   -0.2202    2.8357 H   0  0  0  0  0  0  0  0  0  0  0  0
   -2.1572    0.7170   -0.8902 C   0  0  0  0  0  0  0  0  0  0  0  0
   -1.1658    1.5379   -0.5822 C   0  0  0  0  0  0  0  0  0  0  0  0
    0.2613    1.1343   -0.3529 C   0  0  0  0  0  3  0  0  0  0  0  0
    0.6935    1.4758    1.0743 C   0  0  0  0  0  0  0  0  0  0  0  0
    1.1804    1.8066   -1.3746 C   0  0  0  0  0  0  0  0  0  0  0  0
   -3.1669    1.0774   -1.0423 H   0  0  0  0  0  0  0  0  0  0  0  0
   -1.9930   -0.3497   -1.0017 H   0  0  0  0  0  0  0  0  0  0  0  0
   -1.3712    2.6027   -0.4792 H   0  0  0  0  0  0  0  0  0  0  0  0
    1.7294    1.1769    1.2477 H   0  0  0  0  0  0  0  0  0  0  0  0
    0.6224    2.5524    1.2515 H   0  0  0  0  0  0  0  0  0  0  0  0
    0.0628    0.9719    1.8081 H   0  0  0  0  0  0  0  0  0  0  0  0
    1.1266    2.8949   -1.2841 H   0  0  0  0  0  0  0  0  0  0  0  0
    0.8984    1.5395   -2.3939 H   0  0  0  0  0  0  0  0  0  0  0  0
    2.2192    1.5097   -1.2158 H   0  0  0  0  0  0  0  0  0  0  0  0
  1  2  2  3
  1  5  1  0
  1  6  1  0
  2  3  1  0
  2  7  1  0
  3  4  2  3
  3  8  1  0
  4  9  1  0
  4 10  1  0
 11 12  2  3
 11 16  1  0
 11 17  1  0
 12 13  1  0
 12 18  1  0
 13 14  1  0
 13 15  1  0
 14 19  1  0
 14 20  1  0
 14 21  1  0
 15 22  1  0
 15 23  1  0
 15 24  1  0
M  RAD  1  13   2
M  END
>  <reaction>  (13) 
rxn_1653

>  <mol_properties>  (13) 
{"1": {"label": "*4", "atom_type": "Cd"}, "2": {"label": "*3", "atom_type": "Cd"}, "7": {"label": "*2", "atom_type": "H0"}, "11": {"label": "*0", "atom_type": "Cd"}, "12": {"label": "*1", "atom_type": "Cs"}}

>  <type>  (13) 
unop_9

>  <geom_source>  (13) 
Heuristics

$$$$

     RDKit          3D

 24 22  0  0  0  0  0  0  0  0999 V2000
   -0.2098   -2.4115   -1.3141 C   0  0  0  0  0  0  0  0  0  0  0  0
   -0.2098   -2.4115    0.0148 C   0  0  0  0  0  0  0  0  0  0  0  0
   -0.2098   -1.2041    0.8301 C   0  0  0  0  0  0  0  0  0  0  0  0
   -0.2098   -1.2041    2.1590 C   0  0  0  0  0  0  0  0  0  0  0  0
   -0.2098   -1.4849   -1.8775 H   0  0  0  0  0  0  0  0  0  0  0  0
   -0.2098   -3.3330   -1.8812 H   0  0  0  0  0  0  0  0  0  0  0  0
   -0.2098   -3.3564    0.5514 H   0  0  0  0  0  0  0  0  0  0  0  0
   -0.2098   -0.0702    0.1862 H   0  0  0  0  0  0  0  0  0  0  0  0
   -0.2098   -2.1307    2.7225 H   0  0  0  0  0  0  0  0  0  0  0  0
   -0.2098   -0.2826    2.7262 H   0  0  0  0  0  0  0  0  0  0  0  0
    2.2200    1.2956    0.1362 C   0  0  0  0  0  0  0  0  0  0  0  0
    1.0262    1.8279   -0.0712 C   0  0  0  0  0  0  0  0  0  0  0  0
   -0.2098    1.0719   -0.4624 C   0  0  0  0  0  3  0  0  0  0  0  0
   -0.7229    1.5485   -1.8225 C   0  0  0  0  0  0  0  0  0  0  0  0
   -1.2917    1.2201    0.6090 C   0  0  0  0  0  0  0  0  0  0  0  0
    3.0717    1.9022    0.4174 H   0  0  0  0  0  0  0  0  0  0  0  0
    2.3884    0.2288    0.0315 H   0  0  0  0  0  0  0  0  0  0  0  0
    0.8976    2.9034    0.0441 H   0  0  0  0  0  0  0  0  0  0  0  0
   -1.6182    0.9957   -2.1144 H   0  0  0  0  0  0  0  0  0  0  0  0
   -0.9829    2.6100   -1.7861 H   0  0  0  0  0  0  0  0  0  0  0  0
    0.0325    1.4137   -2.5979 H   0  0  0  0  0  0  0  0  0  0  0  0
   -1.5718    2.2699    0.7314 H   0  0  0  0  0  0  0  0  0  0  0  0
   -0.9435    0.8501    1.5743 H   0  0  0  0  0  0  0  0  0  0  0  0
   -2.1904    0.6653    0.3316 H   0  0  0  0  0  0  0  0  0  0  0  0
  1  2  2  3
  1  5  1  0
  1  6  1  0
  2  3  1  0
  2  7  1  0
  3  4  2  3
  3  8  1  0
  4  9  1  0
  4 10  1  0
 11 12  2  3
 11 16  1  0
 11 17  1  0
 12 13  1  0
 12 18  1  0
 13 14  1  0
 13 15  1  0
 14 19  1  0
 14 20  1  0
 14 21  1  0
 15 22  1  0
 15 23  1  0
 15 24  1  0
M  RAD  1  13   2
M  END
>  <reaction>  (14) 
rxn_1653

>  <mol_properties>  (14) 
{"1": {"label": "*4", "atom_type": "Cd"}, "2": {"label": "*3", "atom_type": "Cd"}, "7": {"label": "*2", "atom_type": "H0"}, "11": {"label": "*0", "atom_type": "Cd"}, "12": {"label": "*1", "atom_type": "Cs"}}

>  <type>  (14) 
unop_10

>  <geom_source>  (14) 
Heuristics

$$$$

     RDKit          3D

 24 22  0  0  0  0  0  0  0  0999 V2000
    0.1437   -2.2336   -0.9840 C   0  0  0  0  0  0  0  0  0  0  0  0
    0.1437   -2.2336    0.3449 C   0  0  0  0  0  0  0  0  0  0  0  0
    0.1437   -1.0263    1.1602 C   0  0  0  0  0  0  0  0  0  0  0  0
    0.1437   -1.0263    2.4891 C   0  0  0  0  0  0  0  0  0  0  0  0
    0.1437   -1.3070   -1.5474 H   0  0  0  0  0  0  0  0  0  0  0  0
    0.1437   -3.1552   -1.5512 H   0  0  0  0  0  0  0  0  0  0  0  0
    0.1437   -3.1786    0.8815 H   0  0  0  0  0  0  0  0  0  0  0  0
    0.1437    0.1076    0.5163 H   0  0  0  0  0  0  0  0  0  0  0  0
    0.1437   -1.9529    3.0525 H   0  0  0  0  0  0  0  0  0  0  0  0
    0.1437   -0.1048    3.0563 H   0  0  0  0  0  0  0  0  0  0  0  0
   -0.8017   -0.1274   -2.0090 C   0  0  0  0  0  0  0  0  0  0  0  0
   -0.5699    1.0431   -1.4363 C   0  0  0  0  0  0  0  0  0  0  0  0
    0.1437    1.2497   -0.1323 C   0  0  0  0  0  3  0  0  0  0  0  0
   -0.7825    1.9155    0.8871 C   0  0  0  0  0  0  0  0  0  0  0  0
    1.4110    2.0812   -0.3395 C   0  0  0  0  0  0  0  0  0  0  0  0
   -1.3245   -0.2039   -2.9542 H   0  0  0  0  0  0  0  0  0  0  0  0
   -0.4752   -1.0549   -1.5504 H   0  0  0  0  0  0  0  0  0  0  0  0
   -0.9137    1.9519   -1.9284 H   0  0  0  0  0  0  0  0  0  0  0  0
   -0.2693    2.0611    1.8400 H   0  0  0  0  0  0  0  0  0  0  0  0
   -1.1076    2.8964    0.5297 H   0  0  0  0  0  0  0  0  0  0  0  0
   -1.6725    1.3103    1.0649 H   0  0  0  0  0  0  0  0  0  0  0  0
    1.1635    3.0679   -0.7403 H   0  0  0  0  0  0  0  0  0  0  0  0
    2.0913    1.5946   -1.0398 H   0  0  0  0  0  0  0  0  0  0  0  0
    1.9373    2.2278    0.6060 H   0  0  0  0  0  0  0  0  0  0  0  0
  1  2  2  3
  1  5  1  0
  1  6  1  0
  2  3  1  0
  2  7  1  0
  3  4  2  3
  3  8  1  0
  4  9  1  0
  4 10  1  0
 11 12  2  3
 11 16  1  0
 11 17  1  0
 12 13  1  0
 12 18  1  0
 13 14  1  0
 13 15  1  0
 14 19  1  0
 14 20  1  0
 14 21  1  0
 15 22  1  0
 15 23  1  0
 15 24  1  0
M  RAD  1  13   2
M  END
>  <reaction>  (15) 
rxn_1653

>  <mol_properties>  (15) 
{"1": {"label": "*4", "atom_type": "Cd"}, "2": {"label": "*3", "atom_type": "Cd"}, "7": {"label": "*2", "atom_type": "H0"}, "11": {"label": "*0", "atom_type": "Cd"}, "12": {"label": "*1", "atom_type": "Cs"}}

>  <type>  (15) 
unop_11

>  <geom_source>  (15) 
Heuristics

$$$$

     RDKit          3D

 24 22  0  0  0  0  0  0  0  0999 V2000
   -1.0019   -0.5961    0.0326 C   0  0  0  0  0  3  0  0  0  0  0  0
   -0.5579   -1.8132    0.8455 C   0  0  0  0  0  0  0  0  0  0  0  0
   -2.0497   -0.9904   -1.0093 C   0  0  0  0  0  0  0  0  0  0  0  0
   -1.5615    0.4596    0.9510 C   0  0  0  0  0  0  0  0  0  0  0  0
    1.6773   -0.1812   -0.1284 C   0  0  0  0  0  0  0  0  0  0  0  0
   -1.0107    1.6723    1.0459 C   0  0  0  0  0  0  0  0  0  0  0  0
    2.9744   -0.1012    0.1720 C   0  0  0  0  0  0  0  0  0  0  0  0
    1.3960    2.0242   -1.2814 C   0  0  0  0  0  0  0  0  0  0  0  0
    0.9127    0.8639   -0.8400 C   0  0  0  0  0  0  0  0  0  0  0  0
    0.1444   -0.0929   -0.6661 H   0  0  0  0  0  0  0  0  0  0  0  0
   -0.1186   -2.5792    0.1721 H   0  0  0  0  0  0  0  0  0  0  0  0
   -1.4177   -2.2608    1.3897 H   0  0  0  0  0  0  0  0  0  0  0  0
    0.2185   -1.5132    1.5810 H   0  0  0  0  0  0  0  0  0  0  0  0
   -2.9542   -1.4133   -0.5208 H   0  0  0  0  0  0  0  0  0  0  0  0
   -2.3437   -0.1000   -1.6048 H   0  0  0  0  0  0  0  0  0  0  0  0
   -1.6276   -1.7469   -1.7042 H   0  0  0  0  0  0  0  0  0  0  0  0
   -2.4366    0.2291    1.5526 H   0  0  0  0  0  0  0  0  0  0  0  0
    1.1375   -1.0718    0.1662 H   0  0  0  0  0  0  0  0  0  0  0  0
   -0.1363    1.9430    0.4628 H   0  0  0  0  0  0  0  0  0  0  0  0
   -1.4387    2.4096    1.7172 H   0  0  0  0  0  0  0  0  0  0  0  0
    3.5805    0.7540   -0.0879 H   0  0  0  0  0  0  0  0  0  0  0  0
    3.4521   -0.9183    0.6969 H   0  0  0  0  0  0  0  0  0  0  0  0
    2.4286    2.3127   -1.1522 H   0  0  0  0  0  0  0  0  0  0  0  0
    0.7330    2.7100   -1.7905 H   0  0  0  0  0  0  0  0  0  0  0  0
  1  2  1  0
  1  3  1  0
  1  4  1  0
  2 11  1  0
  2 12  1  0
  2 13  1  0
  3 14  1  0
  3 15  1  0
  3 16  1  0
  4  6  2  3
  4 17  1  0
  5  7  2  3
  5  9  1  0
  5 18  1  0
  6 19  1  0
  6 20  1  0
  7 21  1  0
  7 22  1  0
  8  9  2  3
  8 23  1  0
  8 24  1  0
  9 10  1  0
M  RAD  1   1   2
M  END
>  <reaction>  (16) 
rxn_1653

>  <mol_properties>  (16) 
{"1": {"label": "*4", "atom_type": "Cd"}, "2": {"label": "*3", "atom_type": "Cd"}, "7": {"label": "*2", "atom_type": "H0"}, "11": {"label": "*0", "atom_type": "Cd"}, "12": {"label": "*1", "atom_type": "Cs"}}

>  <type>  (16) 
unop_12

>  <geom_source>  (16) 
AutoTST

$$$$
