
     RDKit          3D

  5  4  0  0  0  0  0  0  0  0999 V2000
    0.0000    0.0000    0.0000 C   0  0  0  0  0  0  0  0  0  0  0  0
   -0.6486   -0.7720   -0.4113 H   0  0  0  0  0  0  0  0  0  0  0  0
   -0.3482    0.9787   -0.3267 H   0  0  0  0  0  0  0  0  0  0  0  0
   -0.0223   -0.0487    1.0876 H   0  0  0  0  0  0  0  0  0  0  0  0
    1.0191   -0.1580   -0.3496 H   0  0  0  0  0  0  0  0  0  0  0  0
  1  2  1  0
  1  3  1  0
  1  4  1  0
  1  5  1  0
M  END
>  <reaction>  (1) 
rxn_128

>  <mol_properties>  (1) 
{"0": {"label": "donator", "atom_type": "Cs"}, "1": {"label": "d_hydrogen", "atom_type": "H0"}}

>  <type>  (1) 
r1h

$$$$

     RDKit          3D

  2  1  0  0  0  0  0  0  0  0999 V2000
    0.0000    0.0000    0.5193 N   0  0  0  0  0  1  0  0  0  0  0  0
    0.0000    0.0000   -0.5193 H   0  0  0  0  0  0  0  0  0  0  0  0
  1  2  1  0
M  RAD  1   1   3
M  END
>  <reaction>  (2) 
rxn_128

>  <mol_properties>  (2) 
{"0": {"label": "acceptor", "atom_type": "N3s"}}

>  <type>  (2) 
r2

$$$$

     RDKit          3D

  3  2  0  0  0  0  0  0  0  0999 V2000
    0.0002    0.4233    0.0000 N   0  0  0  0  0  2  0  0  0  0  0  0
   -0.8051   -0.2112    0.0000 H   0  0  0  0  0  0  0  0  0  0  0  0
    0.8049   -0.2121    0.0000 H   0  0  0  0  0  0  0  0  0  0  0  0
  1  2  1  0
  1  3  1  0
M  RAD  1   1   2
M  END
>  <reaction>  (3) 
rxn_128

>  <mol_properties>  (3) 
{"0": {"label": "acceptor", "atom_type": "N3s"}, "2": {"label": "a_hydrogen", "atom_type": "H0"}}

>  <type>  (3) 
r2h

$$$$

     RDKit          3D

  7  5  0  0  0  0  0  0  0  0999 V2000
   -0.2906    1.2403    0.3336 N   0  0  0  0  0  2  0  0  0  0  0  0
    0.4805    1.6178   -0.2393 H   0  0  0  0  0  0  0  0  0  0  0  0
   -0.0138   -1.2350   -0.4196 C   0  0  0  0  0  3  0  0  0  0  0  0
   -0.2285    0.0811    0.0379 H   0  0  0  0  0  0  0  0  0  0  0  0
    1.0008   -1.4717   -0.1163 H   0  0  0  0  0  0  0  0  0  0  0  0
   -0.7849   -1.7763    0.1189 H   0  0  0  0  0  0  0  0  0  0  0  0
   -0.1634   -1.1829   -1.4931 H   0  0  0  0  0  0  0  0  0  0  0  0
  1  2  1  0
  1  4  1  0
  3  5  1  0
  3  6  1  0
  3  7  1  0
M  RAD  2   1   2   3   2
M  END
>  <reaction>  (4) 
rxn_128

>  <mol_properties>  (4) 
{"0": {"label": "*1", "atom_type": "N3s"}, "1": {"label": "*0", "atom_type": "H0"}, "2": {"label": "*3", "atom_type": "Cs"}, "3": {"label": "*2", "atom_type": "H0"}, "4": {"label": "*4", "atom_type": "H0"}}

>  <type>  (4) 
ts

$$$$

     RDKit          3D

  7  5  0  0  0  0  0  0  0  0999 V2000
    0.0280    1.2267    0.4165 N   0  0  0  0  0  2  0  0  0  0  0  0
   -0.8355    1.2857    0.9662 H   0  0  0  0  0  0  0  0  0  0  0  0
    0.0280   -1.1652   -0.4291 C   0  0  0  0  0  3  0  0  0  0  0  0
    0.0280    0.0667    0.0064 H   0  0  0  0  0  0  0  0  0  0  0  0
    0.9171   -1.6786   -0.0662 H   0  0  0  0  0  0  0  0  0  0  0  0
   -0.8611   -1.6786   -0.0662 H   0  0  0  0  0  0  0  0  0  0  0  0
    0.0280   -1.1652   -1.5181 H   0  0  0  0  0  0  0  0  0  0  0  0
  1  2  1  0
  1  4  1  0
  3  5  1  0
  3  6  1  0
  3  7  1  0
M  RAD  2   1   2   3   2
M  END
>  <reaction>  (5) 
rxn_128

>  <mol_properties>  (5) 
{"0": {"label": "*1", "atom_type": "N3s"}, "1": {"label": "*0", "atom_type": "H0"}, "2": {"label": "*3", "atom_type": "Cs"}, "3": {"label": "*2", "atom_type": "H0"}, "4": {"label": "*4", "atom_type": "H0"}}

>  <type>  (5) 
unop_1

>  <geom_source>  (5) 
Heuristics

$$$$

     RDKit          3D

  7  5  0  0  0  0  0  0  0  0999 V2000
    0.0162    1.2120    0.4582 N   0  0  0  0  0  2  0  0  0  0  0  0
   -0.4824    1.7249   -0.2763 H   0  0  0  0  0  0  0  0  0  0  0  0
    0.0162   -1.1800   -0.3875 C   0  0  0  0  0  3  0  0  0  0  0  0
    0.0162    0.0520    0.0481 H   0  0  0  0  0  0  0  0  0  0  0  0
    0.9053   -1.6933   -0.0245 H   0  0  0  0  0  0  0  0  0  0  0  0
   -0.8729   -1.6933   -0.0245 H   0  0  0  0  0  0  0  0  0  0  0  0
    0.0162   -1.1800   -1.4764 H   0  0  0  0  0  0  0  0  0  0  0  0
  1  2  1  0
  1  4  1  0
  3  5  1  0
  3  6  1  0
  3  7  1  0
M  RAD  2   1   2   3   2
M  END
>  <reaction>  (6) 
rxn_128

>  <mol_properties>  (6) 
{"0": {"label": "*1", "atom_type": "N3s"}, "1": {"label": "*0", "atom_type": "H0"}, "2": {"label": "*3", "atom_type": "Cs"}, "3": {"label": "*2", "atom_type": "H0"}, "4": {"label": "*4", "atom_type": "H0"}}

>  <type>  (6) 
unop_2

>  <geom_source>  (6) 
Heuristics

$$$$

     RDKit          3D

  7  5  0  0  0  0  0  0  0  0999 V2000
    0.0162    1.2307    0.4054 N   0  0  0  0  0  2  0  0  0  0  0  0
   -0.4824    1.1679    1.2991 H   0  0  0  0  0  0  0  0  0  0  0  0
    0.0162   -1.1613   -0.4403 C   0  0  0  0  0  3  0  0  0  0  0  0
    0.0162    0.0707   -0.0047 H   0  0  0  0  0  0  0  0  0  0  0  0
    0.9053   -1.6746   -0.0773 H   0  0  0  0  0  0  0  0  0  0  0  0
   -0.8729   -1.6746   -0.0773 H   0  0  0  0  0  0  0  0  0  0  0  0
    0.0162   -1.1613   -1.5292 H   0  0  0  0  0  0  0  0  0  0  0  0
  1  2  1  0
  1  4  1  0
  3  5  1  0
  3  6  1  0
  3  7  1  0
M  RAD  2   1   2   3   2
M  END
>  <reaction>  (7) 
rxn_128

>  <mol_properties>  (7) 
{"0": {"label": "*1", "atom_type": "N3s"}, "1": {"label": "*0", "atom_type": "H0"}, "2": {"label": "*3", "atom_type": "Cs"}, "3": {"label": "*2", "atom_type": "H0"}, "4": {"label": "*4", "atom_type": "H0"}}

>  <type>  (7) 
unop_3

>  <geom_source>  (7) 
Heuristics

$$$$

     RDKit          3D

  7  5  0  0  0  0  0  0  0  0999 V2000
   -0.0280    1.2159    0.4471 N   0  0  0  0  0  2  0  0  0  0  0  0
    0.8355    1.6072    0.0566 H   0  0  0  0  0  0  0  0  0  0  0  0
   -0.0280   -1.1760   -0.3986 C   0  0  0  0  0  3  0  0  0  0  0  0
   -0.0280    0.0559    0.0369 H   0  0  0  0  0  0  0  0  0  0  0  0
    0.8611   -1.6894   -0.0356 H   0  0  0  0  0  0  0  0  0  0  0  0
   -0.9171   -1.6894   -0.0356 H   0  0  0  0  0  0  0  0  0  0  0  0
   -0.0280   -1.1760   -1.4876 H   0  0  0  0  0  0  0  0  0  0  0  0
  1  2  1  0
  1  4  1  0
  3  5  1  0
  3  6  1  0
  3  7  1  0
M  RAD  2   1   2   3   2
M  END
>  <reaction>  (8) 
rxn_128

>  <mol_properties>  (8) 
{"0": {"label": "*1", "atom_type": "N3s"}, "1": {"label": "*0", "atom_type": "H0"}, "2": {"label": "*3", "atom_type": "Cs"}, "3": {"label": "*2", "atom_type": "H0"}, "4": {"label": "*4", "atom_type": "H0"}}

>  <type>  (8) 
unop_4

>  <geom_source>  (8) 
Heuristics

$$$$

     RDKit          3D

  7  5  0  0  0  0  0  0  0  0999 V2000
    0.0000    1.2321    0.4013 N   0  0  0  0  0  2  0  0  0  0  0  0
    0.0000    1.1249    1.4209 H   0  0  0  0  0  0  0  0  0  0  0  0
    0.0000   -1.1599   -0.4444 C   0  0  0  0  0  3  0  0  0  0  0  0
    0.0000    0.0721   -0.0088 H   0  0  0  0  0  0  0  0  0  0  0  0
    0.8891   -1.6732   -0.0814 H   0  0  0  0  0  0  0  0  0  0  0  0
   -0.8891   -1.6732   -0.0814 H   0  0  0  0  0  0  0  0  0  0  0  0
    0.0000   -1.1599   -1.5333 H   0  0  0  0  0  0  0  0  0  0  0  0
  1  2  1  0
  1  4  1  0
  3  5  1  0
  3  6  1  0
  3  7  1  0
M  RAD  2   1   2   3   2
M  END
>  <reaction>  (9) 
rxn_128

>  <mol_properties>  (9) 
{"0": {"label": "*1", "atom_type": "N3s"}, "1": {"label": "*0", "atom_type": "H0"}, "2": {"label": "*3", "atom_type": "Cs"}, "3": {"label": "*2", "atom_type": "H0"}, "4": {"label": "*4", "atom_type": "H0"}}

>  <type>  (9) 
unop_5

>  <geom_source>  (9) 
Heuristics

$$$$

     RDKit          3D

  7  5  0  0  0  0  0  0  0  0999 V2000
   -0.0324    1.2213    0.4318 N   0  0  0  0  0  2  0  0  0  0  0  0
    0.9647    1.4464    0.5114 H   0  0  0  0  0  0  0  0  0  0  0  0
   -0.0324   -1.1706   -0.4139 C   0  0  0  0  0  3  0  0  0  0  0  0
   -0.0324    0.0613    0.0217 H   0  0  0  0  0  0  0  0  0  0  0  0
    0.8567   -1.6840   -0.0509 H   0  0  0  0  0  0  0  0  0  0  0  0
   -0.9215   -1.6840   -0.0509 H   0  0  0  0  0  0  0  0  0  0  0  0
   -0.0324   -1.1706   -1.5028 H   0  0  0  0  0  0  0  0  0  0  0  0
  1  2  1  0
  1  4  1  0
  3  5  1  0
  3  6  1  0
  3  7  1  0
M  RAD  2   1   2   3   2
M  END
>  <reaction>  (10) 
rxn_128

>  <mol_properties>  (10) 
{"0": {"label": "*1", "atom_type": "N3s"}, "1": {"label": "*0", "atom_type": "H0"}, "2": {"label": "*3", "atom_type": "Cs"}, "3": {"label": "*2", "atom_type": "H0"}, "4": {"label": "*4", "atom_type": "H0"}}

>  <type>  (10) 
unop_6

>  <geom_source>  (10) 
Heuristics

$$$$

     RDKit          3D

  7  5  0  0  0  0  0  0  0  0999 V2000
   -0.0280    1.2267    0.4165 N   0  0  0  0  0  2  0  0  0  0  0  0
    0.8355    1.2857    0.9662 H   0  0  0  0  0  0  0  0  0  0  0  0
   -0.0280   -1.1652   -0.4291 C   0  0  0  0  0  3  0  0  0  0  0  0
   -0.0280    0.0667    0.0064 H   0  0  0  0  0  0  0  0  0  0  0  0
    0.8611   -1.6786   -0.0662 H   0  0  0  0  0  0  0  0  0  0  0  0
   -0.9171   -1.6786   -0.0662 H   0  0  0  0  0  0  0  0  0  0  0  0
   -0.0280   -1.1652   -1.5181 H   0  0  0  0  0  0  0  0  0  0  0  0
  1  2  1  0
  1  4  1  0
  3  5  1  0
  3  6  1  0
  3  7  1  0
M  RAD  2   1   2   3   2
M  END
>  <reaction>  (11) 
rxn_128

>  <mol_properties>  (11) 
{"0": {"label": "*1", "atom_type": "N3s"}, "1": {"label": "*0", "atom_type": "H0"}, "2": {"label": "*3", "atom_type": "Cs"}, "3": {"label": "*2", "atom_type": "H0"}, "4": {"label": "*4", "atom_type": "H0"}}

>  <type>  (11) 
unop_7

>  <geom_source>  (11) 
Heuristics

$$$$

     RDKit          3D

  7  5  0  0  0  0  0  0  0  0999 V2000
    0.0324    1.2213    0.4318 N   0  0  0  0  0  2  0  0  0  0  0  0
   -0.9647    1.4464    0.5114 H   0  0  0  0  0  0  0  0  0  0  0  0
    0.0324   -1.1706   -0.4139 C   0  0  0  0  0  3  0  0  0  0  0  0
    0.0324    0.0613    0.0217 H   0  0  0  0  0  0  0  0  0  0  0  0
    0.9215   -1.6840   -0.0509 H   0  0  0  0  0  0  0  0  0  0  0  0
   -0.8567   -1.6840   -0.0509 H   0  0  0  0  0  0  0  0  0  0  0  0
    0.0324   -1.1706   -1.5028 H   0  0  0  0  0  0  0  0  0  0  0  0
  1  2  1  0
  1  4  1  0
  3  5  1  0
  3  6  1  0
  3  7  1  0
M  RAD  2   1   2   3   2
M  END
>  <reaction>  (12) 
rxn_128

>  <mol_properties>  (12) 
{"0": {"label": "*1", "atom_type": "N3s"}, "1": {"label": "*0", "atom_type": "H0"}, "2": {"label": "*3", "atom_type": "Cs"}, "3": {"label": "*2", "atom_type": "H0"}, "4": {"label": "*4", "atom_type": "H0"}}

>  <type>  (12) 
unop_8

>  <geom_source>  (12) 
Heuristics

$$$$

     RDKit          3D

  7  5  0  0  0  0  0  0  0  0999 V2000
   -0.0162    1.2120    0.4582 N   0  0  0  0  0  2  0  0  0  0  0  0
    0.4824    1.7249   -0.2763 H   0  0  0  0  0  0  0  0  0  0  0  0
   -0.0162   -1.1800   -0.3875 C   0  0  0  0  0  3  0  0  0  0  0  0
   -0.0162    0.0520    0.0481 H   0  0  0  0  0  0  0  0  0  0  0  0
    0.8729   -1.6933   -0.0245 H   0  0  0  0  0  0  0  0  0  0  0  0
   -0.9053   -1.6933   -0.0245 H   0  0  0  0  0  0  0  0  0  0  0  0
   -0.0162   -1.1800   -1.4764 H   0  0  0  0  0  0  0  0  0  0  0  0
  1  2  1  0
  1  4  1  0
  3  5  1  0
  3  6  1  0
  3  7  1  0
M  RAD  2   1   2   3   2
M  END
>  <reaction>  (13) 
rxn_128

>  <mol_properties>  (13) 
{"0": {"label": "*1", "atom_type": "N3s"}, "1": {"label": "*0", "atom_type": "H0"}, "2": {"label": "*3", "atom_type": "Cs"}, "3": {"label": "*2", "atom_type": "H0"}, "4": {"label": "*4", "atom_type": "H0"}}

>  <type>  (13) 
unop_9

>  <geom_source>  (13) 
Heuristics

$$$$

     RDKit          3D

  7  5  0  0  0  0  0  0  0  0999 V2000
    0.0280    1.2159    0.4471 N   0  0  0  0  0  2  0  0  0  0  0  0
   -0.8355    1.6072    0.0566 H   0  0  0  0  0  0  0  0  0  0  0  0
    0.0280   -1.1760   -0.3986 C   0  0  0  0  0  3  0  0  0  0  0  0
    0.0280    0.0559    0.0369 H   0  0  0  0  0  0  0  0  0  0  0  0
    0.9171   -1.6894   -0.0356 H   0  0  0  0  0  0  0  0  0  0  0  0
   -0.8611   -1.6894   -0.0356 H   0  0  0  0  0  0  0  0  0  0  0  0
    0.0280   -1.1760   -1.4876 H   0  0  0  0  0  0  0  0  0  0  0  0
  1  2  1  0
  1  4  1  0
  3  5  1  0
  3  6  1  0
  3  7  1  0
M  RAD  2   1   2   3   2
M  END
>  <reaction>  (14) 
rxn_128

>  <mol_properties>  (14) 
{"0": {"label": "*1", "atom_type": "N3s"}, "1": {"label": "*0", "atom_type": "H0"}, "2": {"label": "*3", "atom_type": "Cs"}, "3": {"label": "*2", "atom_type": "H0"}, "4": {"label": "*4", "atom_type": "H0"}}

>  <type>  (14) 
unop_10

>  <geom_source>  (14) 
Heuristics

$$$$

     RDKit          3D

  7  5  0  0  0  0  0  0  0  0999 V2000
   -0.0162    1.2307    0.4054 N   0  0  0  0  0  2  0  0  0  0  0  0
    0.4824    1.1679    1.2991 H   0  0  0  0  0  0  0  0  0  0  0  0
   -0.0162   -1.1613   -0.4403 C   0  0  0  0  0  3  0  0  0  0  0  0
   -0.0162    0.0707   -0.0047 H   0  0  0  0  0  0  0  0  0  0  0  0
    0.8729   -1.6746   -0.0773 H   0  0  0  0  0  0  0  0  0  0  0  0
   -0.9053   -1.6746   -0.0773 H   0  0  0  0  0  0  0  0  0  0  0  0
   -0.0162   -1.1613   -1.5292 H   0  0  0  0  0  0  0  0  0  0  0  0
  1  2  1  0
  1  4  1  0
  3  5  1  0
  3  6  1  0
  3  7  1  0
M  RAD  2   1   2   3   2
M  END
>  <reaction>  (15) 
rxn_128

>  <mol_properties>  (15) 
{"0": {"label": "*1", "atom_type": "N3s"}, "1": {"label": "*0", "atom_type": "H0"}, "2": {"label": "*3", "atom_type": "Cs"}, "3": {"label": "*2", "atom_type": "H0"}, "4": {"label": "*4", "atom_type": "H0"}}

>  <type>  (15) 
unop_11

>  <geom_source>  (15) 
Heuristics

$$$$

     RDKit          3D

  7  5  0  0  0  0  0  0  0  0999 V2000
    0.0000    1.2105    0.4623 N   0  0  0  0  0  2  0  0  0  0  0  0
    0.0000    1.7680   -0.3982 H   0  0  0  0  0  0  0  0  0  0  0  0
    0.0000   -1.1814   -0.3834 C   0  0  0  0  0  3  0  0  0  0  0  0
    0.0000    0.0506    0.0522 H   0  0  0  0  0  0  0  0  0  0  0  0
    0.8891   -1.6948   -0.0204 H   0  0  0  0  0  0  0  0  0  0  0  0
   -0.8891   -1.6948   -0.0204 H   0  0  0  0  0  0  0  0  0  0  0  0
    0.0000   -1.1814   -1.4723 H   0  0  0  0  0  0  0  0  0  0  0  0
  1  2  1  0
  1  4  1  0
  3  5  1  0
  3  6  1  0
  3  7  1  0
M  RAD  2   1   2   3   2
M  END
>  <reaction>  (16) 
rxn_128

>  <mol_properties>  (16) 
{"0": {"label": "*1", "atom_type": "N3s"}, "1": {"label": "*0", "atom_type": "H0"}, "2": {"label": "*3", "atom_type": "Cs"}, "3": {"label": "*2", "atom_type": "H0"}, "4": {"label": "*4", "atom_type": "H0"}}

>  <type>  (16) 
unop_12

>  <geom_source>  (16) 
Heuristics

$$$$
