
     RDKit          3D

  6  5  0  0  0  0  0  0  0  0999 V2000
    0.6594    0.0438   -0.0050 C   0  0  0  0  0  0  0  0  0  0  0  0
   -0.6594   -0.0438    0.0050 C   0  0  0  0  0  0  0  0  0  0  0  0
    1.1706    0.8681   -0.4881 H   0  0  0  0  0  0  0  0  0  0  0  0
    1.2824   -0.7051    0.4696 H   0  0  0  0  0  0  0  0  0  0  0  0
   -1.2824    0.7051   -0.4696 H   0  0  0  0  0  0  0  0  0  0  0  0
   -1.1706   -0.8681    0.4881 H   0  0  0  0  0  0  0  0  0  0  0  0
  1  2  2  3
  1  3  1  0
  1  4  1  0
  2  5  1  0
  2  6  1  0
M  END
>  <reaction>  (1) 
rxn_1592

>  <mol_properties>  (1) 
{"1": {"label": "donator", "atom_type": "Cd"}, "4": {"label": "d_hydrogen", "atom_type": "H0"}}

>  <type>  (1) 
r1h

$$$$

     RDKit          3D

  6  5  0  0  0  0  0  0  0  0999 V2000
    1.7035    0.4954    0.0162 S   0  0  0  0  0  0  0  0  0  0  0  0
    0.1927   -0.1841   -0.3584 C   0  0  0  0  0  3  0  0  0  0  0  0
   -1.0558    0.0577   -0.0460 C   0  0  0  0  0  0  0  0  0  0  0  0
    2.3611   -0.6557    0.2254 H   0  0  0  0  0  0  0  0  0  0  0  0
   -1.8677   -0.4245   -0.5802 H   0  0  0  0  0  0  0  0  0  0  0  0
   -1.3294    0.7333    0.7635 H   0  0  0  0  0  0  0  0  0  0  0  0
  1  2  1  0
  1  4  1  0
  2  3  2  3
  3  5  1  0
  3  6  1  0
M  RAD  1   2   2
M  END
>  <reaction>  (2) 
rxn_1592

>  <mol_properties>  (2) 
{"1": {"label": "acceptor", "atom_type": "Cd"}}

>  <type>  (2) 
r2

$$$$

     RDKit          3D

  7  6  0  0  0  0  0  0  0  0999 V2000
    1.2020   -0.5069    1.0970 S   0  0  0  0  0  0  0  0  0  0  0  0
    0.2449    0.0208   -0.2711 C   0  0  0  0  0  0  0  0  0  0  0  0
    0.6491    0.2538   -1.5109 C   0  0  0  0  0  0  0  0  0  0  0  0
    2.3807   -0.5751    0.4630 H   0  0  0  0  0  0  0  0  0  0  0  0
   -0.7959    0.1526    0.0036 H   0  0  0  0  0  0  0  0  0  0  0  0
    1.6808    0.1320   -1.8181 H   0  0  0  0  0  0  0  0  0  0  0  0
   -0.0586    0.5786   -2.2618 H   0  0  0  0  0  0  0  0  0  0  0  0
  1  2  1  0
  1  4  1  0
  2  3  2  3
  2  5  1  0
  3  6  1  0
  3  7  1  0
M  END
>  <reaction>  (3) 
rxn_1592

>  <mol_properties>  (3) 
{"1": {"label": "acceptor", "atom_type": "Cd"}, "6": {"label": "a_hydrogen", "atom_type": "H0"}}

>  <type>  (3) 
r2h

$$$$

     RDKit          3D

 12 10  0  0  0  0  0  0  0  0999 V2000
   -1.2898    0.7772    1.1308 S   0  0  0  0  0  0  0  0  0  0  0  0
    0.2642    0.1694    0.6631 C   0  0  0  0  0  0  0  0  0  0  0  0
    1.4979    0.5415    0.9408 C   0  0  0  0  0  0  0  0  0  0  0  0
   -0.8663    1.7275    1.9822 H   0  0  0  0  0  0  0  0  0  0  0  0
    2.3371   -0.0113    0.5355 H   0  0  0  0  0  0  0  0  0  0  0  0
    1.7197    1.3950    1.5749 H   0  0  0  0  0  0  0  0  0  0  0  0
    0.6803   -1.6011   -2.1942 C   0  0  0  0  0  0  0  0  0  0  0  0
    0.1760   -1.8754   -1.0149 C   0  0  0  0  0  3  0  0  0  0  0  0
    1.0347   -0.6052   -2.4400 H   0  0  0  0  0  0  0  0  0  0  0  0
    0.7618   -2.3569   -2.9712 H   0  0  0  0  0  0  0  0  0  0  0  0
    0.1431   -0.8715   -0.1316 H   0  0  0  0  0  0  0  0  0  0  0  0
   -0.2118   -2.8163   -0.6436 H   0  0  0  0  0  0  0  0  0  0  0  0
  1  2  1  0
  1  4  1  0
  2  3  2  3
  2 11  1  0
  3  5  1  0
  3  6  1  0
  7  8  2  3
  7  9  1  0
  7 10  1  0
  8 12  1  0
M  RAD  1   8   2
M  END
>  <reaction>  (4) 
rxn_1592

>  <mol_properties>  (4) 
{"0": {"label": "*0", "atom_type": "S2s"}, "1": {"label": "*1", "atom_type": "Cd"}, "6": {"label": "*4", "atom_type": "Cd"}, "7": {"label": "*3", "atom_type": "Cd"}, "10": {"label": "*2", "atom_type": "H0"}}

>  <type>  (4) 
ts

$$$$

     RDKit          3D

 12 10  0  0  0  0  0  0  0  0999 V2000
   -1.0975    0.7159    1.2295 S   0  0  0  0  0  0  0  0  0  0  0  0
    0.3154    0.6022    0.2014 C   0  0  0  0  0  3  0  0  0  0  0  0
    1.5614    0.9535    0.4818 C   0  0  0  0  0  0  0  0  0  0  0  0
   -0.4865    1.2428    2.2996 H   0  0  0  0  0  0  0  0  0  0  0  0
    2.3418    0.8259   -0.2564 H   0  0  0  0  0  0  0  0  0  0  0  0
    1.8451    1.3733    1.4393 H   0  0  0  0  0  0  0  0  0  0  0  0
    0.3154   -1.6129   -2.4850 C   0  0  0  0  0  0  0  0  0  0  0  0
    0.3154   -1.6129   -1.1633 C   0  0  0  0  0  0  0  0  0  0  0  0
    0.3154   -0.6903   -3.0534 H   0  0  0  0  0  0  0  0  0  0  0  0
    0.3154   -2.5355   -3.0534 H   0  0  0  0  0  0  0  0  0  0  0  0
    0.3154   -0.5058   -0.4812 H   0  0  0  0  0  0  0  0  0  0  0  0
    0.3154   -2.5355   -0.5949 H   0  0  0  0  0  0  0  0  0  0  0  0
  1  2  1  0
  1  4  1  0
  2  3  2  3
  3  5  1  0
  3  6  1  0
  7  8  2  3
  7  9  1  0
  7 10  1  0
  8 11  1  0
  8 12  1  0
M  RAD  1   2   2
M  END
>  <reaction>  (5) 
rxn_1592

>  <mol_properties>  (5) 
{"0": {"label": "*0", "atom_type": "S2s"}, "1": {"label": "*1", "atom_type": "Cd"}, "6": {"label": "*4", "atom_type": "Cd"}, "7": {"label": "*3", "atom_type": "Cd"}, "10": {"label": "*2", "atom_type": "H0"}}

>  <type>  (5) 
unop_1

>  <geom_source>  (5) 
Heuristics

$$$$

     RDKit          3D

 12 10  0  0  0  0  0  0  0  0999 V2000
   -0.5522    1.5094   -0.1218 S   0  0  0  0  0  0  0  0  0  0  0  0
    0.2636    0.2267    0.7474 C   0  0  0  0  0  3  0  0  0  0  0  0
    0.5436    0.1646    2.0406 C   0  0  0  0  0  0  0  0  0  0  0  0
   -0.7599    2.3187    0.9260 H   0  0  0  0  0  0  0  0  0  0  0  0
    1.0573   -0.6973    2.4452 H   0  0  0  0  0  0  0  0  0  0  0  0
    0.2767    0.9552    2.7315 H   0  0  0  0  0  0  0  0  0  0  0  0
    0.2636   -1.9884   -1.9390 C   0  0  0  0  0  0  0  0  0  0  0  0
    0.2636   -1.9884   -0.6172 C   0  0  0  0  0  0  0  0  0  0  0  0
    0.2636   -1.0658   -2.5073 H   0  0  0  0  0  0  0  0  0  0  0  0
    0.2636   -2.9110   -2.5073 H   0  0  0  0  0  0  0  0  0  0  0  0
    0.2636   -0.8813    0.0648 H   0  0  0  0  0  0  0  0  0  0  0  0
    0.2636   -2.9110   -0.0488 H   0  0  0  0  0  0  0  0  0  0  0  0
  1  2  1  0
  1  4  1  0
  2  3  2  3
  3  5  1  0
  3  6  1  0
  7  8  2  3
  7  9  1  0
  7 10  1  0
  8 11  1  0
  8 12  1  0
M  RAD  1   2   2
M  END
>  <reaction>  (6) 
rxn_1592

>  <mol_properties>  (6) 
{"0": {"label": "*0", "atom_type": "S2s"}, "1": {"label": "*1", "atom_type": "Cd"}, "6": {"label": "*4", "atom_type": "Cd"}, "7": {"label": "*3", "atom_type": "Cd"}, "10": {"label": "*2", "atom_type": "H0"}}

>  <type>  (6) 
unop_2

>  <geom_source>  (6) 
Heuristics

$$$$

     RDKit          3D

 12 10  0  0  0  0  0  0  0  0999 V2000
   -0.6830    0.4345    1.6491 S   0  0  0  0  0  0  0  0  0  0  0  0
    0.1327    0.6341    0.1126 C   0  0  0  0  0  3  0  0  0  0  0  0
    1.1181    1.4666   -0.1883 C   0  0  0  0  0  0  0  0  0  0  0  0
    0.0091    1.3585    2.3297 H   0  0  0  0  0  0  0  0  0  0  0  0
    1.5305    1.4826   -1.1883 H   0  0  0  0  0  0  0  0  0  0  0  0
    1.5427    2.1504    0.5368 H   0  0  0  0  0  0  0  0  0  0  0  0
    0.1327   -1.5810   -2.5738 C   0  0  0  0  0  0  0  0  0  0  0  0
    0.1327   -1.5810   -1.2521 C   0  0  0  0  0  0  0  0  0  0  0  0
    0.1327   -0.6584   -3.1422 H   0  0  0  0  0  0  0  0  0  0  0  0
    0.1327   -2.5036   -3.1422 H   0  0  0  0  0  0  0  0  0  0  0  0
    0.1327   -0.4739   -0.5700 H   0  0  0  0  0  0  0  0  0  0  0  0
    0.1327   -2.5036   -0.6837 H   0  0  0  0  0  0  0  0  0  0  0  0
  1  2  1  0
  1  4  1  0
  2  3  2  3
  3  5  1  0
  3  6  1  0
  7  8  2  3
  7  9  1  0
  7 10  1  0
  8 11  1  0
  8 12  1  0
M  RAD  1   2   2
M  END
>  <reaction>  (7) 
rxn_1592

>  <mol_properties>  (7) 
{"0": {"label": "*0", "atom_type": "S2s"}, "1": {"label": "*1", "atom_type": "Cd"}, "6": {"label": "*4", "atom_type": "Cd"}, "7": {"label": "*3", "atom_type": "Cd"}, "10": {"label": "*2", "atom_type": "H0"}}

>  <type>  (7) 
unop_3

>  <geom_source>  (7) 
Heuristics

$$$$

     RDKit          3D

 12 10  0  0  0  0  0  0  0  0999 V2000
    0.9895    1.3215    0.2177 S   0  0  0  0  0  0  0  0  0  0  0  0
   -0.4234    0.3521    0.5786 C   0  0  0  0  0  3  0  0  0  0  0  0
   -1.0869    0.2673    1.7219 C   0  0  0  0  0  0  0  0  0  0  0  0
    1.1217    1.8848    1.4265 H   0  0  0  0  0  0  0  0  0  0  0  0
   -1.9509   -0.3787    1.8028 H   0  0  0  0  0  0  0  0  0  0  0  0
   -0.7995    0.8276    2.6033 H   0  0  0  0  0  0  0  0  0  0  0  0
   -0.4234   -1.8630   -2.1078 C   0  0  0  0  0  0  0  0  0  0  0  0
   -0.4234   -1.8630   -0.7861 C   0  0  0  0  0  0  0  0  0  0  0  0
   -0.4234   -0.9404   -2.6762 H   0  0  0  0  0  0  0  0  0  0  0  0
   -0.4234   -2.7856   -2.6762 H   0  0  0  0  0  0  0  0  0  0  0  0
   -0.4234   -0.7559   -0.1040 H   0  0  0  0  0  0  0  0  0  0  0  0
   -0.4234   -2.7856   -0.2177 H   0  0  0  0  0  0  0  0  0  0  0  0
  1  2  1  0
  1  4  1  0
  2  3  2  3
  3  5  1  0
  3  6  1  0
  7  8  2  3
  7  9  1  0
  7 10  1  0
  8 11  1  0
  8 12  1  0
M  RAD  1   2   2
M  END
>  <reaction>  (8) 
rxn_1592

>  <mol_properties>  (8) 
{"0": {"label": "*0", "atom_type": "S2s"}, "1": {"label": "*1", "atom_type": "Cd"}, "6": {"label": "*4", "atom_type": "Cd"}, "7": {"label": "*3", "atom_type": "Cd"}, "10": {"label": "*2", "atom_type": "H0"}}

>  <type>  (8) 
unop_4

>  <geom_source>  (8) 
Heuristics

$$$$

     RDKit          3D

 12 10  0  0  0  0  0  0  0  0999 V2000
    0.0000    0.3013    1.8220 S   0  0  0  0  0  0  0  0  0  0  0  0
    0.0000    0.6155    0.0993 C   0  0  0  0  0  3  0  0  0  0  0  0
   -0.0000    1.7873   -0.5183 C   0  0  0  0  0  0  0  0  0  0  0  0
   -0.0000    1.5787    2.2272 H   0  0  0  0  0  0  0  0  0  0  0  0
   -0.0000    1.8324   -1.5992 H   0  0  0  0  0  0  0  0  0  0  0  0
   -0.0000    2.7276    0.0196 H   0  0  0  0  0  0  0  0  0  0  0  0
    0.0000   -1.5996   -2.5870 C   0  0  0  0  0  0  0  0  0  0  0  0
    0.0000   -1.5996   -1.2653 C   0  0  0  0  0  0  0  0  0  0  0  0
    0.0000   -0.6770   -3.1554 H   0  0  0  0  0  0  0  0  0  0  0  0
    0.0000   -2.5222   -3.1554 H   0  0  0  0  0  0  0  0  0  0  0  0
    0.0000   -0.4925   -0.5833 H   0  0  0  0  0  0  0  0  0  0  0  0
   -0.0000   -2.5222   -0.6969 H   0  0  0  0  0  0  0  0  0  0  0  0
  1  2  1  0
  1  4  1  0
  2  3  2  3
  3  5  1  0
  3  6  1  0
  7  8  2  3
  7  9  1  0
  7 10  1  0
  8 11  1  0
  8 12  1  0
M  RAD  1   2   2
M  END
>  <reaction>  (9) 
rxn_1592

>  <mol_properties>  (9) 
{"0": {"label": "*0", "atom_type": "S2s"}, "1": {"label": "*1", "atom_type": "Cd"}, "6": {"label": "*4", "atom_type": "Cd"}, "7": {"label": "*3", "atom_type": "Cd"}, "10": {"label": "*2", "atom_type": "H0"}}

>  <type>  (9) 
unop_5

>  <geom_source>  (9) 
Heuristics

$$$$

     RDKit          3D

 12 10  0  0  0  0  0  0  0  0999 V2000
    1.1959    1.0366    0.7070 S   0  0  0  0  0  0  0  0  0  0  0  0
   -0.4355    0.4950    0.3734 C   0  0  0  0  0  3  0  0  0  0  0  0
   -1.4895    0.5319    1.1748 C   0  0  0  0  0  0  0  0  0  0  0  0
    0.9812    1.4588    1.9607 H   0  0  0  0  0  0  0  0  0  0  0  0
   -2.4459    0.1589    0.8333 H   0  0  0  0  0  0  0  0  0  0  0  0
   -1.4399    0.9276    2.1820 H   0  0  0  0  0  0  0  0  0  0  0  0
   -0.4355   -1.7201   -2.3130 C   0  0  0  0  0  0  0  0  0  0  0  0
   -0.4355   -1.7201   -0.9913 C   0  0  0  0  0  0  0  0  0  0  0  0
   -0.4355   -0.7975   -2.8814 H   0  0  0  0  0  0  0  0  0  0  0  0
   -0.4355   -2.6427   -2.8814 H   0  0  0  0  0  0  0  0  0  0  0  0
   -0.4355   -0.6130   -0.3092 H   0  0  0  0  0  0  0  0  0  0  0  0
   -0.4355   -2.6427   -0.4229 H   0  0  0  0  0  0  0  0  0  0  0  0
  1  2  1  0
  1  4  1  0
  2  3  2  3
  3  5  1  0
  3  6  1  0
  7  8  2  3
  7  9  1  0
  7 10  1  0
  8 11  1  0
  8 12  1  0
M  RAD  1   2   2
M  END
>  <reaction>  (10) 
rxn_1592

>  <mol_properties>  (10) 
{"0": {"label": "*0", "atom_type": "S2s"}, "1": {"label": "*1", "atom_type": "Cd"}, "6": {"label": "*4", "atom_type": "Cd"}, "7": {"label": "*3", "atom_type": "Cd"}, "10": {"label": "*2", "atom_type": "H0"}}

>  <type>  (10) 
unop_6

>  <geom_source>  (10) 
Heuristics

$$$$

     RDKit          3D

 12 10  0  0  0  0  0  0  0  0999 V2000
    1.0975    0.7159    1.2295 S   0  0  0  0  0  0  0  0  0  0  0  0
   -0.3154    0.6022    0.2014 C   0  0  0  0  0  3  0  0  0  0  0  0
   -1.5614    0.9535    0.4818 C   0  0  0  0  0  0  0  0  0  0  0  0
    0.4865    1.2428    2.2996 H   0  0  0  0  0  0  0  0  0  0  0  0
   -2.3418    0.8259   -0.2564 H   0  0  0  0  0  0  0  0  0  0  0  0
   -1.8451    1.3733    1.4393 H   0  0  0  0  0  0  0  0  0  0  0  0
   -0.3154   -1.6129   -2.4850 C   0  0  0  0  0  0  0  0  0  0  0  0
   -0.3154   -1.6129   -1.1633 C   0  0  0  0  0  0  0  0  0  0  0  0
   -0.3154   -0.6903   -3.0534 H   0  0  0  0  0  0  0  0  0  0  0  0
   -0.3154   -2.5355   -3.0534 H   0  0  0  0  0  0  0  0  0  0  0  0
   -0.3154   -0.5058   -0.4812 H   0  0  0  0  0  0  0  0  0  0  0  0
   -0.3154   -2.5355   -0.5949 H   0  0  0  0  0  0  0  0  0  0  0  0
  1  2  1  0
  1  4  1  0
  2  3  2  3
  3  5  1  0
  3  6  1  0
  7  8  2  3
  7  9  1  0
  7 10  1  0
  8 11  1  0
  8 12  1  0
M  RAD  1   2   2
M  END
>  <reaction>  (11) 
rxn_1592

>  <mol_properties>  (11) 
{"0": {"label": "*0", "atom_type": "S2s"}, "1": {"label": "*1", "atom_type": "Cd"}, "6": {"label": "*4", "atom_type": "Cd"}, "7": {"label": "*3", "atom_type": "Cd"}, "10": {"label": "*2", "atom_type": "H0"}}

>  <type>  (11) 
unop_7

>  <geom_source>  (11) 
Heuristics

$$$$

     RDKit          3D

 12 10  0  0  0  0  0  0  0  0999 V2000
   -1.1959    1.0366    0.7070 S   0  0  0  0  0  0  0  0  0  0  0  0
    0.4355    0.4950    0.3734 C   0  0  0  0  0  3  0  0  0  0  0  0
    1.4895    0.5319    1.1748 C   0  0  0  0  0  0  0  0  0  0  0  0
   -0.9812    1.4588    1.9607 H   0  0  0  0  0  0  0  0  0  0  0  0
    2.4459    0.1589    0.8333 H   0  0  0  0  0  0  0  0  0  0  0  0
    1.4399    0.9276    2.1820 H   0  0  0  0  0  0  0  0  0  0  0  0
    0.4355   -1.7201   -2.3130 C   0  0  0  0  0  0  0  0  0  0  0  0
    0.4355   -1.7201   -0.9913 C   0  0  0  0  0  0  0  0  0  0  0  0
    0.4355   -0.7975   -2.8814 H   0  0  0  0  0  0  0  0  0  0  0  0
    0.4355   -2.6427   -2.8814 H   0  0  0  0  0  0  0  0  0  0  0  0
    0.4355   -0.6130   -0.3092 H   0  0  0  0  0  0  0  0  0  0  0  0
    0.4355   -2.6427   -0.4229 H   0  0  0  0  0  0  0  0  0  0  0  0
  1  2  1  0
  1  4  1  0
  2  3  2  3
  3  5  1  0
  3  6  1  0
  7  8  2  3
  7  9  1  0
  7 10  1  0
  8 11  1  0
  8 12  1  0
M  RAD  1   2   2
M  END
>  <reaction>  (12) 
rxn_1592

>  <mol_properties>  (12) 
{"0": {"label": "*0", "atom_type": "S2s"}, "1": {"label": "*1", "atom_type": "Cd"}, "6": {"label": "*4", "atom_type": "Cd"}, "7": {"label": "*3", "atom_type": "Cd"}, "10": {"label": "*2", "atom_type": "H0"}}

>  <type>  (12) 
unop_8

>  <geom_source>  (12) 
Heuristics

$$$$

     RDKit          3D

 12 10  0  0  0  0  0  0  0  0999 V2000
    0.5522    1.5094   -0.1218 S   0  0  0  0  0  0  0  0  0  0  0  0
   -0.2636    0.2267    0.7474 C   0  0  0  0  0  3  0  0  0  0  0  0
   -0.5436    0.1646    2.0406 C   0  0  0  0  0  0  0  0  0  0  0  0
    0.7599    2.3187    0.9260 H   0  0  0  0  0  0  0  0  0  0  0  0
   -1.0573   -0.6973    2.4452 H   0  0  0  0  0  0  0  0  0  0  0  0
   -0.2767    0.9552    2.7315 H   0  0  0  0  0  0  0  0  0  0  0  0
   -0.2636   -1.9884   -1.9390 C   0  0  0  0  0  0  0  0  0  0  0  0
   -0.2636   -1.9884   -0.6172 C   0  0  0  0  0  0  0  0  0  0  0  0
   -0.2636   -1.0658   -2.5073 H   0  0  0  0  0  0  0  0  0  0  0  0
   -0.2636   -2.9110   -2.5073 H   0  0  0  0  0  0  0  0  0  0  0  0
   -0.2636   -0.8813    0.0648 H   0  0  0  0  0  0  0  0  0  0  0  0
   -0.2636   -2.9110   -0.0488 H   0  0  0  0  0  0  0  0  0  0  0  0
  1  2  1  0
  1  4  1  0
  2  3  2  3
  3  5  1  0
  3  6  1  0
  7  8  2  3
  7  9  1  0
  7 10  1  0
  8 11  1  0
  8 12  1  0
M  RAD  1   2   2
M  END
>  <reaction>  (13) 
rxn_1592

>  <mol_properties>  (13) 
{"0": {"label": "*0", "atom_type": "S2s"}, "1": {"label": "*1", "atom_type": "Cd"}, "6": {"label": "*4", "atom_type": "Cd"}, "7": {"label": "*3", "atom_type": "Cd"}, "10": {"label": "*2", "atom_type": "H0"}}

>  <type>  (13) 
unop_9

>  <geom_source>  (13) 
Heuristics

$$$$

     RDKit          3D

 12 10  0  0  0  0  0  0  0  0999 V2000
   -0.9895    1.3215    0.2177 S   0  0  0  0  0  0  0  0  0  0  0  0
    0.4234    0.3521    0.5786 C   0  0  0  0  0  3  0  0  0  0  0  0
    1.0869    0.2673    1.7219 C   0  0  0  0  0  0  0  0  0  0  0  0
   -1.1217    1.8848    1.4265 H   0  0  0  0  0  0  0  0  0  0  0  0
    1.9509   -0.3787    1.8028 H   0  0  0  0  0  0  0  0  0  0  0  0
    0.7995    0.8276    2.6033 H   0  0  0  0  0  0  0  0  0  0  0  0
    0.4234   -1.8630   -2.1078 C   0  0  0  0  0  0  0  0  0  0  0  0
    0.4234   -1.8630   -0.7861 C   0  0  0  0  0  0  0  0  0  0  0  0
    0.4234   -0.9404   -2.6762 H   0  0  0  0  0  0  0  0  0  0  0  0
    0.4234   -2.7856   -2.6762 H   0  0  0  0  0  0  0  0  0  0  0  0
    0.4234   -0.7559   -0.1040 H   0  0  0  0  0  0  0  0  0  0  0  0
    0.4234   -2.7856   -0.2177 H   0  0  0  0  0  0  0  0  0  0  0  0
  1  2  1  0
  1  4  1  0
  2  3  2  3
  3  5  1  0
  3  6  1  0
  7  8  2  3
  7  9  1  0
  7 10  1  0
  8 11  1  0
  8 12  1  0
M  RAD  1   2   2
M  END
>  <reaction>  (14) 
rxn_1592

>  <mol_properties>  (14) 
{"0": {"label": "*0", "atom_type": "S2s"}, "1": {"label": "*1", "atom_type": "Cd"}, "6": {"label": "*4", "atom_type": "Cd"}, "7": {"label": "*3", "atom_type": "Cd"}, "10": {"label": "*2", "atom_type": "H0"}}

>  <type>  (14) 
unop_10

>  <geom_source>  (14) 
Heuristics

$$$$

     RDKit          3D

 12 10  0  0  0  0  0  0  0  0999 V2000
    0.6830    0.4345    1.6491 S   0  0  0  0  0  0  0  0  0  0  0  0
   -0.1327    0.6341    0.1126 C   0  0  0  0  0  3  0  0  0  0  0  0
   -1.1181    1.4666   -0.1883 C   0  0  0  0  0  0  0  0  0  0  0  0
   -0.0092    1.3585    2.3297 H   0  0  0  0  0  0  0  0  0  0  0  0
   -1.5305    1.4826   -1.1883 H   0  0  0  0  0  0  0  0  0  0  0  0
   -1.5427    2.1504    0.5368 H   0  0  0  0  0  0  0  0  0  0  0  0
   -0.1327   -1.5810   -2.5738 C   0  0  0  0  0  0  0  0  0  0  0  0
   -0.1327   -1.5810   -1.2521 C   0  0  0  0  0  0  0  0  0  0  0  0
   -0.1327   -0.6584   -3.1422 H   0  0  0  0  0  0  0  0  0  0  0  0
   -0.1327   -2.5036   -3.1422 H   0  0  0  0  0  0  0  0  0  0  0  0
   -0.1327   -0.4739   -0.5700 H   0  0  0  0  0  0  0  0  0  0  0  0
   -0.1327   -2.5036   -0.6837 H   0  0  0  0  0  0  0  0  0  0  0  0
  1  2  1  0
  1  4  1  0
  2  3  2  3
  3  5  1  0
  3  6  1  0
  7  8  2  3
  7  9  1  0
  7 10  1  0
  8 11  1  0
  8 12  1  0
M  RAD  1   2   2
M  END
>  <reaction>  (15) 
rxn_1592

>  <mol_properties>  (15) 
{"0": {"label": "*0", "atom_type": "S2s"}, "1": {"label": "*1", "atom_type": "Cd"}, "6": {"label": "*4", "atom_type": "Cd"}, "7": {"label": "*3", "atom_type": "Cd"}, "10": {"label": "*2", "atom_type": "H0"}}

>  <type>  (15) 
unop_11

>  <geom_source>  (15) 
Heuristics

$$$$

     RDKit          3D

 12 10  0  0  0  0  0  0  0  0999 V2000
   -0.0000    1.5727   -0.2417 S   0  0  0  0  0  0  0  0  0  0  0  0
   -0.0000    0.1754    0.8136 C   0  0  0  0  0  3  0  0  0  0  0  0
    0.0000    0.1507    2.1380 C   0  0  0  0  0  0  0  0  0  0  0  0
    0.0000    2.5092    0.7170 H   0  0  0  0  0  0  0  0  0  0  0  0
    0.0000   -0.7944    2.6645 H   0  0  0  0  0  0  0  0  0  0  0  0
    0.0000    1.0541    2.7359 H   0  0  0  0  0  0  0  0  0  0  0  0
   -0.0000   -2.0397   -1.8728 C   0  0  0  0  0  0  0  0  0  0  0  0
   -0.0000   -2.0397   -0.5510 C   0  0  0  0  0  0  0  0  0  0  0  0
    0.0000   -1.1171   -2.4411 H   0  0  0  0  0  0  0  0  0  0  0  0
   -0.0000   -2.9622   -2.4411 H   0  0  0  0  0  0  0  0  0  0  0  0
   -0.0000   -0.9325    0.1310 H   0  0  0  0  0  0  0  0  0  0  0  0
   -0.0000   -2.9622    0.0174 H   0  0  0  0  0  0  0  0  0  0  0  0
  1  2  1  0
  1  4  1  0
  2  3  2  3
  3  5  1  0
  3  6  1  0
  7  8  2  3
  7  9  1  0
  7 10  1  0
  8 11  1  0
  8 12  1  0
M  RAD  1   2   2
M  END
>  <reaction>  (16) 
rxn_1592

>  <mol_properties>  (16) 
{"0": {"label": "*0", "atom_type": "S2s"}, "1": {"label": "*1", "atom_type": "Cd"}, "6": {"label": "*4", "atom_type": "Cd"}, "7": {"label": "*3", "atom_type": "Cd"}, "10": {"label": "*2", "atom_type": "H0"}}

>  <type>  (16) 
unop_12

>  <geom_source>  (16) 
Heuristics

$$$$

     RDKit          3D

 12 10  0  0  0  0  0  0  0  0999 V2000
   -1.5547    1.6605    0.4595 S   0  0  0  0  0  0  0  0  0  0  0  0
   -1.0115   -0.0249    0.1868 C   0  0  0  0  0  3  0  0  0  0  0  0
   -1.8494   -1.0449    0.3619 C   0  0  0  0  0  0  0  0  0  0  0  0
    2.2219    0.6055   -0.1317 C   0  0  0  0  0  0  0  0  0  0  0  0
    1.5225   -0.4847    0.1699 C   0  0  0  0  0  0  0  0  0  0  0  0
    0.2623   -0.2594   -0.1993 H   0  0  0  0  0  0  0  0  0  0  0  0
   -1.5069   -2.0601    0.1936 H   0  0  0  0  0  0  0  0  0  0  0  0
   -2.8756   -0.8743    0.6718 H   0  0  0  0  0  0  0  0  0  0  0  0
    3.0117    0.5624   -0.8747 H   0  0  0  0  0  0  0  0  0  0  0  0
    2.0024    1.5431    0.3669 H   0  0  0  0  0  0  0  0  0  0  0  0
   -1.9563    1.8048   -0.8817 H   0  0  0  0  0  0  0  0  0  0  0  0
    1.7337   -1.4280   -0.3230 H   0  0  0  0  0  0  0  0  0  0  0  0
  1  2  1  0
  1 11  1  0
  2  3  2  3
  3  7  1  0
  3  8  1  0
  4  5  2  3
  4  9  1  0
  4 10  1  0
  5  6  1  0
  5 12  1  0
M  RAD  1   2   2
M  END
>  <reaction>  (17) 
rxn_1592

>  <mol_properties>  (17) 
{"0": {"label": "*0", "atom_type": "S2s"}, "1": {"label": "*1", "atom_type": "Cd"}, "6": {"label": "*4", "atom_type": "Cd"}, "7": {"label": "*3", "atom_type": "Cd"}, "10": {"label": "*2", "atom_type": "H0"}}

>  <type>  (17) 
unop_13

>  <geom_source>  (17) 
AutoTST

$$$$
