
     RDKit          3D

  4  3  0  0  0  0  0  0  0  0999 V2000
    0.5949   -0.3853    0.2659 O   0  0  0  0  0  0  0  0  0  0  0  0
   -0.5918    0.4028    0.2462 O   0  0  0  0  0  0  0  0  0  0  0  0
    1.1865    0.1539   -0.2689 H   0  0  0  0  0  0  0  0  0  0  0  0
   -1.1896   -0.1714   -0.2432 H   0  0  0  0  0  0  0  0  0  0  0  0
  1  2  1  0
  1  3  1  0
  2  4  1  0
M  END
>  <reaction>  (1) 
rxn_396

>  <mol_properties>  (1) 
{"1": {"label": "donator", "atom_type": "O2s"}, "3": {"label": "d_hydrogen", "atom_type": "H0"}}

>  <type>  (1) 
r1h

$$$$

     RDKit          3D

 14 13  0  0  0  0  0  0  0  0999 V2000
    1.8723   -0.8502   -0.3519 C   0  0  0  0  0  0  0  0  0  0  0  0
    0.4391   -0.6410   -0.0310 C   0  0  0  0  0  3  0  0  0  0  0  0
   -0.3227   -1.5974    0.8174 C   0  0  0  0  0  0  0  0  0  0  0  0
   -1.8136   -1.6058    0.5014 C   0  0  0  0  0  0  0  0  0  0  0  0
   -2.0845   -2.0603   -0.8067 O   0  0  0  0  0  0  0  0  0  0  0  0
    2.0632   -1.8813   -0.6642 H   0  0  0  0  0  0  0  0  0  0  0  0
    2.2159   -0.1816   -1.1421 H   0  0  0  0  0  0  0  0  0  0  0  0
    2.5136   -0.6699    0.5238 H   0  0  0  0  0  0  0  0  0  0  0  0
    0.0049    0.3407   -0.1979 H   0  0  0  0  0  0  0  0  0  0  0  0
   -0.2003   -1.3444    1.8831 H   0  0  0  0  0  0  0  0  0  0  0  0
    0.0757   -2.6099    0.6958 H   0  0  0  0  0  0  0  0  0  0  0  0
   -2.3395   -2.2842    1.1742 H   0  0  0  0  0  0  0  0  0  0  0  0
   -2.2255   -0.5987    0.6571 H   0  0  0  0  0  0  0  0  0  0  0  0
   -1.5207   -1.5668   -1.4077 H   0  0  0  0  0  0  0  0  0  0  0  0
  1  2  1  0
  1  6  1  0
  1  7  1  0
  1  8  1  0
  2  3  1  0
  2  9  1  0
  3  4  1  0
  3 10  1  0
  3 11  1  0
  4  5  1  0
  4 12  1  0
  4 13  1  0
  5 14  1  0
M  RAD  1   2   2
M  END
>  <reaction>  (2) 
rxn_396

>  <mol_properties>  (2) 
{"1": {"label": "acceptor", "atom_type": "Cs"}}

>  <type>  (2) 
r2

$$$$

     RDKit          3D

 15 14  0  0  0  0  0  0  0  0999 V2000
   -2.2618    0.1177   -0.2204 C   0  0  0  0  0  0  0  0  0  0  0  0
   -0.8307    0.6124   -0.3805 C   0  0  0  0  0  0  0  0  0  0  0  0
   -0.4944    1.7618    0.5615 C   0  0  0  0  0  0  0  0  0  0  0  0
    0.9172    2.3011    0.3897 C   0  0  0  0  0  0  0  0  0  0  0  0
    1.1609    2.8330   -0.8989 O   0  0  0  0  0  0  0  0  0  0  0  0
   -2.9781    0.9158   -0.4300 H   0  0  0  0  0  0  0  0  0  0  0  0
   -2.4760   -0.7079   -0.9008 H   0  0  0  0  0  0  0  0  0  0  0  0
   -2.4470   -0.2324    0.7981 H   0  0  0  0  0  0  0  0  0  0  0  0
   -0.6600    0.9333   -1.4104 H   0  0  0  0  0  0  0  0  0  0  0  0
   -0.1335   -0.2114   -0.1978 H   0  0  0  0  0  0  0  0  0  0  0  0
   -0.6152    1.4377    1.6009 H   0  0  0  0  0  0  0  0  0  0  0  0
   -1.2104    2.5804    0.4144 H   0  0  0  0  0  0  0  0  0  0  0  0
    1.6427    1.4942    0.5142 H   0  0  0  0  0  0  0  0  0  0  0  0
    1.1261    3.0513    1.1627 H   0  0  0  0  0  0  0  0  0  0  0  0
    0.5617    3.5677   -1.0406 H   0  0  0  0  0  0  0  0  0  0  0  0
  1  2  1  0
  1  6  1  0
  1  7  1  0
  1  8  1  0
  2  3  1  0
  2  9  1  0
  2 10  1  0
  3  4  1  0
  3 11  1  0
  3 12  1  0
  4  5  1  0
  4 13  1  0
  4 14  1  0
  5 15  1  0
M  END
>  <reaction>  (3) 
rxn_396

>  <mol_properties>  (3) 
{"0": {"label": "a_hydrogen", "atom_type": "H0"}, "2": {"label": "acceptor", "atom_type": "Cs"}}

>  <type>  (3) 
r2h

$$$$

     RDKit          3D

 18 16  0  0  0  0  0  0  0  0999 V2000
   -0.5803   -1.8373   -0.7048 O   0  0  0  0  0  0  0  0  0  0  0  0
   -0.1099   -1.7479    0.5975 O   0  0  0  0  0  0  0  0  0  0  0  0
    0.0679   -1.3031   -1.1950 H   0  0  0  0  0  0  0  0  0  0  0  0
   -0.4046   -0.6776    0.9495 H   0  0  0  0  0  0  0  0  0  0  0  0
   -1.9051    0.8388    0.2712 C   0  0  0  0  0  0  0  0  0  0  0  0
   -0.7226    0.6293    1.1727 C   0  0  0  0  0  3  0  0  0  0  0  0
    0.5224    1.4483    0.8913 C   0  0  0  0  0  0  0  0  0  0  0  0
    1.5687    0.7936   -0.0084 C   0  0  0  0  0  0  0  0  0  0  0  0
    1.0719    0.4001   -1.2810 O   0  0  0  0  0  0  0  0  0  0  0  0
   -1.6394    0.6817   -0.7754 H   0  0  0  0  0  0  0  0  0  0  0  0
   -2.7181    0.1549    0.5137 H   0  0  0  0  0  0  0  0  0  0  0  0
   -2.2829    1.8639    0.3704 H   0  0  0  0  0  0  0  0  0  0  0  0
   -0.9845    0.5748    2.2286 H   0  0  0  0  0  0  0  0  0  0  0  0
    1.0289    1.6961    1.8275 H   0  0  0  0  0  0  0  0  0  0  0  0
    0.2242    2.4051    0.4409 H   0  0  0  0  0  0  0  0  0  0  0  0
    2.4175    1.4749   -0.1318 H   0  0  0  0  0  0  0  0  0  0  0  0
    1.9339   -0.1238    0.4502 H   0  0  0  0  0  0  0  0  0  0  0  0
    0.7515    1.1731   -1.7485 H   0  0  0  0  0  0  0  0  0  0  0  0
  1  2  1  0
  1  3  1  0
  2  4  1  0
  5  6  1  0
  5 10  1  0
  5 11  1  0
  5 12  1  0
  6  7  1  0
  6 13  1  0
  7  8  1  0
  7 14  1  0
  7 15  1  0
  8  9  1  0
  8 16  1  0
  8 17  1  0
  9 18  1  0
M  RAD  1   6   2
M  END
>  <reaction>  (4) 
rxn_396

>  <mol_properties>  (4) 
{"0": {"label": "*0", "atom_type": "O2s"}, "1": {"label": "*1", "atom_type": "O2s"}, "3": {"label": "*2", "atom_type": "H0"}, "5": {"label": "*3", "atom_type": "Cs"}, "6": {"label": "*4", "atom_type": "Cs"}}

>  <type>  (4) 
ts

$$$$

     RDKit          3D

 18 16  0  0  0  0  0  0  0  0999 V2000
   -0.4111   -1.9920   -0.9499 O   0  0  0  0  0  0  0  0  0  0  0  0
   -0.4111   -1.9920    0.4748 O   0  0  0  0  0  0  0  0  0  0  0  0
    0.4496   -2.3803   -1.1370 H   0  0  0  0  0  0  0  0  0  0  0  0
   -0.4111   -0.8589    0.6992 H   0  0  0  0  0  0  0  0  0  0  0  0
   -1.6505    0.7978    1.7568 C   0  0  0  0  0  0  0  0  0  0  0  0
   -0.4111    0.4268    0.9539 C   0  0  0  0  0  3  0  0  0  0  0  0
    0.2367    1.6292    0.2786 C   0  0  0  0  0  0  0  0  0  0  0  0
    1.4524    1.2766   -0.5645 C   0  0  0  0  0  0  0  0  0  0  0  0
    1.1561    0.4013   -1.6364 O   0  0  0  0  0  0  0  0  0  0  0  0
   -2.4129    1.2469    1.1157 H   0  0  0  0  0  0  0  0  0  0  0  0
   -2.0921   -0.0781    2.2346 H   0  0  0  0  0  0  0  0  0  0  0  0
   -1.4114    1.5206    2.5407 H   0  0  0  0  0  0  0  0  0  0  0  0
    0.3239   -0.0501    1.6100 H   0  0  0  0  0  0  0  0  0  0  0  0
    0.5426    2.3601    1.0352 H   0  0  0  0  0  0  0  0  0  0  0  0
   -0.5015    2.1388   -0.3537 H   0  0  0  0  0  0  0  0  0  0  0  0
    1.9276    2.1935   -0.9351 H   0  0  0  0  0  0  0  0  0  0  0  0
    2.1901    0.7510    0.0459 H   0  0  0  0  0  0  0  0  0  0  0  0
    0.5297    0.8363   -2.2171 H   0  0  0  0  0  0  0  0  0  0  0  0
  1  2  1  0
  1  3  1  0
  2  4  1  0
  5  6  1  0
  5 10  1  0
  5 11  1  0
  5 12  1  0
  6  7  1  0
  6 13  1  0
  7  8  1  0
  7 14  1  0
  7 15  1  0
  8  9  1  0
  8 16  1  0
  8 17  1  0
  9 18  1  0
M  RAD  1   6   2
M  END
>  <reaction>  (5) 
rxn_396

>  <mol_properties>  (5) 
{"0": {"label": "*0", "atom_type": "O2s"}, "1": {"label": "*1", "atom_type": "O2s"}, "3": {"label": "*2", "atom_type": "H0"}, "5": {"label": "*3", "atom_type": "Cs"}, "6": {"label": "*4", "atom_type": "Cs"}}

>  <type>  (5) 
unop_1

>  <geom_source>  (5) 
Heuristics

$$$$

     RDKit          3D

 18 16  0  0  0  0  0  0  0  0999 V2000
   -0.7259   -1.6721   -1.8264 O   0  0  0  0  0  0  0  0  0  0  0  0
   -0.7259   -1.6721   -0.4017 O   0  0  0  0  0  0  0  0  0  0  0  0
    0.1348   -2.0604   -2.0134 H   0  0  0  0  0  0  0  0  0  0  0  0
   -0.7259   -0.5390   -0.1772 H   0  0  0  0  0  0  0  0  0  0  0  0
   -1.4414    1.4975   -1.0373 C   0  0  0  0  0  0  0  0  0  0  0  0
   -0.7259    0.7467    0.0775 C   0  0  0  0  0  3  0  0  0  0  0  0
    0.5154    1.4749    0.5777 C   0  0  0  0  0  0  0  0  0  0  0  0
    1.2710    0.7228    1.6624 C   0  0  0  0  0  0  0  0  0  0  0  0
    1.7613   -0.5341    1.2350 O   0  0  0  0  0  0  0  0  0  0  0  0
   -0.7867    1.6331   -1.9016 H   0  0  0  0  0  0  0  0  0  0  0  0
   -2.3288    0.9592   -1.3739 H   0  0  0  0  0  0  0  0  0  0  0  0
   -1.7585    2.4891   -0.7052 H   0  0  0  0  0  0  0  0  0  0  0  0
   -1.4106    0.5946    0.9178 H   0  0  0  0  0  0  0  0  0  0  0  0
    0.2359    2.4582    0.9714 H   0  0  0  0  0  0  0  0  0  0  0  0
    1.1939    1.6671   -0.2632 H   0  0  0  0  0  0  0  0  0  0  0  0
    2.0885    1.3454    2.0471 H   0  0  0  0  0  0  0  0  0  0  0  0
    0.6043    0.5064    2.5000 H   0  0  0  0  0  0  0  0  0  0  0  0
    2.3769   -0.3890    0.5147 H   0  0  0  0  0  0  0  0  0  0  0  0
  1  2  1  0
  1  3  1  0
  2  4  1  0
  5  6  1  0
  5 10  1  0
  5 11  1  0
  5 12  1  0
  6  7  1  0
  6 13  1  0
  7  8  1  0
  7 14  1  0
  7 15  1  0
  8  9  1  0
  8 16  1  0
  8 17  1  0
  9 18  1  0
M  RAD  1   6   2
M  END
>  <reaction>  (6) 
rxn_396

>  <mol_properties>  (6) 
{"0": {"label": "*0", "atom_type": "O2s"}, "1": {"label": "*1", "atom_type": "O2s"}, "3": {"label": "*2", "atom_type": "H0"}, "5": {"label": "*3", "atom_type": "Cs"}, "6": {"label": "*4", "atom_type": "Cs"}}

>  <type>  (6) 
unop_2

>  <geom_source>  (6) 
Heuristics

$$$$

     RDKit          3D

 18 16  0  0  0  0  0  0  0  0999 V2000
    0.0367   -1.9493   -0.8055 O   0  0  0  0  0  0  0  0  0  0  0  0
    0.0367   -1.9493    0.6191 O   0  0  0  0  0  0  0  0  0  0  0  0
    0.8974   -2.3376   -0.9926 H   0  0  0  0  0  0  0  0  0  0  0  0
    0.0367   -0.8162    0.8436 H   0  0  0  0  0  0  0  0  0  0  0  0
   -0.6789    0.7386    2.4150 C   0  0  0  0  0  0  0  0  0  0  0  0
    0.0367    0.4695    1.0983 C   0  0  0  0  0  3  0  0  0  0  0  0
   -0.0841    1.6258    0.1135 C   0  0  0  0  0  0  0  0  0  0  0  0
    0.5870    1.3622   -1.2256 C   0  0  0  0  0  0  0  0  0  0  0  0
    0.0344    0.2611   -1.9222 O   0  0  0  0  0  0  0  0  0  0  0  0
   -1.7469    0.9043    2.2540 H   0  0  0  0  0  0  0  0  0  0  0  0
   -0.5731   -0.1005    3.1043 H   0  0  0  0  0  0  0  0  0  0  0  0
   -0.2780    1.6279    2.9077 H   0  0  0  0  0  0  0  0  0  0  0  0
    1.0969    0.2747    1.2882 H   0  0  0  0  0  0  0  0  0  0  0  0
    0.3560    2.5305    0.5471 H   0  0  0  0  0  0  0  0  0  0  0  0
   -1.1436    1.8560   -0.0566 H   0  0  0  0  0  0  0  0  0  0  0  0
    0.5519    2.2674   -1.8447 H   0  0  0  0  0  0  0  0  0  0  0  0
    1.6392    1.1124   -1.0730 H   0  0  0  0  0  0  0  0  0  0  0  0
   -0.8875    0.4506   -2.1039 H   0  0  0  0  0  0  0  0  0  0  0  0
  1  2  1  0
  1  3  1  0
  2  4  1  0
  5  6  1  0
  5 10  1  0
  5 11  1  0
  5 12  1  0
  6  7  1  0
  6 13  1  0
  7  8  1  0
  7 14  1  0
  7 15  1  0
  8  9  1  0
  8 16  1  0
  8 17  1  0
  9 18  1  0
M  RAD  1   6   2
M  END
>  <reaction>  (7) 
rxn_396

>  <mol_properties>  (7) 
{"0": {"label": "*0", "atom_type": "O2s"}, "1": {"label": "*1", "atom_type": "O2s"}, "3": {"label": "*2", "atom_type": "H0"}, "5": {"label": "*3", "atom_type": "Cs"}, "6": {"label": "*4", "atom_type": "Cs"}}

>  <type>  (7) 
unop_3

>  <geom_source>  (7) 
Heuristics

$$$$

     RDKit          3D

 18 16  0  0  0  0  0  0  0  0999 V2000
    0.1259   -1.1718   -2.1189 O   0  0  0  0  0  0  0  0  0  0  0  0
    0.1259   -1.1718   -0.6943 O   0  0  0  0  0  0  0  0  0  0  0  0
    0.9866   -1.5601   -2.3060 H   0  0  0  0  0  0  0  0  0  0  0  0
    0.1259   -0.0387   -0.4698 H   0  0  0  0  0  0  0  0  0  0  0  0
    1.3653    1.8960   -0.8160 C   0  0  0  0  0  0  0  0  0  0  0  0
    0.1259    1.2470   -0.2151 C   0  0  0  0  0  3  0  0  0  0  0  0
    0.3452    0.7657    1.2138 C   0  0  0  0  0  0  0  0  0  0  0  0
   -0.8666    0.0752    1.8201 C   0  0  0  0  0  0  0  0  0  0  0  0
   -1.2535   -1.0933    1.1216 O   0  0  0  0  0  0  0  0  0  0  0  0
    2.2008    1.1924   -0.8459 H   0  0  0  0  0  0  0  0  0  0  0  0
    1.1813    2.2368   -1.8360 H   0  0  0  0  0  0  0  0  0  0  0  0
    1.6831    2.7602   -0.2275 H   0  0  0  0  0  0  0  0  0  0  0  0
   -0.7050    1.9595   -0.2257 H   0  0  0  0  0  0  0  0  0  0  0  0
    0.6150    1.6129    1.8538 H   0  0  0  0  0  0  0  0  0  0  0  0
    1.2007    0.0789    1.2441 H   0  0  0  0  0  0  0  0  0  0  0  0
   -0.6763   -0.1519    2.8766 H   0  0  0  0  0  0  0  0  0  0  0  0
   -1.7330    0.7390    1.7804 H   0  0  0  0  0  0  0  0  0  0  0  0
   -0.5285   -1.7195    1.1560 H   0  0  0  0  0  0  0  0  0  0  0  0
  1  2  1  0
  1  3  1  0
  2  4  1  0
  5  6  1  0
  5 10  1  0
  5 11  1  0
  5 12  1  0
  6  7  1  0
  6 13  1  0
  7  8  1  0
  7 14  1  0
  7 15  1  0
  8  9  1  0
  8 16  1  0
  8 17  1  0
  9 18  1  0
M  RAD  1   6   2
M  END
>  <reaction>  (8) 
rxn_396

>  <mol_properties>  (8) 
{"0": {"label": "*0", "atom_type": "O2s"}, "1": {"label": "*1", "atom_type": "O2s"}, "3": {"label": "*2", "atom_type": "H0"}, "5": {"label": "*3", "atom_type": "Cs"}, "6": {"label": "*4", "atom_type": "Cs"}}

>  <type>  (8) 
unop_4

>  <geom_source>  (8) 
Heuristics

$$$$

     RDKit          3D

 18 16  0  0  0  0  0  0  0  0999 V2000
    0.5301   -1.6880   -0.9643 O   0  0  0  0  0  0  0  0  0  0  0  0
    0.5301   -1.6880    0.4603 O   0  0  0  0  0  0  0  0  0  0  0  0
    1.3909   -2.0763   -1.1514 H   0  0  0  0  0  0  0  0  0  0  0  0
    0.5301   -0.5548    0.6848 H   0  0  0  0  0  0  0  0  0  0  0  0
    0.5301    0.9627    2.4443 C   0  0  0  0  0  0  0  0  0  0  0  0
    0.5301    0.7308    0.9395 C   0  0  0  0  0  3  0  0  0  0  0  0
   -0.6609    1.3766    0.2425 C   0  0  0  0  0  0  0  0  0  0  0  0
   -0.7051    1.1220   -1.2563 C   0  0  0  0  0  0  0  0  0  0  0  0
   -0.8170   -0.2491   -1.5887 O   0  0  0  0  0  0  0  0  0  0  0  0
   -0.3683    0.5450    2.9053 H   0  0  0  0  0  0  0  0  0  0  0  0
    1.3946    0.4960    2.9190 H   0  0  0  0  0  0  0  0  0  0  0  0
    0.5556    2.0296    2.6794 H   0  0  0  0  0  0  0  0  0  0  0  0
    1.4532    1.1281    0.5055 H   0  0  0  0  0  0  0  0  0  0  0  0
   -0.6456    2.4595    0.4076 H   0  0  0  0  0  0  0  0  0  0  0  0
   -1.5932    1.0145    0.6945 H   0  0  0  0  0  0  0  0  0  0  0  0
   -1.5236    1.6966   -1.7079 H   0  0  0  0  0  0  0  0  0  0  0  0
    0.2244    1.4596   -1.7197 H   0  0  0  0  0  0  0  0  0  0  0  0
   -1.6386   -0.5821   -1.2241 H   0  0  0  0  0  0  0  0  0  0  0  0
  1  2  1  0
  1  3  1  0
  2  4  1  0
  5  6  1  0
  5 10  1  0
  5 11  1  0
  5 12  1  0
  6  7  1  0
  6 13  1  0
  7  8  1  0
  7 14  1  0
  7 15  1  0
  8  9  1  0
  8 16  1  0
  8 17  1  0
  9 18  1  0
M  RAD  1   6   2
M  END
>  <reaction>  (9) 
rxn_396

>  <mol_properties>  (9) 
{"0": {"label": "*0", "atom_type": "O2s"}, "1": {"label": "*1", "atom_type": "O2s"}, "3": {"label": "*2", "atom_type": "H0"}, "5": {"label": "*3", "atom_type": "Cs"}, "6": {"label": "*4", "atom_type": "Cs"}}

>  <type>  (9) 
unop_5

>  <geom_source>  (9) 
Heuristics

$$$$

     RDKit          3D

 18 16  0  0  0  0  0  0  0  0999 V2000
    0.4239   -1.1479   -1.9250 O   0  0  0  0  0  0  0  0  0  0  0  0
    0.4239   -1.1479   -0.5003 O   0  0  0  0  0  0  0  0  0  0  0  0
    1.2846   -1.5362   -2.1121 H   0  0  0  0  0  0  0  0  0  0  0  0
    0.4239   -0.0148   -0.2759 H   0  0  0  0  0  0  0  0  0  0  0  0
    1.8550    1.7809    0.0798 C   0  0  0  0  0  0  0  0  0  0  0  0
    0.4239    1.2709   -0.0212 C   0  0  0  0  0  3  0  0  0  0  0  0
   -0.0722    0.6430    1.2754 C   0  0  0  0  0  0  0  0  0  0  0  0
   -1.4852    0.0877    1.1854 C   0  0  0  0  0  0  0  0  0  0  0  0
   -1.6203   -0.9482    0.2306 O   0  0  0  0  0  0  0  0  0  0  0  0
    2.5447    0.9680    0.3196 H   0  0  0  0  0  0  0  0  0  0  0  0
    2.1845    2.2304   -0.8581 H   0  0  0  0  0  0  0  0  0  0  0  0
    1.9506    2.5362    0.8637 H   0  0  0  0  0  0  0  0  0  0  0  0
   -0.2426    2.0953   -0.2937 H   0  0  0  0  0  0  0  0  0  0  0  0
   -0.0442    1.3842    2.0816 H   0  0  0  0  0  0  0  0  0  0  0  0
    0.6096   -0.1614    1.5798 H   0  0  0  0  0  0  0  0  0  0  0  0
   -1.8151   -0.2538    2.1745 H   0  0  0  0  0  0  0  0  0  0  0  0
   -2.1746    0.8717    0.8647 H   0  0  0  0  0  0  0  0  0  0  0  0
   -1.0505   -1.6741    0.4899 H   0  0  0  0  0  0  0  0  0  0  0  0
  1  2  1  0
  1  3  1  0
  2  4  1  0
  5  6  1  0
  5 10  1  0
  5 11  1  0
  5 12  1  0
  6  7  1  0
  6 13  1  0
  7  8  1  0
  7 14  1  0
  7 15  1  0
  8  9  1  0
  8 16  1  0
  8 17  1  0
  9 18  1  0
M  RAD  1   6   2
M  END
>  <reaction>  (10) 
rxn_396

>  <mol_properties>  (10) 
{"0": {"label": "*0", "atom_type": "O2s"}, "1": {"label": "*1", "atom_type": "O2s"}, "3": {"label": "*2", "atom_type": "H0"}, "5": {"label": "*3", "atom_type": "Cs"}, "6": {"label": "*4", "atom_type": "Cs"}}

>  <type>  (10) 
unop_6

>  <geom_source>  (10) 
Heuristics

$$$$

     RDKit          3D

 18 16  0  0  0  0  0  0  0  0999 V2000
    0.6106   -1.2015   -1.6481 O   0  0  0  0  0  0  0  0  0  0  0  0
    0.6106   -1.2015   -0.2234 O   0  0  0  0  0  0  0  0  0  0  0  0
    1.4714   -1.5898   -1.8351 H   0  0  0  0  0  0  0  0  0  0  0  0
    0.6106   -0.0684    0.0011 H   0  0  0  0  0  0  0  0  0  0  0  0
    1.8500    1.5882    1.0587 C   0  0  0  0  0  0  0  0  0  0  0  0
    0.6106    1.2173    0.2557 C   0  0  0  0  0  3  0  0  0  0  0  0
   -0.5146    0.6705    1.1254 C   0  0  0  0  0  0  0  0  0  0  0  0
   -1.7480    0.2529    0.3397 C   0  0  0  0  0  0  0  0  0  0  0  0
   -1.4965   -0.7867   -0.5872 O   0  0  0  0  0  0  0  0  0  0  0  0
    2.2523    0.7179    1.5830 H   0  0  0  0  0  0  0  0  0  0  0  0
    2.6382    1.9819    0.4151 H   0  0  0  0  0  0  0  0  0  0  0  0
    1.6211    2.3485    1.8095 H   0  0  0  0  0  0  0  0  0  0  0  0
    0.2456    2.0959   -0.2854 H   0  0  0  0  0  0  0  0  0  0  0  0
   -0.8143    1.4238    1.8621 H   0  0  0  0  0  0  0  0  0  0  0  0
   -0.1501   -0.1890    1.7023 H   0  0  0  0  0  0  0  0  0  0  0  0
   -2.5512   -0.0321    1.0307 H   0  0  0  0  0  0  0  0  0  0  0  0
   -2.1131    1.0925   -0.2558 H   0  0  0  0  0  0  0  0  0  0  0  0
   -1.1995   -1.5583   -0.1021 H   0  0  0  0  0  0  0  0  0  0  0  0
  1  2  1  0
  1  3  1  0
  2  4  1  0
  5  6  1  0
  5 10  1  0
  5 11  1  0
  5 12  1  0
  6  7  1  0
  6 13  1  0
  7  8  1  0
  7 14  1  0
  7 15  1  0
  8  9  1  0
  8 16  1  0
  8 17  1  0
  9 18  1  0
M  RAD  1   6   2
M  END
>  <reaction>  (11) 
rxn_396

>  <mol_properties>  (11) 
{"0": {"label": "*0", "atom_type": "O2s"}, "1": {"label": "*1", "atom_type": "O2s"}, "3": {"label": "*2", "atom_type": "H0"}, "5": {"label": "*3", "atom_type": "Cs"}, "6": {"label": "*4", "atom_type": "Cs"}}

>  <type>  (11) 
unop_7

>  <geom_source>  (11) 
Heuristics

$$$$

     RDKit          3D

 18 16  0  0  0  0  0  0  0  0999 V2000
   -0.6717   -1.9358   -1.2291 O   0  0  0  0  0  0  0  0  0  0  0  0
   -0.6717   -1.9358    0.1956 O   0  0  0  0  0  0  0  0  0  0  0  0
    0.1890   -2.3241   -1.4161 H   0  0  0  0  0  0  0  0  0  0  0  0
   -0.6717   -0.8027    0.4201 H   0  0  0  0  0  0  0  0  0  0  0  0
   -2.1028    0.9930    0.7758 C   0  0  0  0  0  0  0  0  0  0  0  0
   -0.6717    0.4830    0.6747 C   0  0  0  0  0  3  0  0  0  0  0  0
    0.3369    1.5987    0.4313 C   0  0  0  0  0  0  0  0  0  0  0  0
    1.7690    1.1081    0.2841 C   0  0  0  0  0  0  0  0  0  0  0  0
    1.9522    0.2359   -0.8153 O   0  0  0  0  0  0  0  0  0  0  0  0
   -2.4059    1.4953   -0.1461 H   0  0  0  0  0  0  0  0  0  0  0  0
   -2.8044    0.1770    0.9555 H   0  0  0  0  0  0  0  0  0  0  0  0
   -2.2094    1.7110    1.5926 H   0  0  0  0  0  0  0  0  0  0  0  0
   -0.4025   -0.0438    1.5957 H   0  0  0  0  0  0  0  0  0  0  0  0
    0.3024    2.3175    1.2573 H   0  0  0  0  0  0  0  0  0  0  0  0
    0.0564    2.1590   -0.4697 H   0  0  0  0  0  0  0  0  0  0  0  0
    2.4512    1.9647    0.2151 H   0  0  0  0  0  0  0  0  0  0  0  0
    2.0583    0.5313    1.1653 H   0  0  0  0  0  0  0  0  0  0  0  0
    1.7361    0.7128   -1.6183 H   0  0  0  0  0  0  0  0  0  0  0  0
  1  2  1  0
  1  3  1  0
  2  4  1  0
  5  6  1  0
  5 10  1  0
  5 11  1  0
  5 12  1  0
  6  7  1  0
  6 13  1  0
  7  8  1  0
  7 14  1  0
  7 15  1  0
  8  9  1  0
  8 16  1  0
  8 17  1  0
  9 18  1  0
M  RAD  1   6   2
M  END
>  <reaction>  (12) 
rxn_396

>  <mol_properties>  (12) 
{"0": {"label": "*0", "atom_type": "O2s"}, "1": {"label": "*1", "atom_type": "O2s"}, "3": {"label": "*2", "atom_type": "H0"}, "5": {"label": "*3", "atom_type": "Cs"}, "6": {"label": "*4", "atom_type": "Cs"}}

>  <type>  (12) 
unop_8

>  <geom_source>  (12) 
Heuristics

$$$$

     RDKit          3D

 18 16  0  0  0  0  0  0  0  0999 V2000
   -0.2335   -1.2832   -2.1699 O   0  0  0  0  0  0  0  0  0  0  0  0
   -0.2335   -1.2832   -0.7452 O   0  0  0  0  0  0  0  0  0  0  0  0
    0.6273   -1.6715   -2.3569 H   0  0  0  0  0  0  0  0  0  0  0  0
   -0.2335   -0.1501   -0.5207 H   0  0  0  0  0  0  0  0  0  0  0  0
    0.4821    1.8864   -1.3807 C   0  0  0  0  0  0  0  0  0  0  0  0
   -0.2335    1.1356   -0.2660 C   0  0  0  0  0  3  0  0  0  0  0  0
    0.6123    1.0032    0.9943 C   0  0  0  0  0  0  0  0  0  0  0  0
   -0.0658    0.2192    2.1072 C   0  0  0  0  0  0  0  0  0  0  0  0
   -0.3601   -1.1186    1.7512 O   0  0  0  0  0  0  0  0  0  0  0  0
    1.4017    1.3728   -1.6717 H   0  0  0  0  0  0  0  0  0  0  0  0
   -0.1454    1.9727   -2.2691 H   0  0  0  0  0  0  0  0  0  0  0  0
    0.7544    2.8964   -1.0649 H   0  0  0  0  0  0  0  0  0  0  0  0
   -1.1662    1.6504   -0.0148 H   0  0  0  0  0  0  0  0  0  0  0  0
    0.8651    1.9976    1.3782 H   0  0  0  0  0  0  0  0  0  0  0  0
    1.5674    0.5218    0.7484 H   0  0  0  0  0  0  0  0  0  0  0  0
    0.5509    0.2504    3.0143 H   0  0  0  0  0  0  0  0  0  0  0  0
   -1.0280    0.6744    2.3516 H   0  0  0  0  0  0  0  0  0  0  0  0
    0.4641   -1.5671    1.5552 H   0  0  0  0  0  0  0  0  0  0  0  0
  1  2  1  0
  1  3  1  0
  2  4  1  0
  5  6  1  0
  5 10  1  0
  5 11  1  0
  5 12  1  0
  6  7  1  0
  6 13  1  0
  7  8  1  0
  7 14  1  0
  7 15  1  0
  8  9  1  0
  8 16  1  0
  8 17  1  0
  9 18  1  0
M  RAD  1   6   2
M  END
>  <reaction>  (13) 
rxn_396

>  <mol_properties>  (13) 
{"0": {"label": "*0", "atom_type": "O2s"}, "1": {"label": "*1", "atom_type": "O2s"}, "3": {"label": "*2", "atom_type": "H0"}, "5": {"label": "*3", "atom_type": "Cs"}, "6": {"label": "*4", "atom_type": "Cs"}}

>  <type>  (13) 
unop_9

>  <geom_source>  (13) 
Heuristics

$$$$

     RDKit          3D

 18 16  0  0  0  0  0  0  0  0999 V2000
   -0.7673   -1.8286   -1.5388 O   0  0  0  0  0  0  0  0  0  0  0  0
   -0.7673   -1.8286   -0.1141 O   0  0  0  0  0  0  0  0  0  0  0  0
    0.0934   -2.2169   -1.7259 H   0  0  0  0  0  0  0  0  0  0  0  0
   -0.7673   -0.6955    0.1103 H   0  0  0  0  0  0  0  0  0  0  0  0
   -2.0067    1.2392   -0.2359 C   0  0  0  0  0  0  0  0  0  0  0  0
   -0.7673    0.5902    0.3650 C   0  0  0  0  0  3  0  0  0  0  0  0
    0.3969    1.5624    0.5102 C   0  0  0  0  0  0  0  0  0  0  0  0
    1.6601    0.9258    1.0688 C   0  0  0  0  0  0  0  0  0  0  0  0
    2.1769   -0.1062    0.2498 O   0  0  0  0  0  0  0  0  0  0  0  0
   -1.7986    1.6319   -1.2342 H   0  0  0  0  0  0  0  0  0  0  0  0
   -2.8269    0.5251   -0.3242 H   0  0  0  0  0  0  0  0  0  0  0  0
   -2.3542    2.0723    0.3801 H   0  0  0  0  0  0  0  0  0  0  0  0
   -1.0086    0.1763    1.3492 H   0  0  0  0  0  0  0  0  0  0  0  0
    0.1094    2.3908    1.1667 H   0  0  0  0  0  0  0  0  0  0  0  0
    0.6243    2.0131   -0.4643 H   0  0  0  0  0  0  0  0  0  0  0  0
    2.4205    1.6974    1.2432 H   0  0  0  0  0  0  0  0  0  0  0  0
    1.4467    0.4552    2.0311 H   0  0  0  0  0  0  0  0  0  0  0  0
    2.4063    0.2702   -0.6014 H   0  0  0  0  0  0  0  0  0  0  0  0
  1  2  1  0
  1  3  1  0
  2  4  1  0
  5  6  1  0
  5 10  1  0
  5 11  1  0
  5 12  1  0
  6  7  1  0
  6 13  1  0
  7  8  1  0
  7 14  1  0
  7 15  1  0
  8  9  1  0
  8 16  1  0
  8 17  1  0
  9 18  1  0
M  RAD  1   6   2
M  END
>  <reaction>  (14) 
rxn_396

>  <mol_properties>  (14) 
{"0": {"label": "*0", "atom_type": "O2s"}, "1": {"label": "*1", "atom_type": "O2s"}, "3": {"label": "*2", "atom_type": "H0"}, "5": {"label": "*3", "atom_type": "Cs"}, "6": {"label": "*4", "atom_type": "Cs"}}

>  <type>  (14) 
unop_10

>  <geom_source>  (14) 
Heuristics

$$$$

     RDKit          3D

 18 16  0  0  0  0  0  0  0  0999 V2000
    0.6829   -1.3604   -1.3257 O   0  0  0  0  0  0  0  0  0  0  0  0
    0.6829   -1.3604    0.0989 O   0  0  0  0  0  0  0  0  0  0  0  0
    1.5436   -1.7487   -1.5128 H   0  0  0  0  0  0  0  0  0  0  0  0
    0.6829   -0.2272    0.3234 H   0  0  0  0  0  0  0  0  0  0  0  0
    1.3984    1.3276    1.8948 C   0  0  0  0  0  0  0  0  0  0  0  0
    0.6829    1.0584    0.5781 C   0  0  0  0  0  3  0  0  0  0  0  0
   -0.8245    0.9115    0.7444 C   0  0  0  0  0  0  0  0  0  0  0  0
   -1.5560    0.5994   -0.5519 C   0  0  0  0  0  0  0  0  0  0  0  0
   -1.1563   -0.6240   -1.1404 O   0  0  0  0  0  0  0  0  0  0  0  0
    1.2384    0.5101    2.6021 H   0  0  0  0  0  0  0  0  0  0  0  0
    2.4744    1.4344    1.7486 H   0  0  0  0  0  0  0  0  0  0  0  0
    1.0324    2.2447    2.3628 H   0  0  0  0  0  0  0  0  0  0  0  0
    0.8844    1.8736   -0.1240 H   0  0  0  0  0  0  0  0  0  0  0  0
   -1.2436    1.8329    1.1632 H   0  0  0  0  0  0  0  0  0  0  0  0
   -1.0393    0.1215    1.4754 H   0  0  0  0  0  0  0  0  0  0  0  0
   -2.6397    0.6091   -0.3800 H   0  0  0  0  0  0  0  0  0  0  0  0
   -1.3375    1.3669   -1.2977 H   0  0  0  0  0  0  0  0  0  0  0  0
   -1.3575   -1.3335   -0.5280 H   0  0  0  0  0  0  0  0  0  0  0  0
  1  2  1  0
  1  3  1  0
  2  4  1  0
  5  6  1  0
  5 10  1  0
  5 11  1  0
  5 12  1  0
  6  7  1  0
  6 13  1  0
  7  8  1  0
  7 14  1  0
  7 15  1  0
  8  9  1  0
  8 16  1  0
  8 17  1  0
  9 18  1  0
M  RAD  1   6   2
M  END
>  <reaction>  (15) 
rxn_396

>  <mol_properties>  (15) 
{"0": {"label": "*0", "atom_type": "O2s"}, "1": {"label": "*1", "atom_type": "O2s"}, "3": {"label": "*2", "atom_type": "H0"}, "5": {"label": "*3", "atom_type": "Cs"}, "6": {"label": "*4", "atom_type": "Cs"}}

>  <type>  (15) 
unop_11

>  <geom_source>  (15) 
Heuristics

$$$$

     RDKit          3D

 18 16  0  0  0  0  0  0  0  0999 V2000
   -0.5463   -1.4716   -2.0563 O   0  0  0  0  0  0  0  0  0  0  0  0
   -0.5463   -1.4716   -0.6317 O   0  0  0  0  0  0  0  0  0  0  0  0
    0.3144   -1.8599   -2.2434 H   0  0  0  0  0  0  0  0  0  0  0  0
   -0.5463   -0.3385   -0.4072 H   0  0  0  0  0  0  0  0  0  0  0  0
   -0.5463    1.7352   -1.4553 C   0  0  0  0  0  0  0  0  0  0  0  0
   -0.5463    0.9472   -0.1525 C   0  0  0  0  0  3  0  0  0  0  0  0
    0.6447    1.2785    0.7380 C   0  0  0  0  0  0  0  0  0  0  0  0
    0.6889    0.4717    2.0265 C   0  0  0  0  0  0  0  0  0  0  0  0
    0.8008   -0.9226    1.8111 O   0  0  0  0  0  0  0  0  0  0  0  0
    0.3521    1.5248   -2.0407 H   0  0  0  0  0  0  0  0  0  0  0  0
   -1.4108    1.4848   -2.0721 H   0  0  0  0  0  0  0  0  0  0  0  0
   -0.5718    2.8112   -1.2659 H   0  0  0  0  0  0  0  0  0  0  0  0
   -1.4694    1.1490    0.4001 H   0  0  0  0  0  0  0  0  0  0  0  0
    0.6294    2.3424    0.9982 H   0  0  0  0  0  0  0  0  0  0  0  0
    1.5770    1.1160    0.1822 H   0  0  0  0  0  0  0  0  0  0  0  0
    1.5074    0.8307    2.6631 H   0  0  0  0  0  0  0  0  0  0  0  0
   -0.2406    0.6071    2.5837 H   0  0  0  0  0  0  0  0  0  0  0  0
    1.6224   -1.0914    1.3471 H   0  0  0  0  0  0  0  0  0  0  0  0
  1  2  1  0
  1  3  1  0
  2  4  1  0
  5  6  1  0
  5 10  1  0
  5 11  1  0
  5 12  1  0
  6  7  1  0
  6 13  1  0
  7  8  1  0
  7 14  1  0
  7 15  1  0
  8  9  1  0
  8 16  1  0
  8 17  1  0
  9 18  1  0
M  RAD  1   6   2
M  END
>  <reaction>  (16) 
rxn_396

>  <mol_properties>  (16) 
{"0": {"label": "*0", "atom_type": "O2s"}, "1": {"label": "*1", "atom_type": "O2s"}, "3": {"label": "*2", "atom_type": "H0"}, "5": {"label": "*3", "atom_type": "Cs"}, "6": {"label": "*4", "atom_type": "Cs"}}

>  <type>  (16) 
unop_12

>  <geom_source>  (16) 
Heuristics

$$$$

     RDKit          3D

 18 16  0  0  0  0  0  0  0  0999 V2000
   -2.8914   -1.5067    0.4301 O   0  0  0  0  0  0  0  0  0  0  0  0
    3.5474   -0.5072    0.9032 O   0  0  0  0  0  0  0  0  0  0  0  0
    2.2319   -0.4803    0.9242 O   0  0  0  0  0  1  0  0  0  0  0  0
   -1.1573    0.1254    0.0842 C   0  0  0  0  0  0  0  0  0  0  0  0
    0.3104    0.3136   -0.3142 C   0  0  0  0  0  0  0  0  0  0  0  0
   -1.5561   -1.3515    0.0333 C   0  0  0  0  0  0  0  0  0  0  0  0
    0.7117    1.7845   -0.2621 C   0  0  0  0  0  0  0  0  0  0  0  0
   -1.8071    0.7029   -0.6095 H   0  0  0  0  0  0  0  0  0  0  0  0
   -1.3143    0.5080    1.1165 H   0  0  0  0  0  0  0  0  0  0  0  0
    0.4710   -0.0671   -1.3465 H   0  0  0  0  0  0  0  0  0  0  0  0
    0.9995   -0.2930    0.4182 H   0  0  0  0  0  0  0  0  0  0  0  0
   -0.9135   -1.9335    0.7279 H   0  0  0  0  0  0  0  0  0  0  0  0
   -1.4095   -1.7575   -0.9940 H   0  0  0  0  0  0  0  0  0  0  0  0
    0.5848    2.1822    0.7672 H   0  0  0  0  0  0  0  0  0  0  0  0
    0.0906    2.3793   -0.9653 H   0  0  0  0  0  0  0  0  0  0  0  0
    1.7778    1.8885   -0.5539 H   0  0  0  0  0  0  0  0  0  0  0  0
   -3.4514   -1.2148   -0.3361 H   0  0  0  0  0  0  0  0  0  0  0  0
    3.7754   -0.7727   -0.0231 H   0  0  0  0  0  0  0  0  0  0  0  0
  1  6  1  0
  1 17  1  0
  2  3  1  0
  2 18  1  0
  4  5  1  0
  4  6  1  0
  4  8  1  0
  4  9  1  0
  5  7  1  0
  5 10  1  0
  5 11  1  0
  6 12  1  0
  6 13  1  0
  7 14  1  0
  7 15  1  0
  7 16  1  0
M  RAD  1   3   2
M  END
>  <reaction>  (17) 
rxn_396

>  <mol_properties>  (17) 
{"0": {"label": "*0", "atom_type": "O2s"}, "1": {"label": "*1", "atom_type": "O2s"}, "3": {"label": "*2", "atom_type": "H0"}, "5": {"label": "*3", "atom_type": "Cs"}, "6": {"label": "*4", "atom_type": "Cs"}}

>  <type>  (17) 
unop_13

>  <geom_source>  (17) 
AutoTST

$$$$

     RDKit          3D

 18 16  0  0  0  0  0  0  0  0999 V2000
   -0.7259   -1.6721   -1.8264 O   0  0  0  0  0  0  0  0  0  0  0  0
   -0.7259   -1.6721   -0.4017 O   0  0  0  0  0  0  0  0  0  0  0  0
    0.1348   -2.0604   -2.0134 H   0  0  0  0  0  0  0  0  0  0  0  0
   -0.7259   -0.5390   -0.1772 H   0  0  0  0  0  0  0  0  0  0  0  0
   -1.4414    1.4975   -1.0373 C   0  0  0  0  0  0  0  0  0  0  0  0
   -0.7259    0.7467    0.0775 C   0  0  0  0  0  3  0  0  0  0  0  0
    0.5154    1.4749    0.5777 C   0  0  0  0  0  0  0  0  0  0  0  0
    1.2710    0.7228    1.6624 C   0  0  0  0  0  0  0  0  0  0  0  0
    1.7613   -0.5341    1.2350 O   0  0  0  0  0  0  0  0  0  0  0  0
   -0.7867    1.6331   -1.9016 H   0  0  0  0  0  0  0  0  0  0  0  0
   -2.3288    0.9592   -1.3739 H   0  0  0  0  0  0  0  0  0  0  0  0
   -1.7585    2.4891   -0.7052 H   0  0  0  0  0  0  0  0  0  0  0  0
   -1.4106    0.5946    0.9178 H   0  0  0  0  0  0  0  0  0  0  0  0
    0.2359    2.4582    0.9714 H   0  0  0  0  0  0  0  0  0  0  0  0
    1.1939    1.6671   -0.2632 H   0  0  0  0  0  0  0  0  0  0  0  0
    2.0885    1.3454    2.0471 H   0  0  0  0  0  0  0  0  0  0  0  0
    0.6043    0.5064    2.5000 H   0  0  0  0  0  0  0  0  0  0  0  0
    2.3769   -0.3890    0.5147 H   0  0  0  0  0  0  0  0  0  0  0  0
  1  2  1  0
  1  3  1  0
  2  4  1  0
  5  6  1  0
  5 10  1  0
  5 11  1  0
  5 12  1  0
  6  7  1  0
  6 13  1  0
  7  8  1  0
  7 14  1  0
  7 15  1  0
  8  9  1  0
  8 16  1  0
  8 17  1  0
  9 18  1  0
M  RAD  1   6   2
M  END
>  <reaction>  (18) 
rxn_396

>  <mol_properties>  (18) 
{"0": {"label": "*0", "atom_type": "O2s"}, "1": {"label": "*1", "atom_type": "O2s"}, "3": {"label": "*2", "atom_type": "H0"}, "5": {"label": "*3", "atom_type": "Cs"}, "6": {"label": "*4", "atom_type": "Cs"}}

>  <type>  (18) 
unop_14

>  <geom_source>  (18) 
gaussian_log

$$$$
