
     RDKit          3D

  7  6  0  0  0  0  0  0  0  0999 V2000
   -0.6782    0.0507    0.0301 C   0  0  0  0  0  0  0  0  0  0  0  0
    0.8092    0.0996    0.0213 C   0  0  0  0  0  0  0  0  0  0  0  0
    1.7473    0.7521    1.1507 S   0  0  0  0  0  0  0  0  0  0  0  0
   -1.0667    0.5456   -0.8653 H   0  0  0  0  0  0  0  0  0  0  0  0
   -1.0112   -0.9904   -0.0239 H   0  0  0  0  0  0  0  0  0  0  0  0
   -1.0920    0.5225    0.9188 H   0  0  0  0  0  0  0  0  0  0  0  0
    1.2740   -0.3620   -0.8520 H   0  0  0  0  0  0  0  0  0  0  0  0
  1  2  1  0
  1  4  1  0
  1  5  1  0
  1  6  1  0
  2  3  2  0
  2  7  1  0
M  END
>  <reaction>  (1) 
rxn_1967

>  <mol_properties>  (1) 
{"0": {"label": "donator", "atom_type": "Cs"}, "3": {"label": "d_hydrogen", "atom_type": "H0"}}

>  <type>  (1) 
r1h

$$$$

     RDKit          3D

 17 17  0  0  0  0  0  0  0  0999 V2000
    2.7069    0.2860   -0.1817 C   0  0  0  0  0  0  0  0  0  0  0  0
    1.6304   -0.7245    0.0085 C   0  0  0  0  0  0  0  0  0  0  0  0
    1.4786   -1.8800   -0.7837 C   0  0  0  0  0  0  0  0  0  0  0  0
    0.4231   -2.7891   -0.5312 C   0  0  0  0  0  3  0  0  0  0  0  0
    0.2582   -3.9235   -1.2940 C   0  0  0  0  0  0  0  0  0  0  0  0
    1.1348   -4.2030   -2.3401 C   0  0  0  0  0  0  0  0  0  0  0  0
    2.1804   -3.3260   -2.6093 C   0  0  0  0  0  0  0  0  0  0  0  0
    2.3549   -2.1866   -1.8513 C   0  0  0  0  0  0  0  0  0  0  0  0
    2.6698    0.7343   -1.1808 H   0  0  0  0  0  0  0  0  0  0  0  0
    3.7029   -0.1584   -0.0766 H   0  0  0  0  0  0  0  0  0  0  0  0
    2.6250    1.0917    0.5463 H   0  0  0  0  0  0  0  0  0  0  0  0
    0.9136   -0.5677    0.8059 H   0  0  0  0  0  0  0  0  0  0  0  0
   -0.2629   -2.5783    0.2811 H   0  0  0  0  0  0  0  0  0  0  0  0
   -0.5582   -4.6017   -1.0785 H   0  0  0  0  0  0  0  0  0  0  0  0
    1.0033   -5.0952   -2.9384 H   0  0  0  0  0  0  0  0  0  0  0  0
    2.8650   -3.5382   -3.4214 H   0  0  0  0  0  0  0  0  0  0  0  0
    3.1750   -1.5169   -2.0772 H   0  0  0  0  0  0  0  0  0  0  0  0
  1  2  1  0
  1  9  1  0
  1 10  1  0
  1 11  1  0
  2  3  2  3
  2 12  1  0
  3  4  1  0
  3  8  1  0
  4  5  1  0
  4 13  1  0
  5  6  2  0
  5 14  1  0
  6  7  1  0
  6 15  1  0
  7  8  2  0
  7 16  1  0
  8 17  1  0
M  RAD  1   4   2
M  END
>  <reaction>  (2) 
rxn_1967

>  <mol_properties>  (2) 
{"1": {"label": "acceptor", "atom_type": "Cs"}}

>  <type>  (2) 
r2

$$$$

     RDKit          3D

 18 18  0  0  0  0  0  0  0  0999 V2000
   -2.4852    0.3210   -0.3966 C   0  0  0  0  0  0  0  0  0  0  0  0
   -1.5917   -0.2708    0.6941 C   0  0  0  0  0  0  0  0  0  0  0  0
   -0.1292   -0.1692    0.3493 C   0  0  0  0  0  0  0  0  0  0  0  0
    0.6099    0.9558    0.7015 C   0  0  0  0  0  0  0  0  0  0  0  0
    1.9447    1.0728    0.3458 C   0  0  0  0  0  0  0  0  0  0  0  0
    2.5646    0.0613   -0.3720 C   0  0  0  0  0  0  0  0  0  0  0  0
    1.8399   -1.0657   -0.7287 C   0  0  0  0  0  0  0  0  0  0  0  0
    0.5055   -1.1769   -0.3700 C   0  0  0  0  0  0  0  0  0  0  0  0
   -2.3325   -0.1971   -1.3452 H   0  0  0  0  0  0  0  0  0  0  0  0
   -2.2554    1.3763   -0.5546 H   0  0  0  0  0  0  0  0  0  0  0  0
   -3.5397    0.2376   -0.1280 H   0  0  0  0  0  0  0  0  0  0  0  0
   -1.7801    0.2462    1.6380 H   0  0  0  0  0  0  0  0  0  0  0  0
   -1.8568   -1.3190    0.8516 H   0  0  0  0  0  0  0  0  0  0  0  0
    0.1327    1.7497    1.2656 H   0  0  0  0  0  0  0  0  0  0  0  0
    2.5033    1.9550    0.6330 H   0  0  0  0  0  0  0  0  0  0  0  0
    3.6077    0.1491   -0.6484 H   0  0  0  0  0  0  0  0  0  0  0  0
    2.3163   -1.8632   -1.2854 H   0  0  0  0  0  0  0  0  0  0  0  0
   -0.0540   -2.0629   -0.6500 H   0  0  0  0  0  0  0  0  0  0  0  0
  1  2  1  0
  1  9  1  0
  1 10  1  0
  1 11  1  0
  2  3  1  0
  2 12  1  0
  2 13  1  0
  3  4  2  0
  3  8  1  0
  4  5  1  0
  4 14  1  0
  5  6  2  0
  5 15  1  0
  6  7  1  0
  6 16  1  0
  7  8  2  0
  7 17  1  0
  8 18  1  0
M  END
>  <reaction>  (3) 
rxn_1967

>  <mol_properties>  (3) 
{"0": {"label": "a_hydrogen", "atom_type": "H0"}, "2": {"label": "acceptor", "atom_type": "Cs"}}

>  <type>  (3) 
r2h

$$$$

     RDKit          3D

 24 23  0  0  0  0  0  0  0  0999 V2000
    2.1874   -0.5489    0.3781 C   0  0  0  0  0  0  0  0  0  0  0  0
    2.1561   -1.1709   -0.9090 C   0  0  0  0  0  0  0  0  0  0  0  0
    1.6504   -0.4630   -2.2964 S   0  0  0  0  0  0  0  0  0  0  0  0
    1.0129   -0.7676    0.9040 H   0  0  0  0  0  0  0  0  0  0  0  0
    2.8447   -1.0012    1.1177 H   0  0  0  0  0  0  0  0  0  0  0  0
    2.1733    0.5382    0.3827 H   0  0  0  0  0  0  0  0  0  0  0  0
    2.4476   -2.2213   -0.9353 H   0  0  0  0  0  0  0  0  0  0  0  0
   -0.6612   -2.1964    0.6223 C   0  0  0  0  0  0  0  0  0  0  0  0
   -0.2823   -0.9527    1.3731 C   0  0  0  0  0  0  0  0  0  0  0  0
   -0.9311    0.3240    1.0847 C   0  0  0  0  0  0  0  0  0  0  0  0
   -0.9149    1.3436    2.0441 C   0  0  0  0  0  3  0  0  0  0  0  0
   -1.4785    2.5779    1.7817 C   0  0  0  0  0  0  0  0  0  0  0  0
   -2.0682    2.8256    0.5490 C   0  0  0  0  0  0  0  0  0  0  0  0
   -2.0876    1.8279   -0.4147 C   0  0  0  0  0  0  0  0  0  0  0  0
   -1.5244    0.5914   -0.1534 C   0  0  0  0  0  0  0  0  0  0  0  0
   -0.4759   -2.0938   -0.4494 H   0  0  0  0  0  0  0  0  0  0  0  0
   -1.7230   -2.4231    0.7534 H   0  0  0  0  0  0  0  0  0  0  0  0
   -0.0853   -3.0511    0.9776 H   0  0  0  0  0  0  0  0  0  0  0  0
   -0.0698   -1.1058    2.4295 H   0  0  0  0  0  0  0  0  0  0  0  0
   -0.4561    1.1547    3.0081 H   0  0  0  0  0  0  0  0  0  0  0  0
   -1.4597    3.3509    2.5396 H   0  0  0  0  0  0  0  0  0  0  0  0
   -2.5085    3.7922    0.3408 H   0  0  0  0  0  0  0  0  0  0  0  0
   -2.5395    2.0164   -1.3801 H   0  0  0  0  0  0  0  0  0  0  0  0
   -1.5371   -0.1703   -0.9217 H   0  0  0  0  0  0  0  0  0  0  0  0
  1  2  1  0
  1  4  1  0
  1  5  1  0
  1  6  1  0
  2  3  2  0
  2  7  1  0
  8  9  1  0
  8 16  1  0
  8 17  1  0
  8 18  1  0
  9 10  2  3
  9 19  1  0
 10 11  1  0
 10 15  1  0
 11 12  1  0
 11 20  1  0
 12 13  2  0
 12 21  1  0
 13 14  1  0
 13 22  1  0
 14 15  2  0
 14 23  1  0
 15 24  1  0
M  RAD  1  11   2
M  END
>  <reaction>  (4) 
rxn_1967

>  <mol_properties>  (4) 
{"0": {"label": "*1", "atom_type": "Cs"}, "1": {"label": "*0", "atom_type": "CS"}, "3": {"label": "*2", "atom_type": "H0"}, "8": {"label": "*3", "atom_type": "Cd"}, "9": {"label": "*4", "atom_type": "Cd"}}

>  <type>  (4) 
ts

$$$$

     RDKit          3D

 24 23  0  0  0  0  0  0  0  0999 V2000
    2.5880    0.8068   -0.4714 C   0  0  0  0  0  0  0  0  0  0  0  0
    2.5880   -0.3917   -1.3536 C   0  0  0  0  0  0  0  0  0  0  0  0
    2.5880   -0.3917   -2.9602 S   0  0  0  0  0  1  0  0  0  0  0  0
    1.5367    0.7745    0.3149 H   0  0  0  0  0  0  0  0  0  0  0  0
    3.4642    0.7799    0.1838 H   0  0  0  0  0  0  0  0  0  0  0  0
    2.5880    1.7306   -1.0461 H   0  0  0  0  0  0  0  0  0  0  0  0
    2.5880   -1.3461   -0.8236 H   0  0  0  0  0  0  0  0  0  0  0  0
    0.9440    0.7234    2.5590 C   0  0  0  0  0  0  0  0  0  0  0  0
    0.4870    0.7423    1.0999 C   0  0  0  0  0  0  0  0  0  0  0  0
   -0.9308    0.2599    0.9410 C   0  0  0  0  0  0  0  0  0  0  0  0
   -1.9995    1.1464    1.0276 C   0  0  0  0  0  0  0  0  0  0  0  0
   -3.3078    0.6990    0.9276 C   0  0  0  0  0  0  0  0  0  0  0  0
   -3.5693   -0.6496    0.7386 C   0  0  0  0  0  0  0  0  0  0  0  0
   -2.5134   -1.5439    0.6496 C   0  0  0  0  0  0  0  0  0  0  0  0
   -1.2073   -1.0903    0.7504 C   0  0  0  0  0  0  0  0  0  0  0  0
    0.8910   -0.2874    2.9679 H   0  0  0  0  0  0  0  0  0  0  0  0
    0.3065    1.3629    3.1724 H   0  0  0  0  0  0  0  0  0  0  0  0
    1.9726    1.0761    2.6526 H   0  0  0  0  0  0  0  0  0  0  0  0
    0.5725    1.7578    0.7058 H   0  0  0  0  0  0  0  0  0  0  0  0
   -1.8028    2.2031    1.1723 H   0  0  0  0  0  0  0  0  0  0  0  0
   -4.1255    1.4060    0.9938 H   0  0  0  0  0  0  0  0  0  0  0  0
   -4.5901   -1.0010    0.6572 H   0  0  0  0  0  0  0  0  0  0  0  0
   -2.7072   -2.5985    0.4976 H   0  0  0  0  0  0  0  0  0  0  0  0
   -0.3866   -1.7955    0.6768 H   0  0  0  0  0  0  0  0  0  0  0  0
  1  2  2  3
  1  5  1  0
  1  6  1  0
  2  3  1  0
  2  7  1  0
  4  9  1  0
  8  9  1  0
  8 16  1  0
  8 17  1  0
  8 18  1  0
  9 10  1  0
  9 19  1  0
 10 11  2  0
 10 15  1  0
 11 12  1  0
 11 20  1  0
 12 13  2  0
 12 21  1  0
 13 14  1  0
 13 22  1  0
 14 15  2  0
 14 23  1  0
 15 24  1  0
M  RAD  1   3   2
M  END
>  <reaction>  (5) 
rxn_1967

>  <mol_properties>  (5) 
{"0": {"label": "*1", "atom_type": "Cs"}, "1": {"label": "*0", "atom_type": "CS"}, "3": {"label": "*2", "atom_type": "H0"}, "8": {"label": "*3", "atom_type": "Cd"}, "9": {"label": "*4", "atom_type": "Cd"}}

>  <type>  (5) 
unop_1

>  <geom_source>  (5) 
Heuristics

$$$$

     RDKit          3D

 24 23  0  0  0  0  0  0  0  0999 V2000
    2.4849   -0.2752   -0.2963 C   0  0  0  0  0  0  0  0  0  0  0  0
    2.4849   -1.4737   -1.1785 C   0  0  0  0  0  0  0  0  0  0  0  0
    2.4849   -1.4737   -2.7851 S   0  0  0  0  0  1  0  0  0  0  0  0
    1.4335   -0.3075    0.4900 H   0  0  0  0  0  0  0  0  0  0  0  0
    3.3610   -0.3021    0.3589 H   0  0  0  0  0  0  0  0  0  0  0  0
    2.4849    0.6486   -0.8709 H   0  0  0  0  0  0  0  0  0  0  0  0
    2.4849   -2.4281   -0.6485 H   0  0  0  0  0  0  0  0  0  0  0  0
    0.0015   -1.7939    1.5529 C   0  0  0  0  0  0  0  0  0  0  0  0
    0.3839   -0.3397    1.2750 C   0  0  0  0  0  0  0  0  0  0  0  0
   -0.8230    0.5353    1.0605 C   0  0  0  0  0  0  0  0  0  0  0  0
   -1.4470    1.1648    2.1329 C   0  0  0  0  0  0  0  0  0  0  0  0
   -2.5850    1.9339    1.9452 C   0  0  0  0  0  0  0  0  0  0  0  0
   -3.1201    2.0861    0.6750 C   0  0  0  0  0  0  0  0  0  0  0  0
   -2.5077    1.4649   -0.4028 C   0  0  0  0  0  0  0  0  0  0  0  0
   -1.3698    0.6971   -0.2086 C   0  0  0  0  0  0  0  0  0  0  0  0
   -0.5652   -2.2111    0.7184 H   0  0  0  0  0  0  0  0  0  0  0  0
   -0.6221   -1.8661    2.4459 H   0  0  0  0  0  0  0  0  0  0  0  0
    0.8889   -2.4106    1.7053 H   0  0  0  0  0  0  0  0  0  0  0  0
    0.9705    0.0477    2.1114 H   0  0  0  0  0  0  0  0  0  0  0  0
   -1.0325    1.0530    3.1289 H   0  0  0  0  0  0  0  0  0  0  0  0
   -3.0534    2.4187    2.7928 H   0  0  0  0  0  0  0  0  0  0  0  0
   -4.0070    2.6885    0.5255 H   0  0  0  0  0  0  0  0  0  0  0  0
   -2.9153    1.5813   -1.3994 H   0  0  0  0  0  0  0  0  0  0  0  0
   -0.8946    0.2168   -1.0570 H   0  0  0  0  0  0  0  0  0  0  0  0
  1  2  2  3
  1  5  1  0
  1  6  1  0
  2  3  1  0
  2  7  1  0
  4  9  1  0
  8  9  1  0
  8 16  1  0
  8 17  1  0
  8 18  1  0
  9 10  1  0
  9 19  1  0
 10 11  2  0
 10 15  1  0
 11 12  1  0
 11 20  1  0
 12 13  2  0
 12 21  1  0
 13 14  1  0
 13 22  1  0
 14 15  2  0
 14 23  1  0
 15 24  1  0
M  RAD  1   3   2
M  END
>  <reaction>  (6) 
rxn_1967

>  <mol_properties>  (6) 
{"0": {"label": "*1", "atom_type": "Cs"}, "1": {"label": "*0", "atom_type": "CS"}, "3": {"label": "*2", "atom_type": "H0"}, "8": {"label": "*3", "atom_type": "Cd"}, "9": {"label": "*4", "atom_type": "Cd"}}

>  <type>  (6) 
unop_2

>  <geom_source>  (6) 
Heuristics

$$$$

     RDKit          3D

 24 23  0  0  0  0  0  0  0  0999 V2000
    2.2318    1.2965   -0.7640 C   0  0  0  0  0  0  0  0  0  0  0  0
    2.2318    0.0980   -1.6462 C   0  0  0  0  0  0  0  0  0  0  0  0
    2.2318    0.0980   -3.2529 S   0  0  0  0  0  1  0  0  0  0  0  0
    1.1805    1.2642    0.0222 H   0  0  0  0  0  0  0  0  0  0  0  0
    3.1080    1.2696   -0.1088 H   0  0  0  0  0  0  0  0  0  0  0  0
    2.2318    2.2203   -1.3387 H   0  0  0  0  0  0  0  0  0  0  0  0
    2.2318   -0.8564   -1.1163 H   0  0  0  0  0  0  0  0  0  0  0  0
    0.4598    1.9348    2.1248 C   0  0  0  0  0  0  0  0  0  0  0  0
    0.1308    1.2320    0.8073 C   0  0  0  0  0  0  0  0  0  0  0  0
   -0.8802    0.1302    0.9866 C   0  0  0  0  0  0  0  0  0  0  0  0
   -2.2437    0.3927    0.8995 C   0  0  0  0  0  0  0  0  0  0  0  0
   -3.1782   -0.6096    1.1094 C   0  0  0  0  0  0  0  0  0  0  0  0
   -2.7615   -1.8972    1.4114 C   0  0  0  0  0  0  0  0  0  0  0  0
   -1.4054   -2.1727    1.5004 C   0  0  0  0  0  0  0  0  0  0  0  0
   -0.4758   -1.1661    1.2895 C   0  0  0  0  0  0  0  0  0  0  0  0
    0.8670    1.2272    2.8495 H   0  0  0  0  0  0  0  0  0  0  0  0
   -0.4373    2.3772    2.5618 H   0  0  0  0  0  0  0  0  0  0  0  0
    1.1932    2.7287    1.9735 H   0  0  0  0  0  0  0  0  0  0  0  0
   -0.2509    1.9635    0.0910 H   0  0  0  0  0  0  0  0  0  0  0  0
   -2.5773    1.3966    0.6606 H   0  0  0  0  0  0  0  0  0  0  0  0
   -4.2350   -0.3853    1.0332 H   0  0  0  0  0  0  0  0  0  0  0  0
   -3.4893   -2.6822    1.5728 H   0  0  0  0  0  0  0  0  0  0  0  0
   -1.0698   -3.1761    1.7314 H   0  0  0  0  0  0  0  0  0  0  0  0
    0.5832   -1.3900    1.3577 H   0  0  0  0  0  0  0  0  0  0  0  0
  1  2  2  3
  1  5  1  0
  1  6  1  0
  2  3  1  0
  2  7  1  0
  4  9  1  0
  8  9  1  0
  8 16  1  0
  8 17  1  0
  8 18  1  0
  9 10  1  0
  9 19  1  0
 10 11  2  0
 10 15  1  0
 11 12  1  0
 11 20  1  0
 12 13  2  0
 12 21  1  0
 13 14  1  0
 13 22  1  0
 14 15  2  0
 14 23  1  0
 15 24  1  0
M  RAD  1   3   2
M  END
>  <reaction>  (7) 
rxn_1967

>  <mol_properties>  (7) 
{"0": {"label": "*1", "atom_type": "Cs"}, "1": {"label": "*0", "atom_type": "CS"}, "3": {"label": "*2", "atom_type": "H0"}, "8": {"label": "*3", "atom_type": "Cd"}, "9": {"label": "*4", "atom_type": "Cd"}}

>  <type>  (7) 
unop_3

>  <geom_source>  (7) 
Heuristics

$$$$

     RDKit          3D

 24 23  0  0  0  0  0  0  0  0999 V2000
    1.0688   -0.9089   -0.6825 C   0  0  0  0  0  0  0  0  0  0  0  0
    1.0688   -2.1073   -1.5647 C   0  0  0  0  0  0  0  0  0  0  0  0
    1.0688   -2.1073   -3.1713 S   0  0  0  0  0  1  0  0  0  0  0  0
    0.0174   -0.9411    0.1038 H   0  0  0  0  0  0  0  0  0  0  0  0
    1.9449   -0.9357   -0.0272 H   0  0  0  0  0  0  0  0  0  0  0  0
    1.0688    0.0149   -1.2571 H   0  0  0  0  0  0  0  0  0  0  0  0
    1.0688   -3.0618   -1.0347 H   0  0  0  0  0  0  0  0  0  0  0  0
   -2.3029   -0.9794    0.0383 C   0  0  0  0  0  0  0  0  0  0  0  0
   -1.0322   -0.9734    0.8888 C   0  0  0  0  0  0  0  0  0  0  0  0
   -0.5830    0.4227    1.2315 C   0  0  0  0  0  0  0  0  0  0  0  0
   -1.0528    1.0625    2.3742 C   0  0  0  0  0  0  0  0  0  0  0  0
   -0.6773    2.3641    2.6687 C   0  0  0  0  0  0  0  0  0  0  0  0
    0.1783    3.0502    1.8202 C   0  0  0  0  0  0  0  0  0  0  0  0
    0.6546    2.4241    0.6784 C   0  0  0  0  0  0  0  0  0  0  0  0
    0.2755    1.1224    0.3894 C   0  0  0  0  0  0  0  0  0  0  0  0
   -2.1433   -0.4439   -0.8994 H   0  0  0  0  0  0  0  0  0  0  0  0
   -3.1232   -0.4881    0.5649 H   0  0  0  0  0  0  0  0  0  0  0  0
   -2.6114   -1.9990   -0.1989 H   0  0  0  0  0  0  0  0  0  0  0  0
   -1.2085   -1.5354    1.8091 H   0  0  0  0  0  0  0  0  0  0  0  0
   -1.7199    0.5312    3.0443 H   0  0  0  0  0  0  0  0  0  0  0  0
   -1.0512    2.8428    3.5653 H   0  0  0  0  0  0  0  0  0  0  0  0
    0.4752    4.0657    2.0496 H   0  0  0  0  0  0  0  0  0  0  0  0
    1.3268    2.9500    0.0117 H   0  0  0  0  0  0  0  0  0  0  0  0
    0.6546    0.6382   -0.5040 H   0  0  0  0  0  0  0  0  0  0  0  0
  1  2  2  3
  1  5  1  0
  1  6  1  0
  2  3  1  0
  2  7  1  0
  4  9  1  0
  8  9  1  0
  8 16  1  0
  8 17  1  0
  8 18  1  0
  9 10  1  0
  9 19  1  0
 10 11  2  0
 10 15  1  0
 11 12  1  0
 11 20  1  0
 12 13  2  0
 12 21  1  0
 13 14  1  0
 13 22  1  0
 14 15  2  0
 14 23  1  0
 15 24  1  0
M  RAD  1   3   2
M  END
>  <reaction>  (8) 
rxn_1967

>  <mol_properties>  (8) 
{"0": {"label": "*1", "atom_type": "Cs"}, "1": {"label": "*0", "atom_type": "CS"}, "3": {"label": "*2", "atom_type": "H0"}, "8": {"label": "*3", "atom_type": "Cd"}, "9": {"label": "*4", "atom_type": "Cd"}}

>  <type>  (8) 
unop_4

>  <geom_source>  (8) 
Heuristics

$$$$

     RDKit          3D

 24 23  0  0  0  0  0  0  0  0999 V2000
    1.3422    1.4088   -1.2764 C   0  0  0  0  0  0  0  0  0  0  0  0
    1.3422    0.2104   -2.1586 C   0  0  0  0  0  0  0  0  0  0  0  0
    1.3422    0.2104   -3.7652 S   0  0  0  0  0  1  0  0  0  0  0  0
    0.2909    1.3766   -0.4901 H   0  0  0  0  0  0  0  0  0  0  0  0
    2.2184    1.3820   -0.6212 H   0  0  0  0  0  0  0  0  0  0  0  0
    1.3422    2.3326   -1.8511 H   0  0  0  0  0  0  0  0  0  0  0  0
    1.3422   -0.7441   -1.6286 H   0  0  0  0  0  0  0  0  0  0  0  0
   -0.7549    2.5772    1.1995 C   0  0  0  0  0  0  0  0  0  0  0  0
   -0.7588    1.3443    0.2949 C   0  0  0  0  0  0  0  0  0  0  0  0
   -0.7576    0.0605    1.0822 C   0  0  0  0  0  0  0  0  0  0  0  0
   -1.9515   -0.5339    1.4786 C   0  0  0  0  0  0  0  0  0  0  0  0
   -1.9535   -1.6908    2.2424 C   0  0  0  0  0  0  0  0  0  0  0  0
   -0.7551   -2.2746    2.6242 C   0  0  0  0  0  0  0  0  0  0  0  0
    0.4421   -1.6930    2.2352 C   0  0  0  0  0  0  0  0  0  0  0  0
    0.4375   -0.5361    1.4714 C   0  0  0  0  0  0  0  0  0  0  0  0
    0.1283    2.5836    1.8409 H   0  0  0  0  0  0  0  0  0  0  0  0
   -1.6343    2.5852    1.8462 H   0  0  0  0  0  0  0  0  0  0  0  0
   -0.7559    3.4960    0.6104 H   0  0  0  0  0  0  0  0  0  0  0  0
   -1.6373    1.3728   -0.3540 H   0  0  0  0  0  0  0  0  0  0  0  0
   -2.8929   -0.0849    1.1812 H   0  0  0  0  0  0  0  0  0  0  0  0
   -2.8939   -2.1399    2.5374 H   0  0  0  0  0  0  0  0  0  0  0  0
   -0.7542   -3.1797    3.2182 H   0  0  0  0  0  0  0  0  0  0  0  0
    1.3833   -2.1438    2.5246 H   0  0  0  0  0  0  0  0  0  0  0  0
    1.3779   -0.0888    1.1684 H   0  0  0  0  0  0  0  0  0  0  0  0
  1  2  2  3
  1  5  1  0
  1  6  1  0
  2  3  1  0
  2  7  1  0
  4  9  1  0
  8  9  1  0
  8 16  1  0
  8 17  1  0
  8 18  1  0
  9 10  1  0
  9 19  1  0
 10 11  2  0
 10 15  1  0
 11 12  1  0
 11 20  1  0
 12 13  2  0
 12 21  1  0
 13 14  1  0
 13 22  1  0
 14 15  2  0
 14 23  1  0
 15 24  1  0
M  RAD  1   3   2
M  END
>  <reaction>  (9) 
rxn_1967

>  <mol_properties>  (9) 
{"0": {"label": "*1", "atom_type": "Cs"}, "1": {"label": "*0", "atom_type": "CS"}, "3": {"label": "*2", "atom_type": "H0"}, "8": {"label": "*3", "atom_type": "Cd"}, "9": {"label": "*4", "atom_type": "Cd"}}

>  <type>  (9) 
unop_5

>  <geom_source>  (9) 
Heuristics

$$$$

     RDKit          3D

 24 22  0  0  0  0  0  0  0  0999 V2000
    0.6168   -0.5898   -1.0192 C   0  0  0  0  0  2  0  0  0  0  0  0
    0.6168   -1.7883   -1.9014 C   0  0  0  0  0  3  0  0  0  0  0  0
    0.6168   -1.7883   -3.5080 S   0  0  0  0  0  0  0  0  0  0  0  0
   -0.4345   -0.6221   -0.2329 H   0  0  0  0  0  0  0  0  0  0  0  0
    1.4930   -0.6167   -0.3639 H   0  0  0  0  0  0  0  0  0  0  0  0
    0.6168    0.3340   -1.5938 H   0  0  0  0  0  0  0  0  0  0  0  0
    0.6168   -2.7427   -1.3714 H   0  0  0  0  0  0  0  0  0  0  0  0
   -2.6514    0.0597   -0.1305 C   0  0  0  0  0  0  0  0  0  0  0  0
   -1.4842   -0.6543    0.5521 C   0  0  0  0  0  0  0  0  0  0  0  0
   -0.5536    0.3077    1.2426 C   0  0  0  0  0  0  0  0  0  0  0  0
   -0.7707    0.6855    2.5640 C   0  0  0  0  0  0  0  0  0  0  0  0
    0.0571    1.6057    3.1883 C   0  0  0  0  0  0  0  0  0  0  0  0
    1.1206    2.1659    2.4972 C   0  0  0  0  0  0  0  0  0  0  0  0
    1.3489    1.7976    1.1800 C   0  0  0  0  0  0  0  0  0  0  0  0
    0.5176    0.8768    0.5612 C   0  0  0  0  0  0  0  0  0  0  0  0
   -2.2883    0.7645   -0.8808 H   0  0  0  0  0  0  0  0  0  0  0  0
   -3.2388    0.6233    0.5968 H   0  0  0  0  0  0  0  0  0  0  0  0
   -3.3131   -0.6540   -0.6243 H   0  0  0  0  0  0  0  0  0  0  0  0
   -1.8724   -1.3711    1.2796 H   0  0  0  0  0  0  0  0  0  0  0  0
   -1.5988    0.2493    3.1120 H   0  0  0  0  0  0  0  0  0  0  0  0
   -0.1269    1.8835    4.2188 H   0  0  0  0  0  0  0  0  0  0  0  0
    1.7702    2.8825    2.9835 H   0  0  0  0  0  0  0  0  0  0  0  0
    2.1796    2.2261    0.6331 H   0  0  0  0  0  0  0  0  0  0  0  0
    0.7043    0.5914   -0.4683 H   0  0  0  0  0  0  0  0  0  0  0  0
  1  5  1  0
  1  6  1  0
  2  3  2  0
  2  7  1  0
  4  9  1  0
  8  9  1  0
  8 16  1  0
  8 17  1  0
  8 18  1  0
  9 10  1  0
  9 19  1  0
 10 11  2  0
 10 15  1  0
 11 12  1  0
 11 20  1  0
 12 13  2  0
 12 21  1  0
 13 14  1  0
 13 22  1  0
 14 15  2  0
 14 23  1  0
 15 24  1  0
M  RAD  2   1   3   2   2
M  END
>  <reaction>  (10) 
rxn_1967

>  <mol_properties>  (10) 
{"0": {"label": "*1", "atom_type": "Cs"}, "1": {"label": "*0", "atom_type": "CS"}, "3": {"label": "*2", "atom_type": "H0"}, "8": {"label": "*3", "atom_type": "Cd"}, "9": {"label": "*4", "atom_type": "Cd"}}

>  <type>  (10) 
unop_6

>  <geom_source>  (10) 
Heuristics

$$$$

     RDKit          3D

 24 22  0  0  0  0  0  0  0  0999 V2000
    0.3912   -0.0214   -1.2970 C   0  0  0  0  0  2  0  0  0  0  0  0
    0.3912   -1.2199   -2.1792 C   0  0  0  0  0  3  0  0  0  0  0  0
    0.3912   -1.2199   -3.7859 S   0  0  0  0  0  0  0  0  0  0  0  0
   -0.6601   -0.0537   -0.5107 H   0  0  0  0  0  0  0  0  0  0  0  0
    1.2674   -0.0483   -0.6418 H   0  0  0  0  0  0  0  0  0  0  0  0
    0.3912    0.9024   -1.8717 H   0  0  0  0  0  0  0  0  0  0  0  0
    0.3912   -2.1743   -1.6493 H   0  0  0  0  0  0  0  0  0  0  0  0
   -2.5698    1.1534    0.0240 C   0  0  0  0  0  0  0  0  0  0  0  0
   -1.7098   -0.0859    0.2743 C   0  0  0  0  0  0  0  0  0  0  0  0
   -0.5691    0.1935    1.2172 C   0  0  0  0  0  0  0  0  0  0  0  0
   -0.7301    0.0538    2.5921 C   0  0  0  0  0  0  0  0  0  0  0  0
    0.3036    0.3541    3.4657 C   0  0  0  0  0  0  0  0  0  0  0  0
    1.5210    0.8016    2.9755 C   0  0  0  0  0  0  0  0  0  0  0  0
    1.6952    0.9445    1.6073 C   0  0  0  0  0  0  0  0  0  0  0  0
    0.6577    0.6426    0.7388 C   0  0  0  0  0  0  0  0  0  0  0  0
   -1.9723    1.9578   -0.4090 H   0  0  0  0  0  0  0  0  0  0  0  0
   -2.9962    1.5234    0.9583 H   0  0  0  0  0  0  0  0  0  0  0  0
   -3.3897    0.9302   -0.6608 H   0  0  0  0  0  0  0  0  0  0  0  0
   -2.3335   -0.8841    0.6837 H   0  0  0  0  0  0  0  0  0  0  0  0
   -1.6784   -0.2987    2.9829 H   0  0  0  0  0  0  0  0  0  0  0  0
    0.1591    0.2349    4.5324 H   0  0  0  0  0  0  0  0  0  0  0  0
    2.3306    1.0339    3.6556 H   0  0  0  0  0  0  0  0  0  0  0  0
    2.6437    1.2891    1.2143 H   0  0  0  0  0  0  0  0  0  0  0  0
    0.8025    0.7539   -0.3303 H   0  0  0  0  0  0  0  0  0  0  0  0
  1  5  1  0
  1  6  1  0
  2  3  2  0
  2  7  1  0
  4  9  1  0
  8  9  1  0
  8 16  1  0
  8 17  1  0
  8 18  1  0
  9 10  1  0
  9 19  1  0
 10 11  2  0
 10 15  1  0
 11 12  1  0
 11 20  1  0
 12 13  2  0
 12 21  1  0
 13 14  1  0
 13 22  1  0
 14 15  2  0
 14 23  1  0
 15 24  1  0
M  RAD  2   1   3   2   2
M  END
>  <reaction>  (11) 
rxn_1967

>  <mol_properties>  (11) 
{"0": {"label": "*1", "atom_type": "Cs"}, "1": {"label": "*0", "atom_type": "CS"}, "3": {"label": "*2", "atom_type": "H0"}, "8": {"label": "*3", "atom_type": "Cd"}, "9": {"label": "*4", "atom_type": "Cd"}}

>  <type>  (11) 
unop_7

>  <geom_source>  (11) 
Heuristics

$$$$

     RDKit          3D

 24 23  0  0  0  0  0  0  0  0999 V2000
    2.6611    0.3833   -0.3909 C   0  0  0  0  0  0  0  0  0  0  0  0
    2.6611   -0.8152   -1.2731 C   0  0  0  0  0  0  0  0  0  0  0  0
    2.6611   -0.8152   -2.8798 S   0  0  0  0  0  1  0  0  0  0  0  0
    1.6098    0.3510    0.3954 H   0  0  0  0  0  0  0  0  0  0  0  0
    3.5373    0.3564    0.2643 H   0  0  0  0  0  0  0  0  0  0  0  0
    2.6611    1.3071   -0.9656 H   0  0  0  0  0  0  0  0  0  0  0  0
    2.6611   -1.7696   -0.7432 H   0  0  0  0  0  0  0  0  0  0  0  0
    0.9136   -0.4202    2.4716 C   0  0  0  0  0  0  0  0  0  0  0  0
    0.5601    0.3188    1.1804 C   0  0  0  0  0  0  0  0  0  0  0  0
   -0.9269    0.3853    0.9513 C   0  0  0  0  0  0  0  0  0  0  0  0
   -1.6813    1.4353    1.4653 C   0  0  0  0  0  0  0  0  0  0  0  0
   -3.0566    1.4759    1.2956 C   0  0  0  0  0  0  0  0  0  0  0  0
   -3.7027    0.4614    0.6056 C   0  0  0  0  0  0  0  0  0  0  0  0
   -2.9628   -0.5905    0.0873 C   0  0  0  0  0  0  0  0  0  0  0  0
   -1.5877   -0.6255    0.2603 C   0  0  0  0  0  0  0  0  0  0  0  0
    0.5369   -1.4444    2.4467 H   0  0  0  0  0  0  0  0  0  0  0  0
    0.4679    0.0760    3.3357 H   0  0  0  0  0  0  0  0  0  0  0  0
    1.9944   -0.4573    2.6190 H   0  0  0  0  0  0  0  0  0  0  0  0
    0.9684    1.3315    1.2182 H   0  0  0  0  0  0  0  0  0  0  0  0
   -1.1826    2.2340    2.0035 H   0  0  0  0  0  0  0  0  0  0  0  0
   -3.6250    2.3041    1.7003 H   0  0  0  0  0  0  0  0  0  0  0  0
   -4.7762    0.4925    0.4692 H   0  0  0  0  0  0  0  0  0  0  0  0
   -3.4576   -1.3854   -0.4570 H   0  0  0  0  0  0  0  0  0  0  0  0
   -1.0154   -1.4500   -0.1506 H   0  0  0  0  0  0  0  0  0  0  0  0
  1  2  2  3
  1  5  1  0
  1  6  1  0
  2  3  1  0
  2  7  1  0
  4  9  1  0
  8  9  1  0
  8 16  1  0
  8 17  1  0
  8 18  1  0
  9 10  1  0
  9 19  1  0
 10 11  2  0
 10 15  1  0
 11 12  1  0
 11 20  1  0
 12 13  2  0
 12 21  1  0
 13 14  1  0
 13 22  1  0
 14 15  2  0
 14 23  1  0
 15 24  1  0
M  RAD  1   3   2
M  END
>  <reaction>  (12) 
rxn_1967

>  <mol_properties>  (12) 
{"0": {"label": "*1", "atom_type": "Cs"}, "1": {"label": "*0", "atom_type": "CS"}, "3": {"label": "*2", "atom_type": "H0"}, "8": {"label": "*3", "atom_type": "Cd"}, "9": {"label": "*4", "atom_type": "Cd"}}

>  <type>  (12) 
unop_8

>  <geom_source>  (12) 
Heuristics

$$$$

     RDKit          3D

 24 23  0  0  0  0  0  0  0  0999 V2000
    1.6411   -0.9194   -0.3877 C   0  0  0  0  0  0  0  0  0  0  0  0
    1.6411   -2.1179   -1.2699 C   0  0  0  0  0  0  0  0  0  0  0  0
    1.6411   -2.1179   -2.8766 S   0  0  0  0  0  1  0  0  0  0  0  0
    0.5897   -0.9517    0.3985 H   0  0  0  0  0  0  0  0  0  0  0  0
    2.5172   -0.9463    0.2675 H   0  0  0  0  0  0  0  0  0  0  0  0
    1.6411    0.0044   -0.9624 H   0  0  0  0  0  0  0  0  0  0  0  0
    1.6411   -3.0723   -0.7400 H   0  0  0  0  0  0  0  0  0  0  0  0
   -1.6026   -1.7117    0.4745 C   0  0  0  0  0  0  0  0  0  0  0  0
   -0.4599   -0.9839    1.1836 C   0  0  0  0  0  0  0  0  0  0  0  0
   -0.6516    0.5099    1.1872 C   0  0  0  0  0  0  0  0  0  0  0  0
   -1.3545    1.1360    2.2117 C   0  0  0  0  0  0  0  0  0  0  0  0
   -1.5723    2.5050    2.1947 C   0  0  0  0  0  0  0  0  0  0  0  0
   -1.0881    3.2736    1.1470 C   0  0  0  0  0  0  0  0  0  0  0  0
   -0.3852    2.6624    0.1199 C   0  0  0  0  0  0  0  0  0  0  0  0
   -0.1706    1.2930    0.1426 C   0  0  0  0  0  0  0  0  0  0  0  0
   -1.6830   -1.3862   -0.5643 H   0  0  0  0  0  0  0  0  0  0  0  0
   -2.5564   -1.5019    0.9623 H   0  0  0  0  0  0  0  0  0  0  0  0
   -1.4450   -2.7915    0.4828 H   0  0  0  0  0  0  0  0  0  0  0  0
   -0.3832   -1.3437    2.2123 H   0  0  0  0  0  0  0  0  0  0  0  0
   -1.7336    0.5420    3.0361 H   0  0  0  0  0  0  0  0  0  0  0  0
   -2.1187    2.9736    3.0039 H   0  0  0  0  0  0  0  0  0  0  0  0
   -1.2544    4.3432    1.1331 H   0  0  0  0  0  0  0  0  0  0  0  0
    0.0009    3.2546   -0.7005 H   0  0  0  0  0  0  0  0  0  0  0  0
    0.3828    0.8225   -0.6628 H   0  0  0  0  0  0  0  0  0  0  0  0
  1  2  2  3
  1  5  1  0
  1  6  1  0
  2  3  1  0
  2  7  1  0
  4  9  1  0
  8  9  1  0
  8 16  1  0
  8 17  1  0
  8 18  1  0
  9 10  1  0
  9 19  1  0
 10 11  2  0
 10 15  1  0
 11 12  1  0
 11 20  1  0
 12 13  2  0
 12 21  1  0
 13 14  1  0
 13 22  1  0
 14 15  2  0
 14 23  1  0
 15 24  1  0
M  RAD  1   3   2
M  END
>  <reaction>  (13) 
rxn_1967

>  <mol_properties>  (13) 
{"0": {"label": "*1", "atom_type": "Cs"}, "1": {"label": "*0", "atom_type": "CS"}, "3": {"label": "*2", "atom_type": "H0"}, "8": {"label": "*3", "atom_type": "Cd"}, "9": {"label": "*4", "atom_type": "Cd"}}

>  <type>  (13) 
unop_9

>  <geom_source>  (13) 
Heuristics

$$$$

     RDKit          3D

 24 23  0  0  0  0  0  0  0  0999 V2000
    2.6210    0.0528   -0.3595 C   0  0  0  0  0  0  0  0  0  0  0  0
    2.6210   -1.1457   -1.2417 C   0  0  0  0  0  0  0  0  0  0  0  0
    2.6210   -1.1457   -2.8484 S   0  0  0  0  0  1  0  0  0  0  0  0
    1.5697    0.0205    0.4267 H   0  0  0  0  0  0  0  0  0  0  0  0
    3.4972    0.0259    0.2957 H   0  0  0  0  0  0  0  0  0  0  0  0
    2.6210    0.9766   -0.9342 H   0  0  0  0  0  0  0  0  0  0  0  0
    2.6210   -2.1001   -0.7118 H   0  0  0  0  0  0  0  0  0  0  0  0
    0.5663   -1.2760    2.0706 C   0  0  0  0  0  0  0  0  0  0  0  0
    0.5200   -0.0117    1.2118 C   0  0  0  0  0  0  0  0  0  0  0  0
   -0.8873    0.4802    0.9980 C   0  0  0  0  0  0  0  0  0  0  0  0
   -1.4764    1.3668    1.8939 C   0  0  0  0  0  0  0  0  0  0  0  0
   -2.7870    1.7860    1.7254 C   0  0  0  0  0  0  0  0  0  0  0  0
   -3.5333    1.3224    0.6526 C   0  0  0  0  0  0  0  0  0  0  0  0
   -2.9581    0.4391   -0.2482 C   0  0  0  0  0  0  0  0  0  0  0  0
   -1.6470    0.0236   -0.0744 C   0  0  0  0  0  0  0  0  0  0  0  0
    0.0016   -2.0836    1.6010 H   0  0  0  0  0  0  0  0  0  0  0  0
    0.1275   -1.0925    3.0531 H   0  0  0  0  0  0  0  0  0  0  0  0
    1.5936   -1.6159    2.2134 H   0  0  0  0  0  0  0  0  0  0  0  0
    1.1117    0.7732    1.6888 H   0  0  0  0  0  0  0  0  0  0  0  0
   -0.8980    1.7362    2.7337 H   0  0  0  0  0  0  0  0  0  0  0  0
   -3.2257    2.4796    2.4320 H   0  0  0  0  0  0  0  0  0  0  0  0
   -4.5560    1.6507    0.5173 H   0  0  0  0  0  0  0  0  0  0  0  0
   -3.5313    0.0747   -1.0918 H   0  0  0  0  0  0  0  0  0  0  0  0
   -1.2030   -0.6651   -0.7849 H   0  0  0  0  0  0  0  0  0  0  0  0
  1  2  2  3
  1  5  1  0
  1  6  1  0
  2  3  1  0
  2  7  1  0
  4  9  1  0
  8  9  1  0
  8 16  1  0
  8 17  1  0
  8 18  1  0
  9 10  1  0
  9 19  1  0
 10 11  2  0
 10 15  1  0
 11 12  1  0
 11 20  1  0
 12 13  2  0
 12 21  1  0
 13 14  1  0
 13 22  1  0
 14 15  2  0
 14 23  1  0
 15 24  1  0
M  RAD  1   3   2
M  END
>  <reaction>  (14) 
rxn_1967

>  <mol_properties>  (14) 
{"0": {"label": "*1", "atom_type": "Cs"}, "1": {"label": "*0", "atom_type": "CS"}, "3": {"label": "*2", "atom_type": "H0"}, "8": {"label": "*3", "atom_type": "Cd"}, "9": {"label": "*4", "atom_type": "Cd"}}

>  <type>  (14) 
unop_10

>  <geom_source>  (14) 
Heuristics

$$$$

     RDKit          3D

 24 23  0  0  0  0  0  0  0  0999 V2000
    0.5454    0.7381   -1.4514 C   0  0  0  0  0  0  0  0  0  0  0  0
    0.5454   -0.4604   -2.3336 C   0  0  0  0  0  0  0  0  0  0  0  0
    0.5454   -0.4604   -3.9403 S   0  0  0  0  0  1  0  0  0  0  0  0
   -0.5060    0.7058   -0.6651 H   0  0  0  0  0  0  0  0  0  0  0  0
    1.4216    0.7112   -0.7962 H   0  0  0  0  0  0  0  0  0  0  0  0
    0.5454    1.6619   -2.0261 H   0  0  0  0  0  0  0  0  0  0  0  0
    0.5454   -1.4148   -1.8037 H   0  0  0  0  0  0  0  0  0  0  0  0
   -1.9870    2.1028    0.4506 C   0  0  0  0  0  0  0  0  0  0  0  0
   -1.5556    0.6736    0.1199 C   0  0  0  0  0  0  0  0  0  0  0  0
   -0.6332    0.1012    1.1639 C   0  0  0  0  0  0  0  0  0  0  0  0
   -1.1399   -0.5728    2.2705 C   0  0  0  0  0  0  0  0  0  0  0  0
   -0.2965   -1.0609    3.2566 C   0  0  0  0  0  0  0  0  0  0  0  0
    1.0744   -0.8814    3.1509 C   0  0  0  0  0  0  0  0  0  0  0  0
    1.5928   -0.2122    2.0527 C   0  0  0  0  0  0  0  0  0  0  0  0
    0.7442    0.2736    1.0700 C   0  0  0  0  0  0  0  0  0  0  0  0
   -1.1197    2.7618    0.5225 H   0  0  0  0  0  0  0  0  0  0  0  0
   -2.5097    2.1373    1.4082 H   0  0  0  0  0  0  0  0  0  0  0  0
   -2.6540    2.4988   -0.3171 H   0  0  0  0  0  0  0  0  0  0  0  0
   -2.4404    0.0391    0.0285 H   0  0  0  0  0  0  0  0  0  0  0  0
   -2.2109   -0.7198    2.3586 H   0  0  0  0  0  0  0  0  0  0  0  0
   -0.7108   -1.5862    4.1082 H   0  0  0  0  0  0  0  0  0  0  0  0
    1.7353   -1.2643    3.9182 H   0  0  0  0  0  0  0  0  0  0  0  0
    2.6624   -0.0708    1.9588 H   0  0  0  0  0  0  0  0  0  0  0  0
    1.1573    0.7933    0.2124 H   0  0  0  0  0  0  0  0  0  0  0  0
  1  2  2  3
  1  5  1  0
  1  6  1  0
  2  3  1  0
  2  7  1  0
  4  9  1  0
  8  9  1  0
  8 16  1  0
  8 17  1  0
  8 18  1  0
  9 10  1  0
  9 19  1  0
 10 11  2  0
 10 15  1  0
 11 12  1  0
 11 20  1  0
 12 13  2  0
 12 21  1  0
 13 14  1  0
 13 22  1  0
 14 15  2  0
 14 23  1  0
 15 24  1  0
M  RAD  1   3   2
M  END
>  <reaction>  (15) 
rxn_1967

>  <mol_properties>  (15) 
{"0": {"label": "*1", "atom_type": "Cs"}, "1": {"label": "*0", "atom_type": "CS"}, "3": {"label": "*2", "atom_type": "H0"}, "8": {"label": "*3", "atom_type": "Cd"}, "9": {"label": "*4", "atom_type": "Cd"}}

>  <type>  (15) 
unop_11

>  <geom_source>  (15) 
Heuristics

$$$$

     RDKit          3D

 24 23  0  0  0  0  0  0  0  0999 V2000
    2.1658   -0.6470   -0.2595 C   0  0  0  0  0  0  0  0  0  0  0  0
    2.1658   -1.8455   -1.1417 C   0  0  0  0  0  0  0  0  0  0  0  0
    2.1658   -1.8455   -2.7484 S   0  0  0  0  0  1  0  0  0  0  0  0
    1.1145   -0.6793    0.5268 H   0  0  0  0  0  0  0  0  0  0  0  0
    3.0420   -0.6739    0.3957 H   0  0  0  0  0  0  0  0  0  0  0  0
    2.1658    0.2768   -0.8342 H   0  0  0  0  0  0  0  0  0  0  0  0
    2.1658   -2.7999   -0.6118 H   0  0  0  0  0  0  0  0  0  0  0  0
   -0.7527   -1.9693    1.0158 C   0  0  0  0  0  0  0  0  0  0  0  0
    0.0648   -0.7115    1.3118 C   0  0  0  0  0  0  0  0  0  0  0  0
   -0.7401    0.5477    1.1256 C   0  0  0  0  0  0  0  0  0  0  0  0
   -1.4800    1.0827    2.1754 C   0  0  0  0  0  0  0  0  0  0  0  0
   -2.2583    2.2157    1.9952 C   0  0  0  0  0  0  0  0  0  0  0  0
   -2.3095    2.8346    0.7555 C   0  0  0  0  0  0  0  0  0  0  0  0
   -1.5764    2.3124   -0.2992 C   0  0  0  0  0  0  0  0  0  0  0  0
   -0.7999    1.1791   -0.1128 C   0  0  0  0  0  0  0  0  0  0  0  0
   -1.1185   -1.9598   -0.0127 H   0  0  0  0  0  0  0  0  0  0  0  0
   -1.6203   -2.0310    1.6755 H   0  0  0  0  0  0  0  0  0  0  0  0
   -0.1522   -2.8697    1.1563 H   0  0  0  0  0  0  0  0  0  0  0  0
    0.4404   -0.7554    2.3368 H   0  0  0  0  0  0  0  0  0  0  0  0
   -1.4425    0.6060    3.1488 H   0  0  0  0  0  0  0  0  0  0  0  0
   -2.8238    2.6185    2.8264 H   0  0  0  0  0  0  0  0  0  0  0  0
   -2.9143    3.7212    0.6131 H   0  0  0  0  0  0  0  0  0  0  0  0
   -1.6062    2.7911   -1.2702 H   0  0  0  0  0  0  0  0  0  0  0  0
   -0.2268    0.7783   -0.9417 H   0  0  0  0  0  0  0  0  0  0  0  0
  1  2  2  3
  1  5  1  0
  1  6  1  0
  2  3  1  0
  2  7  1  0
  4  9  1  0
  8  9  1  0
  8 16  1  0
  8 17  1  0
  8 18  1  0
  9 10  1  0
  9 19  1  0
 10 11  2  0
 10 15  1  0
 11 12  1  0
 11 20  1  0
 12 13  2  0
 12 21  1  0
 13 14  1  0
 13 22  1  0
 14 15  2  0
 14 23  1  0
 15 24  1  0
M  RAD  1   3   2
M  END
>  <reaction>  (16) 
rxn_1967

>  <mol_properties>  (16) 
{"0": {"label": "*1", "atom_type": "Cs"}, "1": {"label": "*0", "atom_type": "CS"}, "3": {"label": "*2", "atom_type": "H0"}, "8": {"label": "*3", "atom_type": "Cd"}, "9": {"label": "*4", "atom_type": "Cd"}}

>  <type>  (16) 
unop_12

>  <geom_source>  (16) 
Heuristics

$$$$

     RDKit          3D

 24 23  0  0  0  0  0  0  0  0999 V2000
   -4.5243   -0.2652    0.2717 S   0  0  0  0  0  0  0  0  0  0  0  0
   -0.7055   -0.3149   -0.6289 C   0  0  0  0  0  0  0  0  0  0  0  0
   -0.8294   -1.7570   -1.1056 C   0  0  0  0  0  0  0  0  0  0  0  0
    0.7197    0.0116   -0.2793 C   0  0  0  0  0  0  0  0  0  0  0  0
    1.6039    0.4809   -1.2651 C   0  0  0  0  0  3  0  0  0  0  0  0
    1.1916   -0.1993    1.0262 C   0  0  0  0  0  0  0  0  0  0  0  0
    2.9364    0.7558   -0.9417 C   0  0  0  0  0  0  0  0  0  0  0  0
    3.3961    0.5557    0.3630 C   0  0  0  0  0  0  0  0  0  0  0  0
    2.5249    0.0768    1.3455 C   0  0  0  0  0  0  0  0  0  0  0  0
   -2.3286    0.5570    1.2434 C   0  0  0  0  0  0  0  0  0  0  0  0
   -3.5605    0.7849    0.4309 C   0  0  0  0  0  0  0  0  0  0  0  0
   -1.0711    0.3695   -1.4252 H   0  0  0  0  0  0  0  0  0  0  0  0
   -1.5239   -0.1338    0.4895 H   0  0  0  0  0  0  0  0  0  0  0  0
   -1.8899   -1.9744   -1.3509 H   0  0  0  0  0  0  0  0  0  0  0  0
   -0.2113   -1.9185   -2.0146 H   0  0  0  0  0  0  0  0  0  0  0  0
   -0.4995   -2.4543   -0.3064 H   0  0  0  0  0  0  0  0  0  0  0  0
    1.2616    0.6323   -2.2814 H   0  0  0  0  0  0  0  0  0  0  0  0
    3.6134    1.1210   -1.7032 H   0  0  0  0  0  0  0  0  0  0  0  0
    0.5295   -0.5786    1.7946 H   0  0  0  0  0  0  0  0  0  0  0  0
    4.4280    0.7677    0.6116 H   0  0  0  0  0  0  0  0  0  0  0  0
    2.8836   -0.0838    2.3540 H   0  0  0  0  0  0  0  0  0  0  0  0
   -2.5952    0.4115    2.3120 H   0  0  0  0  0  0  0  0  0  0  0  0
   -1.6502    1.4311    1.1548 H   0  0  0  0  0  0  0  0  0  0  0  0
   -3.6992    1.7241   -0.0947 H   0  0  0  0  0  0  0  0  0  0  0  0
  1 11  2  0
  2  3  1  0
  2  4  2  3
  2 12  1  0
  3 14  1  0
  3 15  1  0
  3 16  1  0
  4  5  1  0
  4  6  1  0
  5  7  1  0
  5 17  1  0
  6  9  2  0
  6 19  1  0
  7  8  2  0
  7 18  1  0
  8  9  1  0
  8 20  1  0
  9 21  1  0
 10 11  1  0
 10 13  1  0
 10 22  1  0
 10 23  1  0
 11 24  1  0
M  RAD  1   5   2
M  END
>  <reaction>  (17) 
rxn_1967

>  <mol_properties>  (17) 
{"0": {"label": "*1", "atom_type": "Cs"}, "1": {"label": "*0", "atom_type": "CS"}, "3": {"label": "*2", "atom_type": "H0"}, "8": {"label": "*3", "atom_type": "Cd"}, "9": {"label": "*4", "atom_type": "Cd"}}

>  <type>  (17) 
unop_13

>  <geom_source>  (17) 
AutoTST

$$$$
