
     RDKit          3D

  9  8  0  0  0  0  0  0  0  0999 V2000
    1.1303   -0.2933   -0.7510 C   0  0  0  0  0  0  0  0  0  0  0  0
    0.2866    0.4560   -0.0588 C   0  0  0  0  0  0  0  0  0  0  0  0
   -0.9719   -0.0331    0.5823 C   0  0  0  0  0  0  0  0  0  0  0  0
    2.0274    0.1230   -1.1916 H   0  0  0  0  0  0  0  0  0  0  0  0
    0.9532   -1.3530   -0.9023 H   0  0  0  0  0  0  0  0  0  0  0  0
    0.5065    1.5132    0.0659 H   0  0  0  0  0  0  0  0  0  0  0  0
   -0.9526    0.1426    1.6610 H   0  0  0  0  0  0  0  0  0  0  0  0
   -1.1182   -1.1002    0.4106 H   0  0  0  0  0  0  0  0  0  0  0  0
   -1.8412    0.5010    0.1901 H   0  0  0  0  0  0  0  0  0  0  0  0
  1  2  2  3
  1  4  1  0
  1  5  1  0
  2  3  1  0
  2  6  1  0
  3  7  1  0
  3  8  1  0
  3  9  1  0
M  END
>  <reaction>  (1) 
rxn_1633

>  <mol_properties>  (1) 
{"1": {"label": "donator", "atom_type": "Cd"}, "5": {"label": "d_hydrogen", "atom_type": "H0"}}

>  <type>  (1) 
r1h

$$$$

     RDKit          3D

 12 11  0  0  0  0  0  0  0  0999 V2000
   -0.9951    0.1196   -0.8321 C   0  0  0  0  0  0  0  0  0  0  0  0
   -0.3760    0.2571    0.5231 C   0  0  0  0  0  3  0  0  0  0  0  0
    0.9330   -0.1537    0.7810 C   0  0  0  0  0  0  0  0  0  0  0  0
    1.5987   -0.1880    1.9734 C   0  0  0  0  0  0  0  0  0  0  0  0
   -1.4483    0.9449    1.7152 S   0  0  0  0  0  0  0  0  0  0  0  0
   -1.9164   -0.4696   -0.7936 H   0  0  0  0  0  0  0  0  0  0  0  0
   -1.2565    1.0958   -1.2506 H   0  0  0  0  0  0  0  0  0  0  0  0
   -0.3088   -0.3780   -1.5170 H   0  0  0  0  0  0  0  0  0  0  0  0
    1.4783   -0.4898   -0.0971 H   0  0  0  0  0  0  0  0  0  0  0  0
    2.6278   -0.5153    2.0142 H   0  0  0  0  0  0  0  0  0  0  0  0
    1.1316    0.0690    2.9151 H   0  0  0  0  0  0  0  0  0  0  0  0
   -0.5306    1.3052    2.6211 H   0  0  0  0  0  0  0  0  0  0  0  0
  1  2  1  0
  1  6  1  0
  1  7  1  0
  1  8  1  0
  2  3  1  0
  2  5  1  0
  3  4  2  3
  3  9  1  0
  4 10  1  0
  4 11  1  0
  5 12  1  0
M  RAD  1   2   2
M  END
>  <reaction>  (2) 
rxn_1633

>  <mol_properties>  (2) 
{"1": {"label": "acceptor", "atom_type": "Cs"}}

>  <type>  (2) 
r2

$$$$

     RDKit          3D

 13 12  0  0  0  0  0  0  0  0999 V2000
   -1.1828    0.8269   -0.1645 C   0  0  0  0  0  0  0  0  0  0  0  0
   -0.4827   -0.4584   -0.5736 C   0  0  1  0  0  0  0  0  0  0  0  0
   -0.9759   -1.7030    0.1030 C   0  0  0  0  0  0  0  0  0  0  0  0
   -2.0084   -1.7831    0.9287 C   0  0  0  0  0  0  0  0  0  0  0  0
   -0.4908   -0.7025   -2.3913 S   0  0  0  0  0  0  0  0  0  0  0  0
   -1.0941    0.9860    0.9125 H   0  0  0  0  0  0  0  0  0  0  0  0
   -0.7405    1.6784   -0.6793 H   0  0  0  0  0  0  0  0  0  0  0  0
   -2.2437    0.7943   -0.4195 H   0  0  0  0  0  0  0  0  0  0  0  0
    0.5870   -0.3637   -0.3637 H   0  0  0  0  0  0  0  0  0  0  0  0
   -0.4209   -2.6026   -0.1443 H   0  0  0  0  0  0  0  0  0  0  0  0
   -2.2982   -2.7315    1.3623 H   0  0  0  0  0  0  0  0  0  0  0  0
   -2.5999   -0.9190    1.2055 H   0  0  0  0  0  0  0  0  0  0  0  0
   -1.8040   -0.9489   -2.4971 H   0  0  0  0  0  0  0  0  0  0  0  0
  1  2  1  0
  1  6  1  0
  1  7  1  0
  1  8  1  0
  2  3  1  0
  2  5  1  0
  2  9  1  1
  3  4  2  3
  3 10  1  0
  4 11  1  0
  4 12  1  0
  5 13  1  0
M  END
>  <reaction>  (3) 
rxn_1633

>  <mol_properties>  (3) 
{"1": {"label": "acceptor", "atom_type": "Cs"}, "12": {"label": "a_hydrogen", "atom_type": "H0"}}

>  <type>  (3) 
r2h

$$$$

     RDKit          3D

 21 19  0  0  0  0  0  0  0  0999 V2000
    1.4752   -1.2097    0.1465 C   0  0  0  0  0  0  0  0  0  0  0  0
    0.1340   -0.6447    0.5538 C   0  0  1  0  0  0  0  0  0  0  0  0
   -1.0537   -1.4941    0.3294 C   0  0  0  0  0  0  0  0  0  0  0  0
   -1.0586   -2.6865   -0.2601 C   0  0  0  0  0  0  0  0  0  0  0  0
    0.1247    0.1613    2.1757 S   0  0  0  0  0  0  0  0  0  0  0  0
    1.7284   -2.0932    0.7393 H   0  0  0  0  0  0  0  0  0  0  0  0
    1.4656   -1.4955   -0.9077 H   0  0  0  0  0  0  0  0  0  0  0  0
    2.2595   -0.4683    0.2937 H   0  0  0  0  0  0  0  0  0  0  0  0
   -1.9911   -1.0694    0.6747 H   0  0  0  0  0  0  0  0  0  0  0  0
   -1.9835   -3.2313   -0.3987 H   0  0  0  0  0  0  0  0  0  0  0  0
   -0.1525   -3.1614   -0.6156 H   0  0  0  0  0  0  0  0  0  0  0  0
    0.2220   -0.9524    2.9183 H   0  0  0  0  0  0  0  0  0  0  0  0
   -0.9160    1.0804   -2.1683 C   0  0  0  0  0  0  0  0  0  0  0  0
   -0.1788    1.4393   -1.1454 C   0  0  0  0  0  3  0  0  0  0  0  0
    0.5283    2.6809   -0.7711 C   0  0  0  0  0  0  0  0  0  0  0  0
   -1.3481    0.0869   -2.2331 H   0  0  0  0  0  0  0  0  0  0  0  0
   -1.1244    1.7654   -2.9893 H   0  0  0  0  0  0  0  0  0  0  0  0
   -0.0331    0.3551   -0.1831 H   0  0  0  0  0  0  0  0  0  0  0  0
    0.1566    3.0679    0.1800 H   0  0  0  0  0  0  0  0  0  0  0  0
    0.3938    3.4531   -1.5356 H   0  0  0  0  0  0  0  0  0  0  0  0
    1.5983    2.4983   -0.6503 H   0  0  0  0  0  0  0  0  0  0  0  0
  1  2  1  0
  1  6  1  0
  1  7  1  0
  1  8  1  0
  2  3  1  0
  2  5  1  0
  2 18  1  6
  3  4  2  3
  3  9  1  0
  4 10  1  0
  4 11  1  0
  5 12  1  0
 13 14  2  3
 13 16  1  0
 13 17  1  0
 14 15  1  0
 15 19  1  0
 15 20  1  0
 15 21  1  0
M  RAD  1  14   2
M  END
>  <reaction>  (4) 
rxn_1633

>  <mol_properties>  (4) 
{"1": {"label": "*1", "atom_type": "Cs"}, "4": {"label": "*0", "atom_type": "S2s"}, "12": {"label": "*4", "atom_type": "Cd"}, "13": {"label": "*3", "atom_type": "Cd"}, "17": {"label": "*2", "atom_type": "H0"}}

>  <type>  (4) 
ts

$$$$

     RDKit          3D

 21 19  0  0  0  0  0  0  0  0999 V2000
    1.5165   -0.8456    1.0464 C   0  0  0  0  0  0  0  0  0  0  0  0
    0.2721   -0.7579    0.1785 C   0  0  0  0  0  3  0  0  0  0  0  0
   -0.3856   -2.0685   -0.1375 C   0  0  0  0  0  0  0  0  0  0  0  0
   -0.0373   -3.2509    0.3471 C   0  0  0  0  0  0  0  0  0  0  0  0
   -0.9703    0.4034    0.8653 S   0  0  0  0  0  0  0  0  0  0  0  0
    1.2822   -1.2630    2.0274 H   0  0  0  0  0  0  0  0  0  0  0  0
    2.2692   -1.4811    0.5746 H   0  0  0  0  0  0  0  0  0  0  0  0
    1.9427    0.1450    1.1969 H   0  0  0  0  0  0  0  0  0  0  0  0
   -1.2304   -1.9989   -0.8156 H   0  0  0  0  0  0  0  0  0  0  0  0
   -0.5805   -4.1449    0.0692 H   0  0  0  0  0  0  0  0  0  0  0  0
    0.7933   -3.3774    1.0307 H   0  0  0  0  0  0  0  0  0  0  0  0
   -1.3083   -0.3542    1.9180 H   0  0  0  0  0  0  0  0  0  0  0  0
    0.2721    1.5360   -2.4059 C   0  0  0  0  0  0  0  0  0  0  0  0
    0.2721    1.5360   -1.0822 C   0  0  0  0  0  0  0  0  0  0  0  0
    0.2721    2.7582   -0.2216 C   0  0  0  0  0  0  0  0  0  0  0  0
    0.2721    0.6133   -2.9724 H   0  0  0  0  0  0  0  0  0  0  0  0
    0.2721    2.4616   -2.9719 H   0  0  0  0  0  0  0  0  0  0  0  0
    0.2721    0.3929   -0.4539 H   0  0  0  0  0  0  0  0  0  0  0  0
   -0.6056    2.7753    0.4296 H   0  0  0  0  0  0  0  0  0  0  0  0
    0.2721    3.6686   -0.8222 H   0  0  0  0  0  0  0  0  0  0  0  0
    1.1498    2.7753    0.4296 H   0  0  0  0  0  0  0  0  0  0  0  0
  1  2  1  0
  1  6  1  0
  1  7  1  0
  1  8  1  0
  2  3  1  0
  2  5  1  0
  3  4  2  3
  3  9  1  0
  4 10  1  0
  4 11  1  0
  5 12  1  0
 13 14  2  3
 13 16  1  0
 13 17  1  0
 14 15  1  0
 14 18  1  0
 15 19  1  0
 15 20  1  0
 15 21  1  0
M  RAD  1   2   2
M  END
>  <reaction>  (5) 
rxn_1633

>  <mol_properties>  (5) 
{"1": {"label": "*1", "atom_type": "Cs"}, "4": {"label": "*0", "atom_type": "S2s"}, "12": {"label": "*4", "atom_type": "Cd"}, "13": {"label": "*3", "atom_type": "Cd"}, "17": {"label": "*2", "atom_type": "H0"}}

>  <type>  (5) 
unop_1

>  <geom_source>  (5) 
Heuristics

$$$$

     RDKit          3D

 21 19  0  0  0  0  0  0  0  0999 V2000
    0.6559   -1.7499   -0.7642 C   0  0  0  0  0  0  0  0  0  0  0  0
   -0.0625   -0.7170    0.0880 C   0  0  0  0  0  3  0  0  0  0  0  0
   -1.2943   -1.2065    0.7903 C   0  0  0  0  0  0  0  0  0  0  0  0
   -1.7365   -2.4549    0.8070 C   0  0  0  0  0  0  0  0  0  0  0  0
    1.0592    0.0818    1.2995 S   0  0  0  0  0  0  0  0  0  0  0  0
    1.0161   -2.5803   -0.1540 H   0  0  0  0  0  0  0  0  0  0  0  0
   -0.0149   -2.1513   -1.5272 H   0  0  0  0  0  0  0  0  0  0  0  0
    1.5153   -1.3000   -1.2587 H   0  0  0  0  0  0  0  0  0  0  0  0
   -1.8371   -0.4420    1.3375 H   0  0  0  0  0  0  0  0  0  0  0  0
   -2.6335   -2.7172    1.3529 H   0  0  0  0  0  0  0  0  0  0  0  0
   -1.2318   -3.2575    0.2833 H   0  0  0  0  0  0  0  0  0  0  0  0
    1.2164   -0.9954    2.0813 H   0  0  0  0  0  0  0  0  0  0  0  0
   -0.0625    1.5770   -2.4964 C   0  0  0  0  0  0  0  0  0  0  0  0
   -0.0625    1.5770   -1.1726 C   0  0  0  0  0  0  0  0  0  0  0  0
   -0.0625    2.7991   -0.3121 C   0  0  0  0  0  0  0  0  0  0  0  0
   -0.0625    0.6542   -3.0629 H   0  0  0  0  0  0  0  0  0  0  0  0
   -0.0625    2.5026   -3.0624 H   0  0  0  0  0  0  0  0  0  0  0  0
   -0.0625    0.4338   -0.5444 H   0  0  0  0  0  0  0  0  0  0  0  0
   -0.9403    2.8163    0.3391 H   0  0  0  0  0  0  0  0  0  0  0  0
   -0.0625    3.7096   -0.9127 H   0  0  0  0  0  0  0  0  0  0  0  0
    0.8152    2.8163    0.3391 H   0  0  0  0  0  0  0  0  0  0  0  0
  1  2  1  0
  1  6  1  0
  1  7  1  0
  1  8  1  0
  2  3  1  0
  2  5  1  0
  3  4  2  3
  3  9  1  0
  4 10  1  0
  4 11  1  0
  5 12  1  0
 13 14  2  3
 13 16  1  0
 13 17  1  0
 14 15  1  0
 14 18  1  0
 15 19  1  0
 15 20  1  0
 15 21  1  0
M  RAD  1   2   2
M  END
>  <reaction>  (6) 
rxn_1633

>  <mol_properties>  (6) 
{"1": {"label": "*1", "atom_type": "Cs"}, "4": {"label": "*0", "atom_type": "S2s"}, "12": {"label": "*4", "atom_type": "Cd"}, "13": {"label": "*3", "atom_type": "Cd"}, "17": {"label": "*2", "atom_type": "H0"}}

>  <type>  (6) 
unop_2

>  <geom_source>  (6) 
Heuristics

$$$$

     RDKit          3D

 21 19  0  0  0  0  0  0  0  0999 V2000
    0.9991   -0.4515    1.6632 C   0  0  0  0  0  0  0  0  0  0  0  0
    0.2807   -0.6171    0.3343 C   0  0  0  0  0  3  0  0  0  0  0  0
    0.3913   -1.9757   -0.2919 C   0  0  0  0  0  0  0  0  0  0  0  0
    0.9632   -3.0393    0.2520 C   0  0  0  0  0  0  0  0  0  0  0  0
   -1.4844   -0.1292    0.4363 S   0  0  0  0  0  0  0  0  0  0  0  0
    0.5856   -1.1216    2.4191 H   0  0  0  0  0  0  0  0  0  0  0  0
    2.0632   -0.6731    1.5541 H   0  0  0  0  0  0  0  0  0  0  0  0
    0.8920    0.5696    2.0259 H   0  0  0  0  0  0  0  0  0  0  0  0
   -0.0654   -2.0601   -1.2731 H   0  0  0  0  0  0  0  0  0  0  0  0
    0.9854   -3.9854   -0.2731 H   0  0  0  0  0  0  0  0  0  0  0  0
    1.4289   -3.0129    1.2296 H   0  0  0  0  0  0  0  0  0  0  0  0
   -1.8748   -1.1614    1.1971 H   0  0  0  0  0  0  0  0  0  0  0  0
    0.2807    1.6768   -2.2501 C   0  0  0  0  0  0  0  0  0  0  0  0
    0.2807    1.6768   -0.9263 C   0  0  0  0  0  0  0  0  0  0  0  0
    0.2807    2.8990   -0.0658 C   0  0  0  0  0  0  0  0  0  0  0  0
    0.2807    0.7541   -2.8166 H   0  0  0  0  0  0  0  0  0  0  0  0
    0.2807    2.6024   -2.8161 H   0  0  0  0  0  0  0  0  0  0  0  0
    0.2807    0.5336   -0.2981 H   0  0  0  0  0  0  0  0  0  0  0  0
   -0.5970    2.9161    0.5854 H   0  0  0  0  0  0  0  0  0  0  0  0
    0.2807    3.8094   -0.6664 H   0  0  0  0  0  0  0  0  0  0  0  0
    1.1584    2.9161    0.5854 H   0  0  0  0  0  0  0  0  0  0  0  0
  1  2  1  0
  1  6  1  0
  1  7  1  0
  1  8  1  0
  2  3  1  0
  2  5  1  0
  3  4  2  3
  3  9  1  0
  4 10  1  0
  4 11  1  0
  5 12  1  0
 13 14  2  3
 13 16  1  0
 13 17  1  0
 14 15  1  0
 14 18  1  0
 15 19  1  0
 15 20  1  0
 15 21  1  0
M  RAD  1   2   2
M  END
>  <reaction>  (7) 
rxn_1633

>  <mol_properties>  (7) 
{"1": {"label": "*1", "atom_type": "Cs"}, "4": {"label": "*0", "atom_type": "S2s"}, "12": {"label": "*4", "atom_type": "Cd"}, "13": {"label": "*3", "atom_type": "Cd"}, "17": {"label": "*2", "atom_type": "H0"}}

>  <type>  (7) 
unop_3

>  <geom_source>  (7) 
Heuristics

$$$$

     RDKit          3D

 21 19  0  0  0  0  0  0  0  0999 V2000
   -1.3124   -1.4920   -0.3001 C   0  0  0  0  0  0  0  0  0  0  0  0
   -0.0681   -0.7124    0.0912 C   0  0  0  0  0  3  0  0  0  0  0  0
   -0.2198    0.1857    1.2831 C   0  0  0  0  0  0  0  0  0  0  0  0
   -1.2895    0.2753    2.0590 C   0  0  0  0  0  0  0  0  0  0  0  0
    1.3873   -1.8037    0.3252 S   0  0  0  0  0  0  0  0  0  0  0  0
   -1.6189   -2.1691    0.4994 H   0  0  0  0  0  0  0  0  0  0  0  0
   -2.1411   -0.8119   -0.5095 H   0  0  0  0  0  0  0  0  0  0  0  0
   -1.1197   -2.0895   -1.1898 H   0  0  0  0  0  0  0  0  0  0  0  0
    0.6536    0.7896    1.5086 H   0  0  0  0  0  0  0  0  0  0  0  0
   -1.3031    0.9469    2.9076 H   0  0  0  0  0  0  0  0  0  0  0  0
   -2.1855   -0.3073    1.8833 H   0  0  0  0  0  0  0  0  0  0  0  0
    0.9497   -2.3872    1.4497 H   0  0  0  0  0  0  0  0  0  0  0  0
   -0.0681    1.5816   -2.4932 C   0  0  0  0  0  0  0  0  0  0  0  0
   -0.0681    1.5816   -1.1694 C   0  0  0  0  0  0  0  0  0  0  0  0
   -0.0681    2.8038   -0.3089 C   0  0  0  0  0  0  0  0  0  0  0  0
   -0.0681    0.6589   -3.0597 H   0  0  0  0  0  0  0  0  0  0  0  0
   -0.0681    2.5072   -3.0592 H   0  0  0  0  0  0  0  0  0  0  0  0
   -0.0681    0.4384   -0.5412 H   0  0  0  0  0  0  0  0  0  0  0  0
   -0.9458    2.8209    0.3423 H   0  0  0  0  0  0  0  0  0  0  0  0
   -0.0681    3.7142   -0.9095 H   0  0  0  0  0  0  0  0  0  0  0  0
    0.8097    2.8209    0.3423 H   0  0  0  0  0  0  0  0  0  0  0  0
  1  2  1  0
  1  6  1  0
  1  7  1  0
  1  8  1  0
  2  3  1  0
  2  5  1  0
  3  4  2  3
  3  9  1  0
  4 10  1  0
  4 11  1  0
  5 12  1  0
 13 14  2  3
 13 16  1  0
 13 17  1  0
 14 15  1  0
 14 18  1  0
 15 19  1  0
 15 20  1  0
 15 21  1  0
M  RAD  1   2   2
M  END
>  <reaction>  (8) 
rxn_1633

>  <mol_properties>  (8) 
{"1": {"label": "*1", "atom_type": "Cs"}, "4": {"label": "*0", "atom_type": "S2s"}, "12": {"label": "*4", "atom_type": "Cd"}, "13": {"label": "*3", "atom_type": "Cd"}, "17": {"label": "*2", "atom_type": "H0"}}

>  <type>  (8) 
unop_4

>  <geom_source>  (8) 
Heuristics

$$$$

     RDKit          3D

 21 19  0  0  0  0  0  0  0  0999 V2000
    0.0505   -0.2253    1.9401 C   0  0  0  0  0  0  0  0  0  0  0  0
    0.0505   -0.4836    0.4425 C   0  0  0  0  0  3  0  0  0  0  0  0
    1.2058   -1.2908   -0.0711 C   0  0  0  0  0  0  0  0  0  0  0  0
    2.1442   -1.8640    0.6672 C   0  0  0  0  0  0  0  0  0  0  0  0
   -1.5238   -1.2297   -0.1311 S   0  0  0  0  0  0  0  0  0  0  0  0
   -0.0152   -1.1602    2.4996 H   0  0  0  0  0  0  0  0  0  0  0  0
    0.9656    0.2901    2.2404 H   0  0  0  0  0  0  0  0  0  0  0  0
   -0.8029    0.3917    2.2170 H   0  0  0  0  0  0  0  0  0  0  0  0
    1.2320   -1.4075   -1.1501 H   0  0  0  0  0  0  0  0  0  0  0  0
    2.9367   -2.4393    0.2064 H   0  0  0  0  0  0  0  0  0  0  0  0
    2.1635   -1.7845    1.7472 H   0  0  0  0  0  0  0  0  0  0  0  0
   -1.3362   -2.4236    0.4485 H   0  0  0  0  0  0  0  0  0  0  0  0
    0.0505    1.8103   -2.1419 C   0  0  0  0  0  0  0  0  0  0  0  0
    0.0505    1.8103   -0.8181 C   0  0  0  0  0  0  0  0  0  0  0  0
    0.0505    3.0325    0.0424 C   0  0  0  0  0  0  0  0  0  0  0  0
    0.0505    0.8876   -2.7084 H   0  0  0  0  0  0  0  0  0  0  0  0
    0.0505    2.7359   -2.7079 H   0  0  0  0  0  0  0  0  0  0  0  0
    0.0505    0.6671   -0.1899 H   0  0  0  0  0  0  0  0  0  0  0  0
   -0.8272    3.0496    0.6936 H   0  0  0  0  0  0  0  0  0  0  0  0
    0.0505    3.9429   -0.5582 H   0  0  0  0  0  0  0  0  0  0  0  0
    0.9282    3.0496    0.6936 H   0  0  0  0  0  0  0  0  0  0  0  0
  1  2  1  0
  1  6  1  0
  1  7  1  0
  1  8  1  0
  2  3  1  0
  2  5  1  0
  3  4  2  3
  3  9  1  0
  4 10  1  0
  4 11  1  0
  5 12  1  0
 13 14  2  3
 13 16  1  0
 13 17  1  0
 14 15  1  0
 14 18  1  0
 15 19  1  0
 15 20  1  0
 15 21  1  0
M  RAD  1   2   2
M  END
>  <reaction>  (9) 
rxn_1633

>  <mol_properties>  (9) 
{"1": {"label": "*1", "atom_type": "Cs"}, "4": {"label": "*0", "atom_type": "S2s"}, "12": {"label": "*4", "atom_type": "Cd"}, "13": {"label": "*3", "atom_type": "Cd"}, "17": {"label": "*2", "atom_type": "H0"}}

>  <type>  (9) 
unop_5

>  <geom_source>  (9) 
Heuristics

$$$$

     RDKit          3D

 21 19  0  0  0  0  0  0  0  0999 V2000
   -1.6041   -1.1559    0.3583 C   0  0  0  0  0  0  0  0  0  0  0  0
   -0.1673   -0.7222    0.1200 C   0  0  0  0  0  3  0  0  0  0  0  0
    0.3846    0.2522    1.1180 C   0  0  0  0  0  0  0  0  0  0  0  0
   -0.2278    0.6751    2.2136 C   0  0  0  0  0  0  0  0  0  0  0  0
    0.9703   -2.1523   -0.0366 S   0  0  0  0  0  0  0  0  0  0  0  0
   -1.7041   -1.6756    1.3130 H   0  0  0  0  0  0  0  0  0  0  0  0
   -2.2696   -0.2896    0.3685 H   0  0  0  0  0  0  0  0  0  0  0  0
   -1.9293   -1.8348   -0.4284 H   0  0  0  0  0  0  0  0  0  0  0  0
    1.3860    0.6082    0.8967 H   0  0  0  0  0  0  0  0  0  0  0  0
    0.2561    1.3742    2.8835 H   0  0  0  0  0  0  0  0  0  0  0  0
   -1.2241    0.3488    2.4855 H   0  0  0  0  0  0  0  0  0  0  0  0
    0.9073   -2.5272    1.2487 H   0  0  0  0  0  0  0  0  0  0  0  0
   -0.1673    1.5717   -2.4644 C   0  0  0  0  0  0  0  0  0  0  0  0
   -0.1673    1.5717   -1.1406 C   0  0  0  0  0  0  0  0  0  0  0  0
   -0.1673    2.7939   -0.2801 C   0  0  0  0  0  0  0  0  0  0  0  0
   -0.1673    0.6490   -3.0309 H   0  0  0  0  0  0  0  0  0  0  0  0
   -0.1673    2.4973   -3.0304 H   0  0  0  0  0  0  0  0  0  0  0  0
   -0.1673    0.4286   -0.5124 H   0  0  0  0  0  0  0  0  0  0  0  0
   -1.0450    2.8110    0.3711 H   0  0  0  0  0  0  0  0  0  0  0  0
   -0.1673    3.7044   -0.8807 H   0  0  0  0  0  0  0  0  0  0  0  0
    0.7104    2.8110    0.3711 H   0  0  0  0  0  0  0  0  0  0  0  0
  1  2  1  0
  1  6  1  0
  1  7  1  0
  1  8  1  0
  2  3  1  0
  2  5  1  0
  3  4  2  3
  3  9  1  0
  4 10  1  0
  4 11  1  0
  5 12  1  0
 13 14  2  3
 13 16  1  0
 13 17  1  0
 14 15  1  0
 14 18  1  0
 15 19  1  0
 15 20  1  0
 15 21  1  0
M  RAD  1   2   2
M  END
>  <reaction>  (10) 
rxn_1633

>  <mol_properties>  (10) 
{"1": {"label": "*1", "atom_type": "Cs"}, "4": {"label": "*0", "atom_type": "S2s"}, "12": {"label": "*4", "atom_type": "Cd"}, "13": {"label": "*3", "atom_type": "Cd"}, "17": {"label": "*2", "atom_type": "H0"}}

>  <type>  (10) 
unop_6

>  <geom_source>  (10) 
Heuristics

$$$$

     RDKit          3D

 21 19  0  0  0  0  0  0  0  0999 V2000
   -1.4949   -0.7554    1.0864 C   0  0  0  0  0  0  0  0  0  0  0  0
   -0.2506   -0.6677    0.2185 C   0  0  0  0  0  3  0  0  0  0  0  0
    0.9001    0.0852    0.8177 C   0  0  0  0  0  0  0  0  0  0  0  0
    0.9523    0.5789    2.0457 C   0  0  0  0  0  0  0  0  0  0  0  0
    0.3201   -2.3183   -0.3418 S   0  0  0  0  0  0  0  0  0  0  0  0
   -1.2887   -1.2902    2.0154 H   0  0  0  0  0  0  0  0  0  0  0  0
   -1.8572    0.2436    1.3395 H   0  0  0  0  0  0  0  0  0  0  0  0
   -2.2853   -1.2890    0.5609 H   0  0  0  0  0  0  0  0  0  0  0  0
    1.7561    0.2016    0.1603 H   0  0  0  0  0  0  0  0  0  0  0  0
    1.8336    1.1006    2.3957 H   0  0  0  0  0  0  0  0  0  0  0  0
    0.1299    0.4870    2.7446 H   0  0  0  0  0  0  0  0  0  0  0  0
    0.7381   -2.7409    0.8594 H   0  0  0  0  0  0  0  0  0  0  0  0
   -0.2506    1.6262   -2.3659 C   0  0  0  0  0  0  0  0  0  0  0  0
   -0.2506    1.6262   -1.0421 C   0  0  0  0  0  0  0  0  0  0  0  0
   -0.2506    2.8484   -0.1816 C   0  0  0  0  0  0  0  0  0  0  0  0
   -0.2506    0.7035   -2.9324 H   0  0  0  0  0  0  0  0  0  0  0  0
   -0.2506    2.5518   -2.9319 H   0  0  0  0  0  0  0  0  0  0  0  0
   -0.2506    0.4831   -0.4139 H   0  0  0  0  0  0  0  0  0  0  0  0
   -1.1283    2.8655    0.4696 H   0  0  0  0  0  0  0  0  0  0  0  0
   -0.2506    3.7589   -0.7822 H   0  0  0  0  0  0  0  0  0  0  0  0
    0.6272    2.8655    0.4696 H   0  0  0  0  0  0  0  0  0  0  0  0
  1  2  1  0
  1  6  1  0
  1  7  1  0
  1  8  1  0
  2  3  1  0
  2  5  1  0
  3  4  2  3
  3  9  1  0
  4 10  1  0
  4 11  1  0
  5 12  1  0
 13 14  2  3
 13 16  1  0
 13 17  1  0
 14 15  1  0
 14 18  1  0
 15 19  1  0
 15 20  1  0
 15 21  1  0
M  RAD  1   2   2
M  END
>  <reaction>  (11) 
rxn_1633

>  <mol_properties>  (11) 
{"1": {"label": "*1", "atom_type": "Cs"}, "4": {"label": "*0", "atom_type": "S2s"}, "12": {"label": "*4", "atom_type": "Cd"}, "13": {"label": "*3", "atom_type": "Cd"}, "17": {"label": "*2", "atom_type": "H0"}}

>  <type>  (11) 
unop_7

>  <geom_source>  (11) 
Heuristics

$$$$

     RDKit          3D

 21 19  0  0  0  0  0  0  0  0999 V2000
    1.5835   -1.2463    0.3183 C   0  0  0  0  0  0  0  0  0  0  0  0
    0.1467   -0.8126    0.0799 C   0  0  0  0  0  3  0  0  0  0  0  0
   -0.8772   -1.9058    0.1609 C   0  0  0  0  0  0  0  0  0  0  0  0
   -0.6482   -3.1623    0.5117 C   0  0  0  0  0  0  0  0  0  0  0  0
   -0.3478    0.5748    1.1729 S   0  0  0  0  0  0  0  0  0  0  0  0
    1.7103   -1.6483    1.3251 H   0  0  0  0  0  0  0  0  0  0  0  0
    1.8751   -2.0178   -0.3979 H   0  0  0  0  0  0  0  0  0  0  0  0
    2.2573   -0.3979    0.2089 H   0  0  0  0  0  0  0  0  0  0  0  0
   -1.8892   -1.5967   -0.0812 H   0  0  0  0  0  0  0  0  0  0  0  0
   -1.4558   -3.8817    0.5524 H   0  0  0  0  0  0  0  0  0  0  0  0
    0.3403   -3.5233    0.7682 H   0  0  0  0  0  0  0  0  0  0  0  0
   -0.3614   -0.1357    2.3093 H   0  0  0  0  0  0  0  0  0  0  0  0
    0.1467    1.4814   -2.5045 C   0  0  0  0  0  0  0  0  0  0  0  0
    0.1467    1.4814   -1.1807 C   0  0  0  0  0  0  0  0  0  0  0  0
    0.1467    2.7035   -0.3202 C   0  0  0  0  0  0  0  0  0  0  0  0
    0.1467    0.5586   -3.0709 H   0  0  0  0  0  0  0  0  0  0  0  0
    0.1467    2.4070   -3.0705 H   0  0  0  0  0  0  0  0  0  0  0  0
    0.1467    0.3382   -0.5525 H   0  0  0  0  0  0  0  0  0  0  0  0
   -0.7311    2.7206    0.3310 H   0  0  0  0  0  0  0  0  0  0  0  0
    0.1467    3.6140   -0.9208 H   0  0  0  0  0  0  0  0  0  0  0  0
    1.0244    2.7206    0.3310 H   0  0  0  0  0  0  0  0  0  0  0  0
  1  2  1  0
  1  6  1  0
  1  7  1  0
  1  8  1  0
  2  3  1  0
  2  5  1  0
  3  4  2  3
  3  9  1  0
  4 10  1  0
  4 11  1  0
  5 12  1  0
 13 14  2  3
 13 16  1  0
 13 17  1  0
 14 15  1  0
 14 18  1  0
 15 19  1  0
 15 20  1  0
 15 21  1  0
M  RAD  1   2   2
M  END
>  <reaction>  (12) 
rxn_1633

>  <mol_properties>  (12) 
{"1": {"label": "*1", "atom_type": "Cs"}, "4": {"label": "*0", "atom_type": "S2s"}, "12": {"label": "*4", "atom_type": "Cd"}, "13": {"label": "*3", "atom_type": "Cd"}, "17": {"label": "*2", "atom_type": "H0"}}

>  <type>  (12) 
unop_8

>  <geom_source>  (12) 
Heuristics

$$$$

     RDKit          3D

 21 19  0  0  0  0  0  0  0  0999 V2000
   -0.7441   -1.7050   -0.7442 C   0  0  0  0  0  0  0  0  0  0  0  0
   -0.0257   -0.6720    0.1079 C   0  0  0  0  0  3  0  0  0  0  0  0
   -0.8125   -0.1338    1.2660 C   0  0  0  0  0  0  0  0  0  0  0  0
   -2.0098   -0.5473    1.6530 C   0  0  0  0  0  0  0  0  0  0  0  0
    1.6032   -1.2738    0.6982 S   0  0  0  0  0  0  0  0  0  0  0  0
   -0.9895   -2.5938   -0.1600 H   0  0  0  0  0  0  0  0  0  0  0  0
   -1.6722   -1.2922   -1.1462 H   0  0  0  0  0  0  0  0  0  0  0  0
   -0.1125   -2.0143   -1.5755 H   0  0  0  0  0  0  0  0  0  0  0  0
   -0.3154    0.6540    1.8236 H   0  0  0  0  0  0  0  0  0  0  0  0
   -2.4977   -0.1045    2.5117 H   0  0  0  0  0  0  0  0  0  0  0  0
   -2.5484   -1.3327    1.1370 H   0  0  0  0  0  0  0  0  0  0  0  0
    1.1183   -2.1842    1.5541 H   0  0  0  0  0  0  0  0  0  0  0  0
   -0.0257    1.6219   -2.4764 C   0  0  0  0  0  0  0  0  0  0  0  0
   -0.0257    1.6219   -1.1527 C   0  0  0  0  0  0  0  0  0  0  0  0
   -0.0257    2.8441   -0.2922 C   0  0  0  0  0  0  0  0  0  0  0  0
   -0.0257    0.6992   -3.0429 H   0  0  0  0  0  0  0  0  0  0  0  0
   -0.0257    2.5475   -3.0424 H   0  0  0  0  0  0  0  0  0  0  0  0
   -0.0257    0.4787   -0.5245 H   0  0  0  0  0  0  0  0  0  0  0  0
   -0.9034    2.8612    0.3590 H   0  0  0  0  0  0  0  0  0  0  0  0
   -0.0257    3.7545   -0.8928 H   0  0  0  0  0  0  0  0  0  0  0  0
    0.8520    2.8612    0.3590 H   0  0  0  0  0  0  0  0  0  0  0  0
  1  2  1  0
  1  6  1  0
  1  7  1  0
  1  8  1  0
  2  3  1  0
  2  5  1  0
  3  4  2  3
  3  9  1  0
  4 10  1  0
  4 11  1  0
  5 12  1  0
 13 14  2  3
 13 16  1  0
 13 17  1  0
 14 15  1  0
 14 18  1  0
 15 19  1  0
 15 20  1  0
 15 21  1  0
M  RAD  1   2   2
M  END
>  <reaction>  (13) 
rxn_1633

>  <mol_properties>  (13) 
{"1": {"label": "*1", "atom_type": "Cs"}, "4": {"label": "*0", "atom_type": "S2s"}, "12": {"label": "*4", "atom_type": "Cd"}, "13": {"label": "*3", "atom_type": "Cd"}, "17": {"label": "*2", "atom_type": "H0"}}

>  <type>  (13) 
unop_9

>  <geom_source>  (13) 
Heuristics

$$$$

     RDKit          3D

 21 19  0  0  0  0  0  0  0  0999 V2000
    1.2545   -1.5677   -0.3336 C   0  0  0  0  0  0  0  0  0  0  0  0
    0.0101   -0.7880    0.0577 C   0  0  0  0  0  3  0  0  0  0  0  0
   -1.1635   -1.6201    0.4822 C   0  0  0  0  0  0  0  0  0  0  0  0
   -1.1703   -2.9357    0.6348 C   0  0  0  0  0  0  0  0  0  0  0  0
    0.3608    0.4783    1.3373 S   0  0  0  0  0  0  0  0  0  0  0  0
    1.6363   -2.1463    0.5095 H   0  0  0  0  0  0  0  0  0  0  0  0
    1.0334   -2.2580   -1.1508 H   0  0  0  0  0  0  0  0  0  0  0  0
    2.0407   -0.8871   -0.6565 H   0  0  0  0  0  0  0  0  0  0  0  0
   -2.0669   -1.0553    0.6903 H   0  0  0  0  0  0  0  0  0  0  0  0
   -2.0659   -3.4511    0.9570 H   0  0  0  0  0  0  0  0  0  0  0  0
   -0.2965   -3.5474    0.4463 H   0  0  0  0  0  0  0  0  0  0  0  0
    0.5832   -0.3861    2.3373 H   0  0  0  0  0  0  0  0  0  0  0  0
    0.0101    1.5059   -2.5267 C   0  0  0  0  0  0  0  0  0  0  0  0
    0.0101    1.5059   -1.2030 C   0  0  0  0  0  0  0  0  0  0  0  0
    0.0101    2.7281   -0.3425 C   0  0  0  0  0  0  0  0  0  0  0  0
    0.0101    0.5832   -3.0932 H   0  0  0  0  0  0  0  0  0  0  0  0
    0.0101    2.4315   -3.0927 H   0  0  0  0  0  0  0  0  0  0  0  0
    0.0101    0.3628   -0.5747 H   0  0  0  0  0  0  0  0  0  0  0  0
   -0.8676    2.7452    0.3088 H   0  0  0  0  0  0  0  0  0  0  0  0
    0.0101    3.6386   -0.9431 H   0  0  0  0  0  0  0  0  0  0  0  0
    0.8878    2.7452    0.3088 H   0  0  0  0  0  0  0  0  0  0  0  0
  1  2  1  0
  1  6  1  0
  1  7  1  0
  1  8  1  0
  2  3  1  0
  2  5  1  0
  3  4  2  3
  3  9  1  0
  4 10  1  0
  4 11  1  0
  5 12  1  0
 13 14  2  3
 13 16  1  0
 13 17  1  0
 14 15  1  0
 14 18  1  0
 15 19  1  0
 15 20  1  0
 15 21  1  0
M  RAD  1   2   2
M  END
>  <reaction>  (14) 
rxn_1633

>  <mol_properties>  (14) 
{"1": {"label": "*1", "atom_type": "Cs"}, "4": {"label": "*0", "atom_type": "S2s"}, "12": {"label": "*4", "atom_type": "Cd"}, "13": {"label": "*3", "atom_type": "Cd"}, "17": {"label": "*2", "atom_type": "H0"}}

>  <type>  (14) 
unop_10

>  <geom_source>  (14) 
Heuristics

$$$$

     RDKit          3D

 21 19  0  0  0  0  0  0  0  0999 V2000
   -0.9291   -0.3849    1.6927 C   0  0  0  0  0  0  0  0  0  0  0  0
   -0.2107   -0.5506    0.3638 C   0  0  0  0  0  3  0  0  0  0  0  0
    1.2794   -0.3859    0.4132 C   0  0  0  0  0  0  0  0  0  0  0  0
    2.0076   -0.2123    1.5058 C   0  0  0  0  0  0  0  0  0  0  0  0
   -0.6269   -2.1382   -0.4547 S   0  0  0  0  0  0  0  0  0  0  0  0
   -0.6067   -1.1417    2.4102 H   0  0  0  0  0  0  0  0  0  0  0  0
   -0.7253    0.6000    2.1188 H   0  0  0  0  0  0  0  0  0  0  0  0
   -2.0044   -0.4890    1.5564 H   0  0  0  0  0  0  0  0  0  0  0  0
    1.7723   -0.4358   -0.5527 H   0  0  0  0  0  0  0  0  0  0  0  0
    3.0836   -0.1134    1.4441 H   0  0  0  0  0  0  0  0  0  0  0  0
    1.5688   -0.1603    2.4947 H   0  0  0  0  0  0  0  0  0  0  0  0
    0.0234   -2.9231    0.4157 H   0  0  0  0  0  0  0  0  0  0  0  0
   -0.2107    1.7434   -2.2205 C   0  0  0  0  0  0  0  0  0  0  0  0
   -0.2107    1.7434   -0.8968 C   0  0  0  0  0  0  0  0  0  0  0  0
   -0.2107    2.9656   -0.0363 C   0  0  0  0  0  0  0  0  0  0  0  0
   -0.2107    0.8207   -2.7870 H   0  0  0  0  0  0  0  0  0  0  0  0
   -0.2107    2.6690   -2.7866 H   0  0  0  0  0  0  0  0  0  0  0  0
   -0.2107    0.6002   -0.2686 H   0  0  0  0  0  0  0  0  0  0  0  0
   -1.0884    2.9827    0.6149 H   0  0  0  0  0  0  0  0  0  0  0  0
   -0.2107    3.8760   -0.6369 H   0  0  0  0  0  0  0  0  0  0  0  0
    0.6670    2.9827    0.6149 H   0  0  0  0  0  0  0  0  0  0  0  0
  1  2  1  0
  1  6  1  0
  1  7  1  0
  1  8  1  0
  2  3  1  0
  2  5  1  0
  3  4  2  3
  3  9  1  0
  4 10  1  0
  4 11  1  0
  5 12  1  0
 13 14  2  3
 13 16  1  0
 13 17  1  0
 14 15  1  0
 14 18  1  0
 15 19  1  0
 15 20  1  0
 15 21  1  0
M  RAD  1   2   2
M  END
>  <reaction>  (15) 
rxn_1633

>  <mol_properties>  (15) 
{"1": {"label": "*1", "atom_type": "Cs"}, "4": {"label": "*0", "atom_type": "S2s"}, "12": {"label": "*4", "atom_type": "Cd"}, "13": {"label": "*3", "atom_type": "Cd"}, "17": {"label": "*2", "atom_type": "H0"}}

>  <type>  (15) 
unop_11

>  <geom_source>  (15) 
Heuristics

$$$$

     RDKit          3D

 21 19  0  0  0  0  0  0  0  0999 V2000
   -0.0505   -1.7883   -0.9041 C   0  0  0  0  0  0  0  0  0  0  0  0
   -0.0505   -0.6626    0.1168 C   0  0  0  0  0  3  0  0  0  0  0  0
   -1.2058   -0.6617    1.0736 C   0  0  0  0  0  0  0  0  0  0  0  0
   -2.1441   -1.5923    1.1617 C   0  0  0  0  0  0  0  0  0  0  0  0
    1.5238   -0.5784    1.0541 S   0  0  0  0  0  0  0  0  0  0  0  0
    0.0152   -2.7619   -0.4148 H   0  0  0  0  0  0  0  0  0  0  0  0
   -0.9656   -1.7655   -1.5001 H   0  0  0  0  0  0  0  0  0  0  0  0
    0.8029   -1.6913   -1.5734 H   0  0  0  0  0  0  0  0  0  0  0  0
   -1.2320    0.1865    1.7505 H   0  0  0  0  0  0  0  0  0  0  0  0
   -2.9367   -1.5117    1.8943 H   0  0  0  0  0  0  0  0  0  0  0  0
   -2.1635   -2.4614    0.5155 H   0  0  0  0  0  0  0  0  0  0  0  0
    1.3362   -1.7077    1.7513 H   0  0  0  0  0  0  0  0  0  0  0  0
   -0.0505    1.6313   -2.4676 C   0  0  0  0  0  0  0  0  0  0  0  0
   -0.0505    1.6313   -1.1438 C   0  0  0  0  0  0  0  0  0  0  0  0
   -0.0505    2.8535   -0.2833 C   0  0  0  0  0  0  0  0  0  0  0  0
   -0.0505    0.7086   -3.0340 H   0  0  0  0  0  0  0  0  0  0  0  0
   -0.0505    2.5569   -3.0336 H   0  0  0  0  0  0  0  0  0  0  0  0
   -0.0505    0.4882   -0.5156 H   0  0  0  0  0  0  0  0  0  0  0  0
   -0.9282    2.8706    0.3679 H   0  0  0  0  0  0  0  0  0  0  0  0
   -0.0505    3.7640   -0.8839 H   0  0  0  0  0  0  0  0  0  0  0  0
    0.8272    2.8706    0.3679 H   0  0  0  0  0  0  0  0  0  0  0  0
  1  2  1  0
  1  6  1  0
  1  7  1  0
  1  8  1  0
  2  3  1  0
  2  5  1  0
  3  4  2  3
  3  9  1  0
  4 10  1  0
  4 11  1  0
  5 12  1  0
 13 14  2  3
 13 16  1  0
 13 17  1  0
 14 15  1  0
 14 18  1  0
 15 19  1  0
 15 20  1  0
 15 21  1  0
M  RAD  1   2   2
M  END
>  <reaction>  (16) 
rxn_1633

>  <mol_properties>  (16) 
{"1": {"label": "*1", "atom_type": "Cs"}, "4": {"label": "*0", "atom_type": "S2s"}, "12": {"label": "*4", "atom_type": "Cd"}, "13": {"label": "*3", "atom_type": "Cd"}, "17": {"label": "*2", "atom_type": "H0"}}

>  <type>  (16) 
unop_12

>  <geom_source>  (16) 
Heuristics

$$$$

     RDKit          3D

 21 19  0  0  0  0  0  0  0  0999 V2000
   -0.9054    1.2591   -1.9637 S   0  0  0  0  0  0  0  0  0  0  0  0
   -1.0569    0.1932   -0.4928 C   0  0  0  0  0  3  0  0  0  0  0  0
   -2.3309    0.5541    0.2680 C   0  0  0  0  0  0  0  0  0  0  0  0
    2.4600   -0.2827    0.1866 C   0  0  0  0  0  0  0  0  0  0  0  0
   -1.0673   -1.2557   -0.9040 C   0  0  0  0  0  0  0  0  0  0  0  0
   -0.8766   -2.2312   -0.0118 C   0  0  0  0  0  0  0  0  0  0  0  0
    1.4648    1.7823    1.1099 C   0  0  0  0  0  0  0  0  0  0  0  0
    1.3092    0.6355    0.4474 C   0  0  0  0  0  0  0  0  0  0  0  0
    0.0646    0.4347    0.3446 H   0  0  0  0  0  0  0  0  0  0  0  0
   -3.2276    0.3707   -0.3624 H   0  0  0  0  0  0  0  0  0  0  0  0
   -2.4092   -0.0509    1.1958 H   0  0  0  0  0  0  0  0  0  0  0  0
   -2.3050    1.6260    0.5563 H   0  0  0  0  0  0  0  0  0  0  0  0
    3.2333    0.2385   -0.4163 H   0  0  0  0  0  0  0  0  0  0  0  0
    2.0993   -1.1683   -0.3758 H   0  0  0  0  0  0  0  0  0  0  0  0
    2.9026   -0.6201    1.1476 H   0  0  0  0  0  0  0  0  0  0  0  0
   -1.2028   -1.5217   -1.9487 H   0  0  0  0  0  0  0  0  0  0  0  0
   -0.7189   -2.0056    1.0386 H   0  0  0  0  0  0  0  0  0  0  0  0
   -0.8746   -3.2678   -0.3326 H   0  0  0  0  0  0  0  0  0  0  0  0
    0.6074    2.4237    1.2808 H   0  0  0  0  0  0  0  0  0  0  0  0
    2.4389    2.0853    1.4823 H   0  0  0  0  0  0  0  0  0  0  0  0
    0.3950    0.8011   -2.2499 H   0  0  0  0  0  0  0  0  0  0  0  0
  1  2  1  0
  1 21  1  0
  2  3  1  0
  2  5  1  0
  3 10  1  0
  3 11  1  0
  3 12  1  0
  4  8  1  0
  4 13  1  0
  4 14  1  0
  4 15  1  0
  5  6  2  3
  5 16  1  0
  6 17  1  0
  6 18  1  0
  7  8  2  3
  7 19  1  0
  7 20  1  0
  8  9  1  0
M  RAD  1   2   2
M  END
>  <reaction>  (17) 
rxn_1633

>  <mol_properties>  (17) 
{"1": {"label": "*1", "atom_type": "Cs"}, "4": {"label": "*0", "atom_type": "S2s"}, "12": {"label": "*4", "atom_type": "Cd"}, "13": {"label": "*3", "atom_type": "Cd"}, "17": {"label": "*2", "atom_type": "H0"}}

>  <type>  (17) 
unop_13

>  <geom_source>  (17) 
AutoTST

$$$$
