
     RDKit          3D

  6  5  0  0  0  0  0  0  0  0999 V2000
    0.6594    0.0438   -0.0050 C   0  0  0  0  0  0  0  0  0  0  0  0
   -0.6594   -0.0438    0.0050 C   0  0  0  0  0  0  0  0  0  0  0  0
    1.1706    0.8681   -0.4881 H   0  0  0  0  0  0  0  0  0  0  0  0
    1.2824   -0.7051    0.4696 H   0  0  0  0  0  0  0  0  0  0  0  0
   -1.2824    0.7051   -0.4696 H   0  0  0  0  0  0  0  0  0  0  0  0
   -1.1706   -0.8681    0.4881 H   0  0  0  0  0  0  0  0  0  0  0  0
  1  2  2  3
  1  3  1  0
  1  4  1  0
  2  5  1  0
  2  6  1  0
M  END
>  <reaction>  (1) 
rxn_1604

>  <mol_properties>  (1) 
{"1": {"label": "donator", "atom_type": "Cd"}, "4": {"label": "d_hydrogen", "atom_type": "H0"}}

>  <type>  (1) 
r1h

$$$$

     RDKit          3D

  7  6  0  0  0  0  0  0  0  0999 V2000
    1.3002    0.7433    2.1279 C   0  0  0  0  0  0  0  0  0  0  0  0
    0.5758    0.3292    1.2319 C   0  0  0  0  0  0  0  0  0  0  0  0
   -0.2057   -0.1176    0.2652 C   0  0  0  0  0  3  0  0  0  0  0  0
   -0.9747   -0.5572   -0.6858 C   0  0  0  0  0  0  0  0  0  0  0  0
    1.9293    1.1030    2.9059 H   0  0  0  0  0  0  0  0  0  0  0  0
   -1.9977   -0.8727   -0.4932 H   0  0  0  0  0  0  0  0  0  0  0  0
   -0.6274   -0.6280   -1.7143 H   0  0  0  0  0  0  0  0  0  0  0  0
  1  2  3  0
  1  5  1  0
  2  3  1  0
  3  4  2  3
  4  6  1  0
  4  7  1  0
M  RAD  1   3   2
M  END
>  <reaction>  (2) 
rxn_1604

>  <mol_properties>  (2) 
{"2": {"label": "acceptor", "atom_type": "Cd"}}

>  <type>  (2) 
r2

$$$$

     RDKit          3D

  8  7  0  0  0  0  0  0  0  0999 V2000
    1.9029    0.9046   -0.2050 C   0  0  0  0  0  0  0  0  0  0  0  0
    0.8517    0.4283    0.1217 C   0  0  0  0  0  0  0  0  0  0  0  0
   -0.3908   -0.1311    0.5404 C   0  0  0  0  0  0  0  0  0  0  0  0
   -1.2847   -0.6576   -0.2899 C   0  0  0  0  0  0  0  0  0  0  0  0
    2.8335    1.3255   -0.5014 H   0  0  0  0  0  0  0  0  0  0  0  0
   -0.5867   -0.1096    1.6074 H   0  0  0  0  0  0  0  0  0  0  0  0
   -2.2126   -1.0686    0.0850 H   0  0  0  0  0  0  0  0  0  0  0  0
   -1.1134   -0.6914   -1.3582 H   0  0  0  0  0  0  0  0  0  0  0  0
  1  2  3  0
  1  5  1  0
  2  3  1  0
  3  4  2  3
  3  6  1  0
  4  7  1  0
  4  8  1  0
M  END
>  <reaction>  (3) 
rxn_1604

>  <mol_properties>  (3) 
{"2": {"label": "acceptor", "atom_type": "Cd"}, "7": {"label": "a_hydrogen", "atom_type": "H0"}}

>  <type>  (3) 
r2h

$$$$

     RDKit          3D

 13 11  0  0  0  0  0  0  0  0999 V2000
   -0.0000    2.2521   -0.7778 C   0  0  0  0  0  0  0  0  0  0  0  0
   -0.0000    1.3560    0.0254 C   0  0  0  0  0  0  0  0  0  0  0  0
   -0.0000    0.2407    0.8759 C   0  0  0  0  0  0  0  0  0  0  0  0
   -0.0000    0.1712    2.1958 C   0  0  0  0  0  0  0  0  0  0  0  0
   -0.0000    3.0611   -1.4680 H   0  0  0  0  0  0  0  0  0  0  0  0
   -0.0000   -0.7877    2.7002 H   0  0  0  0  0  0  0  0  0  0  0  0
   -0.0000    1.0618    2.8153 H   0  0  0  0  0  0  0  0  0  0  0  0
    0.0000   -1.8052   -1.8090 C   0  0  0  0  0  0  0  0  0  0  0  0
    0.0000   -2.0240   -0.5174 C   0  0  0  0  0  3  0  0  0  0  0  0
    0.0000   -0.7951   -2.2083 H   0  0  0  0  0  0  0  0  0  0  0  0
    0.0000   -2.6191   -2.5302 H   0  0  0  0  0  0  0  0  0  0  0  0
    0.0000   -0.8762    0.2534 H   0  0  0  0  0  0  0  0  0  0  0  0
    0.0000   -2.9593    0.0284 H   0  0  0  0  0  0  0  0  0  0  0  0
  1  2  3  0
  1  5  1  0
  2  3  1  0
  3  4  2  3
  3 12  1  0
  4  6  1  0
  4  7  1  0
  8  9  2  3
  8 10  1  0
  8 11  1  0
  9 13  1  0
M  RAD  1   9   2
M  END
>  <reaction>  (4) 
rxn_1604

>  <mol_properties>  (4) 
{"1": {"label": "*0", "atom_type": "Ct"}, "2": {"label": "*1", "atom_type": "Cd"}, "7": {"label": "*4", "atom_type": "Cd"}, "8": {"label": "*3", "atom_type": "Cd"}, "11": {"label": "*2", "atom_type": "H0"}}

>  <type>  (4) 
ts

$$$$

     RDKit          3D

 13 11  0  0  0  0  0  0  0  0999 V2000
   -1.7779    0.9934    1.8427 C   0  0  0  0  0  0  0  0  0  0  0  0
   -0.8281    0.8377    1.1270 C   0  0  0  0  0  0  0  0  0  0  0  0
    0.2814    0.6416    0.2538 C   0  0  0  0  0  3  0  0  0  0  0  0
    1.5395    0.9198    0.5788 C   0  0  0  0  0  0  0  0  0  0  0  0
   -2.6201    1.1315    2.4772 H   0  0  0  0  0  0  0  0  0  0  0  0
    2.3429    0.7503   -0.1258 H   0  0  0  0  0  0  0  0  0  0  0  0
    1.7973    1.3213    1.5504 H   0  0  0  0  0  0  0  0  0  0  0  0
    0.2814   -1.5741   -2.4329 C   0  0  0  0  0  0  0  0  0  0  0  0
    0.2814   -1.5741   -1.1112 C   0  0  0  0  0  0  0  0  0  0  0  0
    0.2814   -0.6515   -3.0013 H   0  0  0  0  0  0  0  0  0  0  0  0
    0.2814   -2.4967   -3.0013 H   0  0  0  0  0  0  0  0  0  0  0  0
    0.2814   -0.4670   -0.4292 H   0  0  0  0  0  0  0  0  0  0  0  0
    0.2814   -2.4967   -0.5428 H   0  0  0  0  0  0  0  0  0  0  0  0
  1  2  3  0
  1  5  1  0
  2  3  1  0
  3  4  2  3
  4  6  1  0
  4  7  1  0
  8  9  2  3
  8 10  1  0
  8 11  1  0
  9 12  1  0
  9 13  1  0
M  RAD  1   3   2
M  END
>  <reaction>  (5) 
rxn_1604

>  <mol_properties>  (5) 
{"1": {"label": "*0", "atom_type": "Ct"}, "2": {"label": "*1", "atom_type": "Cd"}, "7": {"label": "*4", "atom_type": "Cd"}, "8": {"label": "*3", "atom_type": "Cd"}, "11": {"label": "*2", "atom_type": "H0"}}

>  <type>  (5) 
unop_1

>  <geom_source>  (5) 
Heuristics

$$$$

     RDKit          3D

 13 11  0  0  0  0  0  0  0  0999 V2000
   -0.9317    2.3213   -0.3962 C   0  0  0  0  0  0  0  0  0  0  0  0
   -0.3943    1.3964    0.1464 C   0  0  0  0  0  0  0  0  0  0  0  0
    0.2463    0.2823    0.7632 C   0  0  0  0  0  3  0  0  0  0  0  0
    0.5165    0.2076    2.0621 C   0  0  0  0  0  0  0  0  0  0  0  0
   -1.4081    3.1414   -0.8773 H   0  0  0  0  0  0  0  0  0  0  0  0
    1.0055   -0.6644    2.4758 H   0  0  0  0  0  0  0  0  0  0  0  0
    0.2580    1.0103    2.7408 H   0  0  0  0  0  0  0  0  0  0  0  0
    0.2463   -1.9333   -1.9235 C   0  0  0  0  0  0  0  0  0  0  0  0
    0.2463   -1.9333   -0.6018 C   0  0  0  0  0  0  0  0  0  0  0  0
    0.2463   -1.0107   -2.4919 H   0  0  0  0  0  0  0  0  0  0  0  0
    0.2463   -2.8559   -2.4919 H   0  0  0  0  0  0  0  0  0  0  0  0
    0.2463   -0.8262    0.0803 H   0  0  0  0  0  0  0  0  0  0  0  0
    0.2463   -2.8559   -0.0334 H   0  0  0  0  0  0  0  0  0  0  0  0
  1  2  3  0
  1  5  1  0
  2  3  1  0
  3  4  2  3
  4  6  1  0
  4  7  1  0
  8  9  2  3
  8 10  1  0
  8 11  1  0
  9 12  1  0
  9 13  1  0
M  RAD  1   3   2
M  END
>  <reaction>  (6) 
rxn_1604

>  <mol_properties>  (6) 
{"1": {"label": "*0", "atom_type": "Ct"}, "2": {"label": "*1", "atom_type": "Cd"}, "7": {"label": "*4", "atom_type": "Cd"}, "8": {"label": "*3", "atom_type": "Cd"}, "11": {"label": "*2", "atom_type": "H0"}}

>  <type>  (6) 
unop_2

>  <geom_source>  (6) 
Heuristics

$$$$

     RDKit          3D

 13 11  0  0  0  0  0  0  0  0999 V2000
   -1.0934    0.5550    2.5127 C   0  0  0  0  0  0  0  0  0  0  0  0
   -0.5372    0.6150    1.4518 C   0  0  0  0  0  0  0  0  0  0  0  0
    0.1034    0.6649    0.1793 C   0  0  0  0  0  3  0  0  0  0  0  0
    1.1514    1.4348   -0.0941 C   0  0  0  0  0  0  0  0  0  0  0  0
   -1.5865    0.5018    3.4534 H   0  0  0  0  0  0  0  0  0  0  0  0
    1.5975    1.4317   -1.0797 H   0  0  0  0  0  0  0  0  0  0  0  0
    1.5874    2.0835    0.6548 H   0  0  0  0  0  0  0  0  0  0  0  0
    0.1034   -1.5508   -2.5075 C   0  0  0  0  0  0  0  0  0  0  0  0
    0.1034   -1.5508   -1.1857 C   0  0  0  0  0  0  0  0  0  0  0  0
    0.1034   -0.6282   -3.0759 H   0  0  0  0  0  0  0  0  0  0  0  0
    0.1034   -2.4734   -3.0759 H   0  0  0  0  0  0  0  0  0  0  0  0
    0.1034   -0.4437   -0.5037 H   0  0  0  0  0  0  0  0  0  0  0  0
    0.1034   -2.4734   -0.6174 H   0  0  0  0  0  0  0  0  0  0  0  0
  1  2  3  0
  1  5  1  0
  2  3  1  0
  3  4  2  3
  4  6  1  0
  4  7  1  0
  8  9  2  3
  8 10  1  0
  8 11  1  0
  9 12  1  0
  9 13  1  0
M  RAD  1   3   2
M  END
>  <reaction>  (7) 
rxn_1604

>  <mol_properties>  (7) 
{"1": {"label": "*0", "atom_type": "Ct"}, "2": {"label": "*1", "atom_type": "Cd"}, "7": {"label": "*4", "atom_type": "Cd"}, "8": {"label": "*3", "atom_type": "Cd"}, "11": {"label": "*2", "atom_type": "H0"}}

>  <type>  (7) 
unop_3

>  <geom_source>  (7) 
Heuristics

$$$$

     RDKit          3D

 13 11  0  0  0  0  0  0  0  0999 V2000
    1.6496    1.9922    0.1785 C   0  0  0  0  0  0  0  0  0  0  0  0
    0.7148    1.2703    0.3869 C   0  0  0  0  0  0  0  0  0  0  0  0
   -0.3948    0.4022    0.6045 C   0  0  0  0  0  3  0  0  0  0  0  0
   -1.0359    0.2938    1.7634 C   0  0  0  0  0  0  0  0  0  0  0  0
    2.4786    2.6323   -0.0062 H   0  0  0  0  0  0  0  0  0  0  0  0
   -1.8732   -0.3829    1.8708 H   0  0  0  0  0  0  0  0  0  0  0  0
   -0.7427    0.8744    2.6286 H   0  0  0  0  0  0  0  0  0  0  0  0
   -0.3948   -1.8135   -2.0822 C   0  0  0  0  0  0  0  0  0  0  0  0
   -0.3948   -1.8135   -0.7605 C   0  0  0  0  0  0  0  0  0  0  0  0
   -0.3948   -0.8909   -2.6506 H   0  0  0  0  0  0  0  0  0  0  0  0
   -0.3948   -2.7361   -2.6506 H   0  0  0  0  0  0  0  0  0  0  0  0
   -0.3948   -0.7064   -0.0784 H   0  0  0  0  0  0  0  0  0  0  0  0
   -0.3948   -2.7361   -0.1921 H   0  0  0  0  0  0  0  0  0  0  0  0
  1  2  3  0
  1  5  1  0
  2  3  1  0
  3  4  2  3
  4  6  1  0
  4  7  1  0
  8  9  2  3
  8 10  1  0
  8 11  1  0
  9 12  1  0
  9 13  1  0
M  RAD  1   3   2
M  END
>  <reaction>  (8) 
rxn_1604

>  <mol_properties>  (8) 
{"1": {"label": "*0", "atom_type": "Ct"}, "2": {"label": "*1", "atom_type": "Cd"}, "7": {"label": "*4", "atom_type": "Cd"}, "8": {"label": "*3", "atom_type": "Cd"}, "11": {"label": "*2", "atom_type": "H0"}}

>  <type>  (8) 
unop_4

>  <geom_source>  (8) 
Heuristics

$$$$

     RDKit          3D

 13 11  0  0  0  0  0  0  0  0999 V2000
    0.0000    0.3487    2.7866 C   0  0  0  0  0  0  0  0  0  0  0  0
   -0.0000    0.4931    1.5959 C   0  0  0  0  0  0  0  0  0  0  0  0
   -0.0000    0.6330    0.1773 C   0  0  0  0  0  3  0  0  0  0  0  0
    0.0000    1.8029   -0.4528 C   0  0  0  0  0  0  0  0  0  0  0  0
    0.0000    0.2208    3.8424 H   0  0  0  0  0  0  0  0  0  0  0  0
    0.0000    1.8486   -1.5338 H   0  0  0  0  0  0  0  0  0  0  0  0
    0.0000    2.7386    0.0915 H   0  0  0  0  0  0  0  0  0  0  0  0
   -0.0000   -1.5827   -2.5094 C   0  0  0  0  0  0  0  0  0  0  0  0
   -0.0000   -1.5827   -1.1877 C   0  0  0  0  0  0  0  0  0  0  0  0
    0.0000   -0.6601   -3.0778 H   0  0  0  0  0  0  0  0  0  0  0  0
   -0.0000   -2.5052   -3.0778 H   0  0  0  0  0  0  0  0  0  0  0  0
   -0.0000   -0.4756   -0.5057 H   0  0  0  0  0  0  0  0  0  0  0  0
   -0.0000   -2.5052   -0.6193 H   0  0  0  0  0  0  0  0  0  0  0  0
  1  2  3  0
  1  5  1  0
  2  3  1  0
  3  4  2  3
  4  6  1  0
  4  7  1  0
  8  9  2  3
  8 10  1  0
  8 11  1  0
  9 12  1  0
  9 13  1  0
M  RAD  1   3   2
M  END
>  <reaction>  (9) 
rxn_1604

>  <mol_properties>  (9) 
{"1": {"label": "*0", "atom_type": "Ct"}, "2": {"label": "*1", "atom_type": "Cd"}, "7": {"label": "*4", "atom_type": "Cd"}, "8": {"label": "*3", "atom_type": "Cd"}, "11": {"label": "*2", "atom_type": "H0"}}

>  <type>  (9) 
unop_5

>  <geom_source>  (9) 
Heuristics

$$$$

     RDKit          3D

 13 11  0  0  0  0  0  0  0  0999 V2000
    1.9660    1.5128    0.9914 C   0  0  0  0  0  0  0  0  0  0  0  0
    0.8793    1.0716    0.7400 C   0  0  0  0  0  0  0  0  0  0  0  0
   -0.4019    0.5395    0.4122 C   0  0  0  0  0  3  0  0  0  0  0  0
   -1.4361    0.5283    1.2464 C   0  0  0  0  0  0  0  0  0  0  0  0
    2.9294    1.9039    1.2143 H   0  0  0  0  0  0  0  0  0  0  0  0
   -2.3868    0.1104    0.9428 H   0  0  0  0  0  0  0  0  0  0  0  0
   -1.3600    0.9334    2.2473 H   0  0  0  0  0  0  0  0  0  0  0  0
   -0.4019   -1.6761   -2.2746 C   0  0  0  0  0  0  0  0  0  0  0  0
   -0.4019   -1.6761   -0.9528 C   0  0  0  0  0  0  0  0  0  0  0  0
   -0.4019   -0.7535   -2.8429 H   0  0  0  0  0  0  0  0  0  0  0  0
   -0.4019   -2.5987   -2.8429 H   0  0  0  0  0  0  0  0  0  0  0  0
   -0.4019   -0.5690   -0.2708 H   0  0  0  0  0  0  0  0  0  0  0  0
   -0.4019   -2.5987   -0.3844 H   0  0  0  0  0  0  0  0  0  0  0  0
  1  2  3  0
  1  5  1  0
  2  3  1  0
  3  4  2  3
  4  6  1  0
  4  7  1  0
  8  9  2  3
  8 10  1  0
  8 11  1  0
  9 12  1  0
  9 13  1  0
M  RAD  1   3   2
M  END
>  <reaction>  (10) 
rxn_1604

>  <mol_properties>  (10) 
{"1": {"label": "*0", "atom_type": "Ct"}, "2": {"label": "*1", "atom_type": "Cd"}, "7": {"label": "*4", "atom_type": "Cd"}, "8": {"label": "*3", "atom_type": "Cd"}, "11": {"label": "*2", "atom_type": "H0"}}

>  <type>  (10) 
unop_6

>  <geom_source>  (10) 
Heuristics

$$$$

     RDKit          3D

 13 11  0  0  0  0  0  0  0  0999 V2000
    1.7779    0.9934    1.8427 C   0  0  0  0  0  0  0  0  0  0  0  0
    0.8281    0.8377    1.1270 C   0  0  0  0  0  0  0  0  0  0  0  0
   -0.2814    0.6416    0.2538 C   0  0  0  0  0  3  0  0  0  0  0  0
   -1.5395    0.9198    0.5788 C   0  0  0  0  0  0  0  0  0  0  0  0
    2.6201    1.1315    2.4772 H   0  0  0  0  0  0  0  0  0  0  0  0
   -2.3429    0.7503   -0.1258 H   0  0  0  0  0  0  0  0  0  0  0  0
   -1.7973    1.3213    1.5504 H   0  0  0  0  0  0  0  0  0  0  0  0
   -0.2814   -1.5741   -2.4329 C   0  0  0  0  0  0  0  0  0  0  0  0
   -0.2814   -1.5741   -1.1112 C   0  0  0  0  0  0  0  0  0  0  0  0
   -0.2814   -0.6515   -3.0013 H   0  0  0  0  0  0  0  0  0  0  0  0
   -0.2814   -2.4967   -3.0013 H   0  0  0  0  0  0  0  0  0  0  0  0
   -0.2814   -0.4670   -0.4292 H   0  0  0  0  0  0  0  0  0  0  0  0
   -0.2814   -2.4967   -0.5428 H   0  0  0  0  0  0  0  0  0  0  0  0
  1  2  3  0
  1  5  1  0
  2  3  1  0
  3  4  2  3
  4  6  1  0
  4  7  1  0
  8  9  2  3
  8 10  1  0
  8 11  1  0
  9 12  1  0
  9 13  1  0
M  RAD  1   3   2
M  END
>  <reaction>  (11) 
rxn_1604

>  <mol_properties>  (11) 
{"1": {"label": "*0", "atom_type": "Ct"}, "2": {"label": "*1", "atom_type": "Cd"}, "7": {"label": "*4", "atom_type": "Cd"}, "8": {"label": "*3", "atom_type": "Cd"}, "11": {"label": "*2", "atom_type": "H0"}}

>  <type>  (11) 
unop_7

>  <geom_source>  (11) 
Heuristics

$$$$

     RDKit          3D

 13 11  0  0  0  0  0  0  0  0999 V2000
   -1.9660    1.5128    0.9914 C   0  0  0  0  0  0  0  0  0  0  0  0
   -0.8793    1.0716    0.7400 C   0  0  0  0  0  0  0  0  0  0  0  0
    0.4019    0.5395    0.4122 C   0  0  0  0  0  3  0  0  0  0  0  0
    1.4361    0.5283    1.2464 C   0  0  0  0  0  0  0  0  0  0  0  0
   -2.9294    1.9039    1.2143 H   0  0  0  0  0  0  0  0  0  0  0  0
    2.3868    0.1104    0.9428 H   0  0  0  0  0  0  0  0  0  0  0  0
    1.3600    0.9334    2.2473 H   0  0  0  0  0  0  0  0  0  0  0  0
    0.4019   -1.6761   -2.2746 C   0  0  0  0  0  0  0  0  0  0  0  0
    0.4019   -1.6761   -0.9528 C   0  0  0  0  0  0  0  0  0  0  0  0
    0.4019   -0.7535   -2.8429 H   0  0  0  0  0  0  0  0  0  0  0  0
    0.4019   -2.5987   -2.8429 H   0  0  0  0  0  0  0  0  0  0  0  0
    0.4019   -0.5690   -0.2708 H   0  0  0  0  0  0  0  0  0  0  0  0
    0.4019   -2.5987   -0.3844 H   0  0  0  0  0  0  0  0  0  0  0  0
  1  2  3  0
  1  5  1  0
  2  3  1  0
  3  4  2  3
  4  6  1  0
  4  7  1  0
  8  9  2  3
  8 10  1  0
  8 11  1  0
  9 12  1  0
  9 13  1  0
M  RAD  1   3   2
M  END
>  <reaction>  (12) 
rxn_1604

>  <mol_properties>  (12) 
{"1": {"label": "*0", "atom_type": "Ct"}, "2": {"label": "*1", "atom_type": "Cd"}, "7": {"label": "*4", "atom_type": "Cd"}, "8": {"label": "*3", "atom_type": "Cd"}, "11": {"label": "*2", "atom_type": "H0"}}

>  <type>  (12) 
unop_8

>  <geom_source>  (12) 
Heuristics

$$$$

     RDKit          3D

 13 11  0  0  0  0  0  0  0  0999 V2000
    0.9317    2.3213   -0.3962 C   0  0  0  0  0  0  0  0  0  0  0  0
    0.3943    1.3964    0.1464 C   0  0  0  0  0  0  0  0  0  0  0  0
   -0.2463    0.2823    0.7632 C   0  0  0  0  0  3  0  0  0  0  0  0
   -0.5166    0.2076    2.0621 C   0  0  0  0  0  0  0  0  0  0  0  0
    1.4081    3.1414   -0.8773 H   0  0  0  0  0  0  0  0  0  0  0  0
   -1.0055   -0.6644    2.4758 H   0  0  0  0  0  0  0  0  0  0  0  0
   -0.2581    1.0103    2.7408 H   0  0  0  0  0  0  0  0  0  0  0  0
   -0.2463   -1.9333   -1.9235 C   0  0  0  0  0  0  0  0  0  0  0  0
   -0.2463   -1.9333   -0.6018 C   0  0  0  0  0  0  0  0  0  0  0  0
   -0.2463   -1.0107   -2.4919 H   0  0  0  0  0  0  0  0  0  0  0  0
   -0.2463   -2.8559   -2.4919 H   0  0  0  0  0  0  0  0  0  0  0  0
   -0.2463   -0.8262    0.0803 H   0  0  0  0  0  0  0  0  0  0  0  0
   -0.2463   -2.8559   -0.0334 H   0  0  0  0  0  0  0  0  0  0  0  0
  1  2  3  0
  1  5  1  0
  2  3  1  0
  3  4  2  3
  4  6  1  0
  4  7  1  0
  8  9  2  3
  8 10  1  0
  8 11  1  0
  9 12  1  0
  9 13  1  0
M  RAD  1   3   2
M  END
>  <reaction>  (13) 
rxn_1604

>  <mol_properties>  (13) 
{"1": {"label": "*0", "atom_type": "Ct"}, "2": {"label": "*1", "atom_type": "Cd"}, "7": {"label": "*4", "atom_type": "Cd"}, "8": {"label": "*3", "atom_type": "Cd"}, "11": {"label": "*2", "atom_type": "H0"}}

>  <type>  (13) 
unop_9

>  <geom_source>  (13) 
Heuristics

$$$$

     RDKit          3D

 13 11  0  0  0  0  0  0  0  0999 V2000
   -1.6496    1.9922    0.1785 C   0  0  0  0  0  0  0  0  0  0  0  0
   -0.7148    1.2703    0.3869 C   0  0  0  0  0  0  0  0  0  0  0  0
    0.3948    0.4022    0.6045 C   0  0  0  0  0  3  0  0  0  0  0  0
    1.0359    0.2938    1.7634 C   0  0  0  0  0  0  0  0  0  0  0  0
   -2.4786    2.6323   -0.0062 H   0  0  0  0  0  0  0  0  0  0  0  0
    1.8732   -0.3829    1.8708 H   0  0  0  0  0  0  0  0  0  0  0  0
    0.7427    0.8744    2.6286 H   0  0  0  0  0  0  0  0  0  0  0  0
    0.3948   -1.8135   -2.0822 C   0  0  0  0  0  0  0  0  0  0  0  0
    0.3948   -1.8135   -0.7605 C   0  0  0  0  0  0  0  0  0  0  0  0
    0.3948   -0.8909   -2.6506 H   0  0  0  0  0  0  0  0  0  0  0  0
    0.3948   -2.7361   -2.6506 H   0  0  0  0  0  0  0  0  0  0  0  0
    0.3948   -0.7064   -0.0784 H   0  0  0  0  0  0  0  0  0  0  0  0
    0.3948   -2.7361   -0.1921 H   0  0  0  0  0  0  0  0  0  0  0  0
  1  2  3  0
  1  5  1  0
  2  3  1  0
  3  4  2  3
  4  6  1  0
  4  7  1  0
  8  9  2  3
  8 10  1  0
  8 11  1  0
  9 12  1  0
  9 13  1  0
M  RAD  1   3   2
M  END
>  <reaction>  (14) 
rxn_1604

>  <mol_properties>  (14) 
{"1": {"label": "*0", "atom_type": "Ct"}, "2": {"label": "*1", "atom_type": "Cd"}, "7": {"label": "*4", "atom_type": "Cd"}, "8": {"label": "*3", "atom_type": "Cd"}, "11": {"label": "*2", "atom_type": "H0"}}

>  <type>  (14) 
unop_10

>  <geom_source>  (14) 
Heuristics

$$$$

     RDKit          3D

 13 11  0  0  0  0  0  0  0  0999 V2000
    1.0934    0.5550    2.5127 C   0  0  0  0  0  0  0  0  0  0  0  0
    0.5372    0.6150    1.4518 C   0  0  0  0  0  0  0  0  0  0  0  0
   -0.1034    0.6649    0.1793 C   0  0  0  0  0  3  0  0  0  0  0  0
   -1.1514    1.4348   -0.0941 C   0  0  0  0  0  0  0  0  0  0  0  0
    1.5865    0.5018    3.4534 H   0  0  0  0  0  0  0  0  0  0  0  0
   -1.5975    1.4317   -1.0797 H   0  0  0  0  0  0  0  0  0  0  0  0
   -1.5874    2.0835    0.6548 H   0  0  0  0  0  0  0  0  0  0  0  0
   -0.1034   -1.5508   -2.5075 C   0  0  0  0  0  0  0  0  0  0  0  0
   -0.1034   -1.5508   -1.1857 C   0  0  0  0  0  0  0  0  0  0  0  0
   -0.1034   -0.6282   -3.0759 H   0  0  0  0  0  0  0  0  0  0  0  0
   -0.1034   -2.4734   -3.0759 H   0  0  0  0  0  0  0  0  0  0  0  0
   -0.1034   -0.4437   -0.5037 H   0  0  0  0  0  0  0  0  0  0  0  0
   -0.1034   -2.4734   -0.6174 H   0  0  0  0  0  0  0  0  0  0  0  0
  1  2  3  0
  1  5  1  0
  2  3  1  0
  3  4  2  3
  4  6  1  0
  4  7  1  0
  8  9  2  3
  8 10  1  0
  8 11  1  0
  9 12  1  0
  9 13  1  0
M  RAD  1   3   2
M  END
>  <reaction>  (15) 
rxn_1604

>  <mol_properties>  (15) 
{"1": {"label": "*0", "atom_type": "Ct"}, "2": {"label": "*1", "atom_type": "Cd"}, "7": {"label": "*4", "atom_type": "Cd"}, "8": {"label": "*3", "atom_type": "Cd"}, "11": {"label": "*2", "atom_type": "H0"}}

>  <type>  (15) 
unop_11

>  <geom_source>  (15) 
Heuristics

$$$$

     RDKit          3D

 13 11  0  0  0  0  0  0  0  0999 V2000
   -0.0000    2.4365   -0.6020 C   0  0  0  0  0  0  0  0  0  0  0  0
    0.0000    1.4379    0.0623 C   0  0  0  0  0  0  0  0  0  0  0  0
    0.0000    0.2337    0.8253 C   0  0  0  0  0  3  0  0  0  0  0  0
   -0.0000    0.1971    2.1536 C   0  0  0  0  0  0  0  0  0  0  0  0
   -0.0000    3.3218   -1.1911 H   0  0  0  0  0  0  0  0  0  0  0  0
   -0.0000   -0.7478    2.6806 H   0  0  0  0  0  0  0  0  0  0  0  0
   -0.0000    1.1040    2.7446 H   0  0  0  0  0  0  0  0  0  0  0  0
    0.0000   -1.9819   -1.8614 C   0  0  0  0  0  0  0  0  0  0  0  0
    0.0000   -1.9819   -0.5397 C   0  0  0  0  0  0  0  0  0  0  0  0
    0.0000   -1.0593   -2.4298 H   0  0  0  0  0  0  0  0  0  0  0  0
    0.0000   -2.9045   -2.4298 H   0  0  0  0  0  0  0  0  0  0  0  0
    0.0000   -0.8748    0.1424 H   0  0  0  0  0  0  0  0  0  0  0  0
   -0.0000   -2.9045    0.0287 H   0  0  0  0  0  0  0  0  0  0  0  0
  1  2  3  0
  1  5  1  0
  2  3  1  0
  3  4  2  3
  4  6  1  0
  4  7  1  0
  8  9  2  3
  8 10  1  0
  8 11  1  0
  9 12  1  0
  9 13  1  0
M  RAD  1   3   2
M  END
>  <reaction>  (16) 
rxn_1604

>  <mol_properties>  (16) 
{"1": {"label": "*0", "atom_type": "Ct"}, "2": {"label": "*1", "atom_type": "Cd"}, "7": {"label": "*4", "atom_type": "Cd"}, "8": {"label": "*3", "atom_type": "Cd"}, "11": {"label": "*2", "atom_type": "H0"}}

>  <type>  (16) 
unop_12

>  <geom_source>  (16) 
Heuristics

$$$$

     RDKit          3D

 13 11  0  0  0  0  0  0  0  0999 V2000
   -0.8932   -0.3938   -0.0817 C   0  0  0  0  0  3  0  0  0  0  0  0
   -1.4493   -1.5879   -0.2467 C   0  0  0  0  0  0  0  0  0  0  0  0
    2.6463    0.5991   -0.3317 C   0  0  0  0  0  0  0  0  0  0  0  0
   -1.6942    0.7544    0.2467 C   0  0  0  0  0  0  0  0  0  0  0  0
    1.6494   -0.0236    0.2905 C   0  0  0  0  0  0  0  0  0  0  0  0
   -2.3647    1.7177    0.5221 C   0  0  0  0  0  0  0  0  0  0  0  0
    0.4631   -0.2494   -0.2257 H   0  0  0  0  0  0  0  0  0  0  0  0
   -2.5182   -1.7290   -0.1386 H   0  0  0  0  0  0  0  0  0  0  0  0
   -0.8290   -2.4389   -0.4935 H   0  0  0  0  0  0  0  0  0  0  0  0
    3.6588    0.2141   -0.2671 H   0  0  0  0  0  0  0  0  0  0  0  0
    2.4472    1.4965   -0.9070 H   0  0  0  0  0  0  0  0  0  0  0  0
    1.8374   -0.9223    0.8689 H   0  0  0  0  0  0  0  0  0  0  0  0
   -2.9534    2.5633    0.7639 H   0  0  0  0  0  0  0  0  0  0  0  0
  1  2  2  3
  1  4  1  0
  2  8  1  0
  2  9  1  0
  3  5  2  3
  3 10  1  0
  3 11  1  0
  4  6  3  0
  5  7  1  0
  5 12  1  0
  6 13  1  0
M  RAD  1   1   2
M  END
>  <reaction>  (17) 
rxn_1604

>  <mol_properties>  (17) 
{"1": {"label": "*0", "atom_type": "Ct"}, "2": {"label": "*1", "atom_type": "Cd"}, "7": {"label": "*4", "atom_type": "Cd"}, "8": {"label": "*3", "atom_type": "Cd"}, "11": {"label": "*2", "atom_type": "H0"}}

>  <type>  (17) 
unop_13

>  <geom_source>  (17) 
AutoTST

$$$$
