
     RDKit          3D

 14 13  0  0  0  0  0  0  0  0999 V2000
   -0.7648   -1.2351   -0.0348 C   0  0  0  0  0  0  0  0  0  0  0  0
    0.0570   -0.0126    0.3624 C   0  0  0  0  0  0  0  0  0  0  0  0
    1.4161   -0.0194   -0.3308 C   0  0  0  0  0  0  0  0  0  0  0  0
   -0.7022    1.2765    0.0629 C   0  0  0  0  0  0  0  0  0  0  0  0
   -0.2387   -2.1619    0.2039 H   0  0  0  0  0  0  0  0  0  0  0  0
   -0.9626   -1.2315   -1.1107 H   0  0  0  0  0  0  0  0  0  0  0  0
   -1.7273   -1.2512    0.4807 H   0  0  0  0  0  0  0  0  0  0  0  0
    0.2295   -0.0589    1.4432 H   0  0  0  0  0  0  0  0  0  0  0  0
    1.2932    0.0258   -1.4169 H   0  0  0  0  0  0  0  0  0  0  0  0
    2.0206    0.8381   -0.0280 H   0  0  0  0  0  0  0  0  0  0  0  0
    1.9767   -0.9269   -0.0966 H   0  0  0  0  0  0  0  0  0  0  0  0
   -1.6639    1.3001    0.5798 H   0  0  0  0  0  0  0  0  0  0  0  0
   -0.8976    1.3665   -1.0097 H   0  0  0  0  0  0  0  0  0  0  0  0
   -0.1313    2.1545    0.3722 H   0  0  0  0  0  0  0  0  0  0  0  0
  1  2  1  0
  1  5  1  0
  1  6  1  0
  1  7  1  0
  2  3  1  0
  2  4  1  0
  2  8  1  0
  3  9  1  0
  3 10  1  0
  3 11  1  0
  4 12  1  0
  4 13  1  0
  4 14  1  0
M  END
>  <reaction>  (1) 
rxn_96

>  <mol_properties>  (1) 
{"0": {"label": "donator", "atom_type": "Cs"}, "4": {"label": "d_hydrogen", "atom_type": "H0"}}

>  <type>  (1) 
r1h

$$$$

     RDKit          3D

  3  2  0  0  0  0  0  0  0  0999 V2000
    0.0002    0.4233    0.0000 N   0  0  0  0  0  2  0  0  0  0  0  0
   -0.8051   -0.2112    0.0000 H   0  0  0  0  0  0  0  0  0  0  0  0
    0.8049   -0.2121    0.0000 H   0  0  0  0  0  0  0  0  0  0  0  0
  1  2  1  0
  1  3  1  0
M  RAD  1   1   2
M  END
>  <reaction>  (2) 
rxn_96

>  <mol_properties>  (2) 
{"0": {"label": "acceptor", "atom_type": "N3s"}}

>  <type>  (2) 
r2

$$$$

     RDKit          3D

  4  3  0  0  0  0  0  0  0  0999 V2000
    0.0006   -0.0009    0.2762 N   0  0  0  0  0  0  0  0  0  0  0  0
   -0.4188    0.8439   -0.0883 H   0  0  0  0  0  0  0  0  0  0  0  0
   -0.5215   -0.7840   -0.0936 H   0  0  0  0  0  0  0  0  0  0  0  0
    0.9397   -0.0590   -0.0943 H   0  0  0  0  0  0  0  0  0  0  0  0
  1  2  1  0
  1  3  1  0
  1  4  1  0
M  END
>  <reaction>  (3) 
rxn_96

>  <mol_properties>  (3) 
{"0": {"label": "acceptor", "atom_type": "N3s"}, "3": {"label": "a_hydrogen", "atom_type": "H0"}}

>  <type>  (3) 
r2h

$$$$

     RDKit          3D

 17 15  0  0  0  0  0  0  0  0999 V2000
   -1.8794    1.9615    0.1067 N   0  0  0  0  0  2  0  0  0  0  0  0
   -1.6159    2.2366   -0.8414 H   0  0  0  0  0  0  0  0  0  0  0  0
   -2.4533    1.1264   -0.0263 H   0  0  0  0  0  0  0  0  0  0  0  0
    0.3149    0.7428    0.7325 C   0  0  0  0  0  0  0  0  0  0  0  0
    0.2012   -0.6786    0.2312 C   0  0  0  0  0  0  0  0  0  0  0  0
    0.0482   -0.7281   -1.2860 C   0  0  0  0  0  0  0  0  0  0  0  0
    1.4105   -1.5023    0.6817 C   0  0  0  0  0  0  0  0  0  0  0  0
   -0.7629    1.3986    0.4904 H   0  0  0  0  0  0  0  0  0  0  0  0
    1.0964    1.3225    0.2377 H   0  0  0  0  0  0  0  0  0  0  0  0
    0.3874    0.8323    1.8164 H   0  0  0  0  0  0  0  0  0  0  0  0
   -0.6917   -1.1267    0.6812 H   0  0  0  0  0  0  0  0  0  0  0  0
    0.9241   -0.2912   -1.7740 H   0  0  0  0  0  0  0  0  0  0  0  0
   -0.0527   -1.7560   -1.6392 H   0  0  0  0  0  0  0  0  0  0  0  0
   -0.8303   -0.1698   -1.6145 H   0  0  0  0  0  0  0  0  0  0  0  0
    1.5088   -1.5010    1.7686 H   0  0  0  0  0  0  0  0  0  0  0  0
    2.3325   -1.0931    0.2601 H   0  0  0  0  0  0  0  0  0  0  0  0
    1.3212   -2.5392    0.3502 H   0  0  0  0  0  0  0  0  0  0  0  0
  1  2  1  0
  1  3  1  0
  4  5  1  0
  4  8  1  0
  4  9  1  0
  4 10  1  0
  5  6  1  0
  5  7  1  0
  5 11  1  0
  6 12  1  0
  6 13  1  0
  6 14  1  0
  7 15  1  0
  7 16  1  0
  7 17  1  0
M  RAD  1   1   2
M  END
>  <reaction>  (4) 
rxn_96

>  <mol_properties>  (4) 
{"0": {"label": "*3", "atom_type": "N3s"}, "1": {"label": "*4", "atom_type": "H0"}, "3": {"label": "*1", "atom_type": "Cs"}, "4": {"label": "*0", "atom_type": "Cs"}, "7": {"label": "*2", "atom_type": "H0"}}

>  <type>  (4) 
ts

$$$$

     RDKit          3D

 17 15  0  0  0  0  0  0  0  0999 V2000
   -1.7999    1.9972   -0.1542 N   0  0  0  0  0  0  0  0  0  0  0  0
   -2.3368    2.2878    0.6521 H   0  0  0  0  0  0  0  0  0  0  0  0
   -1.0475    2.6725   -0.1319 H   0  0  0  0  0  0  0  0  0  0  0  0
    0.1892    0.6917    0.6878 C   0  0  0  0  0  3  0  0  0  0  0  0
    0.1892   -0.7330    0.1418 C   0  0  0  0  0  0  0  0  0  0  0  0
    0.1892   -0.7330   -1.3840 C   0  0  0  0  0  0  0  0  0  0  0  0
    1.3720   -1.5271    0.6878 C   0  0  0  0  0  0  0  0  0  0  0  0
   -0.8436    1.3695    0.2507 H   0  0  0  0  0  0  0  0  0  0  0  0
    1.0932    1.2225    0.3753 H   0  0  0  0  0  0  0  0  0  0  0  0
    0.1596    0.6984    1.7794 H   0  0  0  0  0  0  0  0  0  0  0  0
   -0.7305   -1.2233    0.4789 H   0  0  0  0  0  0  0  0  0  0  0  0
    1.0931   -0.2510   -1.7677 H   0  0  0  0  0  0  0  0  0  0  0  0
    0.1598   -1.7498   -1.7810 H   0  0  0  0  0  0  0  0  0  0  0  0
   -0.6716   -0.1907   -1.7810 H   0  0  0  0  0  0  0  0  0  0  0  0
    1.3613   -1.5551    1.7794 H   0  0  0  0  0  0  0  0  0  0  0  0
    2.3166   -1.0725    0.3750 H   0  0  0  0  0  0  0  0  0  0  0  0
    1.3611   -2.5565    0.3237 H   0  0  0  0  0  0  0  0  0  0  0  0
  1  2  1  0
  1  3  1  0
  1  8  1  0
  4  5  1  0
  4  9  1  0
  4 10  1  0
  5  6  1  0
  5  7  1  0
  5 11  1  0
  6 12  1  0
  6 13  1  0
  6 14  1  0
  7 15  1  0
  7 16  1  0
  7 17  1  0
M  RAD  1   4   2
M  END
>  <reaction>  (5) 
rxn_96

>  <mol_properties>  (5) 
{"0": {"label": "*3", "atom_type": "N3s"}, "1": {"label": "*4", "atom_type": "H0"}, "3": {"label": "*1", "atom_type": "Cs"}, "4": {"label": "*0", "atom_type": "Cs"}, "7": {"label": "*2", "atom_type": "H0"}}

>  <type>  (5) 
unop_1

>  <geom_source>  (5) 
Heuristics

$$$$

     RDKit          3D

 17 15  0  0  0  0  0  0  0  0999 V2000
   -1.7890    2.0147   -0.1536 N   0  0  0  0  0  0  0  0  0  0  0  0
   -2.5429    1.3577   -0.3039 H   0  0  0  0  0  0  0  0  0  0  0  0
   -1.6200    2.3547    0.7836 H   0  0  0  0  0  0  0  0  0  0  0  0
    0.2001    0.7091    0.6884 C   0  0  0  0  0  3  0  0  0  0  0  0
    0.2001   -0.7155    0.1423 C   0  0  0  0  0  0  0  0  0  0  0  0
    0.2001   -0.7155   -1.3834 C   0  0  0  0  0  0  0  0  0  0  0  0
    1.3829   -1.5096    0.6884 C   0  0  0  0  0  0  0  0  0  0  0  0
   -0.8327    1.3870    0.2512 H   0  0  0  0  0  0  0  0  0  0  0  0
    1.1041    1.2399    0.3759 H   0  0  0  0  0  0  0  0  0  0  0  0
    0.1705    0.7159    1.7800 H   0  0  0  0  0  0  0  0  0  0  0  0
   -0.7197   -1.2059    0.4795 H   0  0  0  0  0  0  0  0  0  0  0  0
    1.1040   -0.2335   -1.7671 H   0  0  0  0  0  0  0  0  0  0  0  0
    0.1707   -1.7324   -1.7804 H   0  0  0  0  0  0  0  0  0  0  0  0
   -0.6607   -0.1733   -1.7804 H   0  0  0  0  0  0  0  0  0  0  0  0
    1.3722   -1.5377    1.7800 H   0  0  0  0  0  0  0  0  0  0  0  0
    2.3275   -1.0551    0.3755 H   0  0  0  0  0  0  0  0  0  0  0  0
    1.3720   -2.5391    0.3243 H   0  0  0  0  0  0  0  0  0  0  0  0
  1  2  1  0
  1  3  1  0
  1  8  1  0
  4  5  1  0
  4  9  1  0
  4 10  1  0
  5  6  1  0
  5  7  1  0
  5 11  1  0
  6 12  1  0
  6 13  1  0
  6 14  1  0
  7 15  1  0
  7 16  1  0
  7 17  1  0
M  RAD  1   4   2
M  END
>  <reaction>  (6) 
rxn_96

>  <mol_properties>  (6) 
{"0": {"label": "*3", "atom_type": "N3s"}, "1": {"label": "*4", "atom_type": "H0"}, "3": {"label": "*1", "atom_type": "Cs"}, "4": {"label": "*0", "atom_type": "Cs"}, "7": {"label": "*2", "atom_type": "H0"}}

>  <type>  (6) 
unop_2

>  <geom_source>  (6) 
Heuristics

$$$$

     RDKit          3D

 17 15  0  0  0  0  0  0  0  0999 V2000
   -1.8021    1.9923   -0.1461 N   0  0  0  0  0  0  0  0  0  0  0  0
   -2.0421    2.6722    0.5629 H   0  0  0  0  0  0  0  0  0  0  0  0
   -1.1890    2.6423   -0.6197 H   0  0  0  0  0  0  0  0  0  0  0  0
    0.1870    0.6867    0.6959 C   0  0  0  0  0  3  0  0  0  0  0  0
    0.1870   -0.7379    0.1498 C   0  0  0  0  0  0  0  0  0  0  0  0
    0.1870   -0.7379   -1.3759 C   0  0  0  0  0  0  0  0  0  0  0  0
    1.3699   -1.5320    0.6959 C   0  0  0  0  0  0  0  0  0  0  0  0
   -0.8457    1.3646    0.2587 H   0  0  0  0  0  0  0  0  0  0  0  0
    1.0911    1.2175    0.3834 H   0  0  0  0  0  0  0  0  0  0  0  0
    0.1575    0.6935    1.7875 H   0  0  0  0  0  0  0  0  0  0  0  0
   -0.7327   -1.2283    0.4870 H   0  0  0  0  0  0  0  0  0  0  0  0
    1.0910   -0.2559   -1.7596 H   0  0  0  0  0  0  0  0  0  0  0  0
    0.1576   -1.7548   -1.7729 H   0  0  0  0  0  0  0  0  0  0  0  0
   -0.6737   -0.1957   -1.7729 H   0  0  0  0  0  0  0  0  0  0  0  0
    1.3592   -1.5601    1.7875 H   0  0  0  0  0  0  0  0  0  0  0  0
    2.3145   -1.0775    0.3830 H   0  0  0  0  0  0  0  0  0  0  0  0
    1.3590   -2.5615    0.3318 H   0  0  0  0  0  0  0  0  0  0  0  0
  1  2  1  0
  1  3  1  0
  1  8  1  0
  4  5  1  0
  4  9  1  0
  4 10  1  0
  5  6  1  0
  5  7  1  0
  5 11  1  0
  6 12  1  0
  6 13  1  0
  6 14  1  0
  7 15  1  0
  7 16  1  0
  7 17  1  0
M  RAD  1   4   2
M  END
>  <reaction>  (7) 
rxn_96

>  <mol_properties>  (7) 
{"0": {"label": "*3", "atom_type": "N3s"}, "1": {"label": "*4", "atom_type": "H0"}, "3": {"label": "*1", "atom_type": "Cs"}, "4": {"label": "*0", "atom_type": "Cs"}, "7": {"label": "*2", "atom_type": "H0"}}

>  <type>  (7) 
unop_3

>  <geom_source>  (7) 
Heuristics

$$$$

     RDKit          3D

 17 15  0  0  0  0  0  0  0  0999 V2000
   -1.7851    2.0116   -0.1343 N   0  0  0  0  0  0  0  0  0  0  0  0
   -1.7281    2.0360   -1.1437 H   0  0  0  0  0  0  0  0  0  0  0  0
   -2.7144    1.8954    0.2470 H   0  0  0  0  0  0  0  0  0  0  0  0
    0.2040    0.7060    0.7076 C   0  0  0  0  0  3  0  0  0  0  0  0
    0.2040   -0.7186    0.1616 C   0  0  0  0  0  0  0  0  0  0  0  0
    0.2040   -0.7186   -1.3641 C   0  0  0  0  0  0  0  0  0  0  0  0
    1.3868   -1.5127    0.7076 C   0  0  0  0  0  0  0  0  0  0  0  0
   -0.8288    1.3839    0.2705 H   0  0  0  0  0  0  0  0  0  0  0  0
    1.1080    1.2368    0.3951 H   0  0  0  0  0  0  0  0  0  0  0  0
    0.1744    0.7128    1.7993 H   0  0  0  0  0  0  0  0  0  0  0  0
   -0.7158   -1.2089    0.4987 H   0  0  0  0  0  0  0  0  0  0  0  0
    1.1079   -0.2366   -1.7479 H   0  0  0  0  0  0  0  0  0  0  0  0
    0.1746   -1.7355   -1.7612 H   0  0  0  0  0  0  0  0  0  0  0  0
   -0.6568   -0.1764   -1.7612 H   0  0  0  0  0  0  0  0  0  0  0  0
    1.3761   -1.5408    1.7992 H   0  0  0  0  0  0  0  0  0  0  0  0
    2.3314   -1.0582    0.3948 H   0  0  0  0  0  0  0  0  0  0  0  0
    1.3759   -2.5422    0.3435 H   0  0  0  0  0  0  0  0  0  0  0  0
  1  2  1  0
  1  3  1  0
  1  8  1  0
  4  5  1  0
  4  9  1  0
  4 10  1  0
  5  6  1  0
  5  7  1  0
  5 11  1  0
  6 12  1  0
  6 13  1  0
  6 14  1  0
  7 15  1  0
  7 16  1  0
  7 17  1  0
M  RAD  1   4   2
M  END
>  <reaction>  (8) 
rxn_96

>  <mol_properties>  (8) 
{"0": {"label": "*3", "atom_type": "N3s"}, "1": {"label": "*4", "atom_type": "H0"}, "3": {"label": "*1", "atom_type": "Cs"}, "4": {"label": "*0", "atom_type": "Cs"}, "7": {"label": "*2", "atom_type": "H0"}}

>  <type>  (8) 
unop_4

>  <geom_source>  (8) 
Heuristics

$$$$

     RDKit          3D

 17 15  0  0  0  0  0  0  0  0999 V2000
   -1.7982    1.9920   -0.1357 N   0  0  0  0  0  0  0  0  0  0  0  0
   -1.7415    2.9214    0.2588 H   0  0  0  0  0  0  0  0  0  0  0  0
   -1.7665    2.4121   -1.0550 H   0  0  0  0  0  0  0  0  0  0  0  0
    0.1909    0.6864    0.7062 C   0  0  0  0  0  3  0  0  0  0  0  0
    0.1909   -0.7382    0.1602 C   0  0  0  0  0  0  0  0  0  0  0  0
    0.1909   -0.7382   -1.3655 C   0  0  0  0  0  0  0  0  0  0  0  0
    1.3737   -1.5323    0.7062 C   0  0  0  0  0  0  0  0  0  0  0  0
   -0.8419    1.3643    0.2691 H   0  0  0  0  0  0  0  0  0  0  0  0
    1.0950    1.2172    0.3937 H   0  0  0  0  0  0  0  0  0  0  0  0
    0.1613    0.6932    1.7978 H   0  0  0  0  0  0  0  0  0  0  0  0
   -0.7288   -1.2285    0.4973 H   0  0  0  0  0  0  0  0  0  0  0  0
    1.0949   -0.2562   -1.7493 H   0  0  0  0  0  0  0  0  0  0  0  0
    0.1615   -1.7551   -1.7626 H   0  0  0  0  0  0  0  0  0  0  0  0
   -0.6698   -0.1960   -1.7626 H   0  0  0  0  0  0  0  0  0  0  0  0
    1.3631   -1.5604    1.7978 H   0  0  0  0  0  0  0  0  0  0  0  0
    2.3183   -1.0778    0.3934 H   0  0  0  0  0  0  0  0  0  0  0  0
    1.3628   -2.5618    0.3421 H   0  0  0  0  0  0  0  0  0  0  0  0
  1  2  1  0
  1  3  1  0
  1  8  1  0
  4  5  1  0
  4  9  1  0
  4 10  1  0
  5  6  1  0
  5  7  1  0
  5 11  1  0
  6 12  1  0
  6 13  1  0
  6 14  1  0
  7 15  1  0
  7 16  1  0
  7 17  1  0
M  RAD  1   4   2
M  END
>  <reaction>  (9) 
rxn_96

>  <mol_properties>  (9) 
{"0": {"label": "*3", "atom_type": "N3s"}, "1": {"label": "*4", "atom_type": "H0"}, "3": {"label": "*1", "atom_type": "Cs"}, "4": {"label": "*0", "atom_type": "Cs"}, "7": {"label": "*2", "atom_type": "H0"}}

>  <type>  (9) 
unop_5

>  <geom_source>  (9) 
Heuristics

$$$$

     RDKit          3D

 17 15  0  0  0  0  0  0  0  0999 V2000
   -1.7871    2.0059   -0.1313 N   0  0  0  0  0  0  0  0  0  0  0  0
   -1.5129    2.4554   -0.9946 H   0  0  0  0  0  0  0  0  0  0  0  0
   -2.7909    1.8845   -0.1230 H   0  0  0  0  0  0  0  0  0  0  0  0
    0.2020    0.7003    0.7107 C   0  0  0  0  0  3  0  0  0  0  0  0
    0.2020   -0.7243    0.1647 C   0  0  0  0  0  0  0  0  0  0  0  0
    0.2020   -0.7243   -1.3611 C   0  0  0  0  0  0  0  0  0  0  0  0
    1.3849   -1.5184    0.7107 C   0  0  0  0  0  0  0  0  0  0  0  0
   -0.8307    1.3782    0.2736 H   0  0  0  0  0  0  0  0  0  0  0  0
    1.1061    1.2311    0.3982 H   0  0  0  0  0  0  0  0  0  0  0  0
    0.1725    0.7071    1.8023 H   0  0  0  0  0  0  0  0  0  0  0  0
   -0.7177   -1.2146    0.5018 H   0  0  0  0  0  0  0  0  0  0  0  0
    1.1060   -0.2423   -1.7448 H   0  0  0  0  0  0  0  0  0  0  0  0
    0.1726   -1.7412   -1.7581 H   0  0  0  0  0  0  0  0  0  0  0  0
   -0.6587   -0.1821   -1.7581 H   0  0  0  0  0  0  0  0  0  0  0  0
    1.3742   -1.5465    1.8023 H   0  0  0  0  0  0  0  0  0  0  0  0
    2.3295   -1.0639    0.3979 H   0  0  0  0  0  0  0  0  0  0  0  0
    1.3740   -2.5479    0.3466 H   0  0  0  0  0  0  0  0  0  0  0  0
  1  2  1  0
  1  3  1  0
  1  8  1  0
  4  5  1  0
  4  9  1  0
  4 10  1  0
  5  6  1  0
  5  7  1  0
  5 11  1  0
  6 12  1  0
  6 13  1  0
  6 14  1  0
  7 15  1  0
  7 16  1  0
  7 17  1  0
M  RAD  1   4   2
M  END
>  <reaction>  (10) 
rxn_96

>  <mol_properties>  (10) 
{"0": {"label": "*3", "atom_type": "N3s"}, "1": {"label": "*4", "atom_type": "H0"}, "3": {"label": "*1", "atom_type": "Cs"}, "4": {"label": "*0", "atom_type": "Cs"}, "7": {"label": "*2", "atom_type": "H0"}}

>  <type>  (10) 
unop_6

>  <geom_source>  (10) 
Heuristics

$$$$

     RDKit          3D

 17 15  0  0  0  0  0  0  0  0999 V2000
   -1.7890    2.0004   -0.1308 N   0  0  0  0  0  0  0  0  0  0  0  0
   -1.4354    2.7967   -0.6441 H   0  0  0  0  0  0  0  0  0  0  0  0
   -2.7269    1.9382   -0.5038 H   0  0  0  0  0  0  0  0  0  0  0  0
    0.2001    0.6948    0.7112 C   0  0  0  0  0  3  0  0  0  0  0  0
    0.2001   -0.7298    0.1651 C   0  0  0  0  0  0  0  0  0  0  0  0
    0.2001   -0.7298   -1.3606 C   0  0  0  0  0  0  0  0  0  0  0  0
    1.3829   -1.5239    0.7111 C   0  0  0  0  0  0  0  0  0  0  0  0
   -0.8327    1.3727    0.2740 H   0  0  0  0  0  0  0  0  0  0  0  0
    1.1041    1.2256    0.3986 H   0  0  0  0  0  0  0  0  0  0  0  0
    0.1705    0.7016    1.8028 H   0  0  0  0  0  0  0  0  0  0  0  0
   -0.7197   -1.2202    0.5023 H   0  0  0  0  0  0  0  0  0  0  0  0
    1.1040   -0.2478   -1.7444 H   0  0  0  0  0  0  0  0  0  0  0  0
    0.1707   -1.7467   -1.7577 H   0  0  0  0  0  0  0  0  0  0  0  0
   -0.6607   -0.1876   -1.7577 H   0  0  0  0  0  0  0  0  0  0  0  0
    1.3722   -1.5520    1.8027 H   0  0  0  0  0  0  0  0  0  0  0  0
    2.3275   -1.0694    0.3983 H   0  0  0  0  0  0  0  0  0  0  0  0
    1.3720   -2.5534    0.3471 H   0  0  0  0  0  0  0  0  0  0  0  0
  1  2  1  0
  1  3  1  0
  1  8  1  0
  4  5  1  0
  4  9  1  0
  4 10  1  0
  5  6  1  0
  5  7  1  0
  5 11  1  0
  6 12  1  0
  6 13  1  0
  6 14  1  0
  7 15  1  0
  7 16  1  0
  7 17  1  0
M  RAD  1   4   2
M  END
>  <reaction>  (11) 
rxn_96

>  <mol_properties>  (11) 
{"0": {"label": "*3", "atom_type": "N3s"}, "1": {"label": "*4", "atom_type": "H0"}, "3": {"label": "*1", "atom_type": "Cs"}, "4": {"label": "*0", "atom_type": "Cs"}, "7": {"label": "*2", "atom_type": "H0"}}

>  <type>  (11) 
unop_7

>  <geom_source>  (11) 
Heuristics

$$$$

     RDKit          3D

 17 15  0  0  0  0  0  0  0  0999 V2000
   -1.7961    2.0038   -0.1574 N   0  0  0  0  0  0  0  0  0  0  0  0
   -2.5502    1.8693    0.5029 H   0  0  0  0  0  0  0  0  0  0  0  0
   -1.1053    2.6217    0.2471 H   0  0  0  0  0  0  0  0  0  0  0  0
    0.1930    0.6982    0.6846 C   0  0  0  0  0  3  0  0  0  0  0  0
    0.1930   -0.7264    0.1385 C   0  0  0  0  0  0  0  0  0  0  0  0
    0.1930   -0.7264   -1.3872 C   0  0  0  0  0  0  0  0  0  0  0  0
    1.3758   -1.5205    0.6846 C   0  0  0  0  0  0  0  0  0  0  0  0
   -0.8398    1.3761    0.2475 H   0  0  0  0  0  0  0  0  0  0  0  0
    1.0970    1.2290    0.3721 H   0  0  0  0  0  0  0  0  0  0  0  0
    0.1634    0.7050    1.7762 H   0  0  0  0  0  0  0  0  0  0  0  0
   -0.7268   -1.2167    0.4757 H   0  0  0  0  0  0  0  0  0  0  0  0
    1.0969   -0.2444   -1.7709 H   0  0  0  0  0  0  0  0  0  0  0  0
    0.1636   -1.7433   -1.7842 H   0  0  0  0  0  0  0  0  0  0  0  0
   -0.6678   -0.1842   -1.7842 H   0  0  0  0  0  0  0  0  0  0  0  0
    1.3651   -1.5486    1.7762 H   0  0  0  0  0  0  0  0  0  0  0  0
    2.3204   -1.0660    0.3717 H   0  0  0  0  0  0  0  0  0  0  0  0
    1.3649   -2.5500    0.3205 H   0  0  0  0  0  0  0  0  0  0  0  0
  1  2  1  0
  1  3  1  0
  1  8  1  0
  4  5  1  0
  4  9  1  0
  4 10  1  0
  5  6  1  0
  5  7  1  0
  5 11  1  0
  6 12  1  0
  6 13  1  0
  6 14  1  0
  7 15  1  0
  7 16  1  0
  7 17  1  0
M  RAD  1   4   2
M  END
>  <reaction>  (12) 
rxn_96

>  <mol_properties>  (12) 
{"0": {"label": "*3", "atom_type": "N3s"}, "1": {"label": "*4", "atom_type": "H0"}, "3": {"label": "*1", "atom_type": "Cs"}, "4": {"label": "*0", "atom_type": "Cs"}, "7": {"label": "*2", "atom_type": "H0"}}

>  <type>  (12) 
unop_8

>  <geom_source>  (12) 
Heuristics

$$$$

     RDKit          3D

 17 15  0  0  0  0  0  0  0  0999 V2000
   -1.7843    2.0158   -0.1405 N   0  0  0  0  0  0  0  0  0  0  0  0
   -2.0241    1.6508   -1.0525 H   0  0  0  0  0  0  0  0  0  0  0  0
   -2.4772    1.9798    0.5952 H   0  0  0  0  0  0  0  0  0  0  0  0
    0.2048    0.7102    0.7015 C   0  0  0  0  0  3  0  0  0  0  0  0
    0.2048   -0.7144    0.1554 C   0  0  0  0  0  0  0  0  0  0  0  0
    0.2048   -0.7144   -1.3703 C   0  0  0  0  0  0  0  0  0  0  0  0
    1.3876   -1.5085    0.7015 C   0  0  0  0  0  0  0  0  0  0  0  0
   -0.8280    1.3881    0.2643 H   0  0  0  0  0  0  0  0  0  0  0  0
    1.1088    1.2410    0.3890 H   0  0  0  0  0  0  0  0  0  0  0  0
    0.1752    0.7170    1.7931 H   0  0  0  0  0  0  0  0  0  0  0  0
   -0.7149   -1.2047    0.4926 H   0  0  0  0  0  0  0  0  0  0  0  0
    1.1088   -0.2324   -1.7540 H   0  0  0  0  0  0  0  0  0  0  0  0
    0.1754   -1.7312   -1.7673 H   0  0  0  0  0  0  0  0  0  0  0  0
   -0.6559   -0.1721   -1.7673 H   0  0  0  0  0  0  0  0  0  0  0  0
    1.3770   -1.5366    1.7931 H   0  0  0  0  0  0  0  0  0  0  0  0
    2.3322   -1.0539    0.3886 H   0  0  0  0  0  0  0  0  0  0  0  0
    1.3767   -2.5380    0.3374 H   0  0  0  0  0  0  0  0  0  0  0  0
  1  2  1  0
  1  3  1  0
  1  8  1  0
  4  5  1  0
  4  9  1  0
  4 10  1  0
  5  6  1  0
  5  7  1  0
  5 11  1  0
  6 12  1  0
  6 13  1  0
  6 14  1  0
  7 15  1  0
  7 16  1  0
  7 17  1  0
M  RAD  1   4   2
M  END
>  <reaction>  (13) 
rxn_96

>  <mol_properties>  (13) 
{"0": {"label": "*3", "atom_type": "N3s"}, "1": {"label": "*4", "atom_type": "H0"}, "3": {"label": "*1", "atom_type": "Cs"}, "4": {"label": "*0", "atom_type": "Cs"}, "7": {"label": "*2", "atom_type": "H0"}}

>  <type>  (13) 
unop_9

>  <geom_source>  (13) 
Heuristics

$$$$

     RDKit          3D

 17 15  0  0  0  0  0  0  0  0999 V2000
   -1.7925    2.0100   -0.1568 N   0  0  0  0  0  0  0  0  0  0  0  0
   -2.6260    1.5287    0.1533 H   0  0  0  0  0  0  0  0  0  0  0  0
   -1.2907    2.5181    0.5591 H   0  0  0  0  0  0  0  0  0  0  0  0
    0.1966    0.7044    0.6852 C   0  0  0  0  0  3  0  0  0  0  0  0
    0.1966   -0.7202    0.1391 C   0  0  0  0  0  0  0  0  0  0  0  0
    0.1966   -0.7202   -1.3866 C   0  0  0  0  0  0  0  0  0  0  0  0
    1.3795   -1.5143    0.6851 C   0  0  0  0  0  0  0  0  0  0  0  0
   -0.8361    1.3823    0.2480 H   0  0  0  0  0  0  0  0  0  0  0  0
    1.1007    1.2352    0.3726 H   0  0  0  0  0  0  0  0  0  0  0  0
    0.1671    0.7112    1.7768 H   0  0  0  0  0  0  0  0  0  0  0  0
   -0.7231   -1.2105    0.4762 H   0  0  0  0  0  0  0  0  0  0  0  0
    1.1006   -0.2382   -1.7704 H   0  0  0  0  0  0  0  0  0  0  0  0
    0.1672   -1.7371   -1.7837 H   0  0  0  0  0  0  0  0  0  0  0  0
   -0.6641   -0.1780   -1.7837 H   0  0  0  0  0  0  0  0  0  0  0  0
    1.3688   -1.5424    1.7767 H   0  0  0  0  0  0  0  0  0  0  0  0
    2.3241   -1.0598    0.3723 H   0  0  0  0  0  0  0  0  0  0  0  0
    1.3686   -2.5438    0.3211 H   0  0  0  0  0  0  0  0  0  0  0  0
  1  2  1  0
  1  3  1  0
  1  8  1  0
  4  5  1  0
  4  9  1  0
  4 10  1  0
  5  6  1  0
  5  7  1  0
  5 11  1  0
  6 12  1  0
  6 13  1  0
  6 14  1  0
  7 15  1  0
  7 16  1  0
  7 17  1  0
M  RAD  1   4   2
M  END
>  <reaction>  (14) 
rxn_96

>  <mol_properties>  (14) 
{"0": {"label": "*3", "atom_type": "N3s"}, "1": {"label": "*4", "atom_type": "H0"}, "3": {"label": "*1", "atom_type": "Cs"}, "4": {"label": "*0", "atom_type": "Cs"}, "7": {"label": "*2", "atom_type": "H0"}}

>  <type>  (14) 
unop_10

>  <geom_source>  (14) 
Heuristics

$$$$

     RDKit          3D

 17 15  0  0  0  0  0  0  0  0999 V2000
   -1.7919    1.9958   -0.1317 N   0  0  0  0  0  0  0  0  0  0  0  0
   -1.5178    2.9677   -0.1845 H   0  0  0  0  0  0  0  0  0  0  0  0
   -2.4413    2.0950   -0.9005 H   0  0  0  0  0  0  0  0  0  0  0  0
    0.1972    0.6902    0.7103 C   0  0  0  0  0  3  0  0  0  0  0  0
    0.1972   -0.7344    0.1642 C   0  0  0  0  0  0  0  0  0  0  0  0
    0.1972   -0.7344   -1.3615 C   0  0  0  0  0  0  0  0  0  0  0  0
    1.3800   -1.5285    0.7102 C   0  0  0  0  0  0  0  0  0  0  0  0
   -0.8355    1.3681    0.2731 H   0  0  0  0  0  0  0  0  0  0  0  0
    1.1013    1.2210    0.3977 H   0  0  0  0  0  0  0  0  0  0  0  0
    0.1677    0.6970    1.8019 H   0  0  0  0  0  0  0  0  0  0  0  0
   -0.7225   -1.2247    0.5014 H   0  0  0  0  0  0  0  0  0  0  0  0
    1.1012   -0.2524   -1.7453 H   0  0  0  0  0  0  0  0  0  0  0  0
    0.1678   -1.7513   -1.7586 H   0  0  0  0  0  0  0  0  0  0  0  0
   -0.6635   -0.1922   -1.7586 H   0  0  0  0  0  0  0  0  0  0  0  0
    1.3694   -1.5566    1.8019 H   0  0  0  0  0  0  0  0  0  0  0  0
    2.3247   -1.0740    0.3974 H   0  0  0  0  0  0  0  0  0  0  0  0
    1.3692   -2.5580    0.3462 H   0  0  0  0  0  0  0  0  0  0  0  0
  1  2  1  0
  1  3  1  0
  1  8  1  0
  4  5  1  0
  4  9  1  0
  4 10  1  0
  5  6  1  0
  5  7  1  0
  5 11  1  0
  6 12  1  0
  6 13  1  0
  6 14  1  0
  7 15  1  0
  7 16  1  0
  7 17  1  0
M  RAD  1   4   2
M  END
>  <reaction>  (15) 
rxn_96

>  <mol_properties>  (15) 
{"0": {"label": "*3", "atom_type": "N3s"}, "1": {"label": "*4", "atom_type": "H0"}, "3": {"label": "*1", "atom_type": "Cs"}, "4": {"label": "*0", "atom_type": "Cs"}, "7": {"label": "*2", "atom_type": "H0"}}

>  <type>  (15) 
unop_11

>  <geom_source>  (15) 
Heuristics

$$$$

     RDKit          3D

 17 15  0  0  0  0  0  0  0  0999 V2000
   -1.7859    2.0169   -0.1478 N   0  0  0  0  0  0  0  0  0  0  0  0
   -2.3224    1.4025   -0.7455 H   0  0  0  0  0  0  0  0  0  0  0  0
   -2.0687    2.1498    0.8139 H   0  0  0  0  0  0  0  0  0  0  0  0
    0.2033    0.7113    0.6942 C   0  0  0  0  0  3  0  0  0  0  0  0
    0.2033   -0.7133    0.1481 C   0  0  0  0  0  0  0  0  0  0  0  0
    0.2033   -0.7133   -1.3776 C   0  0  0  0  0  0  0  0  0  0  0  0
    1.3861   -1.5074    0.6941 C   0  0  0  0  0  0  0  0  0  0  0  0
   -0.8295    1.3892    0.2570 H   0  0  0  0  0  0  0  0  0  0  0  0
    1.1073    1.2421    0.3816 H   0  0  0  0  0  0  0  0  0  0  0  0
    0.1737    0.7181    1.7858 H   0  0  0  0  0  0  0  0  0  0  0  0
   -0.7165   -1.2036    0.4852 H   0  0  0  0  0  0  0  0  0  0  0  0
    1.1072   -0.2313   -1.7614 H   0  0  0  0  0  0  0  0  0  0  0  0
    0.1739   -1.7301   -1.7747 H   0  0  0  0  0  0  0  0  0  0  0  0
   -0.6575   -0.1711   -1.7747 H   0  0  0  0  0  0  0  0  0  0  0  0
    1.3754   -1.5355    1.7857 H   0  0  0  0  0  0  0  0  0  0  0  0
    2.3307   -1.0529    0.3813 H   0  0  0  0  0  0  0  0  0  0  0  0
    1.3752   -2.5369    0.3301 H   0  0  0  0  0  0  0  0  0  0  0  0
  1  2  1  0
  1  3  1  0
  1  8  1  0
  4  5  1  0
  4  9  1  0
  4 10  1  0
  5  6  1  0
  5  7  1  0
  5 11  1  0
  6 12  1  0
  6 13  1  0
  6 14  1  0
  7 15  1  0
  7 16  1  0
  7 17  1  0
M  RAD  1   4   2
M  END
>  <reaction>  (16) 
rxn_96

>  <mol_properties>  (16) 
{"0": {"label": "*3", "atom_type": "N3s"}, "1": {"label": "*4", "atom_type": "H0"}, "3": {"label": "*1", "atom_type": "Cs"}, "4": {"label": "*0", "atom_type": "Cs"}, "7": {"label": "*2", "atom_type": "H0"}}

>  <type>  (16) 
unop_12

>  <geom_source>  (16) 
Heuristics

$$$$
