
     RDKit          3D

 15 14  0  0  0  0  0  0  0  0999 V2000
    2.1256    0.4849   -0.6284 C   0  0  0  0  0  0  0  0  0  0  0  0
    1.1128    0.2141    0.1794 C   0  0  0  0  0  0  0  0  0  0  0  0
   -0.3017   -0.0425   -0.2513 C   0  0  0  0  0  0  0  0  0  0  0  0
   -1.2427    1.0075    0.3423 C   0  0  0  0  0  0  0  0  0  0  0  0
   -0.7381   -1.4526    0.1504 C   0  0  0  0  0  0  0  0  0  0  0  0
    3.1243    0.6602   -0.2486 H   0  0  0  0  0  0  0  0  0  0  0  0
    1.9908    0.5411   -1.7036 H   0  0  0  0  0  0  0  0  0  0  0  0
    1.2888    0.1665    1.2533 H   0  0  0  0  0  0  0  0  0  0  0  0
   -0.3426    0.0343   -1.3424 H   0  0  0  0  0  0  0  0  0  0  0  0
   -0.9570    2.0133    0.0315 H   0  0  0  0  0  0  0  0  0  0  0  0
   -1.2189    0.9728    1.4350 H   0  0  0  0  0  0  0  0  0  0  0  0
   -2.2723    0.8287    0.0254 H   0  0  0  0  0  0  0  0  0  0  0  0
   -0.6964   -1.5744    1.2363 H   0  0  0  0  0  0  0  0  0  0  0  0
   -0.0911   -2.2079   -0.2978 H   0  0  0  0  0  0  0  0  0  0  0  0
   -1.7646   -1.6461   -0.1677 H   0  0  0  0  0  0  0  0  0  0  0  0
  1  2  2  3
  1  6  1  0
  1  7  1  0
  2  3  1  0
  2  8  1  0
  3  4  1  0
  3  5  1  0
  3  9  1  0
  4 10  1  0
  4 11  1  0
  4 12  1  0
  5 13  1  0
  5 14  1  0
  5 15  1  0
M  END
>  <reaction>  (1) 
rxn_1121

>  <mol_properties>  (1) 
{"2": {"label": "donator", "atom_type": "Cs"}, "8": {"label": "d_hydrogen", "atom_type": "H0"}}

>  <type>  (1) 
r1h

$$$$

     RDKit          3D

  6  5  0  0  0  0  0  0  0  0999 V2000
   -0.5122    0.0769    0.0313 C   0  0  0  0  0  0  0  0  0  0  0  0
    0.8184   -0.5422    0.0757 C   0  0  0  0  0  3  0  0  0  0  0  0
    2.3075   -0.1691   -0.1943 S   0  0  0  0  0  0  0  0  0  0  0  0
   -1.1500   -0.4948   -0.6475 H   0  0  0  0  0  0  0  0  0  0  0  0
   -0.4906    1.1243   -0.2849 H   0  0  0  0  0  0  0  0  0  0  0  0
   -0.9730    0.0050    1.0197 H   0  0  0  0  0  0  0  0  0  0  0  0
  1  2  1  0
  1  4  1  0
  1  5  1  0
  1  6  1  0
  2  3  2  0
M  RAD  1   2   2
M  END
>  <reaction>  (2) 
rxn_1121

>  <mol_properties>  (2) 
{"1": {"label": "acceptor", "atom_type": "CS"}}

>  <type>  (2) 
r2

$$$$

     RDKit          3D

  7  6  0  0  0  0  0  0  0  0999 V2000
   -0.6782    0.0507    0.0301 C   0  0  0  0  0  0  0  0  0  0  0  0
    0.8092    0.0996    0.0213 C   0  0  0  0  0  0  0  0  0  0  0  0
    1.7473    0.7521    1.1507 S   0  0  0  0  0  0  0  0  0  0  0  0
   -1.0667    0.5456   -0.8653 H   0  0  0  0  0  0  0  0  0  0  0  0
   -1.0112   -0.9904   -0.0239 H   0  0  0  0  0  0  0  0  0  0  0  0
   -1.0920    0.5225    0.9188 H   0  0  0  0  0  0  0  0  0  0  0  0
    1.2740   -0.3620   -0.8520 H   0  0  0  0  0  0  0  0  0  0  0  0
  1  2  1  0
  1  4  1  0
  1  5  1  0
  1  6  1  0
  2  3  2  0
  2  7  1  0
M  END
>  <reaction>  (3) 
rxn_1121

>  <mol_properties>  (3) 
{"0": {"label": "a_hydrogen", "atom_type": "H0"}, "2": {"label": "acceptor", "atom_type": "CS"}}

>  <type>  (3) 
r2h

$$$$

     RDKit          3D

 21 19  0  0  0  0  0  0  0  0999 V2000
    0.2971   -2.6795   -1.0621 C   0  0  0  0  0  0  0  0  0  0  0  0
   -0.5518   -2.0573   -0.2428 C   0  0  0  0  0  0  0  0  0  0  0  0
   -0.2202   -1.0557    0.7784 C   0  0  0  0  0  0  0  0  0  0  0  0
    1.2435   -0.8426    1.0837 C   0  0  0  0  0  0  0  0  0  0  0  0
   -1.1090   -1.0766    2.0044 C   0  0  0  0  0  0  0  0  0  0  0  0
   -0.0597   -3.3826   -1.8036 H   0  0  0  0  0  0  0  0  0  0  0  0
    1.3678   -2.5234   -1.0122 H   0  0  0  0  0  0  0  0  0  0  0  0
   -1.6124   -2.2795   -0.3426 H   0  0  0  0  0  0  0  0  0  0  0  0
   -0.5661    0.0798    0.2334 H   0  0  0  0  0  0  0  0  0  0  0  0
    1.8206   -0.6331    0.1811 H   0  0  0  0  0  0  0  0  0  0  0  0
    1.6775   -1.7271    1.5611 H   0  0  0  0  0  0  0  0  0  0  0  0
    1.3691    0.0035    1.7612 H   0  0  0  0  0  0  0  0  0  0  0  0
   -0.8495   -1.9133    2.6612 H   0  0  0  0  0  0  0  0  0  0  0  0
   -2.1612   -1.1803    1.7320 H   0  0  0  0  0  0  0  0  0  0  0  0
   -0.9960   -0.1540    2.5776 H   0  0  0  0  0  0  0  0  0  0  0  0
   -1.0433    1.1504   -1.7816 C   0  0  0  0  0  0  0  0  0  0  0  0
   -0.7485    1.3440   -0.3458 C   0  0  0  0  0  3  0  0  0  0  0  0
   -0.4575    2.6380    0.5197 S   0  0  0  0  0  0  0  0  0  0  0  0
   -0.2925    0.4789   -2.2086 H   0  0  0  0  0  0  0  0  0  0  0  0
   -1.0689    2.0875   -2.3393 H   0  0  0  0  0  0  0  0  0  0  0  0
   -2.0006    0.6311   -1.8841 H   0  0  0  0  0  0  0  0  0  0  0  0
  1  2  2  3
  1  6  1  0
  1  7  1  0
  2  3  1  0
  2  8  1  0
  3  4  1  0
  3  5  1  0
  3  9  1  0
  4 10  1  0
  4 11  1  0
  4 12  1  0
  5 13  1  0
  5 14  1  0
  5 15  1  0
 16 17  1  0
 16 19  1  0
 16 20  1  0
 16 21  1  0
 17 18  2  0
M  RAD  1  17   2
M  END
>  <reaction>  (4) 
rxn_1121

>  <mol_properties>  (4) 
{"1": {"label": "*0", "atom_type": "Cd"}, "2": {"label": "*1", "atom_type": "Cs"}, "8": {"label": "*2", "atom_type": "H0"}, "16": {"label": "*3", "atom_type": "CS"}, "17": {"label": "*4", "atom_type": "S2d"}}

>  <type>  (4) 
ts

$$$$

     RDKit          3D

 21 19  0  0  0  0  0  0  0  0999 V2000
   -0.2347   -2.1629   -1.3295 C   0  0  0  0  0  0  0  0  0  0  0  0
   -0.2347   -2.1629   -0.0060 C   0  0  0  0  0  0  0  0  0  0  0  0
   -0.2347   -0.9415    0.8660 C   0  0  0  0  0  3  0  0  0  0  0  0
    1.0246   -0.9010    1.7337 C   0  0  0  0  0  0  0  0  0  0  0  0
   -1.4940   -0.9010    1.7337 C   0  0  0  0  0  0  0  0  0  0  0  0
   -0.2347   -3.0846   -1.8978 H   0  0  0  0  0  0  0  0  0  0  0  0
   -0.2347   -1.2363   -1.8941 H   0  0  0  0  0  0  0  0  0  0  0  0
   -0.2347   -3.1142    0.5245 H   0  0  0  0  0  0  0  0  0  0  0  0
   -0.2347    0.1149    0.0856 H   0  0  0  0  0  0  0  0  0  0  0  0
    1.9262   -0.8951    1.1195 H   0  0  0  0  0  0  0  0  0  0  0  0
    1.0692   -1.7749    2.3895 H   0  0  0  0  0  0  0  0  0  0  0  0
    1.0322   -0.0098    2.3647 H   0  0  0  0  0  0  0  0  0  0  0  0
   -1.5386   -1.7749    2.3895 H   0  0  0  0  0  0  0  0  0  0  0  0
   -2.3955   -0.8951    1.1195 H   0  0  0  0  0  0  0  0  0  0  0  0
   -1.5015   -0.0098    2.3647 H   0  0  0  0  0  0  0  0  0  0  0  0
   -1.4065    2.0689   -0.5168 C   0  0  0  0  0  0  0  0  0  0  0  0
   -0.2347    1.1686   -0.6928 C   0  0  0  0  0  0  0  0  0  0  0  0
    1.2930    1.6224   -0.8967 S   0  0  0  0  0  0  0  0  0  0  0  0
   -2.1419    1.8717   -1.3029 H   0  0  0  0  0  0  0  0  0  0  0  0
   -1.1167    3.1173   -0.5404 H   0  0  0  0  0  0  0  0  0  0  0  0
   -1.9021    1.8444    0.4327 H   0  0  0  0  0  0  0  0  0  0  0  0
  1  2  2  3
  1  6  1  0
  1  7  1  0
  2  3  1  0
  2  8  1  0
  3  4  1  0
  3  5  1  0
  4 10  1  0
  4 11  1  0
  4 12  1  0
  5 13  1  0
  5 14  1  0
  5 15  1  0
  9 17  1  0
 16 17  1  0
 16 19  1  0
 16 20  1  0
 16 21  1  0
 17 18  2  0
M  RAD  1   3   2
M  END
>  <reaction>  (5) 
rxn_1121

>  <mol_properties>  (5) 
{"1": {"label": "*0", "atom_type": "Cd"}, "2": {"label": "*1", "atom_type": "Cs"}, "8": {"label": "*2", "atom_type": "H0"}, "16": {"label": "*3", "atom_type": "CS"}, "17": {"label": "*4", "atom_type": "S2d"}}

>  <type>  (5) 
unop_1

>  <geom_source>  (5) 
Heuristics

$$$$

     RDKit          3D

 21 19  0  0  0  0  0  0  0  0999 V2000
   -0.0029   -2.2650   -1.3691 C   0  0  0  0  0  0  0  0  0  0  0  0
   -0.0029   -2.2650   -0.0456 C   0  0  0  0  0  0  0  0  0  0  0  0
   -0.0029   -1.0436    0.8264 C   0  0  0  0  0  3  0  0  0  0  0  0
    1.2564   -1.0031    1.6941 C   0  0  0  0  0  0  0  0  0  0  0  0
   -1.2622   -1.0031    1.6941 C   0  0  0  0  0  0  0  0  0  0  0  0
   -0.0029   -3.1867   -1.9374 H   0  0  0  0  0  0  0  0  0  0  0  0
   -0.0029   -1.3384   -1.9337 H   0  0  0  0  0  0  0  0  0  0  0  0
   -0.0029   -3.2163    0.4849 H   0  0  0  0  0  0  0  0  0  0  0  0
   -0.0029    0.0128    0.0460 H   0  0  0  0  0  0  0  0  0  0  0  0
    2.1580   -0.9973    1.0799 H   0  0  0  0  0  0  0  0  0  0  0  0
    1.3010   -1.8770    2.3499 H   0  0  0  0  0  0  0  0  0  0  0  0
    1.2640   -0.1119    2.3251 H   0  0  0  0  0  0  0  0  0  0  0  0
   -1.3068   -1.8770    2.3499 H   0  0  0  0  0  0  0  0  0  0  0  0
   -2.1637   -0.9972    1.0799 H   0  0  0  0  0  0  0  0  0  0  0  0
   -1.2697   -0.1119    2.3251 H   0  0  0  0  0  0  0  0  0  0  0  0
   -0.6794    0.8685   -2.0430 C   0  0  0  0  0  0  0  0  0  0  0  0
   -0.0029    1.0665   -0.7324 C   0  0  0  0  0  0  0  0  0  0  0  0
    0.3428    2.4756   -0.0422 S   0  0  0  0  0  0  0  0  0  0  0  0
   -0.0313    0.2873   -2.7062 H   0  0  0  0  0  0  0  0  0  0  0  0
   -0.9309    1.8163   -2.5143 H   0  0  0  0  0  0  0  0  0  0  0  0
   -1.5876    0.2746   -1.9010 H   0  0  0  0  0  0  0  0  0  0  0  0
  1  2  2  3
  1  6  1  0
  1  7  1  0
  2  3  1  0
  2  8  1  0
  3  4  1  0
  3  5  1  0
  4 10  1  0
  4 11  1  0
  4 12  1  0
  5 13  1  0
  5 14  1  0
  5 15  1  0
  9 17  1  0
 16 17  1  0
 16 19  1  0
 16 20  1  0
 16 21  1  0
 17 18  2  0
M  RAD  1   3   2
M  END
>  <reaction>  (6) 
rxn_1121

>  <mol_properties>  (6) 
{"1": {"label": "*0", "atom_type": "Cd"}, "2": {"label": "*1", "atom_type": "Cs"}, "8": {"label": "*2", "atom_type": "H0"}, "16": {"label": "*3", "atom_type": "CS"}, "17": {"label": "*4", "atom_type": "S2d"}}

>  <type>  (6) 
unop_2

>  <geom_source>  (6) 
Heuristics

$$$$

     RDKit          3D

 21 19  0  0  0  0  0  0  0  0999 V2000
   -0.2244   -2.0883   -1.1765 C   0  0  0  0  0  0  0  0  0  0  0  0
   -0.2244   -2.0883    0.1470 C   0  0  0  0  0  0  0  0  0  0  0  0
   -0.2244   -0.8669    1.0191 C   0  0  0  0  0  3  0  0  0  0  0  0
    1.0349   -0.8264    1.8867 C   0  0  0  0  0  0  0  0  0  0  0  0
   -1.4837   -0.8264    1.8867 C   0  0  0  0  0  0  0  0  0  0  0  0
   -0.2244   -3.0100   -1.7447 H   0  0  0  0  0  0  0  0  0  0  0  0
   -0.2244   -1.1617   -1.7410 H   0  0  0  0  0  0  0  0  0  0  0  0
   -0.2244   -3.0396    0.6776 H   0  0  0  0  0  0  0  0  0  0  0  0
   -0.2244    0.1895    0.2386 H   0  0  0  0  0  0  0  0  0  0  0  0
    1.9364   -0.8206    1.2726 H   0  0  0  0  0  0  0  0  0  0  0  0
    1.0795   -1.7003    2.5425 H   0  0  0  0  0  0  0  0  0  0  0  0
    1.0424    0.0648    2.5177 H   0  0  0  0  0  0  0  0  0  0  0  0
   -1.5283   -1.7003    2.5425 H   0  0  0  0  0  0  0  0  0  0  0  0
   -2.3853   -0.8205    1.2726 H   0  0  0  0  0  0  0  0  0  0  0  0
   -1.4913    0.0648    2.5177 H   0  0  0  0  0  0  0  0  0  0  0  0
   -0.9009    2.4378    0.0346 C   0  0  0  0  0  0  0  0  0  0  0  0
   -0.2244    1.2432   -0.5398 C   0  0  0  0  0  0  0  0  0  0  0  0
    1.0173    1.2501   -1.5593 S   0  0  0  0  0  0  0  0  0  0  0  0
   -1.9634    2.4187   -0.2270 H   0  0  0  0  0  0  0  0  0  0  0  0
   -0.4528    3.3639   -0.3189 H   0  0  0  0  0  0  0  0  0  0  0  0
   -0.8514    2.3974    1.1271 H   0  0  0  0  0  0  0  0  0  0  0  0
  1  2  2  3
  1  6  1  0
  1  7  1  0
  2  3  1  0
  2  8  1  0
  3  4  1  0
  3  5  1  0
  4 10  1  0
  4 11  1  0
  4 12  1  0
  5 13  1  0
  5 14  1  0
  5 15  1  0
  9 17  1  0
 16 17  1  0
 16 19  1  0
 16 20  1  0
 16 21  1  0
 17 18  2  0
M  RAD  1   3   2
M  END
>  <reaction>  (7) 
rxn_1121

>  <mol_properties>  (7) 
{"1": {"label": "*0", "atom_type": "Cd"}, "2": {"label": "*1", "atom_type": "Cs"}, "8": {"label": "*2", "atom_type": "H0"}, "16": {"label": "*3", "atom_type": "CS"}, "17": {"label": "*4", "atom_type": "S2d"}}

>  <type>  (7) 
unop_3

>  <geom_source>  (7) 
Heuristics

$$$$

     RDKit          3D

 21 19  0  0  0  0  0  0  0  0999 V2000
    0.0563   -2.2565   -1.4073 C   0  0  0  0  0  0  0  0  0  0  0  0
    0.0563   -2.2565   -0.0838 C   0  0  0  0  0  0  0  0  0  0  0  0
    0.0563   -1.0351    0.7882 C   0  0  0  0  0  3  0  0  0  0  0  0
    1.3156   -0.9947    1.6559 C   0  0  0  0  0  0  0  0  0  0  0  0
   -1.2030   -0.9947    1.6559 C   0  0  0  0  0  0  0  0  0  0  0  0
    0.0563   -3.1782   -1.9756 H   0  0  0  0  0  0  0  0  0  0  0  0
    0.0563   -1.3299   -1.9719 H   0  0  0  0  0  0  0  0  0  0  0  0
    0.0563   -3.2078    0.4467 H   0  0  0  0  0  0  0  0  0  0  0  0
    0.0563    0.0213    0.0078 H   0  0  0  0  0  0  0  0  0  0  0  0
    2.2171   -0.9888    1.0417 H   0  0  0  0  0  0  0  0  0  0  0  0
    1.3602   -1.8685    2.3117 H   0  0  0  0  0  0  0  0  0  0  0  0
    1.3231   -0.1035    2.2869 H   0  0  0  0  0  0  0  0  0  0  0  0
   -1.2476   -1.8685    2.3117 H   0  0  0  0  0  0  0  0  0  0  0  0
   -2.1046   -0.9888    1.0417 H   0  0  0  0  0  0  0  0  0  0  0  0
   -1.2106   -0.1035    2.2869 H   0  0  0  0  0  0  0  0  0  0  0  0
    1.2281    1.1713   -1.6829 C   0  0  0  0  0  0  0  0  0  0  0  0
    0.0563    1.0750   -0.7706 C   0  0  0  0  0  0  0  0  0  0  0  0
   -0.7499    2.3044   -0.1226 S   0  0  0  0  0  0  0  0  0  0  0  0
    2.0792    0.6417   -1.2438 H   0  0  0  0  0  0  0  0  0  0  0  0
    1.5017    2.2056   -1.8800 H   0  0  0  0  0  0  0  0  0  0  0  0
    1.0017    0.6635   -2.6255 H   0  0  0  0  0  0  0  0  0  0  0  0
  1  2  2  3
  1  6  1  0
  1  7  1  0
  2  3  1  0
  2  8  1  0
  3  4  1  0
  3  5  1  0
  4 10  1  0
  4 11  1  0
  4 12  1  0
  5 13  1  0
  5 14  1  0
  5 15  1  0
  9 17  1  0
 16 17  1  0
 16 19  1  0
 16 20  1  0
 16 21  1  0
 17 18  2  0
M  RAD  1   3   2
M  END
>  <reaction>  (8) 
rxn_1121

>  <mol_properties>  (8) 
{"1": {"label": "*0", "atom_type": "Cd"}, "2": {"label": "*1", "atom_type": "Cs"}, "8": {"label": "*2", "atom_type": "H0"}, "16": {"label": "*3", "atom_type": "CS"}, "17": {"label": "*4", "atom_type": "S2d"}}

>  <type>  (8) 
unop_4

>  <geom_source>  (8) 
Heuristics

$$$$

     RDKit          3D

 21 19  0  0  0  0  0  0  0  0999 V2000
   -0.0000   -2.0484   -1.0524 C   0  0  0  0  0  0  0  0  0  0  0  0
   -0.0000   -2.0484    0.2711 C   0  0  0  0  0  0  0  0  0  0  0  0
   -0.0000   -0.8271    1.1431 C   0  0  0  0  0  3  0  0  0  0  0  0
    1.2593   -0.7866    2.0108 C   0  0  0  0  0  0  0  0  0  0  0  0
   -1.2593   -0.7866    2.0108 C   0  0  0  0  0  0  0  0  0  0  0  0
   -0.0000   -2.9702   -1.6207 H   0  0  0  0  0  0  0  0  0  0  0  0
   -0.0000   -1.1219   -1.6170 H   0  0  0  0  0  0  0  0  0  0  0  0
   -0.0000   -2.9998    0.8016 H   0  0  0  0  0  0  0  0  0  0  0  0
   -0.0000    0.2293    0.3627 H   0  0  0  0  0  0  0  0  0  0  0  0
    2.1609   -0.7807    1.3966 H   0  0  0  0  0  0  0  0  0  0  0  0
    1.3039   -1.6605    2.6666 H   0  0  0  0  0  0  0  0  0  0  0  0
    1.2668    0.1046    2.6418 H   0  0  0  0  0  0  0  0  0  0  0  0
   -1.3039   -1.6605    2.6666 H   0  0  0  0  0  0  0  0  0  0  0  0
   -2.1609   -0.7807    1.3966 H   0  0  0  0  0  0  0  0  0  0  0  0
   -1.2668    0.1046    2.6418 H   0  0  0  0  0  0  0  0  0  0  0  0
   -0.0000    2.5853    0.3044 C   0  0  0  0  0  0  0  0  0  0  0  0
   -0.0000    1.2830   -0.4157 C   0  0  0  0  0  0  0  0  0  0  0  0
    0.0000    1.0757   -2.0090 S   0  0  0  0  0  0  0  0  0  0  0  0
   -0.8761    2.6432    0.9576 H   0  0  0  0  0  0  0  0  0  0  0  0
   -0.0000    3.4272   -0.3847 H   0  0  0  0  0  0  0  0  0  0  0  0
    0.8762    2.6432    0.9576 H   0  0  0  0  0  0  0  0  0  0  0  0
  1  2  2  3
  1  6  1  0
  1  7  1  0
  2  3  1  0
  2  8  1  0
  3  4  1  0
  3  5  1  0
  4 10  1  0
  4 11  1  0
  4 12  1  0
  5 13  1  0
  5 14  1  0
  5 15  1  0
  9 17  1  0
 16 17  1  0
 16 19  1  0
 16 20  1  0
 16 21  1  0
 17 18  2  0
M  RAD  1   3   2
M  END
>  <reaction>  (9) 
rxn_1121

>  <mol_properties>  (9) 
{"1": {"label": "*0", "atom_type": "Cd"}, "2": {"label": "*1", "atom_type": "Cs"}, "8": {"label": "*2", "atom_type": "H0"}, "16": {"label": "*3", "atom_type": "CS"}, "17": {"label": "*4", "atom_type": "S2d"}}

>  <type>  (9) 
unop_5

>  <geom_source>  (9) 
Heuristics

$$$$

     RDKit          3D

 21 19  0  0  0  0  0  0  0  0999 V2000
    0.1509   -2.2241   -1.4048 C   0  0  0  0  0  0  0  0  0  0  0  0
    0.1509   -2.2241   -0.0813 C   0  0  0  0  0  0  0  0  0  0  0  0
    0.1509   -1.0027    0.7907 C   0  0  0  0  0  3  0  0  0  0  0  0
    1.4103   -0.9623    1.6584 C   0  0  0  0  0  0  0  0  0  0  0  0
   -1.1084   -0.9623    1.6584 C   0  0  0  0  0  0  0  0  0  0  0  0
    0.1509   -3.1458   -1.9731 H   0  0  0  0  0  0  0  0  0  0  0  0
    0.1510   -1.2976   -1.9694 H   0  0  0  0  0  0  0  0  0  0  0  0
    0.1509   -3.1754    0.4492 H   0  0  0  0  0  0  0  0  0  0  0  0
    0.1510    0.0537    0.0103 H   0  0  0  0  0  0  0  0  0  0  0  0
    2.3118   -0.9564    1.0442 H   0  0  0  0  0  0  0  0  0  0  0  0
    1.4548   -1.8361    2.3142 H   0  0  0  0  0  0  0  0  0  0  0  0
    1.4178   -0.0711    2.2893 H   0  0  0  0  0  0  0  0  0  0  0  0
   -1.1529   -1.8361    2.3142 H   0  0  0  0  0  0  0  0  0  0  0  0
   -2.0099   -0.9564    1.0442 H   0  0  0  0  0  0  0  0  0  0  0  0
   -1.1159   -0.0711    2.2893 H   0  0  0  0  0  0  0  0  0  0  0  0
    1.5040    1.6056   -1.1363 C   0  0  0  0  0  0  0  0  0  0  0  0
    0.1510    1.1073   -0.7681 C   0  0  0  0  0  0  0  0  0  0  0  0
   -1.1276    2.0075   -0.3987 S   0  0  0  0  0  0  0  0  0  0  0  0
    2.2454    1.2030   -0.4392 H   0  0  0  0  0  0  0  0  0  0  0  0
    1.5485    2.6927   -1.1316 H   0  0  0  0  0  0  0  0  0  0  0  0
    1.7763    1.2296   -2.1273 H   0  0  0  0  0  0  0  0  0  0  0  0
  1  2  2  3
  1  6  1  0
  1  7  1  0
  2  3  1  0
  2  8  1  0
  3  4  1  0
  3  5  1  0
  4 10  1  0
  4 11  1  0
  4 12  1  0
  5 13  1  0
  5 14  1  0
  5 15  1  0
  9 17  1  0
 16 17  1  0
 16 19  1  0
 16 20  1  0
 16 21  1  0
 17 18  2  0
M  RAD  1   3   2
M  END
>  <reaction>  (10) 
rxn_1121

>  <mol_properties>  (10) 
{"1": {"label": "*0", "atom_type": "Cd"}, "2": {"label": "*1", "atom_type": "Cs"}, "8": {"label": "*2", "atom_type": "H0"}, "16": {"label": "*3", "atom_type": "CS"}, "17": {"label": "*4", "atom_type": "S2d"}}

>  <type>  (10) 
unop_6

>  <geom_source>  (10) 
Heuristics

$$$$

     RDKit          3D

 21 19  0  0  0  0  0  0  0  0999 V2000
    0.2347   -2.1629   -1.3295 C   0  0  0  0  0  0  0  0  0  0  0  0
    0.2347   -2.1629   -0.0060 C   0  0  0  0  0  0  0  0  0  0  0  0
    0.2347   -0.9415    0.8660 C   0  0  0  0  0  3  0  0  0  0  0  0
    1.4940   -0.9010    1.7337 C   0  0  0  0  0  0  0  0  0  0  0  0
   -1.0246   -0.9010    1.7337 C   0  0  0  0  0  0  0  0  0  0  0  0
    0.2347   -3.0846   -1.8978 H   0  0  0  0  0  0  0  0  0  0  0  0
    0.2347   -1.2363   -1.8941 H   0  0  0  0  0  0  0  0  0  0  0  0
    0.2347   -3.1142    0.5245 H   0  0  0  0  0  0  0  0  0  0  0  0
    0.2347    0.1149    0.0856 H   0  0  0  0  0  0  0  0  0  0  0  0
    2.3955   -0.8951    1.1195 H   0  0  0  0  0  0  0  0  0  0  0  0
    1.5386   -1.7749    2.3895 H   0  0  0  0  0  0  0  0  0  0  0  0
    1.5015   -0.0098    2.3647 H   0  0  0  0  0  0  0  0  0  0  0  0
   -1.0692   -1.7749    2.3895 H   0  0  0  0  0  0  0  0  0  0  0  0
   -1.9262   -0.8951    1.1195 H   0  0  0  0  0  0  0  0  0  0  0  0
   -1.0322   -0.0098    2.3647 H   0  0  0  0  0  0  0  0  0  0  0  0
    1.4065    2.0689   -0.5168 C   0  0  0  0  0  0  0  0  0  0  0  0
    0.2347    1.1686   -0.6928 C   0  0  0  0  0  0  0  0  0  0  0  0
   -1.2930    1.6224   -0.8967 S   0  0  0  0  0  0  0  0  0  0  0  0
    1.9021    1.8444    0.4327 H   0  0  0  0  0  0  0  0  0  0  0  0
    1.1167    3.1173   -0.5404 H   0  0  0  0  0  0  0  0  0  0  0  0
    2.1419    1.8717   -1.3029 H   0  0  0  0  0  0  0  0  0  0  0  0
  1  2  2  3
  1  6  1  0
  1  7  1  0
  2  3  1  0
  2  8  1  0
  3  4  1  0
  3  5  1  0
  4 10  1  0
  4 11  1  0
  4 12  1  0
  5 13  1  0
  5 14  1  0
  5 15  1  0
  9 17  1  0
 16 17  1  0
 16 19  1  0
 16 20  1  0
 16 21  1  0
 17 18  2  0
M  RAD  1   3   2
M  END
>  <reaction>  (11) 
rxn_1121

>  <mol_properties>  (11) 
{"1": {"label": "*0", "atom_type": "Cd"}, "2": {"label": "*1", "atom_type": "Cs"}, "8": {"label": "*2", "atom_type": "H0"}, "16": {"label": "*3", "atom_type": "CS"}, "17": {"label": "*4", "atom_type": "S2d"}}

>  <type>  (11) 
unop_7

>  <geom_source>  (11) 
Heuristics

$$$$

     RDKit          3D

 21 19  0  0  0  0  0  0  0  0999 V2000
   -0.1510   -2.2241   -1.4048 C   0  0  0  0  0  0  0  0  0  0  0  0
   -0.1510   -2.2241   -0.0813 C   0  0  0  0  0  0  0  0  0  0  0  0
   -0.1510   -1.0027    0.7907 C   0  0  0  0  0  3  0  0  0  0  0  0
    1.1084   -0.9623    1.6584 C   0  0  0  0  0  0  0  0  0  0  0  0
   -1.4103   -0.9623    1.6584 C   0  0  0  0  0  0  0  0  0  0  0  0
   -0.1510   -3.1458   -1.9731 H   0  0  0  0  0  0  0  0  0  0  0  0
   -0.1510   -1.2976   -1.9694 H   0  0  0  0  0  0  0  0  0  0  0  0
   -0.1510   -3.1754    0.4492 H   0  0  0  0  0  0  0  0  0  0  0  0
   -0.1510    0.0537    0.0103 H   0  0  0  0  0  0  0  0  0  0  0  0
    2.0099   -0.9564    1.0442 H   0  0  0  0  0  0  0  0  0  0  0  0
    1.1529   -1.8361    2.3142 H   0  0  0  0  0  0  0  0  0  0  0  0
    1.1159   -0.0711    2.2893 H   0  0  0  0  0  0  0  0  0  0  0  0
   -1.4548   -1.8361    2.3142 H   0  0  0  0  0  0  0  0  0  0  0  0
   -2.3118   -0.9564    1.0442 H   0  0  0  0  0  0  0  0  0  0  0  0
   -1.4178   -0.0711    2.2893 H   0  0  0  0  0  0  0  0  0  0  0  0
   -1.5040    1.6056   -1.1363 C   0  0  0  0  0  0  0  0  0  0  0  0
   -0.1509    1.1073   -0.7682 C   0  0  0  0  0  0  0  0  0  0  0  0
    1.1276    2.0075   -0.3987 S   0  0  0  0  0  0  0  0  0  0  0  0
   -1.7763    1.2295   -2.1273 H   0  0  0  0  0  0  0  0  0  0  0  0
   -1.5485    2.6927   -1.1316 H   0  0  0  0  0  0  0  0  0  0  0  0
   -2.2453    1.2030   -0.4392 H   0  0  0  0  0  0  0  0  0  0  0  0
  1  2  2  3
  1  6  1  0
  1  7  1  0
  2  3  1  0
  2  8  1  0
  3  4  1  0
  3  5  1  0
  4 10  1  0
  4 11  1  0
  4 12  1  0
  5 13  1  0
  5 14  1  0
  5 15  1  0
  9 17  1  0
 16 17  1  0
 16 19  1  0
 16 20  1  0
 16 21  1  0
 17 18  2  0
M  RAD  1   3   2
M  END
>  <reaction>  (12) 
rxn_1121

>  <mol_properties>  (12) 
{"1": {"label": "*0", "atom_type": "Cd"}, "2": {"label": "*1", "atom_type": "Cs"}, "8": {"label": "*2", "atom_type": "H0"}, "16": {"label": "*3", "atom_type": "CS"}, "17": {"label": "*4", "atom_type": "S2d"}}

>  <type>  (12) 
unop_8

>  <geom_source>  (12) 
Heuristics

$$$$

     RDKit          3D

 21 19  0  0  0  0  0  0  0  0999 V2000
    0.0029   -2.2650   -1.3691 C   0  0  0  0  0  0  0  0  0  0  0  0
    0.0029   -2.2650   -0.0456 C   0  0  0  0  0  0  0  0  0  0  0  0
    0.0029   -1.0436    0.8264 C   0  0  0  0  0  3  0  0  0  0  0  0
    1.2622   -1.0031    1.6941 C   0  0  0  0  0  0  0  0  0  0  0  0
   -1.2564   -1.0031    1.6941 C   0  0  0  0  0  0  0  0  0  0  0  0
    0.0029   -3.1867   -1.9374 H   0  0  0  0  0  0  0  0  0  0  0  0
    0.0029   -1.3384   -1.9337 H   0  0  0  0  0  0  0  0  0  0  0  0
    0.0029   -3.2163    0.4849 H   0  0  0  0  0  0  0  0  0  0  0  0
    0.0029    0.0128    0.0460 H   0  0  0  0  0  0  0  0  0  0  0  0
    2.1637   -0.9973    1.0799 H   0  0  0  0  0  0  0  0  0  0  0  0
    1.3068   -1.8770    2.3499 H   0  0  0  0  0  0  0  0  0  0  0  0
    1.2697   -0.1119    2.3251 H   0  0  0  0  0  0  0  0  0  0  0  0
   -1.3010   -1.8770    2.3499 H   0  0  0  0  0  0  0  0  0  0  0  0
   -2.1580   -0.9972    1.0799 H   0  0  0  0  0  0  0  0  0  0  0  0
   -1.2640   -0.1119    2.3251 H   0  0  0  0  0  0  0  0  0  0  0  0
    0.6794    0.8685   -2.0430 C   0  0  0  0  0  0  0  0  0  0  0  0
    0.0029    1.0665   -0.7324 C   0  0  0  0  0  0  0  0  0  0  0  0
   -0.3428    2.4756   -0.0422 S   0  0  0  0  0  0  0  0  0  0  0  0
    1.5876    0.2746   -1.9010 H   0  0  0  0  0  0  0  0  0  0  0  0
    0.9310    1.8163   -2.5143 H   0  0  0  0  0  0  0  0  0  0  0  0
    0.0313    0.2873   -2.7062 H   0  0  0  0  0  0  0  0  0  0  0  0
  1  2  2  3
  1  6  1  0
  1  7  1  0
  2  3  1  0
  2  8  1  0
  3  4  1  0
  3  5  1  0
  4 10  1  0
  4 11  1  0
  4 12  1  0
  5 13  1  0
  5 14  1  0
  5 15  1  0
  9 17  1  0
 16 17  1  0
 16 19  1  0
 16 20  1  0
 16 21  1  0
 17 18  2  0
M  RAD  1   3   2
M  END
>  <reaction>  (13) 
rxn_1121

>  <mol_properties>  (13) 
{"1": {"label": "*0", "atom_type": "Cd"}, "2": {"label": "*1", "atom_type": "Cs"}, "8": {"label": "*2", "atom_type": "H0"}, "16": {"label": "*3", "atom_type": "CS"}, "17": {"label": "*4", "atom_type": "S2d"}}

>  <type>  (13) 
unop_9

>  <geom_source>  (13) 
Heuristics

$$$$

     RDKit          3D

 21 19  0  0  0  0  0  0  0  0999 V2000
   -0.0563   -2.2565   -1.4073 C   0  0  0  0  0  0  0  0  0  0  0  0
   -0.0563   -2.2565   -0.0838 C   0  0  0  0  0  0  0  0  0  0  0  0
   -0.0563   -1.0351    0.7882 C   0  0  0  0  0  3  0  0  0  0  0  0
    1.2030   -0.9947    1.6559 C   0  0  0  0  0  0  0  0  0  0  0  0
   -1.3156   -0.9947    1.6559 C   0  0  0  0  0  0  0  0  0  0  0  0
   -0.0563   -3.1782   -1.9756 H   0  0  0  0  0  0  0  0  0  0  0  0
   -0.0563   -1.3299   -1.9719 H   0  0  0  0  0  0  0  0  0  0  0  0
   -0.0563   -3.2078    0.4467 H   0  0  0  0  0  0  0  0  0  0  0  0
   -0.0563    0.0213    0.0078 H   0  0  0  0  0  0  0  0  0  0  0  0
    2.1046   -0.9888    1.0417 H   0  0  0  0  0  0  0  0  0  0  0  0
    1.2476   -1.8685    2.3117 H   0  0  0  0  0  0  0  0  0  0  0  0
    1.2106   -0.1035    2.2869 H   0  0  0  0  0  0  0  0  0  0  0  0
   -1.3602   -1.8685    2.3117 H   0  0  0  0  0  0  0  0  0  0  0  0
   -2.2171   -0.9888    1.0417 H   0  0  0  0  0  0  0  0  0  0  0  0
   -1.3231   -0.1035    2.2869 H   0  0  0  0  0  0  0  0  0  0  0  0
   -1.2281    1.1713   -1.6829 C   0  0  0  0  0  0  0  0  0  0  0  0
   -0.0563    1.0750   -0.7706 C   0  0  0  0  0  0  0  0  0  0  0  0
    0.7499    2.3044   -0.1226 S   0  0  0  0  0  0  0  0  0  0  0  0
   -1.0017    0.6634   -2.6255 H   0  0  0  0  0  0  0  0  0  0  0  0
   -1.5017    2.2056   -1.8801 H   0  0  0  0  0  0  0  0  0  0  0  0
   -2.0792    0.6417   -1.2438 H   0  0  0  0  0  0  0  0  0  0  0  0
  1  2  2  3
  1  6  1  0
  1  7  1  0
  2  3  1  0
  2  8  1  0
  3  4  1  0
  3  5  1  0
  4 10  1  0
  4 11  1  0
  4 12  1  0
  5 13  1  0
  5 14  1  0
  5 15  1  0
  9 17  1  0
 16 17  1  0
 16 19  1  0
 16 20  1  0
 16 21  1  0
 17 18  2  0
M  RAD  1   3   2
M  END
>  <reaction>  (14) 
rxn_1121

>  <mol_properties>  (14) 
{"1": {"label": "*0", "atom_type": "Cd"}, "2": {"label": "*1", "atom_type": "Cs"}, "8": {"label": "*2", "atom_type": "H0"}, "16": {"label": "*3", "atom_type": "CS"}, "17": {"label": "*4", "atom_type": "S2d"}}

>  <type>  (14) 
unop_10

>  <geom_source>  (14) 
Heuristics

$$$$

     RDKit          3D

 21 19  0  0  0  0  0  0  0  0999 V2000
    0.2244   -2.0883   -1.1765 C   0  0  0  0  0  0  0  0  0  0  0  0
    0.2244   -2.0883    0.1470 C   0  0  0  0  0  0  0  0  0  0  0  0
    0.2244   -0.8669    1.0191 C   0  0  0  0  0  3  0  0  0  0  0  0
    1.4837   -0.8264    1.8867 C   0  0  0  0  0  0  0  0  0  0  0  0
   -1.0349   -0.8264    1.8867 C   0  0  0  0  0  0  0  0  0  0  0  0
    0.2244   -3.0100   -1.7447 H   0  0  0  0  0  0  0  0  0  0  0  0
    0.2244   -1.1617   -1.7410 H   0  0  0  0  0  0  0  0  0  0  0  0
    0.2244   -3.0396    0.6776 H   0  0  0  0  0  0  0  0  0  0  0  0
    0.2244    0.1895    0.2386 H   0  0  0  0  0  0  0  0  0  0  0  0
    2.3853   -0.8206    1.2726 H   0  0  0  0  0  0  0  0  0  0  0  0
    1.5283   -1.7003    2.5425 H   0  0  0  0  0  0  0  0  0  0  0  0
    1.4913    0.0648    2.5177 H   0  0  0  0  0  0  0  0  0  0  0  0
   -1.0795   -1.7003    2.5425 H   0  0  0  0  0  0  0  0  0  0  0  0
   -1.9364   -0.8206    1.2726 H   0  0  0  0  0  0  0  0  0  0  0  0
   -1.0424    0.0648    2.5177 H   0  0  0  0  0  0  0  0  0  0  0  0
    0.9009    2.4378    0.0346 C   0  0  0  0  0  0  0  0  0  0  0  0
    0.2244    1.2432   -0.5398 C   0  0  0  0  0  0  0  0  0  0  0  0
   -1.0173    1.2501   -1.5594 S   0  0  0  0  0  0  0  0  0  0  0  0
    0.8515    2.3974    1.1271 H   0  0  0  0  0  0  0  0  0  0  0  0
    0.4527    3.3639   -0.3189 H   0  0  0  0  0  0  0  0  0  0  0  0
    1.9634    2.4187   -0.2270 H   0  0  0  0  0  0  0  0  0  0  0  0
  1  2  2  3
  1  6  1  0
  1  7  1  0
  2  3  1  0
  2  8  1  0
  3  4  1  0
  3  5  1  0
  4 10  1  0
  4 11  1  0
  4 12  1  0
  5 13  1  0
  5 14  1  0
  5 15  1  0
  9 17  1  0
 16 17  1  0
 16 19  1  0
 16 20  1  0
 16 21  1  0
 17 18  2  0
M  RAD  1   3   2
M  END
>  <reaction>  (15) 
rxn_1121

>  <mol_properties>  (15) 
{"1": {"label": "*0", "atom_type": "Cd"}, "2": {"label": "*1", "atom_type": "Cs"}, "8": {"label": "*2", "atom_type": "H0"}, "16": {"label": "*3", "atom_type": "CS"}, "17": {"label": "*4", "atom_type": "S2d"}}

>  <type>  (15) 
unop_11

>  <geom_source>  (15) 
Heuristics

$$$$

     RDKit          3D

 21 19  0  0  0  0  0  0  0  0999 V2000
    0.0000   -2.2649   -1.3454 C   0  0  0  0  0  0  0  0  0  0  0  0
    0.0000   -2.2649   -0.0219 C   0  0  0  0  0  0  0  0  0  0  0  0
    0.0000   -1.0435    0.8501 C   0  0  0  0  0  3  0  0  0  0  0  0
    1.2593   -1.0031    1.7178 C   0  0  0  0  0  0  0  0  0  0  0  0
   -1.2593   -1.0031    1.7178 C   0  0  0  0  0  0  0  0  0  0  0  0
    0.0000   -3.1866   -1.9137 H   0  0  0  0  0  0  0  0  0  0  0  0
    0.0000   -1.3383   -1.9100 H   0  0  0  0  0  0  0  0  0  0  0  0
   -0.0000   -3.2162    0.5086 H   0  0  0  0  0  0  0  0  0  0  0  0
    0.0000    0.0129    0.0697 H   0  0  0  0  0  0  0  0  0  0  0  0
    2.1609   -0.9972    1.1036 H   0  0  0  0  0  0  0  0  0  0  0  0
    1.3039   -1.8769    2.3736 H   0  0  0  0  0  0  0  0  0  0  0  0
    1.2668   -0.1119    2.3488 H   0  0  0  0  0  0  0  0  0  0  0  0
   -1.3039   -1.8769    2.3736 H   0  0  0  0  0  0  0  0  0  0  0  0
   -2.1609   -0.9972    1.1036 H   0  0  0  0  0  0  0  0  0  0  0  0
   -1.2668   -0.1119    2.3488 H   0  0  0  0  0  0  0  0  0  0  0  0
    0.0000    0.7609   -2.1651 C   0  0  0  0  0  0  0  0  0  0  0  0
    0.0000    1.0666   -0.7087 C   0  0  0  0  0  0  0  0  0  0  0  0
   -0.0000    2.5285   -0.0424 S   0  0  0  0  0  0  0  0  0  0  0  0
    0.8761    0.1535   -2.4124 H   0  0  0  0  0  0  0  0  0  0  0  0
    0.0000    1.6669   -2.7674 H   0  0  0  0  0  0  0  0  0  0  0  0
   -0.8761    0.1535   -2.4124 H   0  0  0  0  0  0  0  0  0  0  0  0
  1  2  2  3
  1  6  1  0
  1  7  1  0
  2  3  1  0
  2  8  1  0
  3  4  1  0
  3  5  1  0
  4 10  1  0
  4 11  1  0
  4 12  1  0
  5 13  1  0
  5 14  1  0
  5 15  1  0
  9 17  1  0
 16 17  1  0
 16 19  1  0
 16 20  1  0
 16 21  1  0
 17 18  2  0
M  RAD  1   3   2
M  END
>  <reaction>  (16) 
rxn_1121

>  <mol_properties>  (16) 
{"1": {"label": "*0", "atom_type": "Cd"}, "2": {"label": "*1", "atom_type": "Cs"}, "8": {"label": "*2", "atom_type": "H0"}, "16": {"label": "*3", "atom_type": "CS"}, "17": {"label": "*4", "atom_type": "S2d"}}

>  <type>  (16) 
unop_12

>  <geom_source>  (16) 
Heuristics

$$$$

     RDKit          3D

 21 19  0  0  0  0  0  0  0  0999 V2000
    2.2744    1.0998   -1.8073 S   0  0  0  0  0  0  0  0  0  0  0  0
    0.0176   -1.5707   -0.3888 C   0  0  0  0  0  0  0  0  0  0  0  0
   -1.7513   -0.0735   -1.3931 C   0  0  0  0  0  0  0  0  0  0  0  0
    2.6194    0.4245    0.6261 C   0  0  0  0  0  0  0  0  0  0  0  0
   -0.6921   -0.2190   -0.2984 C   0  0  0  0  0  3  0  0  0  0  0  0
   -1.2898   -0.0065    1.0674 C   0  0  0  0  0  0  0  0  0  0  0  0
    1.7261    0.7016   -0.5413 C   0  0  0  0  0  0  0  0  0  0  0  0
   -1.5726    1.2214    1.5078 C   0  0  0  0  0  0  0  0  0  0  0  0
    3.2029    1.3327    0.8891 H   0  0  0  0  0  0  0  0  0  0  0  0
    2.0006    0.1341    1.5003 H   0  0  0  0  0  0  0  0  0  0  0  0
    3.3151   -0.4090    0.3899 H   0  0  0  0  0  0  0  0  0  0  0  0
    0.8036   -1.6370    0.3930 H   0  0  0  0  0  0  0  0  0  0  0  0
    0.5066   -1.6755   -1.3802 H   0  0  0  0  0  0  0  0  0  0  0  0
   -0.7045   -2.4042   -0.2502 H   0  0  0  0  0  0  0  0  0  0  0  0
   -2.2073    0.9380   -1.3512 H   0  0  0  0  0  0  0  0  0  0  0  0
   -1.2829   -0.1977   -2.3922 H   0  0  0  0  0  0  0  0  0  0  0  0
   -2.5495   -0.8368   -1.2689 H   0  0  0  0  0  0  0  0  0  0  0  0
   -1.4717   -0.8559    1.7206 H   0  0  0  0  0  0  0  0  0  0  0  0
    0.4340    0.5805   -0.4094 H   0  0  0  0  0  0  0  0  0  0  0  0
   -1.9914    1.3599    2.4992 H   0  0  0  0  0  0  0  0  0  0  0  0
   -1.3873    2.0933    0.8876 H   0  0  0  0  0  0  0  0  0  0  0  0
  1  7  2  0
  2  5  1  0
  2 12  1  0
  2 13  1  0
  2 14  1  0
  3  5  1  0
  3 15  1  0
  3 16  1  0
  3 17  1  0
  4  7  1  0
  4  9  1  0
  4 10  1  0
  4 11  1  0
  5  6  1  0
  6  8  2  3
  6 18  1  0
  7 19  1  0
  8 20  1  0
  8 21  1  0
M  RAD  1   5   2
M  END
>  <reaction>  (17) 
rxn_1121

>  <mol_properties>  (17) 
{"1": {"label": "*0", "atom_type": "Cd"}, "2": {"label": "*1", "atom_type": "Cs"}, "8": {"label": "*2", "atom_type": "H0"}, "16": {"label": "*3", "atom_type": "CS"}, "17": {"label": "*4", "atom_type": "S2d"}}

>  <type>  (17) 
unop_13

>  <geom_source>  (17) 
AutoTST

$$$$

     RDKit          3D

 21 19  0  0  0  0  0  0  0  0999 V2000
   -0.0029   -2.2650   -1.3691 C   0  0  0  0  0  0  0  0  0  0  0  0
   -0.0029   -2.2650   -0.0456 C   0  0  0  0  0  0  0  0  0  0  0  0
   -0.0029   -1.0436    0.8264 C   0  0  0  0  0  3  0  0  0  0  0  0
    1.2564   -1.0031    1.6941 C   0  0  0  0  0  0  0  0  0  0  0  0
   -1.2622   -1.0031    1.6941 C   0  0  0  0  0  0  0  0  0  0  0  0
   -0.0029   -3.1867   -1.9374 H   0  0  0  0  0  0  0  0  0  0  0  0
   -0.0029   -1.3384   -1.9337 H   0  0  0  0  0  0  0  0  0  0  0  0
   -0.0029   -3.2163    0.4849 H   0  0  0  0  0  0  0  0  0  0  0  0
   -0.0029    0.0128    0.0460 H   0  0  0  0  0  0  0  0  0  0  0  0
    2.1580   -0.9972    1.0799 H   0  0  0  0  0  0  0  0  0  0  0  0
    1.3010   -1.8770    2.3499 H   0  0  0  0  0  0  0  0  0  0  0  0
    1.2639   -0.1119    2.3251 H   0  0  0  0  0  0  0  0  0  0  0  0
   -1.3068   -1.8770    2.3499 H   0  0  0  0  0  0  0  0  0  0  0  0
   -2.1637   -0.9972    1.0799 H   0  0  0  0  0  0  0  0  0  0  0  0
   -1.2697   -0.1119    2.3251 H   0  0  0  0  0  0  0  0  0  0  0  0
   -0.6794    0.8685   -2.0430 C   0  0  0  0  0  0  0  0  0  0  0  0
   -0.0029    1.0665   -0.7324 C   0  0  0  0  0  0  0  0  0  0  0  0
    0.3428    2.4756   -0.0422 S   0  0  0  0  0  0  0  0  0  0  0  0
   -0.0313    0.2873   -2.7062 H   0  0  0  0  0  0  0  0  0  0  0  0
   -0.9309    1.8163   -2.5143 H   0  0  0  0  0  0  0  0  0  0  0  0
   -1.5876    0.2746   -1.9010 H   0  0  0  0  0  0  0  0  0  0  0  0
  1  2  2  3
  1  6  1  0
  1  7  1  0
  2  3  1  0
  2  8  1  0
  3  4  1  0
  3  5  1  0
  4 10  1  0
  4 11  1  0
  4 12  1  0
  5 13  1  0
  5 14  1  0
  5 15  1  0
  9 17  1  0
 16 17  1  0
 16 19  1  0
 16 20  1  0
 16 21  1  0
 17 18  2  0
M  RAD  1   3   2
M  END
>  <reaction>  (18) 
rxn_1121

>  <mol_properties>  (18) 
{"1": {"label": "*0", "atom_type": "Cd"}, "2": {"label": "*1", "atom_type": "Cs"}, "8": {"label": "*2", "atom_type": "H0"}, "16": {"label": "*3", "atom_type": "CS"}, "17": {"label": "*4", "atom_type": "S2d"}}

>  <type>  (18) 
unop_14

>  <geom_source>  (18) 
gaussian_log

$$$$
