
     RDKit          3D

 21 21  0  0  0  0  0  0  0  0999 V2000
   -1.3695    1.3367   -1.0719 C   0  0  0  0  0  0  0  0  0  0  0  0
   -1.4091   -0.0981   -0.5428 C   0  0  0  0  0  0  0  0  0  0  0  0
   -0.1819   -0.3999    0.3191 C   0  0  0  0  0  0  0  0  0  0  0  0
   -1.5636   -1.1028   -1.6652 C   0  0  0  0  0  0  0  0  0  0  0  0
   -0.5920   -1.2314   -2.6553 C   0  0  0  0  0  0  0  0  0  0  0  0
   -0.7353   -2.1509   -3.6809 C   0  0  0  0  0  0  0  0  0  0  0  0
   -1.8582   -2.9642   -3.7377 C   0  0  0  0  0  0  0  0  0  0  0  0
   -2.8325   -2.8475   -2.7602 C   0  0  0  0  0  0  0  0  0  0  0  0
   -2.6828   -1.9241   -1.7351 C   0  0  0  0  0  0  0  0  0  0  0  0
   -0.4920    1.4974   -1.7025 H   0  0  0  0  0  0  0  0  0  0  0  0
   -2.2553    1.5607   -1.6679 H   0  0  0  0  0  0  0  0  0  0  0  0
   -1.3211    2.0496   -0.2461 H   0  0  0  0  0  0  0  0  0  0  0  0
   -2.2930   -0.1918    0.0948 H   0  0  0  0  0  0  0  0  0  0  0  0
   -0.1215    0.2955    1.1588 H   0  0  0  0  0  0  0  0  0  0  0  0
   -0.2200   -1.4155    0.7159 H   0  0  0  0  0  0  0  0  0  0  0  0
    0.7383   -0.3016   -0.2615 H   0  0  0  0  0  0  0  0  0  0  0  0
    0.2915   -0.6040   -2.6263 H   0  0  0  0  0  0  0  0  0  0  0  0
    0.0326   -2.2338   -4.4401 H   0  0  0  0  0  0  0  0  0  0  0  0
   -1.9712   -3.6833   -4.5391 H   0  0  0  0  0  0  0  0  0  0  0  0
   -3.7135   -3.4765   -2.7932 H   0  0  0  0  0  0  0  0  0  0  0  0
   -3.4509   -1.8400   -0.9743 H   0  0  0  0  0  0  0  0  0  0  0  0
  1  2  1  0
  1 10  1  0
  1 11  1  0
  1 12  1  0
  2  3  1  0
  2  4  1  0
  2 13  1  0
  3 14  1  0
  3 15  1  0
  3 16  1  0
  4  5  2  0
  4  9  1  0
  5  6  1  0
  5 17  1  0
  6  7  2  0
  6 18  1  0
  7  8  1  0
  7 19  1  0
  8  9  2  0
  8 20  1  0
  9 21  1  0
M  END
>  <reaction>  (1) 
rxn_1529

>  <mol_properties>  (1) 
{"1": {"label": "donator", "atom_type": "Cs"}, "12": {"label": "d_hydrogen", "atom_type": "H0"}}

>  <type>  (1) 
r1h

$$$$

     RDKit          3D

 12 11  0  0  0  0  0  0  0  0999 V2000
   -2.3791    0.4612   -0.5870 C   0  0  0  0  0  0  0  0  0  0  0  0
   -1.3422   -0.3138   -0.1893 C   0  0  0  0  0  0  0  0  0  0  0  0
   -1.4723   -1.6058    0.3589 C   0  0  0  0  0  3  0  0  0  0  0  0
   -0.3798   -2.3973    0.7671 C   0  0  0  0  0  0  0  0  0  0  0  0
   -0.4849   -3.6397    1.2956 C   0  0  0  0  0  0  0  0  0  0  0  0
   -2.2205    1.4472   -1.0017 H   0  0  0  0  0  0  0  0  0  0  0  0
   -3.4026    0.1153   -0.5011 H   0  0  0  0  0  0  0  0  0  0  0  0
   -0.3330    0.0765   -0.2952 H   0  0  0  0  0  0  0  0  0  0  0  0
   -2.4723   -2.0151    0.4735 H   0  0  0  0  0  0  0  0  0  0  0  0
    0.6117   -1.9687    0.6436 H   0  0  0  0  0  0  0  0  0  0  0  0
    0.3893   -4.2030    1.5920 H   0  0  0  0  0  0  0  0  0  0  0  0
   -1.4516   -4.1084    1.4378 H   0  0  0  0  0  0  0  0  0  0  0  0
  1  2  2  3
  1  6  1  0
  1  7  1  0
  2  3  1  0
  2  8  1  0
  3  4  1  0
  3  9  1  0
  4  5  2  3
  4 10  1  0
  5 11  1  0
  5 12  1  0
M  RAD  1   3   2
M  END
>  <reaction>  (2) 
rxn_1529

>  <mol_properties>  (2) 
{"2": {"label": "acceptor", "atom_type": "Cs"}}

>  <type>  (2) 
r2

$$$$

     RDKit          3D

 13 12  0  0  0  0  0  0  0  0999 V2000
    3.0977   -0.3549   -0.5105 C   0  0  0  0  0  0  0  0  0  0  0  0
    2.0556    0.4221   -0.2627 C   0  0  0  0  0  0  0  0  0  0  0  0
    0.6313   -0.0354   -0.2366 C   0  0  0  0  0  0  0  0  0  0  0  0
   -0.2567    0.6038   -1.2694 C   0  0  0  0  0  0  0  0  0  0  0  0
    0.1459    1.3456   -2.2891 C   0  0  0  0  0  0  0  0  0  0  0  0
    4.1081    0.0344   -0.5074 H   0  0  0  0  0  0  0  0  0  0  0  0
    2.9777   -1.4116   -0.7243 H   0  0  0  0  0  0  0  0  0  0  0  0
    2.2171    1.4781   -0.0618 H   0  0  0  0  0  0  0  0  0  0  0  0
    0.5865   -1.1233   -0.3540 H   0  0  0  0  0  0  0  0  0  0  0  0
    0.2065    0.1743    0.7521 H   0  0  0  0  0  0  0  0  0  0  0  0
   -1.3190    0.4126   -1.1445 H   0  0  0  0  0  0  0  0  0  0  0  0
    1.1948    1.5564   -2.4628 H   0  0  0  0  0  0  0  0  0  0  0  0
   -0.5644    1.7621   -2.9918 H   0  0  0  0  0  0  0  0  0  0  0  0
  1  2  2  3
  1  6  1  0
  1  7  1  0
  2  3  1  0
  2  8  1  0
  3  4  1  0
  3  9  1  0
  3 10  1  0
  4  5  2  3
  4 11  1  0
  5 12  1  0
  5 13  1  0
M  END
>  <reaction>  (3) 
rxn_1529

>  <mol_properties>  (3) 
{"2": {"label": "acceptor", "atom_type": "Cs"}, "12": {"label": "a_hydrogen", "atom_type": "H0"}}

>  <type>  (3) 
r2h

$$$$

     RDKit          3D

 33 32  0  0  0  0  0  0  0  0999 V2000
   -2.2031    1.7450    2.1889 C   0  0  0  0  0  0  0  0  0  0  0  0
   -1.9193    0.5715    1.6248 C   0  0  0  0  0  0  0  0  0  0  0  0
   -2.2580    0.2076    0.2445 C   0  0  0  0  0  0  0  0  0  0  0  0
   -2.3364   -1.2121   -0.1348 C   0  0  0  0  0  0  0  0  0  0  0  0
   -1.5365   -2.1823    0.3068 C   0  0  0  0  0  0  0  0  0  0  0  0
   -1.9133    1.9653    3.2080 H   0  0  0  0  0  0  0  0  0  0  0  0
   -2.7443    2.5162    1.6511 H   0  0  0  0  0  0  0  0  0  0  0  0
   -1.3744   -0.1676    2.2033 H   0  0  0  0  0  0  0  0  0  0  0  0
   -3.0600    0.8164   -0.1709 H   0  0  0  0  0  0  0  0  0  0  0  0
   -3.0762   -1.4592   -0.8904 H   0  0  0  0  0  0  0  0  0  0  0  0
   -1.6402   -3.1965   -0.0558 H   0  0  0  0  0  0  0  0  0  0  0  0
   -0.7474   -2.0003    1.0276 H   0  0  0  0  0  0  0  0  0  0  0  0
   -0.5086    0.6926   -2.5712 C   0  0  0  0  0  0  0  0  0  0  0  0
   -0.0998    1.0338   -1.1608 C   0  0  0  0  0  3  0  0  0  0  0  0
   -0.0773    2.5139   -0.8622 C   0  0  0  0  0  0  0  0  0  0  0  0
    0.9250    0.1890   -0.5241 C   0  0  0  0  0  0  0  0  0  0  0  0
    1.3594    0.4466    0.7842 C   0  0  0  0  0  0  0  0  0  0  0  0
    2.2541   -0.3925    1.4237 C   0  0  0  0  0  0  0  0  0  0  0  0
    2.7545   -1.5129    0.7758 C   0  0  0  0  0  0  0  0  0  0  0  0
    2.3479   -1.7790   -0.5228 C   0  0  0  0  0  0  0  0  0  0  0  0
    1.4453   -0.9459   -1.1598 C   0  0  0  0  0  0  0  0  0  0  0  0
    0.3112    0.8546   -3.2798 H   0  0  0  0  0  0  0  0  0  0  0  0
   -0.8258   -0.3482   -2.6589 H   0  0  0  0  0  0  0  0  0  0  0  0
   -1.3429    1.3220   -2.8841 H   0  0  0  0  0  0  0  0  0  0  0  0
   -1.2324    0.6291   -0.4464 H   0  0  0  0  0  0  0  0  0  0  0  0
    0.7917    2.9910   -1.3286 H   0  0  0  0  0  0  0  0  0  0  0  0
   -0.9735    2.9943   -1.2589 H   0  0  0  0  0  0  0  0  0  0  0  0
   -0.0397    2.7251    0.2057 H   0  0  0  0  0  0  0  0  0  0  0  0
    0.9754    1.3043    1.3190 H   0  0  0  0  0  0  0  0  0  0  0  0
    2.5635   -0.1693    2.4374 H   0  0  0  0  0  0  0  0  0  0  0  0
    3.4562   -2.1678    1.2763 H   0  0  0  0  0  0  0  0  0  0  0  0
    2.7337   -2.6460   -1.0447 H   0  0  0  0  0  0  0  0  0  0  0  0
    1.1419   -1.1842   -2.1698 H   0  0  0  0  0  0  0  0  0  0  0  0
  1  2  2  3
  1  6  1  0
  1  7  1  0
  2  3  1  0
  2  8  1  0
  3  4  1  0
  3  9  1  0
  3 25  1  0
  4  5  2  3
  4 10  1  0
  5 11  1  0
  5 12  1  0
 13 14  1  0
 13 22  1  0
 13 23  1  0
 13 24  1  0
 14 15  1  0
 14 16  1  0
 15 26  1  0
 15 27  1  0
 15 28  1  0
 16 17  2  0
 16 21  1  0
 17 18  1  0
 17 29  1  0
 18 19  2  0
 18 30  1  0
 19 20  1  0
 19 31  1  0
 20 21  2  0
 20 32  1  0
 21 33  1  0
M  RAD  1  14   2
M  END
>  <reaction>  (4) 
rxn_1529

>  <mol_properties>  (4) 
{"1": {"label": "*0", "atom_type": "Cd"}, "2": {"label": "*1", "atom_type": "Cs"}, "13": {"label": "*3", "atom_type": "Cs"}, "15": {"label": "*4", "atom_type": "Cd"}, "24": {"label": "*2", "atom_type": "H0"}}

>  <type>  (4) 
ts

$$$$

     RDKit          3D

 33 32  0  0  0  0  0  0  0  0999 V2000
   -1.4744   -1.1515    2.0871 C   0  0  0  0  0  0  0  0  0  0  0  0
   -1.7912   -1.1761    0.8025 C   0  0  0  0  0  0  0  0  0  0  0  0
   -2.1360    0.0258   -0.0193 C   0  0  0  0  0  3  0  0  0  0  0  0
   -3.5310    0.0268   -0.5830 C   0  0  0  0  0  0  0  0  0  0  0  0
   -4.5037   -0.8079   -0.2524 C   0  0  0  0  0  0  0  0  0  0  0  0
   -1.2260   -2.0568    2.6267 H   0  0  0  0  0  0  0  0  0  0  0  0
   -1.4501   -0.2223    2.6464 H   0  0  0  0  0  0  0  0  0  0  0  0
   -1.8129   -2.1288    0.2796 H   0  0  0  0  0  0  0  0  0  0  0  0
   -1.9912    0.9362    0.5719 H   0  0  0  0  0  0  0  0  0  0  0  0
   -3.7291    0.8010   -1.3191 H   0  0  0  0  0  0  0  0  0  0  0  0
   -5.4842   -0.7304   -0.7046 H   0  0  0  0  0  0  0  0  0  0  0  0
   -4.3593   -1.5901    0.4839 H   0  0  0  0  0  0  0  0  0  0  0  0
    0.0842    1.1854   -2.3451 C   0  0  0  0  0  0  0  0  0  0  0  0
    0.0842    1.1854   -0.8154 C   0  0  0  0  0  0  0  0  0  0  0  0
    0.0842    2.6130   -0.2660 C   0  0  0  0  0  0  0  0  0  0  0  0
    1.2335    0.3725   -0.2573 C   0  0  0  0  0  0  0  0  0  0  0  0
    2.5566    0.7323   -0.5043 C   0  0  0  0  0  0  0  0  0  0  0  0
    3.6062   -0.0125    0.0070 C   0  0  0  0  0  0  0  0  0  0  0  0
    3.3531   -1.1373    0.7793 C   0  0  0  0  0  0  0  0  0  0  0  0
    2.0428   -1.5070    1.0332 C   0  0  0  0  0  0  0  0  0  0  0  0
    0.9955   -0.7564    0.5178 C   0  0  0  0  0  0  0  0  0  0  0  0
    0.9785    1.6756   -2.7368 H   0  0  0  0  0  0  0  0  0  0  0  0
    0.0611    0.1681   -2.7385 H   0  0  0  0  0  0  0  0  0  0  0  0
   -0.7853    1.7226   -2.7294 H   0  0  0  0  0  0  0  0  0  0  0  0
   -1.0247    0.6062   -0.4178 H   0  0  0  0  0  0  0  0  0  0  0  0
   -0.7853    3.1646   -0.6293 H   0  0  0  0  0  0  0  0  0  0  0  0
    0.0611    2.6147    0.8247 H   0  0  0  0  0  0  0  0  0  0  0  0
    0.9785    3.1546   -0.5828 H   0  0  0  0  0  0  0  0  0  0  0  0
    2.7724    1.6080   -1.1056 H   0  0  0  0  0  0  0  0  0  0  0  0
    4.6271    0.2856   -0.1977 H   0  0  0  0  0  0  0  0  0  0  0  0
    4.1730   -1.7201    1.1795 H   0  0  0  0  0  0  0  0  0  0  0  0
    1.8320   -2.3828    1.6345 H   0  0  0  0  0  0  0  0  0  0  0  0
   -0.0271   -1.0537    0.7220 H   0  0  0  0  0  0  0  0  0  0  0  0
  1  2  2  3
  1  6  1  0
  1  7  1  0
  2  3  1  0
  2  8  1  0
  3  4  1  0
  3  9  1  0
  4  5  2  3
  4 10  1  0
  5 11  1  0
  5 12  1  0
 13 14  1  0
 13 22  1  0
 13 23  1  0
 13 24  1  0
 14 15  1  0
 14 16  1  0
 14 25  1  0
 15 26  1  0
 15 27  1  0
 15 28  1  0
 16 17  2  0
 16 21  1  0
 17 18  1  0
 17 29  1  0
 18 19  2  0
 18 30  1  0
 19 20  1  0
 19 31  1  0
 20 21  2  0
 20 32  1  0
 21 33  1  0
M  RAD  1   3   2
M  END
>  <reaction>  (5) 
rxn_1529

>  <mol_properties>  (5) 
{"1": {"label": "*0", "atom_type": "Cd"}, "2": {"label": "*1", "atom_type": "Cs"}, "13": {"label": "*3", "atom_type": "Cs"}, "15": {"label": "*4", "atom_type": "Cd"}, "24": {"label": "*2", "atom_type": "H0"}}

>  <type>  (5) 
unop_1

>  <geom_source>  (5) 
Heuristics

$$$$

     RDKit          3D

 33 32  0  0  0  0  0  0  0  0999 V2000
   -2.2809   -2.3799   -0.6935 C   0  0  0  0  0  0  0  0  0  0  0  0
   -2.4435   -1.0722   -0.8144 C   0  0  0  0  0  0  0  0  0  0  0  0
   -2.0298   -0.0583    0.2052 C   0  0  0  0  0  3  0  0  0  0  0  0
   -3.1584    0.7471    0.7894 C   0  0  0  0  0  0  0  0  0  0  0  0
   -4.4499    0.4993    0.6385 C   0  0  0  0  0  0  0  0  0  0  0  0
   -2.5948   -3.0641   -1.4718 H   0  0  0  0  0  0  0  0  0  0  0  0
   -1.8251   -2.8143    0.1899 H   0  0  0  0  0  0  0  0  0  0  0  0
   -2.9128   -0.6767   -1.7115 H   0  0  0  0  0  0  0  0  0  0  0  0
   -1.4848   -0.5482    1.0189 H   0  0  0  0  0  0  0  0  0  0  0  0
   -2.8526    1.5976    1.3926 H   0  0  0  0  0  0  0  0  0  0  0  0
   -5.1978    1.1295    1.1026 H   0  0  0  0  0  0  0  0  0  0  0  0
   -4.8055   -0.3425    0.0555 H   0  0  0  0  0  0  0  0  0  0  0  0
    0.1904    1.1013   -2.1207 C   0  0  0  0  0  0  0  0  0  0  0  0
    0.1904    1.1013   -0.5910 C   0  0  0  0  0  0  0  0  0  0  0  0
    0.1904    2.5289   -0.0415 C   0  0  0  0  0  0  0  0  0  0  0  0
    1.3397    0.2884   -0.0329 C   0  0  0  0  0  0  0  0  0  0  0  0
    2.6627    0.6482   -0.2799 C   0  0  0  0  0  0  0  0  0  0  0  0
    3.7124   -0.0966    0.2315 C   0  0  0  0  0  0  0  0  0  0  0  0
    3.4593   -1.2214    1.0038 C   0  0  0  0  0  0  0  0  0  0  0  0
    2.1489   -1.5912    1.2577 C   0  0  0  0  0  0  0  0  0  0  0  0
    1.1017   -0.8405    0.7423 C   0  0  0  0  0  0  0  0  0  0  0  0
    1.0846    1.5915   -2.5123 H   0  0  0  0  0  0  0  0  0  0  0  0
    0.1673    0.0839   -2.5140 H   0  0  0  0  0  0  0  0  0  0  0  0
   -0.6792    1.6385   -2.5050 H   0  0  0  0  0  0  0  0  0  0  0  0
   -0.9185    0.5221   -0.1933 H   0  0  0  0  0  0  0  0  0  0  0  0
   -0.6792    3.0805   -0.4049 H   0  0  0  0  0  0  0  0  0  0  0  0
    0.1673    2.5306    1.0492 H   0  0  0  0  0  0  0  0  0  0  0  0
    1.0846    3.0705   -0.3584 H   0  0  0  0  0  0  0  0  0  0  0  0
    2.8785    1.5239   -0.8812 H   0  0  0  0  0  0  0  0  0  0  0  0
    4.7333    0.2015    0.0268 H   0  0  0  0  0  0  0  0  0  0  0  0
    4.2792   -1.8042    1.4040 H   0  0  0  0  0  0  0  0  0  0  0  0
    1.9382   -2.4669    1.8590 H   0  0  0  0  0  0  0  0  0  0  0  0
    0.0790   -1.1378    0.9464 H   0  0  0  0  0  0  0  0  0  0  0  0
  1  2  2  3
  1  6  1  0
  1  7  1  0
  2  3  1  0
  2  8  1  0
  3  4  1  0
  3  9  1  0
  4  5  2  3
  4 10  1  0
  5 11  1  0
  5 12  1  0
 13 14  1  0
 13 22  1  0
 13 23  1  0
 13 24  1  0
 14 15  1  0
 14 16  1  0
 14 25  1  0
 15 26  1  0
 15 27  1  0
 15 28  1  0
 16 17  2  0
 16 21  1  0
 17 18  1  0
 17 29  1  0
 18 19  2  0
 18 30  1  0
 19 20  1  0
 19 31  1  0
 20 21  2  0
 20 32  1  0
 21 33  1  0
M  RAD  1   3   2
M  END
>  <reaction>  (6) 
rxn_1529

>  <mol_properties>  (6) 
{"1": {"label": "*0", "atom_type": "Cd"}, "2": {"label": "*1", "atom_type": "Cs"}, "13": {"label": "*3", "atom_type": "Cs"}, "15": {"label": "*4", "atom_type": "Cd"}, "24": {"label": "*2", "atom_type": "H0"}}

>  <type>  (6) 
unop_2

>  <geom_source>  (6) 
Heuristics

$$$$

     RDKit          3D

 33 32  0  0  0  0  0  0  0  0999 V2000
   -2.1290   -0.1071    2.4591 C   0  0  0  0  0  0  0  0  0  0  0  0
   -1.9004   -0.6526    1.2754 C   0  0  0  0  0  0  0  0  0  0  0  0
   -2.1445    0.0178   -0.0398 C   0  0  0  0  0  3  0  0  0  0  0  0
   -3.1686   -0.6562   -0.9121 C   0  0  0  0  0  0  0  0  0  0  0  0
   -3.9871   -1.6281   -0.5412 C   0  0  0  0  0  0  0  0  0  0  0  0
   -1.9239   -0.6414    3.3783 H   0  0  0  0  0  0  0  0  0  0  0  0
   -2.5288    0.8971    2.5518 H   0  0  0  0  0  0  0  0  0  0  0  0
   -1.5075   -1.6648    1.2247 H   0  0  0  0  0  0  0  0  0  0  0  0
   -2.4452    1.0583    0.1218 H   0  0  0  0  0  0  0  0  0  0  0  0
   -3.2229   -0.2821   -1.9308 H   0  0  0  0  0  0  0  0  0  0  0  0
   -4.7015   -2.0523   -1.2353 H   0  0  0  0  0  0  0  0  0  0  0  0
   -3.9791   -2.0281    0.4661 H   0  0  0  0  0  0  0  0  0  0  0  0
    0.0757    1.1774   -2.3657 C   0  0  0  0  0  0  0  0  0  0  0  0
    0.0757    1.1774   -0.8360 C   0  0  0  0  0  0  0  0  0  0  0  0
    0.0757    2.6050   -0.2865 C   0  0  0  0  0  0  0  0  0  0  0  0
    1.2250    0.3645   -0.2779 C   0  0  0  0  0  0  0  0  0  0  0  0
    2.5481    0.7243   -0.5249 C   0  0  0  0  0  0  0  0  0  0  0  0
    3.5977   -0.0205   -0.0135 C   0  0  0  0  0  0  0  0  0  0  0  0
    3.3446   -1.1453    0.7588 C   0  0  0  0  0  0  0  0  0  0  0  0
    2.0342   -1.5151    1.0127 C   0  0  0  0  0  0  0  0  0  0  0  0
    0.9870   -0.7644    0.4973 C   0  0  0  0  0  0  0  0  0  0  0  0
    0.9700    1.6676   -2.7573 H   0  0  0  0  0  0  0  0  0  0  0  0
    0.0526    0.1600   -2.7591 H   0  0  0  0  0  0  0  0  0  0  0  0
   -0.7939    1.7146   -2.7500 H   0  0  0  0  0  0  0  0  0  0  0  0
   -1.0332    0.5982   -0.4384 H   0  0  0  0  0  0  0  0  0  0  0  0
   -0.7939    3.1566   -0.6499 H   0  0  0  0  0  0  0  0  0  0  0  0
    0.0526    2.6067    0.8042 H   0  0  0  0  0  0  0  0  0  0  0  0
    0.9700    3.1466   -0.6034 H   0  0  0  0  0  0  0  0  0  0  0  0
    2.7639    1.6000   -1.1262 H   0  0  0  0  0  0  0  0  0  0  0  0
    4.6186    0.2776   -0.2182 H   0  0  0  0  0  0  0  0  0  0  0  0
    4.1645   -1.7281    1.1590 H   0  0  0  0  0  0  0  0  0  0  0  0
    1.8235   -2.3908    1.6140 H   0  0  0  0  0  0  0  0  0  0  0  0
   -0.0356   -1.0617    0.7014 H   0  0  0  0  0  0  0  0  0  0  0  0
  1  2  2  3
  1  6  1  0
  1  7  1  0
  2  3  1  0
  2  8  1  0
  3  4  1  0
  3  9  1  0
  4  5  2  3
  4 10  1  0
  5 11  1  0
  5 12  1  0
 13 14  1  0
 13 22  1  0
 13 23  1  0
 13 24  1  0
 14 15  1  0
 14 16  1  0
 14 25  1  0
 15 26  1  0
 15 27  1  0
 15 28  1  0
 16 17  2  0
 16 21  1  0
 17 18  1  0
 17 29  1  0
 18 19  2  0
 18 30  1  0
 19 20  1  0
 19 31  1  0
 20 21  2  0
 20 32  1  0
 21 33  1  0
M  RAD  1   3   2
M  END
>  <reaction>  (7) 
rxn_1529

>  <mol_properties>  (7) 
{"1": {"label": "*0", "atom_type": "Cd"}, "2": {"label": "*1", "atom_type": "Cs"}, "13": {"label": "*3", "atom_type": "Cs"}, "15": {"label": "*4", "atom_type": "Cd"}, "24": {"label": "*2", "atom_type": "H0"}}

>  <type>  (7) 
unop_3

>  <geom_source>  (7) 
Heuristics

$$$$

     RDKit          3D

 33 32  0  0  0  0  0  0  0  0999 V2000
   -3.9754   -1.0139   -1.3052 C   0  0  0  0  0  0  0  0  0  0  0  0
   -3.0915   -0.1136   -0.9062 C   0  0  0  0  0  0  0  0  0  0  0  0
   -2.0230   -0.3534    0.1133 C   0  0  0  0  0  3  0  0  0  0  0  0
   -2.1279    0.4966    1.3504 C   0  0  0  0  0  0  0  0  0  0  0  0
   -3.1599    1.2534    1.6885 C   0  0  0  0  0  0  0  0  0  0  0  0
   -4.7216   -0.7818   -2.0547 H   0  0  0  0  0  0  0  0  0  0  0  0
   -3.9833   -2.0189   -0.8969 H   0  0  0  0  0  0  0  0  0  0  0  0
   -3.1222    0.8856   -1.3333 H   0  0  0  0  0  0  0  0  0  0  0  0
   -2.0172   -1.4084    0.4068 H   0  0  0  0  0  0  0  0  0  0  0  0
   -1.2658    0.4566    2.0105 H   0  0  0  0  0  0  0  0  0  0  0  0
   -3.1539    1.8295    2.6051 H   0  0  0  0  0  0  0  0  0  0  0  0
   -4.0472    1.3188    1.0694 H   0  0  0  0  0  0  0  0  0  0  0  0
    0.1972    0.8062   -2.2125 C   0  0  0  0  0  0  0  0  0  0  0  0
    0.1972    0.8062   -0.6828 C   0  0  0  0  0  0  0  0  0  0  0  0
    0.1972    2.2338   -0.1333 C   0  0  0  0  0  0  0  0  0  0  0  0
    1.3465   -0.0067   -0.1247 C   0  0  0  0  0  0  0  0  0  0  0  0
    2.6696    0.3531   -0.3717 C   0  0  0  0  0  0  0  0  0  0  0  0
    3.7192   -0.3917    0.1397 C   0  0  0  0  0  0  0  0  0  0  0  0
    3.4661   -1.5165    0.9120 C   0  0  0  0  0  0  0  0  0  0  0  0
    2.1558   -1.8862    1.1659 C   0  0  0  0  0  0  0  0  0  0  0  0
    1.1085   -1.1356    0.6505 C   0  0  0  0  0  0  0  0  0  0  0  0
    1.0915    1.2964   -2.6042 H   0  0  0  0  0  0  0  0  0  0  0  0
    0.1742   -0.2111   -2.6059 H   0  0  0  0  0  0  0  0  0  0  0  0
   -0.6723    1.3434   -2.5968 H   0  0  0  0  0  0  0  0  0  0  0  0
   -0.9117    0.2270   -0.2852 H   0  0  0  0  0  0  0  0  0  0  0  0
   -0.6723    2.7854   -0.4967 H   0  0  0  0  0  0  0  0  0  0  0  0
    0.1742    2.2355    0.9574 H   0  0  0  0  0  0  0  0  0  0  0  0
    1.0915    2.7754   -0.4502 H   0  0  0  0  0  0  0  0  0  0  0  0
    2.8854    1.2288   -0.9730 H   0  0  0  0  0  0  0  0  0  0  0  0
    4.7401   -0.0935   -0.0650 H   0  0  0  0  0  0  0  0  0  0  0  0
    4.2860   -2.0993    1.3122 H   0  0  0  0  0  0  0  0  0  0  0  0
    1.9450   -2.7620    1.7671 H   0  0  0  0  0  0  0  0  0  0  0  0
    0.0859   -1.4329    0.8546 H   0  0  0  0  0  0  0  0  0  0  0  0
  1  2  2  3
  1  6  1  0
  1  7  1  0
  2  3  1  0
  2  8  1  0
  3  4  1  0
  3  9  1  0
  4  5  2  3
  4 10  1  0
  5 11  1  0
  5 12  1  0
 13 14  1  0
 13 22  1  0
 13 23  1  0
 13 24  1  0
 14 15  1  0
 14 16  1  0
 14 25  1  0
 15 26  1  0
 15 27  1  0
 15 28  1  0
 16 17  2  0
 16 21  1  0
 17 18  1  0
 17 29  1  0
 18 19  2  0
 18 30  1  0
 19 20  1  0
 19 31  1  0
 20 21  2  0
 20 32  1  0
 21 33  1  0
M  RAD  1   3   2
M  END
>  <reaction>  (8) 
rxn_1529

>  <mol_properties>  (8) 
{"1": {"label": "*0", "atom_type": "Cd"}, "2": {"label": "*1", "atom_type": "Cs"}, "13": {"label": "*3", "atom_type": "Cs"}, "15": {"label": "*4", "atom_type": "Cd"}, "24": {"label": "*2", "atom_type": "H0"}}

>  <type>  (8) 
unop_4

>  <geom_source>  (8) 
Heuristics

$$$$

     RDKit          3D

 33 32  0  0  0  0  0  0  0  0999 V2000
   -3.2018    0.5751    2.1589 C   0  0  0  0  0  0  0  0  0  0  0  0
   -2.2600    0.0190    1.4140 C   0  0  0  0  0  0  0  0  0  0  0  0
   -2.2276    0.0359   -0.0818 C   0  0  0  0  0  3  0  0  0  0  0  0
   -2.3030   -1.3194   -0.7308 C   0  0  0  0  0  0  0  0  0  0  0  0
   -2.5954   -2.4578   -0.1220 C   0  0  0  0  0  0  0  0  0  0  0  0
   -3.1654    0.5360    3.2404 H   0  0  0  0  0  0  0  0  0  0  0  0
   -4.0444    1.0925    1.7127 H   0  0  0  0  0  0  0  0  0  0  0  0
   -1.4363   -0.4983    1.8991 H   0  0  0  0  0  0  0  0  0  0  0  0
   -3.0420    0.6593   -0.4658 H   0  0  0  0  0  0  0  0  0  0  0  0
   -2.1033   -1.3298   -1.7988 H   0  0  0  0  0  0  0  0  0  0  0  0
   -2.6350   -3.3905   -0.6701 H   0  0  0  0  0  0  0  0  0  0  0  0
   -2.8126   -2.4984    0.9392 H   0  0  0  0  0  0  0  0  0  0  0  0
   -0.0074    1.1955   -2.4077 C   0  0  0  0  0  0  0  0  0  0  0  0
   -0.0074    1.1955   -0.8780 C   0  0  0  0  0  0  0  0  0  0  0  0
   -0.0074    2.6231   -0.3285 C   0  0  0  0  0  0  0  0  0  0  0  0
    1.1419    0.3826   -0.3199 C   0  0  0  0  0  0  0  0  0  0  0  0
    2.4650    0.7424   -0.5669 C   0  0  0  0  0  0  0  0  0  0  0  0
    3.5146   -0.0024   -0.0555 C   0  0  0  0  0  0  0  0  0  0  0  0
    3.2615   -1.1272    0.7168 C   0  0  0  0  0  0  0  0  0  0  0  0
    1.9511   -1.4969    0.9707 C   0  0  0  0  0  0  0  0  0  0  0  0
    0.9039   -0.7463    0.4553 C   0  0  0  0  0  0  0  0  0  0  0  0
    0.8869    1.6857   -2.7994 H   0  0  0  0  0  0  0  0  0  0  0  0
   -0.0305    0.1782   -2.8011 H   0  0  0  0  0  0  0  0  0  0  0  0
   -0.8770    1.7327   -2.7920 H   0  0  0  0  0  0  0  0  0  0  0  0
   -1.1163    0.6163   -0.4804 H   0  0  0  0  0  0  0  0  0  0  0  0
   -0.8770    3.1747   -0.6919 H   0  0  0  0  0  0  0  0  0  0  0  0
   -0.0305    2.6248    0.7622 H   0  0  0  0  0  0  0  0  0  0  0  0
    0.8869    3.1647   -0.6454 H   0  0  0  0  0  0  0  0  0  0  0  0
    2.6808    1.6181   -1.1682 H   0  0  0  0  0  0  0  0  0  0  0  0
    4.5355    0.2958   -0.2602 H   0  0  0  0  0  0  0  0  0  0  0  0
    4.0814   -1.7100    1.1170 H   0  0  0  0  0  0  0  0  0  0  0  0
    1.7404   -2.3727    1.5720 H   0  0  0  0  0  0  0  0  0  0  0  0
   -0.1187   -1.0436    0.6594 H   0  0  0  0  0  0  0  0  0  0  0  0
  1  2  2  3
  1  6  1  0
  1  7  1  0
  2  3  1  0
  2  8  1  0
  3  4  1  0
  3  9  1  0
  4  5  2  3
  4 10  1  0
  5 11  1  0
  5 12  1  0
 13 14  1  0
 13 22  1  0
 13 23  1  0
 13 24  1  0
 14 15  1  0
 14 16  1  0
 14 25  1  0
 15 26  1  0
 15 27  1  0
 15 28  1  0
 16 17  2  0
 16 21  1  0
 17 18  1  0
 17 29  1  0
 18 19  2  0
 18 30  1  0
 19 20  1  0
 19 31  1  0
 20 21  2  0
 20 32  1  0
 21 33  1  0
M  RAD  1   3   2
M  END
>  <reaction>  (9) 
rxn_1529

>  <mol_properties>  (9) 
{"1": {"label": "*0", "atom_type": "Cd"}, "2": {"label": "*1", "atom_type": "Cs"}, "13": {"label": "*3", "atom_type": "Cs"}, "15": {"label": "*4", "atom_type": "Cd"}, "24": {"label": "*2", "atom_type": "H0"}}

>  <type>  (9) 
unop_5

>  <geom_source>  (9) 
Heuristics

$$$$

     RDKit          3D

 33 32  0  0  0  0  0  0  0  0999 V2000
   -4.4680   -0.1477   -0.7999 C   0  0  0  0  0  0  0  0  0  0  0  0
   -3.2737    0.3629   -0.5475 C   0  0  0  0  0  0  0  0  0  0  0  0
   -2.1045   -0.4084   -0.0213 C   0  0  0  0  0  3  0  0  0  0  0  0
   -1.6050    0.0415    1.3248 C   0  0  0  0  0  0  0  0  0  0  0  0
   -2.2183    0.8855    2.1394 C   0  0  0  0  0  0  0  0  0  0  0  0
   -5.2742    0.4618   -1.1885 H   0  0  0  0  0  0  0  0  0  0  0  0
   -4.6827   -1.1972   -0.6282 H   0  0  0  0  0  0  0  0  0  0  0  0
   -3.1011    1.4215   -0.7244 H   0  0  0  0  0  0  0  0  0  0  0  0
   -2.3527   -1.4737    0.0299 H   0  0  0  0  0  0  0  0  0  0  0  0
   -0.6566   -0.3909    1.6315 H   0  0  0  0  0  0  0  0  0  0  0  0
   -1.7887    1.1494    3.0974 H   0  0  0  0  0  0  0  0  0  0  0  0
   -3.1709    1.3353    1.8840 H   0  0  0  0  0  0  0  0  0  0  0  0
    0.1157    0.7512   -2.3472 C   0  0  0  0  0  0  0  0  0  0  0  0
    0.1157    0.7512   -0.8175 C   0  0  0  0  0  0  0  0  0  0  0  0
    0.1157    2.1788   -0.2680 C   0  0  0  0  0  0  0  0  0  0  0  0
    1.2650   -0.0617   -0.2593 C   0  0  0  0  0  0  0  0  0  0  0  0
    2.5881    0.2981   -0.5063 C   0  0  0  0  0  0  0  0  0  0  0  0
    3.6377   -0.4467    0.0050 C   0  0  0  0  0  0  0  0  0  0  0  0
    3.3846   -1.5715    0.7773 C   0  0  0  0  0  0  0  0  0  0  0  0
    2.0742   -1.9413    1.0312 C   0  0  0  0  0  0  0  0  0  0  0  0
    1.0270   -1.1906    0.5158 C   0  0  0  0  0  0  0  0  0  0  0  0
    1.0100    1.2414   -2.7388 H   0  0  0  0  0  0  0  0  0  0  0  0
    0.0926   -0.2661   -2.7405 H   0  0  0  0  0  0  0  0  0  0  0  0
   -0.7539    1.2884   -2.7315 H   0  0  0  0  0  0  0  0  0  0  0  0
   -0.9932    0.1720   -0.4198 H   0  0  0  0  0  0  0  0  0  0  0  0
   -0.7539    2.7304   -0.6313 H   0  0  0  0  0  0  0  0  0  0  0  0
    0.0926    2.1805    0.8227 H   0  0  0  0  0  0  0  0  0  0  0  0
    1.0100    2.7204   -0.5848 H   0  0  0  0  0  0  0  0  0  0  0  0
    2.8039    1.1738   -1.1076 H   0  0  0  0  0  0  0  0  0  0  0  0
    4.6586   -0.1486   -0.1997 H   0  0  0  0  0  0  0  0  0  0  0  0
    4.2045   -2.1543    1.1775 H   0  0  0  0  0  0  0  0  0  0  0  0
    1.8635   -2.8170    1.6325 H   0  0  0  0  0  0  0  0  0  0  0  0
    0.0044   -1.4879    0.7200 H   0  0  0  0  0  0  0  0  0  0  0  0
  1  2  2  3
  1  6  1  0
  1  7  1  0
  2  3  1  0
  2  8  1  0
  3  4  1  0
  3  9  1  0
  4  5  2  3
  4 10  1  0
  5 11  1  0
  5 12  1  0
 13 14  1  0
 13 22  1  0
 13 23  1  0
 13 24  1  0
 14 15  1  0
 14 16  1  0
 14 25  1  0
 15 26  1  0
 15 27  1  0
 15 28  1  0
 16 17  2  0
 16 21  1  0
 17 18  1  0
 17 29  1  0
 18 19  2  0
 18 30  1  0
 19 20  1  0
 19 31  1  0
 20 21  2  0
 20 32  1  0
 21 33  1  0
M  RAD  1   3   2
M  END
>  <reaction>  (10) 
rxn_1529

>  <mol_properties>  (10) 
{"1": {"label": "*0", "atom_type": "Cd"}, "2": {"label": "*1", "atom_type": "Cs"}, "13": {"label": "*3", "atom_type": "Cs"}, "15": {"label": "*4", "atom_type": "Cd"}, "24": {"label": "*2", "atom_type": "H0"}}

>  <type>  (10) 
unop_6

>  <geom_source>  (10) 
Heuristics

$$$$

     RDKit          3D

 33 29  0  0  0  0  0  0  0  0999 V2000
   -4.3840    0.6468    0.8583 C   0  0  0  0  0  3  0  0  0  0  0  0
   -3.0859    0.7364    0.6181 C   0  0  0  0  0  0  0  0  0  0  0  0
   -2.2965   -0.2332   -0.2037 C   0  0  0  0  0  3  0  0  0  0  0  0
   -1.2099   -0.9572    0.5439 C   0  0  0  0  0  1  0  0  0  0  0  0
   -1.0404   -0.9630    1.8567 C   0  0  0  0  0  2  0  0  0  0  0  0
   -4.9020    1.3866    1.4558 H   0  0  0  0  0  0  0  0  0  0  0  0
   -4.9776   -0.1708    0.4634 H   0  0  0  0  0  0  0  0  0  0  0  0
   -2.5244    1.5664    1.0393 H   0  0  0  0  0  0  0  0  0  0  0  0
   -2.9671   -0.9704   -0.6576 H   0  0  0  0  0  0  0  0  0  0  0  0
   -0.5236   -1.5255   -0.0779 H   0  0  0  0  0 15  0  0  0  0  0  0
   -0.2321   -1.5199    2.3133 H   0  0  0  0  0  0  0  0  0  0  0  0
   -1.7040   -0.4209    2.5205 H   0  0  0  0  0  0  0  0  0  0  0  0
   -0.0763    0.9263   -2.5296 C   0  0  0  0  0  0  0  0  0  0  0  0
   -0.0763    0.9263   -0.9999 C   0  0  0  0  0  0  0  0  0  0  0  0
   -0.0763    2.3539   -0.4504 C   0  0  0  0  0  0  0  0  0  0  0  0
    1.0730    0.1134   -0.4418 C   0  0  0  0  0  0  0  0  0  0  0  0
    2.3961    0.4732   -0.6888 C   0  0  0  0  0  0  0  0  0  0  0  0
    3.4457   -0.2716   -0.1774 C   0  0  0  0  0  0  0  0  0  0  0  0
    3.1926   -1.3964    0.5949 C   0  0  0  0  0  0  0  0  0  0  0  0
    1.8823   -1.7661    0.8488 C   0  0  0  0  0  0  0  0  0  0  0  0
    0.8350   -1.0155    0.3334 C   0  0  0  0  0  3  0  0  0  0  0  0
    0.8180    1.4165   -2.9212 H   0  0  0  0  0  0  0  0  0  0  0  0
   -0.0994   -0.0910   -2.9230 H   0  0  0  0  0  0  0  0  0  0  0  0
   -0.9458    1.4635   -2.9139 H   0  0  0  0  0  0  0  0  0  0  0  0
   -1.1852    0.3472   -0.6023 H   0  0  0  0  0  0  0  0  0  0  0  0
   -0.9458    2.9055   -0.8138 H   0  0  0  0  0  0  0  0  0  0  0  0
   -0.0994    2.3556    0.6403 H   0  0  0  0  0  0  0  0  0  0  0  0
    0.8180    2.8955   -0.7673 H   0  0  0  0  0  0  0  0  0  0  0  0
    2.6119    1.3489   -1.2901 H   0  0  0  0  0  0  0  0  0  0  0  0
    4.4666    0.0266   -0.3821 H   0  0  0  0  0  0  0  0  0  0  0  0
    4.0125   -1.9792    0.9951 H   0  0  0  0  0  0  0  0  0  0  0  0
    1.6715   -2.6418    1.4501 H   0  0  0  0  0  0  0  0  0  0  0  0
   -0.1876   -1.3128    0.5375 H   0  0  0  0  0  0  0  0  0  0  0  0
  1  2  1  0
  1  6  1  0
  1  7  1  0
  2  3  2  3
  2  8  1  0
  3  9  1  0
  4 33  1  0
  5 11  1  0
  5 12  1  0
 13 14  1  0
 13 22  1  0
 13 23  1  0
 13 24  1  0
 14 15  1  0
 14 16  1  0
 14 25  1  0
 15 26  1  0
 15 27  1  0
 15 28  1  0
 16 17  2  0
 16 21  1  0
 17 18  1  0
 17 29  1  0
 18 19  2  0
 18 30  1  0
 19 20  1  0
 19 31  1  0
 20 21  2  0
 20 32  1  0
M  CHG  2   1   1   3  -1
M  RAD  3   4   2   5   3  21   2
M  END
>  <reaction>  (11) 
rxn_1529

>  <mol_properties>  (11) 
{"1": {"label": "*0", "atom_type": "Cd"}, "2": {"label": "*1", "atom_type": "Cs"}, "13": {"label": "*3", "atom_type": "Cs"}, "15": {"label": "*4", "atom_type": "Cd"}, "24": {"label": "*2", "atom_type": "H0"}}

>  <type>  (11) 
unop_7

>  <geom_source>  (11) 
Heuristics

$$$$

     RDKit          3D

 33 32  0  0  0  0  0  0  0  0999 V2000
   -1.3339   -1.9935    1.2471 C   0  0  0  0  0  0  0  0  0  0  0  0
   -1.8845   -1.4179    0.1904 C   0  0  0  0  0  0  0  0  0  0  0  0
   -2.1270    0.0512    0.0426 C   0  0  0  0  0  3  0  0  0  0  0  0
   -3.5735    0.4420   -0.0944 C   0  0  0  0  0  0  0  0  0  0  0  0
   -4.6152   -0.3491    0.1081 C   0  0  0  0  0  0  0  0  0  0  0  0
   -1.1769   -3.0639    1.2916 H   0  0  0  0  0  0  0  0  0  0  0  0
   -1.0178   -1.4131    2.1073 H   0  0  0  0  0  0  0  0  0  0  0  0
   -2.1960   -2.0355   -0.6481 H   0  0  0  0  0  0  0  0  0  0  0  0
   -1.6929    0.5885    0.8923 H   0  0  0  0  0  0  0  0  0  0  0  0
   -3.7456    1.4769   -0.3774 H   0  0  0  0  0  0  0  0  0  0  0  0
   -5.6269    0.0188   -0.0064 H   0  0  0  0  0  0  0  0  0  0  0  0
   -4.4964   -1.3857    0.4017 H   0  0  0  0  0  0  0  0  0  0  0  0
    0.0931    1.2107   -2.2833 C   0  0  0  0  0  0  0  0  0  0  0  0
    0.0931    1.2107   -0.7536 C   0  0  0  0  0  0  0  0  0  0  0  0
    0.0931    2.6383   -0.2041 C   0  0  0  0  0  0  0  0  0  0  0  0
    1.2424    0.3979   -0.1955 C   0  0  0  0  0  0  0  0  0  0  0  0
    2.5655    0.7576   -0.4425 C   0  0  0  0  0  0  0  0  0  0  0  0
    3.6152    0.0128    0.0689 C   0  0  0  0  0  0  0  0  0  0  0  0
    3.3621   -1.1119    0.8412 C   0  0  0  0  0  0  0  0  0  0  0  0
    2.0517   -1.4817    1.0951 C   0  0  0  0  0  0  0  0  0  0  0  0
    1.0044   -0.7311    0.5797 C   0  0  0  0  0  0  0  0  0  0  0  0
    0.9874    1.7010   -2.6749 H   0  0  0  0  0  0  0  0  0  0  0  0
    0.0701    0.1934   -2.6767 H   0  0  0  0  0  0  0  0  0  0  0  0
   -0.7764    1.7480   -2.6676 H   0  0  0  0  0  0  0  0  0  0  0  0
   -1.0157    0.6316   -0.3560 H   0  0  0  0  0  0  0  0  0  0  0  0
   -0.7764    3.1900   -0.5675 H   0  0  0  0  0  0  0  0  0  0  0  0
    0.0701    2.6400    0.8866 H   0  0  0  0  0  0  0  0  0  0  0  0
    0.9874    3.1799   -0.5210 H   0  0  0  0  0  0  0  0  0  0  0  0
    2.7813    1.6333   -1.0438 H   0  0  0  0  0  0  0  0  0  0  0  0
    4.6360    0.3110   -0.1358 H   0  0  0  0  0  0  0  0  0  0  0  0
    4.1819   -1.6948    1.2414 H   0  0  0  0  0  0  0  0  0  0  0  0
    1.8409   -2.3574    1.6964 H   0  0  0  0  0  0  0  0  0  0  0  0
   -0.0182   -1.0284    0.7838 H   0  0  0  0  0  0  0  0  0  0  0  0
  1  2  2  3
  1  6  1  0
  1  7  1  0
  2  3  1  0
  2  8  1  0
  3  4  1  0
  3  9  1  0
  4  5  2  3
  4 10  1  0
  5 11  1  0
  5 12  1  0
 13 14  1  0
 13 22  1  0
 13 23  1  0
 13 24  1  0
 14 15  1  0
 14 16  1  0
 14 25  1  0
 15 26  1  0
 15 27  1  0
 15 28  1  0
 16 17  2  0
 16 21  1  0
 17 18  1  0
 17 29  1  0
 18 19  2  0
 18 30  1  0
 19 20  1  0
 19 31  1  0
 20 21  2  0
 20 32  1  0
 21 33  1  0
M  RAD  1   3   2
M  END
>  <reaction>  (12) 
rxn_1529

>  <mol_properties>  (12) 
{"1": {"label": "*0", "atom_type": "Cd"}, "2": {"label": "*1", "atom_type": "Cs"}, "13": {"label": "*3", "atom_type": "Cs"}, "15": {"label": "*4", "atom_type": "Cd"}, "24": {"label": "*2", "atom_type": "H0"}}

>  <type>  (12) 
unop_8

>  <geom_source>  (12) 
Heuristics

$$$$

     RDKit          3D

 33 32  0  0  0  0  0  0  0  0999 V2000
   -1.6281   -2.4227    0.2302 C   0  0  0  0  0  0  0  0  0  0  0  0
   -2.1230   -1.3654   -0.3928 C   0  0  0  0  0  0  0  0  0  0  0  0
   -2.0880    0.0348    0.1333 C   0  0  0  0  0  3  0  0  0  0  0  0
   -3.4383    0.6510    0.3801 C   0  0  0  0  0  0  0  0  0  0  0  0
   -4.5976    0.0123    0.3714 C   0  0  0  0  0  0  0  0  0  0  0  0
   -1.6769   -3.4122   -0.2070 H   0  0  0  0  0  0  0  0  0  0  0  0
   -1.1532   -2.3363    1.2017 H   0  0  0  0  0  0  0  0  0  0  0  0
   -2.5993   -1.4951   -1.3613 H   0  0  0  0  0  0  0  0  0  0  0  0
   -1.5065    0.0706    1.0606 H   0  0  0  0  0  0  0  0  0  0  0  0
   -3.4259    1.7168    0.5910 H   0  0  0  0  0  0  0  0  0  0  0  0
   -5.5251    0.5352    0.5675 H   0  0  0  0  0  0  0  0  0  0  0  0
   -4.6618   -1.0520    0.1768 H   0  0  0  0  0  0  0  0  0  0  0  0
    0.1322    1.1943   -2.1925 C   0  0  0  0  0  0  0  0  0  0  0  0
    0.1322    1.1943   -0.6628 C   0  0  0  0  0  0  0  0  0  0  0  0
    0.1322    2.6219   -0.1134 C   0  0  0  0  0  0  0  0  0  0  0  0
    1.2815    0.3815   -0.1047 C   0  0  0  0  0  0  0  0  0  0  0  0
    2.6046    0.7412   -0.3517 C   0  0  0  0  0  0  0  0  0  0  0  0
    3.6542   -0.0035    0.1597 C   0  0  0  0  0  0  0  0  0  0  0  0
    3.4011   -1.1283    0.9320 C   0  0  0  0  0  0  0  0  0  0  0  0
    2.0907   -1.4981    1.1858 C   0  0  0  0  0  0  0  0  0  0  0  0
    1.0435   -0.7474    0.6704 C   0  0  0  0  0  0  0  0  0  0  0  0
    1.0265    1.6846   -2.5842 H   0  0  0  0  0  0  0  0  0  0  0  0
    0.1091    0.1770   -2.5859 H   0  0  0  0  0  0  0  0  0  0  0  0
   -0.7373    1.7316   -2.5768 H   0  0  0  0  0  0  0  0  0  0  0  0
   -0.9767    0.6152   -0.2652 H   0  0  0  0  0  0  0  0  0  0  0  0
   -0.7373    3.1736   -0.4767 H   0  0  0  0  0  0  0  0  0  0  0  0
    0.1091    2.6236    0.9774 H   0  0  0  0  0  0  0  0  0  0  0  0
    1.0265    3.1635   -0.4302 H   0  0  0  0  0  0  0  0  0  0  0  0
    2.8204    1.6170   -0.9530 H   0  0  0  0  0  0  0  0  0  0  0  0
    4.6751    0.2946   -0.0451 H   0  0  0  0  0  0  0  0  0  0  0  0
    4.2210   -1.7112    1.3322 H   0  0  0  0  0  0  0  0  0  0  0  0
    1.8800   -2.3738    1.7871 H   0  0  0  0  0  0  0  0  0  0  0  0
    0.0209   -1.0448    0.8746 H   0  0  0  0  0  0  0  0  0  0  0  0
  1  2  2  3
  1  6  1  0
  1  7  1  0
  2  3  1  0
  2  8  1  0
  3  4  1  0
  3  9  1  0
  4  5  2  3
  4 10  1  0
  5 11  1  0
  5 12  1  0
 13 14  1  0
 13 22  1  0
 13 23  1  0
 13 24  1  0
 14 15  1  0
 14 16  1  0
 14 25  1  0
 15 26  1  0
 15 27  1  0
 15 28  1  0
 16 17  2  0
 16 21  1  0
 17 18  1  0
 17 29  1  0
 18 19  2  0
 18 30  1  0
 19 20  1  0
 19 31  1  0
 20 21  2  0
 20 32  1  0
 21 33  1  0
M  RAD  1   3   2
M  END
>  <reaction>  (13) 
rxn_1529

>  <mol_properties>  (13) 
{"1": {"label": "*0", "atom_type": "Cd"}, "2": {"label": "*1", "atom_type": "Cs"}, "13": {"label": "*3", "atom_type": "Cs"}, "15": {"label": "*4", "atom_type": "Cd"}, "24": {"label": "*2", "atom_type": "H0"}}

>  <type>  (13) 
unop_9

>  <geom_source>  (13) 
Heuristics

$$$$

     RDKit          3D

 33 32  0  0  0  0  0  0  0  0999 V2000
   -3.9804    0.6539    1.5524 C   0  0  0  0  0  0  0  0  0  0  0  0
   -2.7306    0.5190    1.1393 C   0  0  0  0  0  0  0  0  0  0  0  0
   -2.3198   -0.0644   -0.1760 C   0  0  0  0  0  3  0  0  0  0  0  0
   -1.4904   -1.3160   -0.0805 C   0  0  0  0  0  0  0  0  0  0  0  0
   -1.2819   -2.0289    1.0151 C   0  0  0  0  0  0  0  0  0  0  0  0
   -4.2150    1.0923    2.5143 H   0  0  0  0  0  0  0  0  0  0  0  0
   -4.8165    0.3314    0.9410 H   0  0  0  0  0  0  0  0  0  0  0  0
   -1.9200    0.8464    1.7853 H   0  0  0  0  0  0  0  0  0  0  0  0
   -3.2058   -0.2711   -0.7855 H   0  0  0  0  0  0  0  0  0  0  0  0
   -1.0430   -1.6438   -1.0149 H   0  0  0  0  0  0  0  0  0  0  0  0
   -0.6744   -2.9247    0.9918 H   0  0  0  0  0  0  0  0  0  0  0  0
   -1.7145   -1.7497    1.9690 H   0  0  0  0  0  0  0  0  0  0  0  0
   -0.0997    1.0952   -2.5018 C   0  0  0  0  0  0  0  0  0  0  0  0
   -0.0997    1.0952   -0.9721 C   0  0  0  0  0  0  0  0  0  0  0  0
   -0.0997    2.5228   -0.4226 C   0  0  0  0  0  0  0  0  0  0  0  0
    1.0496    0.2823   -0.4140 C   0  0  0  0  0  0  0  0  0  0  0  0
    2.3727    0.6421   -0.6610 C   0  0  0  0  0  0  0  0  0  0  0  0
    3.4224   -0.1027   -0.1496 C   0  0  0  0  0  0  0  0  0  0  0  0
    3.1693   -1.2275    0.6227 C   0  0  0  0  0  0  0  0  0  0  0  0
    1.8589   -1.5973    0.8766 C   0  0  0  0  0  0  0  0  0  0  0  0
    0.8116   -0.8466    0.3612 C   0  0  0  0  0  0  0  0  0  0  0  0
    0.7946    1.5854   -2.8935 H   0  0  0  0  0  0  0  0  0  0  0  0
   -0.1227    0.0779   -2.8952 H   0  0  0  0  0  0  0  0  0  0  0  0
   -0.9692    1.6324   -2.8861 H   0  0  0  0  0  0  0  0  0  0  0  0
   -1.2086    0.5160   -0.5745 H   0  0  0  0  0  0  0  0  0  0  0  0
   -0.9692    3.0744   -0.7860 H   0  0  0  0  0  0  0  0  0  0  0  0
   -0.1227    2.5245    0.6681 H   0  0  0  0  0  0  0  0  0  0  0  0
    0.7946    3.0644   -0.7395 H   0  0  0  0  0  0  0  0  0  0  0  0
    2.5885    1.5178   -1.2623 H   0  0  0  0  0  0  0  0  0  0  0  0
    4.4432    0.1954   -0.3543 H   0  0  0  0  0  0  0  0  0  0  0  0
    3.9891   -1.8103    1.0229 H   0  0  0  0  0  0  0  0  0  0  0  0
    1.6481   -2.4730    1.4778 H   0  0  0  0  0  0  0  0  0  0  0  0
   -0.2110   -1.1439    0.5653 H   0  0  0  0  0  0  0  0  0  0  0  0
  1  2  2  3
  1  6  1  0
  1  7  1  0
  2  3  1  0
  2  8  1  0
  3  4  1  0
  3  9  1  0
  4  5  2  3
  4 10  1  0
  5 11  1  0
  5 12  1  0
 13 14  1  0
 13 22  1  0
 13 23  1  0
 13 24  1  0
 14 15  1  0
 14 16  1  0
 14 25  1  0
 15 26  1  0
 15 27  1  0
 15 28  1  0
 16 17  2  0
 16 21  1  0
 17 18  1  0
 17 29  1  0
 18 19  2  0
 18 30  1  0
 19 20  1  0
 19 31  1  0
 20 21  2  0
 20 32  1  0
 21 33  1  0
M  RAD  1   3   2
M  END
>  <reaction>  (14) 
rxn_1529

>  <mol_properties>  (14) 
{"1": {"label": "*0", "atom_type": "Cd"}, "2": {"label": "*1", "atom_type": "Cs"}, "13": {"label": "*3", "atom_type": "Cs"}, "15": {"label": "*4", "atom_type": "Cd"}, "24": {"label": "*2", "atom_type": "H0"}}

>  <type>  (14) 
unop_10

>  <geom_source>  (14) 
Heuristics

$$$$

     RDKit          3D

 33 32  0  0  0  0  0  0  0  0999 V2000
   -3.1564   -1.8673   -1.2716 C   0  0  0  0  0  0  0  0  0  0  0  0
   -2.7873   -0.6266   -0.9968 C   0  0  0  0  0  0  0  0  0  0  0  0
   -1.9953   -0.2130    0.2034 C   0  0  0  0  0  3  0  0  0  0  0  0
   -2.7056    0.7320    1.1341 C   0  0  0  0  0  0  0  0  0  0  0  0
   -3.9907    1.0465    1.0910 C   0  0  0  0  0  0  0  0  0  0  0  0
   -3.7235   -2.1054   -2.1628 H   0  0  0  0  0  0  0  0  0  0  0  0
   -2.9023   -2.6921   -0.6144 H   0  0  0  0  0  0  0  0  0  0  0  0
   -3.0693    0.1736   -1.6762 H   0  0  0  0  0  0  0  0  0  0  0  0
   -1.6821   -1.0981    0.7670 H   0  0  0  0  0  0  0  0  0  0  0  0
   -2.0815    1.1727    1.9067 H   0  0  0  0  0  0  0  0  0  0  0  0
   -4.4223    1.7332    1.8080 H   0  0  0  0  0  0  0  0  0  0  0  0
   -4.6568    0.6258    0.3465 H   0  0  0  0  0  0  0  0  0  0  0  0
    0.2249    0.9466   -2.1225 C   0  0  0  0  0  0  0  0  0  0  0  0
    0.2249    0.9466   -0.5928 C   0  0  0  0  0  0  0  0  0  0  0  0
    0.2249    2.3742   -0.0433 C   0  0  0  0  0  0  0  0  0  0  0  0
    1.3742    0.1337   -0.0347 C   0  0  0  0  0  0  0  0  0  0  0  0
    2.6972    0.4935   -0.2817 C   0  0  0  0  0  0  0  0  0  0  0  0
    3.7469   -0.2513    0.2297 C   0  0  0  0  0  0  0  0  0  0  0  0
    3.4938   -1.3761    1.0020 C   0  0  0  0  0  0  0  0  0  0  0  0
    2.1834   -1.7458    1.2559 C   0  0  0  0  0  0  0  0  0  0  0  0
    1.1362   -0.9952    0.7405 C   0  0  0  0  0  0  0  0  0  0  0  0
    1.1191    1.4368   -2.5141 H   0  0  0  0  0  0  0  0  0  0  0  0
    0.2018   -0.0707   -2.5158 H   0  0  0  0  0  0  0  0  0  0  0  0
   -0.6447    1.4838   -2.5068 H   0  0  0  0  0  0  0  0  0  0  0  0
   -0.8840    0.3674   -0.1951 H   0  0  0  0  0  0  0  0  0  0  0  0
   -0.6447    2.9258   -0.4066 H   0  0  0  0  0  0  0  0  0  0  0  0
    0.2018    2.3759    1.0474 H   0  0  0  0  0  0  0  0  0  0  0  0
    1.1191    2.9158   -0.3602 H   0  0  0  0  0  0  0  0  0  0  0  0
    2.9130    1.3692   -0.8830 H   0  0  0  0  0  0  0  0  0  0  0  0
    4.7677    0.0469    0.0250 H   0  0  0  0  0  0  0  0  0  0  0  0
    4.3137   -1.9589    1.4022 H   0  0  0  0  0  0  0  0  0  0  0  0
    1.9727   -2.6216    1.8572 H   0  0  0  0  0  0  0  0  0  0  0  0
    0.1135   -1.2925    0.9446 H   0  0  0  0  0  0  0  0  0  0  0  0
  1  2  2  3
  1  6  1  0
  1  7  1  0
  2  3  1  0
  2  8  1  0
  3  4  1  0
  3  9  1  0
  4  5  2  3
  4 10  1  0
  5 11  1  0
  5 12  1  0
 13 14  1  0
 13 22  1  0
 13 23  1  0
 13 24  1  0
 14 15  1  0
 14 16  1  0
 14 25  1  0
 15 26  1  0
 15 27  1  0
 15 28  1  0
 16 17  2  0
 16 21  1  0
 17 18  1  0
 17 29  1  0
 18 19  2  0
 18 30  1  0
 19 20  1  0
 19 31  1  0
 20 21  2  0
 20 32  1  0
 21 33  1  0
M  RAD  1   3   2
M  END
>  <reaction>  (15) 
rxn_1529

>  <mol_properties>  (15) 
{"1": {"label": "*0", "atom_type": "Cd"}, "2": {"label": "*1", "atom_type": "Cs"}, "13": {"label": "*3", "atom_type": "Cs"}, "15": {"label": "*4", "atom_type": "Cd"}, "24": {"label": "*2", "atom_type": "H0"}}

>  <type>  (15) 
unop_11

>  <geom_source>  (15) 
Heuristics

$$$$

     RDKit          3D

 33 32  0  0  0  0  0  0  0  0999 V2000
    1.7011    0.3098   -0.2104 C   0  0  0  0  0  3  0  0  0  0  0  0
    0.2686   -1.6707   -1.0413 C   0  0  0  0  0  0  0  0  0  0  0  0
   -0.8468   -2.4653    1.0994 C   0  0  0  0  0  0  0  0  0  0  0  0
   -0.3411   -1.2630    0.3008 C   0  0  0  0  0  0  0  0  0  0  0  0
   -1.3921   -0.1953    0.1495 C   0  0  0  0  0  0  0  0  0  0  0  0
    2.7890   -0.2668   -1.0706 C   0  0  0  0  0  0  0  0  0  0  0  0
    2.2654    0.9773    1.0124 C   0  0  0  0  0  0  0  0  0  0  0  0
   -1.1726    1.0617    0.7305 C   0  0  0  0  0  0  0  0  0  0  0  0
   -2.5845   -0.4303   -0.5590 C   0  0  0  0  0  0  0  0  0  0  0  0
   -2.1312    2.0725    0.6062 C   0  0  0  0  0  0  0  0  0  0  0  0
   -3.3141    1.8334   -0.0989 C   0  0  0  0  0  0  0  0  0  0  0  0
   -3.5405    0.5830   -0.6810 C   0  0  0  0  0  0  0  0  0  0  0  0
    3.6142    0.5129   -1.7753 C   0  0  0  0  0  0  0  0  0  0  0  0
    1.4572    1.5154    1.9278 C   0  0  0  0  0  0  0  0  0  0  0  0
    1.1011    1.0372   -0.7996 H   0  0  0  0  0  0  0  0  0  0  0  0
    0.8448   -0.7445    0.2029 H   0  0  0  0  0  0  0  0  0  0  0  0
   -0.4848   -2.1779   -1.6807 H   0  0  0  0  0  0  0  0  0  0  0  0
    1.1206   -2.3620   -0.8716 H   0  0  0  0  0  0  0  0  0  0  0  0
    0.6503   -0.7724   -1.5711 H   0  0  0  0  0  0  0  0  0  0  0  0
   -0.0079   -3.1659    1.2941 H   0  0  0  0  0  0  0  0  0  0  0  0
   -1.2504   -2.1265    2.0770 H   0  0  0  0  0  0  0  0  0  0  0  0
   -1.6436   -3.0034    0.5432 H   0  0  0  0  0  0  0  0  0  0  0  0
    2.8933   -1.3455   -1.1321 H   0  0  0  0  0  0  0  0  0  0  0  0
    3.3404    1.0260    1.1662 H   0  0  0  0  0  0  0  0  0  0  0  0
   -0.2595    1.2582    1.2791 H   0  0  0  0  0  0  0  0  0  0  0  0
   -1.9569    3.0411    1.0566 H   0  0  0  0  0  0  0  0  0  0  0  0
   -2.7737   -1.3936   -1.0151 H   0  0  0  0  0  0  0  0  0  0  0  0
   -4.0549    2.6167   -0.1941 H   0  0  0  0  0  0  0  0  0  0  0  0
   -4.4569    0.3989   -1.2267 H   0  0  0  0  0  0  0  0  0  0  0  0
    3.5264    1.5947   -1.7389 H   0  0  0  0  0  0  0  0  0  0  0  0
    4.3859    0.0674   -2.3946 H   0  0  0  0  0  0  0  0  0  0  0  0
    1.8751    1.9935    2.8077 H   0  0  0  0  0  0  0  0  0  0  0  0
    0.3783    1.4836    1.8076 H   0  0  0  0  0  0  0  0  0  0  0  0
  1  6  1  0
  1  7  1  0
  1 15  1  0
  2  4  1  0
  2 17  1  0
  2 18  1  0
  2 19  1  0
  3  4  1  0
  3 20  1  0
  3 21  1  0
  3 22  1  0
  4  5  1  0
  4 16  1  0
  5  8  2  0
  5  9  1  0
  6 13  2  3
  6 23  1  0
  7 14  2  3
  7 24  1  0
  8 10  1  0
  8 25  1  0
  9 12  2  0
  9 27  1  0
 10 11  2  0
 10 26  1  0
 11 12  1  0
 11 28  1  0
 12 29  1  0
 13 30  1  0
 13 31  1  0
 14 32  1  0
 14 33  1  0
M  RAD  1   1   2
M  END
>  <reaction>  (16) 
rxn_1529

>  <mol_properties>  (16) 
{"1": {"label": "*0", "atom_type": "Cd"}, "2": {"label": "*1", "atom_type": "Cs"}, "13": {"label": "*3", "atom_type": "Cs"}, "15": {"label": "*4", "atom_type": "Cd"}, "24": {"label": "*2", "atom_type": "H0"}}

>  <type>  (16) 
unop_12

>  <geom_source>  (16) 
AutoTST

$$$$
