
     RDKit          3D

 12 11  0  0  0  0  0  0  0  0999 V2000
    2.1696    0.6854    1.1310 C   0  0  0  0  0  0  0  0  0  0  0  0
    1.2518    0.4145    0.4134 C   0  0  0  0  0  0  0  0  0  0  0  0
    0.1391    0.0443   -0.4683 C   0  0  0  0  0  0  0  0  0  0  0  0
   -0.2054   -1.4492   -0.3339 C   0  0  0  0  0  0  0  0  0  0  0  0
   -1.0375    0.8853   -0.2222 C   0  0  0  0  0  0  0  0  0  0  0  0
   -2.0160    1.5463   -0.0311 C   0  0  0  0  0  0  0  0  0  0  0  0
    2.9819    0.9356    1.7702 H   0  0  0  0  0  0  0  0  0  0  0  0
    0.4629    0.2285   -1.4981 H   0  0  0  0  0  0  0  0  0  0  0  0
   -0.5327   -1.6703    0.6812 H   0  0  0  0  0  0  0  0  0  0  0  0
    0.6727   -2.0535   -0.5593 H   0  0  0  0  0  0  0  0  0  0  0  0
   -1.0064   -1.7081   -1.0256 H   0  0  0  0  0  0  0  0  0  0  0  0
   -2.8802    2.1413    0.1426 H   0  0  0  0  0  0  0  0  0  0  0  0
  1  2  3  0
  1  7  1  0
  2  3  1  0
  3  4  1  0
  3  5  1  0
  3  8  1  0
  4  9  1  0
  4 10  1  0
  4 11  1  0
  5  6  3  0
  6 12  1  0
M  END
>  <reaction>  (1) 
rxn_1419

>  <mol_properties>  (1) 
{"2": {"label": "donator", "atom_type": "Cs"}, "7": {"label": "d_hydrogen", "atom_type": "H0"}}

>  <type>  (1) 
r1h

$$$$

     RDKit          3D

  9  8  0  0  0  0  0  0  0  0999 V2000
    2.3991   -0.1292   -0.2384 S   0  0  0  0  0  0  0  0  0  0  0  0
    0.7460    0.2807    0.0931 C   0  0  0  0  0  3  0  0  0  0  0  0
   -0.3131   -0.5719   -0.2043 C   0  0  0  0  0  0  0  0  0  0  0  0
   -0.2286   -1.8095   -0.7775 C   0  0  0  0  0  0  0  0  0  0  0  0
    2.9373    1.0009    0.2312 H   0  0  0  0  0  0  0  0  0  0  0  0
    0.5618    1.2421    0.5487 H   0  0  0  0  0  0  0  0  0  0  0  0
   -1.2978   -0.1954    0.0537 H   0  0  0  0  0  0  0  0  0  0  0  0
    0.7207   -2.2479   -1.0607 H   0  0  0  0  0  0  0  0  0  0  0  0
   -1.1177   -2.3938   -0.9670 H   0  0  0  0  0  0  0  0  0  0  0  0
  1  2  1  0
  1  5  1  0
  2  3  1  0
  2  6  1  0
  3  4  2  3
  3  7  1  0
  4  8  1  0
  4  9  1  0
M  RAD  1   2   2
M  END
>  <reaction>  (2) 
rxn_1419

>  <mol_properties>  (2) 
{"1": {"label": "acceptor", "atom_type": "Cs"}}

>  <type>  (2) 
r2

$$$$

     RDKit          3D

 10  9  0  0  0  0  0  0  0  0999 V2000
    2.2097   -0.5315    0.2575 S   0  0  0  0  0  0  0  0  0  0  0  0
    0.5401   -0.7188   -0.4494 C   0  0  0  0  0  0  0  0  0  0  0  0
   -0.5263   -0.1678    0.4365 C   0  0  0  0  0  0  0  0  0  0  0  0
   -1.3394    0.8185    0.0912 C   0  0  0  0  0  0  0  0  0  0  0  0
    2.1701    0.8016    0.3806 H   0  0  0  0  0  0  0  0  0  0  0  0
    0.4238   -1.7978   -0.5701 H   0  0  0  0  0  0  0  0  0  0  0  0
    0.5053   -0.2663   -1.4400 H   0  0  0  0  0  0  0  0  0  0  0  0
   -0.6005   -0.6141    1.4236 H   0  0  0  0  0  0  0  0  0  0  0  0
   -2.0960    1.1907    0.7700 H   0  0  0  0  0  0  0  0  0  0  0  0
   -1.2784    1.2877   -0.8850 H   0  0  0  0  0  0  0  0  0  0  0  0
  1  2  1  0
  1  5  1  0
  2  3  1  0
  2  6  1  0
  2  7  1  0
  3  4  2  3
  3  8  1  0
  4  9  1  0
  4 10  1  0
M  END
>  <reaction>  (3) 
rxn_1419

>  <mol_properties>  (3) 
{"0": {"label": "a_hydrogen", "atom_type": "H0"}, "2": {"label": "acceptor", "atom_type": "Cs"}}

>  <type>  (3) 
r2h

$$$$

     RDKit          3D

 21 19  0  0  0  0  0  0  0  0999 V2000
   -1.5550   -2.1565   -1.1001 C   0  0  0  0  0  0  0  0  0  0  0  0
   -1.4830   -1.1012   -0.5321 C   0  0  0  0  0  0  0  0  0  0  0  0
   -1.3191    0.1521    0.1456 C   0  0  0  0  0  0  0  0  0  0  0  0
   -1.0335    1.3550   -0.7387 C   0  0  0  0  0  0  0  0  0  0  0  0
   -2.2113    0.3812    1.2455 C   0  0  0  0  0  0  0  0  0  0  0  0
   -2.9098    0.5952    2.1991 C   0  0  0  0  0  0  0  0  0  0  0  0
   -1.6405   -3.0876   -1.6064 H   0  0  0  0  0  0  0  0  0  0  0  0
   -0.1259    0.0050    0.7520 H   0  0  0  0  0  0  0  0  0  0  0  0
   -1.9193    1.6384   -1.3099 H   0  0  0  0  0  0  0  0  0  0  0  0
   -0.2313    1.1149   -1.4369 H   0  0  0  0  0  0  0  0  0  0  0  0
   -0.7285    2.2014   -0.1225 H   0  0  0  0  0  0  0  0  0  0  0  0
   -3.5524    0.7789    3.0263 H   0  0  0  0  0  0  0  0  0  0  0  0
    1.1748    1.1975    2.5108 S   0  0  0  0  0  0  0  0  0  0  0  0
    1.0805   -0.1324    1.3388 C   0  0  0  0  0  3  0  0  0  0  0  0
    2.0466   -0.0749    0.2537 C   0  0  0  0  0  0  0  0  0  0  0  0
    2.4539   -1.1423   -0.4376 C   0  0  0  0  0  0  0  0  0  0  0  0
   -0.0173    0.9776    3.0836 H   0  0  0  0  0  0  0  0  0  0  0  0
    0.9366   -1.1169    1.7805 H   0  0  0  0  0  0  0  0  0  0  0  0
    2.3987    0.9120   -0.0335 H   0  0  0  0  0  0  0  0  0  0  0  0
    2.1164   -2.1410   -0.1863 H   0  0  0  0  0  0  0  0  0  0  0  0
    3.1315   -1.0425   -1.2749 H   0  0  0  0  0  0  0  0  0  0  0  0
  1  2  3  0
  1  7  1  0
  2  3  1  0
  3  4  1  0
  3  5  1  0
  3  8  1  0
  4  9  1  0
  4 10  1  0
  4 11  1  0
  5  6  3  0
  6 12  1  0
 13 14  1  0
 13 17  1  0
 14 15  1  0
 14 18  1  0
 15 16  2  3
 15 19  1  0
 16 20  1  0
 16 21  1  0
M  RAD  1  14   2
M  END
>  <reaction>  (4) 
rxn_1419

>  <mol_properties>  (4) 
{"1": {"label": "*0", "atom_type": "Ct"}, "2": {"label": "*1", "atom_type": "Cs"}, "7": {"label": "*2", "atom_type": "H0"}, "12": {"label": "*4", "atom_type": "S2s"}, "13": {"label": "*3", "atom_type": "Cs"}}

>  <type>  (4) 
ts

$$$$

     RDKit          3D

 21 19  0  0  0  0  0  0  0  0999 V2000
   -1.3226    0.0169   -3.0345 C   0  0  0  0  0  0  0  0  0  0  0  0
   -1.3226    0.0169   -1.8383 C   0  0  0  0  0  0  0  0  0  0  0  0
   -1.3226    0.0570   -0.3718 C   0  0  0  0  0  3  0  0  0  0  0  0
   -1.9607    1.3562    0.1502 C   0  0  0  0  0  0  0  0  0  0  0  0
   -1.9845   -1.1243    0.1930 C   0  0  0  0  0  0  0  0  0  0  0  0
   -2.5327   -2.0696    0.6795 C   0  0  0  0  0  0  0  0  0  0  0  0
   -1.3226    0.0169   -4.0979 H   0  0  0  0  0  0  0  0  0  0  0  0
   -0.0690    0.0297    0.0214 H   0  0  0  0  0  0  0  0  0  0  0  0
   -3.0039    1.4134   -0.1575 H   0  0  0  0  0  0  0  0  0  0  0  0
   -1.4280    2.2176   -0.2514 H   0  0  0  0  0  0  0  0  0  0  0  0
   -1.9135    1.3806    1.2385 H   0  0  0  0  0  0  0  0  0  0  0  0
   -3.0201   -2.9100    1.1120 H   0  0  0  0  0  0  0  0  0  0  0  0
    1.3842    1.5548    1.3469 S   0  0  0  0  0  0  0  0  0  0  0  0
    1.1809    0.0025    0.4134 C   0  0  0  0  0  0  0  0  0  0  0  0
    2.4738   -0.5324   -0.1044 C   0  0  0  0  0  0  0  0  0  0  0  0
    2.9741   -1.7119    0.2301 C   0  0  0  0  0  0  0  0  0  0  0  0
    2.2339    1.0683    2.2608 H   0  0  0  0  0  0  0  0  0  0  0  0
    0.6654   -0.7341    1.0288 H   0  0  0  0  0  0  0  0  0  0  0  0
    3.0198    0.1186   -0.7804 H   0  0  0  0  0  0  0  0  0  0  0  0
    2.4530   -2.3758    0.9115 H   0  0  0  0  0  0  0  0  0  0  0  0
    3.9203   -2.0569   -0.1665 H   0  0  0  0  0  0  0  0  0  0  0  0
  1  2  3  0
  1  7  1  0
  2  3  1  0
  3  4  1  0
  3  5  1  0
  4  9  1  0
  4 10  1  0
  4 11  1  0
  5  6  3  0
  6 12  1  0
  8 14  1  0
 13 14  1  0
 13 17  1  0
 14 15  1  0
 14 18  1  0
 15 16  2  3
 15 19  1  0
 16 20  1  0
 16 21  1  0
M  RAD  1   3   2
M  END
>  <reaction>  (5) 
rxn_1419

>  <mol_properties>  (5) 
{"1": {"label": "*0", "atom_type": "Ct"}, "2": {"label": "*1", "atom_type": "Cs"}, "7": {"label": "*2", "atom_type": "H0"}, "12": {"label": "*4", "atom_type": "S2s"}, "13": {"label": "*3", "atom_type": "Cs"}}

>  <type>  (5) 
unop_1

>  <geom_source>  (5) 
Heuristics

$$$$

     RDKit          3D

 21 19  0  0  0  0  0  0  0  0999 V2000
   -1.3654    0.1867   -2.8117 C   0  0  0  0  0  0  0  0  0  0  0  0
   -1.3654    0.1867   -1.6155 C   0  0  0  0  0  0  0  0  0  0  0  0
   -1.3654    0.2267   -0.1490 C   0  0  0  0  0  3  0  0  0  0  0  0
   -2.0034    1.5260    0.3730 C   0  0  0  0  0  0  0  0  0  0  0  0
   -2.0273   -0.9545    0.4158 C   0  0  0  0  0  0  0  0  0  0  0  0
   -2.5755   -1.8998    0.9023 C   0  0  0  0  0  0  0  0  0  0  0  0
   -1.3654    0.1867   -3.8752 H   0  0  0  0  0  0  0  0  0  0  0  0
   -0.1118    0.1995    0.2441 H   0  0  0  0  0  0  0  0  0  0  0  0
   -3.0467    1.5832    0.0653 H   0  0  0  0  0  0  0  0  0  0  0  0
   -1.4708    2.3874   -0.0286 H   0  0  0  0  0  0  0  0  0  0  0  0
   -1.9563    1.5504    1.4612 H   0  0  0  0  0  0  0  0  0  0  0  0
   -3.0629   -2.7402    1.3348 H   0  0  0  0  0  0  0  0  0  0  0  0
    2.0426    0.9930   -0.7170 S   0  0  0  0  0  0  0  0  0  0  0  0
    1.1382    0.1723    0.6362 C   0  0  0  0  0  0  0  0  0  0  0  0
    1.8521   -1.0272    1.1625 C   0  0  0  0  0  0  0  0  0  0  0  0
    2.2689   -1.1512    2.4132 C   0  0  0  0  0  0  0  0  0  0  0  0
    3.1653    1.2265   -0.0249 H   0  0  0  0  0  0  0  0  0  0  0  0
    0.9299    0.8894    1.4297 H   0  0  0  0  0  0  0  0  0  0  0  0
    2.0402   -1.8201    0.4450 H   0  0  0  0  0  0  0  0  0  0  0  0
    2.1024   -0.3689    3.1461 H   0  0  0  0  0  0  0  0  0  0  0  0
    2.7890   -2.0388    2.7498 H   0  0  0  0  0  0  0  0  0  0  0  0
  1  2  3  0
  1  7  1  0
  2  3  1  0
  3  4  1  0
  3  5  1  0
  4  9  1  0
  4 10  1  0
  4 11  1  0
  5  6  3  0
  6 12  1  0
  8 14  1  0
 13 14  1  0
 13 17  1  0
 14 15  1  0
 14 18  1  0
 15 16  2  3
 15 19  1  0
 16 20  1  0
 16 21  1  0
M  RAD  1   3   2
M  END
>  <reaction>  (6) 
rxn_1419

>  <mol_properties>  (6) 
{"1": {"label": "*0", "atom_type": "Ct"}, "2": {"label": "*1", "atom_type": "Cs"}, "7": {"label": "*2", "atom_type": "H0"}, "12": {"label": "*4", "atom_type": "S2s"}, "13": {"label": "*3", "atom_type": "Cs"}}

>  <type>  (6) 
unop_2

>  <geom_source>  (6) 
Heuristics

$$$$

     RDKit          3D

 21 19  0  0  0  0  0  0  0  0999 V2000
   -1.3042    0.0008   -3.0581 C   0  0  0  0  0  0  0  0  0  0  0  0
   -1.3042    0.0008   -1.8619 C   0  0  0  0  0  0  0  0  0  0  0  0
   -1.3042    0.0409   -0.3954 C   0  0  0  0  0  3  0  0  0  0  0  0
   -1.9422    1.3401    0.1266 C   0  0  0  0  0  0  0  0  0  0  0  0
   -1.9660   -1.1404    0.1694 C   0  0  0  0  0  0  0  0  0  0  0  0
   -2.5143   -2.0856    0.6559 C   0  0  0  0  0  0  0  0  0  0  0  0
   -1.3042    0.0008   -4.1215 H   0  0  0  0  0  0  0  0  0  0  0  0
   -0.0506    0.0136   -0.0022 H   0  0  0  0  0  0  0  0  0  0  0  0
   -2.9855    1.3974   -0.1811 H   0  0  0  0  0  0  0  0  0  0  0  0
   -1.4096    2.2015   -0.2750 H   0  0  0  0  0  0  0  0  0  0  0  0
   -1.8950    1.3645    1.2149 H   0  0  0  0  0  0  0  0  0  0  0  0
   -3.0017   -2.9261    1.0884 H   0  0  0  0  0  0  0  0  0  0  0  0
    1.1898    0.9147    1.9585 S   0  0  0  0  0  0  0  0  0  0  0  0
    1.1994   -0.0135    0.3898 C   0  0  0  0  0  0  0  0  0  0  0  0
    2.4530    0.1900   -0.3930 C   0  0  0  0  0  0  0  0  0  0  0  0
    3.2909   -0.7833   -0.7153 C   0  0  0  0  0  0  0  0  0  0  0  0
    2.3012    0.3638    2.4637 H   0  0  0  0  0  0  0  0  0  0  0  0
    1.0212   -1.0706    0.5847 H   0  0  0  0  0  0  0  0  0  0  0  0
    2.6694    1.2132   -0.6845 H   0  0  0  0  0  0  0  0  0  0  0  0
    3.1025   -1.8120   -0.4268 H   0  0  0  0  0  0  0  0  0  0  0  0
    4.1931   -0.5878   -1.2804 H   0  0  0  0  0  0  0  0  0  0  0  0
  1  2  3  0
  1  7  1  0
  2  3  1  0
  3  4  1  0
  3  5  1  0
  4  9  1  0
  4 10  1  0
  4 11  1  0
  5  6  3  0
  6 12  1  0
  8 14  1  0
 13 14  1  0
 13 17  1  0
 14 15  1  0
 14 18  1  0
 15 16  2  3
 15 19  1  0
 16 20  1  0
 16 21  1  0
M  RAD  1   3   2
M  END
>  <reaction>  (7) 
rxn_1419

>  <mol_properties>  (7) 
{"1": {"label": "*0", "atom_type": "Ct"}, "2": {"label": "*1", "atom_type": "Cs"}, "7": {"label": "*2", "atom_type": "H0"}, "12": {"label": "*4", "atom_type": "S2s"}, "13": {"label": "*3", "atom_type": "Cs"}}

>  <type>  (7) 
unop_3

>  <geom_source>  (7) 
Heuristics

$$$$

     RDKit          3D

 21 19  0  0  0  0  0  0  0  0999 V2000
   -1.0687    0.4519   -3.0942 C   0  0  0  0  0  0  0  0  0  0  0  0
   -1.0687    0.4519   -1.8981 C   0  0  0  0  0  0  0  0  0  0  0  0
   -1.0687    0.4919   -0.4315 C   0  0  0  0  0  3  0  0  0  0  0  0
   -1.7068    1.7912    0.0905 C   0  0  0  0  0  0  0  0  0  0  0  0
   -1.7306   -0.6893    0.1332 C   0  0  0  0  0  0  0  0  0  0  0  0
   -2.2788   -1.6346    0.6197 C   0  0  0  0  0  0  0  0  0  0  0  0
   -1.0687    0.4519   -4.1577 H   0  0  0  0  0  0  0  0  0  0  0  0
    0.1849    0.4647   -0.0384 H   0  0  0  0  0  0  0  0  0  0  0  0
   -2.7500    1.8484   -0.2173 H   0  0  0  0  0  0  0  0  0  0  0  0
   -1.1742    2.6526   -0.3112 H   0  0  0  0  0  0  0  0  0  0  0  0
   -1.6596    1.8156    1.1787 H   0  0  0  0  0  0  0  0  0  0  0  0
   -2.7662   -2.4750    1.0522 H   0  0  0  0  0  0  0  0  0  0  0  0
    2.0730   -1.1330   -0.3161 S   0  0  0  0  0  0  0  0  0  0  0  0
    1.4348    0.4375    0.3536 C   0  0  0  0  0  0  0  0  0  0  0  0
    0.8172    0.2805    1.7025 C   0  0  0  0  0  0  0  0  0  0  0  0
    1.2519    0.8949    2.7920 C   0  0  0  0  0  0  0  0  0  0  0  0
    2.9122   -1.3952    0.6943 H   0  0  0  0  0  0  0  0  0  0  0  0
    2.2286    1.1838    0.3657 H   0  0  0  0  0  0  0  0  0  0  0  0
   -0.0270   -0.3998    1.7614 H   0  0  0  0  0  0  0  0  0  0  0  0
    2.0996    1.5710    2.7611 H   0  0  0  0  0  0  0  0  0  0  0  0
    0.7754    0.7460    3.7524 H   0  0  0  0  0  0  0  0  0  0  0  0
  1  2  3  0
  1  7  1  0
  2  3  1  0
  3  4  1  0
  3  5  1  0
  4  9  1  0
  4 10  1  0
  4 11  1  0
  5  6  3  0
  6 12  1  0
  8 14  1  0
 13 14  1  0
 13 17  1  0
 14 15  1  0
 14 18  1  0
 15 16  2  3
 15 19  1  0
 16 20  1  0
 16 21  1  0
M  RAD  1   3   2
M  END
>  <reaction>  (8) 
rxn_1419

>  <mol_properties>  (8) 
{"1": {"label": "*0", "atom_type": "Ct"}, "2": {"label": "*1", "atom_type": "Cs"}, "7": {"label": "*2", "atom_type": "H0"}, "12": {"label": "*4", "atom_type": "S2s"}, "13": {"label": "*3", "atom_type": "Cs"}}

>  <type>  (8) 
unop_4

>  <geom_source>  (8) 
Heuristics

$$$$

     RDKit          3D

 21 19  0  0  0  0  0  0  0  0999 V2000
   -1.2223   -0.0663   -3.1112 C   0  0  0  0  0  0  0  0  0  0  0  0
   -1.2223   -0.0663   -1.9151 C   0  0  0  0  0  0  0  0  0  0  0  0
   -1.2223   -0.0262   -0.4485 C   0  0  0  0  0  3  0  0  0  0  0  0
   -1.8604    1.2730    0.0735 C   0  0  0  0  0  0  0  0  0  0  0  0
   -1.8842   -1.2074    0.1163 C   0  0  0  0  0  0  0  0  0  0  0  0
   -2.4324   -2.1527    0.6028 C   0  0  0  0  0  0  0  0  0  0  0  0
   -1.2223   -0.0663   -4.1747 H   0  0  0  0  0  0  0  0  0  0  0  0
    0.0313   -0.0534   -0.0554 H   0  0  0  0  0  0  0  0  0  0  0  0
   -2.9036    1.3303   -0.2343 H   0  0  0  0  0  0  0  0  0  0  0  0
   -1.3277    2.1344   -0.3282 H   0  0  0  0  0  0  0  0  0  0  0  0
   -1.8132    1.2975    1.1617 H   0  0  0  0  0  0  0  0  0  0  0  0
   -2.9198   -2.9931    1.0353 H   0  0  0  0  0  0  0  0  0  0  0  0
    1.1743   -0.0277    2.1555 S   0  0  0  0  0  0  0  0  0  0  0  0
    1.2812   -0.0806    0.3366 C   0  0  0  0  0  0  0  0  0  0  0  0
    2.0384    1.0731   -0.2302 C   0  0  0  0  0  0  0  0  0  0  0  0
    3.1494    0.9524   -0.9405 C   0  0  0  0  0  0  0  0  0  0  0  0
    2.4943   -0.0153    2.3815 H   0  0  0  0  0  0  0  0  0  0  0  0
    1.7102   -1.0305    0.0191 H   0  0  0  0  0  0  0  0  0  0  0  0
    1.6356    2.0577   -0.0130 H   0  0  0  0  0  0  0  0  0  0  0  0
    3.5775   -0.0194   -1.1621 H   0  0  0  0  0  0  0  0  0  0  0  0
    3.6693    1.8194   -1.3274 H   0  0  0  0  0  0  0  0  0  0  0  0
  1  2  3  0
  1  7  1  0
  2  3  1  0
  3  4  1  0
  3  5  1  0
  4  9  1  0
  4 10  1  0
  4 11  1  0
  5  6  3  0
  6 12  1  0
  8 14  1  0
 13 14  1  0
 13 17  1  0
 14 15  1  0
 14 18  1  0
 15 16  2  3
 15 19  1  0
 16 20  1  0
 16 21  1  0
M  RAD  1   3   2
M  END
>  <reaction>  (9) 
rxn_1419

>  <mol_properties>  (9) 
{"1": {"label": "*0", "atom_type": "Ct"}, "2": {"label": "*1", "atom_type": "Cs"}, "7": {"label": "*2", "atom_type": "H0"}, "12": {"label": "*4", "atom_type": "S2s"}, "13": {"label": "*3", "atom_type": "Cs"}}

>  <type>  (9) 
unop_5

>  <geom_source>  (9) 
Heuristics

$$$$

     RDKit          3D

 21 19  0  0  0  0  0  0  0  0999 V2000
   -0.9983    0.3292   -3.2182 C   0  0  0  0  0  0  0  0  0  0  0  0
   -0.9983    0.3292   -2.0220 C   0  0  0  0  0  0  0  0  0  0  0  0
   -0.9983    0.3693   -0.5555 C   0  0  0  0  0  3  0  0  0  0  0  0
   -1.6364    1.6685   -0.0335 C   0  0  0  0  0  0  0  0  0  0  0  0
   -1.6602   -0.8120    0.0093 C   0  0  0  0  0  0  0  0  0  0  0  0
   -2.2084   -1.7573    0.4958 C   0  0  0  0  0  0  0  0  0  0  0  0
   -0.9983    0.3292   -4.2816 H   0  0  0  0  0  0  0  0  0  0  0  0
    0.2553    0.3420   -0.1623 H   0  0  0  0  0  0  0  0  0  0  0  0
   -2.6796    1.7257   -0.3412 H   0  0  0  0  0  0  0  0  0  0  0  0
   -1.1037    2.5299   -0.4351 H   0  0  0  0  0  0  0  0  0  0  0  0
   -1.5892    1.6929    1.0547 H   0  0  0  0  0  0  0  0  0  0  0  0
   -2.6958   -2.5977    0.9283 H   0  0  0  0  0  0  0  0  0  0  0  0
    1.8724   -1.4614    0.4099 S   0  0  0  0  0  0  0  0  0  0  0  0
    1.5053    0.3149    0.2297 C   0  0  0  0  0  0  0  0  0  0  0  0
    0.8008    0.8813    1.4165 C   0  0  0  0  0  0  0  0  0  0  0  0
    1.2861    1.8559    2.1702 C   0  0  0  0  0  0  0  0  0  0  0  0
    2.5949   -1.3505    1.5322 H   0  0  0  0  0  0  0  0  0  0  0  0
    2.4227    0.8620    0.0151 H   0  0  0  0  0  0  0  0  0  0  0  0
   -0.1574    0.4318    1.6586 H   0  0  0  0  0  0  0  0  0  0  0  0
    2.2456    2.3141    1.9553 H   0  0  0  0  0  0  0  0  0  0  0  0
    0.7416    2.2319    3.0267 H   0  0  0  0  0  0  0  0  0  0  0  0
  1  2  3  0
  1  7  1  0
  2  3  1  0
  3  4  1  0
  3  5  1  0
  4  9  1  0
  4 10  1  0
  4 11  1  0
  5  6  3  0
  6 12  1  0
  8 14  1  0
 13 14  1  0
 13 17  1  0
 14 15  1  0
 14 18  1  0
 15 16  2  3
 15 19  1  0
 16 20  1  0
 16 21  1  0
M  RAD  1   3   2
M  END
>  <reaction>  (10) 
rxn_1419

>  <mol_properties>  (10) 
{"1": {"label": "*0", "atom_type": "Ct"}, "2": {"label": "*1", "atom_type": "Cs"}, "7": {"label": "*2", "atom_type": "H0"}, "12": {"label": "*4", "atom_type": "S2s"}, "13": {"label": "*3", "atom_type": "Cs"}}

>  <type>  (10) 
unop_6

>  <geom_source>  (10) 
Heuristics

$$$$

     RDKit          3D

 21 19  0  0  0  0  0  0  0  0999 V2000
   -0.9933    0.1455   -3.2681 C   0  0  0  0  0  0  0  0  0  0  0  0
   -0.9933    0.1455   -2.0719 C   0  0  0  0  0  0  0  0  0  0  0  0
   -0.9933    0.1856   -0.6054 C   0  0  0  0  0  3  0  0  0  0  0  0
   -1.6314    1.4848   -0.0834 C   0  0  0  0  0  0  0  0  0  0  0  0
   -1.6552   -0.9956   -0.0406 C   0  0  0  0  0  0  0  0  0  0  0  0
   -2.2034   -1.9409    0.4459 C   0  0  0  0  0  0  0  0  0  0  0  0
   -0.9933    0.1455   -4.3315 H   0  0  0  0  0  0  0  0  0  0  0  0
    0.2603    0.1583   -0.2122 H   0  0  0  0  0  0  0  0  0  0  0  0
   -2.6746    1.5421   -0.3911 H   0  0  0  0  0  0  0  0  0  0  0  0
   -1.0987    2.3462   -0.4850 H   0  0  0  0  0  0  0  0  0  0  0  0
   -1.5842    1.5092    1.0049 H   0  0  0  0  0  0  0  0  0  0  0  0
   -2.6908   -2.7813    0.8784 H   0  0  0  0  0  0  0  0  0  0  0  0
    1.6207   -1.3773    1.1970 S   0  0  0  0  0  0  0  0  0  0  0  0
    1.5102    0.1312    0.1798 C   0  0  0  0  0  0  0  0  0  0  0  0
    0.9822    1.3015    0.9395 C   0  0  0  0  0  0  0  0  0  0  0  0
    1.6584    2.4229    1.1360 C   0  0  0  0  0  0  0  0  0  0  0  0
    2.4281   -0.8651    2.1349 H   0  0  0  0  0  0  0  0  0  0  0  0
    2.4817    0.3511   -0.2619 H   0  0  0  0  0  0  0  0  0  0  0  0
   -0.0130    1.1857    1.3578 H   0  0  0  0  0  0  0  0  0  0  0  0
    2.6581    2.5590    0.7374 H   0  0  0  0  0  0  0  0  0  0  0  0
    1.2369    3.2452    1.6997 H   0  0  0  0  0  0  0  0  0  0  0  0
  1  2  3  0
  1  7  1  0
  2  3  1  0
  3  4  1  0
  3  5  1  0
  4  9  1  0
  4 10  1  0
  4 11  1  0
  5  6  3  0
  6 12  1  0
  8 14  1  0
 13 14  1  0
 13 17  1  0
 14 15  1  0
 14 18  1  0
 15 16  2  3
 15 19  1  0
 16 20  1  0
 16 21  1  0
M  RAD  1   3   2
M  END
>  <reaction>  (11) 
rxn_1419

>  <mol_properties>  (11) 
{"1": {"label": "*0", "atom_type": "Ct"}, "2": {"label": "*1", "atom_type": "Cs"}, "7": {"label": "*2", "atom_type": "H0"}, "12": {"label": "*4", "atom_type": "S2s"}, "13": {"label": "*3", "atom_type": "Cs"}}

>  <type>  (11) 
unop_7

>  <geom_source>  (11) 
Heuristics

$$$$

     RDKit          3D

 21 19  0  0  0  0  0  0  0  0999 V2000
   -1.3424    0.0123   -2.9730 C   0  0  0  0  0  0  0  0  0  0  0  0
   -1.3424    0.0123   -1.7769 C   0  0  0  0  0  0  0  0  0  0  0  0
   -1.3424    0.0523   -0.3103 C   0  0  0  0  0  3  0  0  0  0  0  0
   -1.9804    1.3516    0.2117 C   0  0  0  0  0  0  0  0  0  0  0  0
   -2.0043   -1.1289    0.2545 C   0  0  0  0  0  0  0  0  0  0  0  0
   -2.5525   -2.0742    0.7410 C   0  0  0  0  0  0  0  0  0  0  0  0
   -1.3424    0.0123   -4.0365 H   0  0  0  0  0  0  0  0  0  0  0  0
   -0.0888    0.0251    0.0828 H   0  0  0  0  0  0  0  0  0  0  0  0
   -3.0237    1.4088   -0.0961 H   0  0  0  0  0  0  0  0  0  0  0  0
   -1.4478    2.2130   -0.1900 H   0  0  0  0  0  0  0  0  0  0  0  0
   -1.9333    1.3760    1.2999 H   0  0  0  0  0  0  0  0  0  0  0  0
   -3.0399   -2.9146    1.1735 H   0  0  0  0  0  0  0  0  0  0  0  0
    1.6354    1.7559    0.5585 S   0  0  0  0  0  0  0  0  0  0  0  0
    1.1612   -0.0021    0.4748 C   0  0  0  0  0  0  0  0  0  0  0  0
    2.3368   -0.9107    0.3409 C   0  0  0  0  0  0  0  0  0  0  0  0
    2.6552   -1.8446    1.2239 C   0  0  0  0  0  0  0  0  0  0  0  0
    2.4259    1.6454    1.6340 H   0  0  0  0  0  0  0  0  0  0  0  0
    0.5554   -0.2631    1.3421 H   0  0  0  0  0  0  0  0  0  0  0  0
    2.9573   -0.7574   -0.5368 H   0  0  0  0  0  0  0  0  0  0  0  0
    2.0575   -2.0103    2.1139 H   0  0  0  0  0  0  0  0  0  0  0  0
    3.5224   -2.4780    1.0882 H   0  0  0  0  0  0  0  0  0  0  0  0
  1  2  3  0
  1  7  1  0
  2  3  1  0
  3  4  1  0
  3  5  1  0
  4  9  1  0
  4 10  1  0
  4 11  1  0
  5  6  3  0
  6 12  1  0
  8 14  1  0
 13 14  1  0
 13 17  1  0
 14 15  1  0
 14 18  1  0
 15 16  2  3
 15 19  1  0
 16 20  1  0
 16 21  1  0
M  RAD  1   3   2
M  END
>  <reaction>  (12) 
rxn_1419

>  <mol_properties>  (12) 
{"1": {"label": "*0", "atom_type": "Ct"}, "2": {"label": "*1", "atom_type": "Cs"}, "7": {"label": "*2", "atom_type": "H0"}, "12": {"label": "*4", "atom_type": "S2s"}, "13": {"label": "*3", "atom_type": "Cs"}}

>  <type>  (12) 
unop_8

>  <geom_source>  (12) 
Heuristics

$$$$

     RDKit          3D

 21 19  0  0  0  0  0  0  0  0999 V2000
   -1.1838    0.4671   -2.9417 C   0  0  0  0  0  0  0  0  0  0  0  0
   -1.1838    0.4671   -1.7456 C   0  0  0  0  0  0  0  0  0  0  0  0
   -1.1838    0.5072   -0.2790 C   0  0  0  0  0  3  0  0  0  0  0  0
   -1.8219    1.8064    0.2430 C   0  0  0  0  0  0  0  0  0  0  0  0
   -1.8457   -0.6741    0.2857 C   0  0  0  0  0  0  0  0  0  0  0  0
   -2.3939   -1.6194    0.7722 C   0  0  0  0  0  0  0  0  0  0  0  0
   -1.1838    0.4671   -4.0052 H   0  0  0  0  0  0  0  0  0  0  0  0
    0.0698    0.4799    0.1141 H   0  0  0  0  0  0  0  0  0  0  0  0
   -2.8651    1.8636   -0.0648 H   0  0  0  0  0  0  0  0  0  0  0  0
   -1.2893    2.6678   -0.1587 H   0  0  0  0  0  0  0  0  0  0  0  0
   -1.7747    1.8308    1.3312 H   0  0  0  0  0  0  0  0  0  0  0  0
   -2.8813   -2.4598    1.2048 H   0  0  0  0  0  0  0  0  0  0  0  0
    2.1706   -0.4937   -0.7987 S   0  0  0  0  0  0  0  0  0  0  0  0
    1.3197    0.4528    0.5061 C   0  0  0  0  0  0  0  0  0  0  0  0
    1.0493   -0.3620    1.7262 C   0  0  0  0  0  0  0  0  0  0  0  0
    1.5349   -0.0823    2.9260 C   0  0  0  0  0  0  0  0  0  0  0  0
    3.2373   -0.8340   -0.0637 H   0  0  0  0  0  0  0  0  0  0  0  0
    1.8924    1.3480    0.7464 H   0  0  0  0  0  0  0  0  0  0  0  0
    0.4275   -1.2403    1.5820 H   0  0  0  0  0  0  0  0  0  0  0  0
    2.1669    0.7832    3.0938 H   0  0  0  0  0  0  0  0  0  0  0  0
    1.3166   -0.7063    3.7831 H   0  0  0  0  0  0  0  0  0  0  0  0
  1  2  3  0
  1  7  1  0
  2  3  1  0
  3  4  1  0
  3  5  1  0
  4  9  1  0
  4 10  1  0
  4 11  1  0
  5  6  3  0
  6 12  1  0
  8 14  1  0
 13 14  1  0
 13 17  1  0
 14 15  1  0
 14 18  1  0
 15 16  2  3
 15 19  1  0
 16 20  1  0
 16 21  1  0
M  RAD  1   3   2
M  END
>  <reaction>  (13) 
rxn_1419

>  <mol_properties>  (13) 
{"1": {"label": "*0", "atom_type": "Ct"}, "2": {"label": "*1", "atom_type": "Cs"}, "7": {"label": "*2", "atom_type": "H0"}, "12": {"label": "*4", "atom_type": "S2s"}, "13": {"label": "*3", "atom_type": "Cs"}}

>  <type>  (13) 
unop_9

>  <geom_source>  (13) 
Heuristics

$$$$

     RDKit          3D

 21 19  0  0  0  0  0  0  0  0999 V2000
   -1.3664    0.0581   -2.8814 C   0  0  0  0  0  0  0  0  0  0  0  0
   -1.3664    0.0581   -1.6853 C   0  0  0  0  0  0  0  0  0  0  0  0
   -1.3664    0.0982   -0.2187 C   0  0  0  0  0  3  0  0  0  0  0  0
   -2.0045    1.3974    0.3033 C   0  0  0  0  0  0  0  0  0  0  0  0
   -2.0283   -1.0830    0.3461 C   0  0  0  0  0  0  0  0  0  0  0  0
   -2.5765   -2.0283    0.8325 C   0  0  0  0  0  0  0  0  0  0  0  0
   -1.3664    0.0581   -3.9449 H   0  0  0  0  0  0  0  0  0  0  0  0
   -0.1128    0.0710    0.1744 H   0  0  0  0  0  0  0  0  0  0  0  0
   -3.0477    1.4547   -0.0045 H   0  0  0  0  0  0  0  0  0  0  0  0
   -1.4718    2.2588   -0.0984 H   0  0  0  0  0  0  0  0  0  0  0  0
   -1.9573    1.4219    1.3915 H   0  0  0  0  0  0  0  0  0  0  0  0
   -3.0639   -2.8687    1.2651 H   0  0  0  0  0  0  0  0  0  0  0  0
    1.8680    1.5340   -0.1869 S   0  0  0  0  0  0  0  0  0  0  0  0
    1.1371    0.0438    0.5664 C   0  0  0  0  0  0  0  0  0  0  0  0
    2.1357   -1.0443    0.7780 C   0  0  0  0  0  0  0  0  0  0  0  0
    2.4433   -1.5465    1.9639 C   0  0  0  0  0  0  0  0  0  0  0  0
    2.7854    1.7470    0.7654 H   0  0  0  0  0  0  0  0  0  0  0  0
    0.6359    0.3080    1.4971 H   0  0  0  0  0  0  0  0  0  0  0  0
    2.6341   -1.4108   -0.1142 H   0  0  0  0  0  0  0  0  0  0  0  0
    1.9671   -1.1902    2.8711 H   0  0  0  0  0  0  0  0  0  0  0  0
    3.1797   -2.3327    2.0705 H   0  0  0  0  0  0  0  0  0  0  0  0
  1  2  3  0
  1  7  1  0
  2  3  1  0
  3  4  1  0
  3  5  1  0
  4  9  1  0
  4 10  1  0
  4 11  1  0
  5  6  3  0
  6 12  1  0
  8 14  1  0
 13 14  1  0
 13 17  1  0
 14 15  1  0
 14 18  1  0
 15 16  2  3
 15 19  1  0
 16 20  1  0
 16 21  1  0
M  RAD  1   3   2
M  END
>  <reaction>  (14) 
rxn_1419

>  <mol_properties>  (14) 
{"1": {"label": "*0", "atom_type": "Ct"}, "2": {"label": "*1", "atom_type": "Cs"}, "7": {"label": "*2", "atom_type": "H0"}, "12": {"label": "*4", "atom_type": "S2s"}, "13": {"label": "*3", "atom_type": "Cs"}}

>  <type>  (14) 
unop_10

>  <geom_source>  (14) 
Heuristics

$$$$

     RDKit          3D

 21 19  0  0  0  0  0  0  0  0999 V2000
   -1.0745   -0.0258   -3.2203 C   0  0  0  0  0  0  0  0  0  0  0  0
   -1.0745   -0.0258   -2.0242 C   0  0  0  0  0  0  0  0  0  0  0  0
   -1.0745    0.0142   -0.5576 C   0  0  0  0  0  3  0  0  0  0  0  0
   -1.7126    1.3135   -0.0356 C   0  0  0  0  0  0  0  0  0  0  0  0
   -1.7364   -1.1670    0.0072 C   0  0  0  0  0  0  0  0  0  0  0  0
   -2.2846   -2.1123    0.4937 C   0  0  0  0  0  0  0  0  0  0  0  0
   -1.0745   -0.0258   -4.2838 H   0  0  0  0  0  0  0  0  0  0  0  0
    0.1791   -0.0130   -0.1645 H   0  0  0  0  0  0  0  0  0  0  0  0
   -2.7558    1.3707   -0.3434 H   0  0  0  0  0  0  0  0  0  0  0  0
   -1.1799    2.1749   -0.4373 H   0  0  0  0  0  0  0  0  0  0  0  0
   -1.6654    1.3379    1.0526 H   0  0  0  0  0  0  0  0  0  0  0  0
   -2.7720   -2.9527    0.9262 H   0  0  0  0  0  0  0  0  0  0  0  0
    1.3660   -0.8791    1.8445 S   0  0  0  0  0  0  0  0  0  0  0  0
    1.4291   -0.0402    0.2275 C   0  0  0  0  0  0  0  0  0  0  0  0
    1.3952    1.4465    0.3476 C   0  0  0  0  0  0  0  0  0  0  0  0
    2.3620    2.2458   -0.0764 C   0  0  0  0  0  0  0  0  0  0  0  0
    2.4602   -0.2996    2.3552 H   0  0  0  0  0  0  0  0  0  0  0  0
    2.3056   -0.3730   -0.3276 H   0  0  0  0  0  0  0  0  0  0  0  0
    0.5179    1.8633    0.8329 H   0  0  0  0  0  0  0  0  0  0  0  0
    3.2529    1.8531   -0.5548 H   0  0  0  0  0  0  0  0  0  0  0  0
    2.2970    3.3202    0.0373 H   0  0  0  0  0  0  0  0  0  0  0  0
  1  2  3  0
  1  7  1  0
  2  3  1  0
  3  4  1  0
  3  5  1  0
  4  9  1  0
  4 10  1  0
  4 11  1  0
  5  6  3  0
  6 12  1  0
  8 14  1  0
 13 14  1  0
 13 17  1  0
 14 15  1  0
 14 18  1  0
 15 16  2  3
 15 19  1  0
 16 20  1  0
 16 21  1  0
M  RAD  1   3   2
M  END
>  <reaction>  (15) 
rxn_1419

>  <mol_properties>  (15) 
{"1": {"label": "*0", "atom_type": "Ct"}, "2": {"label": "*1", "atom_type": "Cs"}, "7": {"label": "*2", "atom_type": "H0"}, "12": {"label": "*4", "atom_type": "S2s"}, "13": {"label": "*3", "atom_type": "Cs"}}

>  <type>  (15) 
unop_11

>  <geom_source>  (15) 
Heuristics

$$$$

     RDKit          3D

 21 19  0  0  0  0  0  0  0  0999 V2000
   -1.3020    0.3582   -2.8276 C   0  0  0  0  0  0  0  0  0  0  0  0
   -1.3020    0.3582   -1.6315 C   0  0  0  0  0  0  0  0  0  0  0  0
   -1.3020    0.3983   -0.1649 C   0  0  0  0  0  3  0  0  0  0  0  0
   -1.9401    1.6975    0.3571 C   0  0  0  0  0  0  0  0  0  0  0  0
   -1.9639   -0.7830    0.3999 C   0  0  0  0  0  0  0  0  0  0  0  0
   -2.5121   -1.7282    0.8863 C   0  0  0  0  0  0  0  0  0  0  0  0
   -1.3020    0.3582   -3.8911 H   0  0  0  0  0  0  0  0  0  0  0  0
   -0.0484    0.3710    0.2282 H   0  0  0  0  0  0  0  0  0  0  0  0
   -2.9833    1.7548    0.0493 H   0  0  0  0  0  0  0  0  0  0  0  0
   -1.4074    2.5589   -0.0446 H   0  0  0  0  0  0  0  0  0  0  0  0
   -1.8929    1.7219    1.4453 H   0  0  0  0  0  0  0  0  0  0  0  0
   -2.9995   -2.5687    1.3189 H   0  0  0  0  0  0  0  0  0  0  0  0
    2.1499    0.2727   -0.9348 S   0  0  0  0  0  0  0  0  0  0  0  0
    1.2015    0.3439    0.6202 C   0  0  0  0  0  0  0  0  0  0  0  0
    1.4533   -0.8317    1.5035 C   0  0  0  0  0  0  0  0  0  0  0  0
    1.9639   -0.7463    2.7222 C   0  0  0  0  0  0  0  0  0  0  0  0
    3.3611    0.2052   -0.3670 H   0  0  0  0  0  0  0  0  0  0  0  0
    1.4097    1.2799    1.1375 H   0  0  0  0  0  0  0  0  0  0  0  0
    1.2080   -1.8022    1.0830 H   0  0  0  0  0  0  0  0  0  0  0  0
    2.2269    0.2104    3.1606 H   0  0  0  0  0  0  0  0  0  0  0  0
    2.1350   -1.6283    3.3259 H   0  0  0  0  0  0  0  0  0  0  0  0
  1  2  3  0
  1  7  1  0
  2  3  1  0
  3  4  1  0
  3  5  1  0
  4  9  1  0
  4 10  1  0
  4 11  1  0
  5  6  3  0
  6 12  1  0
  8 14  1  0
 13 14  1  0
 13 17  1  0
 14 15  1  0
 14 18  1  0
 15 16  2  3
 15 19  1  0
 16 20  1  0
 16 21  1  0
M  RAD  1   3   2
M  END
>  <reaction>  (16) 
rxn_1419

>  <mol_properties>  (16) 
{"1": {"label": "*0", "atom_type": "Ct"}, "2": {"label": "*1", "atom_type": "Cs"}, "7": {"label": "*2", "atom_type": "H0"}, "12": {"label": "*4", "atom_type": "S2s"}, "13": {"label": "*3", "atom_type": "Cs"}}

>  <type>  (16) 
unop_12

>  <geom_source>  (16) 
Heuristics

$$$$

     RDKit          3D

 21 19  0  0  0  0  0  0  0  0999 V2000
    1.8179   -0.7208   -1.7548 S   0  0  0  0  0  0  0  0  0  0  0  0
    1.2624   -0.4444   -0.0441 C   0  0  0  0  0  3  0  0  0  0  0  0
   -1.6371   -0.9048   -1.2921 C   0  0  0  0  0  0  0  0  0  0  0  0
   -1.2905    0.0578   -0.1599 C   0  0  0  0  0  0  0  0  0  0  0  0
    2.2334    0.4287    0.6936 C   0  0  0  0  0  0  0  0  0  0  0  0
    3.4611    0.0046    1.0058 C   0  0  0  0  0  0  0  0  0  0  0  0
   -1.8962    1.3744   -0.3938 C   0  0  0  0  0  0  0  0  0  0  0  0
   -1.7454   -0.4731    1.1309 C   0  0  0  0  0  0  0  0  0  0  0  0
   -2.3923    2.4564   -0.5869 C   0  0  0  0  0  0  0  0  0  0  0  0
   -2.1176   -0.9102    2.1913 C   0  0  0  0  0  0  0  0  0  0  0  0
    1.1585   -1.4209    0.4749 H   0  0  0  0  0  0  0  0  0  0  0  0
    0.0460    0.1616   -0.0720 H   0  0  0  0  0  0  0  0  0  0  0  0
   -1.2625   -0.5028   -2.2575 H   0  0  0  0  0  0  0  0  0  0  0  0
   -1.1495   -1.8871   -1.1152 H   0  0  0  0  0  0  0  0  0  0  0  0
   -2.7369   -1.0538   -1.3638 H   0  0  0  0  0  0  0  0  0  0  0  0
    1.9176    1.4199    1.0037 H   0  0  0  0  0  0  0  0  0  0  0  0
    3.7980   -0.9879    0.7217 H   0  0  0  0  0  0  0  0  0  0  0  0
    4.1376    0.6541    1.5516 H   0  0  0  0  0  0  0  0  0  0  0  0
    1.6676    0.6363   -2.0989 H   0  0  0  0  0  0  0  0  0  0  0  0
   -2.8279    3.4058   -0.7564 H   0  0  0  0  0  0  0  0  0  0  0  0
   -2.4444   -1.2938    3.1219 H   0  0  0  0  0  0  0  0  0  0  0  0
  1  2  1  0
  1 19  1  0
  2  5  1  0
  2 11  1  0
  3  4  1  0
  3 13  1  0
  3 14  1  0
  3 15  1  0
  4  7  1  0
  4  8  1  0
  4 12  1  0
  5  6  2  3
  5 16  1  0
  6 17  1  0
  6 18  1  0
  7  9  3  0
  8 10  3  0
  9 20  1  0
 10 21  1  0
M  RAD  1   2   2
M  END
>  <reaction>  (17) 
rxn_1419

>  <mol_properties>  (17) 
{"1": {"label": "*0", "atom_type": "Ct"}, "2": {"label": "*1", "atom_type": "Cs"}, "7": {"label": "*2", "atom_type": "H0"}, "12": {"label": "*4", "atom_type": "S2s"}, "13": {"label": "*3", "atom_type": "Cs"}}

>  <type>  (17) 
unop_13

>  <geom_source>  (17) 
AutoTST

$$$$
