
     RDKit          3D

 10  9  0  0  0  0  0  0  0  0999 V2000
    2.2738    0.0217   -0.0992 C   0  0  0  0  0  0  0  0  0  0  0  0
    1.1083    0.2960   -0.0695 C   0  0  0  0  0  0  0  0  0  0  0  0
   -0.3173    0.6046   -0.0227 C   0  0  0  0  0  0  0  0  0  0  0  0
   -1.1561   -0.5495    0.5292 C   0  0  0  0  0  0  0  0  0  0  0  0
    3.3097   -0.2166   -0.1277 H   0  0  0  0  0  0  0  0  0  0  0  0
   -0.6542    0.8617   -1.0302 H   0  0  0  0  0  0  0  0  0  0  0  0
   -0.4633    1.4978    0.5900 H   0  0  0  0  0  0  0  0  0  0  0  0
   -0.8485   -0.7997    1.5447 H   0  0  0  0  0  0  0  0  0  0  0  0
   -2.2115   -0.2752    0.5459 H   0  0  0  0  0  0  0  0  0  0  0  0
   -1.0409   -1.4407   -0.0879 H   0  0  0  0  0  0  0  0  0  0  0  0
  1  2  3  0
  1  5  1  0
  2  3  1  0
  3  4  1  0
  3  6  1  0
  3  7  1  0
  4  8  1  0
  4  9  1  0
  4 10  1  0
M  END
>  <reaction>  (1) 
rxn_1269

>  <mol_properties>  (1) 
{"2": {"label": "donator", "atom_type": "Cs"}, "5": {"label": "d_hydrogen", "atom_type": "H0"}}

>  <type>  (1) 
r1h

$$$$

     RDKit          3D

  8  7  0  0  0  0  0  0  0  0999 V2000
   -2.2129    0.4855    0.7390 C   0  0  0  0  0  0  0  0  0  0  0  0
   -1.2226    0.0526    0.1974 C   0  0  0  0  0  0  0  0  0  0  0  0
   -0.1006   -0.4575   -0.4419 C   0  0  0  0  0  3  0  0  0  0  0  0
    1.1960   -0.1737   -0.0342 C   0  0  0  0  0  0  0  0  0  0  0  0
    2.3329    0.0603    0.3036 C   0  0  0  0  0  0  0  0  0  0  0  0
   -3.0803    0.8696    1.2198 H   0  0  0  0  0  0  0  0  0  0  0  0
   -0.2433   -1.1067   -1.2980 H   0  0  0  0  0  0  0  0  0  0  0  0
    3.3308    0.2700    0.6058 H   0  0  0  0  0  0  0  0  0  0  0  0
  1  2  3  0
  1  6  1  0
  2  3  1  0
  3  4  1  0
  3  7  1  0
  4  5  3  0
  5  8  1  0
M  RAD  1   3   2
M  END
>  <reaction>  (2) 
rxn_1269

>  <mol_properties>  (2) 
{"2": {"label": "acceptor", "atom_type": "Cs"}}

>  <type>  (2) 
r2

$$$$

     RDKit          3D

  9  8  0  0  0  0  0  0  0  0999 V2000
   -2.1022   -0.6873    0.3932 C   0  0  0  0  0  0  0  0  0  0  0  0
   -1.2072   -0.1086   -0.1482 C   0  0  0  0  0  0  0  0  0  0  0  0
   -0.1242    0.6105   -0.8193 C   0  0  0  0  0  0  0  0  0  0  0  0
    1.2067    0.1106   -0.4741 C   0  0  0  0  0  0  0  0  0  0  0  0
    2.3005   -0.2875   -0.2012 C   0  0  0  0  0  0  0  0  0  0  0  0
   -2.8942   -1.2059    0.8778 H   0  0  0  0  0  0  0  0  0  0  0  0
   -0.1862    1.6723   -0.5649 H   0  0  0  0  0  0  0  0  0  0  0  0
   -0.2641    0.5418   -1.9017 H   0  0  0  0  0  0  0  0  0  0  0  0
    3.2709   -0.6459    0.0455 H   0  0  0  0  0  0  0  0  0  0  0  0
  1  2  3  0
  1  6  1  0
  2  3  1  0
  3  4  1  0
  3  7  1  0
  3  8  1  0
  4  5  3  0
  5  9  1  0
M  END
>  <reaction>  (3) 
rxn_1269

>  <mol_properties>  (3) 
{"2": {"label": "acceptor", "atom_type": "Cs"}, "8": {"label": "a_hydrogen", "atom_type": "H0"}}

>  <type>  (3) 
r2h

$$$$

     RDKit          3D

 18 16  0  0  0  0  0  0  0  0999 V2000
    0.4684   -2.9425   -0.2794 C   0  0  0  0  0  0  0  0  0  0  0  0
    0.8125   -1.8088   -0.0888 C   0  0  0  0  0  0  0  0  0  0  0  0
    1.1613   -0.4306    0.0914 C   0  0  0  0  0  0  0  0  0  0  0  0
    1.2557    0.0559    1.4349 C   0  0  0  0  0  0  0  0  0  0  0  0
    1.2913    0.5121    2.5441 C   0  0  0  0  0  0  0  0  0  0  0  0
    0.1847   -3.9555   -0.4348 H   0  0  0  0  0  0  0  0  0  0  0  0
    1.9755   -0.0963   -0.5507 H   0  0  0  0  0  0  0  0  0  0  0  0
    1.3396    0.9036    3.5316 H   0  0  0  0  0  0  0  0  0  0  0  0
   -0.2543    3.3870   -1.0877 C   0  0  0  0  0  0  0  0  0  0  0  0
   -0.6151    2.2411   -1.0134 C   0  0  0  0  0  0  0  0  0  0  0  0
   -0.9829    0.8773   -0.8838 C   0  0  0  0  0  3  0  0  0  0  0  0
   -1.9826    0.5066    0.1836 C   0  0  0  0  0  0  0  0  0  0  0  0
    0.0509    4.4030   -1.1607 H   0  0  0  0  0  0  0  0  0  0  0  0
    0.1519    0.2502   -0.4407 H   0  0  0  0  0  0  0  0  0  0  0  0
   -1.1100    0.3602   -1.8338 H   0  0  0  0  0  0  0  0  0  0  0  0
   -2.9798    0.8722   -0.0741 H   0  0  0  0  0  0  0  0  0  0  0  0
   -2.0320   -0.5776    0.2920 H   0  0  0  0  0  0  0  0  0  0  0  0
   -1.6981    0.9393    1.1430 H   0  0  0  0  0  0  0  0  0  0  0  0
  1  2  3  0
  1  6  1  0
  2  3  1  0
  3  4  1  0
  3  7  1  0
  3 14  1  0
  4  5  3  0
  5  8  1  0
  9 10  3  0
  9 13  1  0
 10 11  1  0
 11 12  1  0
 11 15  1  0
 12 16  1  0
 12 17  1  0
 12 18  1  0
M  RAD  1  11   2
M  END
>  <reaction>  (4) 
rxn_1269

>  <mol_properties>  (4) 
{"1": {"label": "*0", "atom_type": "Ct"}, "2": {"label": "*1", "atom_type": "Cs"}, "9": {"label": "*4", "atom_type": "Ct"}, "10": {"label": "*3", "atom_type": "Cs"}, "13": {"label": "*2", "atom_type": "H0"}}

>  <type>  (4) 
ts

$$$$

     RDKit          3D

 18 16  0  0  0  0  0  0  0  0999 V2000
    2.0132    0.9530    2.1055 C   0  0  0  0  0  0  0  0  0  0  0  0
    1.3305    0.2147    1.4589 C   0  0  0  0  0  0  0  0  0  0  0  0
    0.4951   -0.6887    0.6675 C   0  0  0  0  0  3  0  0  0  0  0  0
    1.2084   -1.8754    0.1949 C   0  0  0  0  0  0  0  0  0  0  0  0
    1.7912   -2.8451   -0.1913 C   0  0  0  0  0  0  0  0  0  0  0  0
    2.6205    1.6097    2.6808 H   0  0  0  0  0  0  0  0  0  0  0  0
   -0.3642   -1.0013    1.2674 H   0  0  0  0  0  0  0  0  0  0  0  0
    2.3097   -3.7077   -0.5349 H   0  0  0  0  0  0  0  0  0  0  0  0
   -1.6067    0.5917   -2.8577 C   0  0  0  0  0  0  0  0  0  0  0  0
   -1.6067    0.5917   -1.6600 C   0  0  0  0  0  0  0  0  0  0  0  0
   -1.6067    0.6199   -0.2008 C   0  0  0  0  0  0  0  0  0  0  0  0
   -1.6067    2.0413    0.3648 C   0  0  0  0  0  0  0  0  0  0  0  0
   -1.6067    0.5917   -3.9210 H   0  0  0  0  0  0  0  0  0  0  0  0
   -0.5561   -0.0342    0.2332 H   0  0  0  0  0  0  0  0  0  0  0  0
   -2.4822    0.0748    0.1609 H   0  0  0  0  0  0  0  0  0  0  0  0
   -2.4889    2.5892    0.0333 H   0  0  0  0  0  0  0  0  0  0  0  0
   -1.6067    2.0140    1.4550 H   0  0  0  0  0  0  0  0  0  0  0  0
   -0.7245    2.5891    0.0333 H   0  0  0  0  0  0  0  0  0  0  0  0
  1  2  3  0
  1  6  1  0
  2  3  1  0
  3  4  1  0
  3  7  1  0
  4  5  3  0
  5  8  1  0
  9 10  3  0
  9 13  1  0
 10 11  1  0
 11 12  1  0
 11 14  1  0
 11 15  1  0
 12 16  1  0
 12 17  1  0
 12 18  1  0
M  RAD  1   3   2
M  END
>  <reaction>  (5) 
rxn_1269

>  <mol_properties>  (5) 
{"1": {"label": "*0", "atom_type": "Ct"}, "2": {"label": "*1", "atom_type": "Cs"}, "9": {"label": "*4", "atom_type": "Ct"}, "10": {"label": "*3", "atom_type": "Cs"}, "13": {"label": "*2", "atom_type": "H0"}}

>  <type>  (5) 
unop_1

>  <geom_source>  (5) 
Heuristics

$$$$

     RDKit          3D

 18 16  0  0  0  0  0  0  0  0999 V2000
    2.6233   -0.1946   -0.8991 C   0  0  0  0  0  0  0  0  0  0  0  0
    1.7419   -0.2908   -0.0972 C   0  0  0  0  0  0  0  0  0  0  0  0
    0.6633   -0.4086    0.8841 C   0  0  0  0  0  3  0  0  0  0  0  0
    0.5640   -1.7403    1.4816 C   0  0  0  0  0  0  0  0  0  0  0  0
    0.4829   -2.8286    1.9699 C   0  0  0  0  0  0  0  0  0  0  0  0
    3.4074   -0.1090   -1.6125 H   0  0  0  0  0  0  0  0  0  0  0  0
    0.8159    0.3299    1.6761 H   0  0  0  0  0  0  0  0  0  0  0  0
    0.4108   -3.7966    2.4042 H   0  0  0  0  0  0  0  0  0  0  0  0
   -1.4386    0.8718   -2.6411 C   0  0  0  0  0  0  0  0  0  0  0  0
   -1.4386    0.8718   -1.4434 C   0  0  0  0  0  0  0  0  0  0  0  0
   -1.4386    0.9000    0.0158 C   0  0  0  0  0  0  0  0  0  0  0  0
   -1.4386    2.3214    0.5814 C   0  0  0  0  0  0  0  0  0  0  0  0
   -1.4386    0.8718   -3.7044 H   0  0  0  0  0  0  0  0  0  0  0  0
   -0.3880    0.2459    0.4498 H   0  0  0  0  0  0  0  0  0  0  0  0
   -2.3141    0.3549    0.3775 H   0  0  0  0  0  0  0  0  0  0  0  0
   -2.3208    2.8693    0.2499 H   0  0  0  0  0  0  0  0  0  0  0  0
   -1.4386    2.2941    1.6717 H   0  0  0  0  0  0  0  0  0  0  0  0
   -0.5563    2.8692    0.2499 H   0  0  0  0  0  0  0  0  0  0  0  0
  1  2  3  0
  1  6  1  0
  2  3  1  0
  3  4  1  0
  3  7  1  0
  4  5  3  0
  5  8  1  0
  9 10  3  0
  9 13  1  0
 10 11  1  0
 11 12  1  0
 11 14  1  0
 11 15  1  0
 12 16  1  0
 12 17  1  0
 12 18  1  0
M  RAD  1   3   2
M  END
>  <reaction>  (6) 
rxn_1269

>  <mol_properties>  (6) 
{"1": {"label": "*0", "atom_type": "Ct"}, "2": {"label": "*1", "atom_type": "Cs"}, "9": {"label": "*4", "atom_type": "Ct"}, "10": {"label": "*3", "atom_type": "Cs"}, "13": {"label": "*2", "atom_type": "H0"}}

>  <type>  (6) 
unop_2

>  <geom_source>  (6) 
Heuristics

$$$$

     RDKit          3D

 18 16  0  0  0  0  0  0  0  0999 V2000
    1.2785    0.2632    2.9369 C   0  0  0  0  0  0  0  0  0  0  0  0
    0.9286   -0.2038    1.8935 C   0  0  0  0  0  0  0  0  0  0  0  0
    0.5004   -0.7754    0.6167 C   0  0  0  0  0  3  0  0  0  0  0  0
    1.6007   -1.3382   -0.1663 C   0  0  0  0  0  0  0  0  0  0  0  0
    2.4998   -1.7980   -0.8061 C   0  0  0  0  0  0  0  0  0  0  0  0
    1.5898    0.6787    3.8650 H   0  0  0  0  0  0  0  0  0  0  0  0
   -0.2431   -1.5553    0.8036 H   0  0  0  0  0  0  0  0  0  0  0  0
    3.2996   -2.2071   -1.3753 H   0  0  0  0  0  0  0  0  0  0  0  0
   -1.6015    0.5050   -2.9085 C   0  0  0  0  0  0  0  0  0  0  0  0
   -1.6015    0.5050   -1.7108 C   0  0  0  0  0  0  0  0  0  0  0  0
   -1.6015    0.5332   -0.2517 C   0  0  0  0  0  0  0  0  0  0  0  0
   -1.6014    1.9546    0.3139 C   0  0  0  0  0  0  0  0  0  0  0  0
   -1.6015    0.5050   -3.9719 H   0  0  0  0  0  0  0  0  0  0  0  0
   -0.5509   -0.1209    0.1824 H   0  0  0  0  0  0  0  0  0  0  0  0
   -2.4770   -0.0119    0.1100 H   0  0  0  0  0  0  0  0  0  0  0  0
   -2.4837    2.5024   -0.0175 H   0  0  0  0  0  0  0  0  0  0  0  0
   -1.6014    1.9273    1.4042 H   0  0  0  0  0  0  0  0  0  0  0  0
   -0.7192    2.5024   -0.0175 H   0  0  0  0  0  0  0  0  0  0  0  0
  1  2  3  0
  1  6  1  0
  2  3  1  0
  3  4  1  0
  3  7  1  0
  4  5  3  0
  5  8  1  0
  9 10  3  0
  9 13  1  0
 10 11  1  0
 11 12  1  0
 11 14  1  0
 11 15  1  0
 12 16  1  0
 12 17  1  0
 12 18  1  0
M  RAD  1   3   2
M  END
>  <reaction>  (7) 
rxn_1269

>  <mol_properties>  (7) 
{"1": {"label": "*0", "atom_type": "Ct"}, "2": {"label": "*1", "atom_type": "Cs"}, "9": {"label": "*4", "atom_type": "Ct"}, "10": {"label": "*3", "atom_type": "Cs"}, "13": {"label": "*2", "atom_type": "H0"}}

>  <type>  (7) 
unop_3

>  <geom_source>  (7) 
Heuristics

$$$$

     RDKit          3D

 18 16  0  0  0  0  0  0  0  0999 V2000
    1.0605   -2.9275   -0.3454 C   0  0  0  0  0  0  0  0  0  0  0  0
    1.1141   -1.7976    0.0413 C   0  0  0  0  0  0  0  0  0  0  0  0
    1.1796   -0.4148    0.5145 C   0  0  0  0  0  3  0  0  0  0  0  0
    0.5376   -0.2142    1.8138 C   0  0  0  0  0  0  0  0  0  0  0  0
    0.0131   -0.0502    2.8754 C   0  0  0  0  0  0  0  0  0  0  0  0
    1.0129   -3.9327   -0.6895 H   0  0  0  0  0  0  0  0  0  0  0  0
    2.2269   -0.1068    0.5800 H   0  0  0  0  0  0  0  0  0  0  0  0
   -0.4536    0.0956    3.8199 H   0  0  0  0  0  0  0  0  0  0  0  0
   -0.9222    0.8656   -3.0107 C   0  0  0  0  0  0  0  0  0  0  0  0
   -0.9222    0.8656   -1.8130 C   0  0  0  0  0  0  0  0  0  0  0  0
   -0.9222    0.8938   -0.3538 C   0  0  0  0  0  0  0  0  0  0  0  0
   -0.9222    2.3152    0.2118 C   0  0  0  0  0  0  0  0  0  0  0  0
   -0.9222    0.8656   -4.0740 H   0  0  0  0  0  0  0  0  0  0  0  0
    0.1284    0.2397    0.0802 H   0  0  0  0  0  0  0  0  0  0  0  0
   -1.7977    0.3488    0.0079 H   0  0  0  0  0  0  0  0  0  0  0  0
   -1.8044    2.8631   -0.1197 H   0  0  0  0  0  0  0  0  0  0  0  0
   -0.9222    2.2879    1.3021 H   0  0  0  0  0  0  0  0  0  0  0  0
   -0.0400    2.8631   -0.1197 H   0  0  0  0  0  0  0  0  0  0  0  0
  1  2  3  0
  1  6  1  0
  2  3  1  0
  3  4  1  0
  3  7  1  0
  4  5  3  0
  5  8  1  0
  9 10  3  0
  9 13  1  0
 10 11  1  0
 11 12  1  0
 11 14  1  0
 11 15  1  0
 12 16  1  0
 12 17  1  0
 12 18  1  0
M  RAD  1   3   2
M  END
>  <reaction>  (8) 
rxn_1269

>  <mol_properties>  (8) 
{"1": {"label": "*0", "atom_type": "Ct"}, "2": {"label": "*1", "atom_type": "Cs"}, "9": {"label": "*4", "atom_type": "Ct"}, "10": {"label": "*3", "atom_type": "Cs"}, "13": {"label": "*2", "atom_type": "H0"}}

>  <type>  (8) 
unop_4

>  <geom_source>  (8) 
Heuristics

$$$$

     RDKit          3D

 18 16  0  0  0  0  0  0  0  0999 V2000
    0.6096   -0.9155    3.1641 C   0  0  0  0  0  0  0  0  0  0  0  0
    0.6019   -0.9338    1.9687 C   0  0  0  0  0  0  0  0  0  0  0  0
    0.5925   -0.9562    0.5059 C   0  0  0  0  0  3  0  0  0  0  0  0
    1.7975   -0.3809   -0.0919 C   0  0  0  0  0  0  0  0  0  0  0  0
    2.7822    0.0892   -0.5804 C   0  0  0  0  0  0  0  0  0  0  0  0
    0.6165   -0.8993    4.2274 H   0  0  0  0  0  0  0  0  0  0  0  0
    0.4792   -1.9884    0.1632 H   0  0  0  0  0  0  0  0  0  0  0  0
    3.6582    0.5074   -1.0149 H   0  0  0  0  0  0  0  0  0  0  0  0
   -1.5093    0.3242   -3.0193 C   0  0  0  0  0  0  0  0  0  0  0  0
   -1.5093    0.3242   -1.8216 C   0  0  0  0  0  0  0  0  0  0  0  0
   -1.5093    0.3525   -0.3624 C   0  0  0  0  0  0  0  0  0  0  0  0
   -1.5093    1.7738    0.2032 C   0  0  0  0  0  0  0  0  0  0  0  0
   -1.5093    0.3242   -4.0826 H   0  0  0  0  0  0  0  0  0  0  0  0
   -0.4587   -0.3017    0.0716 H   0  0  0  0  0  0  0  0  0  0  0  0
   -2.3848   -0.1926   -0.0007 H   0  0  0  0  0  0  0  0  0  0  0  0
   -2.3915    2.3217   -0.1283 H   0  0  0  0  0  0  0  0  0  0  0  0
   -1.5093    1.7465    1.2934 H   0  0  0  0  0  0  0  0  0  0  0  0
   -0.6271    2.3217   -0.1283 H   0  0  0  0  0  0  0  0  0  0  0  0
  1  2  3  0
  1  6  1  0
  2  3  1  0
  3  4  1  0
  3  7  1  0
  4  5  3  0
  5  8  1  0
  9 10  3  0
  9 13  1  0
 10 11  1  0
 11 12  1  0
 11 14  1  0
 11 15  1  0
 12 16  1  0
 12 17  1  0
 12 18  1  0
M  RAD  1   3   2
M  END
>  <reaction>  (9) 
rxn_1269

>  <mol_properties>  (9) 
{"1": {"label": "*0", "atom_type": "Ct"}, "2": {"label": "*1", "atom_type": "Cs"}, "9": {"label": "*4", "atom_type": "Ct"}, "10": {"label": "*3", "atom_type": "Cs"}, "13": {"label": "*2", "atom_type": "H0"}}

>  <type>  (9) 
unop_5

>  <geom_source>  (9) 
Heuristics

$$$$

     RDKit          3D

 18 16  0  0  0  0  0  0  0  0999 V2000
    0.5452   -3.1638    0.6940 C   0  0  0  0  0  0  0  0  0  0  0  0
    0.8328   -2.0130    0.5456 C   0  0  0  0  0  0  0  0  0  0  0  0
    1.1849   -0.6046    0.3639 C   0  0  0  0  0  3  0  0  0  0  0  0
    0.8116    0.2389    1.4995 C   0  0  0  0  0  0  0  0  0  0  0  0
    0.5066    0.9281    2.4275 C   0  0  0  0  0  0  0  0  0  0  0  0
    0.2893   -4.1876    0.8261 H   0  0  0  0  0  0  0  0  0  0  0  0
    2.2621   -0.5226    0.1944 H   0  0  0  0  0  0  0  0  0  0  0  0
    0.2353    1.5413    3.2530 H   0  0  0  0  0  0  0  0  0  0  0  0
   -0.9170    0.6758   -3.1613 C   0  0  0  0  0  0  0  0  0  0  0  0
   -0.9170    0.6758   -1.9636 C   0  0  0  0  0  0  0  0  0  0  0  0
   -0.9170    0.7040   -0.5044 C   0  0  0  0  0  0  0  0  0  0  0  0
   -0.9169    2.1254    0.0612 C   0  0  0  0  0  0  0  0  0  0  0  0
   -0.9170    0.6758   -4.2246 H   0  0  0  0  0  0  0  0  0  0  0  0
    0.1336    0.0499   -0.0704 H   0  0  0  0  0  0  0  0  0  0  0  0
   -1.7925    0.1589   -0.1427 H   0  0  0  0  0  0  0  0  0  0  0  0
   -1.7992    2.6733   -0.2703 H   0  0  0  0  0  0  0  0  0  0  0  0
   -0.9169    2.0981    1.1515 H   0  0  0  0  0  0  0  0  0  0  0  0
   -0.0347    2.6732   -0.2703 H   0  0  0  0  0  0  0  0  0  0  0  0
  1  2  3  0
  1  6  1  0
  2  3  1  0
  3  4  1  0
  3  7  1  0
  4  5  3  0
  5  8  1  0
  9 10  3  0
  9 13  1  0
 10 11  1  0
 11 12  1  0
 11 14  1  0
 11 15  1  0
 12 16  1  0
 12 17  1  0
 12 18  1  0
M  RAD  1   3   2
M  END
>  <reaction>  (10) 
rxn_1269

>  <mol_properties>  (10) 
{"1": {"label": "*0", "atom_type": "Ct"}, "2": {"label": "*1", "atom_type": "Cs"}, "9": {"label": "*4", "atom_type": "Ct"}, "10": {"label": "*3", "atom_type": "Cs"}, "13": {"label": "*2", "atom_type": "H0"}}

>  <type>  (10) 
unop_6

>  <geom_source>  (10) 
Heuristics

$$$$

     RDKit          3D

 18 16  0  0  0  0  0  0  0  0999 V2000
    0.2761   -2.8604    1.8016 C   0  0  0  0  0  0  0  0  0  0  0  0
    0.6365   -1.9445    1.1229 C   0  0  0  0  0  0  0  0  0  0  0  0
    1.0776   -0.8237    0.2924 C   0  0  0  0  0  3  0  0  0  0  0  0
    1.1413    0.4461    1.0162 C   0  0  0  0  0  0  0  0  0  0  0  0
    1.1933    1.4838    1.6076 C   0  0  0  0  0  0  0  0  0  0  0  0
   -0.0445   -3.6751    2.4053 H   0  0  0  0  0  0  0  0  0  0  0  0
    2.0636   -1.0505   -0.1226 H   0  0  0  0  0  0  0  0  0  0  0  0
    1.2396    2.4068    2.1337 H   0  0  0  0  0  0  0  0  0  0  0  0
   -1.0243    0.4566   -3.2328 C   0  0  0  0  0  0  0  0  0  0  0  0
   -1.0243    0.4566   -2.0351 C   0  0  0  0  0  0  0  0  0  0  0  0
   -1.0243    0.4849   -0.5759 C   0  0  0  0  0  0  0  0  0  0  0  0
   -1.0242    1.9062   -0.0103 C   0  0  0  0  0  0  0  0  0  0  0  0
   -1.0243    0.4566   -4.2961 H   0  0  0  0  0  0  0  0  0  0  0  0
    0.0263   -0.1692   -0.1419 H   0  0  0  0  0  0  0  0  0  0  0  0
   -1.8998   -0.0602   -0.2142 H   0  0  0  0  0  0  0  0  0  0  0  0
   -1.9065    2.4541   -0.3418 H   0  0  0  0  0  0  0  0  0  0  0  0
   -1.0242    1.8790    1.0799 H   0  0  0  0  0  0  0  0  0  0  0  0
   -0.1420    2.4541   -0.3418 H   0  0  0  0  0  0  0  0  0  0  0  0
  1  2  3  0
  1  6  1  0
  2  3  1  0
  3  4  1  0
  3  7  1  0
  4  5  3  0
  5  8  1  0
  9 10  3  0
  9 13  1  0
 10 11  1  0
 11 12  1  0
 11 14  1  0
 11 15  1  0
 12 16  1  0
 12 17  1  0
 12 18  1  0
M  RAD  1   3   2
M  END
>  <reaction>  (11) 
rxn_1269

>  <mol_properties>  (11) 
{"1": {"label": "*0", "atom_type": "Ct"}, "2": {"label": "*1", "atom_type": "Cs"}, "9": {"label": "*4", "atom_type": "Ct"}, "10": {"label": "*3", "atom_type": "Cs"}, "13": {"label": "*2", "atom_type": "H0"}}

>  <type>  (11) 
unop_7

>  <geom_source>  (11) 
Heuristics

$$$$

     RDKit          3D

 18 16  0  0  0  0  0  0  0  0999 V2000
    2.5370    1.0547    0.9905 C   0  0  0  0  0  0  0  0  0  0  0  0
    1.6202    0.2955    0.8790 C   0  0  0  0  0  0  0  0  0  0  0  0
    0.4983   -0.6335    0.7426 C   0  0  0  0  0  3  0  0  0  0  0  0
    0.9098   -2.0359    0.6765 C   0  0  0  0  0  0  0  0  0  0  0  0
    1.2460   -3.1818    0.6225 C   0  0  0  0  0  0  0  0  0  0  0  0
    3.3526    1.7300    1.0897 H   0  0  0  0  0  0  0  0  0  0  0  0
   -0.1842   -0.4988    1.5863 H   0  0  0  0  0  0  0  0  0  0  0  0
    1.5451   -4.2013    0.5744 H   0  0  0  0  0  0  0  0  0  0  0  0
   -1.6035    0.6469   -2.7826 C   0  0  0  0  0  0  0  0  0  0  0  0
   -1.6035    0.6469   -1.5849 C   0  0  0  0  0  0  0  0  0  0  0  0
   -1.6035    0.6751   -0.1258 C   0  0  0  0  0  0  0  0  0  0  0  0
   -1.6035    2.0965    0.4398 C   0  0  0  0  0  0  0  0  0  0  0  0
   -1.6035    0.6469   -3.8459 H   0  0  0  0  0  0  0  0  0  0  0  0
   -0.5529    0.0210    0.3083 H   0  0  0  0  0  0  0  0  0  0  0  0
   -2.4790    0.1301    0.2359 H   0  0  0  0  0  0  0  0  0  0  0  0
   -2.4857    2.6444    0.1084 H   0  0  0  0  0  0  0  0  0  0  0  0
   -1.6035    2.0692    1.5301 H   0  0  0  0  0  0  0  0  0  0  0  0
   -0.7212    2.6444    0.1084 H   0  0  0  0  0  0  0  0  0  0  0  0
  1  2  3  0
  1  6  1  0
  2  3  1  0
  3  4  1  0
  3  7  1  0
  4  5  3  0
  5  8  1  0
  9 10  3  0
  9 13  1  0
 10 11  1  0
 11 12  1  0
 11 14  1  0
 11 15  1  0
 12 16  1  0
 12 17  1  0
 12 18  1  0
M  RAD  1   3   2
M  END
>  <reaction>  (12) 
rxn_1269

>  <mol_properties>  (12) 
{"1": {"label": "*0", "atom_type": "Ct"}, "2": {"label": "*1", "atom_type": "Cs"}, "9": {"label": "*4", "atom_type": "Ct"}, "10": {"label": "*3", "atom_type": "Cs"}, "13": {"label": "*2", "atom_type": "H0"}}

>  <type>  (12) 
unop_8

>  <geom_source>  (12) 
Heuristics

$$$$

     RDKit          3D

 18 16  0  0  0  0  0  0  0  0999 V2000
    1.6837   -2.2109   -1.0478 C   0  0  0  0  0  0  0  0  0  0  0  0
    1.4045   -1.3521   -0.2644 C   0  0  0  0  0  0  0  0  0  0  0  0
    1.0628   -0.3012    0.6943 C   0  0  0  0  0  3  0  0  0  0  0  0
    0.3934   -0.8042    1.8940 C   0  0  0  0  0  0  0  0  0  0  0  0
   -0.1536   -1.2153    2.8743 C   0  0  0  0  0  0  0  0  0  0  0  0
    1.9320   -2.9748   -1.7448 H   0  0  0  0  0  0  0  0  0  0  0  0
    1.9739    0.2283    0.9867 H   0  0  0  0  0  0  0  0  0  0  0  0
   -0.6402   -1.5810    3.7464 H   0  0  0  0  0  0  0  0  0  0  0  0
   -1.0390    0.9792   -2.8309 C   0  0  0  0  0  0  0  0  0  0  0  0
   -1.0390    0.9792   -1.6332 C   0  0  0  0  0  0  0  0  0  0  0  0
   -1.0390    1.0074   -0.1740 C   0  0  0  0  0  0  0  0  0  0  0  0
   -1.0390    2.4288    0.3916 C   0  0  0  0  0  0  0  0  0  0  0  0
   -1.0390    0.9792   -3.8942 H   0  0  0  0  0  0  0  0  0  0  0  0
    0.0116    0.3533    0.2600 H   0  0  0  0  0  0  0  0  0  0  0  0
   -1.9145    0.4624    0.1877 H   0  0  0  0  0  0  0  0  0  0  0  0
   -1.9212    2.9767    0.0601 H   0  0  0  0  0  0  0  0  0  0  0  0
   -1.0390    2.4015    1.4819 H   0  0  0  0  0  0  0  0  0  0  0  0
   -0.1568    2.9767    0.0601 H   0  0  0  0  0  0  0  0  0  0  0  0
  1  2  3  0
  1  6  1  0
  2  3  1  0
  3  4  1  0
  3  7  1  0
  4  5  3  0
  5  8  1  0
  9 10  3  0
  9 13  1  0
 10 11  1  0
 11 12  1  0
 11 14  1  0
 11 15  1  0
 12 16  1  0
 12 17  1  0
 12 18  1  0
M  RAD  1   3   2
M  END
>  <reaction>  (13) 
rxn_1269

>  <mol_properties>  (13) 
{"1": {"label": "*0", "atom_type": "Ct"}, "2": {"label": "*1", "atom_type": "Cs"}, "9": {"label": "*4", "atom_type": "Ct"}, "10": {"label": "*3", "atom_type": "Cs"}, "13": {"label": "*2", "atom_type": "H0"}}

>  <type>  (13) 
unop_9

>  <geom_source>  (13) 
Heuristics

$$$$

     RDKit          3D

 18 16  0  0  0  0  0  0  0  0999 V2000
    2.7417    0.6247   -0.0980 C   0  0  0  0  0  0  0  0  0  0  0  0
    1.7522    0.1006    0.3207 C   0  0  0  0  0  0  0  0  0  0  0  0
    0.5412   -0.5409    0.8332 C   0  0  0  0  0  3  0  0  0  0  0  0
    0.7156   -1.9643    1.1226 C   0  0  0  0  0  0  0  0  0  0  0  0
    0.8580   -3.1275    1.3591 C   0  0  0  0  0  0  0  0  0  0  0  0
    3.6219    1.0910   -0.4705 H   0  0  0  0  0  0  0  0  0  0  0  0
    0.2196   -0.0261    1.7428 H   0  0  0  0  0  0  0  0  0  0  0  0
    0.9848   -4.1622    1.5695 H   0  0  0  0  0  0  0  0  0  0  0  0
   -1.5606    0.7395   -2.6921 C   0  0  0  0  0  0  0  0  0  0  0  0
   -1.5606    0.7395   -1.4944 C   0  0  0  0  0  0  0  0  0  0  0  0
   -1.5606    0.7677   -0.0352 C   0  0  0  0  0  0  0  0  0  0  0  0
   -1.5606    2.1891    0.5304 C   0  0  0  0  0  0  0  0  0  0  0  0
   -1.5606    0.7395   -3.7554 H   0  0  0  0  0  0  0  0  0  0  0  0
   -0.5100    0.1136    0.3988 H   0  0  0  0  0  0  0  0  0  0  0  0
   -2.4361    0.2227    0.3265 H   0  0  0  0  0  0  0  0  0  0  0  0
   -2.4428    2.7370    0.1989 H   0  0  0  0  0  0  0  0  0  0  0  0
   -1.5606    2.1618    1.6207 H   0  0  0  0  0  0  0  0  0  0  0  0
   -0.6783    2.7370    0.1989 H   0  0  0  0  0  0  0  0  0  0  0  0
  1  2  3  0
  1  6  1  0
  2  3  1  0
  3  4  1  0
  3  7  1  0
  4  5  3  0
  5  8  1  0
  9 10  3  0
  9 13  1  0
 10 11  1  0
 11 12  1  0
 11 14  1  0
 11 15  1  0
 12 16  1  0
 12 17  1  0
 12 18  1  0
M  RAD  1   3   2
M  END
>  <reaction>  (14) 
rxn_1269

>  <mol_properties>  (14) 
{"1": {"label": "*0", "atom_type": "Ct"}, "2": {"label": "*1", "atom_type": "Cs"}, "9": {"label": "*4", "atom_type": "Ct"}, "10": {"label": "*3", "atom_type": "Cs"}, "13": {"label": "*2", "atom_type": "H0"}}

>  <type>  (14) 
unop_10

>  <geom_source>  (14) 
Heuristics

$$$$

     RDKit          3D

 18 16  0  0  0  0  0  0  0  0999 V2000
    0.2954   -2.0786    2.7029 C   0  0  0  0  0  0  0  0  0  0  0  0
    0.5477   -1.5907    1.6410 C   0  0  0  0  0  0  0  0  0  0  0  0
    0.8565   -0.9936    0.3416 C   0  0  0  0  0  3  0  0  0  0  0  0
    1.5091    0.3119    0.4422 C   0  0  0  0  0  0  0  0  0  0  0  0
    2.0423    1.3787    0.5245 C   0  0  0  0  0  0  0  0  0  0  0  0
    0.0710   -2.5127    3.6475 H   0  0  0  0  0  0  0  0  0  0  0  0
    1.5000   -1.6743   -0.2227 H   0  0  0  0  0  0  0  0  0  0  0  0
    2.5167    2.3277    0.5976 H   0  0  0  0  0  0  0  0  0  0  0  0
   -1.2454    0.2868   -3.1836 C   0  0  0  0  0  0  0  0  0  0  0  0
   -1.2454    0.2868   -1.9859 C   0  0  0  0  0  0  0  0  0  0  0  0
   -1.2454    0.3150   -0.5268 C   0  0  0  0  0  0  0  0  0  0  0  0
   -1.2454    1.7364    0.0388 C   0  0  0  0  0  0  0  0  0  0  0  0
   -1.2454    0.2868   -4.2469 H   0  0  0  0  0  0  0  0  0  0  0  0
   -0.1948   -0.3391   -0.0927 H   0  0  0  0  0  0  0  0  0  0  0  0
   -2.1209   -0.2301   -0.1650 H   0  0  0  0  0  0  0  0  0  0  0  0
   -2.1276    2.2843   -0.2926 H   0  0  0  0  0  0  0  0  0  0  0  0
   -1.2454    1.7091    1.1291 H   0  0  0  0  0  0  0  0  0  0  0  0
   -0.3631    2.2842   -0.2926 H   0  0  0  0  0  0  0  0  0  0  0  0
  1  2  3  0
  1  6  1  0
  2  3  1  0
  3  4  1  0
  3  7  1  0
  4  5  3  0
  5  8  1  0
  9 10  3  0
  9 13  1  0
 10 11  1  0
 11 12  1  0
 11 14  1  0
 11 15  1  0
 12 16  1  0
 12 17  1  0
 12 18  1  0
M  RAD  1   3   2
M  END
>  <reaction>  (15) 
rxn_1269

>  <mol_properties>  (15) 
{"1": {"label": "*0", "atom_type": "Ct"}, "2": {"label": "*1", "atom_type": "Cs"}, "9": {"label": "*4", "atom_type": "Ct"}, "10": {"label": "*3", "atom_type": "Cs"}, "13": {"label": "*2", "atom_type": "H0"}}

>  <type>  (15) 
unop_11

>  <geom_source>  (15) 
Heuristics

$$$$

     RDKit          3D

 18 16  0  0  0  0  0  0  0  0999 V2000
    2.2444   -1.2138   -1.2421 C   0  0  0  0  0  0  0  0  0  0  0  0
    1.6230   -0.8038   -0.3066 C   0  0  0  0  0  0  0  0  0  0  0  0
    0.8625   -0.3021    0.8381 C   0  0  0  0  0  3  0  0  0  0  0  0
    0.4274   -1.3567    1.7540 C   0  0  0  0  0  0  0  0  0  0  0  0
    0.0718   -2.2185    2.5024 C   0  0  0  0  0  0  0  0  0  0  0  0
    2.7972   -1.5784   -2.0742 H   0  0  0  0  0  0  0  0  0  0  0  0
    1.4735    0.4203    1.3864 H   0  0  0  0  0  0  0  0  0  0  0  0
   -0.2445   -2.9851    3.1681 H   0  0  0  0  0  0  0  0  0  0  0  0
   -1.2393    0.9783   -2.6871 C   0  0  0  0  0  0  0  0  0  0  0  0
   -1.2393    0.9783   -1.4894 C   0  0  0  0  0  0  0  0  0  0  0  0
   -1.2393    1.0065   -0.0303 C   0  0  0  0  0  0  0  0  0  0  0  0
   -1.2393    2.4279    0.5353 C   0  0  0  0  0  0  0  0  0  0  0  0
   -1.2393    0.9783   -3.7505 H   0  0  0  0  0  0  0  0  0  0  0  0
   -0.1887    0.3524    0.4038 H   0  0  0  0  0  0  0  0  0  0  0  0
   -2.1148    0.4614    0.3314 H   0  0  0  0  0  0  0  0  0  0  0  0
   -2.1215    2.9757    0.2039 H   0  0  0  0  0  0  0  0  0  0  0  0
   -1.2393    2.4006    1.6256 H   0  0  0  0  0  0  0  0  0  0  0  0
   -0.3571    2.9757    0.2039 H   0  0  0  0  0  0  0  0  0  0  0  0
  1  2  3  0
  1  6  1  0
  2  3  1  0
  3  4  1  0
  3  7  1  0
  4  5  3  0
  5  8  1  0
  9 10  3  0
  9 13  1  0
 10 11  1  0
 11 12  1  0
 11 14  1  0
 11 15  1  0
 12 16  1  0
 12 17  1  0
 12 18  1  0
M  RAD  1   3   2
M  END
>  <reaction>  (16) 
rxn_1269

>  <mol_properties>  (16) 
{"1": {"label": "*0", "atom_type": "Ct"}, "2": {"label": "*1", "atom_type": "Cs"}, "9": {"label": "*4", "atom_type": "Ct"}, "10": {"label": "*3", "atom_type": "Cs"}, "13": {"label": "*2", "atom_type": "H0"}}

>  <type>  (16) 
unop_12

>  <geom_source>  (16) 
Heuristics

$$$$

     RDKit          3D

 18 16  0  0  0  0  0  0  0  0999 V2000
    1.3339    0.2792   -0.5806 C   0  0  0  0  0  0  0  0  0  0  0  0
   -1.6172   -1.5435    0.4695 C   0  0  0  0  0  0  0  0  0  0  0  0
   -1.2241   -0.2213   -0.1730 C   0  0  0  0  0  3  0  0  0  0  0  0
    2.2898   -0.8040   -0.3422 C   0  0  0  0  0  0  0  0  0  0  0  0
    1.8175    1.5117    0.0448 C   0  0  0  0  0  0  0  0  0  0  0  0
   -2.3019    0.7644   -0.0356 C   0  0  0  0  0  0  0  0  0  0  0  0
    3.0755   -1.6974   -0.1467 C   0  0  0  0  0  0  0  0  0  0  0  0
    2.2138    2.5275    0.5593 C   0  0  0  0  0  0  0  0  0  0  0  0
   -3.1870    1.5751    0.0770 C   0  0  0  0  0  0  0  0  0  0  0  0
    1.2213    0.4387   -1.6728 H   0  0  0  0  0  0  0  0  0  0  0  0
    0.1366   -0.0536   -0.0501 H   0  0  0  0  0  0  0  0  0  0  0  0
   -1.8212   -1.3980    1.5518 H   0  0  0  0  0  0  0  0  0  0  0  0
   -2.5200   -1.9625   -0.0250 H   0  0  0  0  0  0  0  0  0  0  0  0
   -0.7817   -2.2660    0.3611 H   0  0  0  0  0  0  0  0  0  0  0  0
   -0.9984   -0.3745   -1.2494 H   0  0  0  0  0  0  0  0  0  0  0  0
    3.7653   -2.4814    0.0250 H   0  0  0  0  0  0  0  0  0  0  0  0
    2.5619    3.4190    1.0110 H   0  0  0  0  0  0  0  0  0  0  0  0
   -3.9641    2.2866    0.1759 H   0  0  0  0  0  0  0  0  0  0  0  0
  1  4  1  0
  1  5  1  0
  1 10  1  0
  1 11  1  0
  2  3  1  0
  2 12  1  0
  2 13  1  0
  2 14  1  0
  3  6  1  0
  3 15  1  0
  4  7  3  0
  5  8  3  0
  6  9  3  0
  7 16  1  0
  8 17  1  0
  9 18  1  0
M  RAD  1   3   2
M  END
>  <reaction>  (17) 
rxn_1269

>  <mol_properties>  (17) 
{"1": {"label": "*0", "atom_type": "Ct"}, "2": {"label": "*1", "atom_type": "Cs"}, "9": {"label": "*4", "atom_type": "Ct"}, "10": {"label": "*3", "atom_type": "Cs"}, "13": {"label": "*2", "atom_type": "H0"}}

>  <type>  (17) 
unop_13

>  <geom_source>  (17) 
AutoTST

$$$$
