
     RDKit          3D

 12 11  0  0  0  0  0  0  0  0999 V2000
    1.2394   -0.3763   -0.3020 C   0  0  0  0  0  0  0  0  0  0  0  0
    0.1007    0.3023    0.4464 C   0  0  0  0  0  0  0  0  0  0  0  0
   -0.1187    2.0399   -0.0725 S   0  0  0  0  0  0  0  0  0  0  0  0
   -1.1974   -0.4877    0.3552 C   0  0  0  0  0  0  0  0  0  0  0  0
    2.1681    0.1849   -0.2048 H   0  0  0  0  0  0  0  0  0  0  0  0
    1.0031   -0.4606   -1.3656 H   0  0  0  0  0  0  0  0  0  0  0  0
    1.3994   -1.3856    0.0860 H   0  0  0  0  0  0  0  0  0  0  0  0
    0.3796    0.4050    1.4981 H   0  0  0  0  0  0  0  0  0  0  0  0
   -0.4500    1.7779   -1.3452 H   0  0  0  0  0  0  0  0  0  0  0  0
   -1.0545   -1.4978    0.7479 H   0  0  0  0  0  0  0  0  0  0  0  0
   -1.5206   -0.5759   -0.6849 H   0  0  0  0  0  0  0  0  0  0  0  0
   -1.9957   -0.0054    0.9183 H   0  0  0  0  0  0  0  0  0  0  0  0
  1  2  1  0
  1  5  1  0
  1  6  1  0
  1  7  1  0
  2  4  1  0
  2  3  1  0
  2  8  1  0
  3  9  1  0
  4 10  1  0
  4 11  1  0
  4 12  1  0
M  END
>  <reaction>  (1) 
rxn_1928

>  <mol_properties>  (1) 
{"1": {"label": "donator", "atom_type": "Cs"}, "7": {"label": "d_hydrogen", "atom_type": "H0"}}

>  <type>  (1) 
r1h

$$$$

     RDKit          3D

 11 11  0  0  0  0  0  0  0  0999 V2000
    0.1524   -1.5397    0.0698 C   0  0  0  0  0  3  0  0  0  0  0  0
   -1.1218   -1.0406    0.0516 C   0  0  0  0  0  0  0  0  0  0  0  0
   -1.2464    0.3470   -0.0114 C   0  0  0  0  0  0  0  0  0  0  0  0
   -0.1137    1.1487   -0.0521 C   0  0  0  0  0  0  0  0  0  0  0  0
    1.1542    0.5837   -0.0308 C   0  0  0  0  0  0  0  0  0  0  0  0
    1.3041   -0.8014    0.0319 C   0  0  0  0  0  0  0  0  0  0  0  0
   -1.9955   -1.6793    0.0840 H   0  0  0  0  0  0  0  0  0  0  0  0
   -2.2319    0.7966   -0.0284 H   0  0  0  0  0  0  0  0  0  0  0  0
   -0.2203    2.2248   -0.1009 H   0  0  0  0  0  0  0  0  0  0  0  0
    2.0325    1.2173   -0.0630 H   0  0  0  0  0  0  0  0  0  0  0  0
    2.2862   -1.2570    0.0492 H   0  0  0  0  0  0  0  0  0  0  0  0
  1  2  2  0
  1  6  1  0
  2  3  1  0
  2  7  1  0
  3  4  2  0
  3  8  1  0
  4  5  1  0
  4  9  1  0
  5  6  2  0
  5 10  1  0
  6 11  1  0
M  RAD  1   1   2
M  END
>  <reaction>  (2) 
rxn_1928

>  <mol_properties>  (2) 
{"0": {"label": "acceptor", "atom_type": "Cd"}}

>  <type>  (2) 
r2

$$$$

     RDKit          3D

 12 12  0  0  0  0  0  0  0  0999 V2000
   -1.2385    0.6248   -0.0199 C   0  0  0  0  0  0  0  0  0  0  0  0
   -0.0779    1.3848   -0.0298 C   0  0  0  0  0  0  0  0  0  0  0  0
    1.1605    0.7600   -0.0100 C   0  0  0  0  0  0  0  0  0  0  0  0
    1.2385   -0.6248    0.0199 C   0  0  0  0  0  0  0  0  0  0  0  0
    0.0779   -1.3848    0.0298 C   0  0  0  0  0  0  0  0  0  0  0  0
   -1.1606   -0.7600    0.0100 C   0  0  0  0  0  0  0  0  0  0  0  0
   -2.2052    1.1125   -0.0354 H   0  0  0  0  0  0  0  0  0  0  0  0
   -0.1387    2.4657   -0.0531 H   0  0  0  0  0  0  0  0  0  0  0  0
    2.0664    1.3532   -0.0177 H   0  0  0  0  0  0  0  0  0  0  0  0
    2.2052   -1.1125    0.0354 H   0  0  0  0  0  0  0  0  0  0  0  0
    0.1387   -2.4657    0.0531 H   0  0  0  0  0  0  0  0  0  0  0  0
   -2.0664   -1.3532    0.0177 H   0  0  0  0  0  0  0  0  0  0  0  0
  1  2  2  0
  1  6  1  0
  1  7  1  0
  2  3  1  0
  2  8  1  0
  3  4  2  0
  3  9  1  0
  4  5  1  0
  4 10  1  0
  5  6  2  0
  5 11  1  0
  6 12  1  0
M  END
>  <reaction>  (3) 
rxn_1928

>  <mol_properties>  (3) 
{"0": {"label": "a_hydrogen", "atom_type": "H0"}, "1": {"label": "acceptor", "atom_type": "Cd"}}

>  <type>  (3) 
r2h

$$$$

     RDKit          3D

 23 22  0  0  0  0  0  0  0  0999 V2000
    0.7643    1.3101   -2.3613 C   0  0  0  0  0  0  0  0  0  0  0  0
    1.2795    1.1628   -0.9481 C   0  0  0  0  0  0  0  0  0  0  0  0
    2.7265    0.0868   -0.8091 S   0  0  0  0  0  0  0  0  0  0  0  0
    1.4021    2.4653   -0.1889 C   0  0  0  0  0  0  0  0  0  0  0  0
    0.6079    0.3380   -2.8283 H   0  0  0  0  0  0  0  0  0  0  0  0
    1.4728    1.8749   -2.9761 H   0  0  0  0  0  0  0  0  0  0  0  0
   -0.1842    1.8524   -2.3624 H   0  0  0  0  0  0  0  0  0  0  0  0
    0.4211    0.4975   -0.3458 H   0  0  0  0  0  0  0  0  0  0  0  0
    3.4526    0.6590   -1.7826 H   0  0  0  0  0  0  0  0  0  0  0  0
    0.4509    3.0042   -0.2052 H   0  0  0  0  0  0  0  0  0  0  0  0
    2.1601    3.1095   -0.6450 H   0  0  0  0  0  0  0  0  0  0  0  0
    1.6882    2.2926    0.8483 H   0  0  0  0  0  0  0  0  0  0  0  0
   -0.6399   -0.2659    0.2962 C   0  0  0  0  0  3  0  0  0  0  0  0
   -0.6652   -1.6230    0.0699 C   0  0  0  0  0  0  0  0  0  0  0  0
   -1.6832   -2.3655    0.6596 C   0  0  0  0  0  0  0  0  0  0  0  0
   -2.6355   -1.7354    1.4490 C   0  0  0  0  0  0  0  0  0  0  0  0
   -2.5811   -0.3643    1.6576 C   0  0  0  0  0  0  0  0  0  0  0  0
   -1.5675    0.3891    1.0732 C   0  0  0  0  0  0  0  0  0  0  0  0
    0.0880   -2.1009   -0.5455 H   0  0  0  0  0  0  0  0  0  0  0  0
   -1.7309   -3.4363    0.5027 H   0  0  0  0  0  0  0  0  0  0  0  0
   -3.4256   -2.3176    1.9061 H   0  0  0  0  0  0  0  0  0  0  0  0
   -3.3267    0.1206    2.2762 H   0  0  0  0  0  0  0  0  0  0  0  0
   -1.5147    1.4598    1.2316 H   0  0  0  0  0  0  0  0  0  0  0  0
  1  2  1  0
  1  5  1  0
  1  6  1  0
  1  7  1  0
  2  4  1  0
  2  3  1  0
  2  8  1  0
  3  9  1  0
  4 10  1  0
  4 11  1  0
  4 12  1  0
 13 14  2  0
 13 18  1  0
 14 15  1  0
 14 19  1  0
 15 16  2  0
 15 20  1  0
 16 17  1  0
 16 21  1  0
 17 18  2  0
 17 22  1  0
 18 23  1  0
M  RAD  1  13   2
M  END
>  <reaction>  (4) 
rxn_1928

>  <mol_properties>  (4) 
{"1": {"label": "*1", "atom_type": "Cs"}, "2": {"label": "*0", "atom_type": "S2s"}, "7": {"label": "*2", "atom_type": "H0"}, "12": {"label": "*3", "atom_type": "Cd"}, "13": {"label": "*4", "atom_type": "Cd"}}

>  <type>  (4) 
ts

$$$$

     RDKit          3D

 23 22  0  0  0  0  0  0  0  0999 V2000
    1.1877    0.7851   -2.5771 C   0  0  0  0  0  0  0  0  0  0  0  0
    1.1877    0.7851   -1.0548 C   0  0  0  0  0  3  0  0  0  0  0  0
    2.5427   -0.2313   -0.3712 S   0  0  0  0  0  0  0  0  0  0  0  0
    1.1877    2.1951   -0.4808 C   0  0  0  0  0  0  0  0  0  0  0  0
    1.1591   -0.2291   -2.9738 H   0  0  0  0  0  0  0  0  0  0  0  0
    2.0861    1.2749   -2.9607 H   0  0  0  0  0  0  0  0  0  0  0  0
    0.3207    1.3326   -2.9559 H   0  0  0  0  0  0  0  0  0  0  0  0
    0.1198    0.1533   -0.6298 H   0  0  0  0  0  0  0  0  0  0  0  0
    3.5490    0.5042   -0.8658 H   0  0  0  0  0  0  0  0  0  0  0  0
    0.3207    2.7524   -0.8449 H   0  0  0  0  0  0  0  0  0  0  0  0
    2.0861    2.7350   -0.7897 H   0  0  0  0  0  0  0  0  0  0  0  0
    1.1591    2.1800    0.6082 H   0  0  0  0  0  0  0  0  0  0  0  0
   -0.9382   -0.4728   -0.2088 C   0  0  0  0  0  0  0  0  0  0  0  0
   -0.8055   -1.6033    0.5843 C   0  0  0  0  0  0  0  0  0  0  0  0
   -1.6004   -1.7574    1.7108 C   0  0  0  0  0  0  0  0  0  0  0  0
   -2.5279   -0.7811    2.0442 C   0  0  0  0  0  0  0  0  0  0  0  0
   -2.6605    0.3494    1.2511 C   0  0  0  0  0  0  0  0  0  0  0  0
   -1.8657    0.5036    0.1246 C   0  0  0  0  0  0  0  0  0  0  0  0
   -0.0816   -2.3653    0.3240 H   0  0  0  0  0  0  0  0  0  0  0  0
   -1.4969   -2.6398    2.3298 H   0  0  0  0  0  0  0  0  0  0  0  0
   -3.1484   -0.9015    2.9235 H   0  0  0  0  0  0  0  0  0  0  0  0
   -3.3845    1.1114    1.5114 H   0  0  0  0  0  0  0  0  0  0  0  0
   -1.9692    1.3860   -0.4944 H   0  0  0  0  0  0  0  0  0  0  0  0
  1  2  1  0
  1  5  1  0
  1  6  1  0
  1  7  1  0
  2  4  1  0
  2  3  1  0
  3  9  1  0
  4 10  1  0
  4 11  1  0
  4 12  1  0
  8 13  1  0
 13 14  2  0
 13 18  1  0
 14 15  1  0
 14 19  1  0
 15 16  2  0
 15 20  1  0
 16 17  1  0
 16 21  1  0
 17 18  2  0
 17 22  1  0
 18 23  1  0
M  RAD  1   2   2
M  END
>  <reaction>  (5) 
rxn_1928

>  <mol_properties>  (5) 
{"1": {"label": "*1", "atom_type": "Cs"}, "2": {"label": "*0", "atom_type": "S2s"}, "7": {"label": "*2", "atom_type": "H0"}, "12": {"label": "*3", "atom_type": "Cd"}, "13": {"label": "*4", "atom_type": "Cd"}}

>  <type>  (5) 
unop_1

>  <geom_source>  (5) 
Heuristics

$$$$

     RDKit          3D

 23 22  0  0  0  0  0  0  0  0999 V2000
    1.2293    1.1714   -2.2975 C   0  0  0  0  0  0  0  0  0  0  0  0
    1.2293    1.1714   -0.7752 C   0  0  0  0  0  3  0  0  0  0  0  0
    2.5843    0.1549   -0.0915 S   0  0  0  0  0  0  0  0  0  0  0  0
    1.2293    2.5813   -0.2011 C   0  0  0  0  0  0  0  0  0  0  0  0
    1.2007    0.1571   -2.6941 H   0  0  0  0  0  0  0  0  0  0  0  0
    2.1277    1.6611   -2.6811 H   0  0  0  0  0  0  0  0  0  0  0  0
    0.3623    1.7188   -2.6763 H   0  0  0  0  0  0  0  0  0  0  0  0
    0.1614    0.5395   -0.3502 H   0  0  0  0  0  0  0  0  0  0  0  0
    3.5905    0.8904   -0.5862 H   0  0  0  0  0  0  0  0  0  0  0  0
    0.3623    3.1386   -0.5653 H   0  0  0  0  0  0  0  0  0  0  0  0
    2.1277    3.1213   -0.5100 H   0  0  0  0  0  0  0  0  0  0  0  0
    1.2007    2.5662    0.8878 H   0  0  0  0  0  0  0  0  0  0  0  0
   -0.8966   -0.0865    0.0709 C   0  0  0  0  0  0  0  0  0  0  0  0
   -1.4456   -1.1094   -0.6887 C   0  0  0  0  0  0  0  0  0  0  0  0
   -2.3212   -2.0135   -0.1052 C   0  0  0  0  0  0  0  0  0  0  0  0
   -2.6478   -1.8948    1.2379 C   0  0  0  0  0  0  0  0  0  0  0  0
   -2.0988   -0.8720    1.9974 C   0  0  0  0  0  0  0  0  0  0  0  0
   -1.2232    0.0322    1.4139 C   0  0  0  0  0  0  0  0  0  0  0  0
   -1.1907   -1.2020   -1.7371 H   0  0  0  0  0  0  0  0  0  0  0  0
   -2.7497   -2.8119   -0.6981 H   0  0  0  0  0  0  0  0  0  0  0  0
   -3.3312   -2.6005    1.6933 H   0  0  0  0  0  0  0  0  0  0  0  0
   -2.3537   -0.7793    3.0457 H   0  0  0  0  0  0  0  0  0  0  0  0
   -0.7947    0.8306    2.0068 H   0  0  0  0  0  0  0  0  0  0  0  0
  1  2  1  0
  1  5  1  0
  1  6  1  0
  1  7  1  0
  2  4  1  0
  2  3  1  0
  3  9  1  0
  4 10  1  0
  4 11  1  0
  4 12  1  0
  8 13  1  0
 13 14  2  0
 13 18  1  0
 14 15  1  0
 14 19  1  0
 15 16  2  0
 15 20  1  0
 16 17  1  0
 16 21  1  0
 17 18  2  0
 17 22  1  0
 18 23  1  0
M  RAD  1   2   2
M  END
>  <reaction>  (6) 
rxn_1928

>  <mol_properties>  (6) 
{"1": {"label": "*1", "atom_type": "Cs"}, "2": {"label": "*0", "atom_type": "S2s"}, "7": {"label": "*2", "atom_type": "H0"}, "12": {"label": "*3", "atom_type": "Cd"}, "13": {"label": "*4", "atom_type": "Cd"}}

>  <type>  (6) 
unop_2

>  <geom_source>  (6) 
Heuristics

$$$$

     RDKit          3D

 23 22  0  0  0  0  0  0  0  0999 V2000
    1.3576    0.7180   -2.4150 C   0  0  0  0  0  0  0  0  0  0  0  0
    1.3576    0.7180   -0.8926 C   0  0  0  0  0  3  0  0  0  0  0  0
    2.7127   -0.2984   -0.2090 S   0  0  0  0  0  0  0  0  0  0  0  0
    1.3576    2.1280   -0.3186 C   0  0  0  0  0  0  0  0  0  0  0  0
    1.3291   -0.2962   -2.8116 H   0  0  0  0  0  0  0  0  0  0  0  0
    2.2561    1.2077   -2.7986 H   0  0  0  0  0  0  0  0  0  0  0  0
    0.4907    1.2654   -2.7938 H   0  0  0  0  0  0  0  0  0  0  0  0
    0.2898    0.0861   -0.4676 H   0  0  0  0  0  0  0  0  0  0  0  0
    3.7189    0.4371   -0.7037 H   0  0  0  0  0  0  0  0  0  0  0  0
    0.4907    2.6852   -0.6827 H   0  0  0  0  0  0  0  0  0  0  0  0
    2.2561    2.6679   -0.6275 H   0  0  0  0  0  0  0  0  0  0  0  0
    1.3291    2.1129    0.7704 H   0  0  0  0  0  0  0  0  0  0  0  0
   -0.7682   -0.5399   -0.0466 C   0  0  0  0  0  0  0  0  0  0  0  0
   -0.7369   -1.2194    1.1625 C   0  0  0  0  0  0  0  0  0  0  0  0
   -1.8618   -1.2432    1.9741 C   0  0  0  0  0  0  0  0  0  0  0  0
   -3.0180   -0.5876    1.5766 C   0  0  0  0  0  0  0  0  0  0  0  0
   -3.0492    0.0919    0.3675 C   0  0  0  0  0  0  0  0  0  0  0  0
   -1.9244    0.1157   -0.4441 C   0  0  0  0  0  0  0  0  0  0  0  0
    0.1655   -1.7311    1.4728 H   0  0  0  0  0  0  0  0  0  0  0  0
   -1.8374   -1.7736    2.9178 H   0  0  0  0  0  0  0  0  0  0  0  0
   -3.8960   -0.6062    2.2101 H   0  0  0  0  0  0  0  0  0  0  0  0
   -3.9517    0.6036    0.0572 H   0  0  0  0  0  0  0  0  0  0  0  0
   -1.9488    0.6461   -1.3879 H   0  0  0  0  0  0  0  0  0  0  0  0
  1  2  1  0
  1  5  1  0
  1  6  1  0
  1  7  1  0
  2  4  1  0
  2  3  1  0
  3  9  1  0
  4 10  1  0
  4 11  1  0
  4 12  1  0
  8 13  1  0
 13 14  2  0
 13 18  1  0
 14 15  1  0
 14 19  1  0
 15 16  2  0
 15 20  1  0
 16 17  1  0
 16 21  1  0
 17 18  2  0
 17 22  1  0
 18 23  1  0
M  RAD  1   2   2
M  END
>  <reaction>  (7) 
rxn_1928

>  <mol_properties>  (7) 
{"1": {"label": "*1", "atom_type": "Cs"}, "2": {"label": "*0", "atom_type": "S2s"}, "7": {"label": "*2", "atom_type": "H0"}, "12": {"label": "*3", "atom_type": "Cd"}, "13": {"label": "*4", "atom_type": "Cd"}}

>  <type>  (7) 
unop_3

>  <geom_source>  (7) 
Heuristics

$$$$

     RDKit          3D

 23 22  0  0  0  0  0  0  0  0999 V2000
    1.3249    0.7897   -2.4494 C   0  0  0  0  0  0  0  0  0  0  0  0
    1.3249    0.7897   -0.9271 C   0  0  0  0  0  3  0  0  0  0  0  0
    2.6799   -0.2267   -0.2434 S   0  0  0  0  0  0  0  0  0  0  0  0
    1.3249    2.1997   -0.3530 C   0  0  0  0  0  0  0  0  0  0  0  0
    1.2963   -0.2245   -2.8461 H   0  0  0  0  0  0  0  0  0  0  0  0
    2.2233    1.2794   -2.8330 H   0  0  0  0  0  0  0  0  0  0  0  0
    0.4579    1.3371   -2.8282 H   0  0  0  0  0  0  0  0  0  0  0  0
    0.2570    0.1578   -0.5021 H   0  0  0  0  0  0  0  0  0  0  0  0
    3.6862    0.5088   -0.7381 H   0  0  0  0  0  0  0  0  0  0  0  0
    0.4579    2.7569   -0.7172 H   0  0  0  0  0  0  0  0  0  0  0  0
    2.2233    2.7396   -0.6619 H   0  0  0  0  0  0  0  0  0  0  0  0
    1.2963    2.1846    0.7359 H   0  0  0  0  0  0  0  0  0  0  0  0
   -0.8010   -0.4682   -0.0810 C   0  0  0  0  0  0  0  0  0  0  0  0
   -2.0631   -0.0060   -0.4246 C   0  0  0  0  0  0  0  0  0  0  0  0
   -3.1243   -0.1691    0.4539 C   0  0  0  0  0  0  0  0  0  0  0  0
   -2.9235   -0.7943    1.6759 C   0  0  0  0  0  0  0  0  0  0  0  0
   -1.6614   -1.2565    2.0194 C   0  0  0  0  0  0  0  0  0  0  0  0
   -0.6001   -1.0934    1.1410 C   0  0  0  0  0  0  0  0  0  0  0  0
   -2.2199    0.4820   -1.3784 H   0  0  0  0  0  0  0  0  0  0  0  0
   -4.1095    0.1916    0.1857 H   0  0  0  0  0  0  0  0  0  0  0  0
   -3.7519   -0.9216    2.3616 H   0  0  0  0  0  0  0  0  0  0  0  0
   -1.5046   -1.7445    2.9733 H   0  0  0  0  0  0  0  0  0  0  0  0
    0.3851   -1.4542    1.4091 H   0  0  0  0  0  0  0  0  0  0  0  0
  1  2  1  0
  1  5  1  0
  1  6  1  0
  1  7  1  0
  2  4  1  0
  2  3  1  0
  3  9  1  0
  4 10  1  0
  4 11  1  0
  4 12  1  0
  8 13  1  0
 13 14  2  0
 13 18  1  0
 14 15  1  0
 14 19  1  0
 15 16  2  0
 15 20  1  0
 16 17  1  0
 16 21  1  0
 17 18  2  0
 17 22  1  0
 18 23  1  0
M  RAD  1   2   2
M  END
>  <reaction>  (8) 
rxn_1928

>  <mol_properties>  (8) 
{"1": {"label": "*1", "atom_type": "Cs"}, "2": {"label": "*0", "atom_type": "S2s"}, "7": {"label": "*2", "atom_type": "H0"}, "12": {"label": "*3", "atom_type": "Cd"}, "13": {"label": "*4", "atom_type": "Cd"}}

>  <type>  (8) 
unop_4

>  <geom_source>  (8) 
Heuristics

$$$$

     RDKit          3D

 23 22  0  0  0  0  0  0  0  0999 V2000
    1.3600    1.0499   -2.2285 C   0  0  0  0  0  0  0  0  0  0  0  0
    1.3600    1.0499   -0.7062 C   0  0  0  0  0  3  0  0  0  0  0  0
    2.7151    0.0335   -0.0225 S   0  0  0  0  0  0  0  0  0  0  0  0
    1.3600    2.4599   -0.1321 C   0  0  0  0  0  0  0  0  0  0  0  0
    1.3315    0.0357   -2.6251 H   0  0  0  0  0  0  0  0  0  0  0  0
    2.2585    1.5397   -2.6121 H   0  0  0  0  0  0  0  0  0  0  0  0
    0.4931    1.5973   -2.6073 H   0  0  0  0  0  0  0  0  0  0  0  0
    0.2922    0.4180   -0.2812 H   0  0  0  0  0  0  0  0  0  0  0  0
    3.7213    0.7690   -0.5172 H   0  0  0  0  0  0  0  0  0  0  0  0
    0.4931    3.0171   -0.4963 H   0  0  0  0  0  0  0  0  0  0  0  0
    2.2585    2.9998   -0.4410 H   0  0  0  0  0  0  0  0  0  0  0  0
    1.3315    2.4448    0.9568 H   0  0  0  0  0  0  0  0  0  0  0  0
   -0.7658   -0.2080    0.1399 C   0  0  0  0  0  0  0  0  0  0  0  0
   -0.9955   -0.3439    1.5012 C   0  0  0  0  0  0  0  0  0  0  0  0
   -2.1251   -1.0122    1.9507 C   0  0  0  0  0  0  0  0  0  0  0  0
   -3.0249   -1.5447    1.0389 C   0  0  0  0  0  0  0  0  0  0  0  0
   -2.7951   -1.4087   -0.3225 C   0  0  0  0  0  0  0  0  0  0  0  0
   -1.6656   -0.7404   -0.7720 C   0  0  0  0  0  0  0  0  0  0  0  0
   -0.2932    0.0717    2.2130 H   0  0  0  0  0  0  0  0  0  0  0  0
   -2.3044   -1.1183    3.0134 H   0  0  0  0  0  0  0  0  0  0  0  0
   -3.9065   -2.0664    1.3898 H   0  0  0  0  0  0  0  0  0  0  0  0
   -3.4975   -1.8243   -1.0342 H   0  0  0  0  0  0  0  0  0  0  0  0
   -1.4863   -0.6343   -1.8346 H   0  0  0  0  0  0  0  0  0  0  0  0
  1  2  1  0
  1  5  1  0
  1  6  1  0
  1  7  1  0
  2  4  1  0
  2  3  1  0
  3  9  1  0
  4 10  1  0
  4 11  1  0
  4 12  1  0
  8 13  1  0
 13 14  2  0
 13 18  1  0
 14 15  1  0
 14 19  1  0
 15 16  2  0
 15 20  1  0
 16 17  1  0
 16 21  1  0
 17 18  2  0
 17 22  1  0
 18 23  1  0
M  RAD  1   2   2
M  END
>  <reaction>  (9) 
rxn_1928

>  <mol_properties>  (9) 
{"1": {"label": "*1", "atom_type": "Cs"}, "2": {"label": "*0", "atom_type": "S2s"}, "7": {"label": "*2", "atom_type": "H0"}, "12": {"label": "*3", "atom_type": "Cd"}, "13": {"label": "*4", "atom_type": "Cd"}}

>  <type>  (9) 
unop_5

>  <geom_source>  (9) 
Heuristics

$$$$

     RDKit          3D

 23 22  0  0  0  0  0  0  0  0999 V2000
    1.1751    0.8497   -2.5735 C   0  0  0  0  0  0  0  0  0  0  0  0
    1.1751    0.8497   -1.0511 C   0  0  0  0  0  3  0  0  0  0  0  0
    2.5301   -0.1667   -0.3675 S   0  0  0  0  0  0  0  0  0  0  0  0
    1.1751    2.2597   -0.4771 C   0  0  0  0  0  0  0  0  0  0  0  0
    1.1465   -0.1645   -2.9701 H   0  0  0  0  0  0  0  0  0  0  0  0
    2.0735    1.3394   -2.9571 H   0  0  0  0  0  0  0  0  0  0  0  0
    0.3081    1.3971   -2.9523 H   0  0  0  0  0  0  0  0  0  0  0  0
    0.1072    0.2178   -0.6262 H   0  0  0  0  0  0  0  0  0  0  0  0
    3.5363    0.5688   -0.8622 H   0  0  0  0  0  0  0  0  0  0  0  0
    0.3081    2.8169   -0.8413 H   0  0  0  0  0  0  0  0  0  0  0  0
    2.0735    2.7996   -0.7860 H   0  0  0  0  0  0  0  0  0  0  0  0
    1.1465    2.2446    0.6119 H   0  0  0  0  0  0  0  0  0  0  0  0
   -0.9508   -0.4082   -0.2051 C   0  0  0  0  0  0  0  0  0  0  0  0
   -2.1274    0.2916    0.0196 C   0  0  0  0  0  0  0  0  0  0  0  0
   -2.8977    0.0120    1.1390 C   0  0  0  0  0  0  0  0  0  0  0  0
   -2.4915   -0.9673    2.0337 C   0  0  0  0  0  0  0  0  0  0  0  0
   -1.3149   -1.6671    1.8089 C   0  0  0  0  0  0  0  0  0  0  0  0
   -0.5445   -1.3876    0.6895 C   0  0  0  0  0  0  0  0  0  0  0  0
   -2.4445    1.0561   -0.6787 H   0  0  0  0  0  0  0  0  0  0  0  0
   -3.8161    0.5583    1.3145 H   0  0  0  0  0  0  0  0  0  0  0  0
   -3.0927   -1.1856    2.9074 H   0  0  0  0  0  0  0  0  0  0  0  0
   -0.9978   -2.4316    2.5072 H   0  0  0  0  0  0  0  0  0  0  0  0
    0.3738   -1.9338    0.5141 H   0  0  0  0  0  0  0  0  0  0  0  0
  1  2  1  0
  1  5  1  0
  1  6  1  0
  1  7  1  0
  2  4  1  0
  2  3  1  0
  3  9  1  0
  4 10  1  0
  4 11  1  0
  4 12  1  0
  8 13  1  0
 13 14  2  0
 13 18  1  0
 14 15  1  0
 14 19  1  0
 15 16  2  0
 15 20  1  0
 16 17  1  0
 16 21  1  0
 17 18  2  0
 17 22  1  0
 18 23  1  0
M  RAD  1   2   2
M  END
>  <reaction>  (10) 
rxn_1928

>  <mol_properties>  (10) 
{"1": {"label": "*1", "atom_type": "Cs"}, "2": {"label": "*0", "atom_type": "S2s"}, "7": {"label": "*2", "atom_type": "H0"}, "12": {"label": "*3", "atom_type": "Cd"}, "13": {"label": "*4", "atom_type": "Cd"}}

>  <type>  (10) 
unop_6

>  <geom_source>  (10) 
Heuristics

$$$$

     RDKit          3D

 23 22  0  0  0  0  0  0  0  0999 V2000
    1.0450    1.0263   -2.5771 C   0  0  0  0  0  0  0  0  0  0  0  0
    1.0450    1.0263   -1.0548 C   0  0  0  0  0  3  0  0  0  0  0  0
    2.4000    0.0099   -0.3712 S   0  0  0  0  0  0  0  0  0  0  0  0
    1.0450    2.4363   -0.4808 C   0  0  0  0  0  0  0  0  0  0  0  0
    1.0164    0.0121   -2.9738 H   0  0  0  0  0  0  0  0  0  0  0  0
    1.9434    1.5160   -2.9607 H   0  0  0  0  0  0  0  0  0  0  0  0
    0.1780    1.5737   -2.9559 H   0  0  0  0  0  0  0  0  0  0  0  0
   -0.0229    0.3944   -0.6298 H   0  0  0  0  0  0  0  0  0  0  0  0
    3.4063    0.7454   -0.8658 H   0  0  0  0  0  0  0  0  0  0  0  0
    0.1780    2.9935   -0.8449 H   0  0  0  0  0  0  0  0  0  0  0  0
    1.9434    2.9762   -0.7897 H   0  0  0  0  0  0  0  0  0  0  0  0
    1.0164    2.4212    0.6082 H   0  0  0  0  0  0  0  0  0  0  0  0
   -1.0809   -0.2316   -0.2088 C   0  0  0  0  0  0  0  0  0  0  0  0
   -2.0080    0.4288    0.5843 C   0  0  0  0  0  0  0  0  0  0  0  0
   -2.5257   -0.1937    1.7108 C   0  0  0  0  0  0  0  0  0  0  0  0
   -2.1164   -1.4766    2.0442 C   0  0  0  0  0  0  0  0  0  0  0  0
   -1.1893   -2.1370    1.2511 C   0  0  0  0  0  0  0  0  0  0  0  0
   -0.6716   -1.5145    0.1246 C   0  0  0  0  0  0  0  0  0  0  0  0
   -2.3275    1.4302    0.3240 H   0  0  0  0  0  0  0  0  0  0  0  0
   -3.2494    0.3218    2.3298 H   0  0  0  0  0  0  0  0  0  0  0  0
   -2.5205   -1.9625    2.9235 H   0  0  0  0  0  0  0  0  0  0  0  0
   -0.8698   -3.1384    1.5114 H   0  0  0  0  0  0  0  0  0  0  0  0
    0.0521   -2.0300   -0.4944 H   0  0  0  0  0  0  0  0  0  0  0  0
  1  2  1  0
  1  5  1  0
  1  6  1  0
  1  7  1  0
  2  4  1  0
  2  3  1  0
  3  9  1  0
  4 10  1  0
  4 11  1  0
  4 12  1  0
  8 13  1  0
 13 14  2  0
 13 18  1  0
 14 15  1  0
 14 19  1  0
 15 16  2  0
 15 20  1  0
 16 17  1  0
 16 21  1  0
 17 18  2  0
 17 22  1  0
 18 23  1  0
M  RAD  1   2   2
M  END
>  <reaction>  (11) 
rxn_1928

>  <mol_properties>  (11) 
{"1": {"label": "*1", "atom_type": "Cs"}, "2": {"label": "*0", "atom_type": "S2s"}, "7": {"label": "*2", "atom_type": "H0"}, "12": {"label": "*3", "atom_type": "Cd"}, "13": {"label": "*4", "atom_type": "Cd"}}

>  <type>  (11) 
unop_7

>  <geom_source>  (11) 
Heuristics

$$$$

     RDKit          3D

 23 22  0  0  0  0  0  0  0  0999 V2000
    1.0955    0.9842   -2.5735 C   0  0  0  0  0  0  0  0  0  0  0  0
    1.0955    0.9842   -1.0511 C   0  0  0  0  0  3  0  0  0  0  0  0
    2.4505   -0.0323   -0.3675 S   0  0  0  0  0  0  0  0  0  0  0  0
    1.0955    2.3941   -0.4771 C   0  0  0  0  0  0  0  0  0  0  0  0
    1.0669   -0.0301   -2.9701 H   0  0  0  0  0  0  0  0  0  0  0  0
    1.9939    1.4739   -2.9571 H   0  0  0  0  0  0  0  0  0  0  0  0
    0.2285    1.5316   -2.9523 H   0  0  0  0  0  0  0  0  0  0  0  0
    0.0276    0.3523   -0.6262 H   0  0  0  0  0  0  0  0  0  0  0  0
    3.4568    0.7032   -0.8622 H   0  0  0  0  0  0  0  0  0  0  0  0
    0.2285    2.9514   -0.8413 H   0  0  0  0  0  0  0  0  0  0  0  0
    1.9939    2.9341   -0.7860 H   0  0  0  0  0  0  0  0  0  0  0  0
    1.0669    2.3790    0.6119 H   0  0  0  0  0  0  0  0  0  0  0  0
   -1.0304   -0.2737   -0.2051 C   0  0  0  0  0  0  0  0  0  0  0  0
   -0.9833   -1.6419    0.0196 C   0  0  0  0  0  0  0  0  0  0  0  0
   -1.5991   -2.1825    1.1390 C   0  0  0  0  0  0  0  0  0  0  0  0
   -2.2621   -1.3550    2.0337 C   0  0  0  0  0  0  0  0  0  0  0  0
   -2.3091    0.0131    1.8089 C   0  0  0  0  0  0  0  0  0  0  0  0
   -1.6933    0.5538    0.6895 C   0  0  0  0  0  0  0  0  0  0  0  0
   -0.4659   -2.2878   -0.6787 H   0  0  0  0  0  0  0  0  0  0  0  0
   -1.5624   -3.2504    1.3145 H   0  0  0  0  0  0  0  0  0  0  0  0
   -2.7428   -1.7770    2.9074 H   0  0  0  0  0  0  0  0  0  0  0  0
   -2.8265    0.6591    2.5072 H   0  0  0  0  0  0  0  0  0  0  0  0
   -1.7300    1.6217    0.5141 H   0  0  0  0  0  0  0  0  0  0  0  0
  1  2  1  0
  1  5  1  0
  1  6  1  0
  1  7  1  0
  2  4  1  0
  2  3  1  0
  3  9  1  0
  4 10  1  0
  4 11  1  0
  4 12  1  0
  8 13  1  0
 13 14  2  0
 13 18  1  0
 14 15  1  0
 14 19  1  0
 15 16  2  0
 15 20  1  0
 16 17  1  0
 16 21  1  0
 17 18  2  0
 17 22  1  0
 18 23  1  0
M  RAD  1   2   2
M  END
>  <reaction>  (12) 
rxn_1928

>  <mol_properties>  (12) 
{"1": {"label": "*1", "atom_type": "Cs"}, "2": {"label": "*0", "atom_type": "S2s"}, "7": {"label": "*2", "atom_type": "H0"}, "12": {"label": "*3", "atom_type": "Cd"}, "13": {"label": "*4", "atom_type": "Cd"}}

>  <type>  (12) 
unop_8

>  <geom_source>  (12) 
Heuristics

$$$$

     RDKit          3D

 23 22  0  0  0  0  0  0  0  0999 V2000
    1.4035    0.8769   -2.2975 C   0  0  0  0  0  0  0  0  0  0  0  0
    1.4035    0.8769   -0.7752 C   0  0  0  0  0  3  0  0  0  0  0  0
    2.7585   -0.1396   -0.0915 S   0  0  0  0  0  0  0  0  0  0  0  0
    1.4035    2.2868   -0.2011 C   0  0  0  0  0  0  0  0  0  0  0  0
    1.3749   -0.1374   -2.6941 H   0  0  0  0  0  0  0  0  0  0  0  0
    2.3019    1.3666   -2.6811 H   0  0  0  0  0  0  0  0  0  0  0  0
    0.5366    1.4243   -2.6763 H   0  0  0  0  0  0  0  0  0  0  0  0
    0.3356    0.2450   -0.3502 H   0  0  0  0  0  0  0  0  0  0  0  0
    3.7648    0.5959   -0.5862 H   0  0  0  0  0  0  0  0  0  0  0  0
    0.5366    2.8441   -0.5653 H   0  0  0  0  0  0  0  0  0  0  0  0
    2.3019    2.8268   -0.5100 H   0  0  0  0  0  0  0  0  0  0  0  0
    1.3749    2.2717    0.8878 H   0  0  0  0  0  0  0  0  0  0  0  0
   -0.7223   -0.3811    0.0709 C   0  0  0  0  0  0  0  0  0  0  0  0
   -1.8831   -0.3699   -0.6887 C   0  0  0  0  0  0  0  0  0  0  0  0
   -3.0971   -0.7022   -0.1052 C   0  0  0  0  0  0  0  0  0  0  0  0
   -3.1503   -1.0456    1.2379 C   0  0  0  0  0  0  0  0  0  0  0  0
   -1.9894   -1.0567    1.9974 C   0  0  0  0  0  0  0  0  0  0  0  0
   -0.7755   -0.7245    1.4139 C   0  0  0  0  0  0  0  0  0  0  0  0
   -1.8417   -0.1019   -1.7371 H   0  0  0  0  0  0  0  0  0  0  0  0
   -4.0032   -0.6935   -0.6981 H   0  0  0  0  0  0  0  0  0  0  0  0
   -4.0978   -1.3050    1.6933 H   0  0  0  0  0  0  0  0  0  0  0  0
   -2.0309   -1.3248    3.0457 H   0  0  0  0  0  0  0  0  0  0  0  0
    0.1306   -0.7332    2.0068 H   0  0  0  0  0  0  0  0  0  0  0  0
  1  2  1  0
  1  5  1  0
  1  6  1  0
  1  7  1  0
  2  4  1  0
  2  3  1  0
  3  9  1  0
  4 10  1  0
  4 11  1  0
  4 12  1  0
  8 13  1  0
 13 14  2  0
 13 18  1  0
 14 15  1  0
 14 19  1  0
 15 16  2  0
 15 20  1  0
 16 17  1  0
 16 21  1  0
 17 18  2  0
 17 22  1  0
 18 23  1  0
M  RAD  1   2   2
M  END
>  <reaction>  (13) 
rxn_1928

>  <mol_properties>  (13) 
{"1": {"label": "*1", "atom_type": "Cs"}, "2": {"label": "*0", "atom_type": "S2s"}, "7": {"label": "*2", "atom_type": "H0"}, "12": {"label": "*3", "atom_type": "Cd"}, "13": {"label": "*4", "atom_type": "Cd"}}

>  <type>  (13) 
unop_9

>  <geom_source>  (13) 
Heuristics

$$$$

     RDKit          3D

 23 22  0  0  0  0  0  0  0  0999 V2000
    1.1150    1.1444   -2.4494 C   0  0  0  0  0  0  0  0  0  0  0  0
    1.1150    1.1444   -0.9271 C   0  0  0  0  0  3  0  0  0  0  0  0
    2.4700    0.1279   -0.2434 S   0  0  0  0  0  0  0  0  0  0  0  0
    1.1150    2.5543   -0.3530 C   0  0  0  0  0  0  0  0  0  0  0  0
    1.0864    0.1301   -2.8461 H   0  0  0  0  0  0  0  0  0  0  0  0
    2.0134    1.6341   -2.8330 H   0  0  0  0  0  0  0  0  0  0  0  0
    0.2481    1.6918   -2.8282 H   0  0  0  0  0  0  0  0  0  0  0  0
    0.0471    0.5125   -0.5021 H   0  0  0  0  0  0  0  0  0  0  0  0
    3.4763    0.8634   -0.7381 H   0  0  0  0  0  0  0  0  0  0  0  0
    0.2481    3.1116   -0.7172 H   0  0  0  0  0  0  0  0  0  0  0  0
    2.0134    3.0943   -0.6619 H   0  0  0  0  0  0  0  0  0  0  0  0
    1.0864    2.5393    0.7359 H   0  0  0  0  0  0  0  0  0  0  0  0
   -1.0108   -0.1135   -0.0810 C   0  0  0  0  0  0  0  0  0  0  0  0
   -1.2133   -1.4423   -0.4246 C   0  0  0  0  0  0  0  0  0  0  0  0
   -1.8670   -2.2940    0.4539 C   0  0  0  0  0  0  0  0  0  0  0  0
   -2.3184   -1.8170    1.6759 C   0  0  0  0  0  0  0  0  0  0  0  0
   -2.1160   -0.4882    2.0194 C   0  0  0  0  0  0  0  0  0  0  0  0
   -1.4622    0.3635    1.1410 C   0  0  0  0  0  0  0  0  0  0  0  0
   -0.8609   -1.8146   -1.3784 H   0  0  0  0  0  0  0  0  0  0  0  0
   -2.0250   -3.3312    0.1857 H   0  0  0  0  0  0  0  0  0  0  0  0
   -2.8287   -2.4818    2.3616 H   0  0  0  0  0  0  0  0  0  0  0  0
   -2.4683   -0.1159    2.9733 H   0  0  0  0  0  0  0  0  0  0  0  0
   -1.3042    1.4007    1.4091 H   0  0  0  0  0  0  0  0  0  0  0  0
  1  2  1  0
  1  5  1  0
  1  6  1  0
  1  7  1  0
  2  4  1  0
  2  3  1  0
  3  9  1  0
  4 10  1  0
  4 11  1  0
  4 12  1  0
  8 13  1  0
 13 14  2  0
 13 18  1  0
 14 15  1  0
 14 19  1  0
 15 16  2  0
 15 20  1  0
 16 17  1  0
 16 21  1  0
 17 18  2  0
 17 22  1  0
 18 23  1  0
M  RAD  1   2   2
M  END
>  <reaction>  (14) 
rxn_1928

>  <mol_properties>  (14) 
{"1": {"label": "*1", "atom_type": "Cs"}, "2": {"label": "*0", "atom_type": "S2s"}, "7": {"label": "*2", "atom_type": "H0"}, "12": {"label": "*3", "atom_type": "Cd"}, "13": {"label": "*4", "atom_type": "Cd"}}

>  <type>  (14) 
unop_10

>  <geom_source>  (14) 
Heuristics

$$$$

     RDKit          3D

 23 22  0  0  0  0  0  0  0  0999 V2000
    1.0680    1.2076   -2.4150 C   0  0  0  0  0  0  0  0  0  0  0  0
    1.0680    1.2076   -0.8926 C   0  0  0  0  0  3  0  0  0  0  0  0
    2.4230    0.1912   -0.2090 S   0  0  0  0  0  0  0  0  0  0  0  0
    1.0680    2.6176   -0.3186 C   0  0  0  0  0  0  0  0  0  0  0  0
    1.0394    0.1933   -2.8116 H   0  0  0  0  0  0  0  0  0  0  0  0
    1.9664    1.6973   -2.7986 H   0  0  0  0  0  0  0  0  0  0  0  0
    0.2010    1.7550   -2.7938 H   0  0  0  0  0  0  0  0  0  0  0  0
    0.0001    0.5757   -0.4676 H   0  0  0  0  0  0  0  0  0  0  0  0
    3.4292    0.9267   -0.7037 H   0  0  0  0  0  0  0  0  0  0  0  0
    0.2010    3.1748   -0.6827 H   0  0  0  0  0  0  0  0  0  0  0  0
    1.9664    3.1575   -0.6275 H   0  0  0  0  0  0  0  0  0  0  0  0
    1.0394    2.6025    0.7704 H   0  0  0  0  0  0  0  0  0  0  0  0
   -1.0579   -0.0503   -0.0466 C   0  0  0  0  0  0  0  0  0  0  0  0
   -1.6384    0.3042    1.1625 C   0  0  0  0  0  0  0  0  0  0  0  0
   -2.2008   -0.6703    1.9741 C   0  0  0  0  0  0  0  0  0  0  0  0
   -2.1826   -1.9993    1.5766 C   0  0  0  0  0  0  0  0  0  0  0  0
   -1.6021   -2.3538    0.3675 C   0  0  0  0  0  0  0  0  0  0  0  0
   -1.0398   -1.3793   -0.4441 C   0  0  0  0  0  0  0  0  0  0  0  0
   -1.6526    1.3416    1.4728 H   0  0  0  0  0  0  0  0  0  0  0  0
   -2.6539   -0.3936    2.9178 H   0  0  0  0  0  0  0  0  0  0  0  0
   -2.6216   -2.7600    2.2101 H   0  0  0  0  0  0  0  0  0  0  0  0
   -1.5879   -3.3911    0.0572 H   0  0  0  0  0  0  0  0  0  0  0  0
   -0.5866   -1.6560   -1.3879 H   0  0  0  0  0  0  0  0  0  0  0  0
  1  2  1  0
  1  5  1  0
  1  6  1  0
  1  7  1  0
  2  4  1  0
  2  3  1  0
  3  9  1  0
  4 10  1  0
  4 11  1  0
  4 12  1  0
  8 13  1  0
 13 14  2  0
 13 18  1  0
 14 15  1  0
 14 19  1  0
 15 16  2  0
 15 20  1  0
 16 17  1  0
 16 21  1  0
 17 18  2  0
 17 22  1  0
 18 23  1  0
M  RAD  1   2   2
M  END
>  <reaction>  (15) 
rxn_1928

>  <mol_properties>  (15) 
{"1": {"label": "*1", "atom_type": "Cs"}, "2": {"label": "*0", "atom_type": "S2s"}, "7": {"label": "*2", "atom_type": "H0"}, "12": {"label": "*3", "atom_type": "Cd"}, "13": {"label": "*4", "atom_type": "Cd"}}

>  <type>  (15) 
unop_11

>  <geom_source>  (15) 
Heuristics

$$$$

     RDKit          3D

 23 22  0  0  0  0  0  0  0  0999 V2000
    1.3600    1.0499   -2.2285 C   0  0  0  0  0  0  0  0  0  0  0  0
    1.3600    1.0499   -0.7062 C   0  0  0  0  0  3  0  0  0  0  0  0
    2.7151    0.0335   -0.0225 S   0  0  0  0  0  0  0  0  0  0  0  0
    1.3600    2.4599   -0.1321 C   0  0  0  0  0  0  0  0  0  0  0  0
    1.3315    0.0357   -2.6251 H   0  0  0  0  0  0  0  0  0  0  0  0
    2.2585    1.5397   -2.6121 H   0  0  0  0  0  0  0  0  0  0  0  0
    0.4931    1.5973   -2.6073 H   0  0  0  0  0  0  0  0  0  0  0  0
    0.2922    0.4180   -0.2812 H   0  0  0  0  0  0  0  0  0  0  0  0
    3.7213    0.7690   -0.5172 H   0  0  0  0  0  0  0  0  0  0  0  0
    0.4931    3.0172   -0.4963 H   0  0  0  0  0  0  0  0  0  0  0  0
    2.2585    2.9998   -0.4410 H   0  0  0  0  0  0  0  0  0  0  0  0
    1.3315    2.4448    0.9568 H   0  0  0  0  0  0  0  0  0  0  0  0
   -0.7658   -0.2080    0.1399 C   0  0  0  0  0  0  0  0  0  0  0  0
   -1.6656   -0.7404   -0.7720 C   0  0  0  0  0  0  0  0  0  0  0  0
   -2.7951   -1.4087   -0.3225 C   0  0  0  0  0  0  0  0  0  0  0  0
   -3.0249   -1.5447    1.0389 C   0  0  0  0  0  0  0  0  0  0  0  0
   -2.1251   -1.0122    1.9507 C   0  0  0  0  0  0  0  0  0  0  0  0
   -0.9955   -0.3439    1.5012 C   0  0  0  0  0  0  0  0  0  0  0  0
   -1.4863   -0.6343   -1.8346 H   0  0  0  0  0  0  0  0  0  0  0  0
   -3.4975   -1.8243   -1.0342 H   0  0  0  0  0  0  0  0  0  0  0  0
   -3.9065   -2.0664    1.3898 H   0  0  0  0  0  0  0  0  0  0  0  0
   -2.3044   -1.1184    3.0134 H   0  0  0  0  0  0  0  0  0  0  0  0
   -0.2932    0.0717    2.2130 H   0  0  0  0  0  0  0  0  0  0  0  0
  1  2  1  0
  1  5  1  0
  1  6  1  0
  1  7  1  0
  2  4  1  0
  2  3  1  0
  3  9  1  0
  4 10  1  0
  4 11  1  0
  4 12  1  0
  8 13  1  0
 13 14  2  0
 13 18  1  0
 14 15  1  0
 14 19  1  0
 15 16  2  0
 15 20  1  0
 16 17  1  0
 16 21  1  0
 17 18  2  0
 17 22  1  0
 18 23  1  0
M  RAD  1   2   2
M  END
>  <reaction>  (16) 
rxn_1928

>  <mol_properties>  (16) 
{"1": {"label": "*1", "atom_type": "Cs"}, "2": {"label": "*0", "atom_type": "S2s"}, "7": {"label": "*2", "atom_type": "H0"}, "12": {"label": "*3", "atom_type": "Cd"}, "13": {"label": "*4", "atom_type": "Cd"}}

>  <type>  (16) 
unop_12

>  <geom_source>  (16) 
Heuristics

$$$$

     RDKit          3D

 23 22  0  0  0  0  0  0  0  0999 V2000
   -2.0586   -1.9826    0.5879 S   0  0  0  0  0  0  0  0  0  0  0  0
   -2.5637    0.7100    0.9530 C   0  0  0  0  0  0  0  0  0  0  0  0
   -1.9747   -0.0496   -1.3856 C   0  0  0  0  0  0  0  0  0  0  0  0
   -1.7335   -0.2527    0.1079 C   0  0  0  0  0  3  0  0  0  0  0  0
    1.4417   -0.9522   -0.5166 C   0  0  0  0  0  0  0  0  0  0  0  0
    2.8090   -0.8281   -0.7855 C   0  0  0  0  0  0  0  0  0  0  0  0
    0.8210   -0.0699    0.3737 C   0  0  0  0  0  0  0  0  0  0  0  0
    3.5554    0.1788   -0.1638 C   0  0  0  0  0  0  0  0  0  0  0  0
    1.5670    0.9368    0.9953 C   0  0  0  0  0  0  0  0  0  0  0  0
    2.9344    1.0613    0.7267 C   0  0  0  0  0  0  0  0  0  0  0  0
   -2.3408    0.5505    2.0287 H   0  0  0  0  0  0  0  0  0  0  0  0
   -3.6491    0.5495    0.7791 H   0  0  0  0  0  0  0  0  0  0  0  0
   -2.3052    1.7586    0.6952 H   0  0  0  0  0  0  0  0  0  0  0  0
   -3.0398   -0.2364   -1.6404 H   0  0  0  0  0  0  0  0  0  0  0  0
   -1.7086    0.9892   -1.6736 H   0  0  0  0  0  0  0  0  0  0  0  0
   -1.3348   -0.7469   -1.9657 H   0  0  0  0  0  0  0  0  0  0  0  0
    0.8633   -1.7306   -0.9968 H   0  0  0  0  0  0  0  0  0  0  0  0
    3.2893   -1.5108   -1.4744 H   0  0  0  0  0  0  0  0  0  0  0  0
   -0.3630   -0.1776    0.6064 H   0  0  0  0  0  0  0  0  0  0  0  0
    4.6132    0.2750   -0.3717 H   0  0  0  0  0  0  0  0  0  0  0  0
    1.0855    1.6187    1.6839 H   0  0  0  0  0  0  0  0  0  0  0  0
    3.5117    1.8403    1.2078 H   0  0  0  0  0  0  0  0  0  0  0  0
   -3.4195   -1.9312    0.2285 H   0  0  0  0  0  0  0  0  0  0  0  0
  1  4  1  0
  1 23  1  0
  2  4  1  0
  2 11  1  0
  2 12  1  0
  2 13  1  0
  3  4  1  0
  3 14  1  0
  3 15  1  0
  3 16  1  0
  5  6  2  0
  5  7  1  0
  5 17  1  0
  6  8  1  0
  6 18  1  0
  7  9  2  0
  7 19  1  0
  8 10  2  0
  8 20  1  0
  9 10  1  0
  9 21  1  0
 10 22  1  0
M  RAD  1   4   2
M  END
>  <reaction>  (17) 
rxn_1928

>  <mol_properties>  (17) 
{"1": {"label": "*1", "atom_type": "Cs"}, "2": {"label": "*0", "atom_type": "S2s"}, "7": {"label": "*2", "atom_type": "H0"}, "12": {"label": "*3", "atom_type": "Cd"}, "13": {"label": "*4", "atom_type": "Cd"}}

>  <type>  (17) 
unop_13

>  <geom_source>  (17) 
AutoTST

$$$$
