
     RDKit          3D

  2  1  0  0  0  0  0  0  0  0999 V2000
    0.0000    0.0000    0.3721 H   0  0  0  0  0  0  0  0  0  0  0  0
    0.0000    0.0000   -0.3721 H   0  0  0  0  0  0  0  0  0  0  0  0
  1  2  1  0
M  END
>  <reaction>  (1) 
rxn_72

>  <mol_properties>  (1) 
{"0": {"label": "donator", "atom_type": "H0"}, "1": {"label": "d_hydrogen", "atom_type": "H0"}}

>  <type>  (1) 
r1h

$$$$

     RDKit          3D

  1  0  0  0  0  0  0  0  0  0999 V2000
    0.0000    0.0000    0.0000 S   0  0  0  0  0 15  0  0  0  0  0  0
M  END
>  <reaction>  (2) 
rxn_72

>  <mol_properties>  (2) 
{"0": {"label": "acceptor", "atom_type": "S2s"}}

>  <type>  (2) 
r2

$$$$

     RDKit          3D

  2  1  0  0  0  0  0  0  0  0999 V2000
    0.0000    0.0000    0.6715 S   0  0  0  0  0  1  0  0  0  0  0  0
    0.0000    0.0000   -0.6715 H   0  0  0  0  0  0  0  0  0  0  0  0
  1  2  1  0
M  RAD  1   1   2
M  END
>  <reaction>  (3) 
rxn_72

>  <mol_properties>  (3) 
{"0": {"label": "a_hydrogen", "atom_type": "H0"}, "1": {"label": "acceptor", "atom_type": "S2s"}}

>  <type>  (3) 
r2h

$$$$

     RDKit          3D

  3  1  0  0  0  0  0  0  0  0999 V2000
    0.0000    0.0000   -2.6270 H   0  0  0  0  0 15  0  0  0  0  0  0
    0.0000    0.0000   -1.2572 H   0  0  0  0  0  0  0  0  0  0  0  0
    0.0000    0.0000    0.1345 S   0  0  0  0  0  1  0  0  0  0  0  0
  2  3  1  0
M  RAD  1   3   2
M  END
>  <reaction>  (4) 
rxn_72

>  <mol_properties>  (4) 
{"0": {"label": "*1", "atom_type": "H0"}, "1": {"label": "*2", "atom_type": "H0"}, "2": {"label": "*3", "atom_type": "S2s"}}

>  <type>  (4) 
ts

$$$$

     RDKit          3D

  3  1  0  0  0  0  0  0  0  0999 V2000
    0.0000    0.0000   -2.3824 H   0  0  0  0  0 15  0  0  0  0  0  0
    0.0000    0.0000   -1.4894 H   0  0  0  0  0  0  0  0  0  0  0  0
    0.0000    0.0000    0.1220 S   0  0  0  0  0  1  0  0  0  0  0  0
  2  3  1  0
M  RAD  1   3   2
M  END
>  <reaction>  (5) 
rxn_72

>  <mol_properties>  (5) 
{"0": {"label": "*1", "atom_type": "H0"}, "1": {"label": "*2", "atom_type": "H0"}, "2": {"label": "*3", "atom_type": "S2s"}}

>  <type>  (5) 
unop_1

>  <geom_source>  (5) 
Heuristics

$$$$
