
     RDKit          3D

  7  6  0  0  0  0  0  0  0  0999 V2000
   -0.6468   -0.0443   -0.0231 C   0  0  0  0  0  0  0  0  0  0  0  0
    0.8470    0.0371    0.0688 C   0  0  0  0  0  0  0  0  0  0  0  0
    1.4866   -0.2280    1.0479 O   0  0  0  0  0  0  0  0  0  0  0  0
   -1.0466    0.9363   -0.2943 H   0  0  0  0  0  0  0  0  0  0  0  0
   -0.9229   -0.7318   -0.8269 H   0  0  0  0  0  0  0  0  0  0  0  0
   -1.0759   -0.3772    0.9198 H   0  0  0  0  0  0  0  0  0  0  0  0
    1.3584    0.3712   -0.8589 H   0  0  0  0  0  0  0  0  0  0  0  0
  1  2  1  0
  1  4  1  0
  1  5  1  0
  1  6  1  0
  2  3  2  0
  2  7  1  0
M  END
>  <reaction>  (1) 
rxn_373

>  <mol_properties>  (1) 
{"1": {"label": "donator", "atom_type": "CO"}, "6": {"label": "d_hydrogen", "atom_type": "H0"}}

>  <type>  (1) 
r1h

$$$$

     RDKit          3D

  4  3  0  0  0  0  0  0  0  0999 V2000
    0.0000    0.0000    0.0000 C   0  0  0  0  0  3  0  0  0  0  0  0
    1.0638   -0.1747    0.0540 H   0  0  0  0  0  0  0  0  0  0  0  0
   -0.6833   -0.8351   -0.0280 H   0  0  0  0  0  0  0  0  0  0  0  0
   -0.3805    1.0098   -0.0260 H   0  0  0  0  0  0  0  0  0  0  0  0
  1  2  1  0
  1  3  1  0
  1  4  1  0
M  RAD  1   1   2
M  END
>  <reaction>  (2) 
rxn_373

>  <mol_properties>  (2) 
{"0": {"label": "acceptor", "atom_type": "Cs"}}

>  <type>  (2) 
r2

$$$$

     RDKit          3D

  5  4  0  0  0  0  0  0  0  0999 V2000
    0.0000    0.0000    0.0000 C   0  0  0  0  0  0  0  0  0  0  0  0
   -0.6486   -0.7720   -0.4113 H   0  0  0  0  0  0  0  0  0  0  0  0
   -0.3482    0.9787   -0.3267 H   0  0  0  0  0  0  0  0  0  0  0  0
   -0.0223   -0.0487    1.0876 H   0  0  0  0  0  0  0  0  0  0  0  0
    1.0191   -0.1580   -0.3496 H   0  0  0  0  0  0  0  0  0  0  0  0
  1  2  1  0
  1  3  1  0
  1  4  1  0
  1  5  1  0
M  END
>  <reaction>  (3) 
rxn_373

>  <mol_properties>  (3) 
{"0": {"label": "acceptor", "atom_type": "Cs"}, "4": {"label": "a_hydrogen", "atom_type": "H0"}}

>  <type>  (3) 
r2h

$$$$

     RDKit          3D

 11  9  0  0  0  0  0  0  0  0999 V2000
    0.0036   -1.9668    1.1448 C   0  0  0  0  0  3  0  0  0  0  0  0
    0.7118   -2.6156    0.6392 H   0  0  0  0  0  0  0  0  0  0  0  0
    0.2876   -1.6818    2.1522 H   0  0  0  0  0  0  0  0  0  0  0  0
   -1.0364   -2.2555    1.0301 H   0  0  0  0  0  0  0  0  0  0  0  0
   -0.1384    0.3637   -1.6364 C   0  0  0  0  0  0  0  0  0  0  0  0
    0.2046    0.4444   -0.1774 C   0  0  0  0  0  0  0  0  0  0  0  0
    0.5384    1.4170    0.4188 O   0  0  0  0  0  0  0  0  0  0  0  0
    0.5227   -0.3634   -2.1131 H   0  0  0  0  0  0  0  0  0  0  0  0
   -1.1569   -0.0173   -1.7374 H   0  0  0  0  0  0  0  0  0  0  0  0
   -0.0461    1.3358   -2.1191 H   0  0  0  0  0  0  0  0  0  0  0  0
    0.1091   -0.6718    0.4236 H   0  0  0  0  0  0  0  0  0  0  0  0
  1  2  1  0
  1  3  1  0
  1  4  1  0
  5  6  1  0
  5  8  1  0
  5  9  1  0
  5 10  1  0
  6  7  2  0
  6 11  1  0
M  RAD  1   1   2
M  END
>  <reaction>  (4) 
rxn_373

>  <mol_properties>  (4) 
{"0": {"label": "*3", "atom_type": "Cs"}, "1": {"label": "*4", "atom_type": "H0"}, "5": {"label": "*1", "atom_type": "CO"}, "6": {"label": "*0", "atom_type": "O2d"}, "10": {"label": "*2", "atom_type": "H0"}}

>  <type>  (4) 
ts

$$$$

     RDKit          3D

 11  9  0  0  0  0  0  0  0  0999 V2000
    0.0020   -2.0168    1.0201 C   0  0  0  0  0  0  0  0  0  0  0  0
    0.8911   -2.1279    1.6389 H   0  0  0  0  0  0  0  0  0  0  0  0
   -0.6834   -1.5063    1.6949 H   0  0  0  0  0  0  0  0  0  0  0  0
   -0.3173   -3.0499    0.8917 H   0  0  0  0  0  0  0  0  0  0  0  0
    0.0020    0.3738   -1.5978 C   0  0  0  0  0  0  0  0  0  0  0  0
    0.0020    0.3738   -0.0989 C   0  0  0  0  0  3  0  0  0  0  0  0
    0.0020    1.3594    0.5841 O   0  0  0  0  0  0  0  0  0  0  0  0
    0.8797   -0.1681   -1.9596 H   0  0  0  0  0  0  0  0  0  0  0  0
   -0.8757   -0.1682   -1.9596 H   0  0  0  0  0  0  0  0  0  0  0  0
    0.0019    1.3904   -1.9857 H   0  0  0  0  0  0  0  0  0  0  0  0
    0.0020   -0.8333    0.4661 H   0  0  0  0  0  0  0  0  0  0  0  0
  1  2  1  0
  1  3  1  0
  1  4  1  0
  1 11  1  0
  5  6  1  0
  5  8  1  0
  5  9  1  0
  5 10  1  0
  6  7  2  0
M  RAD  1   6   2
M  END
>  <reaction>  (5) 
rxn_373

>  <mol_properties>  (5) 
{"0": {"label": "*3", "atom_type": "Cs"}, "1": {"label": "*4", "atom_type": "H0"}, "5": {"label": "*1", "atom_type": "CO"}, "6": {"label": "*0", "atom_type": "O2d"}, "10": {"label": "*2", "atom_type": "H0"}}

>  <type>  (5) 
unop_1

>  <geom_source>  (5) 
Heuristics

$$$$

     RDKit          3D

 11  9  0  0  0  0  0  0  0  0999 V2000
   -0.0003   -2.0235    1.0330 C   0  0  0  0  0  0  0  0  0  0  0  0
    0.5131   -2.7291    0.3816 H   0  0  0  0  0  0  0  0  0  0  0  0
    0.5287   -1.4105    1.7612 H   0  0  0  0  0  0  0  0  0  0  0  0
   -1.0268   -2.1749    1.3634 H   0  0  0  0  0  0  0  0  0  0  0  0
   -0.0003    0.3672   -1.5848 C   0  0  0  0  0  0  0  0  0  0  0  0
   -0.0003    0.3672   -0.0860 C   0  0  0  0  0  3  0  0  0  0  0  0
   -0.0003    1.3528    0.5970 O   0  0  0  0  0  0  0  0  0  0  0  0
    0.8774   -0.1748   -1.9467 H   0  0  0  0  0  0  0  0  0  0  0  0
   -0.8780   -0.1748   -1.9467 H   0  0  0  0  0  0  0  0  0  0  0  0
   -0.0003    1.3837   -1.9728 H   0  0  0  0  0  0  0  0  0  0  0  0
   -0.0003   -0.8400    0.4790 H   0  0  0  0  0  0  0  0  0  0  0  0
  1  2  1  0
  1  3  1  0
  1  4  1  0
  1 11  1  0
  5  6  1  0
  5  8  1  0
  5  9  1  0
  5 10  1  0
  6  7  2  0
M  RAD  1   6   2
M  END
>  <reaction>  (6) 
rxn_373

>  <mol_properties>  (6) 
{"0": {"label": "*3", "atom_type": "Cs"}, "1": {"label": "*4", "atom_type": "H0"}, "5": {"label": "*1", "atom_type": "CO"}, "6": {"label": "*0", "atom_type": "O2d"}, "10": {"label": "*2", "atom_type": "H0"}}

>  <type>  (6) 
unop_2

>  <geom_source>  (6) 
Heuristics

$$$$

     RDKit          3D

 11  9  0  0  0  0  0  0  0  0999 V2000
    0.0040   -2.0121    1.0182 C   0  0  0  0  0  0  0  0  0  0  0  0
    0.5173   -1.9639    1.9773 H   0  0  0  0  0  0  0  0  0  0  0  0
   -0.9799   -1.9195    1.4755 H   0  0  0  0  0  0  0  0  0  0  0  0
    0.2420   -3.0655    0.8792 H   0  0  0  0  0  0  0  0  0  0  0  0
    0.0040    0.3786   -1.5997 C   0  0  0  0  0  0  0  0  0  0  0  0
    0.0040    0.3786   -0.1009 C   0  0  0  0  0  3  0  0  0  0  0  0
    0.0040    1.3642    0.5822 O   0  0  0  0  0  0  0  0  0  0  0  0
    0.8817   -0.1634   -1.9615 H   0  0  0  0  0  0  0  0  0  0  0  0
   -0.8737   -0.1634   -1.9615 H   0  0  0  0  0  0  0  0  0  0  0  0
    0.0039    1.3951   -1.9876 H   0  0  0  0  0  0  0  0  0  0  0  0
    0.0040   -0.8286    0.4642 H   0  0  0  0  0  0  0  0  0  0  0  0
  1  2  1  0
  1  3  1  0
  1  4  1  0
  1 11  1  0
  5  6  1  0
  5  8  1  0
  5  9  1  0
  5 10  1  0
  6  7  2  0
M  RAD  1   6   2
M  END
>  <reaction>  (7) 
rxn_373

>  <mol_properties>  (7) 
{"0": {"label": "*3", "atom_type": "Cs"}, "1": {"label": "*4", "atom_type": "H0"}, "5": {"label": "*1", "atom_type": "CO"}, "6": {"label": "*0", "atom_type": "O2d"}, "10": {"label": "*2", "atom_type": "H0"}}

>  <type>  (7) 
unop_3

>  <geom_source>  (7) 
Heuristics

$$$$

     RDKit          3D

 11  9  0  0  0  0  0  0  0  0999 V2000
    0.0009   -2.0216    1.0296 C   0  0  0  0  0  0  0  0  0  0  0  0
   -0.8882   -2.5679    0.7186 H   0  0  0  0  0  0  0  0  0  0  0  0
    0.9332   -2.5705    1.1532 H   0  0  0  0  0  0  0  0  0  0  0  0
   -0.0930   -1.2822    1.8235 H   0  0  0  0  0  0  0  0  0  0  0  0
    0.0009    0.3691   -1.5882 C   0  0  0  0  0  0  0  0  0  0  0  0
    0.0009    0.3691   -0.0894 C   0  0  0  0  0  3  0  0  0  0  0  0
    0.0009    1.3547    0.5936 O   0  0  0  0  0  0  0  0  0  0  0  0
    0.8786   -0.1729   -1.9501 H   0  0  0  0  0  0  0  0  0  0  0  0
   -0.8768   -0.1729   -1.9501 H   0  0  0  0  0  0  0  0  0  0  0  0
    0.0008    1.3856   -1.9762 H   0  0  0  0  0  0  0  0  0  0  0  0
    0.0009   -0.8381    0.4756 H   0  0  0  0  0  0  0  0  0  0  0  0
  1  2  1  0
  1  3  1  0
  1  4  1  0
  1 11  1  0
  5  6  1  0
  5  8  1  0
  5  9  1  0
  5 10  1  0
  6  7  2  0
M  RAD  1   6   2
M  END
>  <reaction>  (8) 
rxn_373

>  <mol_properties>  (8) 
{"0": {"label": "*3", "atom_type": "Cs"}, "1": {"label": "*4", "atom_type": "H0"}, "5": {"label": "*1", "atom_type": "CO"}, "6": {"label": "*0", "atom_type": "O2d"}, "10": {"label": "*2", "atom_type": "H0"}}

>  <type>  (8) 
unop_4

>  <geom_source>  (8) 
Heuristics

$$$$

     RDKit          3D

 11  9  0  0  0  0  0  0  0  0999 V2000
    0.0000   -2.0082    1.0186 C   0  0  0  0  0  0  0  0  0  0  0  0
    0.0000   -1.9017    2.1023 H   0  0  0  0  0  0  0  0  0  0  0  0
   -0.8891   -2.6311    1.1036 H   0  0  0  0  0  0  0  0  0  0  0  0
    0.8891   -2.6311    1.1036 H   0  0  0  0  0  0  0  0  0  0  0  0
   -0.0000    0.3825   -1.5993 C   0  0  0  0  0  0  0  0  0  0  0  0
   -0.0000    0.3825   -0.1005 C   0  0  0  0  0  3  0  0  0  0  0  0
   -0.0000    1.3681    0.5826 O   0  0  0  0  0  0  0  0  0  0  0  0
    0.8777   -0.1595   -1.9611 H   0  0  0  0  0  0  0  0  0  0  0  0
   -0.8777   -0.1595   -1.9611 H   0  0  0  0  0  0  0  0  0  0  0  0
   -0.0000    1.3990   -1.9872 H   0  0  0  0  0  0  0  0  0  0  0  0
    0.0000   -0.8247    0.4646 H   0  0  0  0  0  0  0  0  0  0  0  0
  1  2  1  0
  1  3  1  0
  1  4  1  0
  1 11  1  0
  5  6  1  0
  5  8  1  0
  5  9  1  0
  5 10  1  0
  6  7  2  0
M  RAD  1   6   2
M  END
>  <reaction>  (9) 
rxn_373

>  <mol_properties>  (9) 
{"0": {"label": "*3", "atom_type": "Cs"}, "1": {"label": "*4", "atom_type": "H0"}, "5": {"label": "*1", "atom_type": "CO"}, "6": {"label": "*0", "atom_type": "O2d"}, "10": {"label": "*2", "atom_type": "H0"}}

>  <type>  (9) 
unop_5

>  <geom_source>  (9) 
Heuristics

$$$$

     RDKit          3D

 11  9  0  0  0  0  0  0  0  0999 V2000
    0.0004   -2.0196    1.0246 C   0  0  0  0  0  0  0  0  0  0  0  0
   -1.0263   -2.3483    1.1785 H   0  0  0  0  0  0  0  0  0  0  0  0
    0.6890   -2.8626    0.9952 H   0  0  0  0  0  0  0  0  0  0  0  0
    0.3155   -1.3203    1.7977 H   0  0  0  0  0  0  0  0  0  0  0  0
    0.0004    0.3711   -1.5932 C   0  0  0  0  0  0  0  0  0  0  0  0
    0.0004    0.3711   -0.0944 C   0  0  0  0  0  3  0  0  0  0  0  0
    0.0004    1.3567    0.5887 O   0  0  0  0  0  0  0  0  0  0  0  0
    0.8781   -0.1709   -1.9550 H   0  0  0  0  0  0  0  0  0  0  0  0
   -0.8773   -0.1709   -1.9551 H   0  0  0  0  0  0  0  0  0  0  0  0
    0.0004    1.3876   -1.9811 H   0  0  0  0  0  0  0  0  0  0  0  0
    0.0004   -0.8361    0.4707 H   0  0  0  0  0  0  0  0  0  0  0  0
  1  2  1  0
  1  3  1  0
  1  4  1  0
  1 11  1  0
  5  6  1  0
  5  8  1  0
  5  9  1  0
  5 10  1  0
  6  7  2  0
M  RAD  1   6   2
M  END
>  <reaction>  (10) 
rxn_373

>  <mol_properties>  (10) 
{"0": {"label": "*3", "atom_type": "Cs"}, "1": {"label": "*4", "atom_type": "H0"}, "5": {"label": "*1", "atom_type": "CO"}, "6": {"label": "*0", "atom_type": "O2d"}, "10": {"label": "*2", "atom_type": "H0"}}

>  <type>  (10) 
unop_6

>  <geom_source>  (10) 
Heuristics

$$$$

     RDKit          3D

 11  9  0  0  0  0  0  0  0  0999 V2000
   -0.0020   -2.0168    1.0201 C   0  0  0  0  0  0  0  0  0  0  0  0
   -0.8911   -2.1279    1.6389 H   0  0  0  0  0  0  0  0  0  0  0  0
    0.3173   -3.0499    0.8917 H   0  0  0  0  0  0  0  0  0  0  0  0
    0.6834   -1.5063    1.6949 H   0  0  0  0  0  0  0  0  0  0  0  0
   -0.0020    0.3738   -1.5978 C   0  0  0  0  0  0  0  0  0  0  0  0
   -0.0020    0.3738   -0.0989 C   0  0  0  0  0  3  0  0  0  0  0  0
   -0.0020    1.3594    0.5841 O   0  0  0  0  0  0  0  0  0  0  0  0
    0.8757   -0.1681   -1.9596 H   0  0  0  0  0  0  0  0  0  0  0  0
   -0.8797   -0.1682   -1.9596 H   0  0  0  0  0  0  0  0  0  0  0  0
   -0.0020    1.3904   -1.9857 H   0  0  0  0  0  0  0  0  0  0  0  0
   -0.0020   -0.8333    0.4661 H   0  0  0  0  0  0  0  0  0  0  0  0
  1  2  1  0
  1  3  1  0
  1  4  1  0
  1 11  1  0
  5  6  1  0
  5  8  1  0
  5  9  1  0
  5 10  1  0
  6  7  2  0
M  RAD  1   6   2
M  END
>  <reaction>  (11) 
rxn_373

>  <mol_properties>  (11) 
{"0": {"label": "*3", "atom_type": "Cs"}, "1": {"label": "*4", "atom_type": "H0"}, "5": {"label": "*1", "atom_type": "CO"}, "6": {"label": "*0", "atom_type": "O2d"}, "10": {"label": "*2", "atom_type": "H0"}}

>  <type>  (11) 
unop_7

>  <geom_source>  (11) 
Heuristics

$$$$

     RDKit          3D

 11  9  0  0  0  0  0  0  0  0999 V2000
   -0.0004   -2.0196    1.0246 C   0  0  0  0  0  0  0  0  0  0  0  0
    1.0263   -2.3483    1.1785 H   0  0  0  0  0  0  0  0  0  0  0  0
   -0.3155   -1.3203    1.7977 H   0  0  0  0  0  0  0  0  0  0  0  0
   -0.6890   -2.8626    0.9952 H   0  0  0  0  0  0  0  0  0  0  0  0
   -0.0004    0.3711   -1.5932 C   0  0  0  0  0  0  0  0  0  0  0  0
   -0.0004    0.3711   -0.0944 C   0  0  0  0  0  3  0  0  0  0  0  0
   -0.0004    1.3567    0.5887 O   0  0  0  0  0  0  0  0  0  0  0  0
    0.8773   -0.1709   -1.9550 H   0  0  0  0  0  0  0  0  0  0  0  0
   -0.8781   -0.1709   -1.9551 H   0  0  0  0  0  0  0  0  0  0  0  0
   -0.0004    1.3876   -1.9811 H   0  0  0  0  0  0  0  0  0  0  0  0
   -0.0004   -0.8361    0.4707 H   0  0  0  0  0  0  0  0  0  0  0  0
  1  2  1  0
  1  3  1  0
  1  4  1  0
  1 11  1  0
  5  6  1  0
  5  8  1  0
  5  9  1  0
  5 10  1  0
  6  7  2  0
M  RAD  1   6   2
M  END
>  <reaction>  (12) 
rxn_373

>  <mol_properties>  (12) 
{"0": {"label": "*3", "atom_type": "Cs"}, "1": {"label": "*4", "atom_type": "H0"}, "5": {"label": "*1", "atom_type": "CO"}, "6": {"label": "*0", "atom_type": "O2d"}, "10": {"label": "*2", "atom_type": "H0"}}

>  <type>  (12) 
unop_8

>  <geom_source>  (12) 
Heuristics

$$$$

     RDKit          3D

 11  9  0  0  0  0  0  0  0  0999 V2000
    0.0003   -2.0235    1.0330 C   0  0  0  0  0  0  0  0  0  0  0  0
   -0.5131   -2.7291    0.3816 H   0  0  0  0  0  0  0  0  0  0  0  0
    1.0268   -2.1749    1.3634 H   0  0  0  0  0  0  0  0  0  0  0  0
   -0.5287   -1.4105    1.7612 H   0  0  0  0  0  0  0  0  0  0  0  0
    0.0003    0.3672   -1.5848 C   0  0  0  0  0  0  0  0  0  0  0  0
    0.0003    0.3672   -0.0860 C   0  0  0  0  0  3  0  0  0  0  0  0
    0.0003    1.3528    0.5970 O   0  0  0  0  0  0  0  0  0  0  0  0
    0.8780   -0.1748   -1.9467 H   0  0  0  0  0  0  0  0  0  0  0  0
   -0.8774   -0.1748   -1.9467 H   0  0  0  0  0  0  0  0  0  0  0  0
    0.0002    1.3837   -1.9728 H   0  0  0  0  0  0  0  0  0  0  0  0
    0.0003   -0.8400    0.4790 H   0  0  0  0  0  0  0  0  0  0  0  0
  1  2  1  0
  1  3  1  0
  1  4  1  0
  1 11  1  0
  5  6  1  0
  5  8  1  0
  5  9  1  0
  5 10  1  0
  6  7  2  0
M  RAD  1   6   2
M  END
>  <reaction>  (13) 
rxn_373

>  <mol_properties>  (13) 
{"0": {"label": "*3", "atom_type": "Cs"}, "1": {"label": "*4", "atom_type": "H0"}, "5": {"label": "*1", "atom_type": "CO"}, "6": {"label": "*0", "atom_type": "O2d"}, "10": {"label": "*2", "atom_type": "H0"}}

>  <type>  (13) 
unop_9

>  <geom_source>  (13) 
Heuristics

$$$$

     RDKit          3D

 11  9  0  0  0  0  0  0  0  0999 V2000
   -0.0009   -2.0216    1.0296 C   0  0  0  0  0  0  0  0  0  0  0  0
    0.8882   -2.5679    0.7186 H   0  0  0  0  0  0  0  0  0  0  0  0
    0.0930   -1.2822    1.8235 H   0  0  0  0  0  0  0  0  0  0  0  0
   -0.9332   -2.5705    1.1532 H   0  0  0  0  0  0  0  0  0  0  0  0
   -0.0009    0.3691   -1.5882 C   0  0  0  0  0  0  0  0  0  0  0  0
   -0.0009    0.3691   -0.0894 C   0  0  0  0  0  3  0  0  0  0  0  0
   -0.0009    1.3547    0.5936 O   0  0  0  0  0  0  0  0  0  0  0  0
    0.8769   -0.1729   -1.9501 H   0  0  0  0  0  0  0  0  0  0  0  0
   -0.8786   -0.1729   -1.9501 H   0  0  0  0  0  0  0  0  0  0  0  0
   -0.0009    1.3856   -1.9762 H   0  0  0  0  0  0  0  0  0  0  0  0
   -0.0009   -0.8381    0.4756 H   0  0  0  0  0  0  0  0  0  0  0  0
  1  2  1  0
  1  3  1  0
  1  4  1  0
  1 11  1  0
  5  6  1  0
  5  8  1  0
  5  9  1  0
  5 10  1  0
  6  7  2  0
M  RAD  1   6   2
M  END
>  <reaction>  (14) 
rxn_373

>  <mol_properties>  (14) 
{"0": {"label": "*3", "atom_type": "Cs"}, "1": {"label": "*4", "atom_type": "H0"}, "5": {"label": "*1", "atom_type": "CO"}, "6": {"label": "*0", "atom_type": "O2d"}, "10": {"label": "*2", "atom_type": "H0"}}

>  <type>  (14) 
unop_10

>  <geom_source>  (14) 
Heuristics

$$$$

     RDKit          3D

 11  9  0  0  0  0  0  0  0  0999 V2000
   -0.0040   -2.0121    1.0182 C   0  0  0  0  0  0  0  0  0  0  0  0
   -0.5173   -1.9639    1.9773 H   0  0  0  0  0  0  0  0  0  0  0  0
   -0.2419   -3.0655    0.8792 H   0  0  0  0  0  0  0  0  0  0  0  0
    0.9799   -1.9195    1.4755 H   0  0  0  0  0  0  0  0  0  0  0  0
   -0.0040    0.3786   -1.5997 C   0  0  0  0  0  0  0  0  0  0  0  0
   -0.0040    0.3786   -0.1009 C   0  0  0  0  0  3  0  0  0  0  0  0
   -0.0040    1.3642    0.5822 O   0  0  0  0  0  0  0  0  0  0  0  0
    0.8737   -0.1634   -1.9615 H   0  0  0  0  0  0  0  0  0  0  0  0
   -0.8817   -0.1634   -1.9615 H   0  0  0  0  0  0  0  0  0  0  0  0
   -0.0040    1.3951   -1.9876 H   0  0  0  0  0  0  0  0  0  0  0  0
   -0.0040   -0.8286    0.4642 H   0  0  0  0  0  0  0  0  0  0  0  0
  1  2  1  0
  1  3  1  0
  1  4  1  0
  1 11  1  0
  5  6  1  0
  5  8  1  0
  5  9  1  0
  5 10  1  0
  6  7  2  0
M  RAD  1   6   2
M  END
>  <reaction>  (15) 
rxn_373

>  <mol_properties>  (15) 
{"0": {"label": "*3", "atom_type": "Cs"}, "1": {"label": "*4", "atom_type": "H0"}, "5": {"label": "*1", "atom_type": "CO"}, "6": {"label": "*0", "atom_type": "O2d"}, "10": {"label": "*2", "atom_type": "H0"}}

>  <type>  (15) 
unop_11

>  <geom_source>  (15) 
Heuristics

$$$$

     RDKit          3D

 11  9  0  0  0  0  0  0  0  0999 V2000
    0.0000   -2.0244    1.0341 C   0  0  0  0  0  0  0  0  0  0  0  0
    0.0000   -2.7884    0.2582 H   0  0  0  0  0  0  0  0  0  0  0  0
    0.8891   -1.7366    1.5931 H   0  0  0  0  0  0  0  0  0  0  0  0
   -0.8891   -1.7366    1.5931 H   0  0  0  0  0  0  0  0  0  0  0  0
   -0.0000    0.3662   -1.5837 C   0  0  0  0  0  0  0  0  0  0  0  0
   -0.0000    0.3662   -0.0849 C   0  0  0  0  0  3  0  0  0  0  0  0
   -0.0000    1.3518    0.5981 O   0  0  0  0  0  0  0  0  0  0  0  0
    0.8777   -0.1757   -1.9456 H   0  0  0  0  0  0  0  0  0  0  0  0
   -0.8777   -0.1758   -1.9456 H   0  0  0  0  0  0  0  0  0  0  0  0
   -0.0000    1.3828   -1.9716 H   0  0  0  0  0  0  0  0  0  0  0  0
    0.0000   -0.8409    0.4802 H   0  0  0  0  0  0  0  0  0  0  0  0
  1  2  1  0
  1  3  1  0
  1  4  1  0
  1 11  1  0
  5  6  1  0
  5  8  1  0
  5  9  1  0
  5 10  1  0
  6  7  2  0
M  RAD  1   6   2
M  END
>  <reaction>  (16) 
rxn_373

>  <mol_properties>  (16) 
{"0": {"label": "*3", "atom_type": "Cs"}, "1": {"label": "*4", "atom_type": "H0"}, "5": {"label": "*1", "atom_type": "CO"}, "6": {"label": "*0", "atom_type": "O2d"}, "10": {"label": "*2", "atom_type": "H0"}}

>  <type>  (16) 
unop_12

>  <geom_source>  (16) 
Heuristics

$$$$

     RDKit          3D

 11  9  0  0  0  0  0  0  0  0999 V2000
   -0.7654    1.2511    1.4203 O   0  0  0  0  0  0  0  0  0  0  0  0
   -1.7425   -0.1990   -0.1595 C   0  0  0  0  0  0  0  0  0  0  0  0
    1.8685   -0.1025   -0.1585 C   0  0  0  0  0  0  0  0  0  0  0  0
   -0.5903    0.5147    0.4632 C   0  0  0  0  0  3  0  0  0  0  0  0
   -2.4836    0.5376   -0.5342 H   0  0  0  0  0  0  0  0  0  0  0  0
   -1.3777   -0.8133   -1.0082 H   0  0  0  0  0  0  0  0  0  0  0  0
   -2.2244   -0.8615    0.5898 H   0  0  0  0  0  0  0  0  0  0  0  0
    0.7341    0.4917   -0.0067 H   0  0  0  0  0  0  0  0  0  0  0  0
    1.7176   -1.0515   -0.7130 H   0  0  0  0  0  0  0  0  0  0  0  0
    2.5564    0.5542   -0.7297 H   0  0  0  0  0  0  0  0  0  0  0  0
    2.3074   -0.3215    0.8366 H   0  0  0  0  0  0  0  0  0  0  0  0
  1  4  2  0
  2  4  1  0
  2  5  1  0
  2  6  1  0
  2  7  1  0
  3  8  1  0
  3  9  1  0
  3 10  1  0
  3 11  1  0
M  RAD  1   4   2
M  END
>  <reaction>  (17) 
rxn_373

>  <mol_properties>  (17) 
{"0": {"label": "*3", "atom_type": "Cs"}, "1": {"label": "*4", "atom_type": "H0"}, "5": {"label": "*1", "atom_type": "CO"}, "6": {"label": "*0", "atom_type": "O2d"}, "10": {"label": "*2", "atom_type": "H0"}}

>  <type>  (17) 
unop_13

>  <geom_source>  (17) 
AutoTST

$$$$
