
     RDKit          3D

  9  8  0  0  0  0  0  0  0  0999 V2000
    1.1303   -0.2933   -0.7510 C   0  0  0  0  0  0  0  0  0  0  0  0
    0.2866    0.4560   -0.0588 C   0  0  0  0  0  0  0  0  0  0  0  0
   -0.9719   -0.0331    0.5823 C   0  0  0  0  0  0  0  0  0  0  0  0
    2.0274    0.1230   -1.1916 H   0  0  0  0  0  0  0  0  0  0  0  0
    0.9532   -1.3530   -0.9023 H   0  0  0  0  0  0  0  0  0  0  0  0
    0.5065    1.5132    0.0659 H   0  0  0  0  0  0  0  0  0  0  0  0
   -0.9526    0.1426    1.6610 H   0  0  0  0  0  0  0  0  0  0  0  0
   -1.1182   -1.1002    0.4106 H   0  0  0  0  0  0  0  0  0  0  0  0
   -1.8412    0.5010    0.1901 H   0  0  0  0  0  0  0  0  0  0  0  0
  1  2  2  3
  1  4  1  0
  1  5  1  0
  2  3  1  0
  2  6  1  0
  3  7  1  0
  3  8  1  0
  3  9  1  0
M  END
>  <reaction>  (1) 
rxn_348

>  <mol_properties>  (1) 
{"1": {"label": "donator", "atom_type": "Cd"}, "5": {"label": "d_hydrogen", "atom_type": "H0"}}

>  <type>  (1) 
r1h

$$$$

     RDKit          3D

  5  4  0  0  0  0  0  0  0  0999 V2000
    0.0397    0.7134    0.0000 C   0  0  0  0  0  3  0  0  0  0  0  0
    0.0458   -0.5870    0.0000 C   0  0  0  0  0  0  0  0  0  0  0  0
   -0.6871    1.5118    0.0000 H   0  0  0  0  0  0  0  0  0  0  0  0
   -0.8806   -1.1637    0.0000 H   0  0  0  0  0  0  0  0  0  0  0  0
    0.9690   -1.1600    0.0000 H   0  0  0  0  0  0  0  0  0  0  0  0
  1  2  2  3
  1  3  1  0
  2  4  1  0
  2  5  1  0
M  RAD  1   1   2
M  END
>  <reaction>  (2) 
rxn_348

>  <mol_properties>  (2) 
{"0": {"label": "acceptor", "atom_type": "Cd"}}

>  <type>  (2) 
r2

$$$$

     RDKit          3D

  6  5  0  0  0  0  0  0  0  0999 V2000
    0.6594    0.0438   -0.0050 C   0  0  0  0  0  0  0  0  0  0  0  0
   -0.6594   -0.0438    0.0050 C   0  0  0  0  0  0  0  0  0  0  0  0
    1.1706    0.8681   -0.4881 H   0  0  0  0  0  0  0  0  0  0  0  0
    1.2824   -0.7051    0.4696 H   0  0  0  0  0  0  0  0  0  0  0  0
   -1.2824    0.7051   -0.4696 H   0  0  0  0  0  0  0  0  0  0  0  0
   -1.1706   -0.8681    0.4881 H   0  0  0  0  0  0  0  0  0  0  0  0
  1  2  2  3
  1  3  1  0
  1  4  1  0
  2  5  1  0
  2  6  1  0
M  END
>  <reaction>  (3) 
rxn_348

>  <mol_properties>  (3) 
{"0": {"label": "acceptor", "atom_type": "Cd"}, "5": {"label": "a_hydrogen", "atom_type": "H0"}}

>  <type>  (3) 
r2h

$$$$

     RDKit          3D

 14 12  0  0  0  0  0  0  0  0999 V2000
   -0.2874   -1.4717    0.9214 C   0  0  0  0  0  3  0  0  0  0  0  0
    0.6713   -2.2903    0.5542 C   0  0  0  0  0  0  0  0  0  0  0  0
   -1.0865   -1.6605    1.6291 H   0  0  0  0  0  0  0  0  0  0  0  0
    0.7550   -3.2976    0.9549 H   0  0  0  0  0  0  0  0  0  0  0  0
    1.4225   -1.9898   -0.1700 H   0  0  0  0  0  0  0  0  0  0  0  0
   -0.3823    0.7601   -1.6320 C   0  0  0  0  0  0  0  0  0  0  0  0
   -0.2090    0.8691   -0.3324 C   0  0  0  0  0  0  0  0  0  0  0  0
    0.0956    2.0553    0.5048 C   0  0  0  0  0  0  0  0  0  0  0  0
   -0.6018   -0.1956   -2.0943 H   0  0  0  0  0  0  0  0  0  0  0  0
   -0.3136    1.6242   -2.2897 H   0  0  0  0  0  0  0  0  0  0  0  0
   -0.2979   -0.2463    0.3338 H   0  0  0  0  0  0  0  0  0  0  0  0
   -0.6874    2.2170    1.2495 H   0  0  0  0  0  0  0  0  0  0  0  0
    0.1817    2.9580   -0.1063 H   0  0  0  0  0  0  0  0  0  0  0  0
    1.0325    1.9146    1.0487 H   0  0  0  0  0  0  0  0  0  0  0  0
  1  2  2  3
  1  3  1  0
  2  4  1  0
  2  5  1  0
  6  7  2  3
  6  9  1  0
  6 10  1  0
  7  8  1  0
  7 11  1  0
  8 12  1  0
  8 13  1  0
  8 14  1  0
M  RAD  1   1   2
M  END
>  <reaction>  (4) 
rxn_348

>  <mol_properties>  (4) 
{"0": {"label": "*3", "atom_type": "Cd"}, "1": {"label": "*4", "atom_type": "Cd"}, "5": {"label": "*0", "atom_type": "Cd"}, "6": {"label": "*1", "atom_type": "Cd"}, "10": {"label": "*2", "atom_type": "H0"}}

>  <type>  (4) 
ts

$$$$

     RDKit          3D

 14 12  0  0  0  0  0  0  0  0999 V2000
   -0.1948   -1.5780    0.6602 C   0  0  0  0  0  0  0  0  0  0  0  0
    0.7798   -1.9146    1.4872 C   0  0  0  0  0  0  0  0  0  0  0  0
   -1.2367   -1.7199    0.9219 H   0  0  0  0  0  0  0  0  0  0  0  0
    0.5760   -2.3460    2.4602 H   0  0  0  0  0  0  0  0  0  0  0  0
    1.8217   -1.7727    1.2256 H   0  0  0  0  0  0  0  0  0  0  0  0
   -0.1948    0.7047   -1.9180 C   0  0  0  0  0  0  0  0  0  0  0  0
   -0.1948    0.7047   -0.5943 C   0  0  0  0  0  3  0  0  0  0  0  0
   -0.1948    1.9269    0.2663 C   0  0  0  0  0  0  0  0  0  0  0  0
   -0.1948   -0.2180   -2.4845 H   0  0  0  0  0  0  0  0  0  0  0  0
   -0.1948    1.6303   -2.4840 H   0  0  0  0  0  0  0  0  0  0  0  0
   -0.1948   -0.4384    0.0340 H   0  0  0  0  0  0  0  0  0  0  0  0
   -1.0725    1.9440    0.9175 H   0  0  0  0  0  0  0  0  0  0  0  0
   -0.1948    2.8374   -0.3343 H   0  0  0  0  0  0  0  0  0  0  0  0
    0.6829    1.9440    0.9175 H   0  0  0  0  0  0  0  0  0  0  0  0
  1  2  2  3
  1  3  1  0
  1 11  1  0
  2  4  1  0
  2  5  1  0
  6  7  2  3
  6  9  1  0
  6 10  1  0
  7  8  1  0
  8 12  1  0
  8 13  1  0
  8 14  1  0
M  RAD  1   7   2
M  END
>  <reaction>  (5) 
rxn_348

>  <mol_properties>  (5) 
{"0": {"label": "*3", "atom_type": "Cd"}, "1": {"label": "*4", "atom_type": "Cd"}, "5": {"label": "*0", "atom_type": "Cd"}, "6": {"label": "*1", "atom_type": "Cd"}, "10": {"label": "*2", "atom_type": "H0"}}

>  <type>  (5) 
unop_1

>  <geom_source>  (5) 
Heuristics

$$$$

     RDKit          3D

 14 12  0  0  0  0  0  0  0  0999 V2000
   -0.1179   -1.4216    0.9389 C   0  0  0  0  0  0  0  0  0  0  0  0
    0.4448   -2.4985    0.4187 C   0  0  0  0  0  0  0  0  0  0  0  0
   -0.3466   -1.3540    1.9959 H   0  0  0  0  0  0  0  0  0  0  0  0
    0.7000   -3.3572    1.0284 H   0  0  0  0  0  0  0  0  0  0  0  0
    0.6735   -2.5660   -0.6383 H   0  0  0  0  0  0  0  0  0  0  0  0
   -0.1179    0.8612   -1.6394 C   0  0  0  0  0  0  0  0  0  0  0  0
   -0.1179    0.8612   -0.3156 C   0  0  0  0  0  3  0  0  0  0  0  0
   -0.1179    2.0834    0.5449 C   0  0  0  0  0  0  0  0  0  0  0  0
   -0.1179   -0.0615   -2.2058 H   0  0  0  0  0  0  0  0  0  0  0  0
   -0.1179    1.7868   -2.2054 H   0  0  0  0  0  0  0  0  0  0  0  0
   -0.1179   -0.2820    0.3126 H   0  0  0  0  0  0  0  0  0  0  0  0
   -0.9956    2.1005    1.1961 H   0  0  0  0  0  0  0  0  0  0  0  0
   -0.1179    2.9938   -0.0557 H   0  0  0  0  0  0  0  0  0  0  0  0
    0.7598    2.1005    1.1961 H   0  0  0  0  0  0  0  0  0  0  0  0
  1  2  2  3
  1  3  1  0
  1 11  1  0
  2  4  1  0
  2  5  1  0
  6  7  2  3
  6  9  1  0
  6 10  1  0
  7  8  1  0
  8 12  1  0
  8 13  1  0
  8 14  1  0
M  RAD  1   7   2
M  END
>  <reaction>  (6) 
rxn_348

>  <mol_properties>  (6) 
{"0": {"label": "*3", "atom_type": "Cd"}, "1": {"label": "*4", "atom_type": "Cd"}, "5": {"label": "*0", "atom_type": "Cd"}, "6": {"label": "*1", "atom_type": "Cd"}, "10": {"label": "*2", "atom_type": "H0"}}

>  <type>  (6) 
unop_2

>  <geom_source>  (6) 
Heuristics

$$$$

     RDKit          3D

 14 12  0  0  0  0  0  0  0  0999 V2000
   -0.1078   -1.6154    0.5900 C   0  0  0  0  0  0  0  0  0  0  0  0
    0.4548   -1.7536    1.7780 C   0  0  0  0  0  0  0  0  0  0  0  0
   -1.0277   -2.1276    0.3337 H   0  0  0  0  0  0  0  0  0  0  0  0
    0.0189   -2.3847    2.5434 H   0  0  0  0  0  0  0  0  0  0  0  0
    1.3747   -1.2414    2.0343 H   0  0  0  0  0  0  0  0  0  0  0  0
   -0.1078    0.6674   -1.9882 C   0  0  0  0  0  0  0  0  0  0  0  0
   -0.1078    0.6674   -0.6645 C   0  0  0  0  0  3  0  0  0  0  0  0
   -0.1078    1.8896    0.1960 C   0  0  0  0  0  0  0  0  0  0  0  0
   -0.1078   -0.2553   -2.5547 H   0  0  0  0  0  0  0  0  0  0  0  0
   -0.1078    1.5930   -2.5542 H   0  0  0  0  0  0  0  0  0  0  0  0
   -0.1078   -0.4758   -0.0363 H   0  0  0  0  0  0  0  0  0  0  0  0
   -0.9855    1.9067    0.8472 H   0  0  0  0  0  0  0  0  0  0  0  0
   -0.1078    2.8000   -0.4046 H   0  0  0  0  0  0  0  0  0  0  0  0
    0.7699    1.9067    0.8472 H   0  0  0  0  0  0  0  0  0  0  0  0
  1  2  2  3
  1  3  1  0
  1 11  1  0
  2  4  1  0
  2  5  1  0
  6  7  2  3
  6  9  1  0
  6 10  1  0
  7  8  1  0
  8 12  1  0
  8 13  1  0
  8 14  1  0
M  RAD  1   7   2
M  END
>  <reaction>  (7) 
rxn_348

>  <mol_properties>  (7) 
{"0": {"label": "*3", "atom_type": "Cd"}, "1": {"label": "*4", "atom_type": "Cd"}, "5": {"label": "*0", "atom_type": "Cd"}, "6": {"label": "*1", "atom_type": "Cd"}, "10": {"label": "*2", "atom_type": "H0"}}

>  <type>  (7) 
unop_3

>  <geom_source>  (7) 
Heuristics

$$$$

     RDKit          3D

 14 12  0  0  0  0  0  0  0  0999 V2000
    0.2023   -1.4648    0.8628 C   0  0  0  0  0  0  0  0  0  0  0  0
   -0.7722   -2.3433    0.7036 C   0  0  0  0  0  0  0  0  0  0  0  0
    0.7290   -1.3646    1.8045 H   0  0  0  0  0  0  0  0  0  0  0  0
   -1.0837   -2.9988    1.5084 H   0  0  0  0  0  0  0  0  0  0  0  0
   -1.2990   -2.4435   -0.2381 H   0  0  0  0  0  0  0  0  0  0  0  0
    0.2023    0.8180   -1.7154 C   0  0  0  0  0  0  0  0  0  0  0  0
    0.2023    0.8180   -0.3917 C   0  0  0  0  0  3  0  0  0  0  0  0
    0.2023    2.0402    0.4688 C   0  0  0  0  0  0  0  0  0  0  0  0
    0.2023   -0.1048   -2.2819 H   0  0  0  0  0  0  0  0  0  0  0  0
    0.2023    1.7436   -2.2814 H   0  0  0  0  0  0  0  0  0  0  0  0
    0.2023   -0.3252    0.2365 H   0  0  0  0  0  0  0  0  0  0  0  0
   -0.6754    2.0573    1.1200 H   0  0  0  0  0  0  0  0  0  0  0  0
    0.2023    2.9506   -0.1318 H   0  0  0  0  0  0  0  0  0  0  0  0
    1.0800    2.0573    1.1200 H   0  0  0  0  0  0  0  0  0  0  0  0
  1  2  2  3
  1  3  1  0
  1 11  1  0
  2  4  1  0
  2  5  1  0
  6  7  2  3
  6  9  1  0
  6 10  1  0
  7  8  1  0
  8 12  1  0
  8 13  1  0
  8 14  1  0
M  RAD  1   7   2
M  END
>  <reaction>  (8) 
rxn_348

>  <mol_properties>  (8) 
{"0": {"label": "*3", "atom_type": "Cd"}, "1": {"label": "*4", "atom_type": "Cd"}, "5": {"label": "*0", "atom_type": "Cd"}, "6": {"label": "*1", "atom_type": "Cd"}, "10": {"label": "*2", "atom_type": "H0"}}

>  <type>  (8) 
unop_4

>  <geom_source>  (8) 
Heuristics

$$$$

     RDKit          3D

 14 12  0  0  0  0  0  0  0  0999 V2000
    0.0000   -1.6254    0.5668 C   0  0  0  0  0  0  0  0  0  0  0  0
    0.0000   -1.6911    1.8868 C   0  0  0  0  0  0  0  0  0  0  0  0
    0.0000   -2.5187   -0.0467 H   0  0  0  0  0  0  0  0  0  0  0  0
    0.0000   -2.6407    2.4087 H   0  0  0  0  0  0  0  0  0  0  0  0
    0.0000   -0.7978    2.5003 H   0  0  0  0  0  0  0  0  0  0  0  0
   -0.0000    0.6573   -2.0115 C   0  0  0  0  0  0  0  0  0  0  0  0
   -0.0000    0.6573   -0.6877 C   0  0  0  0  0  3  0  0  0  0  0  0
   -0.0000    1.8795    0.1728 C   0  0  0  0  0  0  0  0  0  0  0  0
   -0.0000   -0.2654   -2.5780 H   0  0  0  0  0  0  0  0  0  0  0  0
   -0.0000    1.5829   -2.5775 H   0  0  0  0  0  0  0  0  0  0  0  0
    0.0000   -0.4859   -0.0595 H   0  0  0  0  0  0  0  0  0  0  0  0
   -0.8777    1.8966    0.8240 H   0  0  0  0  0  0  0  0  0  0  0  0
   -0.0000    2.7899   -0.4278 H   0  0  0  0  0  0  0  0  0  0  0  0
    0.8777    1.8966    0.8240 H   0  0  0  0  0  0  0  0  0  0  0  0
  1  2  2  3
  1  3  1  0
  1 11  1  0
  2  4  1  0
  2  5  1  0
  6  7  2  3
  6  9  1  0
  6 10  1  0
  7  8  1  0
  8 12  1  0
  8 13  1  0
  8 14  1  0
M  RAD  1   7   2
M  END
>  <reaction>  (9) 
rxn_348

>  <mol_properties>  (9) 
{"0": {"label": "*3", "atom_type": "Cd"}, "1": {"label": "*4", "atom_type": "Cd"}, "5": {"label": "*0", "atom_type": "Cd"}, "6": {"label": "*1", "atom_type": "Cd"}, "10": {"label": "*2", "atom_type": "H0"}}

>  <type>  (9) 
unop_5

>  <geom_source>  (9) 
Heuristics

$$$$

     RDKit          3D

 14 12  0  0  0  0  0  0  0  0999 V2000
    0.2302   -1.5224    0.7604 C   0  0  0  0  0  0  0  0  0  0  0  0
   -0.8951   -2.1300    1.0943 C   0  0  0  0  0  0  0  0  0  0  0  0
    1.0732   -1.4741    1.4395 H   0  0  0  0  0  0  0  0  0  0  0  0
   -1.0199   -2.6043    2.0606 H   0  0  0  0  0  0  0  0  0  0  0  0
   -1.7382   -2.1783    0.4152 H   0  0  0  0  0  0  0  0  0  0  0  0
    0.2302    0.7603   -1.8179 C   0  0  0  0  0  0  0  0  0  0  0  0
    0.2302    0.7603   -0.4941 C   0  0  0  0  0  3  0  0  0  0  0  0
    0.2302    1.9825    0.3664 C   0  0  0  0  0  0  0  0  0  0  0  0
    0.2302   -0.1624   -2.3843 H   0  0  0  0  0  0  0  0  0  0  0  0
    0.2302    1.6859   -2.3839 H   0  0  0  0  0  0  0  0  0  0  0  0
    0.2302   -0.3828    0.1341 H   0  0  0  0  0  0  0  0  0  0  0  0
   -0.6475    1.9996    1.0176 H   0  0  0  0  0  0  0  0  0  0  0  0
    0.2302    2.8930   -0.2342 H   0  0  0  0  0  0  0  0  0  0  0  0
    1.1079    1.9996    1.0176 H   0  0  0  0  0  0  0  0  0  0  0  0
  1  2  2  3
  1  3  1  0
  1 11  1  0
  2  4  1  0
  2  5  1  0
  6  7  2  3
  6  9  1  0
  6 10  1  0
  7  8  1  0
  8 12  1  0
  8 13  1  0
  8 14  1  0
M  RAD  1   7   2
M  END
>  <reaction>  (10) 
rxn_348

>  <mol_properties>  (10) 
{"0": {"label": "*3", "atom_type": "Cd"}, "1": {"label": "*4", "atom_type": "Cd"}, "5": {"label": "*0", "atom_type": "Cd"}, "6": {"label": "*1", "atom_type": "Cd"}, "10": {"label": "*2", "atom_type": "H0"}}

>  <type>  (10) 
unop_6

>  <geom_source>  (10) 
Heuristics

$$$$

     RDKit          3D

 14 12  0  0  0  0  0  0  0  0999 V2000
    0.1948   -1.5780    0.6602 C   0  0  0  0  0  0  0  0  0  0  0  0
   -0.7798   -1.9146    1.4872 C   0  0  0  0  0  0  0  0  0  0  0  0
    1.2367   -1.7199    0.9219 H   0  0  0  0  0  0  0  0  0  0  0  0
   -0.5760   -2.3460    2.4602 H   0  0  0  0  0  0  0  0  0  0  0  0
   -1.8217   -1.7727    1.2256 H   0  0  0  0  0  0  0  0  0  0  0  0
    0.1948    0.7047   -1.9180 C   0  0  0  0  0  0  0  0  0  0  0  0
    0.1948    0.7047   -0.5943 C   0  0  0  0  0  3  0  0  0  0  0  0
    0.1948    1.9269    0.2663 C   0  0  0  0  0  0  0  0  0  0  0  0
    0.1948   -0.2180   -2.4845 H   0  0  0  0  0  0  0  0  0  0  0  0
    0.1948    1.6303   -2.4840 H   0  0  0  0  0  0  0  0  0  0  0  0
    0.1948   -0.4384    0.0340 H   0  0  0  0  0  0  0  0  0  0  0  0
   -0.6829    1.9440    0.9175 H   0  0  0  0  0  0  0  0  0  0  0  0
    0.1948    2.8374   -0.3343 H   0  0  0  0  0  0  0  0  0  0  0  0
    1.0725    1.9440    0.9175 H   0  0  0  0  0  0  0  0  0  0  0  0
  1  2  2  3
  1  3  1  0
  1 11  1  0
  2  4  1  0
  2  5  1  0
  6  7  2  3
  6  9  1  0
  6 10  1  0
  7  8  1  0
  8 12  1  0
  8 13  1  0
  8 14  1  0
M  RAD  1   7   2
M  END
>  <reaction>  (11) 
rxn_348

>  <mol_properties>  (11) 
{"0": {"label": "*3", "atom_type": "Cd"}, "1": {"label": "*4", "atom_type": "Cd"}, "5": {"label": "*0", "atom_type": "Cd"}, "6": {"label": "*1", "atom_type": "Cd"}, "10": {"label": "*2", "atom_type": "H0"}}

>  <type>  (11) 
unop_7

>  <geom_source>  (11) 
Heuristics

$$$$

     RDKit          3D

 14 12  0  0  0  0  0  0  0  0999 V2000
   -0.2302   -1.5224    0.7604 C   0  0  0  0  0  0  0  0  0  0  0  0
    0.8951   -2.1300    1.0943 C   0  0  0  0  0  0  0  0  0  0  0  0
   -1.0732   -1.4741    1.4395 H   0  0  0  0  0  0  0  0  0  0  0  0
    1.0199   -2.6043    2.0606 H   0  0  0  0  0  0  0  0  0  0  0  0
    1.7382   -2.1783    0.4152 H   0  0  0  0  0  0  0  0  0  0  0  0
   -0.2302    0.7603   -1.8179 C   0  0  0  0  0  0  0  0  0  0  0  0
   -0.2302    0.7603   -0.4941 C   0  0  0  0  0  3  0  0  0  0  0  0
   -0.2302    1.9825    0.3664 C   0  0  0  0  0  0  0  0  0  0  0  0
   -0.2302   -0.1624   -2.3843 H   0  0  0  0  0  0  0  0  0  0  0  0
   -0.2302    1.6859   -2.3839 H   0  0  0  0  0  0  0  0  0  0  0  0
   -0.2302   -0.3828    0.1341 H   0  0  0  0  0  0  0  0  0  0  0  0
   -1.1079    1.9996    1.0176 H   0  0  0  0  0  0  0  0  0  0  0  0
   -0.2302    2.8930   -0.2342 H   0  0  0  0  0  0  0  0  0  0  0  0
    0.6475    1.9996    1.0176 H   0  0  0  0  0  0  0  0  0  0  0  0
  1  2  2  3
  1  3  1  0
  1 11  1  0
  2  4  1  0
  2  5  1  0
  6  7  2  3
  6  9  1  0
  6 10  1  0
  7  8  1  0
  8 12  1  0
  8 13  1  0
  8 14  1  0
M  RAD  1   7   2
M  END
>  <reaction>  (12) 
rxn_348

>  <mol_properties>  (12) 
{"0": {"label": "*3", "atom_type": "Cd"}, "1": {"label": "*4", "atom_type": "Cd"}, "5": {"label": "*0", "atom_type": "Cd"}, "6": {"label": "*1", "atom_type": "Cd"}, "10": {"label": "*2", "atom_type": "H0"}}

>  <type>  (12) 
unop_8

>  <geom_source>  (12) 
Heuristics

$$$$

     RDKit          3D

 14 12  0  0  0  0  0  0  0  0999 V2000
    0.1179   -1.4216    0.9389 C   0  0  0  0  0  0  0  0  0  0  0  0
   -0.4448   -2.4985    0.4187 C   0  0  0  0  0  0  0  0  0  0  0  0
    0.3466   -1.3540    1.9959 H   0  0  0  0  0  0  0  0  0  0  0  0
   -0.7000   -3.3572    1.0284 H   0  0  0  0  0  0  0  0  0  0  0  0
   -0.6735   -2.5660   -0.6383 H   0  0  0  0  0  0  0  0  0  0  0  0
    0.1179    0.8612   -1.6394 C   0  0  0  0  0  0  0  0  0  0  0  0
    0.1179    0.8612   -0.3156 C   0  0  0  0  0  3  0  0  0  0  0  0
    0.1179    2.0834    0.5449 C   0  0  0  0  0  0  0  0  0  0  0  0
    0.1179   -0.0615   -2.2058 H   0  0  0  0  0  0  0  0  0  0  0  0
    0.1179    1.7868   -2.2054 H   0  0  0  0  0  0  0  0  0  0  0  0
    0.1179   -0.2820    0.3126 H   0  0  0  0  0  0  0  0  0  0  0  0
   -0.7598    2.1005    1.1961 H   0  0  0  0  0  0  0  0  0  0  0  0
    0.1179    2.9938   -0.0557 H   0  0  0  0  0  0  0  0  0  0  0  0
    0.9956    2.1005    1.1961 H   0  0  0  0  0  0  0  0  0  0  0  0
  1  2  2  3
  1  3  1  0
  1 11  1  0
  2  4  1  0
  2  5  1  0
  6  7  2  3
  6  9  1  0
  6 10  1  0
  7  8  1  0
  8 12  1  0
  8 13  1  0
  8 14  1  0
M  RAD  1   7   2
M  END
>  <reaction>  (13) 
rxn_348

>  <mol_properties>  (13) 
{"0": {"label": "*3", "atom_type": "Cd"}, "1": {"label": "*4", "atom_type": "Cd"}, "5": {"label": "*0", "atom_type": "Cd"}, "6": {"label": "*1", "atom_type": "Cd"}, "10": {"label": "*2", "atom_type": "H0"}}

>  <type>  (13) 
unop_9

>  <geom_source>  (13) 
Heuristics

$$$$

     RDKit          3D

 14 12  0  0  0  0  0  0  0  0999 V2000
   -0.2023   -1.4648    0.8628 C   0  0  0  0  0  0  0  0  0  0  0  0
    0.7722   -2.3433    0.7036 C   0  0  0  0  0  0  0  0  0  0  0  0
   -0.7290   -1.3646    1.8045 H   0  0  0  0  0  0  0  0  0  0  0  0
    1.0837   -2.9988    1.5084 H   0  0  0  0  0  0  0  0  0  0  0  0
    1.2990   -2.4435   -0.2381 H   0  0  0  0  0  0  0  0  0  0  0  0
   -0.2023    0.8180   -1.7154 C   0  0  0  0  0  0  0  0  0  0  0  0
   -0.2023    0.8180   -0.3917 C   0  0  0  0  0  3  0  0  0  0  0  0
   -0.2023    2.0402    0.4688 C   0  0  0  0  0  0  0  0  0  0  0  0
   -0.2023   -0.1048   -2.2819 H   0  0  0  0  0  0  0  0  0  0  0  0
   -0.2023    1.7436   -2.2814 H   0  0  0  0  0  0  0  0  0  0  0  0
   -0.2023   -0.3252    0.2365 H   0  0  0  0  0  0  0  0  0  0  0  0
   -1.0800    2.0573    1.1200 H   0  0  0  0  0  0  0  0  0  0  0  0
   -0.2023    2.9506   -0.1318 H   0  0  0  0  0  0  0  0  0  0  0  0
    0.6754    2.0573    1.1200 H   0  0  0  0  0  0  0  0  0  0  0  0
  1  2  2  3
  1  3  1  0
  1 11  1  0
  2  4  1  0
  2  5  1  0
  6  7  2  3
  6  9  1  0
  6 10  1  0
  7  8  1  0
  8 12  1  0
  8 13  1  0
  8 14  1  0
M  RAD  1   7   2
M  END
>  <reaction>  (14) 
rxn_348

>  <mol_properties>  (14) 
{"0": {"label": "*3", "atom_type": "Cd"}, "1": {"label": "*4", "atom_type": "Cd"}, "5": {"label": "*0", "atom_type": "Cd"}, "6": {"label": "*1", "atom_type": "Cd"}, "10": {"label": "*2", "atom_type": "H0"}}

>  <type>  (14) 
unop_10

>  <geom_source>  (14) 
Heuristics

$$$$

     RDKit          3D

 14 12  0  0  0  0  0  0  0  0999 V2000
    0.1078   -1.6154    0.5900 C   0  0  0  0  0  0  0  0  0  0  0  0
   -0.4548   -1.7536    1.7780 C   0  0  0  0  0  0  0  0  0  0  0  0
    1.0277   -2.1276    0.3337 H   0  0  0  0  0  0  0  0  0  0  0  0
   -0.0189   -2.3847    2.5434 H   0  0  0  0  0  0  0  0  0  0  0  0
   -1.3747   -1.2414    2.0343 H   0  0  0  0  0  0  0  0  0  0  0  0
    0.1078    0.6674   -1.9882 C   0  0  0  0  0  0  0  0  0  0  0  0
    0.1078    0.6674   -0.6645 C   0  0  0  0  0  3  0  0  0  0  0  0
    0.1078    1.8896    0.1960 C   0  0  0  0  0  0  0  0  0  0  0  0
    0.1078   -0.2553   -2.5547 H   0  0  0  0  0  0  0  0  0  0  0  0
    0.1078    1.5930   -2.5542 H   0  0  0  0  0  0  0  0  0  0  0  0
    0.1078   -0.4758   -0.0363 H   0  0  0  0  0  0  0  0  0  0  0  0
   -0.7699    1.9067    0.8472 H   0  0  0  0  0  0  0  0  0  0  0  0
    0.1078    2.8000   -0.4046 H   0  0  0  0  0  0  0  0  0  0  0  0
    0.9855    1.9067    0.8472 H   0  0  0  0  0  0  0  0  0  0  0  0
  1  2  2  3
  1  3  1  0
  1 11  1  0
  2  4  1  0
  2  5  1  0
  6  7  2  3
  6  9  1  0
  6 10  1  0
  7  8  1  0
  8 12  1  0
  8 13  1  0
  8 14  1  0
M  RAD  1   7   2
M  END
>  <reaction>  (15) 
rxn_348

>  <mol_properties>  (15) 
{"0": {"label": "*3", "atom_type": "Cd"}, "1": {"label": "*4", "atom_type": "Cd"}, "5": {"label": "*0", "atom_type": "Cd"}, "6": {"label": "*1", "atom_type": "Cd"}, "10": {"label": "*2", "atom_type": "H0"}}

>  <type>  (15) 
unop_11

>  <geom_source>  (15) 
Heuristics

$$$$

     RDKit          3D

 14 12  0  0  0  0  0  0  0  0999 V2000
    0.0000   -1.4055    0.9670 C   0  0  0  0  0  0  0  0  0  0  0  0
    0.0000   -2.5550    0.3147 C   0  0  0  0  0  0  0  0  0  0  0  0
    0.0000   -1.3665    2.0499 H   0  0  0  0  0  0  0  0  0  0  0  0
    0.0000   -3.5047    0.8366 H   0  0  0  0  0  0  0  0  0  0  0  0
    0.0000   -2.5941   -0.7682 H   0  0  0  0  0  0  0  0  0  0  0  0
   -0.0000    0.8773   -1.6113 C   0  0  0  0  0  0  0  0  0  0  0  0
   -0.0000    0.8773   -0.2875 C   0  0  0  0  0  3  0  0  0  0  0  0
   -0.0000    2.0994    0.5730 C   0  0  0  0  0  0  0  0  0  0  0  0
   -0.0000   -0.0455   -2.1777 H   0  0  0  0  0  0  0  0  0  0  0  0
   -0.0000    1.8029   -2.1773 H   0  0  0  0  0  0  0  0  0  0  0  0
   -0.0000   -0.2659    0.3407 H   0  0  0  0  0  0  0  0  0  0  0  0
   -0.8777    2.1166    1.2242 H   0  0  0  0  0  0  0  0  0  0  0  0
   -0.0000    3.0099   -0.0276 H   0  0  0  0  0  0  0  0  0  0  0  0
    0.8777    2.1166    1.2242 H   0  0  0  0  0  0  0  0  0  0  0  0
  1  2  2  3
  1  3  1  0
  1 11  1  0
  2  4  1  0
  2  5  1  0
  6  7  2  3
  6  9  1  0
  6 10  1  0
  7  8  1  0
  8 12  1  0
  8 13  1  0
  8 14  1  0
M  RAD  1   7   2
M  END
>  <reaction>  (16) 
rxn_348

>  <mol_properties>  (16) 
{"0": {"label": "*3", "atom_type": "Cd"}, "1": {"label": "*4", "atom_type": "Cd"}, "5": {"label": "*0", "atom_type": "Cd"}, "6": {"label": "*1", "atom_type": "Cd"}, "10": {"label": "*2", "atom_type": "H0"}}

>  <type>  (16) 
unop_12

>  <geom_source>  (16) 
Heuristics

$$$$

     RDKit          3D

 14 12  0  0  0  0  0  0  0  0999 V2000
   -1.8629    1.2703   -0.1107 C   0  0  0  0  0  0  0  0  0  0  0  0
    2.7389   -0.1299   -0.1587 C   0  0  0  0  0  0  0  0  0  0  0  0
    1.5979   -0.4747    0.4322 C   0  0  0  0  0  0  0  0  0  0  0  0
   -1.1754   -1.1021   -0.0318 C   0  0  0  0  0  0  0  0  0  0  0  0
   -0.8827    0.1807    0.1852 C   0  0  0  0  0  3  0  0  0  0  0  0
   -2.7827    1.1292    0.4953 H   0  0  0  0  0  0  0  0  0  0  0  0
   -1.4079    2.2491    0.1454 H   0  0  0  0  0  0  0  0  0  0  0  0
   -2.1241    1.2641   -1.1900 H   0  0  0  0  0  0  0  0  0  0  0  0
    2.7294    0.5523   -1.0019 H   0  0  0  0  0  0  0  0  0  0  0  0
    3.6829   -0.5282    0.1989 H   0  0  0  0  0  0  0  0  0  0  0  0
    1.6027   -1.1569    1.2761 H   0  0  0  0  0  0  0  0  0  0  0  0
    0.4648    0.0073   -0.0018 H   0  0  0  0  0  0  0  0  0  0  0  0
   -0.4398   -1.8658    0.1946 H   0  0  0  0  0  0  0  0  0  0  0  0
   -2.1411   -1.3953   -0.4327 H   0  0  0  0  0  0  0  0  0  0  0  0
  1  5  1  0
  1  6  1  0
  1  7  1  0
  1  8  1  0
  2  3  2  3
  2  9  1  0
  2 10  1  0
  3 11  1  0
  3 12  1  0
  4  5  2  3
  4 13  1  0
  4 14  1  0
M  RAD  1   5   2
M  END
>  <reaction>  (17) 
rxn_348

>  <mol_properties>  (17) 
{"0": {"label": "*3", "atom_type": "Cd"}, "1": {"label": "*4", "atom_type": "Cd"}, "5": {"label": "*0", "atom_type": "Cd"}, "6": {"label": "*1", "atom_type": "Cd"}, "10": {"label": "*2", "atom_type": "H0"}}

>  <type>  (17) 
unop_13

>  <geom_source>  (17) 
AutoTST

$$$$
