
     RDKit          3D

  7  6  0  0  0  0  0  0  0  0999 V2000
   -0.6782    0.0507    0.0301 C   0  0  0  0  0  0  0  0  0  0  0  0
    0.8092    0.0996    0.0213 C   0  0  0  0  0  0  0  0  0  0  0  0
    1.7473    0.7521    1.1507 S   0  0  0  0  0  0  0  0  0  0  0  0
   -1.0667    0.5456   -0.8653 H   0  0  0  0  0  0  0  0  0  0  0  0
   -1.0112   -0.9904   -0.0239 H   0  0  0  0  0  0  0  0  0  0  0  0
   -1.0920    0.5225    0.9188 H   0  0  0  0  0  0  0  0  0  0  0  0
    1.2740   -0.3620   -0.8520 H   0  0  0  0  0  0  0  0  0  0  0  0
  1  2  1  0
  1  4  1  0
  1  5  1  0
  1  6  1  0
  2  3  2  0
  2  7  1  0
M  END
>  <reaction>  (1) 
rxn_1975

>  <mol_properties>  (1) 
{"0": {"label": "donator", "atom_type": "Cs"}, "3": {"label": "d_hydrogen", "atom_type": "H0"}}

>  <type>  (1) 
r1h

$$$$

     RDKit          3D

  8  7  0  0  0  0  0  0  0  0999 V2000
   -1.0607    0.1793   -0.1423 C   0  0  0  0  0  0  0  0  0  0  0  0
    0.2796    0.0327    0.4820 C   0  0  0  0  0  3  0  0  0  0  0  0
    0.8817   -1.4663    1.0791 S   0  0  0  0  0  0  0  0  0  0  0  0
   -1.3043    1.2328   -0.2850 H   0  0  0  0  0  0  0  0  0  0  0  0
   -1.8444   -0.2641    0.4799 H   0  0  0  0  0  0  0  0  0  0  0  0
   -1.1164   -0.3100   -1.1237 H   0  0  0  0  0  0  0  0  0  0  0  0
    1.0449    0.7826    0.3391 H   0  0  0  0  0  0  0  0  0  0  0  0
   -0.2993   -2.0726    1.2718 H   0  0  0  0  0  0  0  0  0  0  0  0
  1  2  1  0
  1  4  1  0
  1  5  1  0
  1  6  1  0
  2  3  1  0
  2  7  1  0
  3  8  1  0
M  RAD  1   2   2
M  END
>  <reaction>  (2) 
rxn_1975

>  <mol_properties>  (2) 
{"1": {"label": "acceptor", "atom_type": "Cs"}}

>  <type>  (2) 
r2

$$$$

     RDKit          3D

  9  8  0  0  0  0  0  0  0  0999 V2000
   -0.8818   -0.3578    0.1297 C   0  0  0  0  0  0  0  0  0  0  0  0
    0.6153   -0.3021   -0.1188 C   0  0  0  0  0  0  0  0  0  0  0  0
    1.5354   -1.7170    0.5545 S   0  0  0  0  0  0  0  0  0  0  0  0
   -1.1018   -0.3317    1.1984 H   0  0  0  0  0  0  0  0  0  0  0  0
   -1.3114   -1.2723   -0.2799 H   0  0  0  0  0  0  0  0  0  0  0  0
   -1.3767    0.4976   -0.3363 H   0  0  0  0  0  0  0  0  0  0  0  0
    1.0467    0.6194    0.2718 H   0  0  0  0  0  0  0  0  0  0  0  0
    0.8295   -0.3275   -1.1882 H   0  0  0  0  0  0  0  0  0  0  0  0
    1.2306   -1.5077    1.8423 H   0  0  0  0  0  0  0  0  0  0  0  0
  1  2  1  0
  1  4  1  0
  1  5  1  0
  1  6  1  0
  2  3  1  0
  2  7  1  0
  2  8  1  0
  3  9  1  0
M  END
>  <reaction>  (3) 
rxn_1975

>  <mol_properties>  (3) 
{"1": {"label": "acceptor", "atom_type": "Cs"}, "8": {"label": "a_hydrogen", "atom_type": "H0"}}

>  <type>  (3) 
r2h

$$$$

     RDKit          3D

 15 13  0  0  0  0  0  0  0  0999 V2000
   -0.5610   -0.8902    2.1586 C   0  0  0  0  0  0  0  0  0  0  0  0
   -0.4907    0.5518    1.7509 C   0  0  0  0  0  3  0  0  0  0  0  0
   -1.8220    1.2667    0.8635 S   0  0  0  0  0  0  0  0  0  0  0  0
    0.3739   -1.1976    2.6310 H   0  0  0  0  0  0  0  0  0  0  0  0
   -0.7331   -1.5337    1.2933 H   0  0  0  0  0  0  0  0  0  0  0  0
   -1.3750   -1.0559    2.8691 H   0  0  0  0  0  0  0  0  0  0  0  0
   -0.1476    1.2443    2.5163 H   0  0  0  0  0  0  0  0  0  0  0  0
   -1.9850    0.2634   -0.0134 H   0  0  0  0  0  0  0  0  0  0  0  0
    1.4833    0.4546   -0.0951 C   0  0  0  0  0  0  0  0  0  0  0  0
    1.3256   -0.8552   -0.6585 C   0  0  0  0  0  0  0  0  0  0  0  0
    0.2127   -1.2837   -1.7789 S   0  0  0  0  0  0  0  0  0  0  0  0
    0.6141    0.5280    0.8447 H   0  0  0  0  0  0  0  0  0  0  0  0
    2.4285    0.6470    0.4080 H   0  0  0  0  0  0  0  0  0  0  0  0
    1.1254    1.2761   -0.7115 H   0  0  0  0  0  0  0  0  0  0  0  0
    1.9706   -1.6315   -0.2455 H   0  0  0  0  0  0  0  0  0  0  0  0
  1  2  1  0
  1  4  1  0
  1  5  1  0
  1  6  1  0
  2  3  1  0
  2  7  1  0
  3  8  1  0
  9 10  1  0
  9 12  1  0
  9 13  1  0
  9 14  1  0
 10 11  2  0
 10 15  1  0
M  RAD  1   2   2
M  END
>  <reaction>  (4) 
rxn_1975

>  <mol_properties>  (4) 
{"1": {"label": "*3", "atom_type": "Cs"}, "2": {"label": "*4", "atom_type": "S2s"}, "8": {"label": "*1", "atom_type": "Cs"}, "9": {"label": "*0", "atom_type": "CS"}, "11": {"label": "*2", "atom_type": "H0"}}

>  <type>  (4) 
ts

$$$$

     RDKit          3D

 15 13  0  0  0  0  0  0  0  0999 V2000
   -0.2166    0.5321    2.8722 C   0  0  0  0  0  0  0  0  0  0  0  0
   -0.6236    0.5520    1.4092 C   0  0  0  0  0  0  0  0  0  0  0  0
   -2.3479    0.0636    1.1089 S   0  0  0  0  0  0  0  0  0  0  0  0
    0.8143    0.8758    2.9848 H   0  0  0  0  0  0  0  0  0  0  0  0
   -0.2806   -0.4775    3.2818 H   0  0  0  0  0  0  0  0  0  0  0  0
   -0.8642    1.1776    3.4660 H   0  0  0  0  0  0  0  0  0  0  0  0
   -0.5570    1.5629    1.0046 H   0  0  0  0  0  0  0  0  0  0  0  0
   -2.2462   -1.1841    1.5864 H   0  0  0  0  0  0  0  0  0  0  0  0
    1.4747    0.6164   -0.1601 C   0  0  0  0  0  0  0  0  0  0  0  0
    1.4747   -0.5821   -1.0423 C   0  0  0  0  0  0  0  0  0  0  0  0
    1.4747   -0.5821   -2.6490 S   0  0  0  0  0  1  0  0  0  0  0  0
    0.4233    0.5841    0.6262 H   0  0  0  0  0  0  0  0  0  0  0  0
    2.3508    0.5895    0.4951 H   0  0  0  0  0  0  0  0  0  0  0  0
    1.4747    1.5402   -0.7348 H   0  0  0  0  0  0  0  0  0  0  0  0
    1.4747   -1.5365   -0.5124 H   0  0  0  0  0  0  0  0  0  0  0  0
  1  2  1  0
  1  4  1  0
  1  5  1  0
  1  6  1  0
  2  3  1  0
  2  7  1  0
  2 12  1  0
  3  8  1  0
  9 10  2  3
  9 13  1  0
  9 14  1  0
 10 11  1  0
 10 15  1  0
M  RAD  1  11   2
M  END
>  <reaction>  (5) 
rxn_1975

>  <mol_properties>  (5) 
{"1": {"label": "*3", "atom_type": "Cs"}, "2": {"label": "*4", "atom_type": "S2s"}, "8": {"label": "*1", "atom_type": "Cs"}, "9": {"label": "*0", "atom_type": "CS"}, "11": {"label": "*2", "atom_type": "H0"}}

>  <type>  (5) 
unop_1

>  <geom_source>  (5) 
Heuristics

$$$$

     RDKit          3D

 15 13  0  0  0  0  0  0  0  0999 V2000
   -1.0230   -1.1391    1.8477 C   0  0  0  0  0  0  0  0  0  0  0  0
   -0.6063    0.2893    1.5440 C   0  0  0  0  0  0  0  0  0  0  0  0
   -1.9955    1.4377    1.3137 S   0  0  0  0  0  0  0  0  0  0  0  0
   -0.1429   -1.7644    2.0161 H   0  0  0  0  0  0  0  0  0  0  0  0
   -1.5849   -1.5675    1.0159 H   0  0  0  0  0  0  0  0  0  0  0  0
   -1.6533   -1.1810    2.7363 H   0  0  0  0  0  0  0  0  0  0  0  0
   -0.0443    0.7122    2.3780 H   0  0  0  0  0  0  0  0  0  0  0  0
   -2.5292    0.8308    0.2451 H   0  0  0  0  0  0  0  0  0  0  0  0
    1.4921    0.3537   -0.0253 C   0  0  0  0  0  0  0  0  0  0  0  0
    1.4921   -0.8448   -0.9075 C   0  0  0  0  0  0  0  0  0  0  0  0
    1.4921   -0.8448   -2.5142 S   0  0  0  0  0  1  0  0  0  0  0  0
    0.4407    0.3214    0.7610 H   0  0  0  0  0  0  0  0  0  0  0  0
    2.3682    0.3268    0.6299 H   0  0  0  0  0  0  0  0  0  0  0  0
    1.4921    1.2775   -0.6000 H   0  0  0  0  0  0  0  0  0  0  0  0
    1.4921   -1.7992   -0.3776 H   0  0  0  0  0  0  0  0  0  0  0  0
  1  2  1  0
  1  4  1  0
  1  5  1  0
  1  6  1  0
  2  3  1  0
  2  7  1  0
  2 12  1  0
  3  8  1  0
  9 10  2  3
  9 13  1  0
  9 14  1  0
 10 11  1  0
 10 15  1  0
M  RAD  1  11   2
M  END
>  <reaction>  (6) 
rxn_1975

>  <mol_properties>  (6) 
{"1": {"label": "*3", "atom_type": "Cs"}, "2": {"label": "*4", "atom_type": "S2s"}, "8": {"label": "*1", "atom_type": "Cs"}, "9": {"label": "*0", "atom_type": "CS"}, "11": {"label": "*2", "atom_type": "H0"}}

>  <type>  (6) 
unop_2

>  <geom_source>  (6) 
Heuristics

$$$$

     RDKit          3D

 15 13  0  0  0  0  0  0  0  0999 V2000
   -0.4497    1.3663    2.6449 C   0  0  0  0  0  0  0  0  0  0  0  0
   -0.7311    0.6779    1.3208 C   0  0  0  0  0  0  0  0  0  0  0  0
   -2.0036   -0.6162    1.4096 S   0  0  0  0  0  0  0  0  0  0  0  0
    0.2909    2.1585    2.5118 H   0  0  0  0  0  0  0  0  0  0  0  0
   -0.0567    0.6589    3.3773 H   0  0  0  0  0  0  0  0  0  0  0  0
   -1.3583    1.8065    3.0565 H   0  0  0  0  0  0  0  0  0  0  0  0
   -1.1227    1.3894    0.5924 H   0  0  0  0  0  0  0  0  0  0  0  0
   -1.3569   -1.4179    2.2665 H   0  0  0  0  0  0  0  0  0  0  0  0
    1.3672    0.7423   -0.2485 C   0  0  0  0  0  0  0  0  0  0  0  0
    1.3672   -0.4562   -1.1307 C   0  0  0  0  0  0  0  0  0  0  0  0
    1.3672   -0.4562   -2.7374 S   0  0  0  0  0  1  0  0  0  0  0  0
    0.3159    0.7100    0.5378 H   0  0  0  0  0  0  0  0  0  0  0  0
    2.2434    0.7154    0.4067 H   0  0  0  0  0  0  0  0  0  0  0  0
    1.3672    1.6661   -0.8232 H   0  0  0  0  0  0  0  0  0  0  0  0
    1.3672   -1.4106   -0.6008 H   0  0  0  0  0  0  0  0  0  0  0  0
  1  2  1  0
  1  4  1  0
  1  5  1  0
  1  6  1  0
  2  3  1  0
  2  7  1  0
  2 12  1  0
  3  8  1  0
  9 10  2  3
  9 13  1  0
  9 14  1  0
 10 11  1  0
 10 15  1  0
M  RAD  1  11   2
M  END
>  <reaction>  (7) 
rxn_1975

>  <mol_properties>  (7) 
{"1": {"label": "*3", "atom_type": "Cs"}, "2": {"label": "*4", "atom_type": "S2s"}, "8": {"label": "*1", "atom_type": "Cs"}, "9": {"label": "*0", "atom_type": "CS"}, "11": {"label": "*2", "atom_type": "H0"}}

>  <type>  (7) 
unop_3

>  <geom_source>  (7) 
Heuristics

$$$$

     RDKit          3D

 15 13  0  0  0  0  0  0  0  0999 V2000
   -2.3154   -0.0433    0.6926 C   0  0  0  0  0  0  0  0  0  0  0  0
   -1.0269   -0.0361    1.4963 C   0  0  0  0  0  0  0  0  0  0  0  0
   -0.4556    1.6216    1.9732 S   0  0  0  0  0  0  0  0  0  0  0  0
   -2.6233   -1.0692    0.4768 H   0  0  0  0  0  0  0  0  0  0  0  0
   -2.1854    0.4754   -0.2589 H   0  0  0  0  0  0  0  0  0  0  0  0
   -3.1186    0.4521    1.2387 H   0  0  0  0  0  0  0  0  0  0  0  0
   -1.1621   -0.5565    2.4455 H   0  0  0  0  0  0  0  0  0  0  0  0
   -0.2774    2.0927    0.7317 H   0  0  0  0  0  0  0  0  0  0  0  0
    1.0715    0.0283   -0.0730 C   0  0  0  0  0  0  0  0  0  0  0  0
    1.0715   -1.1702   -0.9552 C   0  0  0  0  0  0  0  0  0  0  0  0
    1.0715   -1.1702   -2.5619 S   0  0  0  0  0  1  0  0  0  0  0  0
    0.0201   -0.0040    0.7133 H   0  0  0  0  0  0  0  0  0  0  0  0
    1.9476    0.0014    0.5822 H   0  0  0  0  0  0  0  0  0  0  0  0
    1.0714    0.9521   -0.6477 H   0  0  0  0  0  0  0  0  0  0  0  0
    1.0715   -2.1246   -0.4253 H   0  0  0  0  0  0  0  0  0  0  0  0
  1  2  1  0
  1  4  1  0
  1  5  1  0
  1  6  1  0
  2  3  1  0
  2  7  1  0
  2 12  1  0
  3  8  1  0
  9 10  2  3
  9 13  1  0
  9 14  1  0
 10 11  1  0
 10 15  1  0
M  RAD  1  11   2
M  END
>  <reaction>  (8) 
rxn_1975

>  <mol_properties>  (8) 
{"1": {"label": "*3", "atom_type": "Cs"}, "2": {"label": "*4", "atom_type": "S2s"}, "8": {"label": "*1", "atom_type": "Cs"}, "9": {"label": "*0", "atom_type": "CS"}, "11": {"label": "*2", "atom_type": "H0"}}

>  <type>  (8) 
unop_4

>  <geom_source>  (8) 
Heuristics

$$$$

     RDKit          3D

 15 13  0  0  0  0  0  0  0  0999 V2000
   -1.0630    1.8991    2.0812 C   0  0  0  0  0  0  0  0  0  0  0  0
   -1.0253    0.6904    1.1625 C   0  0  0  0  0  0  0  0  0  0  0  0
   -1.0659   -0.9060    2.0295 S   0  0  0  0  0  0  0  0  0  0  0  0
   -1.0790    2.8214    1.4958 H   0  0  0  0  0  0  0  0  0  0  0  0
   -0.1835    1.9266    2.7270 H   0  0  0  0  0  0  0  0  0  0  0  0
   -1.9475    1.8774    2.7183 H   0  0  0  0  0  0  0  0  0  0  0  0
   -1.9058    0.6684    0.5187 H   0  0  0  0  0  0  0  0  0  0  0  0
    0.0810   -0.7506    2.7045 H   0  0  0  0  0  0  0  0  0  0  0  0
    1.0731    0.7549   -0.4068 C   0  0  0  0  0  0  0  0  0  0  0  0
    1.0731   -0.4436   -1.2890 C   0  0  0  0  0  0  0  0  0  0  0  0
    1.0731   -0.4436   -2.8957 S   0  0  0  0  0  1  0  0  0  0  0  0
    0.0217    0.7226    0.3795 H   0  0  0  0  0  0  0  0  0  0  0  0
    1.9492    0.7280    0.2484 H   0  0  0  0  0  0  0  0  0  0  0  0
    1.0731    1.6787   -0.9815 H   0  0  0  0  0  0  0  0  0  0  0  0
    1.0731   -1.3980   -0.7591 H   0  0  0  0  0  0  0  0  0  0  0  0
  1  2  1  0
  1  4  1  0
  1  5  1  0
  1  6  1  0
  2  3  1  0
  2  7  1  0
  2 12  1  0
  3  8  1  0
  9 10  2  3
  9 13  1  0
  9 14  1  0
 10 11  1  0
 10 15  1  0
M  RAD  1  11   2
M  END
>  <reaction>  (9) 
rxn_1975

>  <mol_properties>  (9) 
{"1": {"label": "*3", "atom_type": "Cs"}, "2": {"label": "*4", "atom_type": "S2s"}, "8": {"label": "*1", "atom_type": "Cs"}, "9": {"label": "*0", "atom_type": "CS"}, "11": {"label": "*2", "atom_type": "H0"}}

>  <type>  (9) 
unop_5

>  <geom_source>  (9) 
Heuristics

$$$$

     RDKit          3D

 15 13  0  0  0  0  0  0  0  0999 V2000
   -2.3820    0.7186    0.7282 C   0  0  0  0  0  0  0  0  0  0  0  0
   -1.1950    0.0192    1.3671 C   0  0  0  0  0  0  0  0  0  0  0  0
   -0.0549    1.1332    2.2393 S   0  0  0  0  0  0  0  0  0  0  0  0
   -3.0463   -0.0113    0.2595 H   0  0  0  0  0  0  0  0  0  0  0  0
   -2.0547    1.4183   -0.0428 H   0  0  0  0  0  0  0  0  0  0  0  0
   -2.9509    1.2785    1.4709 H   0  0  0  0  0  0  0  0  0  0  0  0
   -1.5278   -0.6795    2.1361 H   0  0  0  0  0  0  0  0  0  0  0  0
    0.3037    1.8616    1.1734 H   0  0  0  0  0  0  0  0  0  0  0  0
    0.9033    0.0836   -0.2022 C   0  0  0  0  0  0  0  0  0  0  0  0
    0.9033   -1.1149   -1.0844 C   0  0  0  0  0  0  0  0  0  0  0  0
    0.9033   -1.1149   -2.6911 S   0  0  0  0  0  1  0  0  0  0  0  0
   -0.1480    0.0513    0.5841 H   0  0  0  0  0  0  0  0  0  0  0  0
    1.7795    0.0567    0.4530 H   0  0  0  0  0  0  0  0  0  0  0  0
    0.9033    1.0074   -0.7769 H   0  0  0  0  0  0  0  0  0  0  0  0
    0.9033   -2.0693   -0.5545 H   0  0  0  0  0  0  0  0  0  0  0  0
  1  2  1  0
  1  4  1  0
  1  5  1  0
  1  6  1  0
  2  3  1  0
  2  7  1  0
  2 12  1  0
  3  8  1  0
  9 10  2  3
  9 13  1  0
  9 14  1  0
 10 11  1  0
 10 15  1  0
M  RAD  1  11   2
M  END
>  <reaction>  (10) 
rxn_1975

>  <mol_properties>  (10) 
{"1": {"label": "*3", "atom_type": "Cs"}, "2": {"label": "*4", "atom_type": "S2s"}, "8": {"label": "*1", "atom_type": "Cs"}, "9": {"label": "*0", "atom_type": "CS"}, "11": {"label": "*2", "atom_type": "H0"}}

>  <type>  (10) 
unop_6

>  <geom_source>  (10) 
Heuristics

$$$$

     RDKit          3D

 15 13  0  0  0  0  0  0  0  0999 V2000
   -2.1866    1.3933    1.0231 C   0  0  0  0  0  0  0  0  0  0  0  0
   -1.3011    0.1783    1.2376 C   0  0  0  0  0  0  0  0  0  0  0  0
    0.0834    0.4581    2.3807 S   0  0  0  0  0  0  0  0  0  0  0  0
   -3.0199    1.1445    0.3615 H   0  0  0  0  0  0  0  0  0  0  0  0
   -1.6258    2.2095    0.5641 H   0  0  0  0  0  0  0  0  0  0  0  0
   -2.5908    1.7535    1.9694 H   0  0  0  0  0  0  0  0  0  0  0  0
   -1.8667   -0.6345    1.6955 H   0  0  0  0  0  0  0  0  0  0  0  0
    0.6963    1.4070    1.6603 H   0  0  0  0  0  0  0  0  0  0  0  0
    0.7972    0.2427   -0.3317 C   0  0  0  0  0  0  0  0  0  0  0  0
    0.7972   -0.9557   -1.2139 C   0  0  0  0  0  0  0  0  0  0  0  0
    0.7972   -0.9557   -2.8205 S   0  0  0  0  0  1  0  0  0  0  0  0
   -0.2542    0.2105    0.4546 H   0  0  0  0  0  0  0  0  0  0  0  0
    1.6734    0.2159    0.3235 H   0  0  0  0  0  0  0  0  0  0  0  0
    0.7972    1.1665   -0.9063 H   0  0  0  0  0  0  0  0  0  0  0  0
    0.7972   -1.9101   -0.6839 H   0  0  0  0  0  0  0  0  0  0  0  0
  1  2  1  0
  1  4  1  0
  1  5  1  0
  1  6  1  0
  2  3  1  0
  2  7  1  0
  2 12  1  0
  3  8  1  0
  9 10  2  3
  9 13  1  0
  9 14  1  0
 10 11  1  0
 10 15  1  0
M  RAD  1  11   2
M  END
>  <reaction>  (11) 
rxn_1975

>  <mol_properties>  (11) 
{"1": {"label": "*3", "atom_type": "Cs"}, "2": {"label": "*4", "atom_type": "S2s"}, "8": {"label": "*1", "atom_type": "Cs"}, "9": {"label": "*0", "atom_type": "CS"}, "11": {"label": "*2", "atom_type": "H0"}}

>  <type>  (11) 
unop_7

>  <geom_source>  (11) 
Heuristics

$$$$

     RDKit          3D

 15 13  0  0  0  0  0  0  0  0999 V2000
   -0.2909   -0.2687    2.7417 C   0  0  0  0  0  0  0  0  0  0  0  0
   -0.5963    0.4577    1.4435 C   0  0  0  0  0  0  0  0  0  0  0  0
   -2.3696    0.6550    1.0996 S   0  0  0  0  0  0  0  0  0  0  0  0
    0.7882   -0.3148    2.9069 H   0  0  0  0  0  0  0  0  0  0  0  0
   -0.6704   -1.2917    2.7157 H   0  0  0  0  0  0  0  0  0  0  0  0
   -0.7503    0.2389    3.5902 H   0  0  0  0  0  0  0  0  0  0  0  0
   -0.2140    1.4791    1.4746 H   0  0  0  0  0  0  0  0  0  0  0  0
   -2.6648   -0.6500    1.0279 H   0  0  0  0  0  0  0  0  0  0  0  0
    1.5020    0.5222   -0.1258 C   0  0  0  0  0  0  0  0  0  0  0  0
    1.5020   -0.6763   -1.0080 C   0  0  0  0  0  0  0  0  0  0  0  0
    1.5020   -0.6763   -2.6146 S   0  0  0  0  0  1  0  0  0  0  0  0
    0.4506    0.4899    0.6605 H   0  0  0  0  0  0  0  0  0  0  0  0
    2.3781    0.4953    0.5295 H   0  0  0  0  0  0  0  0  0  0  0  0
    1.5020    1.4460   -0.7004 H   0  0  0  0  0  0  0  0  0  0  0  0
    1.5020   -1.6307   -0.4780 H   0  0  0  0  0  0  0  0  0  0  0  0
  1  2  1  0
  1  4  1  0
  1  5  1  0
  1  6  1  0
  2  3  1  0
  2  7  1  0
  2 12  1  0
  3  8  1  0
  9 10  2  3
  9 13  1  0
  9 14  1  0
 10 11  1  0
 10 15  1  0
M  RAD  1  11   2
M  END
>  <reaction>  (12) 
rxn_1975

>  <mol_properties>  (12) 
{"1": {"label": "*3", "atom_type": "Cs"}, "2": {"label": "*4", "atom_type": "S2s"}, "8": {"label": "*1", "atom_type": "Cs"}, "9": {"label": "*0", "atom_type": "CS"}, "11": {"label": "*2", "atom_type": "H0"}}

>  <type>  (12) 
unop_8

>  <geom_source>  (12) 
Heuristics

$$$$

     RDKit          3D

 15 13  0  0  0  0  0  0  0  0999 V2000
   -2.0006   -0.6992    0.9214 C   0  0  0  0  0  0  0  0  0  0  0  0
   -0.8376    0.0163    1.5862 C   0  0  0  0  0  0  0  0  0  0  0  0
   -1.0215    1.8223    1.6661 S   0  0  0  0  0  0  0  0  0  0  0  0
   -1.8455   -1.7805    0.9452 H   0  0  0  0  0  0  0  0  0  0  0  0
   -2.0998   -0.3972   -0.1227 H   0  0  0  0  0  0  0  0  0  0  0  0
   -2.9391   -0.4723    1.4278 H   0  0  0  0  0  0  0  0  0  0  0  0
   -0.7424   -0.2899    2.6290 H   0  0  0  0  0  0  0  0  0  0  0  0
   -1.0563    2.0381    0.3443 H   0  0  0  0  0  0  0  0  0  0  0  0
    1.2607    0.0807    0.0169 C   0  0  0  0  0  0  0  0  0  0  0  0
    1.2607   -1.1178   -0.8653 C   0  0  0  0  0  0  0  0  0  0  0  0
    1.2607   -1.1178   -2.4719 S   0  0  0  0  0  1  0  0  0  0  0  0
    0.2094    0.0484    0.8032 H   0  0  0  0  0  0  0  0  0  0  0  0
    2.1369    0.0538    0.6721 H   0  0  0  0  0  0  0  0  0  0  0  0
    1.2607    1.0045   -0.5577 H   0  0  0  0  0  0  0  0  0  0  0  0
    1.2607   -2.0722   -0.3353 H   0  0  0  0  0  0  0  0  0  0  0  0
  1  2  1  0
  1  4  1  0
  1  5  1  0
  1  6  1  0
  2  3  1  0
  2  7  1  0
  2 12  1  0
  3  8  1  0
  9 10  2  3
  9 13  1  0
  9 14  1  0
 10 11  1  0
 10 15  1  0
M  RAD  1  11   2
M  END
>  <reaction>  (13) 
rxn_1975

>  <mol_properties>  (13) 
{"1": {"label": "*3", "atom_type": "Cs"}, "2": {"label": "*4", "atom_type": "S2s"}, "8": {"label": "*1", "atom_type": "Cs"}, "9": {"label": "*0", "atom_type": "CS"}, "11": {"label": "*2", "atom_type": "H0"}}

>  <type>  (13) 
unop_9

>  <geom_source>  (13) 
Heuristics

$$$$

     RDKit          3D

 15 13  0  0  0  0  0  0  0  0999 V2000
   -0.5864   -0.8571    2.3557 C   0  0  0  0  0  0  0  0  0  0  0  0
   -0.5904    0.3849    1.4818 C   0  0  0  0  0  0  0  0  0  0  0  0
   -2.2396    1.0953    1.2042 S   0  0  0  0  0  0  0  0  0  0  0  0
    0.4365   -1.2059    2.5162 H   0  0  0  0  0  0  0  0  0  0  0  0
   -1.1474   -1.6671    1.8861 H   0  0  0  0  0  0  0  0  0  0  0  0
   -1.0394   -0.6528    3.3261 H   0  0  0  0  0  0  0  0  0  0  0  0
   -0.0276    1.1908    1.9553 H   0  0  0  0  0  0  0  0  0  0  0  0
   -2.7664    0.0358    0.5757 H   0  0  0  0  0  0  0  0  0  0  0  0
    1.5080    0.4493   -0.0875 C   0  0  0  0  0  0  0  0  0  0  0  0
    1.5080   -0.7491   -0.9697 C   0  0  0  0  0  0  0  0  0  0  0  0
    1.5080   -0.7491   -2.5763 S   0  0  0  0  0  1  0  0  0  0  0  0
    0.4566    0.4171    0.6988 H   0  0  0  0  0  0  0  0  0  0  0  0
    2.3841    0.4225    0.5677 H   0  0  0  0  0  0  0  0  0  0  0  0
    1.5080    1.3731   -0.6622 H   0  0  0  0  0  0  0  0  0  0  0  0
    1.5080   -1.7035   -0.4397 H   0  0  0  0  0  0  0  0  0  0  0  0
  1  2  1  0
  1  4  1  0
  1  5  1  0
  1  6  1  0
  2  3  1  0
  2  7  1  0
  2 12  1  0
  3  8  1  0
  9 10  2  3
  9 13  1  0
  9 14  1  0
 10 11  1  0
 10 15  1  0
M  RAD  1  11   2
M  END
>  <reaction>  (14) 
rxn_1975

>  <mol_properties>  (14) 
{"1": {"label": "*3", "atom_type": "Cs"}, "2": {"label": "*4", "atom_type": "S2s"}, "8": {"label": "*1", "atom_type": "Cs"}, "9": {"label": "*0", "atom_type": "CS"}, "11": {"label": "*2", "atom_type": "H0"}}

>  <type>  (14) 
unop_10

>  <geom_source>  (14) 
Heuristics

$$$$

     RDKit          3D

 15 13  0  0  0  0  0  0  0  0999 V2000
   -1.7472    1.8353    1.4951 C   0  0  0  0  0  0  0  0  0  0  0  0
   -1.2823    0.4339    1.1396 C   0  0  0  0  0  0  0  0  0  0  0  0
   -0.1711   -0.3160    2.3661 S   0  0  0  0  0  0  0  0  0  0  0  0
   -2.4429    2.2083    0.7398 H   0  0  0  0  0  0  0  0  0  0  0  0
   -0.9035    2.5260    1.5447 H   0  0  0  0  0  0  0  0  0  0  0  0
   -2.2481    1.8462    2.4634 H   0  0  0  0  0  0  0  0  0  0  0  0
   -2.1293   -0.2519    1.0904 H   0  0  0  0  0  0  0  0  0  0  0  0
    0.8156    0.5840    2.2595 H   0  0  0  0  0  0  0  0  0  0  0  0
    0.8160    0.4984   -0.4297 C   0  0  0  0  0  0  0  0  0  0  0  0
    0.8160   -0.7001   -1.3119 C   0  0  0  0  0  0  0  0  0  0  0  0
    0.8160   -0.7001   -2.9186 S   0  0  0  0  0  1  0  0  0  0  0  0
   -0.2354    0.4661    0.3565 H   0  0  0  0  0  0  0  0  0  0  0  0
    1.6922    0.4715    0.2255 H   0  0  0  0  0  0  0  0  0  0  0  0
    0.8160    1.4222   -1.0044 H   0  0  0  0  0  0  0  0  0  0  0  0
    0.8160   -1.6545   -0.7820 H   0  0  0  0  0  0  0  0  0  0  0  0
  1  2  1  0
  1  4  1  0
  1  5  1  0
  1  6  1  0
  2  3  1  0
  2  7  1  0
  2 12  1  0
  3  8  1  0
  9 10  2  3
  9 13  1  0
  9 14  1  0
 10 11  1  0
 10 15  1  0
M  RAD  1  11   2
M  END
>  <reaction>  (15) 
rxn_1975

>  <mol_properties>  (15) 
{"1": {"label": "*3", "atom_type": "Cs"}, "2": {"label": "*4", "atom_type": "S2s"}, "8": {"label": "*1", "atom_type": "Cs"}, "9": {"label": "*0", "atom_type": "CS"}, "11": {"label": "*2", "atom_type": "H0"}}

>  <type>  (15) 
unop_11

>  <geom_source>  (15) 
Heuristics

$$$$

     RDKit          3D

 15 13  0  0  0  0  0  0  0  0999 V2000
   -1.5264   -1.0862    1.3390 C   0  0  0  0  0  0  0  0  0  0  0  0
   -0.6826    0.1495    1.5985 C   0  0  0  0  0  0  0  0  0  0  0  0
   -1.5880    1.7168    1.4390 S   0  0  0  0  0  0  0  0  0  0  0  0
   -0.9334   -1.9909    1.4929 H   0  0  0  0  0  0  0  0  0  0  0  0
   -1.8966   -1.0981    0.3123 H   0  0  0  0  0  0  0  0  0  0  0  0
   -2.3873   -1.1181    2.0073 H   0  0  0  0  0  0  0  0  0  0  0  0
   -0.3145    0.1558    2.6254 H   0  0  0  0  0  0  0  0  0  0  0  0
   -1.9057    1.5869    0.1439 H   0  0  0  0  0  0  0  0  0  0  0  0
    1.4158    0.2139    0.0292 C   0  0  0  0  0  0  0  0  0  0  0  0
    1.4158   -0.9846   -0.8530 C   0  0  0  0  0  0  0  0  0  0  0  0
    1.4158   -0.9846   -2.4597 S   0  0  0  0  0  1  0  0  0  0  0  0
    0.3644    0.1816    0.8155 H   0  0  0  0  0  0  0  0  0  0  0  0
    2.2919    0.1870    0.6844 H   0  0  0  0  0  0  0  0  0  0  0  0
    1.4158    1.1377   -0.5455 H   0  0  0  0  0  0  0  0  0  0  0  0
    1.4158   -1.9390   -0.3231 H   0  0  0  0  0  0  0  0  0  0  0  0
  1  2  1  0
  1  4  1  0
  1  5  1  0
  1  6  1  0
  2  3  1  0
  2  7  1  0
  2 12  1  0
  3  8  1  0
  9 10  2  3
  9 13  1  0
  9 14  1  0
 10 11  1  0
 10 15  1  0
M  RAD  1  11   2
M  END
>  <reaction>  (16) 
rxn_1975

>  <mol_properties>  (16) 
{"1": {"label": "*3", "atom_type": "Cs"}, "2": {"label": "*4", "atom_type": "S2s"}, "8": {"label": "*1", "atom_type": "Cs"}, "9": {"label": "*0", "atom_type": "CS"}, "11": {"label": "*2", "atom_type": "H0"}}

>  <type>  (16) 
unop_12

>  <geom_source>  (16) 
Heuristics

$$$$

     RDKit          3D

 15 13  0  0  0  0  0  0  0  0999 V2000
    2.1694    1.2968    0.3828 S   0  0  0  0  0  0  0  0  0  0  0  0
   -2.7969   -0.7277    1.2254 S   0  0  0  0  0  0  0  0  0  0  0  0
    1.0590   -0.1420    0.3350 C   0  0  0  0  0  3  0  0  0  0  0  0
    1.6367   -1.2222   -0.5649 C   0  0  0  0  0  0  0  0  0  0  0  0
   -1.3175    0.9016   -0.0388 C   0  0  0  0  0  0  0  0  0  0  0  0
   -2.4584   -0.0610    0.0015 C   0  0  0  0  0  0  0  0  0  0  0  0
    0.9315   -0.5411    1.3636 H   0  0  0  0  0  0  0  0  0  0  0  0
   -0.1821    0.2529   -0.1567 H   0  0  0  0  0  0  0  0  0  0  0  0
    1.7545   -0.8329   -1.5981 H   0  0  0  0  0  0  0  0  0  0  0  0
    2.6243   -1.5545   -0.1804 H   0  0  0  0  0  0  0  0  0  0  0  0
    0.9479   -2.0922   -0.5873 H   0  0  0  0  0  0  0  0  0  0  0  0
   -2.9940   -0.3079   -0.9095 H   0  0  0  0  0  0  0  0  0  0  0  0
   -1.5473    1.7951    0.5801 H   0  0  0  0  0  0  0  0  0  0  0  0
   -1.1311    1.2233   -1.0847 H   0  0  0  0  0  0  0  0  0  0  0  0
    1.3039    2.0116    1.2320 H   0  0  0  0  0  0  0  0  0  0  0  0
  1  3  1  0
  1 15  1  0
  2  6  2  0
  3  4  1  0
  3  7  1  0
  4  9  1  0
  4 10  1  0
  4 11  1  0
  5  6  1  0
  5  8  1  0
  5 13  1  0
  5 14  1  0
  6 12  1  0
M  RAD  1   3   2
M  END
>  <reaction>  (17) 
rxn_1975

>  <mol_properties>  (17) 
{"1": {"label": "*3", "atom_type": "Cs"}, "2": {"label": "*4", "atom_type": "S2s"}, "8": {"label": "*1", "atom_type": "Cs"}, "9": {"label": "*0", "atom_type": "CS"}, "11": {"label": "*2", "atom_type": "H0"}}

>  <type>  (17) 
unop_13

>  <geom_source>  (17) 
AutoTST

$$$$
