
     RDKit          3D

 13 12  0  0  0  0  0  0  0  0999 V2000
    2.2975   -0.6134    0.7685 C   0  0  0  0  0  0  0  0  0  0  0  0
    1.1676   -0.5248    0.3802 C   0  0  0  0  0  0  0  0  0  0  0  0
   -0.2109   -0.3926   -0.0948 C   0  0  0  0  0  0  0  0  0  0  0  0
   -0.2501    0.2584   -1.4808 C   0  0  0  0  0  0  0  0  0  0  0  0
   -1.0633    0.3831    0.9141 C   0  0  0  0  0  0  0  0  0  0  0  0
    3.2999   -0.6974    1.1133 H   0  0  0  0  0  0  0  0  0  0  0  0
   -0.6209   -1.4038   -0.1814 H   0  0  0  0  0  0  0  0  0  0  0  0
    0.3402   -0.3102   -2.1992 H   0  0  0  0  0  0  0  0  0  0  0  0
    0.1511    1.2724   -1.4369 H   0  0  0  0  0  0  0  0  0  0  0  0
   -1.2791    0.3109   -1.8407 H   0  0  0  0  0  0  0  0  0  0  0  0
   -0.6861    1.4008    1.0287 H   0  0  0  0  0  0  0  0  0  0  0  0
   -1.0492   -0.0971    1.8924 H   0  0  0  0  0  0  0  0  0  0  0  0
   -2.0971    0.4363    0.5680 H   0  0  0  0  0  0  0  0  0  0  0  0
  1  2  3  0
  1  6  1  0
  2  3  1  0
  3  4  1  0
  3  5  1  0
  3  7  1  0
  4  8  1  0
  4  9  1  0
  4 10  1  0
  5 11  1  0
  5 12  1  0
  5 13  1  0
M  END
>  <reaction>  (1) 
rxn_1314

>  <mol_properties>  (1) 
{"2": {"label": "donator", "atom_type": "Cs"}, "6": {"label": "d_hydrogen", "atom_type": "H0"}}

>  <type>  (1) 
r1h

$$$$

     RDKit          3D

 11 10  0  0  0  0  0  0  0  0999 V2000
   -0.9580    1.1013   -2.2955 C   0  0  0  0  0  0  0  0  0  0  0  0
   -0.5129    0.5941   -1.2929 C   0  0  0  0  0  0  0  0  0  0  0  0
   -0.0301   -0.0160   -0.1357 C   0  0  0  0  0  3  0  0  0  0  0  0
   -0.6593   -1.2845    0.3661 C   0  0  0  0  0  0  0  0  0  0  0  0
    1.0691    0.5292    0.5269 C   0  0  0  0  0  0  0  0  0  0  0  0
    2.0168    0.9794    1.1266 C   0  0  0  0  0  0  0  0  0  0  0  0
   -1.3415    1.5561   -3.1769 H   0  0  0  0  0  0  0  0  0  0  0  0
   -1.7166   -1.3186    0.1054 H   0  0  0  0  0  0  0  0  0  0  0  0
   -0.1742   -2.1550   -0.0865 H   0  0  0  0  0  0  0  0  0  0  0  0
   -0.5505   -1.3663    1.4470 H   0  0  0  0  0  0  0  0  0  0  0  0
    2.8514    1.3842    1.6465 H   0  0  0  0  0  0  0  0  0  0  0  0
  1  2  3  0
  1  7  1  0
  2  3  1  0
  3  4  1  0
  3  5  1  0
  4  8  1  0
  4  9  1  0
  4 10  1  0
  5  6  3  0
  6 11  1  0
M  RAD  1   3   2
M  END
>  <reaction>  (2) 
rxn_1314

>  <mol_properties>  (2) 
{"2": {"label": "acceptor", "atom_type": "Cs"}}

>  <type>  (2) 
r2

$$$$

     RDKit          3D

 12 11  0  0  0  0  0  0  0  0999 V2000
    2.1696    0.6854    1.1310 C   0  0  0  0  0  0  0  0  0  0  0  0
    1.2518    0.4145    0.4134 C   0  0  0  0  0  0  0  0  0  0  0  0
    0.1391    0.0443   -0.4683 C   0  0  0  0  0  0  0  0  0  0  0  0
   -0.2054   -1.4492   -0.3339 C   0  0  0  0  0  0  0  0  0  0  0  0
   -1.0375    0.8853   -0.2222 C   0  0  0  0  0  0  0  0  0  0  0  0
   -2.0160    1.5463   -0.0311 C   0  0  0  0  0  0  0  0  0  0  0  0
    2.9819    0.9356    1.7702 H   0  0  0  0  0  0  0  0  0  0  0  0
    0.4629    0.2285   -1.4981 H   0  0  0  0  0  0  0  0  0  0  0  0
   -0.5327   -1.6703    0.6812 H   0  0  0  0  0  0  0  0  0  0  0  0
    0.6727   -2.0535   -0.5593 H   0  0  0  0  0  0  0  0  0  0  0  0
   -1.0064   -1.7081   -1.0256 H   0  0  0  0  0  0  0  0  0  0  0  0
   -2.8802    2.1413    0.1426 H   0  0  0  0  0  0  0  0  0  0  0  0
  1  2  3  0
  1  7  1  0
  2  3  1  0
  3  4  1  0
  3  5  1  0
  3  8  1  0
  4  9  1  0
  4 10  1  0
  4 11  1  0
  5  6  3  0
  6 12  1  0
M  END
>  <reaction>  (3) 
rxn_1314

>  <mol_properties>  (3) 
{"2": {"label": "acceptor", "atom_type": "Cs"}, "11": {"label": "a_hydrogen", "atom_type": "H0"}}

>  <type>  (3) 
r2h

$$$$

     RDKit          3D

 24 22  0  0  0  0  0  0  0  0999 V2000
    1.1490   -2.2603   -1.3229 C   0  0  0  0  0  0  0  0  0  0  0  0
    0.5676   -1.7336   -0.4147 C   0  0  0  0  0  0  0  0  0  0  0  0
   -0.1552   -1.0490    0.6211 C   0  0  0  0  0  0  0  0  0  0  0  0
   -1.6442   -1.3579    0.6893 C   0  0  0  0  0  0  0  0  0  0  0  0
    0.5217   -0.9681    1.8862 C   0  0  0  0  0  0  0  0  0  0  0  0
    1.0665   -0.8427    2.9488 C   0  0  0  0  0  0  0  0  0  0  0  0
    1.6677   -2.7403   -2.1173 H   0  0  0  0  0  0  0  0  0  0  0  0
   -2.0993   -1.1865   -0.2862 H   0  0  0  0  0  0  0  0  0  0  0  0
   -1.8116   -2.3969    0.9783 H   0  0  0  0  0  0  0  0  0  0  0  0
   -2.1246   -0.7116    1.4236 H   0  0  0  0  0  0  0  0  0  0  0  0
    1.5546   -0.7549    3.8894 H   0  0  0  0  0  0  0  0  0  0  0  0
   -1.6592    1.4104   -2.3651 C   0  0  0  0  0  0  0  0  0  0  0  0
   -0.9661    1.4871   -1.3839 C   0  0  0  0  0  0  0  0  0  0  0  0
   -0.1558    1.5136   -0.2132 C   0  0  0  0  0  3  0  0  0  0  0  0
   -0.7454    2.2220    0.9857 C   0  0  0  0  0  0  0  0  0  0  0  0
    1.3252    1.7204   -0.4353 C   0  0  0  0  0  0  0  0  0  0  0  0
   -2.2661    1.3555   -3.2364 H   0  0  0  0  0  0  0  0  0  0  0  0
   -0.1644    0.2039    0.1895 H   0  0  0  0  0  0  0  0  0  0  0  0
   -1.7973    1.9697    1.1176 H   0  0  0  0  0  0  0  0  0  0  0  0
   -0.6708    3.3069    0.8639 H   0  0  0  0  0  0  0  0  0  0  0  0
   -0.2008    1.9441    1.8900 H   0  0  0  0  0  0  0  0  0  0  0  0
    1.5324    2.7612   -0.7017 H   0  0  0  0  0  0  0  0  0  0  0  0
    1.6936    1.0807   -1.2368 H   0  0  0  0  0  0  0  0  0  0  0  0
    1.8753    1.4860    0.4781 H   0  0  0  0  0  0  0  0  0  0  0  0
  1  2  3  0
  1  7  1  0
  2  3  1  0
  3  4  1  0
  3  5  1  0
  3 18  1  0
  4  8  1  0
  4  9  1  0
  4 10  1  0
  5  6  3  0
  6 11  1  0
 12 13  3  0
 12 17  1  0
 13 14  1  0
 14 15  1  0
 14 16  1  0
 15 19  1  0
 15 20  1  0
 15 21  1  0
 16 22  1  0
 16 23  1  0
 16 24  1  0
M  RAD  1  14   2
M  END
>  <reaction>  (4) 
rxn_1314

>  <mol_properties>  (4) 
{"1": {"label": "*0", "atom_type": "Ct"}, "2": {"label": "*1", "atom_type": "Cs"}, "12": {"label": "*4", "atom_type": "Ct"}, "13": {"label": "*3", "atom_type": "Cs"}, "17": {"label": "*2", "atom_type": "H0"}}

>  <type>  (4) 
ts

$$$$

     RDKit          3D

 24 22  0  0  0  0  0  0  0  0999 V2000
    2.2230   -1.6655    1.7393 C   0  0  0  0  0  0  0  0  0  0  0  0
    1.2275   -1.4767    1.1035 C   0  0  0  0  0  0  0  0  0  0  0  0
    0.0149   -1.2777    0.3020 C   0  0  0  0  0  3  0  0  0  0  0  0
   -0.4961   -2.6093   -0.2754 C   0  0  0  0  0  0  0  0  0  0  0  0
   -1.0297   -0.5987    1.0766 C   0  0  0  0  0  0  0  0  0  0  0  0
   -1.9040   -0.0603    1.6902 C   0  0  0  0  0  0  0  0  0  0  0  0
    3.1080   -1.8333    2.3045 H   0  0  0  0  0  0  0  0  0  0  0  0
    0.2831   -3.0749   -0.8780 H   0  0  0  0  0  0  0  0  0  0  0  0
   -0.7700   -3.2888    0.5306 H   0  0  0  0  0  0  0  0  0  0  0  0
   -1.3725   -2.4310   -0.8977 H   0  0  0  0  0  0  0  0  0  0  0  0
   -2.6814    0.4184    2.2356 H   0  0  0  0  0  0  0  0  0  0  0  0
    0.0149    1.1961   -3.1758 C   0  0  0  0  0  0  0  0  0  0  0  0
    0.0149    1.1961   -1.9777 C   0  0  0  0  0  0  0  0  0  0  0  0
    0.0149    1.2200   -0.5139 C   0  0  0  0  0  0  0  0  0  0  0  0
   -1.2512    1.8965    0.0204 C   0  0  0  0  0  0  0  0  0  0  0  0
    1.2811    1.8965    0.0204 C   0  0  0  0  0  0  0  0  0  0  0  0
    0.0149    1.1961   -4.2391 H   0  0  0  0  0  0  0  0  0  0  0  0
    0.0149   -0.0286   -0.1060 H   0  0  0  0  0  0  0  0  0  0  0  0
   -2.1482    1.3972   -0.3455 H   0  0  0  0  0  0  0  0  0  0  0  0
   -1.2885    2.9400   -0.2971 H   0  0  0  0  0  0  0  0  0  0  0  0
   -1.2585    1.8685    1.1115 H   0  0  0  0  0  0  0  0  0  0  0  0
    1.3184    2.9400   -0.2971 H   0  0  0  0  0  0  0  0  0  0  0  0
    2.1781    1.3971   -0.3455 H   0  0  0  0  0  0  0  0  0  0  0  0
    1.2884    1.8685    1.1115 H   0  0  0  0  0  0  0  0  0  0  0  0
  1  2  3  0
  1  7  1  0
  2  3  1  0
  3  4  1  0
  3  5  1  0
  4  8  1  0
  4  9  1  0
  4 10  1  0
  5  6  3  0
  6 11  1  0
 12 13  3  0
 12 17  1  0
 13 14  1  0
 14 15  1  0
 14 16  1  0
 14 18  1  0
 15 19  1  0
 15 20  1  0
 15 21  1  0
 16 22  1  0
 16 23  1  0
 16 24  1  0
M  RAD  1   3   2
M  END
>  <reaction>  (5) 
rxn_1314

>  <mol_properties>  (5) 
{"1": {"label": "*0", "atom_type": "Ct"}, "2": {"label": "*1", "atom_type": "Cs"}, "12": {"label": "*4", "atom_type": "Ct"}, "13": {"label": "*3", "atom_type": "Cs"}, "17": {"label": "*2", "atom_type": "H0"}}

>  <type>  (5) 
unop_1

>  <geom_source>  (5) 
Heuristics

$$$$

     RDKit          3D

 24 22  0  0  0  0  0  0  0  0999 V2000
    0.9895   -2.5626   -1.3037 C   0  0  0  0  0  0  0  0  0  0  0  0
    0.4472   -1.9024   -0.4666 C   0  0  0  0  0  0  0  0  0  0  0  0
   -0.2529   -1.1096    0.5501 C   0  0  0  0  0  3  0  0  0  0  0  0
   -1.5299   -1.8213    1.0300 C   0  0  0  0  0  0  0  0  0  0  0  0
    0.6310   -0.7877    1.6759 C   0  0  0  0  0  0  0  0  0  0  0  0
    1.3256   -0.5246    2.6135 C   0  0  0  0  0  0  0  0  0  0  0  0
    1.4717   -3.1495   -2.0480 H   0  0  0  0  0  0  0  0  0  0  0  0
   -2.1869   -2.0142    0.1826 H   0  0  0  0  0  0  0  0  0  0  0  0
   -1.2775   -2.7700    1.5019 H   0  0  0  0  0  0  0  0  0  0  0  0
   -2.0521   -1.1967    1.7540 H   0  0  0  0  0  0  0  0  0  0  0  0
    1.9432   -0.2906    3.4471 H   0  0  0  0  0  0  0  0  0  0  0  0
   -0.2529    1.3643   -2.9277 C   0  0  0  0  0  0  0  0  0  0  0  0
   -0.2529    1.3643   -1.7296 C   0  0  0  0  0  0  0  0  0  0  0  0
   -0.2529    1.3882   -0.2658 C   0  0  0  0  0  0  0  0  0  0  0  0
   -1.5190    2.0647    0.2685 C   0  0  0  0  0  0  0  0  0  0  0  0
    1.0133    2.0646    0.2685 C   0  0  0  0  0  0  0  0  0  0  0  0
   -0.2529    1.3643   -3.9910 H   0  0  0  0  0  0  0  0  0  0  0  0
   -0.2529    0.1395    0.1421 H   0  0  0  0  0  0  0  0  0  0  0  0
   -2.4160    1.5654   -0.0974 H   0  0  0  0  0  0  0  0  0  0  0  0
   -1.5563    3.1082   -0.0490 H   0  0  0  0  0  0  0  0  0  0  0  0
   -1.5263    2.0367    1.3596 H   0  0  0  0  0  0  0  0  0  0  0  0
    1.0506    3.1081   -0.0490 H   0  0  0  0  0  0  0  0  0  0  0  0
    1.9103    1.5653   -0.0974 H   0  0  0  0  0  0  0  0  0  0  0  0
    1.0206    2.0366    1.3596 H   0  0  0  0  0  0  0  0  0  0  0  0
  1  2  3  0
  1  7  1  0
  2  3  1  0
  3  4  1  0
  3  5  1  0
  4  8  1  0
  4  9  1  0
  4 10  1  0
  5  6  3  0
  6 11  1  0
 12 13  3  0
 12 17  1  0
 13 14  1  0
 14 15  1  0
 14 16  1  0
 14 18  1  0
 15 19  1  0
 15 20  1  0
 15 21  1  0
 16 22  1  0
 16 23  1  0
 16 24  1  0
M  RAD  1   3   2
M  END
>  <reaction>  (6) 
rxn_1314

>  <mol_properties>  (6) 
{"1": {"label": "*0", "atom_type": "Ct"}, "2": {"label": "*1", "atom_type": "Cs"}, "12": {"label": "*4", "atom_type": "Ct"}, "13": {"label": "*3", "atom_type": "Cs"}, "17": {"label": "*2", "atom_type": "H0"}}

>  <type>  (6) 
unop_2

>  <geom_source>  (6) 
Heuristics

$$$$

     RDKit          3D

 24 22  0  0  0  0  0  0  0  0999 V2000
    1.4471   -1.3001    2.6814 C   0  0  0  0  0  0  0  0  0  0  0  0
    0.8539   -1.2479    1.6440 C   0  0  0  0  0  0  0  0  0  0  0  0
    0.1538   -1.2082    0.3554 C   0  0  0  0  0  3  0  0  0  0  0  0
    0.4286   -2.4789   -0.4676 C   0  0  0  0  0  0  0  0  0  0  0  0
   -1.2861   -0.9946    0.5382 C   0  0  0  0  0  0  0  0  0  0  0  0
   -2.4656   -0.8369    0.6596 C   0  0  0  0  0  0  0  0  0  0  0  0
    1.9745   -1.3465    3.6037 H   0  0  0  0  0  0  0  0  0  0  0  0
    1.5007   -2.5945   -0.6233 H   0  0  0  0  0  0  0  0  0  0  0  0
    0.0533   -3.3562    0.0577 H   0  0  0  0  0  0  0  0  0  0  0  0
   -0.0688   -2.4087   -1.4344 H   0  0  0  0  0  0  0  0  0  0  0  0
   -3.5142   -0.6967    0.7676 H   0  0  0  0  0  0  0  0  0  0  0  0
    0.1539    1.2657   -3.1225 C   0  0  0  0  0  0  0  0  0  0  0  0
    0.1539    1.2657   -1.9244 C   0  0  0  0  0  0  0  0  0  0  0  0
    0.1539    1.2896   -0.4606 C   0  0  0  0  0  0  0  0  0  0  0  0
   -1.1122    1.9661    0.0738 C   0  0  0  0  0  0  0  0  0  0  0  0
    1.4200    1.9660    0.0738 C   0  0  0  0  0  0  0  0  0  0  0  0
    0.1539    1.2657   -4.1858 H   0  0  0  0  0  0  0  0  0  0  0  0
    0.1538    0.0410   -0.0527 H   0  0  0  0  0  0  0  0  0  0  0  0
   -2.0093    1.4668   -0.2922 H   0  0  0  0  0  0  0  0  0  0  0  0
   -1.1496    3.0096   -0.2437 H   0  0  0  0  0  0  0  0  0  0  0  0
   -1.1196    1.9381    1.1648 H   0  0  0  0  0  0  0  0  0  0  0  0
    1.4574    3.0096   -0.2437 H   0  0  0  0  0  0  0  0  0  0  0  0
    2.3170    1.4667   -0.2922 H   0  0  0  0  0  0  0  0  0  0  0  0
    1.4273    1.9380    1.1648 H   0  0  0  0  0  0  0  0  0  0  0  0
  1  2  3  0
  1  7  1  0
  2  3  1  0
  3  4  1  0
  3  5  1  0
  4  8  1  0
  4  9  1  0
  4 10  1  0
  5  6  3  0
  6 11  1  0
 12 13  3  0
 12 17  1  0
 13 14  1  0
 14 15  1  0
 14 16  1  0
 14 18  1  0
 15 19  1  0
 15 20  1  0
 15 21  1  0
 16 22  1  0
 16 23  1  0
 16 24  1  0
M  RAD  1   3   2
M  END
>  <reaction>  (7) 
rxn_1314

>  <mol_properties>  (7) 
{"1": {"label": "*0", "atom_type": "Ct"}, "2": {"label": "*1", "atom_type": "Cs"}, "12": {"label": "*4", "atom_type": "Ct"}, "13": {"label": "*3", "atom_type": "Cs"}, "17": {"label": "*2", "atom_type": "H0"}}

>  <type>  (7) 
unop_3

>  <geom_source>  (7) 
Heuristics

$$$$

     RDKit          3D

 24 22  0  0  0  0  0  0  0  0999 V2000
   -2.1593   -2.1134   -0.3622 C   0  0  0  0  0  0  0  0  0  0  0  0
   -1.1526   -1.6186    0.0532 C   0  0  0  0  0  0  0  0  0  0  0  0
    0.0600   -0.9849    0.5827 C   0  0  0  0  0  3  0  0  0  0  0  0
   -0.2179   -0.2833    1.9236 C   0  0  0  0  0  0  0  0  0  0  0  0
    1.1557   -1.9527    0.7065 C   0  0  0  0  0  0  0  0  0  0  0  0
    2.0611   -2.7242    0.8322 C   0  0  0  0  0  0  0  0  0  0  0  0
   -3.0543   -2.5532   -0.7315 H   0  0  0  0  0  0  0  0  0  0  0  0
   -1.0070    0.4572    1.7974 H   0  0  0  0  0  0  0  0  0  0  0  0
   -0.5345   -1.0102    2.6705 H   0  0  0  0  0  0  0  0  0  0  0  0
    0.6860    0.2122    2.2766 H   0  0  0  0  0  0  0  0  0  0  0  0
    2.8660   -3.4102    0.9440 H   0  0  0  0  0  0  0  0  0  0  0  0
    0.0601    1.4889   -2.8951 C   0  0  0  0  0  0  0  0  0  0  0  0
    0.0601    1.4889   -1.6970 C   0  0  0  0  0  0  0  0  0  0  0  0
    0.0601    1.5129   -0.2332 C   0  0  0  0  0  0  0  0  0  0  0  0
   -1.2061    2.1893    0.3012 C   0  0  0  0  0  0  0  0  0  0  0  0
    1.3262    2.1893    0.3012 C   0  0  0  0  0  0  0  0  0  0  0  0
    0.0601    1.4889   -3.9584 H   0  0  0  0  0  0  0  0  0  0  0  0
    0.0600    0.2642    0.1747 H   0  0  0  0  0  0  0  0  0  0  0  0
   -2.1031    1.6900   -0.0648 H   0  0  0  0  0  0  0  0  0  0  0  0
   -1.2434    3.2328   -0.0164 H   0  0  0  0  0  0  0  0  0  0  0  0
   -1.2134    2.1613    1.3922 H   0  0  0  0  0  0  0  0  0  0  0  0
    1.3636    3.2328   -0.0164 H   0  0  0  0  0  0  0  0  0  0  0  0
    2.2232    1.6900   -0.0648 H   0  0  0  0  0  0  0  0  0  0  0  0
    1.3335    2.1613    1.3922 H   0  0  0  0  0  0  0  0  0  0  0  0
  1  2  3  0
  1  7  1  0
  2  3  1  0
  3  4  1  0
  3  5  1  0
  4  8  1  0
  4  9  1  0
  4 10  1  0
  5  6  3  0
  6 11  1  0
 12 13  3  0
 12 17  1  0
 13 14  1  0
 14 15  1  0
 14 16  1  0
 14 18  1  0
 15 19  1  0
 15 20  1  0
 15 21  1  0
 16 22  1  0
 16 23  1  0
 16 24  1  0
M  RAD  1   3   2
M  END
>  <reaction>  (8) 
rxn_1314

>  <mol_properties>  (8) 
{"1": {"label": "*0", "atom_type": "Ct"}, "2": {"label": "*1", "atom_type": "Cs"}, "12": {"label": "*4", "atom_type": "Ct"}, "13": {"label": "*3", "atom_type": "Cs"}, "17": {"label": "*2", "atom_type": "H0"}}

>  <type>  (8) 
unop_4

>  <geom_source>  (8) 
Heuristics

$$$$

     RDKit          3D

 24 22  0  0  0  0  0  0  0  0999 V2000
    0.1951   -1.0446    3.1193 C   0  0  0  0  0  0  0  0  0  0  0  0
    0.1624   -1.0587    1.9237 C   0  0  0  0  0  0  0  0  0  0  0  0
    0.1624   -1.0772    0.4567 C   0  0  0  0  0  3  0  0  0  0  0  0
    1.4270   -1.7608   -0.0920 C   0  0  0  0  0  0  0  0  0  0  0  0
   -1.0533   -1.7092   -0.0677 C   0  0  0  0  0  0  0  0  0  0  0  0
   -2.0277   -2.2339   -0.5216 C   0  0  0  0  0  0  0  0  0  0  0  0
    0.2241   -1.0321    4.1823 H   0  0  0  0  0  0  0  0  0  0  0  0
    2.3148   -1.2501    0.2796 H   0  0  0  0  0  0  0  0  0  0  0  0
    1.4610   -2.8016    0.2272 H   0  0  0  0  0  0  0  0  0  0  0  0
    1.4231   -1.7272   -1.1810 H   0  0  0  0  0  0  0  0  0  0  0  0
   -2.8940   -2.7004   -0.9251 H   0  0  0  0  0  0  0  0  0  0  0  0
    0.1625    1.3967   -3.0211 C   0  0  0  0  0  0  0  0  0  0  0  0
    0.1625    1.3967   -1.8230 C   0  0  0  0  0  0  0  0  0  0  0  0
    0.1625    1.4206   -0.3592 C   0  0  0  0  0  0  0  0  0  0  0  0
   -1.1036    2.0971    0.1751 C   0  0  0  0  0  0  0  0  0  0  0  0
    1.4286    2.0970    0.1751 C   0  0  0  0  0  0  0  0  0  0  0  0
    0.1625    1.3967   -4.0844 H   0  0  0  0  0  0  0  0  0  0  0  0
    0.1625    0.1719    0.0487 H   0  0  0  0  0  0  0  0  0  0  0  0
   -2.0007    1.5978   -0.1908 H   0  0  0  0  0  0  0  0  0  0  0  0
   -1.1410    3.1406   -0.1424 H   0  0  0  0  0  0  0  0  0  0  0  0
   -1.1110    2.0691    1.2662 H   0  0  0  0  0  0  0  0  0  0  0  0
    1.4660    3.1405   -0.1424 H   0  0  0  0  0  0  0  0  0  0  0  0
    2.3256    1.5977   -0.1908 H   0  0  0  0  0  0  0  0  0  0  0  0
    1.4359    2.0690    1.2662 H   0  0  0  0  0  0  0  0  0  0  0  0
  1  2  3  0
  1  7  1  0
  2  3  1  0
  3  4  1  0
  3  5  1  0
  4  8  1  0
  4  9  1  0
  4 10  1  0
  5  6  3  0
  6 11  1  0
 12 13  3  0
 12 17  1  0
 13 14  1  0
 14 15  1  0
 14 16  1  0
 14 18  1  0
 15 19  1  0
 15 20  1  0
 15 21  1  0
 16 22  1  0
 16 23  1  0
 16 24  1  0
M  RAD  1   3   2
M  END
>  <reaction>  (9) 
rxn_1314

>  <mol_properties>  (9) 
{"1": {"label": "*0", "atom_type": "Ct"}, "2": {"label": "*1", "atom_type": "Cs"}, "12": {"label": "*4", "atom_type": "Ct"}, "13": {"label": "*3", "atom_type": "Cs"}, "17": {"label": "*2", "atom_type": "H0"}}

>  <type>  (9) 
unop_5

>  <geom_source>  (9) 
Heuristics

$$$$

     RDKit          3D

 24 22  0  0  0  0  0  0  0  0999 V2000
   -2.4682   -1.7367    0.7809 C   0  0  0  0  0  0  0  0  0  0  0  0
   -1.3211   -1.4233    0.6510 C   0  0  0  0  0  0  0  0  0  0  0  0
    0.0791   -1.0070    0.5150 C   0  0  0  0  0  3  0  0  0  0  0  0
    0.5336   -0.1757    1.7274 C   0  0  0  0  0  0  0  0  0  0  0  0
    0.9593   -2.1613    0.3022 C   0  0  0  0  0  0  0  0  0  0  0  0
    1.7012   -3.0860    0.1432 C   0  0  0  0  0  0  0  0  0  0  0  0
   -3.4880   -2.0153    0.8964 H   0  0  0  0  0  0  0  0  0  0  0  0
   -0.1105    0.6957    1.8412 H   0  0  0  0  0  0  0  0  0  0  0  0
    0.4789   -0.7739    2.6360 H   0  0  0  0  0  0  0  0  0  0  0  0
    1.5621    0.1545    1.5853 H   0  0  0  0  0  0  0  0  0  0  0  0
    2.3608   -3.9081    0.0018 H   0  0  0  0  0  0  0  0  0  0  0  0
    0.0791    1.4668   -2.9628 C   0  0  0  0  0  0  0  0  0  0  0  0
    0.0791    1.4668   -1.7647 C   0  0  0  0  0  0  0  0  0  0  0  0
    0.0791    1.4907   -0.3009 C   0  0  0  0  0  0  0  0  0  0  0  0
   -1.1870    2.1672    0.2335 C   0  0  0  0  0  0  0  0  0  0  0  0
    1.3452    2.1672    0.2335 C   0  0  0  0  0  0  0  0  0  0  0  0
    0.0791    1.4668   -4.0261 H   0  0  0  0  0  0  0  0  0  0  0  0
    0.0791    0.2421    0.1070 H   0  0  0  0  0  0  0  0  0  0  0  0
   -2.0841    1.6679   -0.1325 H   0  0  0  0  0  0  0  0  0  0  0  0
   -1.2243    3.2107   -0.0841 H   0  0  0  0  0  0  0  0  0  0  0  0
   -1.1943    2.1392    1.3245 H   0  0  0  0  0  0  0  0  0  0  0  0
    1.3826    3.2107   -0.0841 H   0  0  0  0  0  0  0  0  0  0  0  0
    2.2423    1.6678   -0.1325 H   0  0  0  0  0  0  0  0  0  0  0  0
    1.3526    2.1392    1.3245 H   0  0  0  0  0  0  0  0  0  0  0  0
  1  2  3  0
  1  7  1  0
  2  3  1  0
  3  4  1  0
  3  5  1  0
  4  8  1  0
  4  9  1  0
  4 10  1  0
  5  6  3  0
  6 11  1  0
 12 13  3  0
 12 17  1  0
 13 14  1  0
 14 15  1  0
 14 16  1  0
 14 18  1  0
 15 19  1  0
 15 20  1  0
 15 21  1  0
 16 22  1  0
 16 23  1  0
 16 24  1  0
M  RAD  1   3   2
M  END
>  <reaction>  (10) 
rxn_1314

>  <mol_properties>  (10) 
{"1": {"label": "*0", "atom_type": "Ct"}, "2": {"label": "*1", "atom_type": "Cs"}, "12": {"label": "*4", "atom_type": "Ct"}, "13": {"label": "*3", "atom_type": "Cs"}, "17": {"label": "*2", "atom_type": "H0"}}

>  <type>  (10) 
unop_6

>  <geom_source>  (10) 
Heuristics

$$$$

     RDKit          3D

 24 22  0  0  0  0  0  0  0  0999 V2000
   -2.1317   -1.3533    1.9549 C   0  0  0  0  0  0  0  0  0  0  0  0
   -1.1515   -1.2167    1.2830 C   0  0  0  0  0  0  0  0  0  0  0  0
    0.0611   -1.0179    0.4815 C   0  0  0  0  0  3  0  0  0  0  0  0
    1.1641   -0.3264    1.3018 C   0  0  0  0  0  0  0  0  0  0  0  0
    0.5366   -2.2837   -0.0875 C   0  0  0  0  0  0  0  0  0  0  0  0
    0.9548   -3.3041   -0.5509 C   0  0  0  0  0  0  0  0  0  0  0  0
   -3.0031   -1.4746    2.5523 H   0  0  0  0  0  0  0  0  0  0  0  0
    0.8005    0.6283    1.6804 H   0  0  0  0  0  0  0  0  0  0  0  0
    1.4539   -0.9515    2.1454 H   0  0  0  0  0  0  0  0  0  0  0  0
    2.0386   -0.1543    0.6752 H   0  0  0  0  0  0  0  0  0  0  0  0
    1.3266   -4.2113   -0.9628 H   0  0  0  0  0  0  0  0  0  0  0  0
    0.0611    1.4560   -2.9963 C   0  0  0  0  0  0  0  0  0  0  0  0
    0.0611    1.4560   -1.7982 C   0  0  0  0  0  0  0  0  0  0  0  0
    0.0611    1.4799   -0.3344 C   0  0  0  0  0  0  0  0  0  0  0  0
   -1.2050    2.1564    0.2000 C   0  0  0  0  0  0  0  0  0  0  0  0
    1.3273    2.1564    0.2000 C   0  0  0  0  0  0  0  0  0  0  0  0
    0.0611    1.4560   -4.0596 H   0  0  0  0  0  0  0  0  0  0  0  0
    0.0611    0.2313    0.0735 H   0  0  0  0  0  0  0  0  0  0  0  0
   -2.1020    1.6571   -0.1660 H   0  0  0  0  0  0  0  0  0  0  0  0
   -1.2423    3.1999   -0.1176 H   0  0  0  0  0  0  0  0  0  0  0  0
   -1.2123    2.1284    1.2910 H   0  0  0  0  0  0  0  0  0  0  0  0
    1.3646    3.1999   -0.1176 H   0  0  0  0  0  0  0  0  0  0  0  0
    2.2243    1.6570   -0.1660 H   0  0  0  0  0  0  0  0  0  0  0  0
    1.3346    2.1284    1.2910 H   0  0  0  0  0  0  0  0  0  0  0  0
  1  2  3  0
  1  7  1  0
  2  3  1  0
  3  4  1  0
  3  5  1  0
  4  8  1  0
  4  9  1  0
  4 10  1  0
  5  6  3  0
  6 11  1  0
 12 13  3  0
 12 17  1  0
 13 14  1  0
 14 15  1  0
 14 16  1  0
 14 18  1  0
 15 19  1  0
 15 20  1  0
 15 21  1  0
 16 22  1  0
 16 23  1  0
 16 24  1  0
M  RAD  1   3   2
M  END
>  <reaction>  (11) 
rxn_1314

>  <mol_properties>  (11) 
{"1": {"label": "*0", "atom_type": "Ct"}, "2": {"label": "*1", "atom_type": "Cs"}, "12": {"label": "*4", "atom_type": "Ct"}, "13": {"label": "*3", "atom_type": "Cs"}, "17": {"label": "*2", "atom_type": "H0"}}

>  <type>  (11) 
unop_7

>  <geom_source>  (11) 
Heuristics

$$$$

     RDKit          3D

 24 22  0  0  0  0  0  0  0  0999 V2000
    2.3955   -2.0522    0.5630 C   0  0  0  0  0  0  0  0  0  0  0  0
    1.2606   -1.6860    0.4696 C   0  0  0  0  0  0  0  0  0  0  0  0
   -0.1396   -1.2697    0.3336 C   0  0  0  0  0  3  0  0  0  0  0  0
   -1.0647   -2.4828    0.1335 C   0  0  0  0  0  0  0  0  0  0  0  0
   -0.5673   -0.4584    1.4787 C   0  0  0  0  0  0  0  0  0  0  0  0
   -0.9466    0.1923    2.4080 C   0  0  0  0  0  0  0  0  0  0  0  0
    3.4045   -2.3778    0.6460 H   0  0  0  0  0  0  0  0  0  0  0  0
   -0.7511   -3.0467   -0.7444 H   0  0  0  0  0  0  0  0  0  0  0  0
   -1.0228   -3.1360    1.0041 H   0  0  0  0  0  0  0  0  0  0  0  0
   -2.0918   -2.1464   -0.0043 H   0  0  0  0  0  0  0  0  0  0  0  0
   -1.2838    0.7707    3.2342 H   0  0  0  0  0  0  0  0  0  0  0  0
   -0.1395    1.2041   -3.1442 C   0  0  0  0  0  0  0  0  0  0  0  0
   -0.1395    1.2041   -1.9461 C   0  0  0  0  0  0  0  0  0  0  0  0
   -0.1395    1.2281   -0.4823 C   0  0  0  0  0  0  0  0  0  0  0  0
   -1.4056    1.9046    0.0520 C   0  0  0  0  0  0  0  0  0  0  0  0
    1.1266    1.9045    0.0520 C   0  0  0  0  0  0  0  0  0  0  0  0
   -0.1395    1.2041   -4.2075 H   0  0  0  0  0  0  0  0  0  0  0  0
   -0.1396   -0.0206   -0.0744 H   0  0  0  0  0  0  0  0  0  0  0  0
   -2.3027    1.4053   -0.3139 H   0  0  0  0  0  0  0  0  0  0  0  0
   -1.4430    2.9481   -0.2655 H   0  0  0  0  0  0  0  0  0  0  0  0
   -1.4130    1.8766    1.1431 H   0  0  0  0  0  0  0  0  0  0  0  0
    1.1640    2.9480   -0.2655 H   0  0  0  0  0  0  0  0  0  0  0  0
    2.0236    1.4052   -0.3139 H   0  0  0  0  0  0  0  0  0  0  0  0
    1.1339    1.8765    1.1431 H   0  0  0  0  0  0  0  0  0  0  0  0
  1  2  3  0
  1  7  1  0
  2  3  1  0
  3  4  1  0
  3  5  1  0
  4  8  1  0
  4  9  1  0
  4 10  1  0
  5  6  3  0
  6 11  1  0
 12 13  3  0
 12 17  1  0
 13 14  1  0
 14 15  1  0
 14 16  1  0
 14 18  1  0
 15 19  1  0
 15 20  1  0
 15 21  1  0
 16 22  1  0
 16 23  1  0
 16 24  1  0
M  RAD  1   3   2
M  END
>  <reaction>  (12) 
rxn_1314

>  <mol_properties>  (12) 
{"1": {"label": "*0", "atom_type": "Ct"}, "2": {"label": "*1", "atom_type": "Cs"}, "12": {"label": "*4", "atom_type": "Ct"}, "13": {"label": "*3", "atom_type": "Cs"}, "17": {"label": "*2", "atom_type": "H0"}}

>  <type>  (12) 
unop_8

>  <geom_source>  (12) 
Heuristics

$$$$

     RDKit          3D

 24 22  0  0  0  0  0  0  0  0999 V2000
   -1.3288   -2.4037   -1.1940 C   0  0  0  0  0  0  0  0  0  0  0  0
   -0.7296   -1.7702   -0.3752 C   0  0  0  0  0  0  0  0  0  0  0  0
   -0.0295   -0.9774    0.6415 C   0  0  0  0  0  3  0  0  0  0  0  0
   -0.9506   -0.6599    1.8324 C   0  0  0  0  0  0  0  0  0  0  0  0
    1.1997   -1.6450    1.0837 C   0  0  0  0  0  0  0  0  0  0  0  0
    2.1988   -2.1749    1.4734 C   0  0  0  0  0  0  0  0  0  0  0  0
   -1.8614   -2.9670   -1.9220 H   0  0  0  0  0  0  0  0  0  0  0  0
   -1.8368   -0.1302    1.4841 H   0  0  0  0  0  0  0  0  0  0  0  0
   -1.2622   -1.5809    2.3234 H   0  0  0  0  0  0  0  0  0  0  0  0
   -0.4217   -0.0384    2.5542 H   0  0  0  0  0  0  0  0  0  0  0  0
    3.0870   -2.6460    1.8199 H   0  0  0  0  0  0  0  0  0  0  0  0
   -0.0295    1.4965   -2.8364 C   0  0  0  0  0  0  0  0  0  0  0  0
   -0.0295    1.4965   -1.6383 C   0  0  0  0  0  0  0  0  0  0  0  0
   -0.0295    1.5204   -0.1745 C   0  0  0  0  0  0  0  0  0  0  0  0
   -1.2956    2.1969    0.3599 C   0  0  0  0  0  0  0  0  0  0  0  0
    1.2366    2.1968    0.3599 C   0  0  0  0  0  0  0  0  0  0  0  0
   -0.0295    1.4965   -3.8997 H   0  0  0  0  0  0  0  0  0  0  0  0
   -0.0295    0.2718    0.2334 H   0  0  0  0  0  0  0  0  0  0  0  0
   -2.1927    1.6976   -0.0060 H   0  0  0  0  0  0  0  0  0  0  0  0
   -1.3329    3.2404    0.0424 H   0  0  0  0  0  0  0  0  0  0  0  0
   -1.3029    2.1689    1.4509 H   0  0  0  0  0  0  0  0  0  0  0  0
    1.2740    3.2404    0.0424 H   0  0  0  0  0  0  0  0  0  0  0  0
    2.1337    1.6975   -0.0060 H   0  0  0  0  0  0  0  0  0  0  0  0
    1.2440    2.1688    1.4509 H   0  0  0  0  0  0  0  0  0  0  0  0
  1  2  3  0
  1  7  1  0
  2  3  1  0
  3  4  1  0
  3  5  1  0
  4  8  1  0
  4  9  1  0
  4 10  1  0
  5  6  3  0
  6 11  1  0
 12 13  3  0
 12 17  1  0
 13 14  1  0
 14 15  1  0
 14 16  1  0
 14 18  1  0
 15 19  1  0
 15 20  1  0
 15 21  1  0
 16 22  1  0
 16 23  1  0
 16 24  1  0
M  RAD  1   3   2
M  END
>  <reaction>  (13) 
rxn_1314

>  <mol_properties>  (13) 
{"1": {"label": "*0", "atom_type": "Ct"}, "2": {"label": "*1", "atom_type": "Cs"}, "12": {"label": "*4", "atom_type": "Ct"}, "13": {"label": "*3", "atom_type": "Cs"}, "17": {"label": "*2", "atom_type": "H0"}}

>  <type>  (13) 
unop_9

>  <geom_source>  (13) 
Heuristics

$$$$

     RDKit          3D

 24 22  0  0  0  0  0  0  0  0999 V2000
    1.9402   -2.3791   -0.5458 C   0  0  0  0  0  0  0  0  0  0  0  0
    0.9702   -1.8398   -0.0996 C   0  0  0  0  0  0  0  0  0  0  0  0
   -0.2424   -1.2062    0.4299 C   0  0  0  0  0  3  0  0  0  0  0  0
   -1.3840   -2.2267    0.5810 C   0  0  0  0  0  0  0  0  0  0  0  0
    0.0266   -0.5182    1.6975 C   0  0  0  0  0  0  0  0  0  0  0  0
    0.2150    0.0372    2.7400 C   0  0  0  0  0  0  0  0  0  0  0  0
    2.8026   -2.8586   -0.9424 H   0  0  0  0  0  0  0  0  0  0  0  0
   -1.5914   -2.6953   -0.3805 H   0  0  0  0  0  0  0  0  0  0  0  0
   -1.1056   -3.0000    1.2958 H   0  0  0  0  0  0  0  0  0  0  0  0
   -2.2835   -1.7259    0.9376 H   0  0  0  0  0  0  0  0  0  0  0  0
    0.3824    0.5311    3.6668 H   0  0  0  0  0  0  0  0  0  0  0  0
   -0.2424    1.2677   -3.0479 C   0  0  0  0  0  0  0  0  0  0  0  0
   -0.2424    1.2677   -1.8498 C   0  0  0  0  0  0  0  0  0  0  0  0
   -0.2424    1.2916   -0.3860 C   0  0  0  0  0  0  0  0  0  0  0  0
   -1.5085    1.9681    0.1483 C   0  0  0  0  0  0  0  0  0  0  0  0
    1.0238    1.9680    0.1483 C   0  0  0  0  0  0  0  0  0  0  0  0
   -0.2424    1.2677   -4.1112 H   0  0  0  0  0  0  0  0  0  0  0  0
   -0.2424    0.0430    0.0219 H   0  0  0  0  0  0  0  0  0  0  0  0
   -2.4055    1.4688   -0.2176 H   0  0  0  0  0  0  0  0  0  0  0  0
   -1.5458    3.0116   -0.1692 H   0  0  0  0  0  0  0  0  0  0  0  0
   -1.5158    1.9401    1.2394 H   0  0  0  0  0  0  0  0  0  0  0  0
    1.0611    3.0116   -0.1692 H   0  0  0  0  0  0  0  0  0  0  0  0
    1.9208    1.4687   -0.2176 H   0  0  0  0  0  0  0  0  0  0  0  0
    1.0311    1.9400    1.2394 H   0  0  0  0  0  0  0  0  0  0  0  0
  1  2  3  0
  1  7  1  0
  2  3  1  0
  3  4  1  0
  3  5  1  0
  4  8  1  0
  4  9  1  0
  4 10  1  0
  5  6  3  0
  6 11  1  0
 12 13  3  0
 12 17  1  0
 13 14  1  0
 14 15  1  0
 14 16  1  0
 14 18  1  0
 15 19  1  0
 15 20  1  0
 15 21  1  0
 16 22  1  0
 16 23  1  0
 16 24  1  0
M  RAD  1   3   2
M  END
>  <reaction>  (14) 
rxn_1314

>  <mol_properties>  (14) 
{"1": {"label": "*0", "atom_type": "Ct"}, "2": {"label": "*1", "atom_type": "Cs"}, "12": {"label": "*4", "atom_type": "Ct"}, "13": {"label": "*3", "atom_type": "Cs"}, "17": {"label": "*2", "atom_type": "H0"}}

>  <type>  (14) 
unop_10

>  <geom_source>  (14) 
Heuristics

$$$$

     RDKit          3D

 24 22  0  0  0  0  0  0  0  0999 V2000
   -1.1713   -1.0730    2.8383 C   0  0  0  0  0  0  0  0  0  0  0  0
   -0.6243   -1.0588    1.7746 C   0  0  0  0  0  0  0  0  0  0  0  0
    0.0758   -1.0191    0.4860 C   0  0  0  0  0  3  0  0  0  0  0  0
    1.5890   -0.8181    0.6798 C   0  0  0  0  0  0  0  0  0  0  0  0
   -0.2032   -2.2204   -0.3087 C   0  0  0  0  0  0  0  0  0  0  0  0
   -0.4014   -3.1967   -0.9707 C   0  0  0  0  0  0  0  0  0  0  0  0
   -1.6576   -1.0856    3.7840 H   0  0  0  0  0  0  0  0  0  0  0  0
    1.7721    0.0995    1.2379 H   0  0  0  0  0  0  0  0  0  0  0  0
    2.0123   -1.6558    1.2324 H   0  0  0  0  0  0  0  0  0  0  0  0
    2.0810   -0.7524   -0.2901 H   0  0  0  0  0  0  0  0  0  0  0  0
   -0.5776   -4.0647   -1.5593 H   0  0  0  0  0  0  0  0  0  0  0  0
    0.0759    1.4547   -2.9918 C   0  0  0  0  0  0  0  0  0  0  0  0
    0.0759    1.4547   -1.7938 C   0  0  0  0  0  0  0  0  0  0  0  0
    0.0759    1.4787   -0.3299 C   0  0  0  0  0  0  0  0  0  0  0  0
   -1.1902    2.1551    0.2044 C   0  0  0  0  0  0  0  0  0  0  0  0
    1.3420    2.1551    0.2044 C   0  0  0  0  0  0  0  0  0  0  0  0
    0.0759    1.4547   -4.0552 H   0  0  0  0  0  0  0  0  0  0  0  0
    0.0759    0.2300    0.0779 H   0  0  0  0  0  0  0  0  0  0  0  0
   -2.0873    1.6558   -0.1615 H   0  0  0  0  0  0  0  0  0  0  0  0
   -1.2276    3.1987   -0.1131 H   0  0  0  0  0  0  0  0  0  0  0  0
   -1.1976    2.1271    1.2955 H   0  0  0  0  0  0  0  0  0  0  0  0
    1.3794    3.1986   -0.1131 H   0  0  0  0  0  0  0  0  0  0  0  0
    2.2390    1.6558   -0.1615 H   0  0  0  0  0  0  0  0  0  0  0  0
    1.3493    2.1271    1.2955 H   0  0  0  0  0  0  0  0  0  0  0  0
  1  2  3  0
  1  7  1  0
  2  3  1  0
  3  4  1  0
  3  5  1  0
  4  8  1  0
  4  9  1  0
  4 10  1  0
  5  6  3  0
  6 11  1  0
 12 13  3  0
 12 17  1  0
 13 14  1  0
 14 15  1  0
 14 16  1  0
 14 18  1  0
 15 19  1  0
 15 20  1  0
 15 21  1  0
 16 22  1  0
 16 23  1  0
 16 24  1  0
M  RAD  1   3   2
M  END
>  <reaction>  (15) 
rxn_1314

>  <mol_properties>  (15) 
{"1": {"label": "*0", "atom_type": "Ct"}, "2": {"label": "*1", "atom_type": "Cs"}, "12": {"label": "*4", "atom_type": "Ct"}, "13": {"label": "*3", "atom_type": "Cs"}, "17": {"label": "*2", "atom_type": "H0"}}

>  <type>  (15) 
unop_11

>  <geom_source>  (15) 
Heuristics

$$$$

     RDKit          3D

 24 22  0  0  0  0  0  0  0  0999 V2000
   -0.1952   -2.5641   -1.5325 C   0  0  0  0  0  0  0  0  0  0  0  0
   -0.1625   -1.8697   -0.5591 C   0  0  0  0  0  0  0  0  0  0  0  0
   -0.1625   -1.0186    0.6359 C   0  0  0  0  0  3  0  0  0  0  0  0
   -1.4270   -1.2465    1.4824 C   0  0  0  0  0  0  0  0  0  0  0  0
    1.0532   -1.2192    1.4323 C   0  0  0  0  0  0  0  0  0  0  0  0
    2.0276   -1.3748    2.1084 C   0  0  0  0  0  0  0  0  0  0  0  0
   -0.2242   -3.1815   -2.3979 H   0  0  0  0  0  0  0  0  0  0  0  0
   -2.3148   -1.0536    0.8810 H   0  0  0  0  0  0  0  0  0  0  0  0
   -1.4611   -2.2750    1.8391 H   0  0  0  0  0  0  0  0  0  0  0  0
   -1.4232   -0.5765    2.3416 H   0  0  0  0  0  0  0  0  0  0  0  0
    2.8939   -1.5132    2.7095 H   0  0  0  0  0  0  0  0  0  0  0  0
   -0.1624    1.4552   -2.8419 C   0  0  0  0  0  0  0  0  0  0  0  0
   -0.1624    1.4552   -1.6438 C   0  0  0  0  0  0  0  0  0  0  0  0
   -0.1624    1.4791   -0.1800 C   0  0  0  0  0  0  0  0  0  0  0  0
   -1.4285    2.1556    0.3544 C   0  0  0  0  0  0  0  0  0  0  0  0
    1.1037    2.1556    0.3544 C   0  0  0  0  0  0  0  0  0  0  0  0
   -0.1624    1.4552   -3.9052 H   0  0  0  0  0  0  0  0  0  0  0  0
   -0.1625    0.2305    0.2279 H   0  0  0  0  0  0  0  0  0  0  0  0
   -2.3256    1.6563   -0.0116 H   0  0  0  0  0  0  0  0  0  0  0  0
   -1.4659    3.1991    0.0368 H   0  0  0  0  0  0  0  0  0  0  0  0
   -1.4359    2.1276    1.4454 H   0  0  0  0  0  0  0  0  0  0  0  0
    1.1411    3.1991    0.0368 H   0  0  0  0  0  0  0  0  0  0  0  0
    2.0007    1.6562   -0.0116 H   0  0  0  0  0  0  0  0  0  0  0  0
    1.1110    2.1276    1.4454 H   0  0  0  0  0  0  0  0  0  0  0  0
  1  2  3  0
  1  7  1  0
  2  3  1  0
  3  4  1  0
  3  5  1  0
  4  8  1  0
  4  9  1  0
  4 10  1  0
  5  6  3  0
  6 11  1  0
 12 13  3  0
 12 17  1  0
 13 14  1  0
 14 15  1  0
 14 16  1  0
 14 18  1  0
 15 19  1  0
 15 20  1  0
 15 21  1  0
 16 22  1  0
 16 23  1  0
 16 24  1  0
M  RAD  1   3   2
M  END
>  <reaction>  (16) 
rxn_1314

>  <mol_properties>  (16) 
{"1": {"label": "*0", "atom_type": "Ct"}, "2": {"label": "*1", "atom_type": "Cs"}, "12": {"label": "*4", "atom_type": "Ct"}, "13": {"label": "*3", "atom_type": "Cs"}, "17": {"label": "*2", "atom_type": "H0"}}

>  <type>  (16) 
unop_12

>  <geom_source>  (16) 
Heuristics

$$$$

     RDKit          3D

 24 22  0  0  0  0  0  0  0  0999 V2000
    1.3127   -0.1248    0.1077 C   0  0  0  0  0  0  0  0  0  0  0  0
    1.5913   -0.2795   -1.3857 C   0  0  0  0  0  0  0  0  0  0  0  0
   -1.7773    0.1638   -1.5786 C   0  0  0  0  0  0  0  0  0  0  0  0
   -1.6107    1.5198    0.5468 C   0  0  0  0  0  0  0  0  0  0  0  0
   -1.2445    0.2089   -0.1473 C   0  0  0  0  0  3  0  0  0  0  0  0
    1.7111   -1.3387    0.8308 C   0  0  0  0  0  0  0  0  0  0  0  0
    2.0459    1.0264    0.6482 C   0  0  0  0  0  0  0  0  0  0  0  0
   -1.7398   -0.9405    0.6249 C   0  0  0  0  0  0  0  0  0  0  0  0
    2.0366   -2.3365    1.4245 C   0  0  0  0  0  0  0  0  0  0  0  0
    2.6468    1.9732    1.0918 C   0  0  0  0  0  0  0  0  0  0  0  0
   -2.1450   -1.8832    1.2581 C   0  0  0  0  0  0  0  0  0  0  0  0
    0.0108    0.0734    0.2877 H   0  0  0  0  0  0  0  0  0  0  0  0
    1.0184   -1.1407   -1.7915 H   0  0  0  0  0  0  0  0  0  0  0  0
    2.6748   -0.4473   -1.5723 H   0  0  0  0  0  0  0  0  0  0  0  0
    1.2698    0.6351   -1.9285 H   0  0  0  0  0  0  0  0  0  0  0  0
   -2.8871    0.2277   -1.5885 H   0  0  0  0  0  0  0  0  0  0  0  0
   -1.3608    1.0111   -2.1632 H   0  0  0  0  0  0  0  0  0  0  0  0
   -1.4635   -0.7817   -2.0700 H   0  0  0  0  0  0  0  0  0  0  0  0
   -1.1782    1.5405    1.5698 H   0  0  0  0  0  0  0  0  0  0  0  0
   -2.7143    1.6345    0.6164 H   0  0  0  0  0  0  0  0  0  0  0  0
   -1.1929    2.3774   -0.0216 H   0  0  0  0  0  0  0  0  0  0  0  0
    2.3225   -3.2122    1.9455 H   0  0  0  0  0  0  0  0  0  0  0  0
    3.1742    2.8040    1.4811 H   0  0  0  0  0  0  0  0  0  0  0  0
   -2.5008   -2.7105    1.8138 H   0  0  0  0  0  0  0  0  0  0  0  0
  1  2  1  0
  1  6  1  0
  1  7  1  0
  1 12  1  0
  2 13  1  0
  2 14  1  0
  2 15  1  0
  3  5  1  0
  3 16  1  0
  3 17  1  0
  3 18  1  0
  4  5  1  0
  4 19  1  0
  4 20  1  0
  4 21  1  0
  5  8  1  0
  6  9  3  0
  7 10  3  0
  8 11  3  0
  9 22  1  0
 10 23  1  0
 11 24  1  0
M  RAD  1   5   2
M  END
>  <reaction>  (17) 
rxn_1314

>  <mol_properties>  (17) 
{"1": {"label": "*0", "atom_type": "Ct"}, "2": {"label": "*1", "atom_type": "Cs"}, "12": {"label": "*4", "atom_type": "Ct"}, "13": {"label": "*3", "atom_type": "Cs"}, "17": {"label": "*2", "atom_type": "H0"}}

>  <type>  (17) 
unop_13

>  <geom_source>  (17) 
AutoTST

$$$$
