
     RDKit          3D

 25 26  0  0  0  0  0  0  0  0999 V2000
    2.0298   -1.1515    0.0571 C   0  0  0  0  0  0  0  0  0  0  0  0
    2.2278    0.2445    0.6528 C   0  0  0  0  0  0  0  0  0  0  0  0
    1.2292    1.2625    0.0947 C   0  0  0  0  0  0  0  0  0  0  0  0
   -0.1869    0.7454    0.2762 C   0  0  0  0  0  0  0  0  0  0  0  0
   -1.3415    1.5501   -0.3122 C   0  0  0  0  0  0  0  0  0  0  0  0
   -2.5060    0.5338   -0.4178 C   0  0  0  0  0  0  0  0  0  0  0  0
   -1.8709   -0.8658   -0.2234 C   0  0  0  0  0  0  0  0  0  0  0  0
   -0.3715   -0.6265   -0.3693 C   0  0  0  0  0  0  0  0  0  0  0  0
    0.5898   -1.6500    0.2086 C   0  0  0  0  0  0  0  0  0  0  0  0
    2.2820   -1.1226   -1.0088 H   0  0  0  0  0  0  0  0  0  0  0  0
    2.7243   -1.8549    0.5221 H   0  0  0  0  0  0  0  0  0  0  0  0
    2.1030    0.1885    1.7400 H   0  0  0  0  0  0  0  0  0  0  0  0
    3.2514    0.5819    0.4743 H   0  0  0  0  0  0  0  0  0  0  0  0
    1.3611    2.2304    0.5855 H   0  0  0  0  0  0  0  0  0  0  0  0
    1.4198    1.4194   -0.9737 H   0  0  0  0  0  0  0  0  0  0  0  0
   -0.3675    0.6209    1.3539 H   0  0  0  0  0  0  0  0  0  0  0  0
   -1.5992    2.4249    0.2862 H   0  0  0  0  0  0  0  0  0  0  0  0
   -1.0595    1.9116   -1.3055 H   0  0  0  0  0  0  0  0  0  0  0  0
   -3.2666    0.7244    0.3399 H   0  0  0  0  0  0  0  0  0  0  0  0
   -3.0030    0.6112   -1.3853 H   0  0  0  0  0  0  0  0  0  0  0  0
   -2.2549   -1.6039   -0.9288 H   0  0  0  0  0  0  0  0  0  0  0  0
   -2.0796   -1.2429    0.7821 H   0  0  0  0  0  0  0  0  0  0  0  0
   -0.1432   -0.5121   -1.4391 H   0  0  0  0  0  0  0  0  0  0  0  0
    0.4720   -2.6209   -0.2799 H   0  0  0  0  0  0  0  0  0  0  0  0
    0.3601   -1.7986    1.2704 H   0  0  0  0  0  0  0  0  0  0  0  0
  1  2  1  0
  1  9  1  0
  1 10  1  0
  1 11  1  0
  2  3  1  0
  2 12  1  0
  2 13  1  0
  3  4  1  0
  3 14  1  0
  3 15  1  0
  4  5  1  0
  4  8  1  0
  4 16  1  0
  5  6  1  0
  5 17  1  0
  5 18  1  0
  6  7  1  0
  6 19  1  0
  6 20  1  0
  7  8  1  0
  7 21  1  0
  7 22  1  0
  8  9  1  0
  8 23  1  0
  9 24  1  0
  9 25  1  0
M  END
>  <reaction>  (1) 
rxn_599

>  <mol_properties>  (1) 
{"5": {"label": "donator", "atom_type": "Cs"}, "18": {"label": "d_hydrogen", "atom_type": "H0"}}

>  <type>  (1) 
r1h

$$$$

     RDKit          3D

  4  3  0  0  0  0  0  0  0  0999 V2000
    0.0000    0.0000    0.0000 C   0  0  0  0  0  3  0  0  0  0  0  0
    1.0638   -0.1747    0.0540 H   0  0  0  0  0  0  0  0  0  0  0  0
   -0.6833   -0.8351   -0.0280 H   0  0  0  0  0  0  0  0  0  0  0  0
   -0.3805    1.0098   -0.0260 H   0  0  0  0  0  0  0  0  0  0  0  0
  1  2  1  0
  1  3  1  0
  1  4  1  0
M  RAD  1   1   2
M  END
>  <reaction>  (2) 
rxn_599

>  <mol_properties>  (2) 
{"0": {"label": "acceptor", "atom_type": "Cs"}}

>  <type>  (2) 
r2

$$$$

     RDKit          3D

  5  4  0  0  0  0  0  0  0  0999 V2000
    0.0000    0.0000    0.0000 C   0  0  0  0  0  0  0  0  0  0  0  0
   -0.6486   -0.7720   -0.4113 H   0  0  0  0  0  0  0  0  0  0  0  0
   -0.3482    0.9787   -0.3267 H   0  0  0  0  0  0  0  0  0  0  0  0
   -0.0223   -0.0487    1.0876 H   0  0  0  0  0  0  0  0  0  0  0  0
    1.0191   -0.1580   -0.3496 H   0  0  0  0  0  0  0  0  0  0  0  0
  1  2  1  0
  1  3  1  0
  1  4  1  0
  1  5  1  0
M  END
>  <reaction>  (3) 
rxn_599

>  <mol_properties>  (3) 
{"0": {"label": "acceptor", "atom_type": "Cs"}, "4": {"label": "a_hydrogen", "atom_type": "H0"}}

>  <type>  (3) 
r2h

$$$$

     RDKit          3D

 29 29  0  0  0  0  0  0  0  0999 V2000
   -0.1525    3.7414    0.8188 C   0  0  0  0  0  3  0  0  0  0  0  0
    0.4740    4.2448    1.5486 H   0  0  0  0  0  0  0  0  0  0  0  0
   -0.9858    3.1976    1.2540 H   0  0  0  0  0  0  0  0  0  0  0  0
   -0.4258    4.3592   -0.0311 H   0  0  0  0  0  0  0  0  0  0  0  0
   -1.1424   -2.3536   -0.7894 C   0  0  0  0  0  0  0  0  0  0  0  0
   -1.1270   -2.2821    0.7397 C   0  0  0  0  0  0  0  0  0  0  0  0
    0.0991   -1.5382    1.2773 C   0  0  0  0  0  0  0  0  0  0  0  0
    0.1908   -0.1699    0.6271 C   0  0  0  0  0  0  0  0  0  0  0  0
    1.3925    0.7189    0.9282 C   0  0  0  0  0  0  0  0  0  0  0  0
    1.3417    1.7547   -0.1910 C   0  0  0  0  0  0  0  0  0  0  0  0
    0.5242    1.1586   -1.3424 C   0  0  0  0  0  0  0  0  0  0  0  0
    0.2333   -0.2768   -0.8971 C   0  0  0  0  0  0  0  0  0  0  0  0
   -1.0014   -0.9743   -1.4402 C   0  0  0  0  0  0  0  0  0  0  0  0
   -0.3131   -2.9865   -1.1244 H   0  0  0  0  0  0  0  0  0  0  0  0
   -2.0604   -2.8391   -1.1280 H   0  0  0  0  0  0  0  0  0  0  0  0
   -2.0299   -1.7635    1.0808 H   0  0  0  0  0  0  0  0  0  0  0  0
   -1.1710   -3.2904    1.1578 H   0  0  0  0  0  0  0  0  0  0  0  0
    0.0434   -1.4544    2.3658 H   0  0  0  0  0  0  0  0  0  0  0  0
    1.0076   -2.1076    1.0478 H   0  0  0  0  0  0  0  0  0  0  0  0
   -0.7169    0.3938    0.8884 H   0  0  0  0  0  0  0  0  0  0  0  0
    1.3593    1.1718    1.9221 H   0  0  0  0  0  0  0  0  0  0  0  0
    2.3143    0.1281    0.8721 H   0  0  0  0  0  0  0  0  0  0  0  0
    0.6694    2.7400    0.2739 H   0  0  0  0  0  0  0  0  0  0  0  0
    2.2950    2.2038   -0.4628 H   0  0  0  0  0  0  0  0  0  0  0  0
    1.0461    1.2052   -2.2994 H   0  0  0  0  0  0  0  0  0  0  0  0
   -0.4171    1.7066   -1.4677 H   0  0  0  0  0  0  0  0  0  0  0  0
    1.1074   -0.8943   -1.1479 H   0  0  0  0  0  0  0  0  0  0  0  0
   -0.9522   -1.0727   -2.5278 H   0  0  0  0  0  0  0  0  0  0  0  0
   -1.8856   -0.3661   -1.2156 H   0  0  0  0  0  0  0  0  0  0  0  0
  1  2  1  0
  1  3  1  0
  1  4  1  0
  5  6  1  0
  5 13  1  0
  5 14  1  0
  5 15  1  0
  6  7  1  0
  6 16  1  0
  6 17  1  0
  7  8  1  0
  7 18  1  0
  7 19  1  0
  8  9  1  0
  8 12  1  0
  8 20  1  0
  9 10  1  0
  9 21  1  0
  9 22  1  0
 10 11  1  0
 10 23  1  0
 10 24  1  0
 11 12  1  0
 11 25  1  0
 11 26  1  0
 12 13  1  0
 12 27  1  0
 13 28  1  0
 13 29  1  0
M  RAD  1   1   2
M  END
>  <reaction>  (4) 
rxn_599

>  <mol_properties>  (4) 
{"0": {"label": "*3", "atom_type": "Cs"}, "1": {"label": "*4", "atom_type": "H0"}, "8": {"label": "*0", "atom_type": "Cs"}, "9": {"label": "*1", "atom_type": "Cs"}, "22": {"label": "*2", "atom_type": "H0"}}

>  <type>  (4) 
ts

$$$$

     RDKit          3D

 29 29  0  0  0  0  0  0  0  0999 V2000
    0.1633    4.0512    0.7943 C   0  0  0  0  0  0  0  0  0  0  0  0
    0.9011    4.8430    0.6745 H   0  0  0  0  0  0  0  0  0  0  0  0
   -0.5638    4.3438    1.5503 H   0  0  0  0  0  0  0  0  0  0  0  0
   -0.2524    4.0335   -0.2120 H   0  0  0  0  0  0  0  0  0  0  0  0
   -1.0220   -2.4835   -0.8590 C   0  0  0  0  0  0  0  0  0  0  0  0
   -1.0220   -2.4835    0.6716 C   0  0  0  0  0  0  0  0  0  0  0  0
    0.1211   -1.6471    1.2536 C   0  0  0  0  0  0  0  0  0  0  0  0
    0.0815   -0.2462    0.6694 C   0  0  0  0  0  0  0  0  0  0  0  0
    1.2005    0.7276    1.0249 C   0  0  0  0  0  0  0  0  0  0  0  0
    1.1506    1.7982   -0.0937 C   0  0  0  0  0  3  0  0  0  0  0  0
    0.2571    1.2063   -1.2124 C   0  0  0  0  0  0  0  0  0  0  0  0
    0.1320   -0.2718   -0.8569 C   0  0  0  0  0  0  0  0  0  0  0  0
   -1.0220   -1.0671   -1.4410 C   0  0  0  0  0  0  0  0  0  0  0  0
   -0.1296   -3.0103   -1.2150 H   0  0  0  0  0  0  0  0  0  0  0  0
   -1.8829   -3.0446   -1.2298 H   0  0  0  0  0  0  0  0  0  0  0  0
   -1.9742   -2.0744    1.0275 H   0  0  0  0  0  0  0  0  0  0  0  0
   -0.9665   -3.5096    1.0423 H   0  0  0  0  0  0  0  0  0  0  0  0
    0.0538   -1.6212    2.3444 H   0  0  0  0  0  0  0  0  0  0  0  0
    1.0826   -2.1123    1.0055 H   0  0  0  0  0  0  0  0  0  0  0  0
   -0.8773    0.2127    0.9520 H   0  0  0  0  0  0  0  0  0  0  0  0
    1.0917    1.1556    2.0223 H   0  0  0  0  0  0  0  0  0  0  0  0
    2.1582    0.1991    1.0045 H   0  0  0  0  0  0  0  0  0  0  0  0
    0.6566    2.9254    0.3506 H   0  0  0  0  0  0  0  0  0  0  0  0
    2.1518    2.0207   -0.4640 H   0  0  0  0  0  0  0  0  0  0  0  0
    0.6667    1.3712   -2.2098 H   0  0  0  0  0  0  0  0  0  0  0  0
   -0.7349    1.6671   -1.1919 H   0  0  0  0  0  0  0  0  0  0  0  0
    1.0685   -0.7746   -1.1394 H   0  0  0  0  0  0  0  0  0  0  0  0
   -0.9614   -1.1061   -2.5319 H   0  0  0  0  0  0  0  0  0  0  0  0
   -1.9652   -0.5658   -1.1930 H   0  0  0  0  0  0  0  0  0  0  0  0
  1  2  1  0
  1  3  1  0
  1  4  1  0
  1 23  1  0
  5  6  1  0
  5 13  1  0
  5 14  1  0
  5 15  1  0
  6  7  1  0
  6 16  1  0
  6 17  1  0
  7  8  1  0
  7 18  1  0
  7 19  1  0
  8  9  1  0
  8 12  1  0
  8 20  1  0
  9 10  1  0
  9 21  1  0
  9 22  1  0
 10 11  1  0
 10 24  1  0
 11 12  1  0
 11 25  1  0
 11 26  1  0
 12 13  1  0
 12 27  1  0
 13 28  1  0
 13 29  1  0
M  RAD  1  10   2
M  END
>  <reaction>  (5) 
rxn_599

>  <mol_properties>  (5) 
{"0": {"label": "*3", "atom_type": "Cs"}, "1": {"label": "*4", "atom_type": "H0"}, "8": {"label": "*0", "atom_type": "Cs"}, "9": {"label": "*1", "atom_type": "Cs"}, "22": {"label": "*2", "atom_type": "H0"}}

>  <type>  (5) 
unop_1

>  <geom_source>  (5) 
Heuristics

$$$$

     RDKit          3D

 29 29  0  0  0  0  0  0  0  0999 V2000
    0.1625    4.0542    0.7921 C   0  0  0  0  0  0  0  0  0  0  0  0
    0.3976    4.1616    1.8499 H   0  0  0  0  0  0  0  0  0  0  0  0
   -0.8638    4.3717    0.6143 H   0  0  0  0  0  0  0  0  0  0  0  0
    0.6497    4.2788   -0.1555 H   0  0  0  0  0  0  0  0  0  0  0  0
   -1.0227   -2.4805   -0.8612 C   0  0  0  0  0  0  0  0  0  0  0  0
   -1.0227   -2.4805    0.6694 C   0  0  0  0  0  0  0  0  0  0  0  0
    0.1204   -1.6441    1.2514 C   0  0  0  0  0  0  0  0  0  0  0  0
    0.0808   -0.2431    0.6673 C   0  0  0  0  0  0  0  0  0  0  0  0
    1.1998    0.7306    1.0227 C   0  0  0  0  0  0  0  0  0  0  0  0
    1.1499    1.8012   -0.0959 C   0  0  0  0  0  3  0  0  0  0  0  0
    0.2564    1.2094   -1.2145 C   0  0  0  0  0  0  0  0  0  0  0  0
    0.1313   -0.2688   -0.8591 C   0  0  0  0  0  0  0  0  0  0  0  0
   -1.0227   -1.0641   -1.4432 C   0  0  0  0  0  0  0  0  0  0  0  0
   -0.1303   -3.0073   -1.2171 H   0  0  0  0  0  0  0  0  0  0  0  0
   -1.8836   -3.0416   -1.2319 H   0  0  0  0  0  0  0  0  0  0  0  0
   -1.9749   -2.0714    1.0253 H   0  0  0  0  0  0  0  0  0  0  0  0
   -0.9672   -3.5066    1.0401 H   0  0  0  0  0  0  0  0  0  0  0  0
    0.0531   -1.6182    2.3422 H   0  0  0  0  0  0  0  0  0  0  0  0
    1.0819   -2.1093    1.0033 H   0  0  0  0  0  0  0  0  0  0  0  0
   -0.8780    0.2157    0.9498 H   0  0  0  0  0  0  0  0  0  0  0  0
    1.0910    1.1586    2.0201 H   0  0  0  0  0  0  0  0  0  0  0  0
    2.1574    0.2021    1.0023 H   0  0  0  0  0  0  0  0  0  0  0  0
    0.6559    2.9285    0.3484 H   0  0  0  0  0  0  0  0  0  0  0  0
    2.1511    2.0237   -0.4662 H   0  0  0  0  0  0  0  0  0  0  0  0
    0.6660    1.3742   -2.2120 H   0  0  0  0  0  0  0  0  0  0  0  0
   -0.7357    1.6701   -1.1941 H   0  0  0  0  0  0  0  0  0  0  0  0
    1.0677   -0.7716   -1.1416 H   0  0  0  0  0  0  0  0  0  0  0  0
   -0.9621   -1.1030   -2.5341 H   0  0  0  0  0  0  0  0  0  0  0  0
   -1.9659   -0.5628   -1.1952 H   0  0  0  0  0  0  0  0  0  0  0  0
  1  2  1  0
  1  3  1  0
  1  4  1  0
  1 23  1  0
  5  6  1  0
  5 13  1  0
  5 14  1  0
  5 15  1  0
  6  7  1  0
  6 16  1  0
  6 17  1  0
  7  8  1  0
  7 18  1  0
  7 19  1  0
  8  9  1  0
  8 12  1  0
  8 20  1  0
  9 10  1  0
  9 21  1  0
  9 22  1  0
 10 11  1  0
 10 24  1  0
 11 12  1  0
 11 25  1  0
 11 26  1  0
 12 13  1  0
 12 27  1  0
 13 28  1  0
 13 29  1  0
M  RAD  1  10   2
M  END
>  <reaction>  (6) 
rxn_599

>  <mol_properties>  (6) 
{"0": {"label": "*3", "atom_type": "Cs"}, "1": {"label": "*4", "atom_type": "H0"}, "8": {"label": "*0", "atom_type": "Cs"}, "9": {"label": "*1", "atom_type": "Cs"}, "22": {"label": "*2", "atom_type": "H0"}}

>  <type>  (6) 
unop_2

>  <geom_source>  (6) 
Heuristics

$$$$

     RDKit          3D

 29 29  0  0  0  0  0  0  0  0999 V2000
    0.1648    4.0508    0.7933 C   0  0  0  0  0  0  0  0  0  0  0  0
    0.5993    4.8811    0.2387 H   0  0  0  0  0  0  0  0  0  0  0  0
   -0.0477    4.3672    1.8133 H   0  0  0  0  0  0  0  0  0  0  0  0
   -0.6746    4.0223    0.1002 H   0  0  0  0  0  0  0  0  0  0  0  0
   -1.0205   -2.4839   -0.8601 C   0  0  0  0  0  0  0  0  0  0  0  0
   -1.0205   -2.4839    0.6705 C   0  0  0  0  0  0  0  0  0  0  0  0
    0.1226   -1.6475    1.2525 C   0  0  0  0  0  0  0  0  0  0  0  0
    0.0830   -0.2465    0.6684 C   0  0  0  0  0  0  0  0  0  0  0  0
    1.2021    0.7272    1.0239 C   0  0  0  0  0  0  0  0  0  0  0  0
    1.1521    1.7978   -0.0948 C   0  0  0  0  0  3  0  0  0  0  0  0
    0.2586    1.2060   -1.2134 C   0  0  0  0  0  0  0  0  0  0  0  0
    0.1336   -0.2722   -0.8579 C   0  0  0  0  0  0  0  0  0  0  0  0
   -1.0205   -1.0675   -1.4421 C   0  0  0  0  0  0  0  0  0  0  0  0
   -0.1280   -3.0107   -1.2160 H   0  0  0  0  0  0  0  0  0  0  0  0
   -1.8814   -3.0450   -1.2308 H   0  0  0  0  0  0  0  0  0  0  0  0
   -1.9726   -2.0748    1.0265 H   0  0  0  0  0  0  0  0  0  0  0  0
   -0.9649   -3.5100    1.0413 H   0  0  0  0  0  0  0  0  0  0  0  0
    0.0554   -1.6216    2.3434 H   0  0  0  0  0  0  0  0  0  0  0  0
    1.0842   -2.1127    1.0045 H   0  0  0  0  0  0  0  0  0  0  0  0
   -0.8758    0.2123    0.9510 H   0  0  0  0  0  0  0  0  0  0  0  0
    1.0933    1.1552    2.0213 H   0  0  0  0  0  0  0  0  0  0  0  0
    2.1597    0.1987    1.0034 H   0  0  0  0  0  0  0  0  0  0  0  0
    0.6581    2.9251    0.3496 H   0  0  0  0  0  0  0  0  0  0  0  0
    2.1533    2.0203   -0.4650 H   0  0  0  0  0  0  0  0  0  0  0  0
    0.6683    1.3708   -2.2108 H   0  0  0  0  0  0  0  0  0  0  0  0
   -0.7334    1.6667   -1.1930 H   0  0  0  0  0  0  0  0  0  0  0  0
    1.0700   -0.7750   -1.1405 H   0  0  0  0  0  0  0  0  0  0  0  0
   -0.9598   -1.1064   -2.5329 H   0  0  0  0  0  0  0  0  0  0  0  0
   -1.9636   -0.5661   -1.1940 H   0  0  0  0  0  0  0  0  0  0  0  0
  1  2  1  0
  1  3  1  0
  1  4  1  0
  1 23  1  0
  5  6  1  0
  5 13  1  0
  5 14  1  0
  5 15  1  0
  6  7  1  0
  6 16  1  0
  6 17  1  0
  7  8  1  0
  7 18  1  0
  7 19  1  0
  8  9  1  0
  8 12  1  0
  8 20  1  0
  9 10  1  0
  9 21  1  0
  9 22  1  0
 10 11  1  0
 10 24  1  0
 11 12  1  0
 11 25  1  0
 11 26  1  0
 12 13  1  0
 12 27  1  0
 13 28  1  0
 13 29  1  0
M  RAD  1  10   2
M  END
>  <reaction>  (7) 
rxn_599

>  <mol_properties>  (7) 
{"0": {"label": "*3", "atom_type": "Cs"}, "1": {"label": "*4", "atom_type": "H0"}, "8": {"label": "*0", "atom_type": "Cs"}, "9": {"label": "*1", "atom_type": "Cs"}, "22": {"label": "*2", "atom_type": "H0"}}

>  <type>  (7) 
unop_3

>  <geom_source>  (7) 
Heuristics

$$$$

     RDKit          3D

 29 29  0  0  0  0  0  0  0  0999 V2000
    0.1626    4.0534    0.7937 C   0  0  0  0  0  0  0  0  0  0  0  0
   -0.8492    3.8869    1.1600 H   0  0  0  0  0  0  0  0  0  0  0  0
    0.1302    4.2835   -0.2702 H   0  0  0  0  0  0  0  0  0  0  0  0
    0.8921    4.7491    1.2055 H   0  0  0  0  0  0  0  0  0  0  0  0
   -1.0227   -2.4813   -0.8596 C   0  0  0  0  0  0  0  0  0  0  0  0
   -1.0227   -2.4813    0.6710 C   0  0  0  0  0  0  0  0  0  0  0  0
    0.1204   -1.6449    1.2529 C   0  0  0  0  0  0  0  0  0  0  0  0
    0.0808   -0.2439    0.6688 C   0  0  0  0  0  0  0  0  0  0  0  0
    1.1999    0.7298    1.0243 C   0  0  0  0  0  0  0  0  0  0  0  0
    1.1499    1.8004   -0.0943 C   0  0  0  0  0  3  0  0  0  0  0  0
    0.2564    1.2086   -1.2130 C   0  0  0  0  0  0  0  0  0  0  0  0
    0.1314   -0.2696   -0.8575 C   0  0  0  0  0  0  0  0  0  0  0  0
   -1.0227   -1.0649   -1.4416 C   0  0  0  0  0  0  0  0  0  0  0  0
   -0.1302   -3.0081   -1.2156 H   0  0  0  0  0  0  0  0  0  0  0  0
   -1.8836   -3.0424   -1.2304 H   0  0  0  0  0  0  0  0  0  0  0  0
   -1.9748   -2.0722    1.0269 H   0  0  0  0  0  0  0  0  0  0  0  0
   -0.9671   -3.5074    1.0417 H   0  0  0  0  0  0  0  0  0  0  0  0
    0.0532   -1.6190    2.3438 H   0  0  0  0  0  0  0  0  0  0  0  0
    1.0820   -2.1100    1.0049 H   0  0  0  0  0  0  0  0  0  0  0  0
   -0.8779    0.2149    0.9514 H   0  0  0  0  0  0  0  0  0  0  0  0
    1.0911    1.1578    2.0217 H   0  0  0  0  0  0  0  0  0  0  0  0
    2.1575    0.2013    1.0039 H   0  0  0  0  0  0  0  0  0  0  0  0
    0.6559    2.9277    0.3500 H   0  0  0  0  0  0  0  0  0  0  0  0
    2.1511    2.0229   -0.4646 H   0  0  0  0  0  0  0  0  0  0  0  0
    0.6661    1.3734   -2.2104 H   0  0  0  0  0  0  0  0  0  0  0  0
   -0.7356    1.6693   -1.1925 H   0  0  0  0  0  0  0  0  0  0  0  0
    1.0678   -0.7724   -1.1401 H   0  0  0  0  0  0  0  0  0  0  0  0
   -0.9620   -1.1038   -2.5325 H   0  0  0  0  0  0  0  0  0  0  0  0
   -1.9658   -0.5635   -1.1936 H   0  0  0  0  0  0  0  0  0  0  0  0
  1  2  1  0
  1  3  1  0
  1  4  1  0
  1 23  1  0
  5  6  1  0
  5 13  1  0
  5 14  1  0
  5 15  1  0
  6  7  1  0
  6 16  1  0
  6 17  1  0
  7  8  1  0
  7 18  1  0
  7 19  1  0
  8  9  1  0
  8 12  1  0
  8 20  1  0
  9 10  1  0
  9 21  1  0
  9 22  1  0
 10 11  1  0
 10 24  1  0
 11 12  1  0
 11 25  1  0
 11 26  1  0
 12 13  1  0
 12 27  1  0
 13 28  1  0
 13 29  1  0
M  RAD  1  10   2
M  END
>  <reaction>  (8) 
rxn_599

>  <mol_properties>  (8) 
{"0": {"label": "*3", "atom_type": "Cs"}, "1": {"label": "*4", "atom_type": "H0"}, "8": {"label": "*0", "atom_type": "Cs"}, "9": {"label": "*1", "atom_type": "Cs"}, "22": {"label": "*2", "atom_type": "H0"}}

>  <type>  (8) 
unop_4

>  <geom_source>  (8) 
Heuristics

$$$$

     RDKit          3D

 29 29  0  0  0  0  0  0  0  0999 V2000
    0.1638    4.0499    0.7911 C   0  0  0  0  0  0  0  0  0  0  0  0
    0.1419    4.7799   -0.0165 H   0  0  0  0  0  0  0  0  0  0  0  0
    0.7864    4.4244    1.6022 H   0  0  0  0  0  0  0  0  0  0  0  0
   -0.9142    4.1905    0.8541 H   0  0  0  0  0  0  0  0  0  0  0  0
   -1.0215   -2.4848   -0.8622 C   0  0  0  0  0  0  0  0  0  0  0  0
   -1.0215   -2.4848    0.6684 C   0  0  0  0  0  0  0  0  0  0  0  0
    0.1216   -1.6484    1.2504 C   0  0  0  0  0  0  0  0  0  0  0  0
    0.0820   -0.2475    0.6663 C   0  0  0  0  0  0  0  0  0  0  0  0
    1.2011    0.7263    1.0217 C   0  0  0  0  0  0  0  0  0  0  0  0
    1.1511    1.7969   -0.0969 C   0  0  0  0  0  3  0  0  0  0  0  0
    0.2576    1.2050   -1.2155 C   0  0  0  0  0  0  0  0  0  0  0  0
    0.1325   -0.2731   -0.8601 C   0  0  0  0  0  0  0  0  0  0  0  0
   -1.0215   -1.0684   -1.4442 C   0  0  0  0  0  0  0  0  0  0  0  0
   -0.1291   -3.0116   -1.2181 H   0  0  0  0  0  0  0  0  0  0  0  0
   -1.8824   -3.0459   -1.2329 H   0  0  0  0  0  0  0  0  0  0  0  0
   -1.9736   -2.0757    1.0243 H   0  0  0  0  0  0  0  0  0  0  0  0
   -0.9660   -3.5109    1.0391 H   0  0  0  0  0  0  0  0  0  0  0  0
    0.0544   -1.6225    2.3412 H   0  0  0  0  0  0  0  0  0  0  0  0
    1.0832   -2.1136    1.0023 H   0  0  0  0  0  0  0  0  0  0  0  0
   -0.8768    0.2114    0.9488 H   0  0  0  0  0  0  0  0  0  0  0  0
    1.0922    1.1543    2.0192 H   0  0  0  0  0  0  0  0  0  0  0  0
    2.1587    0.1978    1.0013 H   0  0  0  0  0  0  0  0  0  0  0  0
    0.6571    2.9241    0.3474 H   0  0  0  0  0  0  0  0  0  0  0  0
    2.1523    2.0194   -0.4672 H   0  0  0  0  0  0  0  0  0  0  0  0
    0.6673    1.3699   -2.2129 H   0  0  0  0  0  0  0  0  0  0  0  0
   -0.7344    1.6658   -1.1951 H   0  0  0  0  0  0  0  0  0  0  0  0
    1.0690   -0.7759   -1.1426 H   0  0  0  0  0  0  0  0  0  0  0  0
   -0.9608   -1.1074   -2.5350 H   0  0  0  0  0  0  0  0  0  0  0  0
   -1.9647   -0.5671   -1.1961 H   0  0  0  0  0  0  0  0  0  0  0  0
  1  2  1  0
  1  3  1  0
  1  4  1  0
  1 23  1  0
  5  6  1  0
  5 13  1  0
  5 14  1  0
  5 15  1  0
  6  7  1  0
  6 16  1  0
  6 17  1  0
  7  8  1  0
  7 18  1  0
  7 19  1  0
  8  9  1  0
  8 12  1  0
  8 20  1  0
  9 10  1  0
  9 21  1  0
  9 22  1  0
 10 11  1  0
 10 24  1  0
 11 12  1  0
 11 25  1  0
 11 26  1  0
 12 13  1  0
 12 27  1  0
 13 28  1  0
 13 29  1  0
M  RAD  1  10   2
M  END
>  <reaction>  (9) 
rxn_599

>  <mol_properties>  (9) 
{"0": {"label": "*3", "atom_type": "Cs"}, "1": {"label": "*4", "atom_type": "H0"}, "8": {"label": "*0", "atom_type": "Cs"}, "9": {"label": "*1", "atom_type": "Cs"}, "22": {"label": "*2", "atom_type": "H0"}}

>  <type>  (9) 
unop_5

>  <geom_source>  (9) 
Heuristics

$$$$

     RDKit          3D

 29 29  0  0  0  0  0  0  0  0999 V2000
    0.1623    4.0519    0.7939 C   0  0  0  0  0  0  0  0  0  0  0  0
   -0.9184    4.0522    0.6603 H   0  0  0  0  0  0  0  0  0  0  0  0
    0.6443    4.3161   -0.1462 H   0  0  0  0  0  0  0  0  0  0  0  0
    0.4901    4.7543    1.5586 H   0  0  0  0  0  0  0  0  0  0  0  0
   -1.0230   -2.4828   -0.8595 C   0  0  0  0  0  0  0  0  0  0  0  0
   -1.0230   -2.4828    0.6711 C   0  0  0  0  0  0  0  0  0  0  0  0
    0.1201   -1.6464    1.2531 C   0  0  0  0  0  0  0  0  0  0  0  0
    0.0805   -0.2454    0.6690 C   0  0  0  0  0  0  0  0  0  0  0  0
    1.1996    0.7283    1.0244 C   0  0  0  0  0  0  0  0  0  0  0  0
    1.1496    1.7989   -0.0942 C   0  0  0  0  0  3  0  0  0  0  0  0
    0.2561    1.2071   -1.2128 C   0  0  0  0  0  0  0  0  0  0  0  0
    0.1311   -0.2711   -0.8574 C   0  0  0  0  0  0  0  0  0  0  0  0
   -1.0230   -1.0664   -1.4415 C   0  0  0  0  0  0  0  0  0  0  0  0
   -0.1306   -3.0096   -1.2154 H   0  0  0  0  0  0  0  0  0  0  0  0
   -1.8839   -3.0439   -1.2302 H   0  0  0  0  0  0  0  0  0  0  0  0
   -1.9751   -2.0737    1.0270 H   0  0  0  0  0  0  0  0  0  0  0  0
   -0.9675   -3.5089    1.0418 H   0  0  0  0  0  0  0  0  0  0  0  0
    0.0529   -1.6205    2.3440 H   0  0  0  0  0  0  0  0  0  0  0  0
    1.0817   -2.1116    1.0051 H   0  0  0  0  0  0  0  0  0  0  0  0
   -0.8783    0.2134    0.9515 H   0  0  0  0  0  0  0  0  0  0  0  0
    1.0907    1.1563    2.0219 H   0  0  0  0  0  0  0  0  0  0  0  0
    2.1572    0.1998    1.0040 H   0  0  0  0  0  0  0  0  0  0  0  0
    0.6556    2.9262    0.3501 H   0  0  0  0  0  0  0  0  0  0  0  0
    2.1508    2.0214   -0.4644 H   0  0  0  0  0  0  0  0  0  0  0  0
    0.6658    1.3719   -2.2102 H   0  0  0  0  0  0  0  0  0  0  0  0
   -0.7359    1.6678   -1.1924 H   0  0  0  0  0  0  0  0  0  0  0  0
    1.0675   -0.7739   -1.1399 H   0  0  0  0  0  0  0  0  0  0  0  0
   -0.9623   -1.1053   -2.5323 H   0  0  0  0  0  0  0  0  0  0  0  0
   -1.9662   -0.5651   -1.1934 H   0  0  0  0  0  0  0  0  0  0  0  0
  1  2  1  0
  1  3  1  0
  1  4  1  0
  1 23  1  0
  5  6  1  0
  5 13  1  0
  5 14  1  0
  5 15  1  0
  6  7  1  0
  6 16  1  0
  6 17  1  0
  7  8  1  0
  7 18  1  0
  7 19  1  0
  8  9  1  0
  8 12  1  0
  8 20  1  0
  9 10  1  0
  9 21  1  0
  9 22  1  0
 10 11  1  0
 10 24  1  0
 11 12  1  0
 11 25  1  0
 11 26  1  0
 12 13  1  0
 12 27  1  0
 13 28  1  0
 13 29  1  0
M  RAD  1  10   2
M  END
>  <reaction>  (10) 
rxn_599

>  <mol_properties>  (10) 
{"0": {"label": "*3", "atom_type": "Cs"}, "1": {"label": "*4", "atom_type": "H0"}, "8": {"label": "*0", "atom_type": "Cs"}, "9": {"label": "*1", "atom_type": "Cs"}, "22": {"label": "*2", "atom_type": "H0"}}

>  <type>  (10) 
unop_6

>  <geom_source>  (10) 
Heuristics

$$$$

     RDKit          3D

 29 29  0  0  0  0  0  0  0  0999 V2000
    0.1616    4.0505    0.7934 C   0  0  0  0  0  0  0  0  0  0  0  0
   -0.7351    4.3014    0.2289 H   0  0  0  0  0  0  0  0  0  0  0  0
    1.0426    4.3427    0.2240 H   0  0  0  0  0  0  0  0  0  0  0  0
    0.0014    4.6672    1.6764 H   0  0  0  0  0  0  0  0  0  0  0  0
   -1.0237   -2.4842   -0.8599 C   0  0  0  0  0  0  0  0  0  0  0  0
   -1.0237   -2.4842    0.6707 C   0  0  0  0  0  0  0  0  0  0  0  0
    0.1194   -1.6478    1.2527 C   0  0  0  0  0  0  0  0  0  0  0  0
    0.0798   -0.2468    0.6686 C   0  0  0  0  0  0  0  0  0  0  0  0
    1.1989    0.7269    1.0240 C   0  0  0  0  0  0  0  0  0  0  0  0
    1.1489    1.7975   -0.0946 C   0  0  0  0  0  3  0  0  0  0  0  0
    0.2554    1.2057   -1.2132 C   0  0  0  0  0  0  0  0  0  0  0  0
    0.1304   -0.2725   -0.8578 C   0  0  0  0  0  0  0  0  0  0  0  0
   -1.0237   -1.0678   -1.4419 C   0  0  0  0  0  0  0  0  0  0  0  0
   -0.1312   -3.0110   -1.2158 H   0  0  0  0  0  0  0  0  0  0  0  0
   -1.8846   -3.0453   -1.2306 H   0  0  0  0  0  0  0  0  0  0  0  0
   -1.9758   -2.0751    1.0266 H   0  0  0  0  0  0  0  0  0  0  0  0
   -0.9681   -3.5103    1.0414 H   0  0  0  0  0  0  0  0  0  0  0  0
    0.0522   -1.6219    2.3435 H   0  0  0  0  0  0  0  0  0  0  0  0
    1.0810   -2.1130    1.0046 H   0  0  0  0  0  0  0  0  0  0  0  0
   -0.8790    0.2120    0.9511 H   0  0  0  0  0  0  0  0  0  0  0  0
    1.0901    1.1549    2.0214 H   0  0  0  0  0  0  0  0  0  0  0  0
    2.1565    0.1984    1.0036 H   0  0  0  0  0  0  0  0  0  0  0  0
    0.6549    2.9248    0.3497 H   0  0  0  0  0  0  0  0  0  0  0  0
    2.1501    2.0200   -0.4649 H   0  0  0  0  0  0  0  0  0  0  0  0
    0.6651    1.3705   -2.2106 H   0  0  0  0  0  0  0  0  0  0  0  0
   -0.7366    1.6664   -1.1928 H   0  0  0  0  0  0  0  0  0  0  0  0
    1.0668   -0.7753   -1.1403 H   0  0  0  0  0  0  0  0  0  0  0  0
   -0.9630   -1.1067   -2.5327 H   0  0  0  0  0  0  0  0  0  0  0  0
   -1.9668   -0.5664   -1.1938 H   0  0  0  0  0  0  0  0  0  0  0  0
  1  2  1  0
  1  3  1  0
  1  4  1  0
  1 23  1  0
  5  6  1  0
  5 13  1  0
  5 14  1  0
  5 15  1  0
  6  7  1  0
  6 16  1  0
  6 17  1  0
  7  8  1  0
  7 18  1  0
  7 19  1  0
  8  9  1  0
  8 12  1  0
  8 20  1  0
  9 10  1  0
  9 21  1  0
  9 22  1  0
 10 11  1  0
 10 24  1  0
 11 12  1  0
 11 25  1  0
 11 26  1  0
 12 13  1  0
 12 27  1  0
 13 28  1  0
 13 29  1  0
M  RAD  1  10   2
M  END
>  <reaction>  (11) 
rxn_599

>  <mol_properties>  (11) 
{"0": {"label": "*3", "atom_type": "Cs"}, "1": {"label": "*4", "atom_type": "H0"}, "8": {"label": "*0", "atom_type": "Cs"}, "9": {"label": "*1", "atom_type": "Cs"}, "22": {"label": "*2", "atom_type": "H0"}}

>  <type>  (11) 
unop_7

>  <geom_source>  (11) 
Heuristics

$$$$

     RDKit          3D

 29 29  0  0  0  0  0  0  0  0999 V2000
    0.1620    4.0517    0.7936 C   0  0  0  0  0  0  0  0  0  0  0  0
    0.9686    4.6768    1.1736 H   0  0  0  0  0  0  0  0  0  0  0  0
   -0.7832    4.3758    1.2266 H   0  0  0  0  0  0  0  0  0  0  0  0
    0.0761    4.0923   -0.2912 H   0  0  0  0  0  0  0  0  0  0  0  0
   -1.0233   -2.4830   -0.8597 C   0  0  0  0  0  0  0  0  0  0  0  0
   -1.0233   -2.4830    0.6709 C   0  0  0  0  0  0  0  0  0  0  0  0
    0.1198   -1.6466    1.2528 C   0  0  0  0  0  0  0  0  0  0  0  0
    0.0802   -0.2456    0.6687 C   0  0  0  0  0  0  0  0  0  0  0  0
    1.1992    0.7282    1.0242 C   0  0  0  0  0  0  0  0  0  0  0  0
    1.1493    1.7987   -0.0944 C   0  0  0  0  0  3  0  0  0  0  0  0
    0.2558    1.2069   -1.2131 C   0  0  0  0  0  0  0  0  0  0  0  0
    0.1307   -0.2712   -0.8576 C   0  0  0  0  0  0  0  0  0  0  0  0
   -1.0233   -1.0666   -1.4417 C   0  0  0  0  0  0  0  0  0  0  0  0
   -0.1309   -3.0098   -1.2157 H   0  0  0  0  0  0  0  0  0  0  0  0
   -1.8842   -3.0441   -1.2305 H   0  0  0  0  0  0  0  0  0  0  0  0
   -1.9755   -2.0738    1.0268 H   0  0  0  0  0  0  0  0  0  0  0  0
   -0.9678   -3.5091    1.0416 H   0  0  0  0  0  0  0  0  0  0  0  0
    0.0525   -1.6206    2.3437 H   0  0  0  0  0  0  0  0  0  0  0  0
    1.0813   -2.1117    1.0048 H   0  0  0  0  0  0  0  0  0  0  0  0
   -0.8786    0.2132    0.9513 H   0  0  0  0  0  0  0  0  0  0  0  0
    1.0904    1.1561    2.0216 H   0  0  0  0  0  0  0  0  0  0  0  0
    2.1569    0.1996    1.0038 H   0  0  0  0  0  0  0  0  0  0  0  0
    0.6553    2.9260    0.3499 H   0  0  0  0  0  0  0  0  0  0  0  0
    2.1505    2.0212   -0.4647 H   0  0  0  0  0  0  0  0  0  0  0  0
    0.6654    1.3718   -2.2105 H   0  0  0  0  0  0  0  0  0  0  0  0
   -0.7362    1.6676   -1.1926 H   0  0  0  0  0  0  0  0  0  0  0  0
    1.0672   -0.7741   -1.1402 H   0  0  0  0  0  0  0  0  0  0  0  0
   -0.9627   -1.1055   -2.5326 H   0  0  0  0  0  0  0  0  0  0  0  0
   -1.9665   -0.5652   -1.1937 H   0  0  0  0  0  0  0  0  0  0  0  0
  1  2  1  0
  1  3  1  0
  1  4  1  0
  1 23  1  0
  5  6  1  0
  5 13  1  0
  5 14  1  0
  5 15  1  0
  6  7  1  0
  6 16  1  0
  6 17  1  0
  7  8  1  0
  7 18  1  0
  7 19  1  0
  8  9  1  0
  8 12  1  0
  8 20  1  0
  9 10  1  0
  9 21  1  0
  9 22  1  0
 10 11  1  0
 10 24  1  0
 11 12  1  0
 11 25  1  0
 11 26  1  0
 12 13  1  0
 12 27  1  0
 13 28  1  0
 13 29  1  0
M  RAD  1  10   2
M  END
>  <reaction>  (12) 
rxn_599

>  <mol_properties>  (12) 
{"0": {"label": "*3", "atom_type": "Cs"}, "1": {"label": "*4", "atom_type": "H0"}, "8": {"label": "*0", "atom_type": "Cs"}, "9": {"label": "*1", "atom_type": "Cs"}, "22": {"label": "*2", "atom_type": "H0"}}

>  <type>  (12) 
unop_8

>  <geom_source>  (12) 
Heuristics

$$$$

     RDKit          3D

 29 29  0  0  0  0  0  0  0  0999 V2000
    0.1628    4.0546    0.7934 C   0  0  0  0  0  0  0  0  0  0  0  0
   -0.5458    3.8497    1.5944 H   0  0  0  0  0  0  0  0  0  0  0  0
   -0.3804    4.2682   -0.1259 H   0  0  0  0  0  0  0  0  0  0  0  0
    1.0762    4.6348    0.6715 H   0  0  0  0  0  0  0  0  0  0  0  0
   -1.0225   -2.4801   -0.8600 C   0  0  0  0  0  0  0  0  0  0  0  0
   -1.0225   -2.4801    0.6706 C   0  0  0  0  0  0  0  0  0  0  0  0
    0.1206   -1.6437    1.2526 C   0  0  0  0  0  0  0  0  0  0  0  0
    0.0810   -0.2427    0.6685 C   0  0  0  0  0  0  0  0  0  0  0  0
    1.2001    0.7311    1.0239 C   0  0  0  0  0  0  0  0  0  0  0  0
    1.1501    1.8016   -0.0947 C   0  0  0  0  0  3  0  0  0  0  0  0
    0.2566    1.2098   -1.2133 C   0  0  0  0  0  0  0  0  0  0  0  0
    0.1315   -0.2683   -0.8579 C   0  0  0  0  0  0  0  0  0  0  0  0
   -1.0225   -1.0636   -1.4420 C   0  0  0  0  0  0  0  0  0  0  0  0
   -0.1301   -3.0069   -1.2159 H   0  0  0  0  0  0  0  0  0  0  0  0
   -1.8834   -3.0412   -1.2307 H   0  0  0  0  0  0  0  0  0  0  0  0
   -1.9746   -2.0709    1.0265 H   0  0  0  0  0  0  0  0  0  0  0  0
   -0.9670   -3.5062    1.0413 H   0  0  0  0  0  0  0  0  0  0  0  0
    0.0534   -1.6177    2.3435 H   0  0  0  0  0  0  0  0  0  0  0  0
    1.0821   -2.1088    1.0046 H   0  0  0  0  0  0  0  0  0  0  0  0
   -0.8778    0.2161    0.9510 H   0  0  0  0  0  0  0  0  0  0  0  0
    1.0912    1.1590    2.0214 H   0  0  0  0  0  0  0  0  0  0  0  0
    2.1577    0.2025    1.0035 H   0  0  0  0  0  0  0  0  0  0  0  0
    0.6561    2.9289    0.3496 H   0  0  0  0  0  0  0  0  0  0  0  0
    2.1513    2.0241   -0.4649 H   0  0  0  0  0  0  0  0  0  0  0  0
    0.6663    1.3747   -2.2107 H   0  0  0  0  0  0  0  0  0  0  0  0
   -0.7354    1.6705   -1.1929 H   0  0  0  0  0  0  0  0  0  0  0  0
    1.0680   -0.7712   -1.1404 H   0  0  0  0  0  0  0  0  0  0  0  0
   -0.9619   -1.1026   -2.5328 H   0  0  0  0  0  0  0  0  0  0  0  0
   -1.9657   -0.5623   -1.1939 H   0  0  0  0  0  0  0  0  0  0  0  0
  1  2  1  0
  1  3  1  0
  1  4  1  0
  1 23  1  0
  5  6  1  0
  5 13  1  0
  5 14  1  0
  5 15  1  0
  6  7  1  0
  6 16  1  0
  6 17  1  0
  7  8  1  0
  7 18  1  0
  7 19  1  0
  8  9  1  0
  8 12  1  0
  8 20  1  0
  9 10  1  0
  9 21  1  0
  9 22  1  0
 10 11  1  0
 10 24  1  0
 11 12  1  0
 11 25  1  0
 11 26  1  0
 12 13  1  0
 12 27  1  0
 13 28  1  0
 13 29  1  0
M  RAD  1  10   2
M  END
>  <reaction>  (13) 
rxn_599

>  <mol_properties>  (13) 
{"0": {"label": "*3", "atom_type": "Cs"}, "1": {"label": "*4", "atom_type": "H0"}, "8": {"label": "*0", "atom_type": "Cs"}, "9": {"label": "*1", "atom_type": "Cs"}, "22": {"label": "*2", "atom_type": "H0"}}

>  <type>  (13) 
unop_9

>  <geom_source>  (13) 
Heuristics

$$$$

     RDKit          3D

 29 29  0  0  0  0  0  0  0  0999 V2000
    0.1619    4.0528    0.7925 C   0  0  0  0  0  0  0  0  0  0  0  0
    0.7845    4.4273    1.6035 H   0  0  0  0  0  0  0  0  0  0  0  0
   -0.8611    4.3996    0.9303 H   0  0  0  0  0  0  0  0  0  0  0  0
    0.3521    4.1678   -0.2735 H   0  0  0  0  0  0  0  0  0  0  0  0
   -1.0234   -2.4819   -0.8609 C   0  0  0  0  0  0  0  0  0  0  0  0
   -1.0234   -2.4819    0.6697 C   0  0  0  0  0  0  0  0  0  0  0  0
    0.1197   -1.6455    1.2517 C   0  0  0  0  0  0  0  0  0  0  0  0
    0.0801   -0.2445    0.6676 C   0  0  0  0  0  0  0  0  0  0  0  0
    1.1991    0.7293    1.0231 C   0  0  0  0  0  0  0  0  0  0  0  0
    1.1492    1.7998   -0.0956 C   0  0  0  0  0  3  0  0  0  0  0  0
    0.2557    1.2080   -1.2142 C   0  0  0  0  0  0  0  0  0  0  0  0
    0.1306   -0.2701   -0.8587 C   0  0  0  0  0  0  0  0  0  0  0  0
   -1.0234   -1.0654   -1.4429 C   0  0  0  0  0  0  0  0  0  0  0  0
   -0.1310   -3.0087   -1.2168 H   0  0  0  0  0  0  0  0  0  0  0  0
   -1.8843   -3.0430   -1.2316 H   0  0  0  0  0  0  0  0  0  0  0  0
   -1.9756   -2.0727    1.0257 H   0  0  0  0  0  0  0  0  0  0  0  0
   -0.9679   -3.5080    1.0405 H   0  0  0  0  0  0  0  0  0  0  0  0
    0.0524   -1.6195    2.3426 H   0  0  0  0  0  0  0  0  0  0  0  0
    1.0812   -2.1106    1.0037 H   0  0  0  0  0  0  0  0  0  0  0  0
   -0.8787    0.2143    0.9501 H   0  0  0  0  0  0  0  0  0  0  0  0
    1.0903    1.1572    2.0205 H   0  0  0  0  0  0  0  0  0  0  0  0
    2.1568    0.2007    1.0026 H   0  0  0  0  0  0  0  0  0  0  0  0
    0.6552    2.9271    0.3488 H   0  0  0  0  0  0  0  0  0  0  0  0
    2.1504    2.0223   -0.4658 H   0  0  0  0  0  0  0  0  0  0  0  0
    0.6653    1.3729   -2.2116 H   0  0  0  0  0  0  0  0  0  0  0  0
   -0.7363    1.6687   -1.1938 H   0  0  0  0  0  0  0  0  0  0  0  0
    1.0671   -0.7730   -1.1413 H   0  0  0  0  0  0  0  0  0  0  0  0
   -0.9628   -1.1044   -2.5337 H   0  0  0  0  0  0  0  0  0  0  0  0
   -1.9666   -0.5641   -1.1948 H   0  0  0  0  0  0  0  0  0  0  0  0
  1  2  1  0
  1  3  1  0
  1  4  1  0
  1 23  1  0
  5  6  1  0
  5 13  1  0
  5 14  1  0
  5 15  1  0
  6  7  1  0
  6 16  1  0
  6 17  1  0
  7  8  1  0
  7 18  1  0
  7 19  1  0
  8  9  1  0
  8 12  1  0
  8 20  1  0
  9 10  1  0
  9 21  1  0
  9 22  1  0
 10 11  1  0
 10 24  1  0
 11 12  1  0
 11 25  1  0
 11 26  1  0
 12 13  1  0
 12 27  1  0
 13 28  1  0
 13 29  1  0
M  RAD  1  10   2
M  END
>  <reaction>  (14) 
rxn_599

>  <mol_properties>  (14) 
{"0": {"label": "*3", "atom_type": "Cs"}, "1": {"label": "*4", "atom_type": "H0"}, "8": {"label": "*0", "atom_type": "Cs"}, "9": {"label": "*1", "atom_type": "Cs"}, "22": {"label": "*2", "atom_type": "H0"}}

>  <type>  (14) 
unop_10

>  <geom_source>  (14) 
Heuristics

$$$$

     RDKit          3D

 29 29  0  0  0  0  0  0  0  0999 V2000
    0.1616    4.0496    0.7919 C   0  0  0  0  0  0  0  0  0  0  0  0
   -0.3476    4.5676   -0.0194 H   0  0  0  0  0  0  0  0  0  0  0  0
    1.1968    4.3835    0.8426 H   0  0  0  0  0  0  0  0  0  0  0  0
   -0.5328    4.4835    1.5097 H   0  0  0  0  0  0  0  0  0  0  0  0
   -1.0237   -2.4851   -0.8614 C   0  0  0  0  0  0  0  0  0  0  0  0
   -1.0237   -2.4851    0.6692 C   0  0  0  0  0  0  0  0  0  0  0  0
    0.1194   -1.6487    1.2512 C   0  0  0  0  0  0  0  0  0  0  0  0
    0.0798   -0.2477    0.6671 C   0  0  0  0  0  0  0  0  0  0  0  0
    1.1988    0.7260    1.0225 C   0  0  0  0  0  0  0  0  0  0  0  0
    1.1489    1.7966   -0.0961 C   0  0  0  0  0  3  0  0  0  0  0  0
    0.2554    1.2048   -1.2147 C   0  0  0  0  0  0  0  0  0  0  0  0
    0.1303   -0.2734   -0.8593 C   0  0  0  0  0  0  0  0  0  0  0  0
   -1.0237   -1.0687   -1.4434 C   0  0  0  0  0  0  0  0  0  0  0  0
   -0.1313   -3.0119   -1.2173 H   0  0  0  0  0  0  0  0  0  0  0  0
   -1.8846   -3.0462   -1.2321 H   0  0  0  0  0  0  0  0  0  0  0  0
   -1.9759   -2.0760    1.0251 H   0  0  0  0  0  0  0  0  0  0  0  0
   -0.9682   -3.5112    1.0399 H   0  0  0  0  0  0  0  0  0  0  0  0
    0.0521   -1.6228    2.3420 H   0  0  0  0  0  0  0  0  0  0  0  0
    1.0809   -2.1139    1.0031 H   0  0  0  0  0  0  0  0  0  0  0  0
   -0.8790    0.2111    0.9496 H   0  0  0  0  0  0  0  0  0  0  0  0
    1.0900    1.1540    2.0199 H   0  0  0  0  0  0  0  0  0  0  0  0
    2.1565    0.1975    1.0021 H   0  0  0  0  0  0  0  0  0  0  0  0
    0.6549    2.9238    0.3482 H   0  0  0  0  0  0  0  0  0  0  0  0
    2.1501    2.0191   -0.4664 H   0  0  0  0  0  0  0  0  0  0  0  0
    0.6650    1.3696   -2.2121 H   0  0  0  0  0  0  0  0  0  0  0  0
   -0.7366    1.6655   -1.1943 H   0  0  0  0  0  0  0  0  0  0  0  0
    1.0668   -0.7762   -1.1418 H   0  0  0  0  0  0  0  0  0  0  0  0
   -0.9631   -1.1076   -2.5342 H   0  0  0  0  0  0  0  0  0  0  0  0
   -1.9669   -0.5674   -1.1953 H   0  0  0  0  0  0  0  0  0  0  0  0
  1  2  1  0
  1  3  1  0
  1  4  1  0
  1 23  1  0
  5  6  1  0
  5 13  1  0
  5 14  1  0
  5 15  1  0
  6  7  1  0
  6 16  1  0
  6 17  1  0
  7  8  1  0
  7 18  1  0
  7 19  1  0
  8  9  1  0
  8 12  1  0
  8 20  1  0
  9 10  1  0
  9 21  1  0
  9 22  1  0
 10 11  1  0
 10 24  1  0
 11 12  1  0
 11 25  1  0
 11 26  1  0
 12 13  1  0
 12 27  1  0
 13 28  1  0
 13 29  1  0
M  RAD  1  10   2
M  END
>  <reaction>  (15) 
rxn_599

>  <mol_properties>  (15) 
{"0": {"label": "*3", "atom_type": "Cs"}, "1": {"label": "*4", "atom_type": "H0"}, "8": {"label": "*0", "atom_type": "Cs"}, "9": {"label": "*1", "atom_type": "Cs"}, "22": {"label": "*2", "atom_type": "H0"}}

>  <type>  (15) 
unop_11

>  <geom_source>  (15) 
Heuristics

$$$$

     RDKit          3D

 29 29  0  0  0  0  0  0  0  0999 V2000
    0.1629    4.0550    0.7927 C   0  0  0  0  0  0  0  0  0  0  0  0
   -0.0892    3.9503    1.8468 H   0  0  0  0  0  0  0  0  0  0  0  0
   -0.7338    4.3059    0.2281 H   0  0  0  0  0  0  0  0  0  0  0  0
    0.9523    4.4481    0.1538 H   0  0  0  0  0  0  0  0  0  0  0  0
   -1.0223   -2.4797   -0.8606 C   0  0  0  0  0  0  0  0  0  0  0  0
   -1.0223   -2.4797    0.6700 C   0  0  0  0  0  0  0  0  0  0  0  0
    0.1208   -1.6433    1.2520 C   0  0  0  0  0  0  0  0  0  0  0  0
    0.0812   -0.2423    0.6678 C   0  0  0  0  0  0  0  0  0  0  0  0
    1.2002    0.7314    1.0233 C   0  0  0  0  0  0  0  0  0  0  0  0
    1.1503    1.8020   -0.0953 C   0  0  0  0  0  3  0  0  0  0  0  0
    0.2568    1.2102   -1.2140 C   0  0  0  0  0  0  0  0  0  0  0  0
    0.1317   -0.2680   -0.8585 C   0  0  0  0  0  0  0  0  0  0  0  0
   -1.0223   -1.0633   -1.4426 C   0  0  0  0  0  0  0  0  0  0  0  0
   -0.1299   -3.0065   -1.2166 H   0  0  0  0  0  0  0  0  0  0  0  0
   -1.8832   -3.0408   -1.2314 H   0  0  0  0  0  0  0  0  0  0  0  0
   -1.9745   -2.0706    1.0259 H   0  0  0  0  0  0  0  0  0  0  0  0
   -0.9668   -3.5058    1.0407 H   0  0  0  0  0  0  0  0  0  0  0  0
    0.0535   -1.6174    2.3428 H   0  0  0  0  0  0  0  0  0  0  0  0
    1.0823   -2.1085    1.0039 H   0  0  0  0  0  0  0  0  0  0  0  0
   -0.8776    0.2165    0.9504 H   0  0  0  0  0  0  0  0  0  0  0  0
    1.0914    1.1594    2.0207 H   0  0  0  0  0  0  0  0  0  0  0  0
    2.1578    0.2029    1.0029 H   0  0  0  0  0  0  0  0  0  0  0  0
    0.6563    2.9293    0.3490 H   0  0  0  0  0  0  0  0  0  0  0  0
    2.1515    2.0245   -0.4656 H   0  0  0  0  0  0  0  0  0  0  0  0
    0.6664    1.3750   -2.2114 H   0  0  0  0  0  0  0  0  0  0  0  0
   -0.7353    1.6709   -1.1935 H   0  0  0  0  0  0  0  0  0  0  0  0
    1.0682   -0.7708   -1.1410 H   0  0  0  0  0  0  0  0  0  0  0  0
   -0.9617   -1.1022   -2.5335 H   0  0  0  0  0  0  0  0  0  0  0  0
   -1.9655   -0.5620   -1.1946 H   0  0  0  0  0  0  0  0  0  0  0  0
  1  2  1  0
  1  3  1  0
  1  4  1  0
  1 23  1  0
  5  6  1  0
  5 13  1  0
  5 14  1  0
  5 15  1  0
  6  7  1  0
  6 16  1  0
  6 17  1  0
  7  8  1  0
  7 18  1  0
  7 19  1  0
  8  9  1  0
  8 12  1  0
  8 20  1  0
  9 10  1  0
  9 21  1  0
  9 22  1  0
 10 11  1  0
 10 24  1  0
 11 12  1  0
 11 25  1  0
 11 26  1  0
 12 13  1  0
 12 27  1  0
 13 28  1  0
 13 29  1  0
M  RAD  1  10   2
M  END
>  <reaction>  (16) 
rxn_599

>  <mol_properties>  (16) 
{"0": {"label": "*3", "atom_type": "Cs"}, "1": {"label": "*4", "atom_type": "H0"}, "8": {"label": "*0", "atom_type": "Cs"}, "9": {"label": "*1", "atom_type": "Cs"}, "22": {"label": "*2", "atom_type": "H0"}}

>  <type>  (16) 
unop_12

>  <geom_source>  (16) 
Heuristics

$$$$

     RDKit          3D

 29 27  0  0  0  0  0  0  0  0999 V2000
   -0.4929    1.0605    0.2254 C   0  0  0  0  0  0  0  0  0  0  0  0
   -0.5940    0.1676   -1.0169 C   0  0  0  0  0  0  0  0  0  0  0  0
   -1.2617    0.4916    1.4407 C   0  0  0  0  0  0  0  0  0  0  0  0
   -2.0051   -0.3941   -1.2931 C   0  0  0  0  0  0  0  0  0  0  0  0
   -2.6971    0.1178    1.0735 C   0  0  0  0  0  0  0  0  0  0  0  0
   -2.7014   -0.9309   -0.0384 C   0  0  0  0  0  0  0  0  0  0  0  0
    1.0083    1.0971    0.5113 C   0  0  0  0  0  3  0  0  0  0  0  0
    0.4872   -0.8945   -0.8337 C   0  0  0  0  0  3  0  0  0  0  0  0
    4.1685   -0.2246   -0.0240 C   0  0  0  0  0  0  0  0  0  0  0  0
    1.5660   -0.2398    0.0245 C   0  0  0  0  0  1  0  0  0  0  0  0
   -0.8726    2.0818   -0.0022 H   0  0  0  0  0  0  0  0  0  0  0  0
   -0.3050    0.7821   -1.9010 H   0  0  0  0  0  0  0  0  0  0  0  0
   -1.2822    1.2538    2.2496 H   0  0  0  0  0  0  0  0  0  0  0  0
   -0.7476   -0.4105    1.8421 H   0  0  0  0  0  0  0  0  0  0  0  0
   -3.2086   -0.2961    1.9691 H   0  0  0  0  0  0  0  0  0  0  0  0
   -3.2532    1.0238    0.7459 H   0  0  0  0  0  0  0  0  0  0  0  0
   -3.7521   -1.1917   -0.2893 H   0  0  0  0  0  0  0  0  0  0  0  0
   -2.1997   -1.8584    0.3127 H   0  0  0  0  0  0  0  0  0  0  0  0
   -1.9457   -1.1998   -2.0566 H   0  0  0  0  0  0  0  0  0  0  0  0
   -2.6312    0.4195   -1.7213 H   0  0  0  0  0  0  0  0  0  0  0  0
    1.2360    1.2480    1.5885 H   0  0  0  0  0  0  0  0  0  0  0  0
    1.4732    1.9251   -0.0687 H   0  0  0  0  0  0  0  0  0  0  0  0
    0.8949   -1.2229   -1.8145 H   0  0  0  0  0  0  0  0  0  0  0  0
    0.0962   -1.7788   -0.2885 H   0  0  0  0  0  0  0  0  0  0  0  0
    4.3540    0.7298    0.5102 H   0  0  0  0  0  0  0  0  0  0  0  0
    4.8005   -1.0234    0.4158 H   0  0  0  0  0  0  0  0  0  0  0  0
    4.4206   -0.1026   -1.0975 H   0  0  0  0  0  0  0  0  0  0  0  0
    2.9416   -0.5433    0.0902 H   0  0  0  0  0  0  0  0  0  0  0  0
    2.5031   -0.0871   -0.5540 H   0  0  0  0  0  0  0  0  0  0  0  0
  1  7  1  0
  1  3  1  0
  1  2  1  0
  1 11  1  0
  2  8  1  0
  2  4  1  0
  2 12  1  0
  3  5  1  0
  3 13  1  0
  3 14  1  0
  4  6  1  0
  4 19  1  0
  4 20  1  0
  5  6  1  0
  5 15  1  0
  5 16  1  0
  6 17  1  0
  6 18  1  0
  7 21  1  0
  7 22  1  0
  8 23  1  0
  8 24  1  0
  9 25  1  0
  9 26  1  0
  9 27  1  0
  9 28  1  0
 10 29  1  0
M  CHG  2   7  -1   8   1
M  RAD  1  10   2
M  END
>  <reaction>  (17) 
rxn_599

>  <mol_properties>  (17) 
{"0": {"label": "*3", "atom_type": "Cs"}, "1": {"label": "*4", "atom_type": "H0"}, "8": {"label": "*0", "atom_type": "Cs"}, "9": {"label": "*1", "atom_type": "Cs"}, "22": {"label": "*2", "atom_type": "H0"}}

>  <type>  (17) 
unop_13

>  <geom_source>  (17) 
AutoTST

$$$$
