
     RDKit          3D

 15 15  0  0  0  0  0  0  0  0999 V2000
    2.2031   -0.2111   -0.1693 C   0  0  0  0  0  0  0  0  0  0  0  0
    0.7140   -0.0314   -0.0623 C   0  0  0  0  0  0  0  0  0  0  0  0
   -0.0114    0.5491   -1.0982 C   0  0  0  0  0  0  0  0  0  0  0  0
   -1.3882    0.6886   -1.0150 C   0  0  0  0  0  0  0  0  0  0  0  0
   -2.0661    0.2493    0.1118 C   0  0  0  0  0  0  0  0  0  0  0  0
   -1.3551   -0.3278    1.1528 C   0  0  0  0  0  0  0  0  0  0  0  0
    0.0216   -0.4648    1.0642 C   0  0  0  0  0  0  0  0  0  0  0  0
    2.6776   -0.1836    0.8122 H   0  0  0  0  0  0  0  0  0  0  0  0
    2.4446   -1.1749   -0.6249 H   0  0  0  0  0  0  0  0  0  0  0  0
    2.6532    0.5664   -0.7875 H   0  0  0  0  0  0  0  0  0  0  0  0
    0.5104    0.8989   -1.9819 H   0  0  0  0  0  0  0  0  0  0  0  0
   -1.9328    1.1452   -1.8322 H   0  0  0  0  0  0  0  0  0  0  0  0
   -3.1409    0.3597    0.1800 H   0  0  0  0  0  0  0  0  0  0  0  0
   -1.8736   -0.6702    2.0398 H   0  0  0  0  0  0  0  0  0  0  0  0
    0.5695   -0.9141    1.8849 H   0  0  0  0  0  0  0  0  0  0  0  0
  1  2  1  0
  1  8  1  0
  1  9  1  0
  1 10  1  0
  2  3  2  0
  2  7  1  0
  3  4  1  0
  3 11  1  0
  4  5  2  0
  4 12  1  0
  5  6  1  0
  5 13  1  0
  6  7  2  0
  6 14  1  0
  7 15  1  0
M  END
>  <reaction>  (1) 
rxn_1444

>  <mol_properties>  (1) 
{"0": {"label": "donator", "atom_type": "Cs"}, "7": {"label": "d_hydrogen", "atom_type": "H0"}}

>  <type>  (1) 
r1h

$$$$

     RDKit          3D

  9  8  0  0  0  0  0  0  0  0999 V2000
    2.3038   -0.0269    0.1590 C   0  0  0  0  0  0  0  0  0  0  0  0
    1.1426    0.1377   -0.1648 C   0  0  0  0  0  0  0  0  0  0  0  0
   -0.1694    0.3175   -0.5203 C   0  0  0  0  0  3  0  0  0  0  0  0
   -1.3163   -0.1910    0.2856 C   0  0  0  0  0  0  0  0  0  0  0  0
    3.3199   -0.1683    0.4378 H   0  0  0  0  0  0  0  0  0  0  0  0
   -0.3786    0.8584   -1.4360 H   0  0  0  0  0  0  0  0  0  0  0  0
   -1.9694    0.6309    0.5951 H   0  0  0  0  0  0  0  0  0  0  0  0
   -1.9325   -0.8770   -0.3039 H   0  0  0  0  0  0  0  0  0  0  0  0
   -0.9753   -0.7144    1.1774 H   0  0  0  0  0  0  0  0  0  0  0  0
  1  2  3  0
  1  5  1  0
  2  3  1  0
  3  4  1  0
  3  6  1  0
  4  7  1  0
  4  8  1  0
  4  9  1  0
M  RAD  1   3   2
M  END
>  <reaction>  (2) 
rxn_1444

>  <mol_properties>  (2) 
{"2": {"label": "acceptor", "atom_type": "Cs"}}

>  <type>  (2) 
r2

$$$$

     RDKit          3D

 10  9  0  0  0  0  0  0  0  0999 V2000
    2.2738    0.0217   -0.0992 C   0  0  0  0  0  0  0  0  0  0  0  0
    1.1083    0.2960   -0.0695 C   0  0  0  0  0  0  0  0  0  0  0  0
   -0.3173    0.6046   -0.0227 C   0  0  0  0  0  0  0  0  0  0  0  0
   -1.1561   -0.5495    0.5292 C   0  0  0  0  0  0  0  0  0  0  0  0
    3.3097   -0.2166   -0.1277 H   0  0  0  0  0  0  0  0  0  0  0  0
   -0.6542    0.8617   -1.0302 H   0  0  0  0  0  0  0  0  0  0  0  0
   -0.4633    1.4978    0.5900 H   0  0  0  0  0  0  0  0  0  0  0  0
   -0.8485   -0.7997    1.5447 H   0  0  0  0  0  0  0  0  0  0  0  0
   -2.2115   -0.2752    0.5459 H   0  0  0  0  0  0  0  0  0  0  0  0
   -1.0409   -1.4407   -0.0879 H   0  0  0  0  0  0  0  0  0  0  0  0
  1  2  3  0
  1  5  1  0
  2  3  1  0
  3  4  1  0
  3  6  1  0
  3  7  1  0
  4  8  1  0
  4  9  1  0
  4 10  1  0
M  END
>  <reaction>  (3) 
rxn_1444

>  <mol_properties>  (3) 
{"2": {"label": "acceptor", "atom_type": "Cs"}, "9": {"label": "a_hydrogen", "atom_type": "H0"}}

>  <type>  (3) 
r2h

$$$$

     RDKit          3D

 24 23  0  0  0  0  0  0  0  0999 V2000
   -3.3073   -0.3125    1.6158 C   0  0  0  0  0  0  0  0  0  0  0  0
   -2.1932   -0.6137    1.9557 C   0  0  0  0  0  0  0  0  0  0  0  0
   -0.8454   -0.9105    2.3110 C   0  0  0  0  0  0  0  0  0  0  0  0
   -0.1499   -1.9941    1.5182 C   0  0  0  0  0  0  0  0  0  0  0  0
   -4.3014   -0.0678    1.3290 H   0  0  0  0  0  0  0  0  0  0  0  0
   -0.6898   -0.9679    3.3875 H   0  0  0  0  0  0  0  0  0  0  0  0
    0.9058   -2.0440    1.7879 H   0  0  0  0  0  0  0  0  0  0  0  0
   -0.5991   -2.9718    1.7098 H   0  0  0  0  0  0  0  0  0  0  0  0
   -0.2193   -1.7926    0.4484 H   0  0  0  0  0  0  0  0  0  0  0  0
    0.4880    1.2781    1.4957 C   0  0  0  0  0  0  0  0  0  0  0  0
    0.7590    0.9489    0.1005 C   0  0  0  0  0  0  0  0  0  0  0  0
   -0.2511    1.0510   -0.8628 C   0  0  0  0  0  3  0  0  0  0  0  0
   -0.0264    0.6620   -2.1712 C   0  0  0  0  0  0  0  0  0  0  0  0
    1.2118    0.1612   -2.5502 C   0  0  0  0  0  0  0  0  0  0  0  0
    2.2245    0.0541   -1.6065 C   0  0  0  0  0  0  0  0  0  0  0  0
    1.9998    0.4399   -0.2970 C   0  0  0  0  0  0  0  0  0  0  0  0
   -0.1620    0.2006    1.9918 H   0  0  0  0  0  0  0  0  0  0  0  0
    1.3557    1.3818    2.1417 H   0  0  0  0  0  0  0  0  0  0  0  0
   -0.2739    2.0337    1.6696 H   0  0  0  0  0  0  0  0  0  0  0  0
   -1.2233    1.4286   -0.5684 H   0  0  0  0  0  0  0  0  0  0  0  0
   -0.8219    0.7480   -2.9009 H   0  0  0  0  0  0  0  0  0  0  0  0
    1.3870   -0.1421   -3.5744 H   0  0  0  0  0  0  0  0  0  0  0  0
    3.1941   -0.3328   -1.8942 H   0  0  0  0  0  0  0  0  0  0  0  0
    2.7938    0.3493    0.4356 H   0  0  0  0  0  0  0  0  0  0  0  0
  1  2  3  0
  1  5  1  0
  2  3  1  0
  3  4  1  0
  3  6  1  0
  3 17  1  0
  4  7  1  0
  4  8  1  0
  4  9  1  0
 10 11  2  3
 10 18  1  0
 10 19  1  0
 11 12  1  0
 11 16  1  0
 12 13  1  0
 12 20  1  0
 13 14  2  0
 13 21  1  0
 14 15  1  0
 14 22  1  0
 15 16  2  0
 15 23  1  0
 16 24  1  0
M  RAD  1  12   2
M  END
>  <reaction>  (4) 
rxn_1444

>  <mol_properties>  (4) 
{"1": {"label": "*0", "atom_type": "Ct"}, "2": {"label": "*1", "atom_type": "Cs"}, "9": {"label": "*3", "atom_type": "Cd"}, "10": {"label": "*4", "atom_type": "Cd"}, "16": {"label": "*2", "atom_type": "H0"}}

>  <type>  (4) 
ts

$$$$

     RDKit          3D

 24 23  0  0  0  0  0  0  0  0999 V2000
    0.8135   -2.6240    3.3707 C   0  0  0  0  0  0  0  0  0  0  0  0
    0.0324   -2.0294    2.6846 C   0  0  0  0  0  0  0  0  0  0  0  0
   -0.9253   -1.2880    1.8703 C   0  0  0  0  0  3  0  0  0  0  0  0
   -1.6031   -0.1521    2.6389 C   0  0  0  0  0  0  0  0  0  0  0  0
    1.5070   -3.1519    3.9799 H   0  0  0  0  0  0  0  0  0  0  0  0
   -1.6786   -1.9842    1.4931 H   0  0  0  0  0  0  0  0  0  0  0  0
   -2.3082    0.3727    1.9933 H   0  0  0  0  0  0  0  0  0  0  0  0
   -2.1467   -0.5393    3.5009 H   0  0  0  0  0  0  0  0  0  0  0  0
   -0.8653    0.5650    2.9990 H   0  0  0  0  0  0  0  0  0  0  0  0
    0.2557    0.8478    0.9171 C   0  0  0  0  0  0  0  0  0  0  0  0
    0.2557    0.8478   -0.5866 C   0  0  0  0  0  0  0  0  0  0  0  0
    0.2557    2.0421   -1.3006 C   0  0  0  0  0  0  0  0  0  0  0  0
    0.2862    2.0455   -2.6866 C   0  0  0  0  0  0  0  0  0  0  0  0
    0.3157    0.8485   -3.3857 C   0  0  0  0  0  0  0  0  0  0  0  0
    0.3126   -0.3489   -2.6866 C   0  0  0  0  0  0  0  0  0  0  0  0
    0.2821   -0.3462   -1.3006 C   0  0  0  0  0  0  0  0  0  0  0  0
   -0.3342   -0.2189    1.3932 H   0  0  0  0  0  0  0  0  0  0  0  0
    1.2779    0.8591    1.3039 H   0  0  0  0  0  0  0  0  0  0  0  0
   -0.2553    1.7257    1.3139 H   0  0  0  0  0  0  0  0  0  0  0  0
    0.2291    2.9832   -0.7628 H   0  0  0  0  0  0  0  0  0  0  0  0
    0.2835    2.9867   -3.2224 H   0  0  0  0  0  0  0  0  0  0  0  0
    0.3369    0.8487   -4.4680 H   0  0  0  0  0  0  0  0  0  0  0  0
    0.3307   -1.2900   -3.2224 H   0  0  0  0  0  0  0  0  0  0  0  0
    0.2762   -1.2877   -0.7628 H   0  0  0  0  0  0  0  0  0  0  0  0
  1  2  3  0
  1  5  1  0
  2  3  1  0
  3  4  1  0
  3  6  1  0
  4  7  1  0
  4  8  1  0
  4  9  1  0
 10 11  1  0
 10 17  1  0
 10 18  1  0
 10 19  1  0
 11 12  2  0
 11 16  1  0
 12 13  1  0
 12 20  1  0
 13 14  2  0
 13 21  1  0
 14 15  1  0
 14 22  1  0
 15 16  2  0
 15 23  1  0
 16 24  1  0
M  RAD  1   3   2
M  END
>  <reaction>  (5) 
rxn_1444

>  <mol_properties>  (5) 
{"1": {"label": "*0", "atom_type": "Ct"}, "2": {"label": "*1", "atom_type": "Cs"}, "9": {"label": "*3", "atom_type": "Cd"}, "10": {"label": "*4", "atom_type": "Cd"}, "16": {"label": "*2", "atom_type": "H0"}}

>  <type>  (5) 
unop_1

>  <geom_source>  (5) 
Heuristics

$$$$

     RDKit          3D

 24 23  0  0  0  0  0  0  0  0999 V2000
   -0.5544   -3.0727    0.5521 C   0  0  0  0  0  0  0  0  0  0  0  0
   -0.7203   -2.1628    1.3131 C   0  0  0  0  0  0  0  0  0  0  0  0
   -0.9030   -1.0652    2.2574 C   0  0  0  0  0  3  0  0  0  0  0  0
    0.0029   -1.1817    3.4846 C   0  0  0  0  0  0  0  0  0  0  0  0
   -0.4070   -3.8805   -0.1235 H   0  0  0  0  0  0  0  0  0  0  0  0
   -1.9505   -1.0402    2.5684 H   0  0  0  0  0  0  0  0  0  0  0  0
   -0.1671   -0.3430    4.1606 H   0  0  0  0  0  0  0  0  0  0  0  0
   -0.1964   -2.1069    4.0256 H   0  0  0  0  0  0  0  0  0  0  0  0
    1.0528   -1.1813    3.1913 H   0  0  0  0  0  0  0  0  0  0  0  0
    0.2780    1.0706    1.3042 C   0  0  0  0  0  0  0  0  0  0  0  0
    0.2780    1.0706   -0.1995 C   0  0  0  0  0  0  0  0  0  0  0  0
    0.2780    2.2649   -0.9136 C   0  0  0  0  0  0  0  0  0  0  0  0
    0.3085    2.2683   -2.2996 C   0  0  0  0  0  0  0  0  0  0  0  0
    0.3380    1.0713   -2.9986 C   0  0  0  0  0  0  0  0  0  0  0  0
    0.3349   -0.1261   -2.2996 C   0  0  0  0  0  0  0  0  0  0  0  0
    0.3044   -0.1234   -0.9136 C   0  0  0  0  0  0  0  0  0  0  0  0
   -0.3119    0.0039    1.7803 H   0  0  0  0  0  0  0  0  0  0  0  0
    1.3002    1.0819    1.6910 H   0  0  0  0  0  0  0  0  0  0  0  0
   -0.2330    1.9485    1.7009 H   0  0  0  0  0  0  0  0  0  0  0  0
    0.2514    3.2060   -0.3758 H   0  0  0  0  0  0  0  0  0  0  0  0
    0.3058    3.2095   -2.8353 H   0  0  0  0  0  0  0  0  0  0  0  0
    0.3592    1.0715   -4.0810 H   0  0  0  0  0  0  0  0  0  0  0  0
    0.3530   -1.0672   -2.8353 H   0  0  0  0  0  0  0  0  0  0  0  0
    0.2985   -1.0649   -0.3758 H   0  0  0  0  0  0  0  0  0  0  0  0
  1  2  3  0
  1  5  1  0
  2  3  1  0
  3  4  1  0
  3  6  1  0
  4  7  1  0
  4  8  1  0
  4  9  1  0
 10 11  1  0
 10 17  1  0
 10 18  1  0
 10 19  1  0
 11 12  2  0
 11 16  1  0
 12 13  1  0
 12 20  1  0
 13 14  2  0
 13 21  1  0
 14 15  1  0
 14 22  1  0
 15 16  2  0
 15 23  1  0
 16 24  1  0
M  RAD  1   3   2
M  END
>  <reaction>  (6) 
rxn_1444

>  <mol_properties>  (6) 
{"1": {"label": "*0", "atom_type": "Ct"}, "2": {"label": "*1", "atom_type": "Cs"}, "9": {"label": "*3", "atom_type": "Cd"}, "10": {"label": "*4", "atom_type": "Cd"}, "16": {"label": "*2", "atom_type": "H0"}}

>  <type>  (6) 
unop_2

>  <geom_source>  (6) 
Heuristics

$$$$

     RDKit          3D

 24 23  0  0  0  0  0  0  0  0999 V2000
    0.3074   -1.9567    4.1730 C   0  0  0  0  0  0  0  0  0  0  0  0
   -0.1716   -1.6932    3.1074 C   0  0  0  0  0  0  0  0  0  0  0  0
   -0.7758   -1.3577    1.8219 C   0  0  0  0  0  3  0  0  0  0  0  0
   -2.0354   -0.5013    1.9642 C   0  0  0  0  0  0  0  0  0  0  0  0
    0.7326   -2.1906    5.1191 H   0  0  0  0  0  0  0  0  0  0  0  0
   -1.0127   -2.2841    1.2928 H   0  0  0  0  0  0  0  0  0  0  0  0
   -2.4516   -0.2755    0.9817 H   0  0  0  0  0  0  0  0  0  0  0  0
   -2.7935   -1.0230    2.5485 H   0  0  0  0  0  0  0  0  0  0  0  0
   -1.8088    0.4389    2.4673 H   0  0  0  0  0  0  0  0  0  0  0  0
    0.4053    0.7781    0.8687 C   0  0  0  0  0  0  0  0  0  0  0  0
    0.4053    0.7781   -0.6350 C   0  0  0  0  0  0  0  0  0  0  0  0
    0.4053    1.9724   -1.3490 C   0  0  0  0  0  0  0  0  0  0  0  0
    0.4357    1.9758   -2.7350 C   0  0  0  0  0  0  0  0  0  0  0  0
    0.4653    0.7788   -3.4341 C   0  0  0  0  0  0  0  0  0  0  0  0
    0.4622   -0.4186   -2.7350 C   0  0  0  0  0  0  0  0  0  0  0  0
    0.4316   -0.4159   -1.3490 C   0  0  0  0  0  0  0  0  0  0  0  0
   -0.1846   -0.2886    1.3448 H   0  0  0  0  0  0  0  0  0  0  0  0
    1.4275    0.7894    1.2555 H   0  0  0  0  0  0  0  0  0  0  0  0
   -0.1057    1.6560    1.2655 H   0  0  0  0  0  0  0  0  0  0  0  0
    0.3787    2.9135   -0.8112 H   0  0  0  0  0  0  0  0  0  0  0  0
    0.4331    2.9170   -3.2707 H   0  0  0  0  0  0  0  0  0  0  0  0
    0.4864    0.7790   -4.5164 H   0  0  0  0  0  0  0  0  0  0  0  0
    0.4803   -1.3596   -3.2707 H   0  0  0  0  0  0  0  0  0  0  0  0
    0.4258   -1.3574   -0.8112 H   0  0  0  0  0  0  0  0  0  0  0  0
  1  2  3  0
  1  5  1  0
  2  3  1  0
  3  4  1  0
  3  6  1  0
  4  7  1  0
  4  8  1  0
  4  9  1  0
 10 11  1  0
 10 17  1  0
 10 18  1  0
 10 19  1  0
 11 12  2  0
 11 16  1  0
 12 13  1  0
 12 20  1  0
 13 14  2  0
 13 21  1  0
 14 15  1  0
 14 22  1  0
 15 16  2  0
 15 23  1  0
 16 24  1  0
M  RAD  1   3   2
M  END
>  <reaction>  (7) 
rxn_1444

>  <mol_properties>  (7) 
{"1": {"label": "*0", "atom_type": "Ct"}, "2": {"label": "*1", "atom_type": "Cs"}, "9": {"label": "*3", "atom_type": "Cd"}, "10": {"label": "*4", "atom_type": "Cd"}, "16": {"label": "*2", "atom_type": "H0"}}

>  <type>  (7) 
unop_3

>  <geom_source>  (7) 
Heuristics

$$$$

     RDKit          3D

 24 23  0  0  0  0  0  0  0  0999 V2000
   -2.9906   -1.2636    1.3759 C   0  0  0  0  0  0  0  0  0  0  0  0
   -1.8576   -1.2217    1.7620 C   0  0  0  0  0  0  0  0  0  0  0  0
   -0.4772   -1.1987    2.2351 C   0  0  0  0  0  3  0  0  0  0  0  0
    0.0640   -2.5938    2.5532 C   0  0  0  0  0  0  0  0  0  0  0  0
   -3.9964   -1.3008    1.0331 H   0  0  0  0  0  0  0  0  0  0  0  0
   -0.4212   -0.5656    3.1242 H   0  0  0  0  0  0  0  0  0  0  0  0
    1.0952   -2.5285    2.9021 H   0  0  0  0  0  0  0  0  0  0  0  0
   -0.5333   -3.0723    3.3295 H   0  0  0  0  0  0  0  0  0  0  0  0
    0.0388   -3.2292    1.6678 H   0  0  0  0  0  0  0  0  0  0  0  0
    0.7039    0.9371    1.2819 C   0  0  0  0  0  0  0  0  0  0  0  0
    0.7039    0.9371   -0.2218 C   0  0  0  0  0  0  0  0  0  0  0  0
    0.7039    2.1314   -0.9358 C   0  0  0  0  0  0  0  0  0  0  0  0
    0.7343    2.1347   -2.3218 C   0  0  0  0  0  0  0  0  0  0  0  0
    0.7639    0.9377   -3.0209 C   0  0  0  0  0  0  0  0  0  0  0  0
    0.7607   -0.2596   -2.3218 C   0  0  0  0  0  0  0  0  0  0  0  0
    0.7302   -0.2570   -0.9358 C   0  0  0  0  0  0  0  0  0  0  0  0
    0.1140   -0.1297    1.7580 H   0  0  0  0  0  0  0  0  0  0  0  0
    1.7261    0.9483    1.6687 H   0  0  0  0  0  0  0  0  0  0  0  0
    0.1929    1.8150    1.6787 H   0  0  0  0  0  0  0  0  0  0  0  0
    0.6773    3.0725   -0.3980 H   0  0  0  0  0  0  0  0  0  0  0  0
    0.7317    3.0759   -2.8576 H   0  0  0  0  0  0  0  0  0  0  0  0
    0.7850    0.9380   -4.1032 H   0  0  0  0  0  0  0  0  0  0  0  0
    0.7788   -1.2007   -2.8576 H   0  0  0  0  0  0  0  0  0  0  0  0
    0.7244   -1.1984   -0.3980 H   0  0  0  0  0  0  0  0  0  0  0  0
  1  2  3  0
  1  5  1  0
  2  3  1  0
  3  4  1  0
  3  6  1  0
  4  7  1  0
  4  8  1  0
  4  9  1  0
 10 11  1  0
 10 17  1  0
 10 18  1  0
 10 19  1  0
 11 12  2  0
 11 16  1  0
 12 13  1  0
 12 20  1  0
 13 14  2  0
 13 21  1  0
 14 15  1  0
 14 22  1  0
 15 16  2  0
 15 23  1  0
 16 24  1  0
M  RAD  1   3   2
M  END
>  <reaction>  (8) 
rxn_1444

>  <mol_properties>  (8) 
{"1": {"label": "*0", "atom_type": "Ct"}, "2": {"label": "*1", "atom_type": "Cs"}, "9": {"label": "*3", "atom_type": "Cd"}, "10": {"label": "*4", "atom_type": "Cd"}, "16": {"label": "*2", "atom_type": "H0"}}

>  <type>  (8) 
unop_4

>  <geom_source>  (8) 
Heuristics

$$$$

     RDKit          3D

 24 23  0  0  0  0  0  0  0  0999 V2000
   -0.5847   -1.2472    4.5092 C   0  0  0  0  0  0  0  0  0  0  0  0
   -0.5879   -1.2934    3.3124 C   0  0  0  0  0  0  0  0  0  0  0  0
   -0.6198   -1.3512    1.8545 C   0  0  0  0  0  3  0  0  0  0  0  0
   -2.0403   -1.4549    1.2961 C   0  0  0  0  0  0  0  0  0  0  0  0
   -0.5820   -1.2063    5.5717 H   0  0  0  0  0  0  0  0  0  0  0  0
   -0.0260   -2.2071    1.5239 H   0  0  0  0  0  0  0  0  0  0  0  0
   -2.0159   -1.4953    0.2065 H   0  0  0  0  0  0  0  0  0  0  0  0
   -2.5354   -2.3538    1.6638 H   0  0  0  0  0  0  0  0  0  0  0  0
   -2.6374   -0.5936    1.5962 H   0  0  0  0  0  0  0  0  0  0  0  0
    0.5612    0.7846    0.9013 C   0  0  0  0  0  0  0  0  0  0  0  0
    0.5612    0.7846   -0.6025 C   0  0  0  0  0  0  0  0  0  0  0  0
    0.5612    1.9789   -1.3165 C   0  0  0  0  0  0  0  0  0  0  0  0
    0.5917    1.9823   -2.7025 C   0  0  0  0  0  0  0  0  0  0  0  0
    0.6212    0.7853   -3.4015 C   0  0  0  0  0  0  0  0  0  0  0  0
    0.6181   -0.4121   -2.7025 C   0  0  0  0  0  0  0  0  0  0  0  0
    0.5876   -0.4094   -1.3165 C   0  0  0  0  0  0  0  0  0  0  0  0
   -0.0287   -0.2821    1.3773 H   0  0  0  0  0  0  0  0  0  0  0  0
    1.5834    0.7958    1.2880 H   0  0  0  0  0  0  0  0  0  0  0  0
    0.0502    1.6625    1.2980 H   0  0  0  0  0  0  0  0  0  0  0  0
    0.5346    2.9200   -0.7787 H   0  0  0  0  0  0  0  0  0  0  0  0
    0.5890    2.9235   -3.2382 H   0  0  0  0  0  0  0  0  0  0  0  0
    0.6424    0.7855   -4.4839 H   0  0  0  0  0  0  0  0  0  0  0  0
    0.6362   -1.3532   -3.2382 H   0  0  0  0  0  0  0  0  0  0  0  0
    0.5817   -1.3509   -0.7787 H   0  0  0  0  0  0  0  0  0  0  0  0
  1  2  3  0
  1  5  1  0
  2  3  1  0
  3  4  1  0
  3  6  1  0
  4  7  1  0
  4  8  1  0
  4  9  1  0
 10 11  1  0
 10 17  1  0
 10 18  1  0
 10 19  1  0
 11 12  2  0
 11 16  1  0
 12 13  1  0
 12 20  1  0
 13 14  2  0
 13 21  1  0
 14 15  1  0
 14 22  1  0
 15 16  2  0
 15 23  1  0
 16 24  1  0
M  RAD  1   3   2
M  END
>  <reaction>  (9) 
rxn_1444

>  <mol_properties>  (9) 
{"1": {"label": "*0", "atom_type": "Ct"}, "2": {"label": "*1", "atom_type": "Cs"}, "9": {"label": "*3", "atom_type": "Cd"}, "10": {"label": "*4", "atom_type": "Cd"}, "16": {"label": "*2", "atom_type": "H0"}}

>  <type>  (9) 
unop_5

>  <geom_source>  (9) 
Heuristics

$$$$

     RDKit          3D

 24 23  0  0  0  0  0  0  0  0999 V2000
   -3.0352   -0.7649    2.4238 C   0  0  0  0  0  0  0  0  0  0  0  0
   -1.8649   -0.9774    2.2833 C   0  0  0  0  0  0  0  0  0  0  0  0
   -0.4441   -1.2640    2.1127 C   0  0  0  0  0  3  0  0  0  0  0  0
   -0.1418   -2.7632    2.0769 C   0  0  0  0  0  0  0  0  0  0  0  0
   -4.0742   -0.5763    2.5485 H   0  0  0  0  0  0  0  0  0  0  0  0
    0.1097   -0.7915    2.9279 H   0  0  0  0  0  0  0  0  0  0  0  0
    0.9284   -2.9297    1.9484 H   0  0  0  0  0  0  0  0  0  0  0  0
   -0.4569   -3.2433    3.0034 H   0  0  0  0  0  0  0  0  0  0  0  0
   -0.6673   -3.2438    1.2515 H   0  0  0  0  0  0  0  0  0  0  0  0
    0.7369    0.8718    1.1596 C   0  0  0  0  0  0  0  0  0  0  0  0
    0.7369    0.8718   -0.3442 C   0  0  0  0  0  0  0  0  0  0  0  0
    0.7369    2.0661   -1.0582 C   0  0  0  0  0  0  0  0  0  0  0  0
    0.7674    2.0694   -2.4442 C   0  0  0  0  0  0  0  0  0  0  0  0
    0.7969    0.8724   -3.1432 C   0  0  0  0  0  0  0  0  0  0  0  0
    0.7938   -0.3249   -2.4442 C   0  0  0  0  0  0  0  0  0  0  0  0
    0.7633   -0.3223   -1.0582 C   0  0  0  0  0  0  0  0  0  0  0  0
    0.1470   -0.1950    1.6356 H   0  0  0  0  0  0  0  0  0  0  0  0
    1.7591    0.8830    1.5463 H   0  0  0  0  0  0  0  0  0  0  0  0
    0.2259    1.7497    1.5563 H   0  0  0  0  0  0  0  0  0  0  0  0
    0.7103    3.0072   -0.5204 H   0  0  0  0  0  0  0  0  0  0  0  0
    0.7647    3.0106   -2.9799 H   0  0  0  0  0  0  0  0  0  0  0  0
    0.8181    0.8727   -4.2256 H   0  0  0  0  0  0  0  0  0  0  0  0
    0.8119   -1.2660   -2.9799 H   0  0  0  0  0  0  0  0  0  0  0  0
    0.7574   -1.2637   -0.5204 H   0  0  0  0  0  0  0  0  0  0  0  0
  1  2  3  0
  1  5  1  0
  2  3  1  0
  3  4  1  0
  3  6  1  0
  4  7  1  0
  4  8  1  0
  4  9  1  0
 10 11  1  0
 10 17  1  0
 10 18  1  0
 10 19  1  0
 11 12  2  0
 11 16  1  0
 12 13  1  0
 12 20  1  0
 13 14  2  0
 13 21  1  0
 14 15  1  0
 14 22  1  0
 15 16  2  0
 15 23  1  0
 16 24  1  0
M  RAD  1   3   2
M  END
>  <reaction>  (10) 
rxn_1444

>  <mol_properties>  (10) 
{"1": {"label": "*0", "atom_type": "Ct"}, "2": {"label": "*1", "atom_type": "Cs"}, "9": {"label": "*3", "atom_type": "Cd"}, "10": {"label": "*4", "atom_type": "Cd"}, "16": {"label": "*2", "atom_type": "H0"}}

>  <type>  (10) 
unop_6

>  <geom_source>  (10) 
Heuristics

$$$$

     RDKit          3D

 24 23  0  0  0  0  0  0  0  0999 V2000
   -2.5537   -0.5608    3.4779 C   0  0  0  0  0  0  0  0  0  0  0  0
   -1.6116   -0.8818    2.8117 C   0  0  0  0  0  0  0  0  0  0  0  0
   -0.4745   -1.2988    1.9974 C   0  0  0  0  0  3  0  0  0  0  0  0
   -0.5666   -2.7602    1.5544 C   0  0  0  0  0  0  0  0  0  0  0  0
   -3.3901   -0.2759    4.0694 H   0  0  0  0  0  0  0  0  0  0  0  0
    0.4435   -1.1396    2.5686 H   0  0  0  0  0  0  0  0  0  0  0  0
    0.3013   -3.0272    0.9504 H   0  0  0  0  0  0  0  0  0  0  0  0
   -0.6034   -3.4242    2.4182 H   0  0  0  0  0  0  0  0  0  0  0  0
   -1.4652   -2.9281    0.9606 H   0  0  0  0  0  0  0  0  0  0  0  0
    0.7065    0.8370    1.0442 C   0  0  0  0  0  0  0  0  0  0  0  0
    0.7065    0.8370   -0.4595 C   0  0  0  0  0  0  0  0  0  0  0  0
    0.7065    2.0313   -1.1736 C   0  0  0  0  0  0  0  0  0  0  0  0
    0.7370    2.0346   -2.5596 C   0  0  0  0  0  0  0  0  0  0  0  0
    0.7665    0.8376   -3.2586 C   0  0  0  0  0  0  0  0  0  0  0  0
    0.7634   -0.3597   -2.5596 C   0  0  0  0  0  0  0  0  0  0  0  0
    0.7329   -0.3571   -1.1736 C   0  0  0  0  0  0  0  0  0  0  0  0
    0.1167   -0.2298    1.5203 H   0  0  0  0  0  0  0  0  0  0  0  0
    1.7288    0.8482    1.4310 H   0  0  0  0  0  0  0  0  0  0  0  0
    0.1955    1.7149    1.4409 H   0  0  0  0  0  0  0  0  0  0  0  0
    0.6799    2.9724   -0.6357 H   0  0  0  0  0  0  0  0  0  0  0  0
    0.7343    2.9758   -3.0953 H   0  0  0  0  0  0  0  0  0  0  0  0
    0.7877    0.8379   -4.3409 H   0  0  0  0  0  0  0  0  0  0  0  0
    0.7815   -1.3008   -3.0953 H   0  0  0  0  0  0  0  0  0  0  0  0
    0.7270   -1.2985   -0.6357 H   0  0  0  0  0  0  0  0  0  0  0  0
  1  2  3  0
  1  5  1  0
  2  3  1  0
  3  4  1  0
  3  6  1  0
  4  7  1  0
  4  8  1  0
  4  9  1  0
 10 11  1  0
 10 17  1  0
 10 18  1  0
 10 19  1  0
 11 12  2  0
 11 16  1  0
 12 13  1  0
 12 20  1  0
 13 14  2  0
 13 21  1  0
 14 15  1  0
 14 22  1  0
 15 16  2  0
 15 23  1  0
 16 24  1  0
M  RAD  1   3   2
M  END
>  <reaction>  (11) 
rxn_1444

>  <mol_properties>  (11) 
{"1": {"label": "*0", "atom_type": "Ct"}, "2": {"label": "*1", "atom_type": "Cs"}, "9": {"label": "*3", "atom_type": "Cd"}, "10": {"label": "*4", "atom_type": "Cd"}, "16": {"label": "*2", "atom_type": "H0"}}

>  <type>  (11) 
unop_7

>  <geom_source>  (11) 
Heuristics

$$$$

     RDKit          3D

 24 23  0  0  0  0  0  0  0  0999 V2000
    0.8192   -3.0981    2.3163 C   0  0  0  0  0  0  0  0  0  0  0  0
   -0.0057   -2.2447    2.1558 C   0  0  0  0  0  0  0  0  0  0  0  0
   -1.0038   -1.1937    1.9852 C   0  0  0  0  0  3  0  0  0  0  0  0
   -1.0479   -0.2207    3.1648 C   0  0  0  0  0  0  0  0  0  0  0  0
    1.5515   -3.8557    2.4587 H   0  0  0  0  0  0  0  0  0  0  0  0
   -1.9835   -1.6587    1.8489 H   0  0  0  0  0  0  0  0  0  0  0  0
   -1.8054    0.5452    2.9947 H   0  0  0  0  0  0  0  0  0  0  0  0
   -1.2890   -0.7451    4.0896 H   0  0  0  0  0  0  0  0  0  0  0  0
   -0.0838    0.2708    3.2966 H   0  0  0  0  0  0  0  0  0  0  0  0
    0.1772    0.9420    1.0321 C   0  0  0  0  0  0  0  0  0  0  0  0
    0.1772    0.9420   -0.4717 C   0  0  0  0  0  0  0  0  0  0  0  0
    0.1772    2.1364   -1.1857 C   0  0  0  0  0  0  0  0  0  0  0  0
    0.2077    2.1397   -2.5717 C   0  0  0  0  0  0  0  0  0  0  0  0
    0.2372    0.9427   -3.2707 C   0  0  0  0  0  0  0  0  0  0  0  0
    0.2341   -0.2547   -2.5717 C   0  0  0  0  0  0  0  0  0  0  0  0
    0.2035   -0.2520   -1.1857 C   0  0  0  0  0  0  0  0  0  0  0  0
   -0.4127   -0.1247    1.5081 H   0  0  0  0  0  0  0  0  0  0  0  0
    1.1994    0.9533    1.4188 H   0  0  0  0  0  0  0  0  0  0  0  0
   -0.3338    1.8199    1.4288 H   0  0  0  0  0  0  0  0  0  0  0  0
    0.1506    3.0775   -0.6479 H   0  0  0  0  0  0  0  0  0  0  0  0
    0.2050    3.0809   -3.1074 H   0  0  0  0  0  0  0  0  0  0  0  0
    0.2583    0.9429   -4.3531 H   0  0  0  0  0  0  0  0  0  0  0  0
    0.2522   -1.1957   -3.1074 H   0  0  0  0  0  0  0  0  0  0  0  0
    0.1977   -1.1934   -0.6479 H   0  0  0  0  0  0  0  0  0  0  0  0
  1  2  3  0
  1  5  1  0
  2  3  1  0
  3  4  1  0
  3  6  1  0
  4  7  1  0
  4  8  1  0
  4  9  1  0
 10 11  1  0
 10 17  1  0
 10 18  1  0
 10 19  1  0
 11 12  2  0
 11 16  1  0
 12 13  1  0
 12 20  1  0
 13 14  2  0
 13 21  1  0
 14 15  1  0
 14 22  1  0
 15 16  2  0
 15 23  1  0
 16 24  1  0
M  RAD  1   3   2
M  END
>  <reaction>  (12) 
rxn_1444

>  <mol_properties>  (12) 
{"1": {"label": "*0", "atom_type": "Ct"}, "2": {"label": "*1", "atom_type": "Cs"}, "9": {"label": "*3", "atom_type": "Cd"}, "10": {"label": "*4", "atom_type": "Cd"}, "16": {"label": "*2", "atom_type": "H0"}}

>  <type>  (12) 
unop_8

>  <geom_source>  (12) 
Heuristics

$$$$

     RDKit          3D

 24 23  0  0  0  0  0  0  0  0999 V2000
   -2.4504   -1.9237    0.6057 C   0  0  0  0  0  0  0  0  0  0  0  0
   -1.6135   -1.5497    1.3766 C   0  0  0  0  0  0  0  0  0  0  0  0
   -0.5867   -1.1209    2.3209 C   0  0  0  0  0  3  0  0  0  0  0  0
    0.1741   -2.2935    2.9425 C   0  0  0  0  0  0  0  0  0  0  0  0
   -3.1933   -2.2557   -0.0788 H   0  0  0  0  0  0  0  0  0  0  0  0
   -1.0587   -0.5247    3.1059 H   0  0  0  0  0  0  0  0  0  0  0  0
    0.9289   -1.9271    3.6394 H   0  0  0  0  0  0  0  0  0  0  0  0
   -0.5055   -2.9514    3.4844 H   0  0  0  0  0  0  0  0  0  0  0  0
    0.6724   -2.8826    2.1725 H   0  0  0  0  0  0  0  0  0  0  0  0
    0.5943    1.0149    1.3677 C   0  0  0  0  0  0  0  0  0  0  0  0
    0.5943    1.0149   -0.1360 C   0  0  0  0  0  0  0  0  0  0  0  0
    0.5943    2.2092   -0.8501 C   0  0  0  0  0  0  0  0  0  0  0  0
    0.6248    2.2125   -2.2361 C   0  0  0  0  0  0  0  0  0  0  0  0
    0.6543    1.0155   -2.9351 C   0  0  0  0  0  0  0  0  0  0  0  0
    0.6512   -0.1818   -2.2361 C   0  0  0  0  0  0  0  0  0  0  0  0
    0.6207   -0.1792   -0.8501 C   0  0  0  0  0  0  0  0  0  0  0  0
    0.0044   -0.0518    1.8438 H   0  0  0  0  0  0  0  0  0  0  0  0
    1.6165    1.0261    1.7545 H   0  0  0  0  0  0  0  0  0  0  0  0
    0.0833    1.8928    1.7644 H   0  0  0  0  0  0  0  0  0  0  0  0
    0.5677    3.1503   -0.3122 H   0  0  0  0  0  0  0  0  0  0  0  0
    0.6221    3.1538   -2.7718 H   0  0  0  0  0  0  0  0  0  0  0  0
    0.6755    1.0158   -4.0174 H   0  0  0  0  0  0  0  0  0  0  0  0
    0.6693   -1.1229   -2.7718 H   0  0  0  0  0  0  0  0  0  0  0  0
    0.6148   -1.1206   -0.3122 H   0  0  0  0  0  0  0  0  0  0  0  0
  1  2  3  0
  1  5  1  0
  2  3  1  0
  3  4  1  0
  3  6  1  0
  4  7  1  0
  4  8  1  0
  4  9  1  0
 10 11  1  0
 10 17  1  0
 10 18  1  0
 10 19  1  0
 11 12  2  0
 11 16  1  0
 12 13  1  0
 12 20  1  0
 13 14  2  0
 13 21  1  0
 14 15  1  0
 14 22  1  0
 15 16  2  0
 15 23  1  0
 16 24  1  0
M  RAD  1   3   2
M  END
>  <reaction>  (13) 
rxn_1444

>  <mol_properties>  (13) 
{"1": {"label": "*0", "atom_type": "Ct"}, "2": {"label": "*1", "atom_type": "Cs"}, "9": {"label": "*3", "atom_type": "Cd"}, "10": {"label": "*4", "atom_type": "Cd"}, "16": {"label": "*2", "atom_type": "H0"}}

>  <type>  (13) 
unop_9

>  <geom_source>  (13) 
Heuristics

$$$$

     RDKit          3D

 24 23  0  0  0  0  0  0  0  0999 V2000
    0.3186   -3.2625    1.2858 C   0  0  0  0  0  0  0  0  0  0  0  0
   -0.2812   -2.2938    1.6552 C   0  0  0  0  0  0  0  0  0  0  0  0
   -0.9956   -1.1125    2.1283 C   0  0  0  0  0  3  0  0  0  0  0  0
   -0.4624   -0.5926    3.4646 C   0  0  0  0  0  0  0  0  0  0  0  0
    0.8510   -4.1225    0.9578 H   0  0  0  0  0  0  0  0  0  0  0  0
   -2.0567   -1.3573    2.2203 H   0  0  0  0  0  0  0  0  0  0  0  0
   -1.0240    0.2880    3.7786 H   0  0  0  0  0  0  0  0  0  0  0  0
   -0.5530   -1.3540    4.2394 H   0  0  0  0  0  0  0  0  0  0  0  0
    0.5896   -0.3192    3.3809 H   0  0  0  0  0  0  0  0  0  0  0  0
    0.1855    1.0233    1.1751 C   0  0  0  0  0  0  0  0  0  0  0  0
    0.1855    1.0233   -0.3286 C   0  0  0  0  0  0  0  0  0  0  0  0
    0.1855    2.2176   -1.0427 C   0  0  0  0  0  0  0  0  0  0  0  0
    0.2159    2.2210   -2.4286 C   0  0  0  0  0  0  0  0  0  0  0  0
    0.2454    1.0240   -3.1277 C   0  0  0  0  0  0  0  0  0  0  0  0
    0.2423   -0.1734   -2.4286 C   0  0  0  0  0  0  0  0  0  0  0  0
    0.2118   -0.1707   -1.0427 C   0  0  0  0  0  0  0  0  0  0  0  0
   -0.4044   -0.0434    1.6512 H   0  0  0  0  0  0  0  0  0  0  0  0
    1.2077    1.0346    1.5619 H   0  0  0  0  0  0  0  0  0  0  0  0
   -0.3256    1.9012    1.5719 H   0  0  0  0  0  0  0  0  0  0  0  0
    0.1588    3.1587   -0.5048 H   0  0  0  0  0  0  0  0  0  0  0  0
    0.2133    3.1622   -2.9644 H   0  0  0  0  0  0  0  0  0  0  0  0
    0.2666    1.0242   -4.2100 H   0  0  0  0  0  0  0  0  0  0  0  0
    0.2604   -1.1144   -2.9644 H   0  0  0  0  0  0  0  0  0  0  0  0
    0.2059   -1.1122   -0.5048 H   0  0  0  0  0  0  0  0  0  0  0  0
  1  2  3  0
  1  5  1  0
  2  3  1  0
  3  4  1  0
  3  6  1  0
  4  7  1  0
  4  8  1  0
  4  9  1  0
 10 11  1  0
 10 17  1  0
 10 18  1  0
 10 19  1  0
 11 12  2  0
 11 16  1  0
 12 13  1  0
 12 20  1  0
 13 14  2  0
 13 21  1  0
 14 15  1  0
 14 22  1  0
 15 16  2  0
 15 23  1  0
 16 24  1  0
M  RAD  1   3   2
M  END
>  <reaction>  (14) 
rxn_1444

>  <mol_properties>  (14) 
{"1": {"label": "*0", "atom_type": "Ct"}, "2": {"label": "*1", "atom_type": "Cs"}, "9": {"label": "*3", "atom_type": "Cd"}, "10": {"label": "*4", "atom_type": "Cd"}, "16": {"label": "*2", "atom_type": "H0"}}

>  <type>  (14) 
unop_10

>  <geom_source>  (14) 
Heuristics

$$$$

     RDKit          3D

 24 23  0  0  0  0  0  0  0  0999 V2000
   -1.6535   -0.7242    4.2520 C   0  0  0  0  0  0  0  0  0  0  0  0
   -1.1402   -0.9819    3.2010 C   0  0  0  0  0  0  0  0  0  0  0  0
   -0.5349   -1.3152    1.9156 C   0  0  0  0  0  3  0  0  0  0  0  0
   -1.2996   -2.4072    1.1653 C   0  0  0  0  0  0  0  0  0  0  0  0
   -2.1092   -0.4954    5.1851 H   0  0  0  0  0  0  0  0  0  0  0  0
    0.4972   -1.6324    2.0852 H   0  0  0  0  0  0  0  0  0  0  0  0
   -0.8130   -2.6232    0.2134 H   0  0  0  0  0  0  0  0  0  0  0  0
   -1.3354   -3.3260    1.7509 H   0  0  0  0  0  0  0  0  0  0  0  0
   -2.3244   -2.0937    0.9656 H   0  0  0  0  0  0  0  0  0  0  0  0
    0.6462    0.8206    0.9624 C   0  0  0  0  0  0  0  0  0  0  0  0
    0.6462    0.8206   -0.5414 C   0  0  0  0  0  0  0  0  0  0  0  0
    0.6462    2.0149   -1.2554 C   0  0  0  0  0  0  0  0  0  0  0  0
    0.6766    2.0183   -2.6414 C   0  0  0  0  0  0  0  0  0  0  0  0
    0.7062    0.8213   -3.3404 C   0  0  0  0  0  0  0  0  0  0  0  0
    0.7030   -0.3761   -2.6414 C   0  0  0  0  0  0  0  0  0  0  0  0
    0.6725   -0.3734   -1.2554 C   0  0  0  0  0  0  0  0  0  0  0  0
    0.0563   -0.2461    1.4384 H   0  0  0  0  0  0  0  0  0  0  0  0
    1.6684    0.8318    1.3491 H   0  0  0  0  0  0  0  0  0  0  0  0
    0.1352    1.6985    1.3591 H   0  0  0  0  0  0  0  0  0  0  0  0
    0.6196    2.9560   -0.7176 H   0  0  0  0  0  0  0  0  0  0  0  0
    0.6740    2.9595   -3.1771 H   0  0  0  0  0  0  0  0  0  0  0  0
    0.7273    0.8215   -4.4228 H   0  0  0  0  0  0  0  0  0  0  0  0
    0.7211   -1.3172   -3.1771 H   0  0  0  0  0  0  0  0  0  0  0  0
    0.6667   -1.3149   -0.7176 H   0  0  0  0  0  0  0  0  0  0  0  0
  1  2  3  0
  1  5  1  0
  2  3  1  0
  3  4  1  0
  3  6  1  0
  4  7  1  0
  4  8  1  0
  4  9  1  0
 10 11  1  0
 10 17  1  0
 10 18  1  0
 10 19  1  0
 11 12  2  0
 11 16  1  0
 12 13  1  0
 12 20  1  0
 13 14  2  0
 13 21  1  0
 14 15  1  0
 14 22  1  0
 15 16  2  0
 15 23  1  0
 16 24  1  0
M  RAD  1   3   2
M  END
>  <reaction>  (15) 
rxn_1444

>  <mol_properties>  (15) 
{"1": {"label": "*0", "atom_type": "Ct"}, "2": {"label": "*1", "atom_type": "Cs"}, "9": {"label": "*3", "atom_type": "Cd"}, "10": {"label": "*4", "atom_type": "Cd"}, "16": {"label": "*2", "atom_type": "H0"}}

>  <type>  (15) 
unop_11

>  <geom_source>  (15) 
Heuristics

$$$$

     RDKit          3D

 24 23  0  0  0  0  0  0  0  0999 V2000
   -1.5639   -2.5818    0.3058 C   0  0  0  0  0  0  0  0  0  0  0  0
   -1.2034   -1.8894    1.2142 C   0  0  0  0  0  0  0  0  0  0  0  0
   -0.7488   -1.0672    2.3310 C   0  0  0  0  0  3  0  0  0  0  0  0
    0.2014   -1.8140    3.2689 C   0  0  0  0  0  0  0  0  0  0  0  0
   -1.8839   -3.1964   -0.5007 H   0  0  0  0  0  0  0  0  0  0  0  0
   -1.6219   -0.7163    2.8869 H   0  0  0  0  0  0  0  0  0  0  0  0
    0.5145   -1.1632    4.0861 H   0  0  0  0  0  0  0  0  0  0  0  0
   -0.2859   -2.6916    3.6941 H   0  0  0  0  0  0  0  0  0  0  0  0
    1.0903   -2.1475    2.7333 H   0  0  0  0  0  0  0  0  0  0  0  0
    0.4323    1.0686    1.3778 C   0  0  0  0  0  0  0  0  0  0  0  0
    0.4323    1.0686   -0.1259 C   0  0  0  0  0  0  0  0  0  0  0  0
    0.4323    2.2629   -0.8400 C   0  0  0  0  0  0  0  0  0  0  0  0
    0.4627    2.2662   -2.2260 C   0  0  0  0  0  0  0  0  0  0  0  0
    0.4923    1.0692   -2.9250 C   0  0  0  0  0  0  0  0  0  0  0  0
    0.4891   -0.1281   -2.2260 C   0  0  0  0  0  0  0  0  0  0  0  0
    0.4586   -0.1255   -0.8400 C   0  0  0  0  0  0  0  0  0  0  0  0
   -0.1576    0.0018    1.8539 H   0  0  0  0  0  0  0  0  0  0  0  0
    1.4545    1.0798    1.7646 H   0  0  0  0  0  0  0  0  0  0  0  0
   -0.0787    1.9465    1.7745 H   0  0  0  0  0  0  0  0  0  0  0  0
    0.4057    3.2040   -0.3022 H   0  0  0  0  0  0  0  0  0  0  0  0
    0.4601    3.2075   -2.7617 H   0  0  0  0  0  0  0  0  0  0  0  0
    0.5134    1.0695   -4.0074 H   0  0  0  0  0  0  0  0  0  0  0  0
    0.5072   -1.0692   -2.7617 H   0  0  0  0  0  0  0  0  0  0  0  0
    0.4528   -1.0669   -0.3022 H   0  0  0  0  0  0  0  0  0  0  0  0
  1  2  3  0
  1  5  1  0
  2  3  1  0
  3  4  1  0
  3  6  1  0
  4  7  1  0
  4  8  1  0
  4  9  1  0
 10 11  1  0
 10 17  1  0
 10 18  1  0
 10 19  1  0
 11 12  2  0
 11 16  1  0
 12 13  1  0
 12 20  1  0
 13 14  2  0
 13 21  1  0
 14 15  1  0
 14 22  1  0
 15 16  2  0
 15 23  1  0
 16 24  1  0
M  RAD  1   3   2
M  END
>  <reaction>  (16) 
rxn_1444

>  <mol_properties>  (16) 
{"1": {"label": "*0", "atom_type": "Ct"}, "2": {"label": "*1", "atom_type": "Cs"}, "9": {"label": "*3", "atom_type": "Cd"}, "10": {"label": "*4", "atom_type": "Cd"}, "16": {"label": "*2", "atom_type": "H0"}}

>  <type>  (16) 
unop_12

>  <geom_source>  (16) 
Heuristics

$$$$

     RDKit          3D

 24 23  0  0  0  0  0  0  0  0999 V2000
   -2.1178    0.4331    0.1946 C   0  0  0  0  0  3  0  0  0  0  0  0
   -3.3930    0.3421   -0.6321 C   0  0  0  0  0  0  0  0  0  0  0  0
    1.1066   -0.2154   -0.6919 C   0  0  0  0  0  0  0  0  0  0  0  0
    2.2923   -0.6735   -1.2859 C   0  0  0  0  0  0  0  0  0  0  0  0
    1.1600    0.4626    0.5334 C   0  0  0  0  0  0  0  0  0  0  0  0
    3.5218   -0.4534   -0.6564 C   0  0  0  0  0  0  0  0  0  0  0  0
    3.5713    0.2235    0.5662 C   0  0  0  0  0  0  0  0  0  0  0  0
    2.3912    0.6812    1.1606 C   0  0  0  0  0  0  0  0  0  0  0  0
   -0.2106   -0.4454   -1.3561 C   0  0  0  0  0  0  0  0  0  0  0  0
   -2.3464   -0.0711    1.5531 C   0  0  0  0  0  0  0  0  0  0  0  0
   -2.5331   -0.4856    2.6696 C   0  0  0  0  0  0  0  0  0  0  0  0
   -1.7829    1.4903    0.2501 H   0  0  0  0  0  0  0  0  0  0  0  0
   -1.1166   -0.3288   -0.4140 H   0  0  0  0  0  0  0  0  0  0  0  0
   -4.1989    0.9528   -0.1710 H   0  0  0  0  0  0  0  0  0  0  0  0
   -3.1961    0.7253   -1.6551 H   0  0  0  0  0  0  0  0  0  0  0  0
   -3.7274   -0.7146   -0.7078 H   0  0  0  0  0  0  0  0  0  0  0  0
    2.2631   -1.1987   -2.2327 H   0  0  0  0  0  0  0  0  0  0  0  0
    4.4357   -0.8074   -1.1158 H   0  0  0  0  0  0  0  0  0  0  0  0
    0.2511    0.8208    1.0013 H   0  0  0  0  0  0  0  0  0  0  0  0
    4.5232    0.3932    1.0525 H   0  0  0  0  0  0  0  0  0  0  0  0
    2.4305    1.2051    2.1069 H   0  0  0  0  0  0  0  0  0  0  0  0
   -0.3977   -1.5340   -1.4685 H   0  0  0  0  0  0  0  0  0  0  0  0
   -0.2289    0.0473   -2.3509 H   0  0  0  0  0  0  0  0  0  0  0  0
   -2.6972   -0.8494    3.6498 H   0  0  0  0  0  0  0  0  0  0  0  0
  1  2  1  0
  1 10  1  0
  1 12  1  0
  2 14  1  0
  2 15  1  0
  2 16  1  0
  3  9  1  0
  3  4  2  0
  3  5  1  0
  4  6  1  0
  4 17  1  0
  5  8  2  0
  5 19  1  0
  6  7  2  0
  6 18  1  0
  7  8  1  0
  7 20  1  0
  8 21  1  0
  9 13  1  0
  9 22  1  0
  9 23  1  0
 10 11  3  0
 11 24  1  0
M  RAD  1   1   2
M  END
>  <reaction>  (17) 
rxn_1444

>  <mol_properties>  (17) 
{"1": {"label": "*0", "atom_type": "Ct"}, "2": {"label": "*1", "atom_type": "Cs"}, "9": {"label": "*3", "atom_type": "Cd"}, "10": {"label": "*4", "atom_type": "Cd"}, "16": {"label": "*2", "atom_type": "H0"}}

>  <type>  (17) 
unop_13

>  <geom_source>  (17) 
AutoTST

$$$$

     RDKit          3D

 24 23  0  0  0  0  0  0  0  0999 V2000
   -0.5544   -3.0727    0.5521 C   0  0  0  0  0  0  0  0  0  0  0  0
   -0.7204   -2.1628    1.3131 C   0  0  0  0  0  0  0  0  0  0  0  0
   -0.9030   -1.0652    2.2574 C   0  0  0  0  0  3  0  0  0  0  0  0
    0.0029   -1.1817    3.4846 C   0  0  0  0  0  0  0  0  0  0  0  0
   -0.4070   -3.8805   -0.1235 H   0  0  0  0  0  0  0  0  0  0  0  0
   -1.9505   -1.0402    2.5684 H   0  0  0  0  0  0  0  0  0  0  0  0
   -0.1671   -0.3430    4.1606 H   0  0  0  0  0  0  0  0  0  0  0  0
   -0.1964   -2.1069    4.0256 H   0  0  0  0  0  0  0  0  0  0  0  0
    1.0528   -1.1813    3.1913 H   0  0  0  0  0  0  0  0  0  0  0  0
    0.2780    1.0706    1.3042 C   0  0  0  0  0  0  0  0  0  0  0  0
    0.2780    1.0706   -0.1995 C   0  0  0  0  0  0  0  0  0  0  0  0
    0.2780    2.2649   -0.9136 C   0  0  0  0  0  0  0  0  0  0  0  0
    0.3085    2.2683   -2.2996 C   0  0  0  0  0  0  0  0  0  0  0  0
    0.3380    1.0713   -2.9986 C   0  0  0  0  0  0  0  0  0  0  0  0
    0.3349   -0.1261   -2.2996 C   0  0  0  0  0  0  0  0  0  0  0  0
    0.3044   -0.1234   -0.9136 C   0  0  0  0  0  0  0  0  0  0  0  0
   -0.3119    0.0039    1.7803 H   0  0  0  0  0  0  0  0  0  0  0  0
    1.3002    1.0818    1.6910 H   0  0  0  0  0  0  0  0  0  0  0  0
   -0.2330    1.9485    1.7009 H   0  0  0  0  0  0  0  0  0  0  0  0
    0.2514    3.2060   -0.3758 H   0  0  0  0  0  0  0  0  0  0  0  0
    0.3058    3.2095   -2.8353 H   0  0  0  0  0  0  0  0  0  0  0  0
    0.3592    1.0715   -4.0810 H   0  0  0  0  0  0  0  0  0  0  0  0
    0.3530   -1.0672   -2.8353 H   0  0  0  0  0  0  0  0  0  0  0  0
    0.2985   -1.0649   -0.3758 H   0  0  0  0  0  0  0  0  0  0  0  0
  1  2  3  0
  1  5  1  0
  2  3  1  0
  3  4  1  0
  3  6  1  0
  4  7  1  0
  4  8  1  0
  4  9  1  0
 10 11  1  0
 10 17  1  0
 10 18  1  0
 10 19  1  0
 11 12  2  0
 11 16  1  0
 12 13  1  0
 12 20  1  0
 13 14  2  0
 13 21  1  0
 14 15  1  0
 14 22  1  0
 15 16  2  0
 15 23  1  0
 16 24  1  0
M  RAD  1   3   2
M  END
>  <reaction>  (18) 
rxn_1444

>  <mol_properties>  (18) 
{"1": {"label": "*0", "atom_type": "Ct"}, "2": {"label": "*1", "atom_type": "Cs"}, "9": {"label": "*3", "atom_type": "Cd"}, "10": {"label": "*4", "atom_type": "Cd"}, "16": {"label": "*2", "atom_type": "H0"}}

>  <type>  (18) 
unop_14

>  <geom_source>  (18) 
gaussian_log

$$$$
