
     RDKit          3D

 10  9  0  0  0  0  0  0  0  0999 V2000
    2.2738    0.0217   -0.0992 C   0  0  0  0  0  0  0  0  0  0  0  0
    1.1083    0.2960   -0.0695 C   0  0  0  0  0  0  0  0  0  0  0  0
   -0.3173    0.6046   -0.0227 C   0  0  0  0  0  0  0  0  0  0  0  0
   -1.1561   -0.5495    0.5292 C   0  0  0  0  0  0  0  0  0  0  0  0
    3.3097   -0.2166   -0.1277 H   0  0  0  0  0  0  0  0  0  0  0  0
   -0.6542    0.8617   -1.0302 H   0  0  0  0  0  0  0  0  0  0  0  0
   -0.4633    1.4978    0.5900 H   0  0  0  0  0  0  0  0  0  0  0  0
   -0.8485   -0.7997    1.5447 H   0  0  0  0  0  0  0  0  0  0  0  0
   -2.2115   -0.2752    0.5459 H   0  0  0  0  0  0  0  0  0  0  0  0
   -1.0409   -1.4407   -0.0879 H   0  0  0  0  0  0  0  0  0  0  0  0
  1  2  3  0
  1  5  1  0
  2  3  1  0
  3  4  1  0
  3  6  1  0
  3  7  1  0
  4  8  1  0
  4  9  1  0
  4 10  1  0
M  END
>  <reaction>  (1) 
rxn_1298

>  <mol_properties>  (1) 
{"2": {"label": "donator", "atom_type": "Cs"}, "5": {"label": "d_hydrogen", "atom_type": "H0"}}

>  <type>  (1) 
r1h

$$$$

     RDKit          3D

  4  3  0  0  0  0  0  0  0  0999 V2000
   -0.7528   -0.8706   -0.3839 S   0  0  0  0  0  0  0  0  0  0  0  0
    0.7502   -0.2564   -0.0649 C   0  0  0  0  0  3  0  0  0  0  0  0
    1.5655    0.9691    0.4633 S   0  0  0  0  0  0  0  0  0  0  0  0
   -1.5629    0.1579   -0.0146 H   0  0  0  0  0  0  0  0  0  0  0  0
  1  2  1  0
  1  4  1  0
  2  3  2  0
M  RAD  1   2   2
M  END
>  <reaction>  (2) 
rxn_1298

>  <mol_properties>  (2) 
{"1": {"label": "acceptor", "atom_type": "CS"}}

>  <type>  (2) 
r2

$$$$

     RDKit          3D

  5  4  0  0  0  0  0  0  0  0999 V2000
    1.2280   -0.4626    0.1225 S   0  0  0  0  0  0  0  0  0  0  0  0
   -0.4732   -0.2566   -0.0746 C   0  0  0  0  0  0  0  0  0  0  0  0
   -1.3314    1.1074   -0.0947 S   0  0  0  0  0  0  0  0  0  0  0  0
    1.5289    0.8405    0.2416 H   0  0  0  0  0  0  0  0  0  0  0  0
   -0.9523   -1.2286   -0.1949 H   0  0  0  0  0  0  0  0  0  0  0  0
  1  2  1  0
  1  4  1  0
  2  3  2  0
  2  5  1  0
M  END
>  <reaction>  (3) 
rxn_1298

>  <mol_properties>  (3) 
{"1": {"label": "acceptor", "atom_type": "CS"}, "4": {"label": "a_hydrogen", "atom_type": "H0"}}

>  <type>  (3) 
r2h

$$$$

     RDKit          3D

 14 12  0  0  0  0  0  0  0  0999 V2000
    1.3543   -1.2037   -0.6702 S   0  0  0  0  0  0  0  0  0  0  0  0
    0.5755   -0.4182    0.6227 C   0  0  0  0  0  3  0  0  0  0  0  0
    0.8948   -0.2605    2.1749 S   0  0  0  0  0  0  0  0  0  0  0  0
    2.4023   -1.7132    0.0076 H   0  0  0  0  0  0  0  0  0  0  0  0
   -1.5026    0.7812   -2.9255 C   0  0  0  0  0  0  0  0  0  0  0  0
   -1.5988    0.8058   -1.7267 C   0  0  0  0  0  0  0  0  0  0  0  0
   -1.6437    0.8185   -0.3028 C   0  0  0  0  0  0  0  0  0  0  0  0
   -1.5297    2.1570    0.3903 C   0  0  0  0  0  0  0  0  0  0  0  0
   -1.4346    0.7635   -3.9865 H   0  0  0  0  0  0  0  0  0  0  0  0
   -0.5464    0.1690    0.1045 H   0  0  0  0  0  0  0  0  0  0  0  0
   -2.4164    0.1682    0.1067 H   0  0  0  0  0  0  0  0  0  0  0  0
   -2.4385    2.7475    0.2496 H   0  0  0  0  0  0  0  0  0  0  0  0
   -1.3768    2.0144    1.4610 H   0  0  0  0  0  0  0  0  0  0  0  0
   -0.6908    2.7291   -0.0066 H   0  0  0  0  0  0  0  0  0  0  0  0
  1  2  1  0
  1  4  1  0
  2  3  2  0
  5  6  3  0
  5  9  1  0
  6  7  1  0
  7  8  1  0
  7 10  1  0
  7 11  1  0
  8 12  1  0
  8 13  1  0
  8 14  1  0
M  RAD  1   2   2
M  END
>  <reaction>  (4) 
rxn_1298

>  <mol_properties>  (4) 
{"0": {"label": "*4", "atom_type": "S2s"}, "1": {"label": "*3", "atom_type": "CS"}, "5": {"label": "*0", "atom_type": "Ct"}, "6": {"label": "*1", "atom_type": "Cs"}, "9": {"label": "*2", "atom_type": "H0"}}

>  <type>  (4) 
ts

$$$$

     RDKit          3D

 14 12  0  0  0  0  0  0  0  0999 V2000
    1.6964    0.4752    1.3196 S   0  0  0  0  0  0  0  0  0  0  0  0
    0.6983   -0.5748    0.3834 C   0  0  0  0  0  0  0  0  0  0  0  0
    0.3394   -2.1248    0.6407 S   0  0  0  0  0  0  0  0  0  0  0  0
    2.0266   -0.4237    2.2608 H   0  0  0  0  0  0  0  0  0  0  0  0
   -1.4004    0.7036   -3.1406 C   0  0  0  0  0  0  0  0  0  0  0  0
   -1.4004    0.7036   -1.9428 C   0  0  0  0  0  0  0  0  0  0  0  0
   -1.4004    0.7318   -0.4837 C   0  0  0  0  0  3  0  0  0  0  0  0
   -1.4004    2.1532    0.0819 C   0  0  0  0  0  0  0  0  0  0  0  0
   -1.4004    0.7036   -4.2039 H   0  0  0  0  0  0  0  0  0  0  0  0
   -0.3498    0.0777   -0.0496 H   0  0  0  0  0  0  0  0  0  0  0  0
   -2.2759    0.1867   -0.1220 H   0  0  0  0  0  0  0  0  0  0  0  0
   -2.2826    2.7011   -0.2496 H   0  0  0  0  0  0  0  0  0  0  0  0
   -1.4004    2.1259    1.1722 H   0  0  0  0  0  0  0  0  0  0  0  0
   -0.5181    2.7010   -0.2496 H   0  0  0  0  0  0  0  0  0  0  0  0
  1  2  1  0
  1  4  1  0
  2  3  2  0
  2 10  1  0
  5  6  3  0
  5  9  1  0
  6  7  1  0
  7  8  1  0
  7 11  1  0
  8 12  1  0
  8 13  1  0
  8 14  1  0
M  RAD  1   7   2
M  END
>  <reaction>  (5) 
rxn_1298

>  <mol_properties>  (5) 
{"0": {"label": "*4", "atom_type": "S2s"}, "1": {"label": "*3", "atom_type": "CS"}, "5": {"label": "*0", "atom_type": "Ct"}, "6": {"label": "*1", "atom_type": "Cs"}, "9": {"label": "*2", "atom_type": "H0"}}

>  <type>  (5) 
unop_1

>  <geom_source>  (5) 
Heuristics

$$$$

     RDKit          3D

 14 12  0  0  0  0  0  0  0  0999 V2000
    1.8004   -0.4962   -0.5538 S   0  0  0  0  0  0  0  0  0  0  0  0
    0.5167   -0.6237    0.5913 C   0  0  0  0  0  0  0  0  0  0  0  0
    0.5865   -1.0391    2.1470 S   0  0  0  0  0  0  0  0  0  0  0  0
    2.7899   -0.8468    0.2833 H   0  0  0  0  0  0  0  0  0  0  0  0
   -1.5820    0.6547   -2.9326 C   0  0  0  0  0  0  0  0  0  0  0  0
   -1.5820    0.6547   -1.7349 C   0  0  0  0  0  0  0  0  0  0  0  0
   -1.5820    0.6829   -0.2758 C   0  0  0  0  0  3  0  0  0  0  0  0
   -1.5820    2.1043    0.2898 C   0  0  0  0  0  0  0  0  0  0  0  0
   -1.5820    0.6547   -3.9960 H   0  0  0  0  0  0  0  0  0  0  0  0
   -0.5314    0.0288    0.1583 H   0  0  0  0  0  0  0  0  0  0  0  0
   -2.4575    0.1378    0.0859 H   0  0  0  0  0  0  0  0  0  0  0  0
   -2.4642    2.6522   -0.0416 H   0  0  0  0  0  0  0  0  0  0  0  0
   -1.5820    2.0770    1.3801 H   0  0  0  0  0  0  0  0  0  0  0  0
   -0.6997    2.6521   -0.0416 H   0  0  0  0  0  0  0  0  0  0  0  0
  1  2  1  0
  1  4  1  0
  2  3  2  0
  2 10  1  0
  5  6  3  0
  5  9  1  0
  6  7  1  0
  7  8  1  0
  7 11  1  0
  8 12  1  0
  8 13  1  0
  8 14  1  0
M  RAD  1   7   2
M  END
>  <reaction>  (6) 
rxn_1298

>  <mol_properties>  (6) 
{"0": {"label": "*4", "atom_type": "S2s"}, "1": {"label": "*3", "atom_type": "CS"}, "5": {"label": "*0", "atom_type": "Ct"}, "6": {"label": "*1", "atom_type": "Cs"}, "9": {"label": "*2", "atom_type": "H0"}}

>  <type>  (6) 
unop_2

>  <geom_source>  (6) 
Heuristics

$$$$

     RDKit          3D

 14 12  0  0  0  0  0  0  0  0999 V2000
    1.2094    0.1742    1.9481 S   0  0  0  0  0  0  0  0  0  0  0  0
    0.6894   -0.4862    0.4418 C   0  0  0  0  0  0  0  0  0  0  0  0
    0.8534   -1.9902   -0.1139 S   0  0  0  0  0  0  0  0  0  0  0  0
    1.7546   -0.9536    2.4315 H   0  0  0  0  0  0  0  0  0  0  0  0
   -1.4093    0.7922   -3.0821 C   0  0  0  0  0  0  0  0  0  0  0  0
   -1.4093    0.7922   -1.8844 C   0  0  0  0  0  0  0  0  0  0  0  0
   -1.4093    0.8204   -0.4253 C   0  0  0  0  0  3  0  0  0  0  0  0
   -1.4093    2.2418    0.1403 C   0  0  0  0  0  0  0  0  0  0  0  0
   -1.4093    0.7922   -4.1454 H   0  0  0  0  0  0  0  0  0  0  0  0
   -0.3587    0.1663    0.0088 H   0  0  0  0  0  0  0  0  0  0  0  0
   -2.2848    0.2754   -0.0635 H   0  0  0  0  0  0  0  0  0  0  0  0
   -2.2915    2.7897   -0.1911 H   0  0  0  0  0  0  0  0  0  0  0  0
   -1.4093    2.2145    1.2306 H   0  0  0  0  0  0  0  0  0  0  0  0
   -0.5271    2.7896   -0.1911 H   0  0  0  0  0  0  0  0  0  0  0  0
  1  2  1  0
  1  4  1  0
  2  3  2  0
  2 10  1  0
  5  6  3  0
  5  9  1  0
  6  7  1  0
  7  8  1  0
  7 11  1  0
  8 12  1  0
  8 13  1  0
  8 14  1  0
M  RAD  1   7   2
M  END
>  <reaction>  (7) 
rxn_1298

>  <mol_properties>  (7) 
{"0": {"label": "*4", "atom_type": "S2s"}, "1": {"label": "*3", "atom_type": "CS"}, "5": {"label": "*0", "atom_type": "Ct"}, "6": {"label": "*1", "atom_type": "Cs"}, "9": {"label": "*2", "atom_type": "H0"}}

>  <type>  (7) 
unop_3

>  <geom_source>  (7) 
Heuristics

$$$$

     RDKit          3D

 14 12  0  0  0  0  0  0  0  0999 V2000
    0.6623   -2.0576   -0.0625 S   0  0  0  0  0  0  0  0  0  0  0  0
    0.7220   -0.4233    0.4861 C   0  0  0  0  0  0  0  0  0  0  0  0
    1.3479    0.1635    1.8504 S   0  0  0  0  0  0  0  0  0  0  0  0
    1.2850   -2.5992    0.9966 H   0  0  0  0  0  0  0  0  0  0  0  0
   -1.3767    0.8551   -3.0378 C   0  0  0  0  0  0  0  0  0  0  0  0
   -1.3767    0.8551   -1.8401 C   0  0  0  0  0  0  0  0  0  0  0  0
   -1.3767    0.8833   -0.3810 C   0  0  0  0  0  3  0  0  0  0  0  0
   -1.3767    2.3047    0.1846 C   0  0  0  0  0  0  0  0  0  0  0  0
   -1.3767    0.8551   -4.1011 H   0  0  0  0  0  0  0  0  0  0  0  0
   -0.3261    0.2292    0.0531 H   0  0  0  0  0  0  0  0  0  0  0  0
   -2.2522    0.3382   -0.0193 H   0  0  0  0  0  0  0  0  0  0  0  0
   -2.2589    2.8526   -0.1468 H   0  0  0  0  0  0  0  0  0  0  0  0
   -1.3767    2.2774    1.2749 H   0  0  0  0  0  0  0  0  0  0  0  0
   -0.4944    2.8525   -0.1468 H   0  0  0  0  0  0  0  0  0  0  0  0
  1  2  1  0
  1  4  1  0
  2  3  2  0
  2 10  1  0
  5  6  3  0
  5  9  1  0
  6  7  1  0
  7  8  1  0
  7 11  1  0
  8 12  1  0
  8 13  1  0
  8 14  1  0
M  RAD  1   7   2
M  END
>  <reaction>  (8) 
rxn_1298

>  <mol_properties>  (8) 
{"0": {"label": "*4", "atom_type": "S2s"}, "1": {"label": "*3", "atom_type": "CS"}, "5": {"label": "*0", "atom_type": "Ct"}, "6": {"label": "*1", "atom_type": "Cs"}, "9": {"label": "*2", "atom_type": "H0"}}

>  <type>  (8) 
unop_4

>  <geom_source>  (8) 
Heuristics

$$$$

     RDKit          3D

 14 12  0  0  0  0  0  0  0  0999 V2000
    0.6221   -0.5130    2.2281 S   0  0  0  0  0  0  0  0  0  0  0  0
    0.5938   -0.5286    0.5035 C   0  0  0  0  0  0  0  0  0  0  0  0
    1.6383   -1.2070   -0.5193 S   0  0  0  0  0  0  0  0  0  0  0  0
    1.7526   -1.2232    2.3707 H   0  0  0  0  0  0  0  0  0  0  0  0
   -1.5049    0.7499   -3.0205 C   0  0  0  0  0  0  0  0  0  0  0  0
   -1.5049    0.7499   -1.8228 C   0  0  0  0  0  0  0  0  0  0  0  0
   -1.5049    0.7781   -0.3636 C   0  0  0  0  0  3  0  0  0  0  0  0
   -1.5049    2.1995    0.2020 C   0  0  0  0  0  0  0  0  0  0  0  0
   -1.5049    0.7499   -4.0838 H   0  0  0  0  0  0  0  0  0  0  0  0
   -0.4543    0.1240    0.0704 H   0  0  0  0  0  0  0  0  0  0  0  0
   -2.3804    0.2330   -0.0019 H   0  0  0  0  0  0  0  0  0  0  0  0
   -2.3871    2.7473   -0.1295 H   0  0  0  0  0  0  0  0  0  0  0  0
   -1.5049    2.1722    1.2923 H   0  0  0  0  0  0  0  0  0  0  0  0
   -0.6227    2.7473   -0.1295 H   0  0  0  0  0  0  0  0  0  0  0  0
  1  2  1  0
  1  4  1  0
  2  3  2  0
  2 10  1  0
  5  6  3  0
  5  9  1  0
  6  7  1  0
  7  8  1  0
  7 11  1  0
  8 12  1  0
  8 13  1  0
  8 14  1  0
M  RAD  1   7   2
M  END
>  <reaction>  (9) 
rxn_1298

>  <mol_properties>  (9) 
{"0": {"label": "*4", "atom_type": "S2s"}, "1": {"label": "*3", "atom_type": "CS"}, "5": {"label": "*0", "atom_type": "Ct"}, "6": {"label": "*1", "atom_type": "Cs"}, "9": {"label": "*2", "atom_type": "H0"}}

>  <type>  (9) 
unop_5

>  <geom_source>  (9) 
Heuristics

$$$$

     RDKit          3D

 14 12  0  0  0  0  0  0  0  0999 V2000
    0.3364   -2.1712    0.6220 S   0  0  0  0  0  0  0  0  0  0  0  0
    0.7325   -0.5069    0.4016 C   0  0  0  0  0  0  0  0  0  0  0  0
    1.6598    0.4420    1.3166 S   0  0  0  0  0  0  0  0  0  0  0  0
    1.0397   -2.3494    1.7518 H   0  0  0  0  0  0  0  0  0  0  0  0
   -1.3662    0.7715   -3.1223 C   0  0  0  0  0  0  0  0  0  0  0  0
   -1.3662    0.7715   -1.9246 C   0  0  0  0  0  0  0  0  0  0  0  0
   -1.3662    0.7997   -0.4654 C   0  0  0  0  0  3  0  0  0  0  0  0
   -1.3662    2.2211    0.1002 C   0  0  0  0  0  0  0  0  0  0  0  0
   -1.3662    0.7715   -4.1856 H   0  0  0  0  0  0  0  0  0  0  0  0
   -0.3156    0.1456   -0.0314 H   0  0  0  0  0  0  0  0  0  0  0  0
   -2.2417    0.2547   -0.1037 H   0  0  0  0  0  0  0  0  0  0  0  0
   -2.2484    2.7690   -0.2313 H   0  0  0  0  0  0  0  0  0  0  0  0
   -1.3662    2.1938    1.1904 H   0  0  0  0  0  0  0  0  0  0  0  0
   -0.4839    2.7689   -0.2313 H   0  0  0  0  0  0  0  0  0  0  0  0
  1  2  1  0
  1  4  1  0
  2  3  2  0
  2 10  1  0
  5  6  3  0
  5  9  1  0
  6  7  1  0
  7  8  1  0
  7 11  1  0
  8 12  1  0
  8 13  1  0
  8 14  1  0
M  RAD  1   7   2
M  END
>  <reaction>  (10) 
rxn_1298

>  <mol_properties>  (10) 
{"0": {"label": "*4", "atom_type": "S2s"}, "1": {"label": "*3", "atom_type": "CS"}, "5": {"label": "*0", "atom_type": "Ct"}, "6": {"label": "*1", "atom_type": "Cs"}, "9": {"label": "*2", "atom_type": "H0"}}

>  <type>  (10) 
unop_6

>  <geom_source>  (10) 
Heuristics

$$$$

     RDKit          3D

 14 12  0  0  0  0  0  0  0  0999 V2000
    0.1779   -1.9329    1.3662 S   0  0  0  0  0  0  0  0  0  0  0  0
    0.6785   -0.6063    0.3840 C   0  0  0  0  0  0  0  0  0  0  0  0
    1.9265    0.3920    0.5920 S   0  0  0  0  0  0  0  0  0  0  0  0
    1.1475   -1.8177    2.2877 H   0  0  0  0  0  0  0  0  0  0  0  0
   -1.4202    0.6722   -3.1399 C   0  0  0  0  0  0  0  0  0  0  0  0
   -1.4202    0.6722   -1.9422 C   0  0  0  0  0  0  0  0  0  0  0  0
   -1.4202    0.7004   -0.4831 C   0  0  0  0  0  3  0  0  0  0  0  0
   -1.4202    2.1218    0.0825 C   0  0  0  0  0  0  0  0  0  0  0  0
   -1.4202    0.6722   -4.2032 H   0  0  0  0  0  0  0  0  0  0  0  0
   -0.3696    0.0463   -0.0490 H   0  0  0  0  0  0  0  0  0  0  0  0
   -2.2957    0.1553   -0.1214 H   0  0  0  0  0  0  0  0  0  0  0  0
   -2.3024    2.6696   -0.2489 H   0  0  0  0  0  0  0  0  0  0  0  0
   -1.4202    2.0945    1.1728 H   0  0  0  0  0  0  0  0  0  0  0  0
   -0.5379    2.6696   -0.2489 H   0  0  0  0  0  0  0  0  0  0  0  0
  1  2  1  0
  1  4  1  0
  2  3  2  0
  2 10  1  0
  5  6  3  0
  5  9  1  0
  6  7  1  0
  7  8  1  0
  7 11  1  0
  8 12  1  0
  8 13  1  0
  8 14  1  0
M  RAD  1   7   2
M  END
>  <reaction>  (11) 
rxn_1298

>  <mol_properties>  (11) 
{"0": {"label": "*4", "atom_type": "S2s"}, "1": {"label": "*3", "atom_type": "CS"}, "5": {"label": "*0", "atom_type": "Ct"}, "6": {"label": "*1", "atom_type": "Cs"}, "9": {"label": "*2", "atom_type": "H0"}}

>  <type>  (11) 
unop_7

>  <geom_source>  (11) 
Heuristics

$$$$

     RDKit          3D

 14 12  0  0  0  0  0  0  0  0999 V2000
    1.9668    0.4142    0.5720 S   0  0  0  0  0  0  0  0  0  0  0  0
    0.6323   -0.6659    0.4047 C   0  0  0  0  0  0  0  0  0  0  0  0
    0.1920   -1.8857    1.3617 S   0  0  0  0  0  0  0  0  0  0  0  0
    2.4504   -0.1123    1.7085 H   0  0  0  0  0  0  0  0  0  0  0  0
   -1.4664    0.6126   -3.1192 C   0  0  0  0  0  0  0  0  0  0  0  0
   -1.4664    0.6126   -1.9215 C   0  0  0  0  0  0  0  0  0  0  0  0
   -1.4664    0.6408   -0.4624 C   0  0  0  0  0  3  0  0  0  0  0  0
   -1.4664    2.0622    0.1032 C   0  0  0  0  0  0  0  0  0  0  0  0
   -1.4664    0.6126   -4.1825 H   0  0  0  0  0  0  0  0  0  0  0  0
   -0.4158   -0.0133   -0.0283 H   0  0  0  0  0  0  0  0  0  0  0  0
   -2.3419    0.0957   -0.1007 H   0  0  0  0  0  0  0  0  0  0  0  0
   -2.3486    2.6100   -0.2282 H   0  0  0  0  0  0  0  0  0  0  0  0
   -1.4664    2.0349    1.1935 H   0  0  0  0  0  0  0  0  0  0  0  0
   -0.5841    2.6100   -0.2282 H   0  0  0  0  0  0  0  0  0  0  0  0
  1  2  1  0
  1  4  1  0
  2  3  2  0
  2 10  1  0
  5  6  3  0
  5  9  1  0
  6  7  1  0
  7  8  1  0
  7 11  1  0
  8 12  1  0
  8 13  1  0
  8 14  1  0
M  RAD  1   7   2
M  END
>  <reaction>  (12) 
rxn_1298

>  <mol_properties>  (12) 
{"0": {"label": "*4", "atom_type": "S2s"}, "1": {"label": "*3", "atom_type": "CS"}, "5": {"label": "*0", "atom_type": "Ct"}, "6": {"label": "*1", "atom_type": "Cs"}, "9": {"label": "*2", "atom_type": "H0"}}

>  <type>  (12) 
unop_8

>  <geom_source>  (12) 
Heuristics

$$$$

     RDKit          3D

 14 12  0  0  0  0  0  0  0  0999 V2000
    1.0663   -1.6603   -0.5313 S   0  0  0  0  0  0  0  0  0  0  0  0
    0.6479   -0.4156    0.5873 C   0  0  0  0  0  0  0  0  0  0  0  0
    1.0799   -0.2567    2.1318 S   0  0  0  0  0  0  0  0  0  0  0  0
    1.8238   -2.3788    0.3129 H   0  0  0  0  0  0  0  0  0  0  0  0
   -1.4507    0.8628   -2.9367 C   0  0  0  0  0  0  0  0  0  0  0  0
   -1.4507    0.8628   -1.7390 C   0  0  0  0  0  0  0  0  0  0  0  0
   -1.4507    0.8910   -0.2798 C   0  0  0  0  0  3  0  0  0  0  0  0
   -1.4507    2.3124    0.2858 C   0  0  0  0  0  0  0  0  0  0  0  0
   -1.4507    0.8628   -4.0000 H   0  0  0  0  0  0  0  0  0  0  0  0
   -0.4001    0.2369    0.1542 H   0  0  0  0  0  0  0  0  0  0  0  0
   -2.3263    0.3459    0.0819 H   0  0  0  0  0  0  0  0  0  0  0  0
   -2.3330    2.8603   -0.0457 H   0  0  0  0  0  0  0  0  0  0  0  0
   -1.4507    2.2851    1.3761 H   0  0  0  0  0  0  0  0  0  0  0  0
   -0.5685    2.8602   -0.0457 H   0  0  0  0  0  0  0  0  0  0  0  0
  1  2  1  0
  1  4  1  0
  2  3  2  0
  2 10  1  0
  5  6  3  0
  5  9  1  0
  6  7  1  0
  7  8  1  0
  7 11  1  0
  8 12  1  0
  8 13  1  0
  8 14  1  0
M  RAD  1   7   2
M  END
>  <reaction>  (13) 
rxn_1298

>  <mol_properties>  (13) 
{"0": {"label": "*4", "atom_type": "S2s"}, "1": {"label": "*3", "atom_type": "CS"}, "5": {"label": "*0", "atom_type": "Ct"}, "6": {"label": "*1", "atom_type": "Cs"}, "9": {"label": "*2", "atom_type": "H0"}}

>  <type>  (13) 
unop_9

>  <geom_source>  (13) 
Heuristics

$$$$

     RDKit          3D

 14 12  0  0  0  0  0  0  0  0999 V2000
    1.9928    0.0524   -0.1033 S   0  0  0  0  0  0  0  0  0  0  0  0
    0.5538   -0.6900    0.4913 C   0  0  0  0  0  0  0  0  0  0  0  0
    0.3180   -1.4696    1.8820 S   0  0  0  0  0  0  0  0  0  0  0  0
    2.7683   -0.2469    0.9511 H   0  0  0  0  0  0  0  0  0  0  0  0
   -1.5449    0.5884   -3.0327 C   0  0  0  0  0  0  0  0  0  0  0  0
   -1.5449    0.5884   -1.8350 C   0  0  0  0  0  0  0  0  0  0  0  0
   -1.5449    0.6166   -0.3758 C   0  0  0  0  0  3  0  0  0  0  0  0
   -1.5448    2.0380    0.1898 C   0  0  0  0  0  0  0  0  0  0  0  0
   -1.5449    0.5884   -4.0960 H   0  0  0  0  0  0  0  0  0  0  0  0
   -0.4943   -0.0375    0.0582 H   0  0  0  0  0  0  0  0  0  0  0  0
   -2.4204    0.0715   -0.0141 H   0  0  0  0  0  0  0  0  0  0  0  0
   -2.4271    2.5859   -0.1417 H   0  0  0  0  0  0  0  0  0  0  0  0
   -1.5448    2.0107    1.2801 H   0  0  0  0  0  0  0  0  0  0  0  0
   -0.6626    2.5858   -0.1417 H   0  0  0  0  0  0  0  0  0  0  0  0
  1  2  1  0
  1  4  1  0
  2  3  2  0
  2 10  1  0
  5  6  3  0
  5  9  1  0
  6  7  1  0
  7  8  1  0
  7 11  1  0
  8 12  1  0
  8 13  1  0
  8 14  1  0
M  RAD  1   7   2
M  END
>  <reaction>  (14) 
rxn_1298

>  <mol_properties>  (14) 
{"0": {"label": "*4", "atom_type": "S2s"}, "1": {"label": "*3", "atom_type": "CS"}, "5": {"label": "*0", "atom_type": "Ct"}, "6": {"label": "*1", "atom_type": "Cs"}, "9": {"label": "*2", "atom_type": "H0"}}

>  <type>  (14) 
unop_10

>  <geom_source>  (14) 
Heuristics

$$$$

     RDKit          3D

 14 12  0  0  0  0  0  0  0  0999 V2000
    0.2504   -1.3465    1.9775 S   0  0  0  0  0  0  0  0  0  0  0  0
    0.5957   -0.6348    0.4447 C   0  0  0  0  0  0  0  0  0  0  0  0
    2.0135   -0.1505   -0.1494 S   0  0  0  0  0  0  0  0  0  0  0  0
    1.5113   -1.3394    2.4390 H   0  0  0  0  0  0  0  0  0  0  0  0
   -1.5030    0.6437   -3.0792 C   0  0  0  0  0  0  0  0  0  0  0  0
   -1.5030    0.6437   -1.8815 C   0  0  0  0  0  0  0  0  0  0  0  0
   -1.5030    0.6719   -0.4224 C   0  0  0  0  0  3  0  0  0  0  0  0
   -1.5029    2.0933    0.1432 C   0  0  0  0  0  0  0  0  0  0  0  0
   -1.5030    0.6437   -4.1425 H   0  0  0  0  0  0  0  0  0  0  0  0
   -0.4524    0.0178    0.0117 H   0  0  0  0  0  0  0  0  0  0  0  0
   -2.3785    0.1268   -0.0607 H   0  0  0  0  0  0  0  0  0  0  0  0
   -2.3852    2.6412   -0.1882 H   0  0  0  0  0  0  0  0  0  0  0  0
   -1.5029    2.0660    1.2335 H   0  0  0  0  0  0  0  0  0  0  0  0
   -0.6207    2.6411   -0.1882 H   0  0  0  0  0  0  0  0  0  0  0  0
  1  2  1  0
  1  4  1  0
  2  3  2  0
  2 10  1  0
  5  6  3  0
  5  9  1  0
  6  7  1  0
  7  8  1  0
  7 11  1  0
  8 12  1  0
  8 13  1  0
  8 14  1  0
M  RAD  1   7   2
M  END
>  <reaction>  (15) 
rxn_1298

>  <mol_properties>  (15) 
{"0": {"label": "*4", "atom_type": "S2s"}, "1": {"label": "*3", "atom_type": "CS"}, "5": {"label": "*0", "atom_type": "Ct"}, "6": {"label": "*1", "atom_type": "Cs"}, "9": {"label": "*2", "atom_type": "H0"}}

>  <type>  (15) 
unop_11

>  <geom_source>  (15) 
Heuristics

$$$$

     RDKit          3D

 14 12  0  0  0  0  0  0  0  0999 V2000
    1.4659   -1.1018   -0.7016 S   0  0  0  0  0  0  0  0  0  0  0  0
    0.5558   -0.5021    0.6354 C   0  0  0  0  0  0  0  0  0  0  0  0
    0.8517   -0.6581    2.2119 S   0  0  0  0  0  0  0  0  0  0  0  0
    2.4294   -1.6954    0.0210 H   0  0  0  0  0  0  0  0  0  0  0  0
   -1.5429    0.7764   -2.8886 C   0  0  0  0  0  0  0  0  0  0  0  0
   -1.5429    0.7764   -1.6909 C   0  0  0  0  0  0  0  0  0  0  0  0
   -1.5429    0.8046   -0.2317 C   0  0  0  0  0  3  0  0  0  0  0  0
   -1.5429    2.2260    0.3339 C   0  0  0  0  0  0  0  0  0  0  0  0
   -1.5429    0.7764   -3.9519 H   0  0  0  0  0  0  0  0  0  0  0  0
   -0.4923    0.1505    0.2023 H   0  0  0  0  0  0  0  0  0  0  0  0
   -2.4184    0.2595    0.1300 H   0  0  0  0  0  0  0  0  0  0  0  0
   -2.4251    2.7738    0.0024 H   0  0  0  0  0  0  0  0  0  0  0  0
   -1.5429    2.1987    1.4242 H   0  0  0  0  0  0  0  0  0  0  0  0
   -0.6607    2.7738    0.0024 H   0  0  0  0  0  0  0  0  0  0  0  0
  1  2  1  0
  1  4  1  0
  2  3  2  0
  2 10  1  0
  5  6  3  0
  5  9  1  0
  6  7  1  0
  7  8  1  0
  7 11  1  0
  8 12  1  0
  8 13  1  0
  8 14  1  0
M  RAD  1   7   2
M  END
>  <reaction>  (16) 
rxn_1298

>  <mol_properties>  (16) 
{"0": {"label": "*4", "atom_type": "S2s"}, "1": {"label": "*3", "atom_type": "CS"}, "5": {"label": "*0", "atom_type": "Ct"}, "6": {"label": "*1", "atom_type": "Cs"}, "9": {"label": "*2", "atom_type": "H0"}}

>  <type>  (16) 
unop_12

>  <geom_source>  (16) 
Heuristics

$$$$

     RDKit          3D

 14 12  0  0  0  0  0  0  0  0999 V2000
    3.1861   -0.5430   -0.0463 S   0  0  0  0  0  0  0  0  0  0  0  0
    2.2442    1.6236   -1.5437 S   0  0  0  0  0  0  0  0  0  0  0  0
   -1.2864   -1.5263    0.2654 C   0  0  0  0  0  0  0  0  0  0  0  0
   -0.3688   -0.3127    0.2960 C   0  0  0  0  0  3  0  0  0  0  0  0
    1.8988    0.4744   -0.7600 C   0  0  0  0  0  0  0  0  0  0  0  0
   -1.1121    0.9095   -0.0287 C   0  0  0  0  0  0  0  0  0  0  0  0
   -1.7221    1.9145   -0.2956 C   0  0  0  0  0  0  0  0  0  0  0  0
   -0.6977   -2.4366    0.5033 H   0  0  0  0  0  0  0  0  0  0  0  0
   -2.0986   -1.4182    1.0162 H   0  0  0  0  0  0  0  0  0  0  0  0
   -1.7299   -1.6459   -0.7460 H   0  0  0  0  0  0  0  0  0  0  0  0
    0.0909   -0.2096    1.3015 H   0  0  0  0  0  0  0  0  0  0  0  0
    0.6584    0.1672   -0.5773 H   0  0  0  0  0  0  0  0  0  0  0  0
    3.1953    0.2064    1.1452 H   0  0  0  0  0  0  0  0  0  0  0  0
   -2.2578    2.7966   -0.5300 H   0  0  0  0  0  0  0  0  0  0  0  0
  1  5  1  0
  1 13  1  0
  2  5  2  0
  3  4  1  0
  3  8  1  0
  3  9  1  0
  3 10  1  0
  4  6  1  0
  4 11  1  0
  5 12  1  0
  6  7  3  0
  7 14  1  0
M  RAD  1   4   2
M  END
>  <reaction>  (17) 
rxn_1298

>  <mol_properties>  (17) 
{"0": {"label": "*4", "atom_type": "S2s"}, "1": {"label": "*3", "atom_type": "CS"}, "5": {"label": "*0", "atom_type": "Ct"}, "6": {"label": "*1", "atom_type": "Cs"}, "9": {"label": "*2", "atom_type": "H0"}}

>  <type>  (17) 
unop_13

>  <geom_source>  (17) 
AutoTST

$$$$
