
     RDKit          3D

 13 12  0  0  0  0  0  0  0  0999 V2000
    2.2975   -0.6134    0.7685 C   0  0  0  0  0  0  0  0  0  0  0  0
    1.1676   -0.5248    0.3802 C   0  0  0  0  0  0  0  0  0  0  0  0
   -0.2109   -0.3926   -0.0948 C   0  0  0  0  0  0  0  0  0  0  0  0
   -0.2501    0.2584   -1.4808 C   0  0  0  0  0  0  0  0  0  0  0  0
   -1.0633    0.3831    0.9141 C   0  0  0  0  0  0  0  0  0  0  0  0
    3.2999   -0.6974    1.1133 H   0  0  0  0  0  0  0  0  0  0  0  0
   -0.6209   -1.4038   -0.1814 H   0  0  0  0  0  0  0  0  0  0  0  0
    0.3402   -0.3102   -2.1992 H   0  0  0  0  0  0  0  0  0  0  0  0
    0.1511    1.2724   -1.4369 H   0  0  0  0  0  0  0  0  0  0  0  0
   -1.2791    0.3109   -1.8407 H   0  0  0  0  0  0  0  0  0  0  0  0
   -0.6861    1.4008    1.0287 H   0  0  0  0  0  0  0  0  0  0  0  0
   -1.0492   -0.0971    1.8924 H   0  0  0  0  0  0  0  0  0  0  0  0
   -2.0971    0.4363    0.5680 H   0  0  0  0  0  0  0  0  0  0  0  0
  1  2  3  0
  1  6  1  0
  2  3  1  0
  3  4  1  0
  3  5  1  0
  3  7  1  0
  4  8  1  0
  4  9  1  0
  4 10  1  0
  5 11  1  0
  5 12  1  0
  5 13  1  0
M  END
>  <reaction>  (1) 
rxn_1326

>  <mol_properties>  (1) 
{"2": {"label": "donator", "atom_type": "Cs"}, "6": {"label": "d_hydrogen", "atom_type": "H0"}}

>  <type>  (1) 
r1h

$$$$

     RDKit          3D

  6  5  0  0  0  0  0  0  0  0999 V2000
   -0.7309   -0.0987    0.0327 C   0  0  0  0  0  0  0  0  0  0  0  0
    0.6208    0.0065   -0.0096 C   0  0  0  0  0  0  0  0  0  0  0  0
    1.6572   -1.2972    0.2837 S   0  0  0  0  0  1  0  0  0  0  0  0
   -1.3651    0.7588   -0.1608 H   0  0  0  0  0  0  0  0  0  0  0  0
   -1.2044   -1.0453    0.2616 H   0  0  0  0  0  0  0  0  0  0  0  0
    1.0609    0.9725   -0.2426 H   0  0  0  0  0  0  0  0  0  0  0  0
  1  2  2  3
  1  4  1  0
  1  5  1  0
  2  3  1  0
  2  6  1  0
M  RAD  1   3   2
M  END
>  <reaction>  (2) 
rxn_1326

>  <mol_properties>  (2) 
{"0": {"label": "acceptor", "atom_type": "Cs"}}

>  <type>  (2) 
r2

$$$$

     RDKit          3D

  7  6  0  0  0  0  0  0  0  0999 V2000
   -0.6782    0.0507    0.0301 C   0  0  0  0  0  0  0  0  0  0  0  0
    0.8092    0.0996    0.0213 C   0  0  0  0  0  0  0  0  0  0  0  0
    1.7473    0.7521    1.1507 S   0  0  0  0  0  0  0  0  0  0  0  0
   -1.0667    0.5456   -0.8653 H   0  0  0  0  0  0  0  0  0  0  0  0
   -1.0112   -0.9904   -0.0239 H   0  0  0  0  0  0  0  0  0  0  0  0
   -1.0920    0.5225    0.9188 H   0  0  0  0  0  0  0  0  0  0  0  0
    1.2740   -0.3620   -0.8520 H   0  0  0  0  0  0  0  0  0  0  0  0
  1  2  1  0
  1  4  1  0
  1  5  1  0
  1  6  1  0
  2  3  2  0
  2  7  1  0
M  END
>  <reaction>  (3) 
rxn_1326

>  <mol_properties>  (3) 
{"0": {"label": "a_hydrogen", "atom_type": "H0"}, "1": {"label": "acceptor", "atom_type": "Cs"}}

>  <type>  (3) 
r2h

$$$$

     RDKit          3D

 19 17  0  0  0  0  0  0  0  0999 V2000
    1.4818    2.1713   -2.1809 C   0  0  0  0  0  0  0  0  0  0  0  0
    0.9471    1.9595   -1.1246 C   0  0  0  0  0  0  0  0  0  0  0  0
    0.3275    1.6537    0.1215 C   0  0  0  0  0  3  0  0  0  0  0  0
   -1.1797    1.7343    0.1535 C   0  0  0  0  0  0  0  0  0  0  0  0
    1.0372    2.1483    1.3605 C   0  0  0  0  0  0  0  0  0  0  0  0
    1.9519    2.3741   -3.1132 H   0  0  0  0  0  0  0  0  0  0  0  0
    0.5016    0.2953    0.2349 H   0  0  0  0  0  0  0  0  0  0  0  0
   -1.6210    1.2865   -0.7365 H   0  0  0  0  0  0  0  0  0  0  0  0
   -1.5005    2.7785    0.2046 H   0  0  0  0  0  0  0  0  0  0  0  0
   -1.5644    1.2219    1.0378 H   0  0  0  0  0  0  0  0  0  0  0  0
    0.8677    3.2214    1.4884 H   0  0  0  0  0  0  0  0  0  0  0  0
    2.1115    1.9800    1.2947 H   0  0  0  0  0  0  0  0  0  0  0  0
    0.6536    1.6333    2.2430 H   0  0  0  0  0  0  0  0  0  0  0  0
    0.6965   -0.9780    0.4797 C   0  0  0  0  0  0  0  0  0  0  0  0
   -0.4097   -1.3974    1.2821 C   0  0  0  0  0  0  0  0  0  0  0  0
   -0.4733   -1.3401    2.9173 S   0  0  0  0  0  0  0  0  0  0  0  0
    0.7355   -1.3566   -0.5393 H   0  0  0  0  0  0  0  0  0  0  0  0
    1.6581   -0.9204    0.9827 H   0  0  0  0  0  0  0  0  0  0  0  0
   -1.2922   -1.7319    0.7365 H   0  0  0  0  0  0  0  0  0  0  0  0
  1  2  3  0
  1  6  1  0
  2  3  1  0
  3  4  1  0
  3  5  1  0
  4  8  1  0
  4  9  1  0
  4 10  1  0
  5 11  1  0
  5 12  1  0
  5 13  1  0
  7 14  1  0
 14 15  1  0
 14 17  1  0
 14 18  1  0
 15 16  2  0
 15 19  1  0
M  RAD  1   3   2
M  END
>  <reaction>  (4) 
rxn_1326

>  <mol_properties>  (4) 
{"1": {"label": "*4", "atom_type": "Ct"}, "2": {"label": "*3", "atom_type": "Cs"}, "6": {"label": "*2", "atom_type": "H0"}, "13": {"label": "*1", "atom_type": "Cs"}, "14": {"label": "*0", "atom_type": "CS"}}

>  <type>  (4) 
ts

$$$$

     RDKit          3D

 19 17  0  0  0  0  0  0  0  0999 V2000
   -0.5841    1.4300   -3.1383 C   0  0  0  0  0  0  0  0  0  0  0  0
   -0.5841    1.4300   -1.9402 C   0  0  0  0  0  0  0  0  0  0  0  0
   -0.5841    1.4540   -0.4764 C   0  0  0  0  0  3  0  0  0  0  0  0
   -1.8502    2.1304    0.0580 C   0  0  0  0  0  0  0  0  0  0  0  0
    0.6820    2.1304    0.0580 C   0  0  0  0  0  0  0  0  0  0  0  0
   -0.5841    1.4300   -4.2016 H   0  0  0  0  0  0  0  0  0  0  0  0
   -0.5841    0.2053   -0.0685 H   0  0  0  0  0  0  0  0  0  0  0  0
   -2.7473    1.6311   -0.3080 H   0  0  0  0  0  0  0  0  0  0  0  0
   -1.8876    3.1740   -0.2596 H   0  0  0  0  0  0  0  0  0  0  0  0
   -1.8576    2.1024    1.1490 H   0  0  0  0  0  0  0  0  0  0  0  0
    0.7194    3.1739   -0.2596 H   0  0  0  0  0  0  0  0  0  0  0  0
    1.5790    1.6311   -0.3080 H   0  0  0  0  0  0  0  0  0  0  0  0
    0.6893    2.1024    1.1490 H   0  0  0  0  0  0  0  0  0  0  0  0
   -0.5842   -1.0430    0.3393 C   0  0  0  0  0  0  0  0  0  0  0  0
    0.6301   -1.2994    1.1605 C   0  0  0  0  0  0  0  0  0  0  0  0
    1.2652   -2.7359    1.4989 S   0  0  0  0  0  0  0  0  0  0  0  0
   -1.3211   -0.4956    0.9351 H   0  0  0  0  0  0  0  0  0  0  0  0
   -1.0242   -1.9672   -0.0295 H   0  0  0  0  0  0  0  0  0  0  0  0
    1.1099   -0.4017    1.5550 H   0  0  0  0  0  0  0  0  0  0  0  0
  1  2  3  0
  1  6  1  0
  2  3  1  0
  3  4  1  0
  3  5  1  0
  4  8  1  0
  4  9  1  0
  4 10  1  0
  5 11  1  0
  5 12  1  0
  5 13  1  0
  7 14  1  0
 14 15  1  0
 14 17  1  0
 14 18  1  0
 15 16  2  0
 15 19  1  0
M  RAD  1   3   2
M  END
>  <reaction>  (5) 
rxn_1326

>  <mol_properties>  (5) 
{"1": {"label": "*4", "atom_type": "Ct"}, "2": {"label": "*3", "atom_type": "Cs"}, "6": {"label": "*2", "atom_type": "H0"}, "13": {"label": "*1", "atom_type": "Cs"}, "14": {"label": "*0", "atom_type": "CS"}}

>  <type>  (5) 
unop_1

>  <geom_source>  (5) 
Heuristics

$$$$

     RDKit          3D

 19 17  0  0  0  0  0  0  0  0999 V2000
   -0.1434    1.6519   -2.2910 C   0  0  0  0  0  0  0  0  0  0  0  0
   -0.1434    1.6519   -1.0930 C   0  0  0  0  0  0  0  0  0  0  0  0
   -0.1434    1.6759    0.3709 C   0  0  0  0  0  3  0  0  0  0  0  0
   -1.4095    2.3523    0.9052 C   0  0  0  0  0  0  0  0  0  0  0  0
    1.1228    2.3523    0.9052 C   0  0  0  0  0  0  0  0  0  0  0  0
   -0.1434    1.6519   -3.3544 H   0  0  0  0  0  0  0  0  0  0  0  0
   -0.1434    0.4272    0.7787 H   0  0  0  0  0  0  0  0  0  0  0  0
   -2.3065    1.8530    0.5393 H   0  0  0  0  0  0  0  0  0  0  0  0
   -1.4468    3.3958    0.5877 H   0  0  0  0  0  0  0  0  0  0  0  0
   -1.4168    2.3243    1.9963 H   0  0  0  0  0  0  0  0  0  0  0  0
    1.1601    3.3958    0.5877 H   0  0  0  0  0  0  0  0  0  0  0  0
    2.0198    1.8530    0.5393 H   0  0  0  0  0  0  0  0  0  0  0  0
    1.1301    2.3243    1.9963 H   0  0  0  0  0  0  0  0  0  0  0  0
   -0.1434   -0.8211    1.1865 C   0  0  0  0  0  0  0  0  0  0  0  0
    0.5576   -1.6723    0.1872 C   0  0  0  0  0  0  0  0  0  0  0  0
    0.1192   -3.1440   -0.2853 S   0  0  0  0  0  0  0  0  0  0  0  0
    0.5428   -0.5720    2.0018 H   0  0  0  0  0  0  0  0  0  0  0  0
   -1.0262   -1.3144    1.5879 H   0  0  0  0  0  0  0  0  0  0  0  0
    1.4522   -1.2211   -0.2463 H   0  0  0  0  0  0  0  0  0  0  0  0
  1  2  3  0
  1  6  1  0
  2  3  1  0
  3  4  1  0
  3  5  1  0
  4  8  1  0
  4  9  1  0
  4 10  1  0
  5 11  1  0
  5 12  1  0
  5 13  1  0
  7 14  1  0
 14 15  1  0
 14 17  1  0
 14 18  1  0
 15 16  2  0
 15 19  1  0
M  RAD  1   3   2
M  END
>  <reaction>  (6) 
rxn_1326

>  <mol_properties>  (6) 
{"1": {"label": "*4", "atom_type": "Ct"}, "2": {"label": "*3", "atom_type": "Cs"}, "6": {"label": "*2", "atom_type": "H0"}, "13": {"label": "*1", "atom_type": "Cs"}, "14": {"label": "*0", "atom_type": "CS"}}

>  <type>  (6) 
unop_2

>  <geom_source>  (6) 
Heuristics

$$$$

     RDKit          3D

 19 17  0  0  0  0  0  0  0  0999 V2000
   -0.4483    1.3329   -3.3599 C   0  0  0  0  0  0  0  0  0  0  0  0
   -0.4483    1.3329   -2.1618 C   0  0  0  0  0  0  0  0  0  0  0  0
   -0.4483    1.3569   -0.6980 C   0  0  0  0  0  3  0  0  0  0  0  0
   -1.7144    2.0333   -0.1636 C   0  0  0  0  0  0  0  0  0  0  0  0
    0.8179    2.0333   -0.1636 C   0  0  0  0  0  0  0  0  0  0  0  0
   -0.4483    1.3329   -4.4232 H   0  0  0  0  0  0  0  0  0  0  0  0
   -0.4483    0.1082   -0.2901 H   0  0  0  0  0  0  0  0  0  0  0  0
   -2.6114    1.5340   -0.5296 H   0  0  0  0  0  0  0  0  0  0  0  0
   -1.7517    3.0768   -0.4812 H   0  0  0  0  0  0  0  0  0  0  0  0
   -1.7217    2.0053    0.9274 H   0  0  0  0  0  0  0  0  0  0  0  0
    0.8552    3.0768   -0.4812 H   0  0  0  0  0  0  0  0  0  0  0  0
    1.7149    1.5339   -0.5296 H   0  0  0  0  0  0  0  0  0  0  0  0
    0.8252    2.0053    0.9274 H   0  0  0  0  0  0  0  0  0  0  0  0
   -0.4483   -1.1402    0.1177 C   0  0  0  0  0  0  0  0  0  0  0  0
    0.2527   -1.2372    1.4268 C   0  0  0  0  0  0  0  0  0  0  0  0
    1.0805   -2.5015    1.9725 S   0  0  0  0  0  0  0  0  0  0  0  0
   -1.5093   -0.9301    0.2845 H   0  0  0  0  0  0  0  0  0  0  0  0
   -0.3423   -2.0526   -0.4652 H   0  0  0  0  0  0  0  0  0  0  0  0
    0.1760   -0.3447    2.0507 H   0  0  0  0  0  0  0  0  0  0  0  0
  1  2  3  0
  1  6  1  0
  2  3  1  0
  3  4  1  0
  3  5  1  0
  4  8  1  0
  4  9  1  0
  4 10  1  0
  5 11  1  0
  5 12  1  0
  5 13  1  0
  7 14  1  0
 14 15  1  0
 14 17  1  0
 14 18  1  0
 15 16  2  0
 15 19  1  0
M  RAD  1   3   2
M  END
>  <reaction>  (7) 
rxn_1326

>  <mol_properties>  (7) 
{"1": {"label": "*4", "atom_type": "Ct"}, "2": {"label": "*3", "atom_type": "Cs"}, "6": {"label": "*2", "atom_type": "H0"}, "13": {"label": "*1", "atom_type": "Cs"}, "14": {"label": "*0", "atom_type": "CS"}}

>  <type>  (7) 
unop_3

>  <geom_source>  (7) 
Heuristics

$$$$

     RDKit          3D

 19 17  0  0  0  0  0  0  0  0999 V2000
    0.7818    1.2573   -2.7630 C   0  0  0  0  0  0  0  0  0  0  0  0
    0.7818    1.2573   -1.5649 C   0  0  0  0  0  0  0  0  0  0  0  0
    0.7818    1.2812   -0.1011 C   0  0  0  0  0  3  0  0  0  0  0  0
   -0.4843    1.9577    0.4332 C   0  0  0  0  0  0  0  0  0  0  0  0
    2.0479    1.9576    0.4332 C   0  0  0  0  0  0  0  0  0  0  0  0
    0.7818    1.2573   -3.8263 H   0  0  0  0  0  0  0  0  0  0  0  0
    0.7818    0.0326    0.3068 H   0  0  0  0  0  0  0  0  0  0  0  0
   -1.3814    1.4584    0.0673 H   0  0  0  0  0  0  0  0  0  0  0  0
   -0.5216    3.0012    0.1157 H   0  0  0  0  0  0  0  0  0  0  0  0
   -0.4916    1.9297    1.5243 H   0  0  0  0  0  0  0  0  0  0  0  0
    2.0853    3.0012    0.1157 H   0  0  0  0  0  0  0  0  0  0  0  0
    2.9450    1.4583    0.0673 H   0  0  0  0  0  0  0  0  0  0  0  0
    2.0553    1.9296    1.5243 H   0  0  0  0  0  0  0  0  0  0  0  0
    0.7818   -1.2158    0.7145 C   0  0  0  0  0  0  0  0  0  0  0  0
   -0.4325   -1.9075    0.2030 C   0  0  0  0  0  0  0  0  0  0  0  0
   -1.8555   -2.0055    0.9425 S   0  0  0  0  0  0  0  0  0  0  0  0
    1.6079   -1.9299    0.7862 H   0  0  0  0  0  0  0  0  0  0  0  0
    0.6065   -0.7591    1.6863 H   0  0  0  0  0  0  0  0  0  0  0  0
   -0.3079   -2.3833   -0.7716 H   0  0  0  0  0  0  0  0  0  0  0  0
  1  2  3  0
  1  6  1  0
  2  3  1  0
  3  4  1  0
  3  5  1  0
  4  8  1  0
  4  9  1  0
  4 10  1  0
  5 11  1  0
  5 12  1  0
  5 13  1  0
  7 14  1  0
 14 15  1  0
 14 17  1  0
 14 18  1  0
 15 16  2  0
 15 19  1  0
M  RAD  1   3   2
M  END
>  <reaction>  (8) 
rxn_1326

>  <mol_properties>  (8) 
{"1": {"label": "*4", "atom_type": "Ct"}, "2": {"label": "*3", "atom_type": "Cs"}, "6": {"label": "*2", "atom_type": "H0"}, "13": {"label": "*1", "atom_type": "Cs"}, "14": {"label": "*0", "atom_type": "CS"}}

>  <type>  (8) 
unop_4

>  <geom_source>  (8) 
Heuristics

$$$$

     RDKit          3D

 19 17  0  0  0  0  0  0  0  0999 V2000
   -0.2694    1.1771   -3.5167 C   0  0  0  0  0  0  0  0  0  0  0  0
   -0.2694    1.1771   -2.3186 C   0  0  0  0  0  0  0  0  0  0  0  0
   -0.2694    1.2011   -0.8548 C   0  0  0  0  0  3  0  0  0  0  0  0
   -1.5356    1.8775   -0.3204 C   0  0  0  0  0  0  0  0  0  0  0  0
    0.9967    1.8775   -0.3204 C   0  0  0  0  0  0  0  0  0  0  0  0
   -0.2694    1.1771   -4.5800 H   0  0  0  0  0  0  0  0  0  0  0  0
   -0.2695   -0.0476   -0.4469 H   0  0  0  0  0  0  0  0  0  0  0  0
   -2.4326    1.3782   -0.6863 H   0  0  0  0  0  0  0  0  0  0  0  0
   -1.5729    2.9210   -0.6379 H   0  0  0  0  0  0  0  0  0  0  0  0
   -1.5429    1.8495    0.7706 H   0  0  0  0  0  0  0  0  0  0  0  0
    1.0341    2.9210   -0.6379 H   0  0  0  0  0  0  0  0  0  0  0  0
    1.8937    1.3782   -0.6863 H   0  0  0  0  0  0  0  0  0  0  0  0
    1.0040    1.8495    0.7706 H   0  0  0  0  0  0  0  0  0  0  0  0
   -0.2695   -1.2960   -0.0391 C   0  0  0  0  0  0  0  0  0  0  0  0
   -0.2695   -1.3347    1.4486 C   0  0  0  0  0  0  0  0  0  0  0  0
    0.8300   -2.0414    2.3829 S   0  0  0  0  0  0  0  0  0  0  0  0
   -1.1933   -1.7441   -0.4177 H   0  0  0  0  0  0  0  0  0  0  0  0
    0.5891   -1.8180   -0.4561 H   0  0  0  0  0  0  0  0  0  0  0  0
   -1.1129   -0.8234    1.9165 H   0  0  0  0  0  0  0  0  0  0  0  0
  1  2  3  0
  1  6  1  0
  2  3  1  0
  3  4  1  0
  3  5  1  0
  4  8  1  0
  4  9  1  0
  4 10  1  0
  5 11  1  0
  5 12  1  0
  5 13  1  0
  7 14  1  0
 14 15  1  0
 14 17  1  0
 14 18  1  0
 15 16  2  0
 15 19  1  0
M  RAD  1   3   2
M  END
>  <reaction>  (9) 
rxn_1326

>  <mol_properties>  (9) 
{"1": {"label": "*4", "atom_type": "Ct"}, "2": {"label": "*3", "atom_type": "Cs"}, "6": {"label": "*2", "atom_type": "H0"}, "13": {"label": "*1", "atom_type": "Cs"}, "14": {"label": "*0", "atom_type": "CS"}}

>  <type>  (9) 
unop_5

>  <geom_source>  (9) 
Heuristics

$$$$

     RDKit          3D

 19 17  0  0  0  0  0  0  0  0999 V2000
    0.7309    1.0965   -3.1313 C   0  0  0  0  0  0  0  0  0  0  0  0
    0.7309    1.0965   -1.9332 C   0  0  0  0  0  0  0  0  0  0  0  0
    0.7309    1.1204   -0.4694 C   0  0  0  0  0  3  0  0  0  0  0  0
   -0.5352    1.7969    0.0649 C   0  0  0  0  0  0  0  0  0  0  0  0
    1.9970    1.7968    0.0649 C   0  0  0  0  0  0  0  0  0  0  0  0
    0.7309    1.0965   -4.1947 H   0  0  0  0  0  0  0  0  0  0  0  0
    0.7309   -0.1283   -0.0616 H   0  0  0  0  0  0  0  0  0  0  0  0
   -1.4323    1.2976   -0.3010 H   0  0  0  0  0  0  0  0  0  0  0  0
   -0.5726    2.8404   -0.2526 H   0  0  0  0  0  0  0  0  0  0  0  0
   -0.5426    1.7689    1.1560 H   0  0  0  0  0  0  0  0  0  0  0  0
    2.0344    2.8403   -0.2526 H   0  0  0  0  0  0  0  0  0  0  0  0
    2.8940    1.2975   -0.3010 H   0  0  0  0  0  0  0  0  0  0  0  0
    2.0043    1.7688    1.1560 H   0  0  0  0  0  0  0  0  0  0  0  0
    0.7308   -1.3766    0.3462 C   0  0  0  0  0  0  0  0  0  0  0  0
   -0.6713   -1.8507    0.5011 C   0  0  0  0  0  0  0  0  0  0  0  0
   -1.6224   -1.6116    1.7737 S   0  0  0  0  0  0  0  0  0  0  0  0
    1.3904   -2.2325    0.1727 H   0  0  0  0  0  0  0  0  0  0  0  0
    1.0688   -0.8245    1.2207 H   0  0  0  0  0  0  0  0  0  0  0  0
   -1.0582   -2.4116   -0.3518 H   0  0  0  0  0  0  0  0  0  0  0  0
  1  2  3  0
  1  6  1  0
  2  3  1  0
  3  4  1  0
  3  5  1  0
  4  8  1  0
  4  9  1  0
  4 10  1  0
  5 11  1  0
  5 12  1  0
  5 13  1  0
  7 14  1  0
 14 15  1  0
 14 17  1  0
 14 18  1  0
 15 16  2  0
 15 19  1  0
M  RAD  1   3   2
M  END
>  <reaction>  (10) 
rxn_1326

>  <mol_properties>  (10) 
{"1": {"label": "*4", "atom_type": "Ct"}, "2": {"label": "*3", "atom_type": "Cs"}, "6": {"label": "*2", "atom_type": "H0"}, "13": {"label": "*1", "atom_type": "Cs"}, "14": {"label": "*0", "atom_type": "CS"}}

>  <type>  (10) 
unop_6

>  <geom_source>  (10) 
Heuristics

$$$$

     RDKit          3D

 19 17  0  0  0  0  0  0  0  0999 V2000
    0.4731    0.9960   -3.4379 C   0  0  0  0  0  0  0  0  0  0  0  0
    0.4731    0.9960   -2.2398 C   0  0  0  0  0  0  0  0  0  0  0  0
    0.4731    1.0200   -0.7760 C   0  0  0  0  0  3  0  0  0  0  0  0
   -0.7930    1.6965   -0.2417 C   0  0  0  0  0  0  0  0  0  0  0  0
    1.7393    1.6964   -0.2417 C   0  0  0  0  0  0  0  0  0  0  0  0
    0.4731    0.9960   -4.5012 H   0  0  0  0  0  0  0  0  0  0  0  0
    0.4731   -0.2287   -0.3681 H   0  0  0  0  0  0  0  0  0  0  0  0
   -1.6900    1.1972   -0.6076 H   0  0  0  0  0  0  0  0  0  0  0  0
   -0.8303    2.7400   -0.5592 H   0  0  0  0  0  0  0  0  0  0  0  0
   -0.8003    1.6685    0.8494 H   0  0  0  0  0  0  0  0  0  0  0  0
    1.7766    2.7399   -0.5592 H   0  0  0  0  0  0  0  0  0  0  0  0
    2.6363    1.1971   -0.6076 H   0  0  0  0  0  0  0  0  0  0  0  0
    1.7466    1.6684    0.8494 H   0  0  0  0  0  0  0  0  0  0  0  0
    0.4731   -1.4770    0.0396 C   0  0  0  0  0  0  0  0  0  0  0  0
   -0.7411   -1.7334    0.8609 C   0  0  0  0  0  0  0  0  0  0  0  0
   -0.9233   -1.3991    2.4218 S   0  0  0  0  0  0  0  0  0  0  0  0
    0.8294   -2.4175   -0.3918 H   0  0  0  0  0  0  0  0  0  0  0  0
    1.2668   -1.0184    0.6256 H   0  0  0  0  0  0  0  0  0  0  0  0
   -1.5684   -2.1940    0.3175 H   0  0  0  0  0  0  0  0  0  0  0  0
  1  2  3  0
  1  6  1  0
  2  3  1  0
  3  4  1  0
  3  5  1  0
  4  8  1  0
  4  9  1  0
  4 10  1  0
  5 11  1  0
  5 12  1  0
  5 13  1  0
  7 14  1  0
 14 15  1  0
 14 17  1  0
 14 18  1  0
 15 16  2  0
 15 19  1  0
M  RAD  1   3   2
M  END
>  <reaction>  (11) 
rxn_1326

>  <mol_properties>  (11) 
{"1": {"label": "*4", "atom_type": "Ct"}, "2": {"label": "*3", "atom_type": "Cs"}, "6": {"label": "*2", "atom_type": "H0"}, "13": {"label": "*1", "atom_type": "Cs"}, "14": {"label": "*0", "atom_type": "CS"}}

>  <type>  (11) 
unop_7

>  <geom_source>  (11) 
Heuristics

$$$$

     RDKit          3D

 19 17  0  0  0  0  0  0  0  0999 V2000
   -0.6173    1.5300   -2.8320 C   0  0  0  0  0  0  0  0  0  0  0  0
   -0.6173    1.5300   -1.6339 C   0  0  0  0  0  0  0  0  0  0  0  0
   -0.6173    1.5540   -0.1701 C   0  0  0  0  0  3  0  0  0  0  0  0
   -1.8834    2.2304    0.3642 C   0  0  0  0  0  0  0  0  0  0  0  0
    0.6488    2.2304    0.3642 C   0  0  0  0  0  0  0  0  0  0  0  0
   -0.6173    1.5300   -3.8953 H   0  0  0  0  0  0  0  0  0  0  0  0
   -0.6173    0.3053    0.2378 H   0  0  0  0  0  0  0  0  0  0  0  0
   -2.7805    1.7311   -0.0017 H   0  0  0  0  0  0  0  0  0  0  0  0
   -1.9208    3.2739    0.0467 H   0  0  0  0  0  0  0  0  0  0  0  0
   -1.8908    2.2024    1.4553 H   0  0  0  0  0  0  0  0  0  0  0  0
    0.6862    3.2739    0.0467 H   0  0  0  0  0  0  0  0  0  0  0  0
    1.5459    1.7310   -0.0017 H   0  0  0  0  0  0  0  0  0  0  0  0
    0.6562    2.2024    1.4553 H   0  0  0  0  0  0  0  0  0  0  0  0
   -0.6173   -0.9431    0.6455 C   0  0  0  0  0  0  0  0  0  0  0  0
    0.7847   -1.4172    0.8004 C   0  0  0  0  0  0  0  0  0  0  0  0
    1.2727   -2.9471    0.8517 S   0  0  0  0  0  0  0  0  0  0  0  0
   -0.8876   -0.3126    1.4983 H   0  0  0  0  0  0  0  0  0  0  0  0
   -1.3171   -1.7724    0.5662 H   0  0  0  0  0  0  0  0  0  0  0  0
    1.5270   -0.6211    0.8844 H   0  0  0  0  0  0  0  0  0  0  0  0
  1  2  3  0
  1  6  1  0
  2  3  1  0
  3  4  1  0
  3  5  1  0
  4  8  1  0
  4  9  1  0
  4 10  1  0
  5 11  1  0
  5 12  1  0
  5 13  1  0
  7 14  1  0
 14 15  1  0
 14 17  1  0
 14 18  1  0
 15 16  2  0
 15 19  1  0
M  RAD  1   3   2
M  END
>  <reaction>  (12) 
rxn_1326

>  <mol_properties>  (12) 
{"1": {"label": "*4", "atom_type": "Ct"}, "2": {"label": "*3", "atom_type": "Cs"}, "6": {"label": "*2", "atom_type": "H0"}, "13": {"label": "*1", "atom_type": "Cs"}, "14": {"label": "*0", "atom_type": "CS"}}

>  <type>  (12) 
unop_8

>  <geom_source>  (12) 
Heuristics

$$$$

     RDKit          3D

 19 17  0  0  0  0  0  0  0  0999 V2000
    0.6151    1.4374   -2.4392 C   0  0  0  0  0  0  0  0  0  0  0  0
    0.6151    1.4374   -1.2411 C   0  0  0  0  0  0  0  0  0  0  0  0
    0.6151    1.4613    0.2227 C   0  0  0  0  0  3  0  0  0  0  0  0
   -0.6510    2.1378    0.7571 C   0  0  0  0  0  0  0  0  0  0  0  0
    1.8812    2.1377    0.7571 C   0  0  0  0  0  0  0  0  0  0  0  0
    0.6151    1.4374   -3.5025 H   0  0  0  0  0  0  0  0  0  0  0  0
    0.6150    0.2126    0.6306 H   0  0  0  0  0  0  0  0  0  0  0  0
   -1.5481    1.6385    0.3911 H   0  0  0  0  0  0  0  0  0  0  0  0
   -0.6884    3.1813    0.4395 H   0  0  0  0  0  0  0  0  0  0  0  0
   -0.6584    2.1098    1.8481 H   0  0  0  0  0  0  0  0  0  0  0  0
    1.9186    3.1812    0.4395 H   0  0  0  0  0  0  0  0  0  0  0  0
    2.7782    1.6384    0.3911 H   0  0  0  0  0  0  0  0  0  0  0  0
    1.8885    2.1097    1.8481 H   0  0  0  0  0  0  0  0  0  0  0  0
    0.6150   -1.0357    1.0384 C   0  0  0  0  0  0  0  0  0  0  0  0
   -0.0860   -1.8868    0.0390 C   0  0  0  0  0  0  0  0  0  0  0  0
   -1.5721   -2.4831    0.1710 S   0  0  0  0  0  0  0  0  0  0  0  0
    1.5459   -1.5221    1.3458 H   0  0  0  0  0  0  0  0  0  0  0  0
   -0.0051   -0.8453    1.9118 H   0  0  0  0  0  0  0  0  0  0  0  0
    0.4957   -2.1072   -0.8581 H   0  0  0  0  0  0  0  0  0  0  0  0
  1  2  3  0
  1  6  1  0
  2  3  1  0
  3  4  1  0
  3  5  1  0
  4  8  1  0
  4  9  1  0
  4 10  1  0
  5 11  1  0
  5 12  1  0
  5 13  1  0
  7 14  1  0
 14 15  1  0
 14 17  1  0
 14 18  1  0
 15 16  2  0
 15 19  1  0
M  RAD  1   3   2
M  END
>  <reaction>  (13) 
rxn_1326

>  <mol_properties>  (13) 
{"1": {"label": "*4", "atom_type": "Ct"}, "2": {"label": "*3", "atom_type": "Cs"}, "6": {"label": "*2", "atom_type": "H0"}, "13": {"label": "*1", "atom_type": "Cs"}, "14": {"label": "*0", "atom_type": "CS"}}

>  <type>  (13) 
unop_9

>  <geom_source>  (13) 
Heuristics

$$$$

     RDKit          3D

 19 17  0  0  0  0  0  0  0  0999 V2000
   -0.4703    1.6192   -2.5131 C   0  0  0  0  0  0  0  0  0  0  0  0
   -0.4703    1.6192   -1.3151 C   0  0  0  0  0  0  0  0  0  0  0  0
   -0.4703    1.6432    0.1487 C   0  0  0  0  0  3  0  0  0  0  0  0
   -1.7364    2.3196    0.6831 C   0  0  0  0  0  0  0  0  0  0  0  0
    0.7958    2.3196    0.6831 C   0  0  0  0  0  0  0  0  0  0  0  0
   -0.4703    1.6192   -3.5765 H   0  0  0  0  0  0  0  0  0  0  0  0
   -0.4703    0.3945    0.5566 H   0  0  0  0  0  0  0  0  0  0  0  0
   -2.6335    1.8203    0.3172 H   0  0  0  0  0  0  0  0  0  0  0  0
   -1.7737    3.3631    0.3656 H   0  0  0  0  0  0  0  0  0  0  0  0
   -1.7437    2.2916    1.7742 H   0  0  0  0  0  0  0  0  0  0  0  0
    0.8332    3.3631    0.3656 H   0  0  0  0  0  0  0  0  0  0  0  0
    1.6929    1.8203    0.3172 H   0  0  0  0  0  0  0  0  0  0  0  0
    0.8032    2.2916    1.7742 H   0  0  0  0  0  0  0  0  0  0  0  0
   -0.4703   -0.8538    0.9644 C   0  0  0  0  0  0  0  0  0  0  0  0
    0.7439   -1.5456    0.4529 C   0  0  0  0  0  0  0  0  0  0  0  0
    0.8960   -3.1204    0.1728 S   0  0  0  0  0  0  0  0  0  0  0  0
   -0.2287   -0.3271    1.8927 H   0  0  0  0  0  0  0  0  0  0  0  0
   -1.2875   -1.5504    1.1400 H   0  0  0  0  0  0  0  0  0  0  0  0
    1.5942   -0.8886    0.2604 H   0  0  0  0  0  0  0  0  0  0  0  0
  1  2  3  0
  1  6  1  0
  2  3  1  0
  3  4  1  0
  3  5  1  0
  4  8  1  0
  4  9  1  0
  4 10  1  0
  5 11  1  0
  5 12  1  0
  5 13  1  0
  7 14  1  0
 14 15  1  0
 14 17  1  0
 14 18  1  0
 15 16  2  0
 15 19  1  0
M  RAD  1   3   2
M  END
>  <reaction>  (14) 
rxn_1326

>  <mol_properties>  (14) 
{"1": {"label": "*4", "atom_type": "Ct"}, "2": {"label": "*3", "atom_type": "Cs"}, "6": {"label": "*2", "atom_type": "H0"}, "13": {"label": "*1", "atom_type": "Cs"}, "14": {"label": "*0", "atom_type": "CS"}}

>  <type>  (14) 
unop_10

>  <geom_source>  (14) 
Heuristics

$$$$

     RDKit          3D

 19 17  0  0  0  0  0  0  0  0999 V2000
    0.0777    1.0109   -3.5822 C   0  0  0  0  0  0  0  0  0  0  0  0
    0.0777    1.0109   -2.3841 C   0  0  0  0  0  0  0  0  0  0  0  0
    0.0777    1.0348   -0.9203 C   0  0  0  0  0  3  0  0  0  0  0  0
   -1.1884    1.7113   -0.3860 C   0  0  0  0  0  0  0  0  0  0  0  0
    1.3439    1.7113   -0.3860 C   0  0  0  0  0  0  0  0  0  0  0  0
    0.0777    1.0109   -4.6455 H   0  0  0  0  0  0  0  0  0  0  0  0
    0.0777   -0.2138   -0.5124 H   0  0  0  0  0  0  0  0  0  0  0  0
   -2.0854    1.2120   -0.7519 H   0  0  0  0  0  0  0  0  0  0  0  0
   -1.2257    2.7548   -0.7035 H   0  0  0  0  0  0  0  0  0  0  0  0
   -1.1957    1.6833    0.7051 H   0  0  0  0  0  0  0  0  0  0  0  0
    1.3812    2.7548   -0.7035 H   0  0  0  0  0  0  0  0  0  0  0  0
    2.2409    1.2119   -0.7519 H   0  0  0  0  0  0  0  0  0  0  0  0
    1.3512    1.6833    0.7051 H   0  0  0  0  0  0  0  0  0  0  0  0
    0.0777   -1.4622   -0.1046 C   0  0  0  0  0  0  0  0  0  0  0  0
   -0.6233   -1.5592    1.2044 C   0  0  0  0  0  0  0  0  0  0  0  0
    0.0609   -1.5096    2.6573 S   0  0  0  0  0  0  0  0  0  0  0  0
   -0.1318   -2.3562   -0.7001 H   0  0  0  0  0  0  0  0  0  0  0  0
    1.1524   -1.3486    0.0208 H   0  0  0  0  0  0  0  0  0  0  0  0
   -1.7065   -1.6745    1.1325 H   0  0  0  0  0  0  0  0  0  0  0  0
  1  2  3  0
  1  6  1  0
  2  3  1  0
  3  4  1  0
  3  5  1  0
  4  8  1  0
  4  9  1  0
  4 10  1  0
  5 11  1  0
  5 12  1  0
  5 13  1  0
  7 14  1  0
 14 15  1  0
 14 17  1  0
 14 18  1  0
 15 16  2  0
 15 19  1  0
M  RAD  1   3   2
M  END
>  <reaction>  (15) 
rxn_1326

>  <mol_properties>  (15) 
{"1": {"label": "*4", "atom_type": "Ct"}, "2": {"label": "*3", "atom_type": "Cs"}, "6": {"label": "*2", "atom_type": "H0"}, "13": {"label": "*1", "atom_type": "Cs"}, "14": {"label": "*0", "atom_type": "CS"}}

>  <type>  (15) 
unop_11

>  <geom_source>  (15) 
Heuristics

$$$$

     RDKit          3D

 19 17  0  0  0  0  0  0  0  0999 V2000
    0.2695    1.5876   -2.2599 C   0  0  0  0  0  0  0  0  0  0  0  0
    0.2695    1.5876   -1.0619 C   0  0  0  0  0  0  0  0  0  0  0  0
    0.2695    1.6116    0.4020 C   0  0  0  0  0  3  0  0  0  0  0  0
   -0.9966    2.2880    0.9363 C   0  0  0  0  0  0  0  0  0  0  0  0
    1.5356    2.2880    0.9363 C   0  0  0  0  0  0  0  0  0  0  0  0
    0.2695    1.5876   -3.3233 H   0  0  0  0  0  0  0  0  0  0  0  0
    0.2695    0.3629    0.8098 H   0  0  0  0  0  0  0  0  0  0  0  0
   -1.8937    1.7887    0.5704 H   0  0  0  0  0  0  0  0  0  0  0  0
   -1.0340    3.3315    0.6188 H   0  0  0  0  0  0  0  0  0  0  0  0
   -1.0040    2.2600    2.0274 H   0  0  0  0  0  0  0  0  0  0  0  0
    1.5730    3.3315    0.6188 H   0  0  0  0  0  0  0  0  0  0  0  0
    2.4327    1.7887    0.5704 H   0  0  0  0  0  0  0  0  0  0  0  0
    1.5429    2.2600    2.0274 H   0  0  0  0  0  0  0  0  0  0  0  0
    0.2694   -0.8854    1.2176 C   0  0  0  0  0  0  0  0  0  0  0  0
    0.2694   -1.7949    0.0397 C   0  0  0  0  0  0  0  0  0  0  0  0
   -0.8301   -2.9169   -0.2973 S   0  0  0  0  0  0  0  0  0  0  0  0
    1.1933   -1.0237    1.7878 H   0  0  0  0  0  0  0  0  0  0  0  0
   -0.5892   -1.0606    1.8624 H   0  0  0  0  0  0  0  0  0  0  0  0
    1.1129   -1.6584   -0.6398 H   0  0  0  0  0  0  0  0  0  0  0  0
  1  2  3  0
  1  6  1  0
  2  3  1  0
  3  4  1  0
  3  5  1  0
  4  8  1  0
  4  9  1  0
  4 10  1  0
  5 11  1  0
  5 12  1  0
  5 13  1  0
  7 14  1  0
 14 15  1  0
 14 17  1  0
 14 18  1  0
 15 16  2  0
 15 19  1  0
M  RAD  1   3   2
M  END
>  <reaction>  (16) 
rxn_1326

>  <mol_properties>  (16) 
{"1": {"label": "*4", "atom_type": "Ct"}, "2": {"label": "*3", "atom_type": "Cs"}, "6": {"label": "*2", "atom_type": "H0"}, "13": {"label": "*1", "atom_type": "Cs"}, "14": {"label": "*0", "atom_type": "CS"}}

>  <type>  (16) 
unop_12

>  <geom_source>  (16) 
Heuristics

$$$$

     RDKit          3D

 19 17  0  0  0  0  0  0  0  0999 V2000
    3.3138   -0.6316    1.0193 S   0  0  0  0  0  0  0  0  0  0  0  0
   -1.4290    0.1077   -1.3190 C   0  0  0  0  0  0  0  0  0  0  0  0
   -0.8624   -1.6523    0.4030 C   0  0  0  0  0  0  0  0  0  0  0  0
    1.7108    0.4511   -0.6354 C   0  0  0  0  0  0  0  0  0  0  0  0
   -0.7174   -0.1854    0.0010 C   0  0  0  0  0  3  0  0  0  0  0  0
    2.8606    0.5355    0.3174 C   0  0  0  0  0  0  0  0  0  0  0  0
   -1.2212    0.6946    1.0661 C   0  0  0  0  0  0  0  0  0  0  0  0
   -1.6334    1.4164    1.9395 C   0  0  0  0  0  0  0  0  0  0  0  0
    1.4965    1.4581   -1.0505 H   0  0  0  0  0  0  0  0  0  0  0  0
    1.9563   -0.2349   -1.4742 H   0  0  0  0  0  0  0  0  0  0  0  0
    0.6485    0.0182   -0.0164 H   0  0  0  0  0  0  0  0  0  0  0  0
   -2.5195   -0.0900   -1.2315 H   0  0  0  0  0  0  0  0  0  0  0  0
   -1.2742    1.1698   -1.6051 H   0  0  0  0  0  0  0  0  0  0  0  0
   -1.0088   -0.5311   -2.1242 H   0  0  0  0  0  0  0  0  0  0  0  0
   -0.4379   -2.3045   -0.3891 H   0  0  0  0  0  0  0  0  0  0  0  0
   -0.3039   -1.8442    1.3439 H   0  0  0  0  0  0  0  0  0  0  0  0
   -1.9317   -1.9158    0.5549 H   0  0  0  0  0  0  0  0  0  0  0  0
    3.3481    1.4886    0.4944 H   0  0  0  0  0  0  0  0  0  0  0  0
   -1.9953    2.0499    2.7061 H   0  0  0  0  0  0  0  0  0  0  0  0
  1  6  2  0
  2  5  1  0
  2 12  1  0
  2 13  1  0
  2 14  1  0
  3  5  1  0
  3 15  1  0
  3 16  1  0
  3 17  1  0
  4  6  1  0
  4  9  1  0
  4 10  1  0
  4 11  1  0
  5  7  1  0
  6 18  1  0
  7  8  3  0
  8 19  1  0
M  RAD  1   5   2
M  END
>  <reaction>  (17) 
rxn_1326

>  <mol_properties>  (17) 
{"1": {"label": "*4", "atom_type": "Ct"}, "2": {"label": "*3", "atom_type": "Cs"}, "6": {"label": "*2", "atom_type": "H0"}, "13": {"label": "*1", "atom_type": "Cs"}, "14": {"label": "*0", "atom_type": "CS"}}

>  <type>  (17) 
unop_13

>  <geom_source>  (17) 
AutoTST

$$$$

     RDKit          3D

 19 17  0  0  0  0  0  0  0  0999 V2000
   -0.1434    1.6519   -2.2910 C   0  0  0  0  0  0  0  0  0  0  0  0
   -0.1434    1.6519   -1.0930 C   0  0  0  0  0  0  0  0  0  0  0  0
   -0.1434    1.6759    0.3709 C   0  0  0  0  0  3  0  0  0  0  0  0
   -1.4095    2.3523    0.9052 C   0  0  0  0  0  0  0  0  0  0  0  0
    1.1228    2.3523    0.9052 C   0  0  0  0  0  0  0  0  0  0  0  0
   -0.1434    1.6519   -3.3544 H   0  0  0  0  0  0  0  0  0  0  0  0
   -0.1434    0.4272    0.7787 H   0  0  0  0  0  0  0  0  0  0  0  0
   -2.3065    1.8530    0.5393 H   0  0  0  0  0  0  0  0  0  0  0  0
   -1.4468    3.3958    0.5877 H   0  0  0  0  0  0  0  0  0  0  0  0
   -1.4168    2.3243    1.9963 H   0  0  0  0  0  0  0  0  0  0  0  0
    1.1601    3.3958    0.5877 H   0  0  0  0  0  0  0  0  0  0  0  0
    2.0198    1.8530    0.5393 H   0  0  0  0  0  0  0  0  0  0  0  0
    1.1301    2.3243    1.9963 H   0  0  0  0  0  0  0  0  0  0  0  0
   -0.1434   -0.8211    1.1865 C   0  0  0  0  0  0  0  0  0  0  0  0
    0.5576   -1.6723    0.1872 C   0  0  0  0  0  0  0  0  0  0  0  0
    0.1192   -3.1440   -0.2853 S   0  0  0  0  0  0  0  0  0  0  0  0
    0.5428   -0.5720    2.0018 H   0  0  0  0  0  0  0  0  0  0  0  0
   -1.0261   -1.3144    1.5879 H   0  0  0  0  0  0  0  0  0  0  0  0
    1.4522   -1.2211   -0.2463 H   0  0  0  0  0  0  0  0  0  0  0  0
  1  2  3  0
  1  6  1  0
  2  3  1  0
  3  4  1  0
  3  5  1  0
  4  8  1  0
  4  9  1  0
  4 10  1  0
  5 11  1  0
  5 12  1  0
  5 13  1  0
  7 14  1  0
 14 15  1  0
 14 17  1  0
 14 18  1  0
 15 16  2  0
 15 19  1  0
M  RAD  1   3   2
M  END
>  <reaction>  (18) 
rxn_1326

>  <mol_properties>  (18) 
{"1": {"label": "*4", "atom_type": "Ct"}, "2": {"label": "*3", "atom_type": "Cs"}, "6": {"label": "*2", "atom_type": "H0"}, "13": {"label": "*1", "atom_type": "Cs"}, "14": {"label": "*0", "atom_type": "CS"}}

>  <type>  (18) 
unop_14

>  <geom_source>  (18) 
gaussian_log

$$$$
