
     RDKit          3D

 10  9  0  0  0  0  0  0  0  0999 V2000
    1.8334    0.0847   -0.1062 C   0  0  0  0  0  0  0  0  0  0  0  0
    0.5993   -0.4071   -0.0750 C   0  0  0  0  0  0  0  0  0  0  0  0
   -0.5993    0.4071    0.0750 C   0  0  0  0  0  0  0  0  0  0  0  0
   -1.8334   -0.0847    0.1062 C   0  0  0  0  0  0  0  0  0  0  0  0
    2.0179    1.1498   -0.0189 H   0  0  0  0  0  0  0  0  0  0  0  0
    2.6972   -0.5572   -0.2194 H   0  0  0  0  0  0  0  0  0  0  0  0
    0.4465   -1.4793   -0.1649 H   0  0  0  0  0  0  0  0  0  0  0  0
   -0.4465    1.4793    0.1649 H   0  0  0  0  0  0  0  0  0  0  0  0
   -2.0179   -1.1498    0.0189 H   0  0  0  0  0  0  0  0  0  0  0  0
   -2.6972    0.5572    0.2194 H   0  0  0  0  0  0  0  0  0  0  0  0
  1  2  2  3
  1  5  1  0
  1  6  1  0
  2  3  1  0
  2  7  1  0
  3  4  2  3
  3  8  1  0
  4  9  1  0
  4 10  1  0
M  END
>  <reaction>  (1) 
rxn_1647

>  <mol_properties>  (1) 
{"2": {"label": "donator", "atom_type": "Cd"}, "7": {"label": "d_hydrogen", "atom_type": "H0"}}

>  <type>  (1) 
r1h

$$$$

     RDKit          3D

  4  3  0  0  0  0  0  0  0  0999 V2000
    0.0000    0.0000    0.0000 C   0  0  0  0  0  3  0  0  0  0  0  0
    1.0638   -0.1747    0.0540 H   0  0  0  0  0  0  0  0  0  0  0  0
   -0.6833   -0.8351   -0.0280 H   0  0  0  0  0  0  0  0  0  0  0  0
   -0.3805    1.0098   -0.0260 H   0  0  0  0  0  0  0  0  0  0  0  0
  1  2  1  0
  1  3  1  0
  1  4  1  0
M  RAD  1   1   2
M  END
>  <reaction>  (2) 
rxn_1647

>  <mol_properties>  (2) 
{"0": {"label": "acceptor", "atom_type": "Cs"}}

>  <type>  (2) 
r2

$$$$

     RDKit          3D

  5  4  0  0  0  0  0  0  0  0999 V2000
    0.0000    0.0000    0.0000 C   0  0  0  0  0  0  0  0  0  0  0  0
   -0.6486   -0.7720   -0.4113 H   0  0  0  0  0  0  0  0  0  0  0  0
   -0.3482    0.9787   -0.3267 H   0  0  0  0  0  0  0  0  0  0  0  0
   -0.0223   -0.0487    1.0876 H   0  0  0  0  0  0  0  0  0  0  0  0
    1.0191   -0.1580   -0.3496 H   0  0  0  0  0  0  0  0  0  0  0  0
  1  2  1  0
  1  3  1  0
  1  4  1  0
  1  5  1  0
M  END
>  <reaction>  (3) 
rxn_1647

>  <mol_properties>  (3) 
{"0": {"label": "acceptor", "atom_type": "Cs"}, "4": {"label": "a_hydrogen", "atom_type": "H0"}}

>  <type>  (3) 
r2h

$$$$

     RDKit          3D

 14 12  0  0  0  0  0  0  0  0999 V2000
    0.0140    2.2820   -0.5613 C   0  0  0  0  0  0  0  0  0  0  0  0
    0.9394    2.3212   -1.1293 H   0  0  0  0  0  0  0  0  0  0  0  0
   -0.0108    2.9853    0.2663 H   0  0  0  0  0  0  0  0  0  0  0  0
   -0.8769    2.3190   -1.1819 H   0  0  0  0  0  0  0  0  0  0  0  0
    0.0475   -1.1901   -1.5713 C   0  0  0  0  0  0  0  0  0  0  0  0
    0.0090   -1.2560   -0.2443 C   0  0  0  0  0  0  0  0  0  0  0  0
   -0.0178   -0.1059    0.6339 C   0  0  0  0  0  3  0  0  0  0  0  0
   -0.0561   -0.0660    1.9529 C   0  0  0  0  0  0  0  0  0  0  0  0
    0.0613   -0.2374   -2.0874 H   0  0  0  0  0  0  0  0  0  0  0  0
    0.0662   -2.0849   -2.1792 H   0  0  0  0  0  0  0  0  0  0  0  0
   -0.0039   -2.2305    0.2433 H   0  0  0  0  0  0  0  0  0  0  0  0
   -0.0011    1.0877    0.0077 H   0  0  0  0  0  0  0  0  0  0  0  0
   -0.0723   -0.9761    2.5489 H   0  0  0  0  0  0  0  0  0  0  0  0
   -0.0729    0.8736    2.4929 H   0  0  0  0  0  0  0  0  0  0  0  0
  1  2  1  0
  1  3  1  0
  1  4  1  0
  1 12  1  0
  5  6  2  3
  5  9  1  0
  5 10  1  0
  6  7  1  0
  6 11  1  0
  7  8  2  3
  8 13  1  0
  8 14  1  0
M  RAD  1   7   2
M  END
>  <reaction>  (4) 
rxn_1647

>  <mol_properties>  (4) 
{"0": {"label": "*1", "atom_type": "Cs"}, "1": {"label": "*0", "atom_type": "H0"}, "5": {"label": "*4", "atom_type": "Cd"}, "6": {"label": "*3", "atom_type": "Cd"}, "11": {"label": "*2", "atom_type": "H0"}}

>  <type>  (4) 
ts

$$$$

     RDKit          3D

 14 12  0  0  0  0  0  0  0  0999 V2000
   -0.0020    2.2288   -0.6906 C   0  0  0  0  0  3  0  0  0  0  0  0
   -0.8912    2.7979   -0.4235 H   0  0  0  0  0  0  0  0  0  0  0  0
    0.3882    2.5899   -1.6409 H   0  0  0  0  0  0  0  0  0  0  0  0
    0.6371    2.4789    0.1548 H   0  0  0  0  0  0  0  0  0  0  0  0
   -0.0020   -1.2487   -1.5456 C   0  0  0  0  0  0  0  0  0  0  0  0
   -0.0020   -1.2487   -0.2167 C   0  0  0  0  0  0  0  0  0  0  0  0
   -0.0020   -0.0414    0.5986 C   0  0  0  0  0  0  0  0  0  0  0  0
   -0.0020   -0.0414    1.9275 C   0  0  0  0  0  0  0  0  0  0  0  0
   -0.0020   -0.3221   -2.1090 H   0  0  0  0  0  0  0  0  0  0  0  0
   -0.0020   -2.1703   -2.1128 H   0  0  0  0  0  0  0  0  0  0  0  0
   -0.0020   -2.1937    0.3199 H   0  0  0  0  0  0  0  0  0  0  0  0
   -0.0020    1.0925   -0.0453 H   0  0  0  0  0  0  0  0  0  0  0  0
   -0.0020   -0.9680    2.4909 H   0  0  0  0  0  0  0  0  0  0  0  0
   -0.0020    0.8801    2.4947 H   0  0  0  0  0  0  0  0  0  0  0  0
  1  2  1  0
  1  3  1  0
  1  4  1  0
  5  6  2  3
  5  9  1  0
  5 10  1  0
  6  7  1  0
  6 11  1  0
  7  8  2  3
  7 12  1  0
  8 13  1  0
  8 14  1  0
M  RAD  1   1   2
M  END
>  <reaction>  (5) 
rxn_1647

>  <mol_properties>  (5) 
{"0": {"label": "*1", "atom_type": "Cs"}, "1": {"label": "*0", "atom_type": "H0"}, "5": {"label": "*4", "atom_type": "Cd"}, "6": {"label": "*3", "atom_type": "Cd"}, "11": {"label": "*2", "atom_type": "H0"}}

>  <type>  (5) 
unop_1

>  <geom_source>  (5) 
Heuristics

$$$$

     RDKit          3D

 14 12  0  0  0  0  0  0  0  0999 V2000
   -0.0014    2.2356   -0.6873 C   0  0  0  0  0  3  0  0  0  0  0  0
   -0.5148    2.1122   -1.6396 H   0  0  0  0  0  0  0  0  0  0  0  0
    0.8898    2.8444   -0.8315 H   0  0  0  0  0  0  0  0  0  0  0  0
   -0.2806    2.4606    0.3410 H   0  0  0  0  0  0  0  0  0  0  0  0
   -0.0014   -1.2419   -1.5422 C   0  0  0  0  0  0  0  0  0  0  0  0
   -0.0014   -1.2419   -0.2133 C   0  0  0  0  0  0  0  0  0  0  0  0
   -0.0014   -0.0345    0.6020 C   0  0  0  0  0  0  0  0  0  0  0  0
   -0.0014   -0.0345    1.9308 C   0  0  0  0  0  0  0  0  0  0  0  0
   -0.0014   -0.3153   -2.1057 H   0  0  0  0  0  0  0  0  0  0  0  0
   -0.0014   -2.1634   -2.1094 H   0  0  0  0  0  0  0  0  0  0  0  0
   -0.0014   -2.1868    0.3233 H   0  0  0  0  0  0  0  0  0  0  0  0
   -0.0014    1.0994   -0.0420 H   0  0  0  0  0  0  0  0  0  0  0  0
   -0.0014   -0.9611    2.4943 H   0  0  0  0  0  0  0  0  0  0  0  0
   -0.0014    0.8870    2.4980 H   0  0  0  0  0  0  0  0  0  0  0  0
  1  2  1  0
  1  3  1  0
  1  4  1  0
  5  6  2  3
  5  9  1  0
  5 10  1  0
  6  7  1  0
  6 11  1  0
  7  8  2  3
  7 12  1  0
  8 13  1  0
  8 14  1  0
M  RAD  1   1   2
M  END
>  <reaction>  (6) 
rxn_1647

>  <mol_properties>  (6) 
{"0": {"label": "*1", "atom_type": "Cs"}, "1": {"label": "*0", "atom_type": "H0"}, "5": {"label": "*4", "atom_type": "Cd"}, "6": {"label": "*3", "atom_type": "Cd"}, "11": {"label": "*2", "atom_type": "H0"}}

>  <type>  (6) 
unop_2

>  <geom_source>  (6) 
Heuristics

$$$$

     RDKit          3D

 14 12  0  0  0  0  0  0  0  0999 V2000
   -0.0041    2.2275   -0.6877 C   0  0  0  0  0  3  0  0  0  0  0  0
   -0.5175    2.9822   -0.0938 H   0  0  0  0  0  0  0  0  0  0  0  0
   -0.1602    2.4306   -1.7461 H   0  0  0  0  0  0  0  0  0  0  0  0
    0.9494    2.5353   -0.2613 H   0  0  0  0  0  0  0  0  0  0  0  0
   -0.0041   -1.2500   -1.5427 C   0  0  0  0  0  0  0  0  0  0  0  0
   -0.0041   -1.2500   -0.2138 C   0  0  0  0  0  0  0  0  0  0  0  0
   -0.0041   -0.0426    0.6015 C   0  0  0  0  0  0  0  0  0  0  0  0
   -0.0041   -0.0426    1.9304 C   0  0  0  0  0  0  0  0  0  0  0  0
   -0.0041   -0.3234   -2.1061 H   0  0  0  0  0  0  0  0  0  0  0  0
   -0.0041   -2.1715   -2.1098 H   0  0  0  0  0  0  0  0  0  0  0  0
   -0.0041   -2.1949    0.3228 H   0  0  0  0  0  0  0  0  0  0  0  0
   -0.0041    1.0913   -0.0424 H   0  0  0  0  0  0  0  0  0  0  0  0
   -0.0041   -0.9692    2.4939 H   0  0  0  0  0  0  0  0  0  0  0  0
   -0.0041    0.8789    2.4976 H   0  0  0  0  0  0  0  0  0  0  0  0
  1  2  1  0
  1  3  1  0
  1  4  1  0
  5  6  2  3
  5  9  1  0
  5 10  1  0
  6  7  1  0
  6 11  1  0
  7  8  2  3
  7 12  1  0
  8 13  1  0
  8 14  1  0
M  RAD  1   1   2
M  END
>  <reaction>  (7) 
rxn_1647

>  <mol_properties>  (7) 
{"0": {"label": "*1", "atom_type": "Cs"}, "1": {"label": "*0", "atom_type": "H0"}, "5": {"label": "*4", "atom_type": "Cd"}, "6": {"label": "*3", "atom_type": "Cd"}, "11": {"label": "*2", "atom_type": "H0"}}

>  <type>  (7) 
unop_3

>  <geom_source>  (7) 
Heuristics

$$$$

     RDKit          3D

 14 12  0  0  0  0  0  0  0  0999 V2000
   -0.0019    2.2336   -0.6901 C   0  0  0  0  0  3  0  0  0  0  0  0
    0.8872    2.2957   -1.3158 H   0  0  0  0  0  0  0  0  0  0  0  0
    0.2239    2.6232    0.3013 H   0  0  0  0  0  0  0  0  0  0  0  0
   -0.9871    2.6326   -0.9268 H   0  0  0  0  0  0  0  0  0  0  0  0
   -0.0019   -1.2439   -1.5451 C   0  0  0  0  0  0  0  0  0  0  0  0
   -0.0019   -1.2439   -0.2162 C   0  0  0  0  0  0  0  0  0  0  0  0
   -0.0019   -0.0366    0.5991 C   0  0  0  0  0  0  0  0  0  0  0  0
   -0.0019   -0.0366    1.9280 C   0  0  0  0  0  0  0  0  0  0  0  0
   -0.0019   -0.3173   -2.1086 H   0  0  0  0  0  0  0  0  0  0  0  0
   -0.0019   -2.1655   -2.1123 H   0  0  0  0  0  0  0  0  0  0  0  0
   -0.0019   -2.1889    0.3204 H   0  0  0  0  0  0  0  0  0  0  0  0
   -0.0019    1.0973   -0.0449 H   0  0  0  0  0  0  0  0  0  0  0  0
   -0.0019   -0.9632    2.4914 H   0  0  0  0  0  0  0  0  0  0  0  0
   -0.0019    0.8849    2.4951 H   0  0  0  0  0  0  0  0  0  0  0  0
  1  2  1  0
  1  3  1  0
  1  4  1  0
  5  6  2  3
  5  9  1  0
  5 10  1  0
  6  7  1  0
  6 11  1  0
  7  8  2  3
  7 12  1  0
  8 13  1  0
  8 14  1  0
M  RAD  1   1   2
M  END
>  <reaction>  (8) 
rxn_1647

>  <mol_properties>  (8) 
{"0": {"label": "*1", "atom_type": "Cs"}, "1": {"label": "*0", "atom_type": "H0"}, "5": {"label": "*4", "atom_type": "Cd"}, "6": {"label": "*3", "atom_type": "Cd"}, "11": {"label": "*2", "atom_type": "H0"}}

>  <type>  (8) 
unop_4

>  <geom_source>  (8) 
Heuristics

$$$$

     RDKit          3D

 14 12  0  0  0  0  0  0  0  0999 V2000
   -0.0006    2.2270   -0.6840 C   0  0  0  0  0  3  0  0  0  0  0  0
   -0.0006    3.0496    0.0295 H   0  0  0  0  0  0  0  0  0  0  0  0
   -0.8897    2.2891   -1.3097 H   0  0  0  0  0  0  0  0  0  0  0  0
    0.9317    2.6452   -1.0605 H   0  0  0  0  0  0  0  0  0  0  0  0
   -0.0006   -1.2505   -1.5390 C   0  0  0  0  0  0  0  0  0  0  0  0
   -0.0006   -1.2505   -0.2101 C   0  0  0  0  0  0  0  0  0  0  0  0
   -0.0006   -0.0432    0.6052 C   0  0  0  0  0  0  0  0  0  0  0  0
   -0.0006   -0.0432    1.9341 C   0  0  0  0  0  0  0  0  0  0  0  0
   -0.0006   -0.3239   -2.1025 H   0  0  0  0  0  0  0  0  0  0  0  0
   -0.0006   -2.1721   -2.1062 H   0  0  0  0  0  0  0  0  0  0  0  0
   -0.0006   -2.1955    0.3265 H   0  0  0  0  0  0  0  0  0  0  0  0
   -0.0006    1.0907   -0.0388 H   0  0  0  0  0  0  0  0  0  0  0  0
   -0.0006   -0.9698    2.4975 H   0  0  0  0  0  0  0  0  0  0  0  0
   -0.0006    0.8783    2.5012 H   0  0  0  0  0  0  0  0  0  0  0  0
  1  2  1  0
  1  3  1  0
  1  4  1  0
  5  6  2  3
  5  9  1  0
  5 10  1  0
  6  7  1  0
  6 11  1  0
  7  8  2  3
  7 12  1  0
  8 13  1  0
  8 14  1  0
M  RAD  1   1   2
M  END
>  <reaction>  (9) 
rxn_1647

>  <mol_properties>  (9) 
{"0": {"label": "*1", "atom_type": "Cs"}, "1": {"label": "*0", "atom_type": "H0"}, "5": {"label": "*4", "atom_type": "Cd"}, "6": {"label": "*3", "atom_type": "Cd"}, "11": {"label": "*2", "atom_type": "H0"}}

>  <type>  (9) 
unop_5

>  <geom_source>  (9) 
Heuristics

$$$$

     RDKit          3D

 14 12  0  0  0  0  0  0  0  0999 V2000
   -0.0005    2.2308   -0.6904 C   0  0  0  0  0  3  0  0  0  0  0  0
    1.0262    2.5465   -0.8697 H   0  0  0  0  0  0  0  0  0  0  0  0
   -0.2888    2.4936    0.3262 H   0  0  0  0  0  0  0  0  0  0  0  0
   -0.7068    2.6920   -1.3791 H   0  0  0  0  0  0  0  0  0  0  0  0
   -0.0005   -1.2467   -1.5454 C   0  0  0  0  0  0  0  0  0  0  0  0
   -0.0005   -1.2467   -0.2165 C   0  0  0  0  0  0  0  0  0  0  0  0
   -0.0005   -0.0393    0.5988 C   0  0  0  0  0  0  0  0  0  0  0  0
   -0.0005   -0.0393    1.9277 C   0  0  0  0  0  0  0  0  0  0  0  0
   -0.0005   -0.3201   -2.1088 H   0  0  0  0  0  0  0  0  0  0  0  0
   -0.0005   -2.1682   -2.1126 H   0  0  0  0  0  0  0  0  0  0  0  0
   -0.0005   -2.1916    0.3201 H   0  0  0  0  0  0  0  0  0  0  0  0
   -0.0005    1.0946   -0.0451 H   0  0  0  0  0  0  0  0  0  0  0  0
   -0.0005   -0.9660    2.4911 H   0  0  0  0  0  0  0  0  0  0  0  0
   -0.0005    0.8822    2.4949 H   0  0  0  0  0  0  0  0  0  0  0  0
  1  2  1  0
  1  3  1  0
  1  4  1  0
  5  6  2  3
  5  9  1  0
  5 10  1  0
  6  7  1  0
  6 11  1  0
  7  8  2  3
  7 12  1  0
  8 13  1  0
  8 14  1  0
M  RAD  1   1   2
M  END
>  <reaction>  (10) 
rxn_1647

>  <mol_properties>  (10) 
{"0": {"label": "*1", "atom_type": "Cs"}, "1": {"label": "*0", "atom_type": "H0"}, "5": {"label": "*4", "atom_type": "Cd"}, "6": {"label": "*3", "atom_type": "Cd"}, "11": {"label": "*2", "atom_type": "H0"}}

>  <type>  (10) 
unop_6

>  <geom_source>  (10) 
Heuristics

$$$$

     RDKit          3D

 14 12  0  0  0  0  0  0  0  0999 V2000
    0.0019    2.2287   -0.6898 C   0  0  0  0  0  3  0  0  0  0  0  0
    0.8910    2.7978   -0.4227 H   0  0  0  0  0  0  0  0  0  0  0  0
   -0.7544    2.3526    0.0838 H   0  0  0  0  0  0  0  0  0  0  0  0
   -0.2593    2.7236   -1.6239 H   0  0  0  0  0  0  0  0  0  0  0  0
    0.0019   -1.2489   -1.5448 C   0  0  0  0  0  0  0  0  0  0  0  0
    0.0019   -1.2489   -0.2159 C   0  0  0  0  0  0  0  0  0  0  0  0
    0.0019   -0.0415    0.5994 C   0  0  0  0  0  0  0  0  0  0  0  0
    0.0019   -0.0415    1.9283 C   0  0  0  0  0  0  0  0  0  0  0  0
    0.0019   -0.3223   -2.1082 H   0  0  0  0  0  0  0  0  0  0  0  0
    0.0019   -2.1704   -2.1120 H   0  0  0  0  0  0  0  0  0  0  0  0
    0.0019   -2.1938    0.3207 H   0  0  0  0  0  0  0  0  0  0  0  0
    0.0019    1.0924   -0.0445 H   0  0  0  0  0  0  0  0  0  0  0  0
    0.0019   -0.9681    2.4917 H   0  0  0  0  0  0  0  0  0  0  0  0
    0.0019    0.8800    2.4955 H   0  0  0  0  0  0  0  0  0  0  0  0
  1  2  1  0
  1  3  1  0
  1  4  1  0
  5  6  2  3
  5  9  1  0
  5 10  1  0
  6  7  1  0
  6 11  1  0
  7  8  2  3
  7 12  1  0
  8 13  1  0
  8 14  1  0
M  RAD  1   1   2
M  END
>  <reaction>  (11) 
rxn_1647

>  <mol_properties>  (11) 
{"0": {"label": "*1", "atom_type": "Cs"}, "1": {"label": "*0", "atom_type": "H0"}, "5": {"label": "*4", "atom_type": "Cd"}, "6": {"label": "*3", "atom_type": "Cd"}, "11": {"label": "*2", "atom_type": "H0"}}

>  <type>  (11) 
unop_7

>  <geom_source>  (11) 
Heuristics

$$$$

     RDKit          3D

 14 12  0  0  0  0  0  0  0  0999 V2000
    0.0004    2.2308   -0.6901 C   0  0  0  0  0  3  0  0  0  0  0  0
   -1.0263    2.5464   -0.8693 H   0  0  0  0  0  0  0  0  0  0  0  0
    0.6622    2.7306   -1.3957 H   0  0  0  0  0  0  0  0  0  0  0  0
    0.3383    2.4582    0.3198 H   0  0  0  0  0  0  0  0  0  0  0  0
    0.0004   -1.2467   -1.5450 C   0  0  0  0  0  0  0  0  0  0  0  0
    0.0004   -1.2467   -0.2162 C   0  0  0  0  0  0  0  0  0  0  0  0
    0.0004   -0.0394    0.5991 C   0  0  0  0  0  0  0  0  0  0  0  0
    0.0004   -0.0394    1.9280 C   0  0  0  0  0  0  0  0  0  0  0  0
    0.0004   -0.3201   -2.1085 H   0  0  0  0  0  0  0  0  0  0  0  0
    0.0004   -2.1683   -2.1122 H   0  0  0  0  0  0  0  0  0  0  0  0
    0.0004   -2.1917    0.3205 H   0  0  0  0  0  0  0  0  0  0  0  0
    0.0004    1.0945   -0.0448 H   0  0  0  0  0  0  0  0  0  0  0  0
    0.0004   -0.9660    2.4915 H   0  0  0  0  0  0  0  0  0  0  0  0
    0.0004    0.8821    2.4952 H   0  0  0  0  0  0  0  0  0  0  0  0
  1  2  1  0
  1  3  1  0
  1  4  1  0
  5  6  2  3
  5  9  1  0
  5 10  1  0
  6  7  1  0
  6 11  1  0
  7  8  2  3
  7 12  1  0
  8 13  1  0
  8 14  1  0
M  RAD  1   1   2
M  END
>  <reaction>  (12) 
rxn_1647

>  <mol_properties>  (12) 
{"0": {"label": "*1", "atom_type": "Cs"}, "1": {"label": "*0", "atom_type": "H0"}, "5": {"label": "*4", "atom_type": "Cd"}, "6": {"label": "*3", "atom_type": "Cd"}, "11": {"label": "*2", "atom_type": "H0"}}

>  <type>  (12) 
unop_8

>  <geom_source>  (12) 
Heuristics

$$$$

     RDKit          3D

 14 12  0  0  0  0  0  0  0  0999 V2000
   -0.0028    2.2360   -0.6896 C   0  0  0  0  0  3  0  0  0  0  0  0
    0.5105    2.1125   -1.6420 H   0  0  0  0  0  0  0  0  0  0  0  0
    0.6614    2.7273    0.0198 H   0  0  0  0  0  0  0  0  0  0  0  0
   -0.9884    2.5564   -0.3554 H   0  0  0  0  0  0  0  0  0  0  0  0
   -0.0028   -1.2416   -1.5445 C   0  0  0  0  0  0  0  0  0  0  0  0
   -0.0028   -1.2416   -0.2157 C   0  0  0  0  0  0  0  0  0  0  0  0
   -0.0028   -0.0342    0.5996 C   0  0  0  0  0  0  0  0  0  0  0  0
   -0.0028   -0.0342    1.9285 C   0  0  0  0  0  0  0  0  0  0  0  0
   -0.0028   -0.3150   -2.1080 H   0  0  0  0  0  0  0  0  0  0  0  0
   -0.0028   -2.1631   -2.1117 H   0  0  0  0  0  0  0  0  0  0  0  0
   -0.0028   -2.1865    0.3210 H   0  0  0  0  0  0  0  0  0  0  0  0
   -0.0028    1.0997   -0.0443 H   0  0  0  0  0  0  0  0  0  0  0  0
   -0.0028   -0.9608    2.4920 H   0  0  0  0  0  0  0  0  0  0  0  0
   -0.0028    0.8873    2.4957 H   0  0  0  0  0  0  0  0  0  0  0  0
  1  2  1  0
  1  3  1  0
  1  4  1  0
  5  6  2  3
  5  9  1  0
  5 10  1  0
  6  7  1  0
  6 11  1  0
  7  8  2  3
  7 12  1  0
  8 13  1  0
  8 14  1  0
M  RAD  1   1   2
M  END
>  <reaction>  (13) 
rxn_1647

>  <mol_properties>  (13) 
{"0": {"label": "*1", "atom_type": "Cs"}, "1": {"label": "*0", "atom_type": "H0"}, "5": {"label": "*4", "atom_type": "Cd"}, "6": {"label": "*3", "atom_type": "Cd"}, "11": {"label": "*2", "atom_type": "H0"}}

>  <type>  (13) 
unop_9

>  <geom_source>  (13) 
Heuristics

$$$$

     RDKit          3D

 14 12  0  0  0  0  0  0  0  0999 V2000
    0.0005    2.2333   -0.6881 C   0  0  0  0  0  3  0  0  0  0  0  0
   -0.8886    2.2955   -1.3138 H   0  0  0  0  0  0  0  0  0  0  0  0
    0.8008    2.8209   -1.1354 H   0  0  0  0  0  0  0  0  0  0  0  0
    0.0573    2.4532    0.3768 H   0  0  0  0  0  0  0  0  0  0  0  0
    0.0005   -1.2442   -1.5431 C   0  0  0  0  0  0  0  0  0  0  0  0
    0.0005   -1.2442   -0.2142 C   0  0  0  0  0  0  0  0  0  0  0  0
    0.0005   -0.0369    0.6011 C   0  0  0  0  0  0  0  0  0  0  0  0
    0.0005   -0.0369    1.9300 C   0  0  0  0  0  0  0  0  0  0  0  0
    0.0005   -0.3176   -2.1066 H   0  0  0  0  0  0  0  0  0  0  0  0
    0.0005   -2.1657   -2.1103 H   0  0  0  0  0  0  0  0  0  0  0  0
    0.0005   -2.1891    0.3224 H   0  0  0  0  0  0  0  0  0  0  0  0
    0.0005    1.0970   -0.0429 H   0  0  0  0  0  0  0  0  0  0  0  0
    0.0005   -0.9635    2.4934 H   0  0  0  0  0  0  0  0  0  0  0  0
    0.0005    0.8847    2.4971 H   0  0  0  0  0  0  0  0  0  0  0  0
  1  2  1  0
  1  3  1  0
  1  4  1  0
  5  6  2  3
  5  9  1  0
  5 10  1  0
  6  7  1  0
  6 11  1  0
  7  8  2  3
  7 12  1  0
  8 13  1  0
  8 14  1  0
M  RAD  1   1   2
M  END
>  <reaction>  (14) 
rxn_1647

>  <mol_properties>  (14) 
{"0": {"label": "*1", "atom_type": "Cs"}, "1": {"label": "*0", "atom_type": "H0"}, "5": {"label": "*4", "atom_type": "Cd"}, "6": {"label": "*3", "atom_type": "Cd"}, "11": {"label": "*2", "atom_type": "H0"}}

>  <type>  (14) 
unop_10

>  <geom_source>  (14) 
Heuristics

$$$$

     RDKit          3D

 14 12  0  0  0  0  0  0  0  0999 V2000
    0.0033    2.2274   -0.6868 C   0  0  0  0  0  3  0  0  0  0  0  0
    0.5166    2.9821   -0.0929 H   0  0  0  0  0  0  0  0  0  0  0  0
   -1.0625    2.2544   -0.4653 H   0  0  0  0  0  0  0  0  0  0  0  0
    0.3300    2.7197   -1.6015 H   0  0  0  0  0  0  0  0  0  0  0  0
    0.0033   -1.2501   -1.5418 C   0  0  0  0  0  0  0  0  0  0  0  0
    0.0033   -1.2501   -0.2129 C   0  0  0  0  0  0  0  0  0  0  0  0
    0.0033   -0.0428    0.6024 C   0  0  0  0  0  0  0  0  0  0  0  0
    0.0033   -0.0428    1.9313 C   0  0  0  0  0  0  0  0  0  0  0  0
    0.0033   -0.3235   -2.1052 H   0  0  0  0  0  0  0  0  0  0  0  0
    0.0033   -2.1716   -2.1089 H   0  0  0  0  0  0  0  0  0  0  0  0
    0.0033   -2.1950    0.3237 H   0  0  0  0  0  0  0  0  0  0  0  0
    0.0033    1.0911   -0.0415 H   0  0  0  0  0  0  0  0  0  0  0  0
    0.0033   -0.9694    2.4947 H   0  0  0  0  0  0  0  0  0  0  0  0
    0.0033    0.8788    2.4985 H   0  0  0  0  0  0  0  0  0  0  0  0
  1  2  1  0
  1  3  1  0
  1  4  1  0
  5  6  2  3
  5  9  1  0
  5 10  1  0
  6  7  1  0
  6 11  1  0
  7  8  2  3
  7 12  1  0
  8 13  1  0
  8 14  1  0
M  RAD  1   1   2
M  END
>  <reaction>  (15) 
rxn_1647

>  <mol_properties>  (15) 
{"0": {"label": "*1", "atom_type": "Cs"}, "1": {"label": "*0", "atom_type": "H0"}, "5": {"label": "*4", "atom_type": "Cd"}, "6": {"label": "*3", "atom_type": "Cd"}, "11": {"label": "*2", "atom_type": "H0"}}

>  <type>  (15) 
unop_11

>  <geom_source>  (15) 
Heuristics

$$$$

     RDKit          3D

 14 12  0  0  0  0  0  0  0  0999 V2000
   -0.0030    2.2368   -0.6883 C   0  0  0  0  0  3  0  0  0  0  0  0
   -0.0030    2.0454   -1.7603 H   0  0  0  0  0  0  0  0  0  0  0  0
    0.8861    2.8059   -0.4212 H   0  0  0  0  0  0  0  0  0  0  0  0
   -0.6884    2.4922    0.1184 H   0  0  0  0  0  0  0  0  0  0  0  0
   -0.0030   -1.2408   -1.5432 C   0  0  0  0  0  0  0  0  0  0  0  0
   -0.0030   -1.2408   -0.2144 C   0  0  0  0  0  0  0  0  0  0  0  0
   -0.0030   -0.0334    0.6009 C   0  0  0  0  0  0  0  0  0  0  0  0
   -0.0030   -0.0334    1.9298 C   0  0  0  0  0  0  0  0  0  0  0  0
   -0.0030   -0.3142   -2.1067 H   0  0  0  0  0  0  0  0  0  0  0  0
   -0.0030   -2.1623   -2.1104 H   0  0  0  0  0  0  0  0  0  0  0  0
   -0.0030   -2.1857    0.3223 H   0  0  0  0  0  0  0  0  0  0  0  0
   -0.0030    1.1005   -0.0430 H   0  0  0  0  0  0  0  0  0  0  0  0
   -0.0030   -0.9600    2.4933 H   0  0  0  0  0  0  0  0  0  0  0  0
   -0.0030    0.8881    2.4970 H   0  0  0  0  0  0  0  0  0  0  0  0
  1  2  1  0
  1  3  1  0
  1  4  1  0
  5  6  2  3
  5  9  1  0
  5 10  1  0
  6  7  1  0
  6 11  1  0
  7  8  2  3
  7 12  1  0
  8 13  1  0
  8 14  1  0
M  RAD  1   1   2
M  END
>  <reaction>  (16) 
rxn_1647

>  <mol_properties>  (16) 
{"0": {"label": "*1", "atom_type": "Cs"}, "1": {"label": "*0", "atom_type": "H0"}, "5": {"label": "*4", "atom_type": "Cd"}, "6": {"label": "*3", "atom_type": "Cd"}, "11": {"label": "*2", "atom_type": "H0"}}

>  <type>  (16) 
unop_12

>  <geom_source>  (16) 
Heuristics

$$$$

     RDKit          3D

 14 12  0  0  0  0  0  0  0  0999 V2000
    2.3629   -0.3160    0.3006 C   0  0  0  0  0  3  0  0  0  0  0  0
   -1.3149   -0.7082   -0.6893 C   0  0  0  0  0  0  0  0  0  0  0  0
   -2.5669   -0.3568   -0.3925 C   0  0  0  0  0  0  0  0  0  0  0  0
   -0.0982    1.2020    0.3801 C   0  0  0  0  0  0  0  0  0  0  0  0
   -0.1124    0.0608   -0.3071 C   0  0  0  0  0  0  0  0  0  0  0  0
    2.2937   -1.4212    0.3673 H   0  0  0  0  0  0  0  0  0  0  0  0
    2.8411    0.0808    1.2196 H   0  0  0  0  0  0  0  0  0  0  0  0
    2.9720   -0.0363   -0.5835 H   0  0  0  0  0  0  0  0  0  0  0  0
    1.1215    0.2068    0.1766 H   0  0  0  0  0  0  0  0  0  0  0  0
   -1.1583   -1.6206   -1.2500 H   0  0  0  0  0  0  0  0  0  0  0  0
   -2.8041    0.5382    0.1632 H   0  0  0  0  0  0  0  0  0  0  0  0
   -3.3879   -0.9839   -0.7151 H   0  0  0  0  0  0  0  0  0  0  0  0
   -0.9994    1.6826    0.7310 H   0  0  0  0  0  0  0  0  0  0  0  0
    0.8508    1.6717    0.5991 H   0  0  0  0  0  0  0  0  0  0  0  0
  1  6  1  0
  1  7  1  0
  1  8  1  0
  2  3  2  3
  2  5  1  0
  2 10  1  0
  3 11  1  0
  3 12  1  0
  4  5  2  3
  4 13  1  0
  4 14  1  0
  5  9  1  0
M  RAD  1   1   2
M  END
>  <reaction>  (17) 
rxn_1647

>  <mol_properties>  (17) 
{"0": {"label": "*1", "atom_type": "Cs"}, "1": {"label": "*0", "atom_type": "H0"}, "5": {"label": "*4", "atom_type": "Cd"}, "6": {"label": "*3", "atom_type": "Cd"}, "11": {"label": "*2", "atom_type": "H0"}}

>  <type>  (17) 
unop_13

>  <geom_source>  (17) 
AutoTST

$$$$
