
     RDKit          3D

 13 12  0  0  0  0  0  0  0  0999 V2000
    3.0977   -0.3549   -0.5105 C   0  0  0  0  0  0  0  0  0  0  0  0
    2.0556    0.4221   -0.2627 C   0  0  0  0  0  0  0  0  0  0  0  0
    0.6313   -0.0354   -0.2366 C   0  0  0  0  0  0  0  0  0  0  0  0
   -0.2567    0.6038   -1.2694 C   0  0  0  0  0  0  0  0  0  0  0  0
    0.1459    1.3456   -2.2891 C   0  0  0  0  0  0  0  0  0  0  0  0
    4.1081    0.0344   -0.5074 H   0  0  0  0  0  0  0  0  0  0  0  0
    2.9777   -1.4116   -0.7243 H   0  0  0  0  0  0  0  0  0  0  0  0
    2.2171    1.4781   -0.0618 H   0  0  0  0  0  0  0  0  0  0  0  0
    0.5865   -1.1233   -0.3540 H   0  0  0  0  0  0  0  0  0  0  0  0
    0.2065    0.1743    0.7521 H   0  0  0  0  0  0  0  0  0  0  0  0
   -1.3190    0.4126   -1.1445 H   0  0  0  0  0  0  0  0  0  0  0  0
    1.1948    1.5564   -2.4628 H   0  0  0  0  0  0  0  0  0  0  0  0
   -0.5644    1.7621   -2.9918 H   0  0  0  0  0  0  0  0  0  0  0  0
  1  2  2  3
  1  6  1  0
  1  7  1  0
  2  3  1  0
  2  8  1  0
  3  4  1  0
  3  9  1  0
  3 10  1  0
  4  5  2  3
  4 11  1  0
  5 12  1  0
  5 13  1  0
M  END
>  <reaction>  (1) 
rxn_1166

>  <mol_properties>  (1) 
{"2": {"label": "donator", "atom_type": "Cs"}, "8": {"label": "d_hydrogen", "atom_type": "H0"}}

>  <type>  (1) 
r1h

$$$$

     RDKit          3D

  4  3  0  0  0  0  0  0  0  0999 V2000
   -0.7528   -0.8706   -0.3839 S   0  0  0  0  0  0  0  0  0  0  0  0
    0.7502   -0.2564   -0.0649 C   0  0  0  0  0  3  0  0  0  0  0  0
    1.5655    0.9691    0.4633 S   0  0  0  0  0  0  0  0  0  0  0  0
   -1.5629    0.1579   -0.0146 H   0  0  0  0  0  0  0  0  0  0  0  0
  1  2  1  0
  1  4  1  0
  2  3  2  0
M  RAD  1   2   2
M  END
>  <reaction>  (2) 
rxn_1166

>  <mol_properties>  (2) 
{"1": {"label": "acceptor", "atom_type": "CS"}}

>  <type>  (2) 
r2

$$$$

     RDKit          3D

  5  4  0  0  0  0  0  0  0  0999 V2000
    1.2280   -0.4626    0.1225 S   0  0  0  0  0  0  0  0  0  0  0  0
   -0.4732   -0.2566   -0.0746 C   0  0  0  0  0  0  0  0  0  0  0  0
   -1.3314    1.1074   -0.0947 S   0  0  0  0  0  0  0  0  0  0  0  0
    1.5289    0.8405    0.2416 H   0  0  0  0  0  0  0  0  0  0  0  0
   -0.9523   -1.2286   -0.1949 H   0  0  0  0  0  0  0  0  0  0  0  0
  1  2  1  0
  1  4  1  0
  2  3  2  0
  2  5  1  0
M  END
>  <reaction>  (3) 
rxn_1166

>  <mol_properties>  (3) 
{"1": {"label": "acceptor", "atom_type": "CS"}, "4": {"label": "a_hydrogen", "atom_type": "H0"}}

>  <type>  (3) 
r2h

$$$$

     RDKit          3D

 17 15  0  0  0  0  0  0  0  0999 V2000
   -1.6319    1.6120   -0.5990 S   0  0  0  0  0  0  0  0  0  0  0  0
   -0.0467    1.0129   -0.5186 C   0  0  0  0  0  3  0  0  0  0  0  0
    1.2949    1.2780   -1.3255 S   0  0  0  0  0  0  0  0  0  0  0  0
   -1.4888    2.4856   -1.6168 H   0  0  0  0  0  0  0  0  0  0  0  0
   -0.6562   -2.5080   -0.3490 C   0  0  0  0  0  0  0  0  0  0  0  0
   -0.7394   -1.9991    0.8759 C   0  0  0  0  0  0  0  0  0  0  0  0
    0.1132   -0.9113    1.4027 C   0  0  0  0  0  0  0  0  0  0  0  0
    1.5718   -1.0605    1.4841 C   0  0  0  0  0  0  0  0  0  0  0  0
    2.3132   -2.0501    0.9856 C   0  0  0  0  0  0  0  0  0  0  0  0
   -1.3253   -3.2929   -0.6773 H   0  0  0  0  0  0  0  0  0  0  0  0
    0.0752   -2.1483   -1.0642 H   0  0  0  0  0  0  0  0  0  0  0  0
   -1.5140   -2.3693    1.5417 H   0  0  0  0  0  0  0  0  0  0  0  0
   -0.0037    0.0494    0.5348 H   0  0  0  0  0  0  0  0  0  0  0  0
   -0.2981   -0.4425    2.2966 H   0  0  0  0  0  0  0  0  0  0  0  0
    2.0790   -0.2422    1.9872 H   0  0  0  0  0  0  0  0  0  0  0  0
    1.8708   -2.9011    0.4837 H   0  0  0  0  0  0  0  0  0  0  0  0
    3.3903   -2.0352    1.0871 H   0  0  0  0  0  0  0  0  0  0  0  0
  1  2  1  0
  1  4  1  0
  2  3  2  0
  5  6  2  3
  5 10  1  0
  5 11  1  0
  6  7  1  0
  6 12  1  0
  7  8  1  0
  7 13  1  0
  7 14  1  0
  8  9  2  3
  8 15  1  0
  9 16  1  0
  9 17  1  0
M  RAD  1   2   2
M  END
>  <reaction>  (4) 
rxn_1166

>  <mol_properties>  (4) 
{"0": {"label": "*4", "atom_type": "S2s"}, "1": {"label": "*3", "atom_type": "CS"}, "5": {"label": "*0", "atom_type": "Cd"}, "6": {"label": "*1", "atom_type": "Cs"}, "12": {"label": "*2", "atom_type": "H0"}}

>  <type>  (4) 
ts

$$$$

     RDKit          3D

 17 15  0  0  0  0  0  0  0  0999 V2000
   -1.8684    1.8047   -0.1415 S   0  0  0  0  0  0  0  0  0  0  0  0
   -0.4434    0.9382   -0.5816 C   0  0  0  0  0  0  0  0  0  0  0  0
    1.0054    1.5144   -0.9896 S   0  0  0  0  0  0  0  0  0  0  0  0
   -1.3446    3.0351   -0.2613 H   0  0  0  0  0  0  0  0  0  0  0  0
   -0.2038   -2.4269   -1.2650 C   0  0  0  0  0  0  0  0  0  0  0  0
   -0.2038   -2.4269    0.0583 C   0  0  0  0  0  0  0  0  0  0  0  0
   -0.2038   -1.2011    0.9163 C   0  0  0  0  0  3  0  0  0  0  0  0
    1.0060   -1.0467    1.7975 C   0  0  0  0  0  0  0  0  0  0  0  0
    2.1171   -1.7624    1.7250 C   0  0  0  0  0  0  0  0  0  0  0  0
   -0.2119   -3.3496   -1.8315 H   0  0  0  0  0  0  0  0  0  0  0  0
   -0.1974   -1.5014   -1.8310 H   0  0  0  0  0  0  0  0  0  0  0  0
   -0.2012   -3.3756    0.5888 H   0  0  0  0  0  0  0  0  0  0  0  0
   -0.3238   -0.1291    0.1657 H   0  0  0  0  0  0  0  0  0  0  0  0
   -1.0917   -1.2146    1.5590 H   0  0  0  0  0  0  0  0  0  0  0  0
    0.9333   -0.2617    2.5452 H   0  0  0  0  0  0  0  0  0  0  0  0
    2.2426   -2.5493    0.9902 H   0  0  0  0  0  0  0  0  0  0  0  0
    2.9453   -1.5781    2.3974 H   0  0  0  0  0  0  0  0  0  0  0  0
  1  2  1  0
  1  4  1  0
  2  3  2  0
  2 13  1  0
  5  6  2  3
  5 10  1  0
  5 11  1  0
  6  7  1  0
  6 12  1  0
  7  8  1  0
  7 14  1  0
  8  9  2  3
  8 15  1  0
  9 16  1  0
  9 17  1  0
M  RAD  1   7   2
M  END
>  <reaction>  (5) 
rxn_1166

>  <mol_properties>  (5) 
{"0": {"label": "*4", "atom_type": "S2s"}, "1": {"label": "*3", "atom_type": "CS"}, "5": {"label": "*0", "atom_type": "Cd"}, "6": {"label": "*1", "atom_type": "Cs"}, "12": {"label": "*2", "atom_type": "H0"}}

>  <type>  (5) 
unop_1

>  <geom_source>  (5) 
Heuristics

$$$$

     RDKit          3D

 17 15  0  0  0  0  0  0  0  0999 V2000
   -1.2121    0.6533   -1.8083 S   0  0  0  0  0  0  0  0  0  0  0  0
   -0.3047    1.0297   -0.3904 C   0  0  0  0  0  0  0  0  0  0  0  0
    0.0075    2.4719    0.2575 S   0  0  0  0  0  0  0  0  0  0  0  0
   -1.5273    1.9181   -2.1305 H   0  0  0  0  0  0  0  0  0  0  0  0
   -0.0651   -2.3354   -1.0739 C   0  0  0  0  0  0  0  0  0  0  0  0
   -0.0651   -2.3354    0.2494 C   0  0  0  0  0  0  0  0  0  0  0  0
   -0.0651   -1.1096    1.1074 C   0  0  0  0  0  3  0  0  0  0  0  0
    1.1447   -0.9552    1.9886 C   0  0  0  0  0  0  0  0  0  0  0  0
    2.2558   -1.6709    1.9161 C   0  0  0  0  0  0  0  0  0  0  0  0
   -0.0732   -3.2581   -1.6404 H   0  0  0  0  0  0  0  0  0  0  0  0
   -0.0587   -1.4100   -1.6399 H   0  0  0  0  0  0  0  0  0  0  0  0
   -0.0625   -3.2842    0.7799 H   0  0  0  0  0  0  0  0  0  0  0  0
   -0.1851   -0.0376    0.3568 H   0  0  0  0  0  0  0  0  0  0  0  0
   -0.9530   -1.1231    1.7501 H   0  0  0  0  0  0  0  0  0  0  0  0
    1.0720   -0.1702    2.7363 H   0  0  0  0  0  0  0  0  0  0  0  0
    2.3813   -2.4578    1.1813 H   0  0  0  0  0  0  0  0  0  0  0  0
    3.0840   -1.4866    2.5885 H   0  0  0  0  0  0  0  0  0  0  0  0
  1  2  1  0
  1  4  1  0
  2  3  2  0
  2 13  1  0
  5  6  2  3
  5 10  1  0
  5 11  1  0
  6  7  1  0
  6 12  1  0
  7  8  1  0
  7 14  1  0
  8  9  2  3
  8 15  1  0
  9 16  1  0
  9 17  1  0
M  RAD  1   7   2
M  END
>  <reaction>  (6) 
rxn_1166

>  <mol_properties>  (6) 
{"0": {"label": "*4", "atom_type": "S2s"}, "1": {"label": "*3", "atom_type": "CS"}, "5": {"label": "*0", "atom_type": "Cd"}, "6": {"label": "*1", "atom_type": "Cs"}, "12": {"label": "*2", "atom_type": "H0"}}

>  <type>  (6) 
unop_2

>  <geom_source>  (6) 
Heuristics

$$$$

     RDKit          3D

 17 15  0  0  0  0  0  0  0  0999 V2000
   -1.3151    2.1913    0.3728 S   0  0  0  0  0  0  0  0  0  0  0  0
   -0.5008    0.9498   -0.5052 C   0  0  0  0  0  0  0  0  0  0  0  0
    0.5770    1.0927   -1.6949 S   0  0  0  0  0  0  0  0  0  0  0  0
   -0.7502    3.2285   -0.2658 H   0  0  0  0  0  0  0  0  0  0  0  0
   -0.2611   -2.4153   -1.1886 C   0  0  0  0  0  0  0  0  0  0  0  0
   -0.2611   -2.4153    0.1346 C   0  0  0  0  0  0  0  0  0  0  0  0
   -0.2611   -1.1895    0.9926 C   0  0  0  0  0  3  0  0  0  0  0  0
    0.9486   -1.0351    1.8738 C   0  0  0  0  0  0  0  0  0  0  0  0
    2.0597   -1.7508    1.8014 C   0  0  0  0  0  0  0  0  0  0  0  0
   -0.2693   -3.3380   -1.7552 H   0  0  0  0  0  0  0  0  0  0  0  0
   -0.2548   -1.4898   -1.7546 H   0  0  0  0  0  0  0  0  0  0  0  0
   -0.2586   -3.3640    0.6651 H   0  0  0  0  0  0  0  0  0  0  0  0
   -0.3812   -0.1175    0.2421 H   0  0  0  0  0  0  0  0  0  0  0  0
   -1.1491   -1.2030    1.6354 H   0  0  0  0  0  0  0  0  0  0  0  0
    0.8759   -0.2501    2.6215 H   0  0  0  0  0  0  0  0  0  0  0  0
    2.1852   -2.5377    1.0665 H   0  0  0  0  0  0  0  0  0  0  0  0
    2.8879   -1.5665    2.4737 H   0  0  0  0  0  0  0  0  0  0  0  0
  1  2  1  0
  1  4  1  0
  2  3  2  0
  2 13  1  0
  5  6  2  3
  5 10  1  0
  5 11  1  0
  6  7  1  0
  6 12  1  0
  7  8  1  0
  7 14  1  0
  8  9  2  3
  8 15  1  0
  9 16  1  0
  9 17  1  0
M  RAD  1   7   2
M  END
>  <reaction>  (7) 
rxn_1166

>  <mol_properties>  (7) 
{"0": {"label": "*4", "atom_type": "S2s"}, "1": {"label": "*3", "atom_type": "CS"}, "5": {"label": "*0", "atom_type": "Cd"}, "6": {"label": "*1", "atom_type": "Cs"}, "12": {"label": "*2", "atom_type": "H0"}}

>  <type>  (7) 
unop_3

>  <geom_source>  (7) 
Heuristics

$$$$

     RDKit          3D

 17 15  0  0  0  0  0  0  0  0999 V2000
    0.7550    1.0656   -1.5811 S   0  0  0  0  0  0  0  0  0  0  0  0
   -0.5630    0.9765   -0.4719 C   0  0  0  0  0  0  0  0  0  0  0  0
   -1.3867    2.1773    0.2189 S   0  0  0  0  0  0  0  0  0  0  0  0
    0.8193    2.4055   -1.6377 H   0  0  0  0  0  0  0  0  0  0  0  0
   -0.3234   -2.3885   -1.1554 C   0  0  0  0  0  0  0  0  0  0  0  0
   -0.3234   -2.3885    0.1679 C   0  0  0  0  0  0  0  0  0  0  0  0
   -0.3234   -1.1627    1.0259 C   0  0  0  0  0  3  0  0  0  0  0  0
    0.8863   -1.0084    1.9071 C   0  0  0  0  0  0  0  0  0  0  0  0
    1.9975   -1.7241    1.8346 C   0  0  0  0  0  0  0  0  0  0  0  0
   -0.3316   -3.3113   -1.7219 H   0  0  0  0  0  0  0  0  0  0  0  0
   -0.3170   -1.4631   -1.7214 H   0  0  0  0  0  0  0  0  0  0  0  0
   -0.3208   -3.3373    0.6984 H   0  0  0  0  0  0  0  0  0  0  0  0
   -0.4435   -0.0907    0.2753 H   0  0  0  0  0  0  0  0  0  0  0  0
   -1.2114   -1.1762    1.6687 H   0  0  0  0  0  0  0  0  0  0  0  0
    0.8136   -0.2233    2.6548 H   0  0  0  0  0  0  0  0  0  0  0  0
    2.1230   -2.5109    1.0998 H   0  0  0  0  0  0  0  0  0  0  0  0
    2.8257   -1.5398    2.5070 H   0  0  0  0  0  0  0  0  0  0  0  0
  1  2  1  0
  1  4  1  0
  2  3  2  0
  2 13  1  0
  5  6  2  3
  5 10  1  0
  5 11  1  0
  6  7  1  0
  6 12  1  0
  7  8  1  0
  7 14  1  0
  8  9  2  3
  8 15  1  0
  9 16  1  0
  9 17  1  0
M  RAD  1   7   2
M  END
>  <reaction>  (8) 
rxn_1166

>  <mol_properties>  (8) 
{"0": {"label": "*4", "atom_type": "S2s"}, "1": {"label": "*3", "atom_type": "CS"}, "5": {"label": "*0", "atom_type": "Cd"}, "6": {"label": "*1", "atom_type": "Cs"}, "12": {"label": "*2", "atom_type": "H0"}}

>  <type>  (8) 
unop_4

>  <geom_source>  (8) 
Heuristics

$$$$

     RDKit          3D

 17 15  0  0  0  0  0  0  0  0999 V2000
   -0.4164    2.3798    0.5537 S   0  0  0  0  0  0  0  0  0  0  0  0
   -0.4167    0.9680   -0.4372 C   0  0  0  0  0  0  0  0  0  0  0  0
   -0.5387    0.8574   -2.0405 S   0  0  0  0  0  0  0  0  0  0  0  0
   -0.5460    3.2691   -0.4438 H   0  0  0  0  0  0  0  0  0  0  0  0
   -0.1770   -2.3971   -1.1207 C   0  0  0  0  0  0  0  0  0  0  0  0
   -0.1770   -2.3971    0.2026 C   0  0  0  0  0  0  0  0  0  0  0  0
   -0.1770   -1.1713    1.0606 C   0  0  0  0  0  3  0  0  0  0  0  0
    1.0327   -1.0169    1.9418 C   0  0  0  0  0  0  0  0  0  0  0  0
    2.1438   -1.7326    1.8694 C   0  0  0  0  0  0  0  0  0  0  0  0
   -0.1852   -3.3199   -1.6872 H   0  0  0  0  0  0  0  0  0  0  0  0
   -0.1707   -1.4717   -1.6866 H   0  0  0  0  0  0  0  0  0  0  0  0
   -0.1745   -3.3459    0.7331 H   0  0  0  0  0  0  0  0  0  0  0  0
   -0.2971   -0.0993    0.3100 H   0  0  0  0  0  0  0  0  0  0  0  0
   -1.0650   -1.1848    1.7034 H   0  0  0  0  0  0  0  0  0  0  0  0
    0.9600   -0.2319    2.6895 H   0  0  0  0  0  0  0  0  0  0  0  0
    2.2693   -2.5195    1.1345 H   0  0  0  0  0  0  0  0  0  0  0  0
    2.9721   -1.5483    2.5417 H   0  0  0  0  0  0  0  0  0  0  0  0
  1  2  1  0
  1  4  1  0
  2  3  2  0
  2 13  1  0
  5  6  2  3
  5 10  1  0
  5 11  1  0
  6  7  1  0
  6 12  1  0
  7  8  1  0
  7 14  1  0
  8  9  2  3
  8 15  1  0
  9 16  1  0
  9 17  1  0
M  RAD  1   7   2
M  END
>  <reaction>  (9) 
rxn_1166

>  <mol_properties>  (9) 
{"0": {"label": "*4", "atom_type": "S2s"}, "1": {"label": "*3", "atom_type": "CS"}, "5": {"label": "*0", "atom_type": "Cd"}, "6": {"label": "*1", "atom_type": "Cs"}, "12": {"label": "*2", "atom_type": "H0"}}

>  <type>  (9) 
unop_5

>  <geom_source>  (9) 
Heuristics

$$$$

     RDKit          3D

 17 15  0  0  0  0  0  0  0  0999 V2000
    1.0507    1.5131   -1.0243 S   0  0  0  0  0  0  0  0  0  0  0  0
   -0.5105    0.9449   -0.5606 C   0  0  0  0  0  0  0  0  0  0  0  0
   -1.8126    1.7959   -0.1390 S   0  0  0  0  0  0  0  0  0  0  0  0
    0.7799    2.8229   -0.9068 H   0  0  0  0  0  0  0  0  0  0  0  0
   -0.2709   -2.4202   -1.2440 C   0  0  0  0  0  0  0  0  0  0  0  0
   -0.2709   -2.4202    0.0792 C   0  0  0  0  0  0  0  0  0  0  0  0
   -0.2709   -1.1944    0.9372 C   0  0  0  0  0  3  0  0  0  0  0  0
    0.9388   -1.0400    1.8185 C   0  0  0  0  0  0  0  0  0  0  0  0
    2.0500   -1.7557    1.7460 C   0  0  0  0  0  0  0  0  0  0  0  0
   -0.2791   -3.3429   -1.8105 H   0  0  0  0  0  0  0  0  0  0  0  0
   -0.2645   -1.4947   -1.8100 H   0  0  0  0  0  0  0  0  0  0  0  0
   -0.2683   -3.3689    0.6098 H   0  0  0  0  0  0  0  0  0  0  0  0
   -0.3910   -0.1224    0.1867 H   0  0  0  0  0  0  0  0  0  0  0  0
   -1.1588   -1.2079    1.5800 H   0  0  0  0  0  0  0  0  0  0  0  0
    0.8662   -0.2550    2.5662 H   0  0  0  0  0  0  0  0  0  0  0  0
    2.1755   -2.5426    1.0112 H   0  0  0  0  0  0  0  0  0  0  0  0
    2.8782   -1.5714    2.4184 H   0  0  0  0  0  0  0  0  0  0  0  0
  1  2  1  0
  1  4  1  0
  2  3  2  0
  2 13  1  0
  5  6  2  3
  5 10  1  0
  5 11  1  0
  6  7  1  0
  6 12  1  0
  7  8  1  0
  7 14  1  0
  8  9  2  3
  8 15  1  0
  9 16  1  0
  9 17  1  0
M  RAD  1   7   2
M  END
>  <reaction>  (10) 
rxn_1166

>  <mol_properties>  (10) 
{"0": {"label": "*4", "atom_type": "S2s"}, "1": {"label": "*3", "atom_type": "CS"}, "5": {"label": "*0", "atom_type": "Cd"}, "6": {"label": "*1", "atom_type": "Cs"}, "12": {"label": "*2", "atom_type": "H0"}}

>  <type>  (10) 
unop_6

>  <geom_source>  (10) 
Heuristics

$$$$

     RDKit          3D

 17 15  0  0  0  0  0  0  0  0999 V2000
    0.9618    1.9632   -0.3679 S   0  0  0  0  0  0  0  0  0  0  0  0
   -0.4100    0.9401   -0.5842 C   0  0  0  0  0  0  0  0  0  0  0  0
   -1.9600    1.3484   -0.7523 S   0  0  0  0  0  0  0  0  0  0  0  0
    0.2923    3.1268   -0.3923 H   0  0  0  0  0  0  0  0  0  0  0  0
   -0.1704   -2.4250   -1.2677 C   0  0  0  0  0  0  0  0  0  0  0  0
   -0.1704   -2.4250    0.0556 C   0  0  0  0  0  0  0  0  0  0  0  0
   -0.1704   -1.1992    0.9136 C   0  0  0  0  0  3  0  0  0  0  0  0
    1.0394   -1.0448    1.7948 C   0  0  0  0  0  0  0  0  0  0  0  0
    2.1505   -1.7605    1.7223 C   0  0  0  0  0  0  0  0  0  0  0  0
   -0.1785   -3.3478   -1.8342 H   0  0  0  0  0  0  0  0  0  0  0  0
   -0.1640   -1.4996   -1.8337 H   0  0  0  0  0  0  0  0  0  0  0  0
   -0.1678   -3.3738    0.5861 H   0  0  0  0  0  0  0  0  0  0  0  0
   -0.2904   -0.1272    0.1630 H   0  0  0  0  0  0  0  0  0  0  0  0
   -1.0583   -1.2127    1.5564 H   0  0  0  0  0  0  0  0  0  0  0  0
    0.9667   -0.2598    2.5425 H   0  0  0  0  0  0  0  0  0  0  0  0
    2.2760   -2.5474    0.9875 H   0  0  0  0  0  0  0  0  0  0  0  0
    2.9787   -1.5762    2.3947 H   0  0  0  0  0  0  0  0  0  0  0  0
  1  2  1  0
  1  4  1  0
  2  3  2  0
  2 13  1  0
  5  6  2  3
  5 10  1  0
  5 11  1  0
  6  7  1  0
  6 12  1  0
  7  8  1  0
  7 14  1  0
  8  9  2  3
  8 15  1  0
  9 16  1  0
  9 17  1  0
M  RAD  1   7   2
M  END
>  <reaction>  (11) 
rxn_1166

>  <mol_properties>  (11) 
{"0": {"label": "*4", "atom_type": "S2s"}, "1": {"label": "*3", "atom_type": "CS"}, "5": {"label": "*0", "atom_type": "Cd"}, "6": {"label": "*1", "atom_type": "Cs"}, "12": {"label": "*2", "atom_type": "H0"}}

>  <type>  (11) 
unop_7

>  <geom_source>  (11) 
Heuristics

$$$$

     RDKit          3D

 17 15  0  0  0  0  0  0  0  0999 V2000
   -2.0098    1.3417   -0.7794 S   0  0  0  0  0  0  0  0  0  0  0  0
   -0.3416    0.9544   -0.5741 C   0  0  0  0  0  0  0  0  0  0  0  0
    0.9084    1.9483   -0.3567 S   0  0  0  0  0  0  0  0  0  0  0  0
   -1.8708    2.6745   -0.6947 H   0  0  0  0  0  0  0  0  0  0  0  0
   -0.1019   -2.4107   -1.2575 C   0  0  0  0  0  0  0  0  0  0  0  0
   -0.1019   -2.4107    0.0657 C   0  0  0  0  0  0  0  0  0  0  0  0
   -0.1019   -1.1849    0.9237 C   0  0  0  0  0  3  0  0  0  0  0  0
    1.1078   -1.0305    1.8049 C   0  0  0  0  0  0  0  0  0  0  0  0
    2.2189   -1.7462    1.7325 C   0  0  0  0  0  0  0  0  0  0  0  0
   -0.1101   -3.3335   -1.8241 H   0  0  0  0  0  0  0  0  0  0  0  0
   -0.0956   -1.4853   -1.8235 H   0  0  0  0  0  0  0  0  0  0  0  0
   -0.0994   -3.3595    0.5963 H   0  0  0  0  0  0  0  0  0  0  0  0
   -0.2220   -0.1129    0.1732 H   0  0  0  0  0  0  0  0  0  0  0  0
   -0.9899   -1.1984    1.5665 H   0  0  0  0  0  0  0  0  0  0  0  0
    1.0351   -0.2455    2.5527 H   0  0  0  0  0  0  0  0  0  0  0  0
    2.3444   -2.5331    0.9976 H   0  0  0  0  0  0  0  0  0  0  0  0
    3.0471   -1.5619    2.4048 H   0  0  0  0  0  0  0  0  0  0  0  0
  1  2  1  0
  1  4  1  0
  2  3  2  0
  2 13  1  0
  5  6  2  3
  5 10  1  0
  5 11  1  0
  6  7  1  0
  6 12  1  0
  7  8  1  0
  7 14  1  0
  8  9  2  3
  8 15  1  0
  9 16  1  0
  9 17  1  0
M  RAD  1   7   2
M  END
>  <reaction>  (12) 
rxn_1166

>  <mol_properties>  (12) 
{"0": {"label": "*4", "atom_type": "S2s"}, "1": {"label": "*3", "atom_type": "CS"}, "5": {"label": "*0", "atom_type": "Cd"}, "6": {"label": "*1", "atom_type": "Cs"}, "12": {"label": "*2", "atom_type": "H0"}}

>  <type>  (12) 
unop_8

>  <geom_source>  (12) 
Heuristics

$$$$

     RDKit          3D

 17 15  0  0  0  0  0  0  0  0999 V2000
    0.1814    0.7314   -1.9197 S   0  0  0  0  0  0  0  0  0  0  0  0
   -0.5259    1.0173   -0.3727 C   0  0  0  0  0  0  0  0  0  0  0  0
   -0.8896    2.4217    0.3293 S   0  0  0  0  0  0  0  0  0  0  0  0
    0.2992    2.0204   -2.2767 H   0  0  0  0  0  0  0  0  0  0  0  0
   -0.2863   -2.3478   -1.0562 C   0  0  0  0  0  0  0  0  0  0  0  0
   -0.2863   -2.3478    0.2671 C   0  0  0  0  0  0  0  0  0  0  0  0
   -0.2863   -1.1220    1.1251 C   0  0  0  0  0  3  0  0  0  0  0  0
    0.9234   -0.9676    2.0063 C   0  0  0  0  0  0  0  0  0  0  0  0
    2.0346   -1.6833    1.9338 C   0  0  0  0  0  0  0  0  0  0  0  0
   -0.2945   -3.2705   -1.6227 H   0  0  0  0  0  0  0  0  0  0  0  0
   -0.2799   -1.4223   -1.6222 H   0  0  0  0  0  0  0  0  0  0  0  0
   -0.2837   -3.2965    0.7976 H   0  0  0  0  0  0  0  0  0  0  0  0
   -0.4064   -0.0500    0.3745 H   0  0  0  0  0  0  0  0  0  0  0  0
   -1.1743   -1.1355    1.7678 H   0  0  0  0  0  0  0  0  0  0  0  0
    0.8507   -0.1826    2.7540 H   0  0  0  0  0  0  0  0  0  0  0  0
    2.1601   -2.4702    1.1990 H   0  0  0  0  0  0  0  0  0  0  0  0
    2.8628   -1.4990    2.6062 H   0  0  0  0  0  0  0  0  0  0  0  0
  1  2  1  0
  1  4  1  0
  2  3  2  0
  2 13  1  0
  5  6  2  3
  5 10  1  0
  5 11  1  0
  6  7  1  0
  6 12  1  0
  7  8  1  0
  7 14  1  0
  8  9  2  3
  8 15  1  0
  9 16  1  0
  9 17  1  0
M  RAD  1   7   2
M  END
>  <reaction>  (13) 
rxn_1166

>  <mol_properties>  (13) 
{"0": {"label": "*4", "atom_type": "S2s"}, "1": {"label": "*3", "atom_type": "CS"}, "5": {"label": "*0", "atom_type": "Cd"}, "6": {"label": "*1", "atom_type": "Cs"}, "12": {"label": "*2", "atom_type": "H0"}}

>  <type>  (13) 
unop_9

>  <geom_source>  (13) 
Heuristics

$$$$

     RDKit          3D

 17 15  0  0  0  0  0  0  0  0999 V2000
   -1.7583    0.9249   -1.3800 S   0  0  0  0  0  0  0  0  0  0  0  0
   -0.2795    0.9924   -0.4946 C   0  0  0  0  0  0  0  0  0  0  0  0
    0.5049    2.2832    0.0676 S   0  0  0  0  0  0  0  0  0  0  0  0
   -1.9791    2.2488   -1.4138 H   0  0  0  0  0  0  0  0  0  0  0  0
   -0.0399   -2.3727   -1.1780 C   0  0  0  0  0  0  0  0  0  0  0  0
   -0.0399   -2.3727    0.1452 C   0  0  0  0  0  0  0  0  0  0  0  0
   -0.0399   -1.1469    1.0032 C   0  0  0  0  0  3  0  0  0  0  0  0
    1.1698   -0.9925    1.8844 C   0  0  0  0  0  0  0  0  0  0  0  0
    2.2810   -1.7082    1.8120 C   0  0  0  0  0  0  0  0  0  0  0  0
   -0.0480   -3.2954   -1.7446 H   0  0  0  0  0  0  0  0  0  0  0  0
   -0.0335   -1.4472   -1.7440 H   0  0  0  0  0  0  0  0  0  0  0  0
   -0.0373   -3.3214    0.6757 H   0  0  0  0  0  0  0  0  0  0  0  0
   -0.1599   -0.0749    0.2527 H   0  0  0  0  0  0  0  0  0  0  0  0
   -0.9278   -1.1603    1.6460 H   0  0  0  0  0  0  0  0  0  0  0  0
    1.0972   -0.2075    2.6321 H   0  0  0  0  0  0  0  0  0  0  0  0
    2.4065   -2.4950    1.0771 H   0  0  0  0  0  0  0  0  0  0  0  0
    3.1092   -1.5239    2.4843 H   0  0  0  0  0  0  0  0  0  0  0  0
  1  2  1  0
  1  4  1  0
  2  3  2  0
  2 13  1  0
  5  6  2  3
  5 10  1  0
  5 11  1  0
  6  7  1  0
  6 12  1  0
  7  8  1  0
  7 14  1  0
  8  9  2  3
  8 15  1  0
  9 16  1  0
  9 17  1  0
M  RAD  1   7   2
M  END
>  <reaction>  (14) 
rxn_1166

>  <mol_properties>  (14) 
{"0": {"label": "*4", "atom_type": "S2s"}, "1": {"label": "*3", "atom_type": "CS"}, "5": {"label": "*0", "atom_type": "Cd"}, "6": {"label": "*1", "atom_type": "Cs"}, "12": {"label": "*2", "atom_type": "H0"}}

>  <type>  (14) 
unop_10

>  <geom_source>  (14) 
Heuristics

$$$$

     RDKit          3D

 17 15  0  0  0  0  0  0  0  0999 V2000
    0.4575    2.2906    0.2310 S   0  0  0  0  0  0  0  0  0  0  0  0
   -0.3429    0.9586   -0.5178 C   0  0  0  0  0  0  0  0  0  0  0  0
   -1.6047    0.9705   -1.5204 S   0  0  0  0  0  0  0  0  0  0  0  0
   -0.3131    3.2530   -0.3008 H   0  0  0  0  0  0  0  0  0  0  0  0
   -0.1032   -2.4064   -1.2013 C   0  0  0  0  0  0  0  0  0  0  0  0
   -0.1032   -2.4064    0.1220 C   0  0  0  0  0  0  0  0  0  0  0  0
   -0.1032   -1.1806    0.9800 C   0  0  0  0  0  3  0  0  0  0  0  0
    1.1065   -1.0263    1.8612 C   0  0  0  0  0  0  0  0  0  0  0  0
    2.2176   -1.7420    1.7888 C   0  0  0  0  0  0  0  0  0  0  0  0
   -0.1114   -3.3292   -1.7678 H   0  0  0  0  0  0  0  0  0  0  0  0
   -0.0969   -1.4810   -1.7672 H   0  0  0  0  0  0  0  0  0  0  0  0
   -0.1007   -3.3552    0.6525 H   0  0  0  0  0  0  0  0  0  0  0  0
   -0.2233   -0.1087    0.2294 H   0  0  0  0  0  0  0  0  0  0  0  0
   -0.9912   -1.1941    1.6228 H   0  0  0  0  0  0  0  0  0  0  0  0
    1.0338   -0.2412    2.6089 H   0  0  0  0  0  0  0  0  0  0  0  0
    2.3431   -2.5288    1.0539 H   0  0  0  0  0  0  0  0  0  0  0  0
    3.0458   -1.5577    2.4611 H   0  0  0  0  0  0  0  0  0  0  0  0
  1  2  1  0
  1  4  1  0
  2  3  2  0
  2 13  1  0
  5  6  2  3
  5 10  1  0
  5 11  1  0
  6  7  1  0
  6 12  1  0
  7  8  1  0
  7 14  1  0
  8  9  2  3
  8 15  1  0
  9 16  1  0
  9 17  1  0
M  RAD  1   7   2
M  END
>  <reaction>  (15) 
rxn_1166

>  <mol_properties>  (15) 
{"0": {"label": "*4", "atom_type": "S2s"}, "1": {"label": "*3", "atom_type": "CS"}, "5": {"label": "*0", "atom_type": "Cd"}, "6": {"label": "*1", "atom_type": "Cs"}, "12": {"label": "*2", "atom_type": "H0"}}

>  <type>  (15) 
unop_11

>  <geom_source>  (15) 
Heuristics

$$$$

     RDKit          3D

 17 15  0  0  0  0  0  0  0  0999 V2000
   -0.5197    0.5844   -1.9941 S   0  0  0  0  0  0  0  0  0  0  0  0
   -0.4125    1.0407   -0.3341 C   0  0  0  0  0  0  0  0  0  0  0  0
   -0.4433    2.5162    0.3135 S   0  0  0  0  0  0  0  0  0  0  0  0
   -0.6290    1.8275   -2.4895 H   0  0  0  0  0  0  0  0  0  0  0  0
   -0.1728   -2.3244   -1.0175 C   0  0  0  0  0  0  0  0  0  0  0  0
   -0.1728   -2.3244    0.3058 C   0  0  0  0  0  0  0  0  0  0  0  0
   -0.1728   -1.0986    1.1638 C   0  0  0  0  0  3  0  0  0  0  0  0
    1.0369   -0.9442    2.0450 C   0  0  0  0  0  0  0  0  0  0  0  0
    2.1480   -1.6599    1.9725 C   0  0  0  0  0  0  0  0  0  0  0  0
   -0.1810   -3.2472   -1.5840 H   0  0  0  0  0  0  0  0  0  0  0  0
   -0.1665   -1.3990   -1.5835 H   0  0  0  0  0  0  0  0  0  0  0  0
   -0.1703   -3.2732    0.8363 H   0  0  0  0  0  0  0  0  0  0  0  0
   -0.2929   -0.0266    0.4132 H   0  0  0  0  0  0  0  0  0  0  0  0
   -1.0608   -1.1121    1.8065 H   0  0  0  0  0  0  0  0  0  0  0  0
    0.9642   -0.1592    2.7927 H   0  0  0  0  0  0  0  0  0  0  0  0
    2.2735   -2.4468    1.2377 H   0  0  0  0  0  0  0  0  0  0  0  0
    2.9762   -1.4756    2.6449 H   0  0  0  0  0  0  0  0  0  0  0  0
  1  2  1  0
  1  4  1  0
  2  3  2  0
  2 13  1  0
  5  6  2  3
  5 10  1  0
  5 11  1  0
  6  7  1  0
  6 12  1  0
  7  8  1  0
  7 14  1  0
  8  9  2  3
  8 15  1  0
  9 16  1  0
  9 17  1  0
M  RAD  1   7   2
M  END
>  <reaction>  (16) 
rxn_1166

>  <mol_properties>  (16) 
{"0": {"label": "*4", "atom_type": "S2s"}, "1": {"label": "*3", "atom_type": "CS"}, "5": {"label": "*0", "atom_type": "Cd"}, "6": {"label": "*1", "atom_type": "Cs"}, "12": {"label": "*2", "atom_type": "H0"}}

>  <type>  (16) 
unop_12

>  <geom_source>  (16) 
Heuristics

$$$$

     RDKit          3D

 17 15  0  0  0  0  0  0  0  0999 V2000
    3.7089    0.2957    0.1042 S   0  0  0  0  0  0  0  0  0  0  0  0
    2.7344   -2.3174   -0.1084 S   0  0  0  0  0  0  0  0  0  0  0  0
   -0.0300   -0.0196   -0.3707 C   0  0  0  0  0  3  0  0  0  0  0  0
   -0.9395   -1.1264    0.0731 C   0  0  0  0  0  0  0  0  0  0  0  0
   -0.7666    1.0263   -1.1534 C   0  0  0  0  0  0  0  0  0  0  0  0
   -1.6893   -1.0210    1.1733 C   0  0  0  0  0  0  0  0  0  0  0  0
   -1.4463    2.0057   -0.5511 C   0  0  0  0  0  0  0  0  0  0  0  0
    2.4521   -0.9216   -0.2701 C   0  0  0  0  0  0  0  0  0  0  0  0
   -0.9866   -2.0333   -0.5211 H   0  0  0  0  0  0  0  0  0  0  0  0
    0.5605    0.4106    0.4676 H   0  0  0  0  0  0  0  0  0  0  0  0
   -0.7448    0.9790   -2.2375 H   0  0  0  0  0  0  0  0  0  0  0  0
   -2.3395   -1.8385    1.4672 H   0  0  0  0  0  0  0  0  0  0  0  0
   -1.6579   -0.1270    1.7884 H   0  0  0  0  0  0  0  0  0  0  0  0
   -1.9713    2.7465   -1.1452 H   0  0  0  0  0  0  0  0  0  0  0  0
   -1.4808    2.0791    0.5314 H   0  0  0  0  0  0  0  0  0  0  0  0
    1.3191   -0.5509   -0.6864 H   0  0  0  0  0  0  0  0  0  0  0  0
    3.2775    0.4129    1.4389 H   0  0  0  0  0  0  0  0  0  0  0  0
  1  8  1  0
  1 17  1  0
  2  8  2  0
  3  4  1  0
  3  5  1  0
  3 10  1  0
  4  6  2  3
  4  9  1  0
  5  7  2  3
  5 11  1  0
  6 12  1  0
  6 13  1  0
  7 14  1  0
  7 15  1  0
  8 16  1  0
M  RAD  1   3   2
M  END
>  <reaction>  (17) 
rxn_1166

>  <mol_properties>  (17) 
{"0": {"label": "*4", "atom_type": "S2s"}, "1": {"label": "*3", "atom_type": "CS"}, "5": {"label": "*0", "atom_type": "Cd"}, "6": {"label": "*1", "atom_type": "Cs"}, "12": {"label": "*2", "atom_type": "H0"}}

>  <type>  (17) 
unop_13

>  <geom_source>  (17) 
AutoTST

$$$$
