
     RDKit          3D

 10  9  0  0  0  0  0  0  0  0999 V2000
    1.8334    0.0847   -0.1062 C   0  0  0  0  0  0  0  0  0  0  0  0
    0.5993   -0.4071   -0.0750 C   0  0  0  0  0  0  0  0  0  0  0  0
   -0.5993    0.4071    0.0750 C   0  0  0  0  0  0  0  0  0  0  0  0
   -1.8334   -0.0847    0.1062 C   0  0  0  0  0  0  0  0  0  0  0  0
    2.0179    1.1498   -0.0189 H   0  0  0  0  0  0  0  0  0  0  0  0
    2.6972   -0.5572   -0.2194 H   0  0  0  0  0  0  0  0  0  0  0  0
    0.4465   -1.4793   -0.1649 H   0  0  0  0  0  0  0  0  0  0  0  0
   -0.4465    1.4793    0.1649 H   0  0  0  0  0  0  0  0  0  0  0  0
   -2.0179   -1.1498    0.0189 H   0  0  0  0  0  0  0  0  0  0  0  0
   -2.6972    0.5572    0.2194 H   0  0  0  0  0  0  0  0  0  0  0  0
  1  2  2  3
  1  5  1  0
  1  6  1  0
  2  3  1  0
  2  7  1  0
  3  4  2  3
  3  8  1  0
  4  9  1  0
  4 10  1  0
M  END
>  <reaction>  (1) 
rxn_1665

>  <mol_properties>  (1) 
{"2": {"label": "donator", "atom_type": "Cd"}, "7": {"label": "d_hydrogen", "atom_type": "H0"}}

>  <type>  (1) 
r1h

$$$$

     RDKit          3D

  8  7  0  0  0  0  0  0  0  0999 V2000
    1.4098   -0.3617   -0.1137 C   0  0  0  0  0  0  0  0  0  0  0  0
    0.1829   -0.1715   -0.5109 C   0  0  0  0  0  3  0  0  0  0  0  0
   -1.1129    0.2669    0.0153 C   0  0  0  0  0  0  0  0  0  0  0  0
    2.1881   -0.7137   -0.7829 H   0  0  0  0  0  0  0  0  0  0  0  0
    1.7065   -0.1722    0.9205 H   0  0  0  0  0  0  0  0  0  0  0  0
   -1.8665   -0.5154   -0.0958 H   0  0  0  0  0  0  0  0  0  0  0  0
   -1.0351    0.5163    1.0818 H   0  0  0  0  0  0  0  0  0  0  0  0
   -1.4726    1.1513   -0.5143 H   0  0  0  0  0  0  0  0  0  0  0  0
  1  2  2  3
  1  4  1  0
  1  5  1  0
  2  3  1  0
  3  6  1  0
  3  7  1  0
  3  8  1  0
M  RAD  1   2   2
M  END
>  <reaction>  (2) 
rxn_1665

>  <mol_properties>  (2) 
{"1": {"label": "acceptor", "atom_type": "Cd"}}

>  <type>  (2) 
r2

$$$$

     RDKit          3D

  9  8  0  0  0  0  0  0  0  0999 V2000
    1.1303   -0.2933   -0.7510 C   0  0  0  0  0  0  0  0  0  0  0  0
    0.2866    0.4560   -0.0588 C   0  0  0  0  0  0  0  0  0  0  0  0
   -0.9719   -0.0331    0.5823 C   0  0  0  0  0  0  0  0  0  0  0  0
    2.0274    0.1230   -1.1916 H   0  0  0  0  0  0  0  0  0  0  0  0
    0.9532   -1.3530   -0.9023 H   0  0  0  0  0  0  0  0  0  0  0  0
    0.5065    1.5132    0.0659 H   0  0  0  0  0  0  0  0  0  0  0  0
   -0.9526    0.1426    1.6610 H   0  0  0  0  0  0  0  0  0  0  0  0
   -1.1182   -1.1002    0.4106 H   0  0  0  0  0  0  0  0  0  0  0  0
   -1.8412    0.5010    0.1901 H   0  0  0  0  0  0  0  0  0  0  0  0
  1  2  2  3
  1  4  1  0
  1  5  1  0
  2  3  1  0
  2  6  1  0
  3  7  1  0
  3  8  1  0
  3  9  1  0
M  END
>  <reaction>  (3) 
rxn_1665

>  <mol_properties>  (3) 
{"1": {"label": "acceptor", "atom_type": "Cd"}, "8": {"label": "a_hydrogen", "atom_type": "H0"}}

>  <type>  (3) 
r2h

$$$$

     RDKit          3D

 18 16  0  0  0  0  0  0  0  0999 V2000
    0.8304    1.7380   -1.4872 C   0  0  0  0  0  0  0  0  0  0  0  0
    0.1864    1.4817   -0.3693 C   0  0  0  0  0  0  0  0  0  0  0  0
   -0.7181    2.3252    0.4482 C   0  0  0  0  0  0  0  0  0  0  0  0
    1.4566    0.9912   -1.9623 H   0  0  0  0  0  0  0  0  0  0  0  0
    0.7608    2.7082   -1.9752 H   0  0  0  0  0  0  0  0  0  0  0  0
   -0.3249    2.4468    1.4601 H   0  0  0  0  0  0  0  0  0  0  0  0
   -0.8455    3.3163    0.0038 H   0  0  0  0  0  0  0  0  0  0  0  0
   -1.7015    1.8582    0.5418 H   0  0  0  0  0  0  0  0  0  0  0  0
   -1.3733   -1.7095   -0.7387 C   0  0  0  0  0  0  0  0  0  0  0  0
   -0.4334   -1.9468    0.1711 C   0  0  0  0  0  0  0  0  0  0  0  0
    0.5353   -0.9680    0.6172 C   0  0  0  0  0  3  0  0  0  0  0  0
    1.5446   -1.1096    1.4562 C   0  0  0  0  0  0  0  0  0  0  0  0
   -1.4616   -0.7390   -1.2136 H   0  0  0  0  0  0  0  0  0  0  0  0
   -2.0732   -2.4783   -1.0385 H   0  0  0  0  0  0  0  0  0  0  0  0
   -0.3637   -2.9342    0.6270 H   0  0  0  0  0  0  0  0  0  0  0  0
    0.3557    0.2665    0.1121 H   0  0  0  0  0  0  0  0  0  0  0  0
    1.7636   -2.0659    1.9270 H   0  0  0  0  0  0  0  0  0  0  0  0
    2.1964   -0.2795    1.7036 H   0  0  0  0  0  0  0  0  0  0  0  0
  1  2  2  3
  1  4  1  0
  1  5  1  0
  2  3  1  0
  2 16  1  0
  3  6  1  0
  3  7  1  0
  3  8  1  0
  9 10  2  3
  9 13  1  0
  9 14  1  0
 10 11  1  0
 10 15  1  0
 11 12  2  3
 12 17  1  0
 12 18  1  0
M  RAD  1  11   2
M  END
>  <reaction>  (4) 
rxn_1665

>  <mol_properties>  (4) 
{"0": {"label": "*0", "atom_type": "Cd"}, "1": {"label": "*1", "atom_type": "Cd"}, "9": {"label": "*4", "atom_type": "Cd"}, "10": {"label": "*3", "atom_type": "Cd"}, "15": {"label": "*2", "atom_type": "H0"}}

>  <type>  (4) 
ts

$$$$

     RDKit          3D

 18 16  0  0  0  0  0  0  0  0999 V2000
   -1.0878    2.2763   -0.3307 C   0  0  0  0  0  0  0  0  0  0  0  0
   -0.0831    1.4355   -0.5202 C   0  0  0  0  0  3  0  0  0  0  0  0
    1.3609    1.8179   -0.5724 C   0  0  0  0  0  0  0  0  0  0  0  0
   -2.1149    1.9347   -0.3032 H   0  0  0  0  0  0  0  0  0  0  0  0
   -0.9184    3.3394   -0.1958 H   0  0  0  0  0  0  0  0  0  0  0  0
    1.8031    1.5374   -1.5318 H   0  0  0  0  0  0  0  0  0  0  0  0
    1.4943    2.8915   -0.4335 H   0  0  0  0  0  0  0  0  0  0  0  0
    1.9294    1.2972    0.2025 H   0  0  0  0  0  0  0  0  0  0  0  0
   -0.0831   -2.0401   -1.3763 C   0  0  0  0  0  0  0  0  0  0  0  0
   -0.0831   -2.0401   -0.0474 C   0  0  0  0  0  0  0  0  0  0  0  0
   -0.0831   -0.8327    0.7678 C   0  0  0  0  0  0  0  0  0  0  0  0
   -0.0831   -0.8327    2.0967 C   0  0  0  0  0  0  0  0  0  0  0  0
   -0.0831   -1.1135   -1.9398 H   0  0  0  0  0  0  0  0  0  0  0  0
   -0.0831   -2.9616   -1.9435 H   0  0  0  0  0  0  0  0  0  0  0  0
   -0.0831   -2.9850    0.4892 H   0  0  0  0  0  0  0  0  0  0  0  0
   -0.0831    0.3012    0.1239 H   0  0  0  0  0  0  0  0  0  0  0  0
   -0.0831   -1.7593    2.6602 H   0  0  0  0  0  0  0  0  0  0  0  0
   -0.0831    0.0888    2.6639 H   0  0  0  0  0  0  0  0  0  0  0  0
  1  2  2  3
  1  4  1  0
  1  5  1  0
  2  3  1  0
  3  6  1  0
  3  7  1  0
  3  8  1  0
  9 10  2  3
  9 13  1  0
  9 14  1  0
 10 11  1  0
 10 15  1  0
 11 12  2  3
 11 16  1  0
 12 17  1  0
 12 18  1  0
M  RAD  1   2   2
M  END
>  <reaction>  (5) 
rxn_1665

>  <mol_properties>  (5) 
{"0": {"label": "*0", "atom_type": "Cd"}, "1": {"label": "*1", "atom_type": "Cd"}, "9": {"label": "*4", "atom_type": "Cd"}, "10": {"label": "*3", "atom_type": "Cd"}, "15": {"label": "*2", "atom_type": "H0"}}

>  <type>  (5) 
unop_1

>  <geom_source>  (5) 
Heuristics

$$$$

     RDKit          3D

 18 16  0  0  0  0  0  0  0  0999 V2000
   -0.5450    1.4832   -1.6440 C   0  0  0  0  0  0  0  0  0  0  0  0
    0.0350    1.4250   -0.4555 C   0  0  0  0  0  3  0  0  0  0  0  0
    0.3694    2.6059    0.3977 C   0  0  0  0  0  0  0  0  0  0  0  0
   -0.7610    0.5880   -2.2134 H   0  0  0  0  0  0  0  0  0  0  0  0
   -0.8254    2.4312   -2.0911 H   0  0  0  0  0  0  0  0  0  0  0  0
    1.4425    2.6472    0.6013 H   0  0  0  0  0  0  0  0  0  0  0  0
    0.0743    3.5402   -0.0815 H   0  0  0  0  0  0  0  0  0  0  0  0
   -0.1342    2.5414    1.3657 H   0  0  0  0  0  0  0  0  0  0  0  0
    0.0350   -2.0505   -1.3116 C   0  0  0  0  0  0  0  0  0  0  0  0
    0.0350   -2.0505    0.0173 C   0  0  0  0  0  0  0  0  0  0  0  0
    0.0350   -0.8432    0.8326 C   0  0  0  0  0  0  0  0  0  0  0  0
    0.0350   -0.8432    2.1615 C   0  0  0  0  0  0  0  0  0  0  0  0
    0.0350   -1.1239   -1.8750 H   0  0  0  0  0  0  0  0  0  0  0  0
    0.0350   -2.9721   -1.8788 H   0  0  0  0  0  0  0  0  0  0  0  0
    0.0350   -2.9955    0.5539 H   0  0  0  0  0  0  0  0  0  0  0  0
    0.0350    0.2907    0.1887 H   0  0  0  0  0  0  0  0  0  0  0  0
    0.0350   -1.7698    2.7249 H   0  0  0  0  0  0  0  0  0  0  0  0
    0.0350    0.0783    2.7287 H   0  0  0  0  0  0  0  0  0  0  0  0
  1  2  2  3
  1  4  1  0
  1  5  1  0
  2  3  1  0
  3  6  1  0
  3  7  1  0
  3  8  1  0
  9 10  2  3
  9 13  1  0
  9 14  1  0
 10 11  1  0
 10 15  1  0
 11 12  2  3
 11 16  1  0
 12 17  1  0
 12 18  1  0
M  RAD  1   2   2
M  END
>  <reaction>  (6) 
rxn_1665

>  <mol_properties>  (6) 
{"0": {"label": "*0", "atom_type": "Cd"}, "1": {"label": "*1", "atom_type": "Cd"}, "9": {"label": "*4", "atom_type": "Cd"}, "10": {"label": "*3", "atom_type": "Cd"}, "15": {"label": "*2", "atom_type": "H0"}}

>  <type>  (6) 
unop_2

>  <geom_source>  (6) 
Heuristics

$$$$

     RDKit          3D

 18 16  0  0  0  0  0  0  0  0999 V2000
   -0.6922    2.5088    0.1156 C   0  0  0  0  0  0  0  0  0  0  0  0
   -0.1121    1.4583   -0.4432 C   0  0  0  0  0  3  0  0  0  0  0  0
    1.1076    1.5063   -1.3058 C   0  0  0  0  0  0  0  0  0  0  0  0
   -1.5767    2.4065    0.7317 H   0  0  0  0  0  0  0  0  0  0  0  0
   -0.3020    3.5115   -0.0236 H   0  0  0  0  0  0  0  0  0  0  0  0
    0.8986    1.0981   -2.2980 H   0  0  0  0  0  0  0  0  0  0  0  0
    1.4722    2.5274   -1.4242 H   0  0  0  0  0  0  0  0  0  0  0  0
    1.9109    0.9014   -0.8774 H   0  0  0  0  0  0  0  0  0  0  0  0
   -0.1121   -2.0172   -1.2993 C   0  0  0  0  0  0  0  0  0  0  0  0
   -0.1121   -2.0172    0.0296 C   0  0  0  0  0  0  0  0  0  0  0  0
   -0.1121   -0.8099    0.8449 C   0  0  0  0  0  0  0  0  0  0  0  0
   -0.1121   -0.8099    2.1738 C   0  0  0  0  0  0  0  0  0  0  0  0
   -0.1121   -1.0906   -1.8628 H   0  0  0  0  0  0  0  0  0  0  0  0
   -0.1121   -2.9388   -1.8665 H   0  0  0  0  0  0  0  0  0  0  0  0
   -0.1121   -2.9622    0.5662 H   0  0  0  0  0  0  0  0  0  0  0  0
   -0.1121    0.3240    0.2009 H   0  0  0  0  0  0  0  0  0  0  0  0
   -0.1121   -1.7365    2.7372 H   0  0  0  0  0  0  0  0  0  0  0  0
   -0.1121    0.1117    2.7409 H   0  0  0  0  0  0  0  0  0  0  0  0
  1  2  2  3
  1  4  1  0
  1  5  1  0
  2  3  1  0
  3  6  1  0
  3  7  1  0
  3  8  1  0
  9 10  2  3
  9 13  1  0
  9 14  1  0
 10 11  1  0
 10 15  1  0
 11 12  2  3
 11 16  1  0
 12 17  1  0
 12 18  1  0
M  RAD  1   2   2
M  END
>  <reaction>  (7) 
rxn_1665

>  <mol_properties>  (7) 
{"0": {"label": "*0", "atom_type": "Cd"}, "1": {"label": "*1", "atom_type": "Cd"}, "9": {"label": "*4", "atom_type": "Cd"}, "10": {"label": "*3", "atom_type": "Cd"}, "15": {"label": "*2", "atom_type": "H0"}}

>  <type>  (7) 
unop_3

>  <geom_source>  (7) 
Heuristics

$$$$

     RDKit          3D

 18 16  0  0  0  0  0  0  0  0999 V2000
    0.9743    1.6876   -1.3218 C   0  0  0  0  0  0  0  0  0  0  0  0
   -0.0304    1.4197   -0.5025 C   0  0  0  0  0  3  0  0  0  0  0  0
   -0.7915    2.4355    0.2868 C   0  0  0  0  0  0  0  0  0  0  0  0
    1.4857    0.9038   -1.8662 H   0  0  0  0  0  0  0  0  0  0  0  0
    1.3221    2.7034   -1.4776 H   0  0  0  0  0  0  0  0  0  0  0  0
   -0.7210    2.2284    1.3577 H   0  0  0  0  0  0  0  0  0  0  0  0
   -0.4161    3.4435    0.1064 H   0  0  0  0  0  0  0  0  0  0  0  0
   -1.8535    2.4123    0.0291 H   0  0  0  0  0  0  0  0  0  0  0  0
   -0.0304   -2.0559   -1.3586 C   0  0  0  0  0  0  0  0  0  0  0  0
   -0.0304   -2.0559   -0.0298 C   0  0  0  0  0  0  0  0  0  0  0  0
   -0.0304   -0.8485    0.7855 C   0  0  0  0  0  0  0  0  0  0  0  0
   -0.0304   -0.8485    2.1144 C   0  0  0  0  0  0  0  0  0  0  0  0
   -0.0304   -1.1293   -1.9221 H   0  0  0  0  0  0  0  0  0  0  0  0
   -0.0304   -2.9774   -1.9258 H   0  0  0  0  0  0  0  0  0  0  0  0
   -0.0304   -3.0008    0.5069 H   0  0  0  0  0  0  0  0  0  0  0  0
   -0.0304    0.2854    0.1416 H   0  0  0  0  0  0  0  0  0  0  0  0
   -0.0304   -1.7751    2.6779 H   0  0  0  0  0  0  0  0  0  0  0  0
   -0.0304    0.0730    2.6816 H   0  0  0  0  0  0  0  0  0  0  0  0
  1  2  2  3
  1  4  1  0
  1  5  1  0
  2  3  1  0
  3  6  1  0
  3  7  1  0
  3  8  1  0
  9 10  2  3
  9 13  1  0
  9 14  1  0
 10 11  1  0
 10 15  1  0
 11 12  2  3
 11 16  1  0
 12 17  1  0
 12 18  1  0
M  RAD  1   2   2
M  END
>  <reaction>  (8) 
rxn_1665

>  <mol_properties>  (8) 
{"0": {"label": "*0", "atom_type": "Cd"}, "1": {"label": "*1", "atom_type": "Cd"}, "9": {"label": "*4", "atom_type": "Cd"}, "10": {"label": "*3", "atom_type": "Cd"}, "15": {"label": "*2", "atom_type": "H0"}}

>  <type>  (8) 
unop_4

>  <geom_source>  (8) 
Heuristics

$$$$

     RDKit          3D

 18 16  0  0  0  0  0  0  0  0999 V2000
    0.0000    2.5969    0.3343 C   0  0  0  0  0  0  0  0  0  0  0  0
    0.0000    1.4696   -0.3597 C   0  0  0  0  0  3  0  0  0  0  0  0
   -0.0000    1.3775   -1.8516 C   0  0  0  0  0  0  0  0  0  0  0  0
    0.0000    2.5955    1.4170 H   0  0  0  0  0  0  0  0  0  0  0  0
   -0.0000    3.5641   -0.1572 H   0  0  0  0  0  0  0  0  0  0  0  0
   -0.8777    0.8319   -2.2076 H   0  0  0  0  0  0  0  0  0  0  0  0
   -0.0000    2.3663   -2.3121 H   0  0  0  0  0  0  0  0  0  0  0  0
    0.8777    0.8319   -2.2076 H   0  0  0  0  0  0  0  0  0  0  0  0
    0.0000   -2.0059   -1.2158 C   0  0  0  0  0  0  0  0  0  0  0  0
    0.0000   -2.0059    0.1131 C   0  0  0  0  0  0  0  0  0  0  0  0
    0.0000   -0.7986    0.9284 C   0  0  0  0  0  0  0  0  0  0  0  0
    0.0000   -0.7986    2.2572 C   0  0  0  0  0  0  0  0  0  0  0  0
    0.0000   -1.0793   -1.7793 H   0  0  0  0  0  0  0  0  0  0  0  0
    0.0000   -2.9275   -1.7830 H   0  0  0  0  0  0  0  0  0  0  0  0
    0.0000   -2.9509    0.6497 H   0  0  0  0  0  0  0  0  0  0  0  0
    0.0000    0.3353    0.2844 H   0  0  0  0  0  0  0  0  0  0  0  0
    0.0000   -1.7252    2.8207 H   0  0  0  0  0  0  0  0  0  0  0  0
    0.0000    0.1229    2.8244 H   0  0  0  0  0  0  0  0  0  0  0  0
  1  2  2  3
  1  4  1  0
  1  5  1  0
  2  3  1  0
  3  6  1  0
  3  7  1  0
  3  8  1  0
  9 10  2  3
  9 13  1  0
  9 14  1  0
 10 11  1  0
 10 15  1  0
 11 12  2  3
 11 16  1  0
 12 17  1  0
 12 18  1  0
M  RAD  1   2   2
M  END
>  <reaction>  (9) 
rxn_1665

>  <mol_properties>  (9) 
{"0": {"label": "*0", "atom_type": "Cd"}, "1": {"label": "*1", "atom_type": "Cd"}, "9": {"label": "*4", "atom_type": "Cd"}, "10": {"label": "*3", "atom_type": "Cd"}, "15": {"label": "*2", "atom_type": "H0"}}

>  <type>  (9) 
unop_5

>  <geom_source>  (9) 
Heuristics

$$$$

     RDKit          3D

 18 16  0  0  0  0  0  0  0  0999 V2000
    1.1779    1.9755   -0.8491 C   0  0  0  0  0  0  0  0  0  0  0  0
    0.0178    1.4211   -0.5343 C   0  0  0  0  0  3  0  0  0  0  0  0
   -1.1794    2.1591   -0.0280 C   0  0  0  0  0  0  0  0  0  0  0  0
    2.0088    1.3835   -1.2116 H   0  0  0  0  0  0  0  0  0  0  0  0
    1.3384    3.0444   -0.7553 H   0  0  0  0  0  0  0  0  0  0  0  0
   -1.4780    1.7876    0.9557 H   0  0  0  0  0  0  0  0  0  0  0  0
   -0.9831    3.2289    0.0539 H   0  0  0  0  0  0  0  0  0  0  0  0
   -2.0346    2.0159   -0.6934 H   0  0  0  0  0  0  0  0  0  0  0  0
    0.0178   -2.0544   -1.3904 C   0  0  0  0  0  0  0  0  0  0  0  0
    0.0178   -2.0544   -0.0615 C   0  0  0  0  0  0  0  0  0  0  0  0
    0.0178   -0.8471    0.7538 C   0  0  0  0  0  0  0  0  0  0  0  0
    0.0178   -0.8471    2.0827 C   0  0  0  0  0  0  0  0  0  0  0  0
    0.0178   -1.1278   -1.9538 H   0  0  0  0  0  0  0  0  0  0  0  0
    0.0178   -2.9760   -1.9576 H   0  0  0  0  0  0  0  0  0  0  0  0
    0.0178   -2.9994    0.4751 H   0  0  0  0  0  0  0  0  0  0  0  0
    0.0178    0.2868    0.1099 H   0  0  0  0  0  0  0  0  0  0  0  0
    0.0178   -1.7737    2.6461 H   0  0  0  0  0  0  0  0  0  0  0  0
    0.0178    0.0745    2.6499 H   0  0  0  0  0  0  0  0  0  0  0  0
  1  2  2  3
  1  4  1  0
  1  5  1  0
  2  3  1  0
  3  6  1  0
  3  7  1  0
  3  8  1  0
  9 10  2  3
  9 13  1  0
  9 14  1  0
 10 11  1  0
 10 15  1  0
 11 12  2  3
 11 16  1  0
 12 17  1  0
 12 18  1  0
M  RAD  1   2   2
M  END
>  <reaction>  (10) 
rxn_1665

>  <mol_properties>  (10) 
{"0": {"label": "*0", "atom_type": "Cd"}, "1": {"label": "*1", "atom_type": "Cd"}, "9": {"label": "*4", "atom_type": "Cd"}, "10": {"label": "*3", "atom_type": "Cd"}, "15": {"label": "*2", "atom_type": "H0"}}

>  <type>  (10) 
unop_6

>  <geom_source>  (10) 
Heuristics

$$$$

     RDKit          3D

 18 16  0  0  0  0  0  0  0  0999 V2000
    1.0878    2.2763   -0.3307 C   0  0  0  0  0  0  0  0  0  0  0  0
    0.0831    1.4355   -0.5202 C   0  0  0  0  0  3  0  0  0  0  0  0
   -1.3609    1.8179   -0.5724 C   0  0  0  0  0  0  0  0  0  0  0  0
    2.1149    1.9347   -0.3032 H   0  0  0  0  0  0  0  0  0  0  0  0
    0.9184    3.3394   -0.1958 H   0  0  0  0  0  0  0  0  0  0  0  0
   -1.9294    1.2972    0.2025 H   0  0  0  0  0  0  0  0  0  0  0  0
   -1.4943    2.8915   -0.4335 H   0  0  0  0  0  0  0  0  0  0  0  0
   -1.8031    1.5374   -1.5318 H   0  0  0  0  0  0  0  0  0  0  0  0
    0.0831   -2.0401   -1.3763 C   0  0  0  0  0  0  0  0  0  0  0  0
    0.0831   -2.0401   -0.0474 C   0  0  0  0  0  0  0  0  0  0  0  0
    0.0831   -0.8327    0.7678 C   0  0  0  0  0  0  0  0  0  0  0  0
    0.0831   -0.8327    2.0967 C   0  0  0  0  0  0  0  0  0  0  0  0
    0.0831   -1.1135   -1.9398 H   0  0  0  0  0  0  0  0  0  0  0  0
    0.0831   -2.9616   -1.9435 H   0  0  0  0  0  0  0  0  0  0  0  0
    0.0831   -2.9850    0.4892 H   0  0  0  0  0  0  0  0  0  0  0  0
    0.0831    0.3012    0.1239 H   0  0  0  0  0  0  0  0  0  0  0  0
    0.0831   -1.7593    2.6602 H   0  0  0  0  0  0  0  0  0  0  0  0
    0.0831    0.0888    2.6639 H   0  0  0  0  0  0  0  0  0  0  0  0
  1  2  2  3
  1  4  1  0
  1  5  1  0
  2  3  1  0
  3  6  1  0
  3  7  1  0
  3  8  1  0
  9 10  2  3
  9 13  1  0
  9 14  1  0
 10 11  1  0
 10 15  1  0
 11 12  2  3
 11 16  1  0
 12 17  1  0
 12 18  1  0
M  RAD  1   2   2
M  END
>  <reaction>  (11) 
rxn_1665

>  <mol_properties>  (11) 
{"0": {"label": "*0", "atom_type": "Cd"}, "1": {"label": "*1", "atom_type": "Cd"}, "9": {"label": "*4", "atom_type": "Cd"}, "10": {"label": "*3", "atom_type": "Cd"}, "15": {"label": "*2", "atom_type": "H0"}}

>  <type>  (11) 
unop_7

>  <geom_source>  (11) 
Heuristics

$$$$

     RDKit          3D

 18 16  0  0  0  0  0  0  0  0999 V2000
   -1.1779    1.9755   -0.8491 C   0  0  0  0  0  0  0  0  0  0  0  0
   -0.0178    1.4211   -0.5343 C   0  0  0  0  0  3  0  0  0  0  0  0
    1.1794    2.1591   -0.0280 C   0  0  0  0  0  0  0  0  0  0  0  0
   -2.0088    1.3835   -1.2116 H   0  0  0  0  0  0  0  0  0  0  0  0
   -1.3384    3.0444   -0.7553 H   0  0  0  0  0  0  0  0  0  0  0  0
    2.0346    2.0159   -0.6934 H   0  0  0  0  0  0  0  0  0  0  0  0
    0.9831    3.2289    0.0539 H   0  0  0  0  0  0  0  0  0  0  0  0
    1.4780    1.7876    0.9557 H   0  0  0  0  0  0  0  0  0  0  0  0
   -0.0178   -2.0544   -1.3904 C   0  0  0  0  0  0  0  0  0  0  0  0
   -0.0178   -2.0544   -0.0615 C   0  0  0  0  0  0  0  0  0  0  0  0
   -0.0178   -0.8471    0.7538 C   0  0  0  0  0  0  0  0  0  0  0  0
   -0.0178   -0.8471    2.0827 C   0  0  0  0  0  0  0  0  0  0  0  0
   -0.0178   -1.1278   -1.9538 H   0  0  0  0  0  0  0  0  0  0  0  0
   -0.0178   -2.9760   -1.9576 H   0  0  0  0  0  0  0  0  0  0  0  0
   -0.0178   -2.9994    0.4751 H   0  0  0  0  0  0  0  0  0  0  0  0
   -0.0178    0.2868    0.1099 H   0  0  0  0  0  0  0  0  0  0  0  0
   -0.0178   -1.7737    2.6461 H   0  0  0  0  0  0  0  0  0  0  0  0
   -0.0178    0.0745    2.6499 H   0  0  0  0  0  0  0  0  0  0  0  0
  1  2  2  3
  1  4  1  0
  1  5  1  0
  2  3  1  0
  3  6  1  0
  3  7  1  0
  3  8  1  0
  9 10  2  3
  9 13  1  0
  9 14  1  0
 10 11  1  0
 10 15  1  0
 11 12  2  3
 11 16  1  0
 12 17  1  0
 12 18  1  0
M  RAD  1   2   2
M  END
>  <reaction>  (12) 
rxn_1665

>  <mol_properties>  (12) 
{"0": {"label": "*0", "atom_type": "Cd"}, "1": {"label": "*1", "atom_type": "Cd"}, "9": {"label": "*4", "atom_type": "Cd"}, "10": {"label": "*3", "atom_type": "Cd"}, "15": {"label": "*2", "atom_type": "H0"}}

>  <type>  (12) 
unop_8

>  <geom_source>  (12) 
Heuristics

$$$$

     RDKit          3D

 18 16  0  0  0  0  0  0  0  0999 V2000
    0.5450    1.4832   -1.6440 C   0  0  0  0  0  0  0  0  0  0  0  0
   -0.0350    1.4250   -0.4555 C   0  0  0  0  0  3  0  0  0  0  0  0
   -0.3694    2.6059    0.3977 C   0  0  0  0  0  0  0  0  0  0  0  0
    0.7610    0.5880   -2.2134 H   0  0  0  0  0  0  0  0  0  0  0  0
    0.8254    2.4312   -2.0911 H   0  0  0  0  0  0  0  0  0  0  0  0
    0.1342    2.5414    1.3657 H   0  0  0  0  0  0  0  0  0  0  0  0
   -0.0743    3.5402   -0.0815 H   0  0  0  0  0  0  0  0  0  0  0  0
   -1.4425    2.6472    0.6013 H   0  0  0  0  0  0  0  0  0  0  0  0
   -0.0350   -2.0505   -1.3116 C   0  0  0  0  0  0  0  0  0  0  0  0
   -0.0350   -2.0505    0.0173 C   0  0  0  0  0  0  0  0  0  0  0  0
   -0.0350   -0.8432    0.8326 C   0  0  0  0  0  0  0  0  0  0  0  0
   -0.0350   -0.8432    2.1615 C   0  0  0  0  0  0  0  0  0  0  0  0
   -0.0350   -1.1239   -1.8750 H   0  0  0  0  0  0  0  0  0  0  0  0
   -0.0350   -2.9721   -1.8788 H   0  0  0  0  0  0  0  0  0  0  0  0
   -0.0350   -2.9955    0.5539 H   0  0  0  0  0  0  0  0  0  0  0  0
   -0.0350    0.2907    0.1887 H   0  0  0  0  0  0  0  0  0  0  0  0
   -0.0350   -1.7698    2.7249 H   0  0  0  0  0  0  0  0  0  0  0  0
   -0.0350    0.0783    2.7287 H   0  0  0  0  0  0  0  0  0  0  0  0
  1  2  2  3
  1  4  1  0
  1  5  1  0
  2  3  1  0
  3  6  1  0
  3  7  1  0
  3  8  1  0
  9 10  2  3
  9 13  1  0
  9 14  1  0
 10 11  1  0
 10 15  1  0
 11 12  2  3
 11 16  1  0
 12 17  1  0
 12 18  1  0
M  RAD  1   2   2
M  END
>  <reaction>  (13) 
rxn_1665

>  <mol_properties>  (13) 
{"0": {"label": "*0", "atom_type": "Cd"}, "1": {"label": "*1", "atom_type": "Cd"}, "9": {"label": "*4", "atom_type": "Cd"}, "10": {"label": "*3", "atom_type": "Cd"}, "15": {"label": "*2", "atom_type": "H0"}}

>  <type>  (13) 
unop_9

>  <geom_source>  (13) 
Heuristics

$$$$

     RDKit          3D

 18 16  0  0  0  0  0  0  0  0999 V2000
   -0.9743    1.6876   -1.3218 C   0  0  0  0  0  0  0  0  0  0  0  0
    0.0304    1.4197   -0.5025 C   0  0  0  0  0  3  0  0  0  0  0  0
    0.7915    2.4355    0.2868 C   0  0  0  0  0  0  0  0  0  0  0  0
   -1.4857    0.9038   -1.8662 H   0  0  0  0  0  0  0  0  0  0  0  0
   -1.3221    2.7034   -1.4776 H   0  0  0  0  0  0  0  0  0  0  0  0
    1.8535    2.4123    0.0291 H   0  0  0  0  0  0  0  0  0  0  0  0
    0.4161    3.4435    0.1064 H   0  0  0  0  0  0  0  0  0  0  0  0
    0.7210    2.2284    1.3577 H   0  0  0  0  0  0  0  0  0  0  0  0
    0.0304   -2.0559   -1.3586 C   0  0  0  0  0  0  0  0  0  0  0  0
    0.0304   -2.0559   -0.0298 C   0  0  0  0  0  0  0  0  0  0  0  0
    0.0304   -0.8485    0.7855 C   0  0  0  0  0  0  0  0  0  0  0  0
    0.0304   -0.8485    2.1144 C   0  0  0  0  0  0  0  0  0  0  0  0
    0.0304   -1.1293   -1.9221 H   0  0  0  0  0  0  0  0  0  0  0  0
    0.0304   -2.9774   -1.9258 H   0  0  0  0  0  0  0  0  0  0  0  0
    0.0304   -3.0008    0.5069 H   0  0  0  0  0  0  0  0  0  0  0  0
    0.0304    0.2854    0.1416 H   0  0  0  0  0  0  0  0  0  0  0  0
    0.0304   -1.7751    2.6779 H   0  0  0  0  0  0  0  0  0  0  0  0
    0.0304    0.0730    2.6816 H   0  0  0  0  0  0  0  0  0  0  0  0
  1  2  2  3
  1  4  1  0
  1  5  1  0
  2  3  1  0
  3  6  1  0
  3  7  1  0
  3  8  1  0
  9 10  2  3
  9 13  1  0
  9 14  1  0
 10 11  1  0
 10 15  1  0
 11 12  2  3
 11 16  1  0
 12 17  1  0
 12 18  1  0
M  RAD  1   2   2
M  END
>  <reaction>  (14) 
rxn_1665

>  <mol_properties>  (14) 
{"0": {"label": "*0", "atom_type": "Cd"}, "1": {"label": "*1", "atom_type": "Cd"}, "9": {"label": "*4", "atom_type": "Cd"}, "10": {"label": "*3", "atom_type": "Cd"}, "15": {"label": "*2", "atom_type": "H0"}}

>  <type>  (14) 
unop_10

>  <geom_source>  (14) 
Heuristics

$$$$

     RDKit          3D

 18 16  0  0  0  0  0  0  0  0999 V2000
    0.6922    2.5088    0.1156 C   0  0  0  0  0  0  0  0  0  0  0  0
    0.1121    1.4583   -0.4432 C   0  0  0  0  0  3  0  0  0  0  0  0
   -1.1076    1.5063   -1.3058 C   0  0  0  0  0  0  0  0  0  0  0  0
    1.5767    2.4065    0.7317 H   0  0  0  0  0  0  0  0  0  0  0  0
    0.3020    3.5115   -0.0236 H   0  0  0  0  0  0  0  0  0  0  0  0
   -1.9109    0.9014   -0.8774 H   0  0  0  0  0  0  0  0  0  0  0  0
   -1.4722    2.5274   -1.4242 H   0  0  0  0  0  0  0  0  0  0  0  0
   -0.8986    1.0981   -2.2980 H   0  0  0  0  0  0  0  0  0  0  0  0
    0.1121   -2.0172   -1.2993 C   0  0  0  0  0  0  0  0  0  0  0  0
    0.1121   -2.0172    0.0296 C   0  0  0  0  0  0  0  0  0  0  0  0
    0.1121   -0.8099    0.8449 C   0  0  0  0  0  0  0  0  0  0  0  0
    0.1121   -0.8099    2.1738 C   0  0  0  0  0  0  0  0  0  0  0  0
    0.1121   -1.0906   -1.8628 H   0  0  0  0  0  0  0  0  0  0  0  0
    0.1121   -2.9388   -1.8665 H   0  0  0  0  0  0  0  0  0  0  0  0
    0.1121   -2.9622    0.5662 H   0  0  0  0  0  0  0  0  0  0  0  0
    0.1121    0.3240    0.2009 H   0  0  0  0  0  0  0  0  0  0  0  0
    0.1121   -1.7365    2.7372 H   0  0  0  0  0  0  0  0  0  0  0  0
    0.1121    0.1117    2.7409 H   0  0  0  0  0  0  0  0  0  0  0  0
  1  2  2  3
  1  4  1  0
  1  5  1  0
  2  3  1  0
  3  6  1  0
  3  7  1  0
  3  8  1  0
  9 10  2  3
  9 13  1  0
  9 14  1  0
 10 11  1  0
 10 15  1  0
 11 12  2  3
 11 16  1  0
 12 17  1  0
 12 18  1  0
M  RAD  1   2   2
M  END
>  <reaction>  (15) 
rxn_1665

>  <mol_properties>  (15) 
{"0": {"label": "*0", "atom_type": "Cd"}, "1": {"label": "*1", "atom_type": "Cd"}, "9": {"label": "*4", "atom_type": "Cd"}, "10": {"label": "*3", "atom_type": "Cd"}, "15": {"label": "*2", "atom_type": "H0"}}

>  <type>  (15) 
unop_11

>  <geom_source>  (15) 
Heuristics

$$$$

     RDKit          3D

 18 16  0  0  0  0  0  0  0  0999 V2000
   -0.0000    1.4096   -1.7564 C   0  0  0  0  0  0  0  0  0  0  0  0
   -0.0000    1.4281   -0.4327 C   0  0  0  0  0  3  0  0  0  0  0  0
    0.0000    2.6622    0.4106 C   0  0  0  0  0  0  0  0  0  0  0  0
   -0.0000    0.4791   -2.3099 H   0  0  0  0  0  0  0  0  0  0  0  0
    0.0000    2.3272   -2.3353 H   0  0  0  0  0  0  0  0  0  0  0  0
    0.8777    2.6884    1.0615 H   0  0  0  0  0  0  0  0  0  0  0  0
    0.0000    3.5642   -0.2027 H   0  0  0  0  0  0  0  0  0  0  0  0
   -0.8777    2.6884    1.0615 H   0  0  0  0  0  0  0  0  0  0  0  0
   -0.0000   -2.0474   -1.2888 C   0  0  0  0  0  0  0  0  0  0  0  0
   -0.0000   -2.0474    0.0400 C   0  0  0  0  0  0  0  0  0  0  0  0
   -0.0000   -0.8401    0.8553 C   0  0  0  0  0  0  0  0  0  0  0  0
   -0.0000   -0.8401    2.1842 C   0  0  0  0  0  0  0  0  0  0  0  0
   -0.0000   -1.1208   -1.8523 H   0  0  0  0  0  0  0  0  0  0  0  0
    0.0000   -2.9689   -1.8560 H   0  0  0  0  0  0  0  0  0  0  0  0
   -0.0000   -2.9923    0.5767 H   0  0  0  0  0  0  0  0  0  0  0  0
   -0.0000    0.2939    0.2114 H   0  0  0  0  0  0  0  0  0  0  0  0
   -0.0000   -1.7667    2.7477 H   0  0  0  0  0  0  0  0  0  0  0  0
   -0.0000    0.0815    2.7514 H   0  0  0  0  0  0  0  0  0  0  0  0
  1  2  2  3
  1  4  1  0
  1  5  1  0
  2  3  1  0
  3  6  1  0
  3  7  1  0
  3  8  1  0
  9 10  2  3
  9 13  1  0
  9 14  1  0
 10 11  1  0
 10 15  1  0
 11 12  2  3
 11 16  1  0
 12 17  1  0
 12 18  1  0
M  RAD  1   2   2
M  END
>  <reaction>  (16) 
rxn_1665

>  <mol_properties>  (16) 
{"0": {"label": "*0", "atom_type": "Cd"}, "1": {"label": "*1", "atom_type": "Cd"}, "9": {"label": "*4", "atom_type": "Cd"}, "10": {"label": "*3", "atom_type": "Cd"}, "15": {"label": "*2", "atom_type": "H0"}}

>  <type>  (16) 
unop_12

>  <geom_source>  (16) 
Heuristics

$$$$

     RDKit          3D

 18 16  0  0  0  0  0  0  0  0999 V2000
    2.4952    0.4863    0.0587 C   0  0  0  0  0  0  0  0  0  0  0  0
    1.3461   -0.4219   -0.2462 C   0  0  0  0  0  3  0  0  0  0  0  0
   -1.8524   -0.5587    0.2441 C   0  0  0  0  0  0  0  0  0  0  0  0
    1.4160   -1.7319   -0.0040 C   0  0  0  0  0  0  0  0  0  0  0  0
   -2.6658    0.0436    1.1128 C   0  0  0  0  0  0  0  0  0  0  0  0
   -1.1155    1.4425   -1.0691 C   0  0  0  0  0  0  0  0  0  0  0  0
   -1.0974    0.1339   -0.8207 C   0  0  0  0  0  0  0  0  0  0  0  0
    2.2264    1.5267   -0.2178 H   0  0  0  0  0  0  0  0  0  0  0  0
    3.3885    0.1776   -0.5245 H   0  0  0  0  0  0  0  0  0  0  0  0
    2.7299    0.4509    1.1436 H   0  0  0  0  0  0  0  0  0  0  0  0
    0.2202    0.0940   -0.7752 H   0  0  0  0  0  0  0  0  0  0  0  0
   -1.7300   -1.6317    0.3164 H   0  0  0  0  0  0  0  0  0  0  0  0
    0.5687   -2.3687   -0.2342 H   0  0  0  0  0  0  0  0  0  0  0  0
    2.3114   -2.1747    0.4220 H   0  0  0  0  0  0  0  0  0  0  0  0
   -2.8397    1.1094    1.1049 H   0  0  0  0  0  0  0  0  0  0  0  0
   -3.1788   -0.5466    1.8611 H   0  0  0  0  0  0  0  0  0  0  0  0
   -1.7065    2.1376   -0.4912 H   0  0  0  0  0  0  0  0  0  0  0  0
   -0.5165    1.8316   -1.8808 H   0  0  0  0  0  0  0  0  0  0  0  0
  1  2  1  0
  1  8  1  0
  1  9  1  0
  1 10  1  0
  2  4  2  3
  3  5  2  3
  3  7  1  0
  3 12  1  0
  4 13  1  0
  4 14  1  0
  5 15  1  0
  5 16  1  0
  6  7  2  3
  6 17  1  0
  6 18  1  0
  7 11  1  0
M  RAD  1   2   2
M  END
>  <reaction>  (17) 
rxn_1665

>  <mol_properties>  (17) 
{"0": {"label": "*0", "atom_type": "Cd"}, "1": {"label": "*1", "atom_type": "Cd"}, "9": {"label": "*4", "atom_type": "Cd"}, "10": {"label": "*3", "atom_type": "Cd"}, "15": {"label": "*2", "atom_type": "H0"}}

>  <type>  (17) 
unop_13

>  <geom_source>  (17) 
AutoTST

$$$$
