
     RDKit          3D

  7  6  0  0  0  0  0  0  0  0999 V2000
    1.2985   -0.0065   -0.2721 C   0  0  0  0  0  0  0  0  0  0  0  0
    0.0000    0.0000   -0.2926 C   0  0  0  0  0  0  0  0  0  0  0  0
   -1.2985    0.0065   -0.3130 C   0  0  0  0  0  0  0  0  0  0  0  0
    1.8444   -0.7551    0.2895 H   0  0  0  0  0  0  0  0  0  0  0  0
    1.8693    0.7364   -0.8162 H   0  0  0  0  0  0  0  0  0  0  0  0
   -1.8658    0.5623    0.4239 H   0  0  0  0  0  0  0  0  0  0  0  0
   -1.8479   -0.5437   -1.0675 H   0  0  0  0  0  0  0  0  0  0  0  0
  1  2  2  0
  1  4  1  0
  1  5  1  0
  2  3  2  0
  3  6  1  0
  3  7  1  0
M  END
>  <reaction>  (1) 
rxn_248

>  <mol_properties>  (1) 
{"0": {"label": "donator", "atom_type": "Cd"}, "3": {"label": "d_hydrogen", "atom_type": "H0"}}

>  <type>  (1) 
r1h

$$$$

     RDKit          3D

  1  0  0  0  0  0  0  0  0  0999 V2000
    0.0000    0.0000    0.0000 H   0  0  0  0  0 15  0  0  0  0  0  0
M  END
>  <reaction>  (2) 
rxn_248

>  <mol_properties>  (2) 
{"0": {"label": "acceptor", "atom_type": "H0"}}

>  <type>  (2) 
r2

$$$$

     RDKit          3D

  2  1  0  0  0  0  0  0  0  0999 V2000
    0.0000    0.0000    0.3721 H   0  0  0  0  0  0  0  0  0  0  0  0
    0.0000    0.0000   -0.3721 H   0  0  0  0  0  0  0  0  0  0  0  0
  1  2  1  0
M  END
>  <reaction>  (3) 
rxn_248

>  <mol_properties>  (3) 
{"0": {"label": "a_hydrogen", "atom_type": "H0"}, "1": {"label": "acceptor", "atom_type": "H0"}}

>  <type>  (3) 
r2h

$$$$

     RDKit          3D

  8  6  0  0  0  0  0  0  0  0999 V2000
    0.0726    0.0979    1.2274 C   0  0  0  0  0  0  0  0  0  0  0  0
    0.0670    0.0904   -0.0514 C   0  0  0  0  0  0  0  0  0  0  0  0
    0.0149    0.0201   -1.3574 C   0  0  0  0  0  0  0  0  0  0  0  0
   -0.5969   -0.8049    1.8172 H   0  0  0  0  0  0  0  0  0  0  0  0
    0.5651    0.7621    1.9210 H   0  0  0  0  0  0  0  0  0  0  0  0
   -0.7483    0.5504   -1.9134 H   0  0  0  0  0  0  0  0  0  0  0  0
    0.7440   -0.5562   -1.9134 H   0  0  0  0  0  0  0  0  0  0  0  0
   -1.1072   -1.4932    2.3119 H   0  0  0  0  0 15  0  0  0  0  0  0
  1  2  2  0
  1  4  1  0
  1  5  1  0
  2  3  2  0
  3  6  1  0
  3  7  1  0
M  END
>  <reaction>  (4) 
rxn_248

>  <mol_properties>  (4) 
{"0": {"label": "*3", "atom_type": "Cd"}, "1": {"label": "*4", "atom_type": "Cdd"}, "3": {"label": "*2", "atom_type": "H0"}, "7": {"label": "*1", "atom_type": "H0"}}

>  <type>  (4) 
ts

$$$$

     RDKit          3D

  8  6  0  0  0  0  0  0  0  0999 V2000
    0.0302    0.0407    1.2363 C   0  0  0  0  0  0  0  0  0  0  0  0
    0.0302    0.0407   -0.0624 C   0  0  0  0  0  0  0  0  0  0  0  0
    0.0302    0.0407   -1.3611 C   0  0  0  0  0  0  0  0  0  0  0  0
   -0.6334   -0.8542    1.9064 H   0  0  0  0  0  0  0  0  0  0  0  0
    0.5832    0.7865    1.7947 H   0  0  0  0  0  0  0  0  0  0  0  0
   -0.7156    0.5937   -1.9195 H   0  0  0  0  0  0  0  0  0  0  0  0
    0.7760   -0.5123   -1.9195 H   0  0  0  0  0  0  0  0  0  0  0  0
   -1.0892   -1.4689    2.3666 H   0  0  0  0  0 15  0  0  0  0  0  0
  1  2  2  0
  1  4  1  0
  1  5  1  0
  2  3  2  0
  3  6  1  0
  3  7  1  0
M  END
>  <reaction>  (5) 
rxn_248

>  <mol_properties>  (5) 
{"0": {"label": "*3", "atom_type": "Cd"}, "1": {"label": "*4", "atom_type": "Cdd"}, "3": {"label": "*2", "atom_type": "H0"}, "7": {"label": "*1", "atom_type": "H0"}}

>  <type>  (5) 
unop_1

>  <geom_source>  (5) 
Heuristics

$$$$

     RDKit          3D

  8  6  0  0  0  0  0  0  0  0999 V2000
    1.5290    0.0996   -0.0182 C   0  0  0  0  0  0  0  0  0  0  0  0
    0.2613   -0.1984   -0.0472 C   0  0  0  0  0  0  0  0  0  0  0  0
   -1.0063   -0.4965   -0.0762 C   0  0  0  0  0  0  0  0  0  0  0  0
    2.2334   -0.5783    0.4441 H   0  0  0  0  0  0  0  0  0  0  0  0
    1.8772    1.0246   -0.4571 H   0  0  0  0  0  0  0  0  0  0  0  0
   -1.3461   -1.3596   -0.6320 H   0  0  0  0  0  0  0  0  0  0  0  0
   -2.0653    1.3497    0.4002 H   0  0  0  0  0 15  0  0  0  0  0  0
   -1.4832    0.1589    0.3864 H   0  0  0  0  0  0  0  0  0  0  0  0
  1  2  2  0
  1  4  1  0
  1  5  1  0
  2  3  2  0
  3  6  1  0
  3  8  1  0
M  END
>  <reaction>  (6) 
rxn_248

>  <mol_properties>  (6) 
{"0": {"label": "*3", "atom_type": "Cd"}, "1": {"label": "*4", "atom_type": "Cdd"}, "3": {"label": "*2", "atom_type": "H0"}, "7": {"label": "*1", "atom_type": "H0"}}

>  <type>  (6) 
unop_2

>  <geom_source>  (6) 
AutoTST

$$$$

     RDKit          3D

  8  6  0  0  0  0  0  0  0  0999 V2000
   -0.9485   -0.1667   -0.1827 C   0  0  0  0  0  0  0  0  0  0  0  0
    1.6421   -0.3029    0.0543 C   0  0  0  0  0  0  0  0  0  0  0  0
    0.3468   -0.2349   -0.0643 C   0  0  0  0  0  0  0  0  0  0  0  0
   -1.6193    0.8151    0.4123 H   0  0  0  0  0  0  0  0  0  0  0  0
   -1.4781   -0.9083   -0.7649 H   0  0  0  0  0  0  0  0  0  0  0  0
    2.1714    0.4388    0.6367 H   0  0  0  0  0  0  0  0  0  0  0  0
    2.1881   -1.1011   -0.4295 H   0  0  0  0  0  0  0  0  0  0  0  0
   -2.3024    1.4601    0.3381 H   0  0  0  0  0 15  0  0  0  0  0  0
  1  3  2  0
  1  4  1  0
  1  5  1  0
  2  3  2  0
  2  6  1  0
  2  7  1  0
M  END
>  <reaction>  (7) 
rxn_248

>  <mol_properties>  (7) 
{"0": {"label": "*3", "atom_type": "Cd"}, "1": {"label": "*4", "atom_type": "Cdd"}, "3": {"label": "*2", "atom_type": "H0"}, "7": {"label": "*1", "atom_type": "H0"}}

>  <type>  (7) 
unop_3

>  <geom_source>  (7) 
gaussian_log

$$$$
