
     RDKit          3D

 12 11  0  0  0  0  0  0  0  0999 V2000
    2.1696    0.6854    1.1310 C   0  0  0  0  0  0  0  0  0  0  0  0
    1.2518    0.4145    0.4134 C   0  0  0  0  0  0  0  0  0  0  0  0
    0.1391    0.0443   -0.4683 C   0  0  0  0  0  0  0  0  0  0  0  0
   -0.2054   -1.4492   -0.3339 C   0  0  0  0  0  0  0  0  0  0  0  0
   -1.0375    0.8853   -0.2222 C   0  0  0  0  0  0  0  0  0  0  0  0
   -2.0160    1.5463   -0.0311 C   0  0  0  0  0  0  0  0  0  0  0  0
    2.9819    0.9356    1.7702 H   0  0  0  0  0  0  0  0  0  0  0  0
    0.4629    0.2285   -1.4981 H   0  0  0  0  0  0  0  0  0  0  0  0
   -0.5327   -1.6703    0.6812 H   0  0  0  0  0  0  0  0  0  0  0  0
    0.6727   -2.0535   -0.5593 H   0  0  0  0  0  0  0  0  0  0  0  0
   -1.0064   -1.7081   -1.0256 H   0  0  0  0  0  0  0  0  0  0  0  0
   -2.8802    2.1413    0.1426 H   0  0  0  0  0  0  0  0  0  0  0  0
  1  2  3  0
  1  7  1  0
  2  3  1  0
  3  4  1  0
  3  5  1  0
  3  8  1  0
  4  9  1  0
  4 10  1  0
  4 11  1  0
  5  6  3  0
  6 12  1  0
M  END
>  <reaction>  (1) 
rxn_1430

>  <mol_properties>  (1) 
{"2": {"label": "donator", "atom_type": "Cs"}, "7": {"label": "d_hydrogen", "atom_type": "H0"}}

>  <type>  (1) 
r1h

$$$$

     RDKit          3D

  4  3  0  0  0  0  0  0  0  0999 V2000
   -0.7528   -0.8706   -0.3839 S   0  0  0  0  0  0  0  0  0  0  0  0
    0.7502   -0.2564   -0.0649 C   0  0  0  0  0  3  0  0  0  0  0  0
    1.5655    0.9691    0.4633 S   0  0  0  0  0  0  0  0  0  0  0  0
   -1.5629    0.1579   -0.0146 H   0  0  0  0  0  0  0  0  0  0  0  0
  1  2  1  0
  1  4  1  0
  2  3  2  0
M  RAD  1   2   2
M  END
>  <reaction>  (2) 
rxn_1430

>  <mol_properties>  (2) 
{"1": {"label": "acceptor", "atom_type": "CS"}}

>  <type>  (2) 
r2

$$$$

     RDKit          3D

  5  4  0  0  0  0  0  0  0  0999 V2000
    1.2280   -0.4626    0.1225 S   0  0  0  0  0  0  0  0  0  0  0  0
   -0.4732   -0.2566   -0.0746 C   0  0  0  0  0  0  0  0  0  0  0  0
   -1.3314    1.1074   -0.0947 S   0  0  0  0  0  0  0  0  0  0  0  0
    1.5289    0.8405    0.2416 H   0  0  0  0  0  0  0  0  0  0  0  0
   -0.9523   -1.2286   -0.1949 H   0  0  0  0  0  0  0  0  0  0  0  0
  1  2  1  0
  1  4  1  0
  2  3  2  0
  2  5  1  0
M  END
>  <reaction>  (3) 
rxn_1430

>  <mol_properties>  (3) 
{"0": {"label": "a_hydrogen", "atom_type": "H0"}, "2": {"label": "acceptor", "atom_type": "CS"}}

>  <type>  (3) 
r2h

$$$$

     RDKit          3D

 16 14  0  0  0  0  0  0  0  0999 V2000
   -1.3137    0.1992   -2.9825 C   0  0  0  0  0  0  0  0  0  0  0  0
   -1.4164    0.1764   -1.7873 C   0  0  0  0  0  0  0  0  0  0  0  0
   -1.4703    0.1851   -0.3490 C   0  0  0  0  0  0  0  0  0  0  0  0
   -1.9315    1.4938    0.2795 C   0  0  0  0  0  0  0  0  0  0  0  0
   -2.0176   -1.0021    0.2493 C   0  0  0  0  0  0  0  0  0  0  0  0
   -2.4278   -1.9862    0.7995 C   0  0  0  0  0  0  0  0  0  0  0  0
   -1.2404    0.2108   -4.0433 H   0  0  0  0  0  0  0  0  0  0  0  0
   -0.2148    0.1453    0.0176 H   0  0  0  0  0  0  0  0  0  0  0  0
   -2.9977    1.6488    0.1060 H   0  0  0  0  0  0  0  0  0  0  0  0
   -1.3819    2.3292   -0.1538 H   0  0  0  0  0  0  0  0  0  0  0  0
   -1.7522    1.4688    1.3546 H   0  0  0  0  0  0  0  0  0  0  0  0
   -2.8036   -2.8596    1.2755 H   0  0  0  0  0  0  0  0  0  0  0  0
    2.1289   -0.1121   -0.8030 S   0  0  0  0  0  0  0  0  0  0  0  0
    1.1058    0.1621    0.5216 C   0  0  0  0  0  3  0  0  0  0  0  0
    1.3069    0.3847    2.0793 S   0  0  0  0  0  0  0  0  0  0  0  0
    3.3118   -0.1015   -0.1548 H   0  0  0  0  0  0  0  0  0  0  0  0
  1  2  3  0
  1  7  1  0
  2  3  1  0
  3  4  1  0
  3  5  1  0
  3  8  1  0
  4  9  1  0
  4 10  1  0
  4 11  1  0
  5  6  3  0
  6 12  1  0
 13 14  1  0
 13 16  1  0
 14 15  2  0
M  RAD  1  14   2
M  END
>  <reaction>  (4) 
rxn_1430

>  <mol_properties>  (4) 
{"1": {"label": "*0", "atom_type": "Ct"}, "2": {"label": "*1", "atom_type": "Cs"}, "7": {"label": "*2", "atom_type": "H0"}, "12": {"label": "*4", "atom_type": "S2s"}, "13": {"label": "*3", "atom_type": "CS"}}

>  <type>  (4) 
ts

$$$$

     RDKit          3D

 16 14  0  0  0  0  0  0  0  0999 V2000
   -1.2109    0.1512   -3.1513 C   0  0  0  0  0  0  0  0  0  0  0  0
   -1.2109    0.1512   -1.9551 C   0  0  0  0  0  0  0  0  0  0  0  0
   -1.2109    0.1913   -0.4886 C   0  0  0  0  0  3  0  0  0  0  0  0
   -1.8489    1.4905    0.0334 C   0  0  0  0  0  0  0  0  0  0  0  0
   -1.8727   -0.9900    0.0762 C   0  0  0  0  0  0  0  0  0  0  0  0
   -2.4209   -1.9353    0.5627 C   0  0  0  0  0  0  0  0  0  0  0  0
   -1.2109    0.1512   -4.2147 H   0  0  0  0  0  0  0  0  0  0  0  0
    0.0427    0.1640   -0.0954 H   0  0  0  0  0  0  0  0  0  0  0  0
   -2.8922    1.5477   -0.2743 H   0  0  0  0  0  0  0  0  0  0  0  0
   -1.3163    2.3519   -0.3682 H   0  0  0  0  0  0  0  0  0  0  0  0
   -1.8017    1.5149    1.1217 H   0  0  0  0  0  0  0  0  0  0  0  0
   -2.9084   -2.7757    0.9952 H   0  0  0  0  0  0  0  0  0  0  0  0
    1.6501    1.5571    1.2066 S   0  0  0  0  0  0  0  0  0  0  0  0
    1.2909    0.1369    0.2960 C   0  0  0  0  0  0  0  0  0  0  0  0
    1.7759   -1.3786    0.5521 S   0  0  0  0  0  0  0  0  0  0  0  0
    2.4218    0.9589    2.1282 H   0  0  0  0  0  0  0  0  0  0  0  0
  1  2  3  0
  1  7  1  0
  2  3  1  0
  3  4  1  0
  3  5  1  0
  4  9  1  0
  4 10  1  0
  4 11  1  0
  5  6  3  0
  6 12  1  0
  8 14  1  0
 13 14  1  0
 13 16  1  0
 14 15  2  0
M  RAD  1   3   2
M  END
>  <reaction>  (5) 
rxn_1430

>  <mol_properties>  (5) 
{"1": {"label": "*0", "atom_type": "Ct"}, "2": {"label": "*1", "atom_type": "Cs"}, "7": {"label": "*2", "atom_type": "H0"}, "12": {"label": "*4", "atom_type": "S2s"}, "13": {"label": "*3", "atom_type": "CS"}}

>  <type>  (5) 
unop_1

>  <geom_source>  (5) 
Heuristics

$$$$

     RDKit          3D

 16 14  0  0  0  0  0  0  0  0999 V2000
   -1.3162    0.0395   -2.9708 C   0  0  0  0  0  0  0  0  0  0  0  0
   -1.3162    0.0395   -1.7746 C   0  0  0  0  0  0  0  0  0  0  0  0
   -1.3162    0.0796   -0.3081 C   0  0  0  0  0  3  0  0  0  0  0  0
   -1.9542    1.3788    0.2139 C   0  0  0  0  0  0  0  0  0  0  0  0
   -1.9780   -1.1016    0.2567 C   0  0  0  0  0  0  0  0  0  0  0  0
   -2.5263   -2.0469    0.7432 C   0  0  0  0  0  0  0  0  0  0  0  0
   -1.3162    0.0395   -4.0342 H   0  0  0  0  0  0  0  0  0  0  0  0
   -0.0626    0.0524    0.0851 H   0  0  0  0  0  0  0  0  0  0  0  0
   -2.9975    1.4361   -0.0938 H   0  0  0  0  0  0  0  0  0  0  0  0
   -1.4216    2.2403   -0.1877 H   0  0  0  0  0  0  0  0  0  0  0  0
   -1.9070    1.4033    1.3022 H   0  0  0  0  0  0  0  0  0  0  0  0
   -3.0137   -2.8873    1.1757 H   0  0  0  0  0  0  0  0  0  0  0  0
    2.1881    0.7743   -0.7106 S   0  0  0  0  0  0  0  0  0  0  0  0
    1.1855    0.0252    0.4765 C   0  0  0  0  0  0  0  0  0  0  0  0
    1.5086   -0.2821    2.0253 S   0  0  0  0  0  0  0  0  0  0  0  0
    3.2464    0.9818    0.0893 H   0  0  0  0  0  0  0  0  0  0  0  0
  1  2  3  0
  1  7  1  0
  2  3  1  0
  3  4  1  0
  3  5  1  0
  4  9  1  0
  4 10  1  0
  4 11  1  0
  5  6  3  0
  6 12  1  0
  8 14  1  0
 13 14  1  0
 13 16  1  0
 14 15  2  0
M  RAD  1   3   2
M  END
>  <reaction>  (6) 
rxn_1430

>  <mol_properties>  (6) 
{"1": {"label": "*0", "atom_type": "Ct"}, "2": {"label": "*1", "atom_type": "Cs"}, "7": {"label": "*2", "atom_type": "H0"}, "12": {"label": "*4", "atom_type": "S2s"}, "13": {"label": "*3", "atom_type": "CS"}}

>  <type>  (6) 
unop_2

>  <geom_source>  (6) 
Heuristics

$$$$

     RDKit          3D

 16 14  0  0  0  0  0  0  0  0999 V2000
   -1.2536    0.2124   -3.1010 C   0  0  0  0  0  0  0  0  0  0  0  0
   -1.2536    0.2124   -1.9048 C   0  0  0  0  0  0  0  0  0  0  0  0
   -1.2536    0.2525   -0.4383 C   0  0  0  0  0  3  0  0  0  0  0  0
   -1.8917    1.5517    0.0837 C   0  0  0  0  0  0  0  0  0  0  0  0
   -1.9155   -0.9288    0.1265 C   0  0  0  0  0  0  0  0  0  0  0  0
   -2.4637   -1.8740    0.6130 C   0  0  0  0  0  0  0  0  0  0  0  0
   -1.2536    0.2124   -4.1645 H   0  0  0  0  0  0  0  0  0  0  0  0
   -0.0000    0.2252   -0.0452 H   0  0  0  0  0  0  0  0  0  0  0  0
   -2.9349    1.6090   -0.2241 H   0  0  0  0  0  0  0  0  0  0  0  0
   -1.3591    2.4131   -0.3180 H   0  0  0  0  0  0  0  0  0  0  0  0
   -1.8445    1.5761    1.1719 H   0  0  0  0  0  0  0  0  0  0  0  0
   -2.9511   -2.7145    1.0455 H   0  0  0  0  0  0  0  0  0  0  0  0
    1.4122    1.0458    1.8395 S   0  0  0  0  0  0  0  0  0  0  0  0
    1.2481    0.1981    0.3463 C   0  0  0  0  0  0  0  0  0  0  0  0
    2.1328   -1.0207   -0.2275 S   0  0  0  0  0  0  0  0  0  0  0  0
    2.4696    0.3547    2.2944 H   0  0  0  0  0  0  0  0  0  0  0  0
  1  2  3  0
  1  7  1  0
  2  3  1  0
  3  4  1  0
  3  5  1  0
  4  9  1  0
  4 10  1  0
  4 11  1  0
  5  6  3  0
  6 12  1  0
  8 14  1  0
 13 14  1  0
 13 16  1  0
 14 15  2  0
M  RAD  1   3   2
M  END
>  <reaction>  (7) 
rxn_1430

>  <mol_properties>  (7) 
{"1": {"label": "*0", "atom_type": "Ct"}, "2": {"label": "*1", "atom_type": "Cs"}, "7": {"label": "*2", "atom_type": "H0"}, "12": {"label": "*4", "atom_type": "S2s"}, "13": {"label": "*3", "atom_type": "CS"}}

>  <type>  (7) 
unop_3

>  <geom_source>  (7) 
Heuristics

$$$$

     RDKit          3D

 16 14  0  0  0  0  0  0  0  0999 V2000
   -1.2556    0.2726   -3.0641 C   0  0  0  0  0  0  0  0  0  0  0  0
   -1.2556    0.2726   -1.8679 C   0  0  0  0  0  0  0  0  0  0  0  0
   -1.2556    0.3127   -0.4014 C   0  0  0  0  0  3  0  0  0  0  0  0
   -1.8936    1.6119    0.1206 C   0  0  0  0  0  0  0  0  0  0  0  0
   -1.9174   -0.8686    0.1634 C   0  0  0  0  0  0  0  0  0  0  0  0
   -2.4657   -1.8139    0.6499 C   0  0  0  0  0  0  0  0  0  0  0  0
   -1.2556    0.2726   -4.1275 H   0  0  0  0  0  0  0  0  0  0  0  0
   -0.0020    0.2854   -0.0082 H   0  0  0  0  0  0  0  0  0  0  0  0
   -2.9369    1.6691   -0.1871 H   0  0  0  0  0  0  0  0  0  0  0  0
   -1.3610    2.4733   -0.2810 H   0  0  0  0  0  0  0  0  0  0  0  0
   -1.8464    1.6363    1.2088 H   0  0  0  0  0  0  0  0  0  0  0  0
   -2.9531   -2.6543    1.0824 H   0  0  0  0  0  0  0  0  0  0  0  0
    2.0044   -1.1862   -0.1770 S   0  0  0  0  0  0  0  0  0  0  0  0
    1.2462    0.2583    0.3832 C   0  0  0  0  0  0  0  0  0  0  0  0
    1.5340    1.0949    1.7303 S   0  0  0  0  0  0  0  0  0  0  0  0
    2.8510   -1.3270    0.8556 H   0  0  0  0  0  0  0  0  0  0  0  0
  1  2  3  0
  1  7  1  0
  2  3  1  0
  3  4  1  0
  3  5  1  0
  4  9  1  0
  4 10  1  0
  4 11  1  0
  5  6  3  0
  6 12  1  0
  8 14  1  0
 13 14  1  0
 13 16  1  0
 14 15  2  0
M  RAD  1   3   2
M  END
>  <reaction>  (8) 
rxn_1430

>  <mol_properties>  (8) 
{"1": {"label": "*0", "atom_type": "Ct"}, "2": {"label": "*1", "atom_type": "Cs"}, "7": {"label": "*2", "atom_type": "H0"}, "12": {"label": "*4", "atom_type": "S2s"}, "13": {"label": "*3", "atom_type": "CS"}}

>  <type>  (8) 
unop_4

>  <geom_source>  (8) 
Heuristics

$$$$

     RDKit          3D

 16 14  0  0  0  0  0  0  0  0999 V2000
   -1.3034    0.1411   -3.0465 C   0  0  0  0  0  0  0  0  0  0  0  0
   -1.3034    0.1411   -1.8503 C   0  0  0  0  0  0  0  0  0  0  0  0
   -1.3034    0.1812   -0.3838 C   0  0  0  0  0  3  0  0  0  0  0  0
   -1.9414    1.4804    0.1382 C   0  0  0  0  0  0  0  0  0  0  0  0
   -1.9652   -1.0000    0.1810 C   0  0  0  0  0  0  0  0  0  0  0  0
   -2.5135   -1.9453    0.6675 C   0  0  0  0  0  0  0  0  0  0  0  0
   -1.3034    0.1411   -4.1099 H   0  0  0  0  0  0  0  0  0  0  0  0
   -0.0498    0.1540    0.0094 H   0  0  0  0  0  0  0  0  0  0  0  0
   -2.9847    1.5377   -0.1695 H   0  0  0  0  0  0  0  0  0  0  0  0
   -1.4088    2.3419   -0.2634 H   0  0  0  0  0  0  0  0  0  0  0  0
   -1.8942    1.5049    1.2264 H   0  0  0  0  0  0  0  0  0  0  0  0
   -3.0009   -2.7857    1.1000 H   0  0  0  0  0  0  0  0  0  0  0  0
    1.2730    0.1717    2.1235 S   0  0  0  0  0  0  0  0  0  0  0  0
    1.1984    0.1268    0.4008 C   0  0  0  0  0  0  0  0  0  0  0  0
    2.4075    0.0611   -0.6628 S   0  0  0  0  0  0  0  0  0  0  0  0
    2.6116    0.1338    2.2214 H   0  0  0  0  0  0  0  0  0  0  0  0
  1  2  3  0
  1  7  1  0
  2  3  1  0
  3  4  1  0
  3  5  1  0
  4  9  1  0
  4 10  1  0
  4 11  1  0
  5  6  3  0
  6 12  1  0
  8 14  1  0
 13 14  1  0
 13 16  1  0
 14 15  2  0
M  RAD  1   3   2
M  END
>  <reaction>  (9) 
rxn_1430

>  <mol_properties>  (9) 
{"1": {"label": "*0", "atom_type": "Ct"}, "2": {"label": "*1", "atom_type": "Cs"}, "7": {"label": "*2", "atom_type": "H0"}, "12": {"label": "*4", "atom_type": "S2s"}, "13": {"label": "*3", "atom_type": "CS"}}

>  <type>  (9) 
unop_5

>  <geom_source>  (9) 
Heuristics

$$$$

     RDKit          3D

 16 14  0  0  0  0  0  0  0  0999 V2000
   -1.2145    0.2155   -3.1363 C   0  0  0  0  0  0  0  0  0  0  0  0
   -1.2145    0.2155   -1.9402 C   0  0  0  0  0  0  0  0  0  0  0  0
   -1.2145    0.2555   -0.4736 C   0  0  0  0  0  3  0  0  0  0  0  0
   -1.8526    1.5548    0.0484 C   0  0  0  0  0  0  0  0  0  0  0  0
   -1.8764   -0.9257    0.0911 C   0  0  0  0  0  0  0  0  0  0  0  0
   -2.4246   -1.8710    0.5776 C   0  0  0  0  0  0  0  0  0  0  0  0
   -1.2145    0.2155   -4.1998 H   0  0  0  0  0  0  0  0  0  0  0  0
    0.0391    0.2283   -0.0805 H   0  0  0  0  0  0  0  0  0  0  0  0
   -2.8958    1.6120   -0.2594 H   0  0  0  0  0  0  0  0  0  0  0  0
   -1.3199    2.4162   -0.3533 H   0  0  0  0  0  0  0  0  0  0  0  0
   -1.8054    1.5792    1.1366 H   0  0  0  0  0  0  0  0  0  0  0  0
   -2.9120   -2.7114    1.0101 H   0  0  0  0  0  0  0  0  0  0  0  0
    1.7968   -1.4320    0.5305 S   0  0  0  0  0  0  0  0  0  0  0  0
    1.2872    0.2012    0.3109 C   0  0  0  0  0  0  0  0  0  0  0  0
    1.6360    1.4981    1.2019 S   0  0  0  0  0  0  0  0  0  0  0  0
    2.5310   -1.2181    1.6341 H   0  0  0  0  0  0  0  0  0  0  0  0
  1  2  3  0
  1  7  1  0
  2  3  1  0
  3  4  1  0
  3  5  1  0
  4  9  1  0
  4 10  1  0
  4 11  1  0
  5  6  3  0
  6 12  1  0
  8 14  1  0
 13 14  1  0
 13 16  1  0
 14 15  2  0
M  RAD  1   3   2
M  END
>  <reaction>  (10) 
rxn_1430

>  <mol_properties>  (10) 
{"1": {"label": "*0", "atom_type": "Ct"}, "2": {"label": "*1", "atom_type": "Cs"}, "7": {"label": "*2", "atom_type": "H0"}, "12": {"label": "*4", "atom_type": "S2s"}, "13": {"label": "*3", "atom_type": "CS"}}

>  <type>  (10) 
unop_6

>  <geom_source>  (10) 
Heuristics

$$$$

     RDKit          3D

 16 14  0  0  0  0  0  0  0  0999 V2000
   -1.2118    0.1198   -3.1504 C   0  0  0  0  0  0  0  0  0  0  0  0
   -1.2118    0.1198   -1.9542 C   0  0  0  0  0  0  0  0  0  0  0  0
   -1.2118    0.1599   -0.4877 C   0  0  0  0  0  3  0  0  0  0  0  0
   -1.8498    1.4591    0.0343 C   0  0  0  0  0  0  0  0  0  0  0  0
   -1.8737   -1.0213    0.0771 C   0  0  0  0  0  0  0  0  0  0  0  0
   -2.4219   -1.9666    0.5636 C   0  0  0  0  0  0  0  0  0  0  0  0
   -1.2118    0.1198   -4.2139 H   0  0  0  0  0  0  0  0  0  0  0  0
    0.0418    0.1327   -0.0946 H   0  0  0  0  0  0  0  0  0  0  0  0
   -2.8931    1.5164   -0.2735 H   0  0  0  0  0  0  0  0  0  0  0  0
   -1.3172    2.3205   -0.3674 H   0  0  0  0  0  0  0  0  0  0  0  0
   -1.8027    1.4835    1.1225 H   0  0  0  0  0  0  0  0  0  0  0  0
   -2.9093   -2.8070    0.9961 H   0  0  0  0  0  0  0  0  0  0  0  0
    1.5641   -1.2820    1.2842 S   0  0  0  0  0  0  0  0  0  0  0  0
    1.2899    0.1055    0.2969 C   0  0  0  0  0  0  0  0  0  0  0  0
    1.8661    1.6006    0.4707 S   0  0  0  0  0  0  0  0  0  0  0  0
    2.3721   -0.6823    2.1731 H   0  0  0  0  0  0  0  0  0  0  0  0
  1  2  3  0
  1  7  1  0
  2  3  1  0
  3  4  1  0
  3  5  1  0
  4  9  1  0
  4 10  1  0
  4 11  1  0
  5  6  3  0
  6 12  1  0
  8 14  1  0
 13 14  1  0
 13 16  1  0
 14 15  2  0
M  RAD  1   3   2
M  END
>  <reaction>  (11) 
rxn_1430

>  <mol_properties>  (11) 
{"1": {"label": "*0", "atom_type": "Ct"}, "2": {"label": "*1", "atom_type": "Cs"}, "7": {"label": "*2", "atom_type": "H0"}, "12": {"label": "*4", "atom_type": "S2s"}, "13": {"label": "*3", "atom_type": "CS"}}

>  <type>  (11) 
unop_7

>  <geom_source>  (11) 
Heuristics

$$$$

     RDKit          3D

 16 14  0  0  0  0  0  0  0  0999 V2000
   -1.2193    0.0568   -3.1320 C   0  0  0  0  0  0  0  0  0  0  0  0
   -1.2193    0.0568   -1.9358 C   0  0  0  0  0  0  0  0  0  0  0  0
   -1.2193    0.0969   -0.4693 C   0  0  0  0  0  3  0  0  0  0  0  0
   -1.8574    1.3961    0.0527 C   0  0  0  0  0  0  0  0  0  0  0  0
   -1.8812   -1.0844    0.0955 C   0  0  0  0  0  0  0  0  0  0  0  0
   -2.4294   -2.0297    0.5820 C   0  0  0  0  0  0  0  0  0  0  0  0
   -1.2193    0.0568   -4.1955 H   0  0  0  0  0  0  0  0  0  0  0  0
    0.0343    0.0696   -0.0762 H   0  0  0  0  0  0  0  0  0  0  0  0
   -2.9006    1.4533   -0.2551 H   0  0  0  0  0  0  0  0  0  0  0  0
   -1.3247    2.2575   -0.3490 H   0  0  0  0  0  0  0  0  0  0  0  0
   -1.8102    1.4205    1.1409 H   0  0  0  0  0  0  0  0  0  0  0  0
   -2.9168   -2.8701    1.0145 H   0  0  0  0  0  0  0  0  0  0  0  0
    1.8903    1.6514    0.4462 S   0  0  0  0  0  0  0  0  0  0  0  0
    1.2824    0.0425    0.3153 C   0  0  0  0  0  0  0  0  0  0  0  0
    1.5536   -1.2226    1.2762 S   0  0  0  0  0  0  0  0  0  0  0  0
    2.6120    1.4539    1.5611 H   0  0  0  0  0  0  0  0  0  0  0  0
  1  2  3  0
  1  7  1  0
  2  3  1  0
  3  4  1  0
  3  5  1  0
  4  9  1  0
  4 10  1  0
  4 11  1  0
  5  6  3  0
  6 12  1  0
  8 14  1  0
 13 14  1  0
 13 16  1  0
 14 15  2  0
M  RAD  1   3   2
M  END
>  <reaction>  (12) 
rxn_1430

>  <mol_properties>  (12) 
{"1": {"label": "*0", "atom_type": "Ct"}, "2": {"label": "*1", "atom_type": "Cs"}, "7": {"label": "*2", "atom_type": "H0"}, "12": {"label": "*4", "atom_type": "S2s"}, "13": {"label": "*3", "atom_type": "CS"}}

>  <type>  (12) 
unop_8

>  <geom_source>  (12) 
Heuristics

$$$$

     RDKit          3D

 16 14  0  0  0  0  0  0  0  0999 V2000
   -1.3099    0.2473   -2.9765 C   0  0  0  0  0  0  0  0  0  0  0  0
   -1.3099    0.2473   -1.7803 C   0  0  0  0  0  0  0  0  0  0  0  0
   -1.3099    0.2874   -0.3137 C   0  0  0  0  0  3  0  0  0  0  0  0
   -1.9479    1.5866    0.2083 C   0  0  0  0  0  0  0  0  0  0  0  0
   -1.9717   -0.8938    0.2510 C   0  0  0  0  0  0  0  0  0  0  0  0
   -2.5200   -1.8391    0.7375 C   0  0  0  0  0  0  0  0  0  0  0  0
   -1.3099    0.2473   -4.0399 H   0  0  0  0  0  0  0  0  0  0  0  0
   -0.0563    0.2601    0.0794 H   0  0  0  0  0  0  0  0  0  0  0  0
   -2.9912    1.6439   -0.0995 H   0  0  0  0  0  0  0  0  0  0  0  0
   -1.4153    2.4480   -0.1934 H   0  0  0  0  0  0  0  0  0  0  0  0
   -1.9007    1.6110    1.2965 H   0  0  0  0  0  0  0  0  0  0  0  0
   -3.0074   -2.6795    1.1700 H   0  0  0  0  0  0  0  0  0  0  0  0
    2.1452   -0.6390   -0.6720 S   0  0  0  0  0  0  0  0  0  0  0  0
    1.1918    0.2330    0.4708 C   0  0  0  0  0  0  0  0  0  0  0  0
    1.5354    0.6043    2.0011 S   0  0  0  0  0  0  0  0  0  0  0  0
    3.1904   -0.8662    0.1398 H   0  0  0  0  0  0  0  0  0  0  0  0
  1  2  3  0
  1  7  1  0
  2  3  1  0
  3  4  1  0
  3  5  1  0
  4  9  1  0
  4 10  1  0
  4 11  1  0
  5  6  3  0
  6 12  1  0
  8 14  1  0
 13 14  1  0
 13 16  1  0
 14 15  2  0
M  RAD  1   3   2
M  END
>  <reaction>  (13) 
rxn_1430

>  <mol_properties>  (13) 
{"1": {"label": "*0", "atom_type": "Ct"}, "2": {"label": "*1", "atom_type": "Cs"}, "7": {"label": "*2", "atom_type": "H0"}, "12": {"label": "*4", "atom_type": "S2s"}, "13": {"label": "*3", "atom_type": "CS"}}

>  <type>  (13) 
unop_9

>  <geom_source>  (13) 
Heuristics

$$$$

     RDKit          3D

 16 14  0  0  0  0  0  0  0  0999 V2000
   -1.2636    0.0063   -3.0568 C   0  0  0  0  0  0  0  0  0  0  0  0
   -1.2636    0.0063   -1.8607 C   0  0  0  0  0  0  0  0  0  0  0  0
   -1.2636    0.0464   -0.3941 C   0  0  0  0  0  3  0  0  0  0  0  0
   -1.9017    1.3456    0.1279 C   0  0  0  0  0  0  0  0  0  0  0  0
   -1.9255   -1.1349    0.1707 C   0  0  0  0  0  0  0  0  0  0  0  0
   -2.4737   -2.0802    0.6572 C   0  0  0  0  0  0  0  0  0  0  0  0
   -1.2636    0.0063   -4.1203 H   0  0  0  0  0  0  0  0  0  0  0  0
   -0.0100    0.0191   -0.0010 H   0  0  0  0  0  0  0  0  0  0  0  0
   -2.9449    1.4028   -0.1799 H   0  0  0  0  0  0  0  0  0  0  0  0
   -1.3691    2.2070   -0.2738 H   0  0  0  0  0  0  0  0  0  0  0  0
   -1.8545    1.3700    1.2161 H   0  0  0  0  0  0  0  0  0  0  0  0
   -2.9611   -2.9206    1.0897 H   0  0  0  0  0  0  0  0  0  0  0  0
    2.0814    1.3553   -0.2464 S   0  0  0  0  0  0  0  0  0  0  0  0
    1.2381   -0.0080    0.3905 C   0  0  0  0  0  0  0  0  0  0  0  0
    1.4770   -0.7857    1.7817 S   0  0  0  0  0  0  0  0  0  0  0  0
    2.9367    1.5007    0.7783 H   0  0  0  0  0  0  0  0  0  0  0  0
  1  2  3  0
  1  7  1  0
  2  3  1  0
  3  4  1  0
  3  5  1  0
  4  9  1  0
  4 10  1  0
  4 11  1  0
  5  6  3  0
  6 12  1  0
  8 14  1  0
 13 14  1  0
 13 16  1  0
 14 15  2  0
M  RAD  1   3   2
M  END
>  <reaction>  (14) 
rxn_1430

>  <mol_properties>  (14) 
{"1": {"label": "*0", "atom_type": "Ct"}, "2": {"label": "*1", "atom_type": "Cs"}, "7": {"label": "*2", "atom_type": "H0"}, "12": {"label": "*4", "atom_type": "S2s"}, "13": {"label": "*3", "atom_type": "CS"}}

>  <type>  (14) 
unop_10

>  <geom_source>  (14) 
Heuristics

$$$$

     RDKit          3D

 16 14  0  0  0  0  0  0  0  0999 V2000
   -1.2581    0.0641   -3.0970 C   0  0  0  0  0  0  0  0  0  0  0  0
   -1.2581    0.0641   -1.9008 C   0  0  0  0  0  0  0  0  0  0  0  0
   -1.2581    0.1042   -0.4342 C   0  0  0  0  0  3  0  0  0  0  0  0
   -1.8962    1.4034    0.0878 C   0  0  0  0  0  0  0  0  0  0  0  0
   -1.9200   -1.0770    0.1305 C   0  0  0  0  0  0  0  0  0  0  0  0
   -2.4682   -2.0223    0.6170 C   0  0  0  0  0  0  0  0  0  0  0  0
   -1.2581    0.0641   -4.1604 H   0  0  0  0  0  0  0  0  0  0  0  0
   -0.0045    0.0770   -0.0411 H   0  0  0  0  0  0  0  0  0  0  0  0
   -2.9394    1.4607   -0.2200 H   0  0  0  0  0  0  0  0  0  0  0  0
   -1.3636    2.2648   -0.3139 H   0  0  0  0  0  0  0  0  0  0  0  0
   -1.8490    1.4279    1.1760 H   0  0  0  0  0  0  0  0  0  0  0  0
   -2.9556   -2.8627    1.0495 H   0  0  0  0  0  0  0  0  0  0  0  0
    1.3586   -0.7235    1.8878 S   0  0  0  0  0  0  0  0  0  0  0  0
    1.2436    0.0498    0.3503 C   0  0  0  0  0  0  0  0  0  0  0  0
    2.1995    1.1798   -0.2876 S   0  0  0  0  0  0  0  0  0  0  0  0
    2.4566   -0.0739    2.3061 H   0  0  0  0  0  0  0  0  0  0  0  0
  1  2  3  0
  1  7  1  0
  2  3  1  0
  3  4  1  0
  3  5  1  0
  4  9  1  0
  4 10  1  0
  4 11  1  0
  5  6  3  0
  6 12  1  0
  8 14  1  0
 13 14  1  0
 13 16  1  0
 14 15  2  0
M  RAD  1   3   2
M  END
>  <reaction>  (15) 
rxn_1430

>  <mol_properties>  (15) 
{"1": {"label": "*0", "atom_type": "Ct"}, "2": {"label": "*1", "atom_type": "Cs"}, "7": {"label": "*2", "atom_type": "H0"}, "12": {"label": "*4", "atom_type": "S2s"}, "13": {"label": "*3", "atom_type": "CS"}}

>  <type>  (15) 
unop_11

>  <geom_source>  (15) 
Heuristics

$$$$

     RDKit          3D

 16 14  0  0  0  0  0  0  0  0999 V2000
   -1.3386    0.1453   -2.9338 C   0  0  0  0  0  0  0  0  0  0  0  0
   -1.3386    0.1453   -1.7376 C   0  0  0  0  0  0  0  0  0  0  0  0
   -1.3386    0.1854   -0.2711 C   0  0  0  0  0  3  0  0  0  0  0  0
   -1.9767    1.4846    0.2509 C   0  0  0  0  0  0  0  0  0  0  0  0
   -2.0005   -0.9959    0.2937 C   0  0  0  0  0  0  0  0  0  0  0  0
   -2.5487   -1.9412    0.7802 C   0  0  0  0  0  0  0  0  0  0  0  0
   -1.3386    0.1453   -3.9973 H   0  0  0  0  0  0  0  0  0  0  0  0
   -0.0850    0.1581    0.1220 H   0  0  0  0  0  0  0  0  0  0  0  0
   -3.0199    1.5418   -0.0569 H   0  0  0  0  0  0  0  0  0  0  0  0
   -1.4440    2.3460   -0.1507 H   0  0  0  0  0  0  0  0  0  0  0  0
   -1.9295    1.5090    1.3391 H   0  0  0  0  0  0  0  0  0  0  0  0
   -3.0361   -2.7816    1.2127 H   0  0  0  0  0  0  0  0  0  0  0  0
    2.2059    0.0619   -0.8588 S   0  0  0  0  0  0  0  0  0  0  0  0
    1.1631    0.1310    0.5135 C   0  0  0  0  0  0  0  0  0  0  0  0
    1.5503    0.1620    2.0777 S   0  0  0  0  0  0  0  0  0  0  0  0
    3.3611    0.0456   -0.1746 H   0  0  0  0  0  0  0  0  0  0  0  0
  1  2  3  0
  1  7  1  0
  2  3  1  0
  3  4  1  0
  3  5  1  0
  4  9  1  0
  4 10  1  0
  4 11  1  0
  5  6  3  0
  6 12  1  0
  8 14  1  0
 13 14  1  0
 13 16  1  0
 14 15  2  0
M  RAD  1   3   2
M  END
>  <reaction>  (16) 
rxn_1430

>  <mol_properties>  (16) 
{"1": {"label": "*0", "atom_type": "Ct"}, "2": {"label": "*1", "atom_type": "Cs"}, "7": {"label": "*2", "atom_type": "H0"}, "12": {"label": "*4", "atom_type": "S2s"}, "13": {"label": "*3", "atom_type": "CS"}}

>  <type>  (16) 
unop_12

>  <geom_source>  (16) 
Heuristics

$$$$

     RDKit          3D

 16 14  0  0  0  0  0  0  0  0999 V2000
    3.0367   -0.1078   -0.9356 S   0  0  0  0  0  0  0  0  0  0  0  0
    2.7006   -0.0806    1.8410 S   0  0  0  0  0  0  0  0  0  0  0  0
   -0.8725    0.8183   -1.2495 C   0  0  0  0  0  0  0  0  0  0  0  0
   -0.4716    0.0866    0.0282 C   0  0  0  0  0  3  0  0  0  0  0  0
    2.0746    0.0779    0.5615 C   0  0  0  0  0  0  0  0  0  0  0  0
   -1.3786    0.4303    1.1300 C   0  0  0  0  0  0  0  0  0  0  0  0
   -0.4774   -1.3663   -0.1817 C   0  0  0  0  0  0  0  0  0  0  0  0
   -2.1227    0.7141    2.0355 C   0  0  0  0  0  0  0  0  0  0  0  0
   -0.4805   -2.5597   -0.3547 C   0  0  0  0  0  0  0  0  0  0  0  0
   -1.9001    0.5329   -1.5646 H   0  0  0  0  0  0  0  0  0  0  0  0
   -0.1613    0.5699   -2.0659 H   0  0  0  0  0  0  0  0  0  0  0  0
   -0.8366    1.9161   -1.0831 H   0  0  0  0  0  0  0  0  0  0  0  0
    0.8004    0.3476    0.4879 H   0  0  0  0  0  0  0  0  0  0  0  0
    3.3482    1.2644   -0.9724 H   0  0  0  0  0  0  0  0  0  0  0  0
   -2.7759    0.9631    2.8300 H   0  0  0  0  0  0  0  0  0  0  0  0
   -0.4834   -3.6070   -0.5067 H   0  0  0  0  0  0  0  0  0  0  0  0
  1  5  1  0
  1 14  1  0
  2  5  2  0
  3  4  1  0
  3 10  1  0
  3 11  1  0
  3 12  1  0
  4  6  1  0
  4  7  1  0
  5 13  1  0
  6  8  3  0
  7  9  3  0
  8 15  1  0
  9 16  1  0
M  RAD  1   4   2
M  END
>  <reaction>  (17) 
rxn_1430

>  <mol_properties>  (17) 
{"1": {"label": "*0", "atom_type": "Ct"}, "2": {"label": "*1", "atom_type": "Cs"}, "7": {"label": "*2", "atom_type": "H0"}, "12": {"label": "*4", "atom_type": "S2s"}, "13": {"label": "*3", "atom_type": "CS"}}

>  <type>  (17) 
unop_13

>  <geom_source>  (17) 
AutoTST

$$$$
