
     RDKit          3D

  4  3  0  0  0  0  0  0  0  0999 V2000
    0.5949   -0.3853    0.2659 O   0  0  0  0  0  0  0  0  0  0  0  0
   -0.5918    0.4028    0.2462 O   0  0  0  0  0  0  0  0  0  0  0  0
    1.1865    0.1539   -0.2689 H   0  0  0  0  0  0  0  0  0  0  0  0
   -1.1896   -0.1714   -0.2432 H   0  0  0  0  0  0  0  0  0  0  0  0
  1  2  1  0
  1  3  1  0
  2  4  1  0
M  END
>  <reaction>  (1) 
rxn_5

>  <mol_properties>  (1) 
{"1": {"label": "donator", "atom_type": "O2s"}, "3": {"label": "d_hydrogen", "atom_type": "H0"}}

>  <type>  (1) 
r1h

$$$$

     RDKit          3D

 14 13  0  0  0  0  0  0  0  0999 V2000
    2.0159   -0.1953   -0.0278 C   0  0  0  0  0  0  0  0  0  0  0  0
    0.6931    0.4367    0.1988 C   0  0  0  0  0  3  0  0  0  0  0  0
    0.4758    1.8859   -0.0767 C   0  0  0  0  0  0  0  0  0  0  0  0
   -0.9259    2.3476    0.2906 C   0  0  0  0  0  0  0  0  0  0  0  0
    0.7867    2.2098   -1.4343 O   0  0  0  0  0  0  0  0  0  0  0  0
    2.6623   -0.0933    0.8562 H   0  0  0  0  0  0  0  0  0  0  0  0
    2.5384    0.2786   -0.8610 H   0  0  0  0  0  0  0  0  0  0  0  0
    1.9278   -1.2642   -0.2307 H   0  0  0  0  0  0  0  0  0  0  0  0
   -0.0828   -0.1183    0.7139 H   0  0  0  0  0  0  0  0  0  0  0  0
    1.2035    2.4780    0.4940 H   0  0  0  0  0  0  0  0  0  0  0  0
   -1.1176    2.1936    1.3544 H   0  0  0  0  0  0  0  0  0  0  0  0
   -1.6743    1.7841   -0.2732 H   0  0  0  0  0  0  0  0  0  0  0  0
   -1.0467    3.4064    0.0628 H   0  0  0  0  0  0  0  0  0  0  0  0
    0.2556    1.6394   -1.9956 H   0  0  0  0  0  0  0  0  0  0  0  0
  1  2  1  0
  1  6  1  0
  1  7  1  0
  1  8  1  0
  2  3  1  0
  2  9  1  0
  3  4  1  0
  3  5  1  0
  3 10  1  0
  4 11  1  0
  4 12  1  0
  4 13  1  0
  5 14  1  0
M  RAD  1   2   2
M  END
>  <reaction>  (2) 
rxn_5

>  <mol_properties>  (2) 
{"1": {"label": "acceptor", "atom_type": "Cs"}}

>  <type>  (2) 
r2

$$$$

     RDKit          3D

 15 14  0  0  0  0  0  0  0  0999 V2000
    1.8142    0.7938   -0.4532 C   0  0  0  0  0  0  0  0  0  0  0  0
    0.8343   -0.0482    0.3508 C   0  0  0  0  0  0  0  0  0  0  0  0
    1.2689   -1.5028    0.5052 C   0  0  0  0  0  0  0  0  0  0  0  0
    0.3206   -2.2929    1.3933 C   0  0  0  0  0  0  0  0  0  0  0  0
    1.4305   -2.1354   -0.7561 O   0  0  0  0  0  0  0  0  0  0  0  0
    1.9652    0.3705   -1.4464 H   0  0  0  0  0  0  0  0  0  0  0  0
    1.4536    1.8171   -0.5671 H   0  0  0  0  0  0  0  0  0  0  0  0
    2.7876    0.8346    0.0411 H   0  0  0  0  0  0  0  0  0  0  0  0
    0.7005    0.3820    1.3477 H   0  0  0  0  0  0  0  0  0  0  0  0
   -0.1543   -0.0316   -0.1246 H   0  0  0  0  0  0  0  0  0  0  0  0
    2.2701   -1.5232    0.9456 H   0  0  0  0  0  0  0  0  0  0  0  0
   -0.6918   -2.2835    0.9773 H   0  0  0  0  0  0  0  0  0  0  0  0
    0.2728   -1.8641    2.3960 H   0  0  0  0  0  0  0  0  0  0  0  0
    0.6493   -3.3293    1.4729 H   0  0  0  0  0  0  0  0  0  0  0  0
    0.5703   -2.1794   -1.1802 H   0  0  0  0  0  0  0  0  0  0  0  0
  1  2  1  0
  1  6  1  0
  1  7  1  0
  1  8  1  0
  2  3  1  0
  2  9  1  0
  2 10  1  0
  3  4  1  0
  3  5  1  0
  3 11  1  0
  4 12  1  0
  4 13  1  0
  4 14  1  0
  5 15  1  0
M  END
>  <reaction>  (3) 
rxn_5

>  <mol_properties>  (3) 
{"0": {"label": "a_hydrogen", "atom_type": "H0"}, "2": {"label": "acceptor", "atom_type": "Cs"}}

>  <type>  (3) 
r2h

$$$$

     RDKit          3D

 18 16  0  0  0  0  0  0  0  0999 V2000
   -0.1687   -2.0316   -1.4867 O   0  0  0  0  0  0  0  0  0  0  0  0
    0.8299   -1.9095   -0.5298 O   0  0  0  0  0  0  0  0  0  0  0  0
    0.3156   -1.9566   -2.3174 H   0  0  0  0  0  0  0  0  0  0  0  0
    0.8008   -0.7709   -0.2181 H   0  0  0  0  0  0  0  0  0  0  0  0
    0.7331    1.1839   -1.3288 C   0  0  0  0  0  0  0  0  0  0  0  0
    0.6670    0.5407    0.0244 C   0  0  0  0  0  3  0  0  0  0  0  0
   -0.6510    0.6317    0.7621 C   0  0  0  0  0  0  0  0  0  0  0  0
   -0.6616   -0.1819    2.0432 C   0  0  0  0  0  0  0  0  0  0  0  0
   -0.9753    1.9980    1.0080 O   0  0  0  0  0  0  0  0  0  0  0  0
    0.5640    2.2616   -1.2455 H   0  0  0  0  0  0  0  0  0  0  0  0
   -0.0460    0.7865   -1.9839 H   0  0  0  0  0  0  0  0  0  0  0  0
    1.7040    1.0274   -1.8001 H   0  0  0  0  0  0  0  0  0  0  0  0
    1.5345    0.7290    0.6626 H   0  0  0  0  0  0  0  0  0  0  0  0
   -1.4434    0.2763    0.0991 H   0  0  0  0  0  0  0  0  0  0  0  0
    0.1270    0.1592    2.7216 H   0  0  0  0  0  0  0  0  0  0  0  0
   -0.4893   -1.2374    1.8300 H   0  0  0  0  0  0  0  0  0  0  0  0
   -1.6215   -0.0753    2.5485 H   0  0  0  0  0  0  0  0  0  0  0  0
   -0.3875    2.3248    1.6933 H   0  0  0  0  0  0  0  0  0  0  0  0
  1  2  1  0
  1  3  1  0
  2  4  1  0
  5  6  1  0
  5 10  1  0
  5 11  1  0
  5 12  1  0
  6  7  1  0
  6 13  1  0
  7  8  1  0
  7  9  1  0
  7 14  1  0
  8 15  1  0
  8 16  1  0
  8 17  1  0
  9 18  1  0
M  RAD  1   6   2
M  END
>  <reaction>  (4) 
rxn_5

>  <mol_properties>  (4) 
{"0": {"label": "*0", "atom_type": "O2s"}, "1": {"label": "*1", "atom_type": "O2s"}, "3": {"label": "*2", "atom_type": "H0"}, "5": {"label": "*3", "atom_type": "Cs"}, "6": {"label": "*4", "atom_type": "Cs"}}

>  <type>  (4) 
ts

$$$$

     RDKit          3D

 18 16  0  0  0  0  0  0  0  0999 V2000
   -0.5451   -1.5688   -2.0349 O   0  0  0  0  0  0  0  0  0  0  0  0
   -0.5451   -1.5688   -0.6102 O   0  0  0  0  0  0  0  0  0  0  0  0
    0.3156   -1.9571   -2.2219 H   0  0  0  0  0  0  0  0  0  0  0  0
   -0.5451   -0.4357   -0.3857 H   0  0  0  0  0  0  0  0  0  0  0  0
   -1.7832    1.2245    0.6719 C   0  0  0  0  0  0  0  0  0  0  0  0
   -0.5451    0.8520   -0.1306 C   0  0  0  0  0  3  0  0  0  0  0  0
    0.5888    0.2968    0.7264 C   0  0  0  0  0  0  0  0  0  0  0  0
    1.7728   -0.1560   -0.1135 C   0  0  0  0  0  0  0  0  0  0  0  0
    0.9957    1.2271    1.7193 O   0  0  0  0  0  0  0  0  0  0  0  0
   -1.5404    1.9573    1.4416 H   0  0  0  0  0  0  0  0  0  0  0  0
   -2.2015    0.3469    1.1701 H   0  0  0  0  0  0  0  0  0  0  0  0
   -2.5577    1.6453    0.0290 H   0  0  0  0  0  0  0  0  0  0  0  0
   -0.1705    1.7289   -0.6731 H   0  0  0  0  0  0  0  0  0  0  0  0
    0.2097   -0.5560    1.2972 H   0  0  0  0  0  0  0  0  0  0  0  0
    2.1685    0.6790   -0.7003 H   0  0  0  0  0  0  0  0  0  0  0  0
    1.4815   -0.9443   -0.8101 H   0  0  0  0  0  0  0  0  0  0  0  0
    2.5703   -0.5340    0.5265 H   0  0  0  0  0  0  0  0  0  0  0  0
    1.3734    1.9904    1.2762 H   0  0  0  0  0  0  0  0  0  0  0  0
  1  2  1  0
  1  3  1  0
  2  4  1  0
  5  6  1  0
  5 10  1  0
  5 11  1  0
  5 12  1  0
  6  7  1  0
  6 13  1  0
  7  8  1  0
  7  9  1  0
  7 14  1  0
  8 15  1  0
  8 16  1  0
  8 17  1  0
  9 18  1  0
M  RAD  1   6   2
M  END
>  <reaction>  (5) 
rxn_5

>  <mol_properties>  (5) 
{"0": {"label": "*0", "atom_type": "O2s"}, "1": {"label": "*1", "atom_type": "O2s"}, "3": {"label": "*2", "atom_type": "H0"}, "5": {"label": "*3", "atom_type": "Cs"}, "6": {"label": "*4", "atom_type": "Cs"}}

>  <type>  (5) 
unop_1

>  <geom_source>  (5) 
Heuristics

$$$$

     RDKit          3D

 18 16  0  0  0  0  0  0  0  0999 V2000
    0.3986   -1.7903   -2.1366 O   0  0  0  0  0  0  0  0  0  0  0  0
    0.3986   -1.7903   -0.7119 O   0  0  0  0  0  0  0  0  0  0  0  0
    1.2594   -2.1786   -2.3236 H   0  0  0  0  0  0  0  0  0  0  0  0
    0.3986   -0.6572   -0.4874 H   0  0  0  0  0  0  0  0  0  0  0  0
   -0.3162    1.3825   -1.3455 C   0  0  0  0  0  0  0  0  0  0  0  0
    0.3986    0.6305   -0.2323 C   0  0  0  0  0  3  0  0  0  0  0  0
   -0.4382    0.4842    1.0354 C   0  0  0  0  0  0  0  0  0  0  0  0
    0.2643   -0.3539    2.0919 C   0  0  0  0  0  0  0  0  0  0  0  0
   -0.8175    1.7489    1.5586 O   0  0  0  0  0  0  0  0  0  0  0  0
   -0.6157    2.3762   -1.0119 H   0  0  0  0  0  0  0  0  0  0  0  0
   -1.2188    0.8511   -1.6556 H   0  0  0  0  0  0  0  0  0  0  0  0
    0.3248    1.4928   -2.2214 H   0  0  0  0  0  0  0  0  0  0  0  0
    1.3332    1.1428    0.0279 H   0  0  0  0  0  0  0  0  0  0  0  0
   -1.3871    0.0066    0.7742 H   0  0  0  0  0  0  0  0  0  0  0  0
    1.2214    0.1000    2.3676 H   0  0  0  0  0  0  0  0  0  0  0  0
    0.4671   -1.3611    1.7233 H   0  0  0  0  0  0  0  0  0  0  0  0
   -0.3511   -0.4285    2.9887 H   0  0  0  0  0  0  0  0  0  0  0  0
   -0.0218    2.2060    1.8405 H   0  0  0  0  0  0  0  0  0  0  0  0
  1  2  1  0
  1  3  1  0
  2  4  1  0
  5  6  1  0
  5 10  1  0
  5 11  1  0
  5 12  1  0
  6  7  1  0
  6 13  1  0
  7  8  1  0
  7  9  1  0
  7 14  1  0
  8 15  1  0
  8 16  1  0
  8 17  1  0
  9 18  1  0
M  RAD  1   6   2
M  END
>  <reaction>  (6) 
rxn_5

>  <mol_properties>  (6) 
{"0": {"label": "*0", "atom_type": "O2s"}, "1": {"label": "*1", "atom_type": "O2s"}, "3": {"label": "*2", "atom_type": "H0"}, "5": {"label": "*3", "atom_type": "Cs"}, "6": {"label": "*4", "atom_type": "Cs"}}

>  <type>  (6) 
unop_2

>  <geom_source>  (6) 
Heuristics

$$$$

     RDKit          3D

 18 16  0  0  0  0  0  0  0  0999 V2000
   -0.7298   -1.7707   -1.6746 O   0  0  0  0  0  0  0  0  0  0  0  0
   -0.7298   -1.7707   -0.2499 O   0  0  0  0  0  0  0  0  0  0  0  0
    0.1309   -2.1590   -1.8616 H   0  0  0  0  0  0  0  0  0  0  0  0
   -0.7298   -0.6376   -0.0255 H   0  0  0  0  0  0  0  0  0  0  0  0
   -1.4446    0.9209    1.5454 C   0  0  0  0  0  0  0  0  0  0  0  0
   -0.7298    0.6501    0.2296 C   0  0  0  0  0  3  0  0  0  0  0  0
    0.7806    0.4939    0.3808 C   0  0  0  0  0  0  0  0  0  0  0  0
    1.4531    0.1284   -0.9331 C   0  0  0  0  0  0  0  0  0  0  0  0
    1.3706    1.6543    0.9487 O   0  0  0  0  0  0  0  0  0  0  0  0
   -1.0501    1.8177    2.0236 H   0  0  0  0  0  0  0  0  0  0  0  0
   -1.3089    0.0883    2.2395 H   0  0  0  0  0  0  0  0  0  0  0  0
   -2.5160    1.0568    1.3913 H   0  0  0  0  0  0  0  0  0  0  0  0
   -0.9236    1.4653   -0.4785 H   0  0  0  0  0  0  0  0  0  0  0  0
    0.9786   -0.2936    1.1139 H   0  0  0  0  0  0  0  0  0  0  0  0
    1.2655    0.8989   -1.6874 H   0  0  0  0  0  0  0  0  0  0  0  0
    1.0699   -0.8175   -1.3205 H   0  0  0  0  0  0  0  0  0  0  0  0
    2.5308    0.0376   -0.7960 H   0  0  0  0  0  0  0  0  0  0  0  0
    1.2591    2.3793    0.3293 H   0  0  0  0  0  0  0  0  0  0  0  0
  1  2  1  0
  1  3  1  0
  2  4  1  0
  5  6  1  0
  5 10  1  0
  5 11  1  0
  5 12  1  0
  6  7  1  0
  6 13  1  0
  7  8  1  0
  7  9  1  0
  7 14  1  0
  8 15  1  0
  8 16  1  0
  8 17  1  0
  9 18  1  0
M  RAD  1   6   2
M  END
>  <reaction>  (7) 
rxn_5

>  <mol_properties>  (7) 
{"0": {"label": "*0", "atom_type": "O2s"}, "1": {"label": "*1", "atom_type": "O2s"}, "3": {"label": "*2", "atom_type": "H0"}, "5": {"label": "*3", "atom_type": "Cs"}, "6": {"label": "*4", "atom_type": "Cs"}}

>  <type>  (7) 
unop_3

>  <geom_source>  (7) 
Heuristics

$$$$

     RDKit          3D

 18 16  0  0  0  0  0  0  0  0999 V2000
    0.4349   -2.2285   -1.7128 O   0  0  0  0  0  0  0  0  0  0  0  0
    0.4349   -2.2285   -0.2881 O   0  0  0  0  0  0  0  0  0  0  0  0
    1.2956   -2.6168   -1.8998 H   0  0  0  0  0  0  0  0  0  0  0  0
    0.4349   -1.0954   -0.0637 H   0  0  0  0  0  0  0  0  0  0  0  0
    1.6729    0.8427   -0.4084 C   0  0  0  0  0  0  0  0  0  0  0  0
    0.4349    0.1924    0.1914 C   0  0  0  0  0  3  0  0  0  0  0  0
   -0.7435    1.1509    0.3372 C   0  0  0  0  0  0  0  0  0  0  0  0
   -1.9927    0.4497    0.8473 C   0  0  0  0  0  0  0  0  0  0  0  0
   -0.4132    2.2624    1.1573 O   0  0  0  0  0  0  0  0  0  0  0  0
    1.9924    1.6951    0.1913 H   0  0  0  0  0  0  0  0  0  0  0  0
    1.4700    1.2058   -1.4185 H   0  0  0  0  0  0  0  0  0  0  0  0
    2.5008    0.1346   -0.4674 H   0  0  0  0  0  0  0  0  0  0  0  0
    0.6686   -0.2206    1.1806 H   0  0  0  0  0  0  0  0  0  0  0  0
   -0.9569    1.5931   -0.6404 H   0  0  0  0  0  0  0  0  0  0  0  0
   -1.8042   -0.0073    1.8238 H   0  0  0  0  0  0  0  0  0  0  0  0
   -2.3055   -0.3418    0.1637 H   0  0  0  0  0  0  0  0  0  0  0  0
   -2.8113    1.1617    0.9538 H   0  0  0  0  0  0  0  0  0  0  0  0
   -0.2480    1.9388    2.0459 H   0  0  0  0  0  0  0  0  0  0  0  0
  1  2  1  0
  1  3  1  0
  2  4  1  0
  5  6  1  0
  5 10  1  0
  5 11  1  0
  5 12  1  0
  6  7  1  0
  6 13  1  0
  7  8  1  0
  7  9  1  0
  7 14  1  0
  8 15  1  0
  8 16  1  0
  8 17  1  0
  9 18  1  0
M  RAD  1   6   2
M  END
>  <reaction>  (8) 
rxn_5

>  <mol_properties>  (8) 
{"0": {"label": "*0", "atom_type": "O2s"}, "1": {"label": "*1", "atom_type": "O2s"}, "3": {"label": "*2", "atom_type": "H0"}, "5": {"label": "*3", "atom_type": "Cs"}, "6": {"label": "*4", "atom_type": "Cs"}}

>  <type>  (8) 
unop_4

>  <geom_source>  (8) 
Heuristics

$$$$

     RDKit          3D

 18 16  0  0  0  0  0  0  0  0999 V2000
   -0.5120   -2.1385   -1.2586 O   0  0  0  0  0  0  0  0  0  0  0  0
   -0.5120   -2.1385    0.1661 O   0  0  0  0  0  0  0  0  0  0  0  0
    0.3487   -2.5268   -1.4456 H   0  0  0  0  0  0  0  0  0  0  0  0
   -0.5120   -1.0054    0.3906 H   0  0  0  0  0  0  0  0  0  0  0  0
   -0.5120    0.5159    2.1493 C   0  0  0  0  0  0  0  0  0  0  0  0
   -0.5120    0.2823    0.6456 C   0  0  0  0  0  3  0  0  0  0  0  0
    0.6787    0.9174   -0.0669 C   0  0  0  0  0  0  0  0  0  0  0  0
    0.7025    0.5848   -1.5505 C   0  0  0  0  0  0  0  0  0  0  0  0
    0.7219    2.3217    0.1404 O   0  0  0  0  0  0  0  0  0  0  0  0
   -0.5015    1.5822    2.3761 H   0  0  0  0  0  0  0  0  0  0  0  0
    0.3718    0.0702    2.6115 H   0  0  0  0  0  0  0  0  0  0  0  0
   -1.3930    0.0738    2.6169 H   0  0  0  0  0  0  0  0  0  0  0  0
   -1.4328    0.6818    0.2028 H   0  0  0  0  0  0  0  0  0  0  0  0
    1.5992    0.5497    0.3958 H   0  0  0  0  0  0  0  0  0  0  0  0
   -0.2121    0.9377   -2.0373 H   0  0  0  0  0  0  0  0  0  0  0  0
    0.7704   -0.4929   -1.7102 H   0  0  0  0  0  0  0  0  0  0  0  0
    1.5548    1.0630   -2.0334 H   0  0  0  0  0  0  0  0  0  0  0  0
   -0.0504    2.7091   -0.2781 H   0  0  0  0  0  0  0  0  0  0  0  0
  1  2  1  0
  1  3  1  0
  2  4  1  0
  5  6  1  0
  5 10  1  0
  5 11  1  0
  5 12  1  0
  6  7  1  0
  6 13  1  0
  7  8  1  0
  7  9  1  0
  7 14  1  0
  8 15  1  0
  8 16  1  0
  8 17  1  0
  9 18  1  0
M  RAD  1   6   2
M  END
>  <reaction>  (9) 
rxn_5

>  <mol_properties>  (9) 
{"0": {"label": "*0", "atom_type": "O2s"}, "1": {"label": "*1", "atom_type": "O2s"}, "3": {"label": "*2", "atom_type": "H0"}, "5": {"label": "*3", "atom_type": "Cs"}, "6": {"label": "*4", "atom_type": "Cs"}}

>  <type>  (9) 
unop_5

>  <geom_source>  (9) 
Heuristics

$$$$

     RDKit          3D

 18 16  0  0  0  0  0  0  0  0999 V2000
    0.4168   -2.2690   -1.5785 O   0  0  0  0  0  0  0  0  0  0  0  0
    0.4168   -2.2690   -0.1538 O   0  0  0  0  0  0  0  0  0  0  0  0
    1.2775   -2.6573   -1.7655 H   0  0  0  0  0  0  0  0  0  0  0  0
    0.4168   -1.1359    0.0706 H   0  0  0  0  0  0  0  0  0  0  0  0
    1.8464    0.6632    0.4270 C   0  0  0  0  0  0  0  0  0  0  0  0
    0.4168    0.1518    0.3257 C   0  0  0  0  0  3  0  0  0  0  0  0
   -0.6061    1.2561    0.0749 C   0  0  0  0  0  0  0  0  0  0  0  0
   -2.0097    0.7038   -0.1182 C   0  0  0  0  0  0  0  0  0  0  0  0
   -0.5813    2.2336    1.1048 O   0  0  0  0  0  0  0  0  0  0  0  0
    1.9373    1.4058    1.2200 H   0  0  0  0  0  0  0  0  0  0  0  0
    2.1565    1.1366   -0.5073 H   0  0  0  0  0  0  0  0  0  0  0  0
    2.5422   -0.1505    0.6369 H   0  0  0  0  0  0  0  0  0  0  0  0
    0.1389   -0.3734    1.2479 H   0  0  0  0  0  0  0  0  0  0  0  0
   -0.3126    1.8062   -0.8240 H   0  0  0  0  0  0  0  0  0  0  0  0
   -2.3261    0.1427    0.7667 H   0  0  0  0  0  0  0  0  0  0  0  0
   -2.0512    0.0275   -0.9740 H   0  0  0  0  0  0  0  0  0  0  0  0
   -2.7184    1.5159   -0.2813 H   0  0  0  0  0  0  0  0  0  0  0  0
   -0.8663    1.8150    1.9204 H   0  0  0  0  0  0  0  0  0  0  0  0
  1  2  1  0
  1  3  1  0
  2  4  1  0
  5  6  1  0
  5 10  1  0
  5 11  1  0
  5 12  1  0
  6  7  1  0
  6 13  1  0
  7  8  1  0
  7  9  1  0
  7 14  1  0
  8 15  1  0
  8 16  1  0
  8 17  1  0
  9 18  1  0
M  RAD  1   6   2
M  END
>  <reaction>  (10) 
rxn_5

>  <mol_properties>  (10) 
{"0": {"label": "*0", "atom_type": "O2s"}, "1": {"label": "*1", "atom_type": "O2s"}, "3": {"label": "*2", "atom_type": "H0"}, "5": {"label": "*3", "atom_type": "Cs"}, "6": {"label": "*4", "atom_type": "Cs"}}

>  <type>  (10) 
unop_6

>  <geom_source>  (10) 
Heuristics

$$$$

     RDKit          3D

 18 16  0  0  0  0  0  0  0  0999 V2000
    0.3274   -2.3084   -1.3806 O   0  0  0  0  0  0  0  0  0  0  0  0
    0.3274   -2.3084    0.0440 O   0  0  0  0  0  0  0  0  0  0  0  0
    1.1881   -2.6967   -1.5677 H   0  0  0  0  0  0  0  0  0  0  0  0
    0.3274   -1.1753    0.2685 H   0  0  0  0  0  0  0  0  0  0  0  0
    1.5654    0.4849    1.3261 C   0  0  0  0  0  0  0  0  0  0  0  0
    0.3274    0.1124    0.5236 C   0  0  0  0  0  3  0  0  0  0  0  0
   -0.3304    1.3047   -0.1652 C   0  0  0  0  0  0  0  0  0  0  0  0
   -1.5048    0.8869   -1.0361 C   0  0  0  0  0  0  0  0  0  0  0  0
   -0.7199    2.2985    0.7716 O   0  0  0  0  0  0  0  0  0  0  0  0
    1.3268    1.2331    2.0822 H   0  0  0  0  0  0  0  0  0  0  0  0
    2.3372    0.9046    0.6768 H   0  0  0  0  0  0  0  0  0  0  0  0
    1.9876   -0.3874    1.8271 H   0  0  0  0  0  0  0  0  0  0  0  0
   -0.4155   -0.3622    1.1766 H   0  0  0  0  0  0  0  0  0  0  0  0
    0.4170    1.8031   -0.7896 H   0  0  0  0  0  0  0  0  0  0  0  0
   -2.2663    0.3795   -0.4354 H   0  0  0  0  0  0  0  0  0  0  0  0
   -1.1863    0.1984   -1.8210 H   0  0  0  0  0  0  0  0  0  0  0  0
   -1.9614    1.7600   -1.5027 H   0  0  0  0  0  0  0  0  0  0  0  0
   -1.4065    1.9283    1.3312 H   0  0  0  0  0  0  0  0  0  0  0  0
  1  2  1  0
  1  3  1  0
  2  4  1  0
  5  6  1  0
  5 10  1  0
  5 11  1  0
  5 12  1  0
  6  7  1  0
  6 13  1  0
  7  8  1  0
  7  9  1  0
  7 14  1  0
  8 15  1  0
  8 16  1  0
  8 17  1  0
  9 18  1  0
M  RAD  1   6   2
M  END
>  <reaction>  (11) 
rxn_5

>  <mol_properties>  (11) 
{"0": {"label": "*0", "atom_type": "O2s"}, "1": {"label": "*1", "atom_type": "O2s"}, "3": {"label": "*2", "atom_type": "H0"}, "5": {"label": "*3", "atom_type": "Cs"}, "6": {"label": "*4", "atom_type": "Cs"}}

>  <type>  (11) 
unop_7

>  <geom_source>  (11) 
Heuristics

$$$$

     RDKit          3D

 18 16  0  0  0  0  0  0  0  0999 V2000
   -0.2155   -1.5320   -2.2305 O   0  0  0  0  0  0  0  0  0  0  0  0
   -0.2155   -1.5320   -0.8058 O   0  0  0  0  0  0  0  0  0  0  0  0
    0.6452   -1.9203   -2.4175 H   0  0  0  0  0  0  0  0  0  0  0  0
   -0.2155   -0.3988   -0.5814 H   0  0  0  0  0  0  0  0  0  0  0  0
   -1.6451    1.4003   -0.2250 C   0  0  0  0  0  0  0  0  0  0  0  0
   -0.2155    0.8889   -0.3263 C   0  0  0  0  0  3  0  0  0  0  0  0
    0.2935    0.2516    0.9635 C   0  0  0  0  0  0  0  0  0  0  0  0
    1.6868   -0.3356    0.8012 C   0  0  0  0  0  0  0  0  0  0  0  0
    0.2501    1.1659    2.0494 O   0  0  0  0  0  0  0  0  0  0  0  0
   -1.7406    2.1275    0.5816 H   0  0  0  0  0  0  0  0  0  0  0  0
   -2.3367    0.5809   -0.0157 H   0  0  0  0  0  0  0  0  0  0  0  0
   -1.9607    1.8753   -1.1550 H   0  0  0  0  0  0  0  0  0  0  0  0
    0.4598    1.7105   -0.5955 H   0  0  0  0  0  0  0  0  0  0  0  0
   -0.3972   -0.5448    1.2557 H   0  0  0  0  0  0  0  0  0  0  0  0
    2.3979    0.4411    0.5028 H   0  0  0  0  0  0  0  0  0  0  0  0
    1.6990   -1.1113    0.0334 H   0  0  0  0  0  0  0  0  0  0  0  0
    2.0278   -0.7703    1.7410 H   0  0  0  0  0  0  0  0  0  0  0  0
    0.8684    1.8769    1.8657 H   0  0  0  0  0  0  0  0  0  0  0  0
  1  2  1  0
  1  3  1  0
  2  4  1  0
  5  6  1  0
  5 10  1  0
  5 11  1  0
  5 12  1  0
  6  7  1  0
  6 13  1  0
  7  8  1  0
  7  9  1  0
  7 14  1  0
  8 15  1  0
  8 16  1  0
  8 17  1  0
  9 18  1  0
M  RAD  1   6   2
M  END
>  <reaction>  (12) 
rxn_5

>  <mol_properties>  (12) 
{"0": {"label": "*0", "atom_type": "O2s"}, "1": {"label": "*1", "atom_type": "O2s"}, "3": {"label": "*2", "atom_type": "H0"}, "5": {"label": "*3", "atom_type": "Cs"}, "6": {"label": "*4", "atom_type": "Cs"}}

>  <type>  (12) 
unop_8

>  <geom_source>  (12) 
Heuristics

$$$$

     RDKit          3D

 18 16  0  0  0  0  0  0  0  0999 V2000
    0.4684   -2.1538   -1.8150 O   0  0  0  0  0  0  0  0  0  0  0  0
    0.4684   -2.1538   -0.3903 O   0  0  0  0  0  0  0  0  0  0  0  0
    1.3291   -2.5421   -2.0020 H   0  0  0  0  0  0  0  0  0  0  0  0
    0.4684   -1.0207   -0.1659 H   0  0  0  0  0  0  0  0  0  0  0  0
    1.1832    1.0190   -1.0239 C   0  0  0  0  0  0  0  0  0  0  0  0
    0.4684    0.2670    0.0892 C   0  0  0  0  0  3  0  0  0  0  0  0
   -0.7817    0.9797    0.5971 C   0  0  0  0  0  0  0  0  0  0  0  0
   -1.5260    0.1587    1.6385 C   0  0  0  0  0  0  0  0  0  0  0  0
   -0.4782    2.2755    1.0927 O   0  0  0  0  0  0  0  0  0  0  0  0
    1.4643    2.0203   -0.6971 H   0  0  0  0  0  0  0  0  0  0  0  0
    0.5367    1.1252   -1.8981 H   0  0  0  0  0  0  0  0  0  0  0  0
    2.0865    0.4937   -1.3376 H   0  0  0  0  0  0  0  0  0  0  0  0
    1.1478    0.1150    0.9371 H   0  0  0  0  0  0  0  0  0  0  0  0
   -1.4464    1.1662   -0.2516 H   0  0  0  0  0  0  0  0  0  0  0  0
   -0.8800   -0.0472    2.4978 H   0  0  0  0  0  0  0  0  0  0  0  0
   -1.8479   -0.7994    1.2264 H   0  0  0  0  0  0  0  0  0  0  0  0
   -2.4046    0.6990    1.9913 H   0  0  0  0  0  0  0  0  0  0  0  0
    0.0798    2.1755    1.8675 H   0  0  0  0  0  0  0  0  0  0  0  0
  1  2  1  0
  1  3  1  0
  2  4  1  0
  5  6  1  0
  5 10  1  0
  5 11  1  0
  5 12  1  0
  6  7  1  0
  6 13  1  0
  7  8  1  0
  7  9  1  0
  7 14  1  0
  8 15  1  0
  8 16  1  0
  8 17  1  0
  9 18  1  0
M  RAD  1   6   2
M  END
>  <reaction>  (13) 
rxn_5

>  <mol_properties>  (13) 
{"0": {"label": "*0", "atom_type": "O2s"}, "1": {"label": "*1", "atom_type": "O2s"}, "3": {"label": "*2", "atom_type": "H0"}, "5": {"label": "*3", "atom_type": "Cs"}, "6": {"label": "*4", "atom_type": "Cs"}}

>  <type>  (13) 
unop_9

>  <geom_source>  (13) 
Heuristics

$$$$

     RDKit          3D

 18 16  0  0  0  0  0  0  0  0999 V2000
    0.1348   -1.6143   -2.2561 O   0  0  0  0  0  0  0  0  0  0  0  0
    0.1348   -1.6143   -0.8314 O   0  0  0  0  0  0  0  0  0  0  0  0
    0.9955   -2.0026   -2.4432 H   0  0  0  0  0  0  0  0  0  0  0  0
    0.1348   -0.4812   -0.6070 H   0  0  0  0  0  0  0  0  0  0  0  0
   -1.1033    1.4568   -0.9517 C   0  0  0  0  0  0  0  0  0  0  0  0
    0.1348    0.8066   -0.3519 C   0  0  0  0  0  3  0  0  0  0  0  0
   -0.0711    0.3139    1.0776 C   0  0  0  0  0  0  0  0  0  0  0  0
    1.1503   -0.4164    1.6134 C   0  0  0  0  0  0  0  0  0  0  0  0
   -0.4516    1.3726    1.9444 O   0  0  0  0  0  0  0  0  0  0  0  0
   -1.4350    2.2965   -0.3407 H   0  0  0  0  0  0  0  0  0  0  0  0
   -1.9279    0.7427   -1.0089 H   0  0  0  0  0  0  0  0  0  0  0  0
   -0.9069    1.8226   -1.9606 H   0  0  0  0  0  0  0  0  0  0  0  0
    0.9716    1.5160   -0.3556 H   0  0  0  0  0  0  0  0  0  0  0  0
   -0.9280   -0.3660    1.0926 H   0  0  0  0  0  0  0  0  0  0  0  0
    2.0252    0.2413    1.6038 H   0  0  0  0  0  0  0  0  0  0  0  0
    1.3841   -1.2907    1.0032 H   0  0  0  0  0  0  0  0  0  0  0  0
    0.9780   -0.7434    2.6390 H   0  0  0  0  0  0  0  0  0  0  0  0
    0.2810    1.9904    2.0003 H   0  0  0  0  0  0  0  0  0  0  0  0
  1  2  1  0
  1  3  1  0
  2  4  1  0
  5  6  1  0
  5 10  1  0
  5 11  1  0
  5 12  1  0
  6  7  1  0
  6 13  1  0
  7  8  1  0
  7  9  1  0
  7 14  1  0
  8 15  1  0
  8 16  1  0
  8 17  1  0
  9 18  1  0
M  RAD  1   6   2
M  END
>  <reaction>  (14) 
rxn_5

>  <mol_properties>  (14) 
{"0": {"label": "*0", "atom_type": "O2s"}, "1": {"label": "*1", "atom_type": "O2s"}, "3": {"label": "*2", "atom_type": "H0"}, "5": {"label": "*3", "atom_type": "Cs"}, "6": {"label": "*4", "atom_type": "Cs"}}

>  <type>  (14) 
unop_10

>  <geom_source>  (14) 
Heuristics

$$$$

     RDKit          3D

 18 16  0  0  0  0  0  0  0  0999 V2000
    0.0250   -2.3219   -1.1871 O   0  0  0  0  0  0  0  0  0  0  0  0
    0.0250   -2.3219    0.2376 O   0  0  0  0  0  0  0  0  0  0  0  0
    0.8857   -2.7102   -1.3741 H   0  0  0  0  0  0  0  0  0  0  0  0
    0.0250   -1.1888    0.4621 H   0  0  0  0  0  0  0  0  0  0  0  0
    0.7398    0.3698    2.0329 C   0  0  0  0  0  0  0  0  0  0  0  0
    0.0250    0.0990    0.7172 C   0  0  0  0  0  3  0  0  0  0  0  0
    0.1417    1.2451   -0.2836 C   0  0  0  0  0  0  0  0  0  0  0  0
   -0.4983    0.9055   -1.6206 C   0  0  0  0  0  0  0  0  0  0  0  0
   -0.3892    2.4527    0.2424 O   0  0  0  0  0  0  0  0  0  0  0  0
    0.3596    1.2780    2.5010 H   0  0  0  0  0  0  0  0  0  0  0  0
    1.8119    0.5039    1.8719 H   0  0  0  0  0  0  0  0  0  0  0  0
    0.6072   -0.4580    2.7312 H   0  0  0  0  0  0  0  0  0  0  0  0
   -1.0396   -0.0930    0.8999 H   0  0  0  0  0  0  0  0  0  0  0  0
    1.2018    1.4644   -0.4412 H   0  0  0  0  0  0  0  0  0  0  0  0
   -1.5604    0.6758   -1.4900 H   0  0  0  0  0  0  0  0  0  0  0  0
   -0.0222    0.0340   -2.0738 H   0  0  0  0  0  0  0  0  0  0  0  0
   -0.4111    1.7470   -2.3081 H   0  0  0  0  0  0  0  0  0  0  0  0
   -1.3331    2.3330    0.3703 H   0  0  0  0  0  0  0  0  0  0  0  0
  1  2  1  0
  1  3  1  0
  2  4  1  0
  5  6  1  0
  5 10  1  0
  5 11  1  0
  5 12  1  0
  6  7  1  0
  6 13  1  0
  7  8  1  0
  7  9  1  0
  7 14  1  0
  8 15  1  0
  8 16  1  0
  8 17  1  0
  9 18  1  0
M  RAD  1   6   2
M  END
>  <reaction>  (15) 
rxn_5

>  <mol_properties>  (15) 
{"0": {"label": "*0", "atom_type": "O2s"}, "1": {"label": "*1", "atom_type": "O2s"}, "3": {"label": "*2", "atom_type": "H0"}, "5": {"label": "*3", "atom_type": "Cs"}, "6": {"label": "*4", "atom_type": "Cs"}}

>  <type>  (15) 
unop_11

>  <geom_source>  (15) 
Heuristics

$$$$

     RDKit          3D

 18 16  0  0  0  0  0  0  0  0999 V2000
    0.4958   -2.0004   -1.9561 O   0  0  0  0  0  0  0  0  0  0  0  0
    0.4958   -2.0004   -0.5315 O   0  0  0  0  0  0  0  0  0  0  0  0
    1.3565   -2.3887   -2.1432 H   0  0  0  0  0  0  0  0  0  0  0  0
    0.4958   -0.8672   -0.3070 H   0  0  0  0  0  0  0  0  0  0  0  0
    0.4958    1.2097   -1.3529 C   0  0  0  0  0  0  0  0  0  0  0  0
    0.4958    0.4205   -0.0519 C   0  0  0  0  0  3  0  0  0  0  0  0
   -0.6949    0.7360    0.8489 C   0  0  0  0  0  0  0  0  0  0  0  0
   -0.7187   -0.1371    2.0937 C   0  0  0  0  0  0  0  0  0  0  0  0
   -0.7381    2.1133    1.1927 O   0  0  0  0  0  0  0  0  0  0  0  0
    0.4853    2.2819   -1.1561 H   0  0  0  0  0  0  0  0  0  0  0  0
   -0.3880    0.9738   -1.9501 H   0  0  0  0  0  0  0  0  0  0  0  0
    1.3768    0.9793   -1.9537 H   0  0  0  0  0  0  0  0  0  0  0  0
    1.4166    0.6210    0.5098 H   0  0  0  0  0  0  0  0  0  0  0  0
   -1.6154    0.5724    0.2810 H   0  0  0  0  0  0  0  0  0  0  0  0
    0.1959    0.0035    2.6783 H   0  0  0  0  0  0  0  0  0  0  0  0
   -0.7866   -1.1943    1.8306 H   0  0  0  0  0  0  0  0  0  0  0  0
   -1.5710    0.1209    2.7225 H   0  0  0  0  0  0  0  0  0  0  0  0
    0.0342    2.3118    1.7273 H   0  0  0  0  0  0  0  0  0  0  0  0
  1  2  1  0
  1  3  1  0
  2  4  1  0
  5  6  1  0
  5 10  1  0
  5 11  1  0
  5 12  1  0
  6  7  1  0
  6 13  1  0
  7  8  1  0
  7  9  1  0
  7 14  1  0
  8 15  1  0
  8 16  1  0
  8 17  1  0
  9 18  1  0
M  RAD  1   6   2
M  END
>  <reaction>  (16) 
rxn_5

>  <mol_properties>  (16) 
{"0": {"label": "*0", "atom_type": "O2s"}, "1": {"label": "*1", "atom_type": "O2s"}, "3": {"label": "*2", "atom_type": "H0"}, "5": {"label": "*3", "atom_type": "Cs"}, "6": {"label": "*4", "atom_type": "Cs"}}

>  <type>  (16) 
unop_12

>  <geom_source>  (16) 
Heuristics

$$$$

     RDKit          3D

 18 16  0  0  0  0  0  0  0  0999 V2000
   -0.6553    0.9696    1.5101 O   0  0  0  0  0  0  0  0  0  0  0  0
    2.7549   -1.8574    0.0974 O   0  0  0  0  0  0  0  0  0  0  0  0
    1.5716   -1.2820    0.0758 O   0  0  0  0  0  1  0  0  0  0  0  0
   -0.4456    1.0483    0.1219 C   0  0  0  0  0  0  0  0  0  0  0  0
   -0.5647   -0.3389   -0.5375 C   0  0  0  0  0  0  0  0  0  0  0  0
    0.9172    1.6827   -0.1740 C   0  0  0  0  0  0  0  0  0  0  0  0
   -1.9513   -0.9457   -0.3351 C   0  0  0  0  0  0  0  0  0  0  0  0
   -1.2267    1.7130   -0.3077 H   0  0  0  0  0  0  0  0  0  0  0  0
   -0.3772   -0.2470   -1.6297 H   0  0  0  0  0  0  0  0  0  0  0  0
    0.2411   -1.0669   -0.0905 H   0  0  0  0  0  0  0  0  0  0  0  0
    1.0483    1.8170   -1.2690 H   0  0  0  0  0  0  0  0  0  0  0  0
    0.9814    2.6791    0.3124 H   0  0  0  0  0  0  0  0  0  0  0  0
    1.7392    1.0425    0.2119 H   0  0  0  0  0  0  0  0  0  0  0  0
   -2.0041   -1.9279   -0.8500 H   0  0  0  0  0  0  0  0  0  0  0  0
   -2.1521   -1.1034    0.7457 H   0  0  0  0  0  0  0  0  0  0  0  0
   -2.7309   -0.2789   -0.7611 H   0  0  0  0  0  0  0  0  0  0  0  0
    0.0428    0.3713    1.8860 H   0  0  0  0  0  0  0  0  0  0  0  0
    2.8113   -2.2755    0.9933 H   0  0  0  0  0  0  0  0  0  0  0  0
  1  4  1  0
  1 17  1  0
  2  3  1  0
  2 18  1  0
  4  6  1  0
  4  5  1  0
  4  8  1  0
  5  7  1  0
  5  9  1  0
  5 10  1  0
  6 11  1  0
  6 12  1  0
  6 13  1  0
  7 14  1  0
  7 15  1  0
  7 16  1  0
M  RAD  1   3   2
M  END
>  <reaction>  (17) 
rxn_5

>  <mol_properties>  (17) 
{"0": {"label": "*0", "atom_type": "O2s"}, "1": {"label": "*1", "atom_type": "O2s"}, "3": {"label": "*2", "atom_type": "H0"}, "5": {"label": "*3", "atom_type": "Cs"}, "6": {"label": "*4", "atom_type": "Cs"}}

>  <type>  (17) 
unop_13

>  <geom_source>  (17) 
AutoTST

$$$$
