
     RDKit          3D

 22 23  0  0  0  0  0  0  0  0999 V2000
   -2.1093   -0.3263    0.3079 C   0  0  0  0  0  0  0  0  0  0  0  0
   -1.3270    0.9803    0.4115 C   0  0  0  0  0  0  0  0  0  0  0  0
   -0.1818    0.8289   -0.6044 C   0  0  0  0  0  0  0  0  0  0  0  0
    1.1682    1.3904   -0.1341 C   0  0  0  0  0  0  0  0  0  0  0  0
    1.8508    0.2041    0.5479 C   0  0  0  0  0  0  0  0  0  0  0  0
    1.4982   -0.9663   -0.3710 C   0  0  0  0  0  0  0  0  0  0  0  0
    0.0340   -0.7124   -0.7594 C   0  0  0  0  0  0  0  0  0  0  0  0
   -0.9986   -1.3650    0.1756 C   0  0  0  0  0  0  0  0  0  0  0  0
   -2.7686   -0.5042    1.1589 H   0  0  0  0  0  0  0  0  0  0  0  0
   -2.7285   -0.3223   -0.5943 H   0  0  0  0  0  0  0  0  0  0  0  0
   -1.9339    1.8682    0.2289 H   0  0  0  0  0  0  0  0  0  0  0  0
   -0.9144    1.0729    1.4218 H   0  0  0  0  0  0  0  0  0  0  0  0
   -0.4804    1.2763   -1.5535 H   0  0  0  0  0  0  0  0  0  0  0  0
    1.7667    1.7058   -0.9931 H   0  0  0  0  0  0  0  0  0  0  0  0
    1.0540    2.2578    0.5189 H   0  0  0  0  0  0  0  0  0  0  0  0
    1.4197    0.0438    1.5410 H   0  0  0  0  0  0  0  0  0  0  0  0
    2.9248    0.3413    0.6788 H   0  0  0  0  0  0  0  0  0  0  0  0
    2.1362   -0.9329   -1.2584 H   0  0  0  0  0  0  0  0  0  0  0  0
    1.6421   -1.9421    0.0966 H   0  0  0  0  0  0  0  0  0  0  0  0
   -0.1575   -1.0299   -1.7854 H   0  0  0  0  0  0  0  0  0  0  0  0
   -1.3459   -2.3310   -0.1933 H   0  0  0  0  0  0  0  0  0  0  0  0
   -0.5489   -1.5373    1.1593 H   0  0  0  0  0  0  0  0  0  0  0  0
  1  2  1  0
  1  8  1  0
  1  9  1  0
  1 10  1  0
  2  3  1  0
  2 11  1  0
  2 12  1  0
  3  4  1  0
  3  7  1  0
  3 13  1  0
  4  5  1  0
  4 14  1  0
  4 15  1  0
  5  6  1  0
  5 16  1  0
  5 17  1  0
  6  7  1  0
  6 18  1  0
  6 19  1  0
  7  8  1  0
  7 20  1  0
  8 21  1  0
  8 22  1  0
M  END
>  <reaction>  (1) 
rxn_574

>  <mol_properties>  (1) 
{"2": {"label": "donator", "atom_type": "Cs"}, "12": {"label": "d_hydrogen", "atom_type": "H0"}}

>  <type>  (1) 
r1h

$$$$

     RDKit          3D

  9  8  0  0  0  0  0  0  0  0999 V2000
    1.8963   -0.1405   -0.2150 C   0  0  0  0  0  0  0  0  0  0  0  0
    0.6340    0.1486   -0.2254 C   0  0  0  0  0  3  0  0  0  0  0  0
   -0.6770    0.4501   -0.2373 C   0  0  0  0  0  0  0  0  0  0  0  0
   -1.6600   -0.2303    0.4662 C   0  0  0  0  0  0  0  0  0  0  0  0
    2.3274   -0.8354   -0.9313 H   0  0  0  0  0  0  0  0  0  0  0  0
    2.5751    0.2988    0.5117 H   0  0  0  0  0  0  0  0  0  0  0  0
   -0.9723    1.2966   -0.8520 H   0  0  0  0  0  0  0  0  0  0  0  0
   -2.6934    0.0777    0.4015 H   0  0  0  0  0  0  0  0  0  0  0  0
   -1.4140   -1.0782    1.0904 H   0  0  0  0  0  0  0  0  0  0  0  0
  1  2  2  3
  1  5  1  0
  1  6  1  0
  2  3  1  0
  3  4  2  3
  3  7  1  0
  4  8  1  0
  4  9  1  0
M  RAD  1   2   2
M  END
>  <reaction>  (2) 
rxn_574

>  <mol_properties>  (2) 
{"1": {"label": "acceptor", "atom_type": "Cd"}}

>  <type>  (2) 
r2

$$$$

     RDKit          3D

 10  9  0  0  0  0  0  0  0  0999 V2000
    1.8334    0.0847   -0.1062 C   0  0  0  0  0  0  0  0  0  0  0  0
    0.5993   -0.4071   -0.0750 C   0  0  0  0  0  0  0  0  0  0  0  0
   -0.5993    0.4071    0.0750 C   0  0  0  0  0  0  0  0  0  0  0  0
   -1.8334   -0.0847    0.1062 C   0  0  0  0  0  0  0  0  0  0  0  0
    2.0179    1.1498   -0.0189 H   0  0  0  0  0  0  0  0  0  0  0  0
    2.6972   -0.5572   -0.2194 H   0  0  0  0  0  0  0  0  0  0  0  0
    0.4465   -1.4793   -0.1649 H   0  0  0  0  0  0  0  0  0  0  0  0
   -0.4465    1.4793    0.1649 H   0  0  0  0  0  0  0  0  0  0  0  0
   -2.0179   -1.1498    0.0189 H   0  0  0  0  0  0  0  0  0  0  0  0
   -2.6972    0.5572    0.2194 H   0  0  0  0  0  0  0  0  0  0  0  0
  1  2  2  3
  1  5  1  0
  1  6  1  0
  2  3  1  0
  2  7  1  0
  3  4  2  3
  3  8  1  0
  4  9  1  0
  4 10  1  0
M  END
>  <reaction>  (3) 
rxn_574

>  <mol_properties>  (3) 
{"1": {"label": "acceptor", "atom_type": "Cd"}, "9": {"label": "a_hydrogen", "atom_type": "H0"}}

>  <type>  (3) 
r2h

$$$$

     RDKit          3D

 31 31  0  0  0  0  0  0  0  0999 V2000
   -1.9592   -2.4898    0.5269 C   0  0  0  0  0  0  0  0  0  0  0  0
   -1.8678   -1.1773    0.6310 C   0  0  0  0  0  3  0  0  0  0  0  0
   -2.9187   -0.2125    0.8702 C   0  0  0  0  0  0  0  0  0  0  0  0
   -2.7464    1.1050    0.9158 C   0  0  0  0  0  0  0  0  0  0  0  0
   -1.0923   -3.1124    0.3378 H   0  0  0  0  0  0  0  0  0  0  0  0
   -2.9150   -3.0033    0.6260 H   0  0  0  0  0  0  0  0  0  0  0  0
   -3.9183   -0.6229    1.0177 H   0  0  0  0  0  0  0  0  0  0  0  0
   -3.5768    1.7750    1.0956 H   0  0  0  0  0  0  0  0  0  0  0  0
   -1.7698    1.5513    0.7734 H   0  0  0  0  0  0  0  0  0  0  0  0
    1.3695   -1.3161   -1.7397 C   0  0  0  0  0  0  0  0  0  0  0  0
    1.4544   -1.3580   -0.2145 C   0  0  0  0  0  0  0  0  0  0  0  0
    0.6003   -0.1813    0.2408 C   0  0  1  0  0  0  0  0  0  0  0  0
    1.0733    0.6139    1.4488 C   0  0  0  0  0  0  0  0  0  0  0  0
    1.8246    1.7957    0.8248 C   0  0  0  0  0  0  0  0  0  0  0  0
    0.9689    2.1555   -0.3930 C   0  0  0  0  0  0  0  0  0  0  0  0
    0.5052    0.8001   -0.9495 C   0  0  1  0  0  0  0  0  0  0  0  0
    1.4029    0.1829   -2.0341 C   0  0  0  0  0  0  0  0  0  0  0  0
    2.1684   -1.8720   -2.2321 H   0  0  0  0  0  0  0  0  0  0  0  0
    0.4159   -1.7390   -2.0690 H   0  0  0  0  0  0  0  0  0  0  0  0
    1.1347   -2.3080    0.2177 H   0  0  0  0  0  0  0  0  0  0  0  0
    2.4928   -1.2004    0.1022 H   0  0  0  0  0  0  0  0  0  0  0  0
   -0.5499   -0.6306    0.4616 H   0  0  0  0  0  0  0  0  0  0  0  0
    0.2187    0.9828    2.0245 H   0  0  0  0  0  0  0  0  0  0  0  0
    1.6875    0.0197    2.1271 H   0  0  0  0  0  0  0  0  0  0  0  0
    2.8174    1.4703    0.4995 H   0  0  0  0  0  0  0  0  0  0  0  0
    1.9649    2.6297    1.5135 H   0  0  0  0  0  0  0  0  0  0  0  0
    0.1078    2.7474   -0.0701 H   0  0  0  0  0  0  0  0  0  0  0  0
    1.5060    2.7489   -1.1350 H   0  0  0  0  0  0  0  0  0  0  0  0
   -0.5199    0.8593   -1.3242 H   0  0  0  0  0  0  0  0  0  0  0  0
    1.0774    0.4362   -3.0438 H   0  0  0  0  0  0  0  0  0  0  0  0
    2.4277    0.5520   -1.9182 H   0  0  0  0  0  0  0  0  0  0  0  0
  1  2  2  3
  1  5  1  0
  1  6  1  0
  2  3  1  0
  3  4  2  3
  3  7  1  0
  4  8  1  0
  4  9  1  0
 10 11  1  0
 10 17  1  0
 10 18  1  0
 10 19  1  0
 11 12  1  0
 11 20  1  0
 11 21  1  0
 12 13  1  0
 12 16  1  0
 12 22  1  1
 13 14  1  0
 13 23  1  0
 13 24  1  0
 14 15  1  0
 14 25  1  0
 14 26  1  0
 15 16  1  0
 15 27  1  0
 15 28  1  0
 16 17  1  0
 16 29  1  6
 17 30  1  0
 17 31  1  0
M  RAD  1   2   2
M  END
>  <reaction>  (4) 
rxn_574

>  <mol_properties>  (4) 
{"1": {"label": "*3", "atom_type": "Cd"}, "2": {"label": "*4", "atom_type": "Cd"}, "11": {"label": "*1", "atom_type": "Cs"}, "15": {"label": "*0", "atom_type": "Cs"}, "21": {"label": "*2", "atom_type": "H0"}}

>  <type>  (4) 
ts

$$$$

     RDKit          3D

 31 31  0  0  0  0  0  0  0  0999 V2000
   -2.6276   -0.9081   -0.6912 C   0  0  0  0  0  0  0  0  0  0  0  0
   -1.9425   -1.0577    0.4377 C   0  0  0  0  0  0  0  0  0  0  0  0
   -2.5092   -0.8687    1.7664 C   0  0  0  0  0  0  0  0  0  0  0  0
   -1.8241   -1.0182    2.8952 C   0  0  0  0  0  0  0  0  0  0  0  0
   -2.1666   -1.0586   -1.6586 H   0  0  0  0  0  0  0  0  0  0  0  0
   -3.6755   -0.6293   -0.6816 H   0  0  0  0  0  0  0  0  0  0  0  0
   -3.5583   -0.5886    1.8084 H   0  0  0  0  0  0  0  0  0  0  0  0
   -2.2851   -0.8677    3.8626 H   0  0  0  0  0  0  0  0  0  0  0  0
   -0.7762   -1.2971    2.8856 H   0  0  0  0  0  0  0  0  0  0  0  0
    1.4062   -1.2017   -1.8737 C   0  0  0  0  0  0  0  0  0  0  0  0
    1.4062   -1.2017   -0.3473 C   0  0  0  0  0  0  0  0  0  0  0  0
    0.4429   -0.0670    0.0411 C   0  0  0  0  0  3  0  0  0  0  0  0
    0.8956    0.7716    1.2455 C   0  0  0  0  0  0  0  0  0  0  0  0
    1.7076    1.9098    0.6262 C   0  0  0  0  0  0  0  0  0  0  0  0
    0.8956    2.2694   -0.6187 C   0  0  0  0  0  0  0  0  0  0  0  0
    0.4429    0.9126   -1.1781 C   0  0  0  0  0  0  0  0  0  0  0  0
    1.4062    0.2889   -2.2026 C   0  0  0  0  0  0  0  0  0  0  0  0
    2.2511   -1.7399   -2.3061 H   0  0  0  0  0  0  0  0  0  0  0  0
    0.4904   -1.6686   -2.2488 H   0  0  0  0  0  0  0  0  0  0  0  0
    1.1219   -2.1601    0.0893 H   0  0  0  0  0  0  0  0  0  0  0  0
    2.4144   -0.9691    0.0120 H   0  0  0  0  0  0  0  0  0  0  0  0
   -0.7522   -0.5633    0.2398 H   0  0  0  0  0  0  0  0  0  0  0  0
    0.0278    1.1884    1.7640 H   0  0  0  0  0  0  0  0  0  0  0  0
    1.4587    0.1849    1.9738 H   0  0  0  0  0  0  0  0  0  0  0  0
    2.6987    1.5479    0.3354 H   0  0  0  0  0  0  0  0  0  0  0  0
    1.8555    2.7521    1.3029 H   0  0  0  0  0  0  0  0  0  0  0  0
    0.0278    2.8655   -0.3234 H   0  0  0  0  0  0  0  0  0  0  0  0
    1.4587    2.8542   -1.3486 H   0  0  0  0  0  0  0  0  0  0  0  0
   -0.5530    0.9851   -1.6177 H   0  0  0  0  0  0  0  0  0  0  0  0
    1.1219    0.5087   -3.2325 H   0  0  0  0  0  0  0  0  0  0  0  0
    2.4144    0.6898   -2.0529 H   0  0  0  0  0  0  0  0  0  0  0  0
  1  2  2  3
  1  5  1  0
  1  6  1  0
  2  3  1  0
  2 22  1  0
  3  4  2  3
  3  7  1  0
  4  8  1  0
  4  9  1  0
 10 17  1  0
 10 11  1  0
 10 18  1  0
 10 19  1  0
 11 12  1  0
 11 20  1  0
 11 21  1  0
 12 13  1  0
 12 16  1  0
 13 14  1  0
 13 23  1  0
 13 24  1  0
 14 15  1  0
 14 25  1  0
 14 26  1  0
 15 16  1  0
 15 27  1  0
 15 28  1  0
 16 17  1  0
 16 29  1  0
 17 30  1  0
 17 31  1  0
M  RAD  1  12   2
M  END
>  <reaction>  (5) 
rxn_574

>  <mol_properties>  (5) 
{"1": {"label": "*3", "atom_type": "Cd"}, "2": {"label": "*4", "atom_type": "Cd"}, "11": {"label": "*1", "atom_type": "Cs"}, "15": {"label": "*0", "atom_type": "Cs"}, "21": {"label": "*2", "atom_type": "H0"}}

>  <type>  (5) 
unop_1

>  <geom_source>  (5) 
Heuristics

$$$$

     RDKit          3D

 31 31  0  0  0  0  0  0  0  0999 V2000
   -3.0386    0.0636    0.6494 C   0  0  0  0  0  0  0  0  0  0  0  0
   -2.0274   -0.7954    0.5748 C   0  0  0  0  0  0  0  0  0  0  0  0
   -2.0858   -2.1677    1.0604 C   0  0  0  0  0  0  0  0  0  0  0  0
   -1.0746   -3.0266    0.9858 C   0  0  0  0  0  0  0  0  0  0  0  0
   -2.9521    1.0754    0.2757 H   0  0  0  0  0  0  0  0  0  0  0  0
   -3.9883   -0.2210    1.0889 H   0  0  0  0  0  0  0  0  0  0  0  0
   -3.0254   -2.4824    1.5064 H   0  0  0  0  0  0  0  0  0  0  0  0
   -1.1611   -4.0384    1.3595 H   0  0  0  0  0  0  0  0  0  0  0  0
   -0.1248   -2.7421    0.5464 H   0  0  0  0  0  0  0  0  0  0  0  0
    1.3213   -0.9394   -1.7365 C   0  0  0  0  0  0  0  0  0  0  0  0
    1.3213   -0.9394   -0.2101 C   0  0  0  0  0  0  0  0  0  0  0  0
    0.3580    0.1953    0.1783 C   0  0  0  0  0  3  0  0  0  0  0  0
    0.8107    1.0339    1.3827 C   0  0  0  0  0  0  0  0  0  0  0  0
    1.6227    2.1721    0.7633 C   0  0  0  0  0  0  0  0  0  0  0  0
    0.8107    2.5317   -0.4816 C   0  0  0  0  0  0  0  0  0  0  0  0
    0.3580    1.1749   -1.0410 C   0  0  0  0  0  0  0  0  0  0  0  0
    1.3213    0.5512   -2.0654 C   0  0  0  0  0  0  0  0  0  0  0  0
    2.1662   -1.4776   -2.1689 H   0  0  0  0  0  0  0  0  0  0  0  0
    0.4055   -1.4063   -2.1116 H   0  0  0  0  0  0  0  0  0  0  0  0
    1.0370   -1.8978    0.2265 H   0  0  0  0  0  0  0  0  0  0  0  0
    2.3295   -0.7069    0.1492 H   0  0  0  0  0  0  0  0  0  0  0  0
   -0.8371   -0.3010    0.3769 H   0  0  0  0  0  0  0  0  0  0  0  0
   -0.0571    1.4507    1.9011 H   0  0  0  0  0  0  0  0  0  0  0  0
    1.3738    0.4472    2.1110 H   0  0  0  0  0  0  0  0  0  0  0  0
    2.6139    1.8102    0.4726 H   0  0  0  0  0  0  0  0  0  0  0  0
    1.7707    3.0144    1.4401 H   0  0  0  0  0  0  0  0  0  0  0  0
   -0.0571    3.1277   -0.1862 H   0  0  0  0  0  0  0  0  0  0  0  0
    1.3738    3.1164   -1.2114 H   0  0  0  0  0  0  0  0  0  0  0  0
   -0.6379    1.2474   -1.4805 H   0  0  0  0  0  0  0  0  0  0  0  0
    1.0370    0.7710   -3.0953 H   0  0  0  0  0  0  0  0  0  0  0  0
    2.3295    0.9521   -1.9157 H   0  0  0  0  0  0  0  0  0  0  0  0
  1  2  2  3
  1  5  1  0
  1  6  1  0
  2  3  1  0
  2 22  1  0
  3  4  2  3
  3  7  1  0
  4  8  1  0
  4  9  1  0
 10 17  1  0
 10 11  1  0
 10 18  1  0
 10 19  1  0
 11 12  1  0
 11 20  1  0
 11 21  1  0
 12 13  1  0
 12 16  1  0
 13 14  1  0
 13 23  1  0
 13 24  1  0
 14 15  1  0
 14 25  1  0
 14 26  1  0
 15 16  1  0
 15 27  1  0
 15 28  1  0
 16 17  1  0
 16 29  1  0
 17 30  1  0
 17 31  1  0
M  RAD  1  12   2
M  END
>  <reaction>  (6) 
rxn_574

>  <mol_properties>  (6) 
{"1": {"label": "*3", "atom_type": "Cd"}, "2": {"label": "*4", "atom_type": "Cd"}, "11": {"label": "*1", "atom_type": "Cs"}, "15": {"label": "*0", "atom_type": "Cs"}, "21": {"label": "*2", "atom_type": "H0"}}

>  <type>  (6) 
unop_2

>  <geom_source>  (6) 
Heuristics

$$$$

     RDKit          3D

 31 31  0  0  0  0  0  0  0  0999 V2000
   -2.3674   -1.7618   -0.5777 C   0  0  0  0  0  0  0  0  0  0  0  0
   -1.8977   -1.1396    0.4985 C   0  0  0  0  0  0  0  0  0  0  0  0
   -2.7339   -0.4453    1.4687 C   0  0  0  0  0  0  0  0  0  0  0  0
   -2.2642    0.1769    2.5449 C   0  0  0  0  0  0  0  0  0  0  0  0
   -1.7097   -2.2659   -1.2736 H   0  0  0  0  0  0  0  0  0  0  0  0
   -3.4294   -1.7858   -0.7962 H   0  0  0  0  0  0  0  0  0  0  0  0
   -3.8034   -0.4520    1.2767 H   0  0  0  0  0  0  0  0  0  0  0  0
   -2.9219    0.6810    3.2408 H   0  0  0  0  0  0  0  0  0  0  0  0
   -1.2023    0.2009    2.7633 H   0  0  0  0  0  0  0  0  0  0  0  0
    1.4510   -1.2836   -1.8129 C   0  0  0  0  0  0  0  0  0  0  0  0
    1.4510   -1.2836   -0.2864 C   0  0  0  0  0  0  0  0  0  0  0  0
    0.4876   -0.1489    0.1019 C   0  0  0  0  0  3  0  0  0  0  0  0
    0.9404    0.6897    1.3064 C   0  0  0  0  0  0  0  0  0  0  0  0
    1.7524    1.8279    0.6870 C   0  0  0  0  0  0  0  0  0  0  0  0
    0.9404    2.1875   -0.5579 C   0  0  0  0  0  0  0  0  0  0  0  0
    0.4876    0.8307   -1.1173 C   0  0  0  0  0  0  0  0  0  0  0  0
    1.4510    0.2070   -2.1417 C   0  0  0  0  0  0  0  0  0  0  0  0
    2.2958   -1.8218   -2.2453 H   0  0  0  0  0  0  0  0  0  0  0  0
    0.5351   -1.7505   -2.1879 H   0  0  0  0  0  0  0  0  0  0  0  0
    1.1667   -2.2420    0.1502 H   0  0  0  0  0  0  0  0  0  0  0  0
    2.4591   -1.0511    0.0729 H   0  0  0  0  0  0  0  0  0  0  0  0
   -0.7074   -0.6452    0.3006 H   0  0  0  0  0  0  0  0  0  0  0  0
    0.0726    1.1065    1.8248 H   0  0  0  0  0  0  0  0  0  0  0  0
    1.5035    0.1030    2.0346 H   0  0  0  0  0  0  0  0  0  0  0  0
    2.7435    1.4660    0.3963 H   0  0  0  0  0  0  0  0  0  0  0  0
    1.9003    2.6702    1.3637 H   0  0  0  0  0  0  0  0  0  0  0  0
    0.0726    2.7835   -0.2626 H   0  0  0  0  0  0  0  0  0  0  0  0
    1.5035    2.7723   -1.2878 H   0  0  0  0  0  0  0  0  0  0  0  0
   -0.5083    0.9032   -1.5569 H   0  0  0  0  0  0  0  0  0  0  0  0
    1.1667    0.4268   -3.1716 H   0  0  0  0  0  0  0  0  0  0  0  0
    2.4591    0.6079   -1.9920 H   0  0  0  0  0  0  0  0  0  0  0  0
  1  2  2  3
  1  5  1  0
  1  6  1  0
  2  3  1  0
  2 22  1  0
  3  4  2  3
  3  7  1  0
  4  8  1  0
  4  9  1  0
 10 17  1  0
 10 11  1  0
 10 18  1  0
 10 19  1  0
 11 12  1  0
 11 20  1  0
 11 21  1  0
 12 13  1  0
 12 16  1  0
 13 14  1  0
 13 23  1  0
 13 24  1  0
 14 15  1  0
 14 25  1  0
 14 26  1  0
 15 16  1  0
 15 27  1  0
 15 28  1  0
 16 17  1  0
 16 29  1  0
 17 30  1  0
 17 31  1  0
M  RAD  1  12   2
M  END
>  <reaction>  (7) 
rxn_574

>  <mol_properties>  (7) 
{"1": {"label": "*3", "atom_type": "Cd"}, "2": {"label": "*4", "atom_type": "Cd"}, "11": {"label": "*1", "atom_type": "Cs"}, "15": {"label": "*0", "atom_type": "Cs"}, "21": {"label": "*2", "atom_type": "H0"}}

>  <type>  (7) 
unop_3

>  <geom_source>  (7) 
Heuristics

$$$$

     RDKit          3D

 31 31  0  0  0  0  0  0  0  0999 V2000
   -2.6147   -0.2419    1.7698 C   0  0  0  0  0  0  0  0  0  0  0  0
   -1.9343   -0.9124    0.8460 C   0  0  0  0  0  0  0  0  0  0  0  0
   -2.5493   -1.5922   -0.2863 C   0  0  0  0  0  0  0  0  0  0  0  0
   -1.8689   -2.2627   -1.2102 C   0  0  0  0  0  0  0  0  0  0  0  0
   -2.1171    0.2491    2.5958 H   0  0  0  0  0  0  0  0  0  0  0  0
   -3.6955   -0.1637    1.7275 H   0  0  0  0  0  0  0  0  0  0  0  0
   -3.6320   -1.5315   -0.3558 H   0  0  0  0  0  0  0  0  0  0  0  0
   -2.3665   -2.7537   -2.0361 H   0  0  0  0  0  0  0  0  0  0  0  0
   -0.7881   -2.3410   -1.1679 H   0  0  0  0  0  0  0  0  0  0  0  0
    1.4144   -1.0565   -1.4654 C   0  0  0  0  0  0  0  0  0  0  0  0
    1.4144   -1.0565    0.0611 C   0  0  0  0  0  0  0  0  0  0  0  0
    0.4511    0.0783    0.4494 C   0  0  0  0  0  3  0  0  0  0  0  0
    0.9038    0.9169    1.6539 C   0  0  0  0  0  0  0  0  0  0  0  0
    1.7158    2.0550    1.0345 C   0  0  0  0  0  0  0  0  0  0  0  0
    0.9038    2.4147   -0.2104 C   0  0  0  0  0  0  0  0  0  0  0  0
    0.4511    1.0578   -0.7698 C   0  0  0  0  0  0  0  0  0  0  0  0
    1.4144    0.4341   -1.7942 C   0  0  0  0  0  0  0  0  0  0  0  0
    2.2593   -1.5946   -1.8978 H   0  0  0  0  0  0  0  0  0  0  0  0
    0.4986   -1.5233   -1.8404 H   0  0  0  0  0  0  0  0  0  0  0  0
    1.1301   -2.0148    0.4977 H   0  0  0  0  0  0  0  0  0  0  0  0
    2.4226   -0.8239    0.4203 H   0  0  0  0  0  0  0  0  0  0  0  0
   -0.7440   -0.4180    0.6481 H   0  0  0  0  0  0  0  0  0  0  0  0
    0.0360    1.3337    2.1723 H   0  0  0  0  0  0  0  0  0  0  0  0
    1.4669    0.3301    2.3821 H   0  0  0  0  0  0  0  0  0  0  0  0
    2.7069    1.6932    0.7438 H   0  0  0  0  0  0  0  0  0  0  0  0
    1.8637    2.8974    1.7112 H   0  0  0  0  0  0  0  0  0  0  0  0
    0.0360    3.0107    0.0849 H   0  0  0  0  0  0  0  0  0  0  0  0
    1.4669    2.9994   -0.9403 H   0  0  0  0  0  0  0  0  0  0  0  0
   -0.5448    1.1304   -1.2094 H   0  0  0  0  0  0  0  0  0  0  0  0
    1.1301    0.6540   -2.8241 H   0  0  0  0  0  0  0  0  0  0  0  0
    2.4226    0.8351   -1.6445 H   0  0  0  0  0  0  0  0  0  0  0  0
  1  2  2  3
  1  5  1  0
  1  6  1  0
  2  3  1  0
  2 22  1  0
  3  4  2  3
  3  7  1  0
  4  8  1  0
  4  9  1  0
 10 17  1  0
 10 11  1  0
 10 18  1  0
 10 19  1  0
 11 12  1  0
 11 20  1  0
 11 21  1  0
 12 13  1  0
 12 16  1  0
 13 14  1  0
 13 23  1  0
 13 24  1  0
 14 15  1  0
 14 25  1  0
 14 26  1  0
 15 16  1  0
 15 27  1  0
 15 28  1  0
 16 17  1  0
 16 29  1  0
 17 30  1  0
 17 31  1  0
M  RAD  1  12   2
M  END
>  <reaction>  (8) 
rxn_574

>  <mol_properties>  (8) 
{"1": {"label": "*3", "atom_type": "Cd"}, "2": {"label": "*4", "atom_type": "Cd"}, "11": {"label": "*1", "atom_type": "Cs"}, "15": {"label": "*0", "atom_type": "Cs"}, "21": {"label": "*2", "atom_type": "H0"}}

>  <type>  (8) 
unop_4

>  <geom_source>  (8) 
Heuristics

$$$$

     RDKit          3D

 31 31  0  0  0  0  0  0  0  0999 V2000
   -2.0660   -2.4842    0.4462 C   0  0  0  0  0  0  0  0  0  0  0  0
   -1.8645   -1.1791    0.5944 C   0  0  0  0  0  0  0  0  0  0  0  0
   -2.9043   -0.2313    0.9724 C   0  0  0  0  0  0  0  0  0  0  0  0
   -2.7029    1.0738    1.1205 C   0  0  0  0  0  0  0  0  0  0  0  0
   -1.2639   -3.1535    0.1639 H   0  0  0  0  0  0  0  0  0  0  0  0
   -3.0443   -2.9248    0.6038 H   0  0  0  0  0  0  0  0  0  0  0  0
   -3.8963   -0.6433    1.1373 H   0  0  0  0  0  0  0  0  0  0  0  0
   -3.5049    1.7431    1.4029 H   0  0  0  0  0  0  0  0  0  0  0  0
   -1.7245    1.5144    0.9629 H   0  0  0  0  0  0  0  0  0  0  0  0
    1.4842   -1.3231   -1.7170 C   0  0  0  0  0  0  0  0  0  0  0  0
    1.4842   -1.3231   -0.1905 C   0  0  0  0  0  0  0  0  0  0  0  0
    0.5209   -0.1884    0.1978 C   0  0  0  0  0  3  0  0  0  0  0  0
    0.9736    0.6502    1.4023 C   0  0  0  0  0  0  0  0  0  0  0  0
    1.7856    1.7884    0.7829 C   0  0  0  0  0  0  0  0  0  0  0  0
    0.9736    2.1480   -0.4620 C   0  0  0  0  0  0  0  0  0  0  0  0
    0.5209    0.7912   -1.0214 C   0  0  0  0  0  0  0  0  0  0  0  0
    1.4842    0.1675   -2.0458 C   0  0  0  0  0  0  0  0  0  0  0  0
    2.3291   -1.8613   -2.1494 H   0  0  0  0  0  0  0  0  0  0  0  0
    0.5684   -1.7900   -2.0921 H   0  0  0  0  0  0  0  0  0  0  0  0
    1.1999   -2.2815    0.2460 H   0  0  0  0  0  0  0  0  0  0  0  0
    2.4924   -1.0905    0.1687 H   0  0  0  0  0  0  0  0  0  0  0  0
   -0.6742   -0.6847    0.3965 H   0  0  0  0  0  0  0  0  0  0  0  0
    0.1058    1.0670    1.9207 H   0  0  0  0  0  0  0  0  0  0  0  0
    1.5367    0.0635    2.1305 H   0  0  0  0  0  0  0  0  0  0  0  0
    2.7767    1.4265    0.4922 H   0  0  0  0  0  0  0  0  0  0  0  0
    1.9336    2.6307    1.4596 H   0  0  0  0  0  0  0  0  0  0  0  0
    0.1058    2.7441   -0.1667 H   0  0  0  0  0  0  0  0  0  0  0  0
    1.5367    2.7328   -1.1919 H   0  0  0  0  0  0  0  0  0  0  0  0
   -0.4750    0.8637   -1.4610 H   0  0  0  0  0  0  0  0  0  0  0  0
    1.1999    0.3873   -3.0758 H   0  0  0  0  0  0  0  0  0  0  0  0
    2.4924    0.5684   -1.8961 H   0  0  0  0  0  0  0  0  0  0  0  0
  1  2  2  3
  1  5  1  0
  1  6  1  0
  2  3  1  0
  2 22  1  0
  3  4  2  3
  3  7  1  0
  4  8  1  0
  4  9  1  0
 10 17  1  0
 10 11  1  0
 10 18  1  0
 10 19  1  0
 11 12  1  0
 11 20  1  0
 11 21  1  0
 12 13  1  0
 12 16  1  0
 13 14  1  0
 13 23  1  0
 13 24  1  0
 14 15  1  0
 14 25  1  0
 14 26  1  0
 15 16  1  0
 15 27  1  0
 15 28  1  0
 16 17  1  0
 16 29  1  0
 17 30  1  0
 17 31  1  0
M  RAD  1  12   2
M  END
>  <reaction>  (9) 
rxn_574

>  <mol_properties>  (9) 
{"1": {"label": "*3", "atom_type": "Cd"}, "2": {"label": "*4", "atom_type": "Cd"}, "11": {"label": "*1", "atom_type": "Cs"}, "15": {"label": "*0", "atom_type": "Cs"}, "21": {"label": "*2", "atom_type": "H0"}}

>  <type>  (9) 
unop_5

>  <geom_source>  (9) 
Heuristics

$$$$

     RDKit          3D

 31 31  0  0  0  0  0  0  0  0999 V2000
   -2.2916   -0.6697    2.0679 C   0  0  0  0  0  0  0  0  0  0  0  0
   -1.8910   -1.0166    0.8493 C   0  0  0  0  0  0  0  0  0  0  0  0
   -2.7690   -1.0748   -0.3118 C   0  0  0  0  0  0  0  0  0  0  0  0
   -2.3683   -1.4216   -1.5305 C   0  0  0  0  0  0  0  0  0  0  0  0
   -1.6049   -0.6398    2.9036 H   0  0  0  0  0  0  0  0  0  0  0  0
   -3.3239   -0.4040    2.2673 H   0  0  0  0  0  0  0  0  0  0  0  0
   -3.8102   -0.8136   -0.1433 H   0  0  0  0  0  0  0  0  0  0  0  0
   -3.0551   -1.4516   -2.3662 H   0  0  0  0  0  0  0  0  0  0  0  0
   -1.3360   -1.6874   -1.7299 H   0  0  0  0  0  0  0  0  0  0  0  0
    1.4577   -1.1607   -1.4621 C   0  0  0  0  0  0  0  0  0  0  0  0
    1.4577   -1.1607    0.0644 C   0  0  0  0  0  0  0  0  0  0  0  0
    0.4944   -0.0259    0.4527 C   0  0  0  0  0  3  0  0  0  0  0  0
    0.9471    0.8126    1.6572 C   0  0  0  0  0  0  0  0  0  0  0  0
    1.7591    1.9508    1.0378 C   0  0  0  0  0  0  0  0  0  0  0  0
    0.9471    2.3105   -0.2071 C   0  0  0  0  0  0  0  0  0  0  0  0
    0.4944    0.9536   -0.7665 C   0  0  0  0  0  0  0  0  0  0  0  0
    1.4577    0.3299   -1.7909 C   0  0  0  0  0  0  0  0  0  0  0  0
    2.3026   -1.6989   -1.8945 H   0  0  0  0  0  0  0  0  0  0  0  0
    0.5419   -1.6275   -1.8371 H   0  0  0  0  0  0  0  0  0  0  0  0
    1.1734   -2.1190    0.5010 H   0  0  0  0  0  0  0  0  0  0  0  0
    2.4659   -0.9281    0.4237 H   0  0  0  0  0  0  0  0  0  0  0  0
   -0.7007   -0.5223    0.6514 H   0  0  0  0  0  0  0  0  0  0  0  0
    0.0793    1.2295    2.1756 H   0  0  0  0  0  0  0  0  0  0  0  0
    1.5102    0.2259    2.3854 H   0  0  0  0  0  0  0  0  0  0  0  0
    2.7502    1.5890    0.7471 H   0  0  0  0  0  0  0  0  0  0  0  0
    1.9070    2.7932    1.7145 H   0  0  0  0  0  0  0  0  0  0  0  0
    0.0793    2.9065    0.0882 H   0  0  0  0  0  0  0  0  0  0  0  0
    1.5102    2.8952   -0.9370 H   0  0  0  0  0  0  0  0  0  0  0  0
   -0.5015    1.0262   -1.2061 H   0  0  0  0  0  0  0  0  0  0  0  0
    1.1734    0.5498   -2.8208 H   0  0  0  0  0  0  0  0  0  0  0  0
    2.4659    0.7309   -1.6412 H   0  0  0  0  0  0  0  0  0  0  0  0
  1  2  2  3
  1  5  1  0
  1  6  1  0
  2  3  1  0
  2 22  1  0
  3  4  2  3
  3  7  1  0
  4  8  1  0
  4  9  1  0
 10 17  1  0
 10 11  1  0
 10 18  1  0
 10 19  1  0
 11 12  1  0
 11 20  1  0
 11 21  1  0
 12 13  1  0
 12 16  1  0
 13 14  1  0
 13 23  1  0
 13 24  1  0
 14 15  1  0
 14 25  1  0
 14 26  1  0
 15 16  1  0
 15 27  1  0
 15 28  1  0
 16 17  1  0
 16 29  1  0
 17 30  1  0
 17 31  1  0
M  RAD  1  12   2
M  END
>  <reaction>  (10) 
rxn_574

>  <mol_properties>  (10) 
{"1": {"label": "*3", "atom_type": "Cd"}, "2": {"label": "*4", "atom_type": "Cd"}, "11": {"label": "*1", "atom_type": "Cs"}, "15": {"label": "*0", "atom_type": "Cs"}, "21": {"label": "*2", "atom_type": "H0"}}

>  <type>  (10) 
unop_6

>  <geom_source>  (10) 
Heuristics

$$$$

     RDKit          3D

 31 31  0  0  0  0  0  0  0  0999 V2000
   -1.9908   -1.3234    2.1015 C   0  0  0  0  0  0  0  0  0  0  0  0
   -1.8608   -1.1110    0.7962 C   0  0  0  0  0  0  0  0  0  0  0  0
   -2.9248   -0.5977   -0.0563 C   0  0  0  0  0  0  0  0  0  0  0  0
   -2.7947   -0.3852   -1.3616 C   0  0  0  0  0  0  0  0  0  0  0  0
   -1.1733   -1.7064    2.6981 H   0  0  0  0  0  0  0  0  0  0  0  0
   -2.9238   -1.1195    2.6153 H   0  0  0  0  0  0  0  0  0  0  0  0
   -3.8725   -0.3837    0.4304 H   0  0  0  0  0  0  0  0  0  0  0  0
   -3.6122   -0.0022   -1.9582 H   0  0  0  0  0  0  0  0  0  0  0  0
   -1.8617   -0.5891   -1.8755 H   0  0  0  0  0  0  0  0  0  0  0  0
    1.4880   -1.2550   -1.5152 C   0  0  0  0  0  0  0  0  0  0  0  0
    1.4880   -1.2550    0.0113 C   0  0  0  0  0  0  0  0  0  0  0  0
    0.5246   -0.1203    0.3996 C   0  0  0  0  0  3  0  0  0  0  0  0
    0.9774    0.7183    1.6041 C   0  0  0  0  0  0  0  0  0  0  0  0
    1.7894    1.8565    0.9847 C   0  0  0  0  0  0  0  0  0  0  0  0
    0.9774    2.2161   -0.2602 C   0  0  0  0  0  0  0  0  0  0  0  0
    0.5246    0.8593   -0.8196 C   0  0  0  0  0  0  0  0  0  0  0  0
    1.4880    0.2356   -1.8440 C   0  0  0  0  0  0  0  0  0  0  0  0
    2.3328   -1.7932   -1.9475 H   0  0  0  0  0  0  0  0  0  0  0  0
    0.5721   -1.7219   -1.8902 H   0  0  0  0  0  0  0  0  0  0  0  0
    1.2036   -2.2134    0.4479 H   0  0  0  0  0  0  0  0  0  0  0  0
    2.4961   -1.0225    0.3706 H   0  0  0  0  0  0  0  0  0  0  0  0
   -0.6704   -0.6166    0.5983 H   0  0  0  0  0  0  0  0  0  0  0  0
    0.1095    1.1351    2.1225 H   0  0  0  0  0  0  0  0  0  0  0  0
    1.5404    0.1316    2.3324 H   0  0  0  0  0  0  0  0  0  0  0  0
    2.7805    1.4946    0.6940 H   0  0  0  0  0  0  0  0  0  0  0  0
    1.9373    2.6988    1.6615 H   0  0  0  0  0  0  0  0  0  0  0  0
    0.1095    2.8121    0.0351 H   0  0  0  0  0  0  0  0  0  0  0  0
    1.5404    2.8009   -0.9900 H   0  0  0  0  0  0  0  0  0  0  0  0
   -0.4713    0.9318   -1.2592 H   0  0  0  0  0  0  0  0  0  0  0  0
    1.2036    0.4554   -2.8739 H   0  0  0  0  0  0  0  0  0  0  0  0
    2.4961    0.6365   -1.6943 H   0  0  0  0  0  0  0  0  0  0  0  0
  1  2  2  3
  1  5  1  0
  1  6  1  0
  2  3  1  0
  2 22  1  0
  3  4  2  3
  3  7  1  0
  4  8  1  0
  4  9  1  0
 10 17  1  0
 10 11  1  0
 10 18  1  0
 10 19  1  0
 11 12  1  0
 11 20  1  0
 11 21  1  0
 12 13  1  0
 12 16  1  0
 13 14  1  0
 13 23  1  0
 13 24  1  0
 14 15  1  0
 14 25  1  0
 14 26  1  0
 15 16  1  0
 15 27  1  0
 15 28  1  0
 16 17  1  0
 16 29  1  0
 17 30  1  0
 17 31  1  0
M  RAD  1  12   2
M  END
>  <reaction>  (11) 
rxn_574

>  <mol_properties>  (11) 
{"1": {"label": "*3", "atom_type": "Cd"}, "2": {"label": "*4", "atom_type": "Cd"}, "11": {"label": "*1", "atom_type": "Cs"}, "15": {"label": "*0", "atom_type": "Cs"}, "21": {"label": "*2", "atom_type": "H0"}}

>  <type>  (11) 
unop_7

>  <geom_source>  (11) 
Heuristics

$$$$

     RDKit          3D

 31 31  0  0  0  0  0  0  0  0999 V2000
   -2.8437   -0.3097   -0.3535 C   0  0  0  0  0  0  0  0  0  0  0  0
   -1.9864   -0.9544    0.4309 C   0  0  0  0  0  0  0  0  0  0  0  0
   -2.2901   -1.3870    1.7884 C   0  0  0  0  0  0  0  0  0  0  0  0
   -1.4328   -2.0318    2.5728 C   0  0  0  0  0  0  0  0  0  0  0  0
   -2.5764   -0.0062   -1.3572 H   0  0  0  0  0  0  0  0  0  0  0  0
   -3.8440   -0.0648   -0.0136 H   0  0  0  0  0  0  0  0  0  0  0  0
   -3.2857   -1.1557    2.1575 H   0  0  0  0  0  0  0  0  0  0  0  0
   -1.7002   -2.3352    3.5765 H   0  0  0  0  0  0  0  0  0  0  0  0
   -0.4325   -2.2766    2.2329 H   0  0  0  0  0  0  0  0  0  0  0  0
    1.3623   -1.0985   -1.8805 C   0  0  0  0  0  0  0  0  0  0  0  0
    1.3623   -1.0985   -0.3541 C   0  0  0  0  0  0  0  0  0  0  0  0
    0.3990    0.0363    0.0343 C   0  0  0  0  0  3  0  0  0  0  0  0
    0.8517    0.8749    1.2387 C   0  0  0  0  0  0  0  0  0  0  0  0
    1.6637    2.0131    0.6194 C   0  0  0  0  0  0  0  0  0  0  0  0
    0.8517    2.3727   -0.6255 C   0  0  0  0  0  0  0  0  0  0  0  0
    0.3990    1.0159   -1.1849 C   0  0  0  0  0  0  0  0  0  0  0  0
    1.3623    0.3921   -2.2094 C   0  0  0  0  0  0  0  0  0  0  0  0
    2.2072   -1.6366   -2.3129 H   0  0  0  0  0  0  0  0  0  0  0  0
    0.4465   -1.5653   -2.2556 H   0  0  0  0  0  0  0  0  0  0  0  0
    1.0780   -2.0568    0.0825 H   0  0  0  0  0  0  0  0  0  0  0  0
    2.3705   -0.8659    0.0052 H   0  0  0  0  0  0  0  0  0  0  0  0
   -0.7961   -0.4600    0.2330 H   0  0  0  0  0  0  0  0  0  0  0  0
   -0.0161    1.2917    1.7572 H   0  0  0  0  0  0  0  0  0  0  0  0
    1.4148    0.2881    1.9670 H   0  0  0  0  0  0  0  0  0  0  0  0
    2.6548    1.6512    0.3287 H   0  0  0  0  0  0  0  0  0  0  0  0
    1.8116    2.8554    1.2961 H   0  0  0  0  0  0  0  0  0  0  0  0
   -0.0161    2.9687   -0.3302 H   0  0  0  0  0  0  0  0  0  0  0  0
    1.4148    2.9574   -1.3554 H   0  0  0  0  0  0  0  0  0  0  0  0
   -0.5969    1.0884   -1.6245 H   0  0  0  0  0  0  0  0  0  0  0  0
    1.0780    0.6120   -3.2393 H   0  0  0  0  0  0  0  0  0  0  0  0
    2.3705    0.7931   -2.0596 H   0  0  0  0  0  0  0  0  0  0  0  0
  1  2  2  3
  1  5  1  0
  1  6  1  0
  2  3  1  0
  2 22  1  0
  3  4  2  3
  3  7  1  0
  4  8  1  0
  4  9  1  0
 10 17  1  0
 10 11  1  0
 10 18  1  0
 10 19  1  0
 11 12  1  0
 11 20  1  0
 11 21  1  0
 12 13  1  0
 12 16  1  0
 13 14  1  0
 13 23  1  0
 13 24  1  0
 14 15  1  0
 14 25  1  0
 14 26  1  0
 15 16  1  0
 15 27  1  0
 15 28  1  0
 16 17  1  0
 16 29  1  0
 17 30  1  0
 17 31  1  0
M  RAD  1  12   2
M  END
>  <reaction>  (12) 
rxn_574

>  <mol_properties>  (12) 
{"1": {"label": "*3", "atom_type": "Cd"}, "2": {"label": "*4", "atom_type": "Cd"}, "11": {"label": "*1", "atom_type": "Cs"}, "15": {"label": "*0", "atom_type": "Cs"}, "21": {"label": "*2", "atom_type": "H0"}}

>  <type>  (12) 
unop_8

>  <geom_source>  (12) 
Heuristics

$$$$

     RDKit          3D

 31 31  0  0  0  0  0  0  0  0999 V2000
   -2.8699   -0.0465    1.3894 C   0  0  0  0  0  0  0  0  0  0  0  0
   -1.9791   -0.8269    0.7866 C   0  0  0  0  0  0  0  0  0  0  0  0
   -2.3246   -2.0119    0.0129 C   0  0  0  0  0  0  0  0  0  0  0  0
   -1.4338   -2.7923   -0.5899 C   0  0  0  0  0  0  0  0  0  0  0  0
   -2.5692    0.8257    1.9550 H   0  0  0  0  0  0  0  0  0  0  0  0
   -3.9322   -0.2576    1.3350 H   0  0  0  0  0  0  0  0  0  0  0  0
   -3.3825   -2.2495   -0.0598 H   0  0  0  0  0  0  0  0  0  0  0  0
   -1.7345   -3.6645   -1.1555 H   0  0  0  0  0  0  0  0  0  0  0  0
   -0.3715   -2.5812   -0.5355 H   0  0  0  0  0  0  0  0  0  0  0  0
    1.3696   -0.9709   -1.5247 C   0  0  0  0  0  0  0  0  0  0  0  0
    1.3696   -0.9709    0.0017 C   0  0  0  0  0  0  0  0  0  0  0  0
    0.4063    0.1638    0.3901 C   0  0  0  0  0  3  0  0  0  0  0  0
    0.8590    1.0024    1.5945 C   0  0  0  0  0  0  0  0  0  0  0  0
    1.6710    2.1406    0.9751 C   0  0  0  0  0  0  0  0  0  0  0  0
    0.8590    2.5002   -0.2698 C   0  0  0  0  0  0  0  0  0  0  0  0
    0.4063    1.1434   -0.8292 C   0  0  0  0  0  0  0  0  0  0  0  0
    1.3696    0.5197   -1.8536 C   0  0  0  0  0  0  0  0  0  0  0  0
    2.2145   -1.5091   -1.9571 H   0  0  0  0  0  0  0  0  0  0  0  0
    0.4538   -1.4378   -1.8998 H   0  0  0  0  0  0  0  0  0  0  0  0
    1.0853   -1.9293    0.4383 H   0  0  0  0  0  0  0  0  0  0  0  0
    2.3778   -0.7384    0.3610 H   0  0  0  0  0  0  0  0  0  0  0  0
   -0.7888   -0.3325    0.5887 H   0  0  0  0  0  0  0  0  0  0  0  0
   -0.0088    1.4192    2.1129 H   0  0  0  0  0  0  0  0  0  0  0  0
    1.4221    0.4157    2.3228 H   0  0  0  0  0  0  0  0  0  0  0  0
    2.6621    1.7787    0.6844 H   0  0  0  0  0  0  0  0  0  0  0  0
    1.8190    2.9829    1.6519 H   0  0  0  0  0  0  0  0  0  0  0  0
   -0.0088    3.0962    0.0255 H   0  0  0  0  0  0  0  0  0  0  0  0
    1.4221    3.0850   -0.9996 H   0  0  0  0  0  0  0  0  0  0  0  0
   -0.5896    1.2159   -1.2687 H   0  0  0  0  0  0  0  0  0  0  0  0
    1.0853    0.7395   -2.8835 H   0  0  0  0  0  0  0  0  0  0  0  0
    2.3778    0.9206   -1.7039 H   0  0  0  0  0  0  0  0  0  0  0  0
  1  2  2  3
  1  5  1  0
  1  6  1  0
  2  3  1  0
  2 22  1  0
  3  4  2  3
  3  7  1  0
  4  8  1  0
  4  9  1  0
 10 17  1  0
 10 11  1  0
 10 18  1  0
 10 19  1  0
 11 12  1  0
 11 20  1  0
 11 21  1  0
 12 13  1  0
 12 16  1  0
 13 14  1  0
 13 23  1  0
 13 24  1  0
 14 15  1  0
 14 25  1  0
 14 26  1  0
 15 16  1  0
 15 27  1  0
 15 28  1  0
 16 17  1  0
 16 29  1  0
 17 30  1  0
 17 31  1  0
M  RAD  1  12   2
M  END
>  <reaction>  (13) 
rxn_574

>  <mol_properties>  (13) 
{"1": {"label": "*3", "atom_type": "Cd"}, "2": {"label": "*4", "atom_type": "Cd"}, "11": {"label": "*1", "atom_type": "Cs"}, "15": {"label": "*0", "atom_type": "Cs"}, "21": {"label": "*2", "atom_type": "H0"}}

>  <type>  (13) 
unop_9

>  <geom_source>  (13) 
Heuristics

$$$$

     RDKit          3D

 31 31  0  0  0  0  0  0  0  0999 V2000
   -2.9819   -0.0024    0.1590 C   0  0  0  0  0  0  0  0  0  0  0  0
   -2.0175   -0.8581    0.4809 C   0  0  0  0  0  0  0  0  0  0  0  0
   -2.1352   -1.8622    1.5299 C   0  0  0  0  0  0  0  0  0  0  0  0
   -1.1708   -2.7180    1.8518 C   0  0  0  0  0  0  0  0  0  0  0  0
   -2.8521    0.7285   -0.6283 H   0  0  0  0  0  0  0  0  0  0  0  0
   -3.9352   -0.0073    0.6760 H   0  0  0  0  0  0  0  0  0  0  0  0
   -3.0798   -1.8917    2.0663 H   0  0  0  0  0  0  0  0  0  0  0  0
   -1.3006   -3.4489    2.6391 H   0  0  0  0  0  0  0  0  0  0  0  0
   -0.2175   -2.7131    1.3348 H   0  0  0  0  0  0  0  0  0  0  0  0
    1.3312   -1.0022   -1.8304 C   0  0  0  0  0  0  0  0  0  0  0  0
    1.3312   -1.0022   -0.3040 C   0  0  0  0  0  0  0  0  0  0  0  0
    0.3678    0.1326    0.0844 C   0  0  0  0  0  3  0  0  0  0  0  0
    0.8206    0.9711    1.2888 C   0  0  0  0  0  0  0  0  0  0  0  0
    1.6326    2.1093    0.6695 C   0  0  0  0  0  0  0  0  0  0  0  0
    0.8206    2.4689   -0.5755 C   0  0  0  0  0  0  0  0  0  0  0  0
    0.3678    1.1121   -1.1348 C   0  0  0  0  0  0  0  0  0  0  0  0
    1.3312    0.4884   -2.1593 C   0  0  0  0  0  0  0  0  0  0  0  0
    2.1760   -1.5404   -2.2628 H   0  0  0  0  0  0  0  0  0  0  0  0
    0.4154   -1.4690   -2.2055 H   0  0  0  0  0  0  0  0  0  0  0  0
    1.0469   -1.9605    0.1326 H   0  0  0  0  0  0  0  0  0  0  0  0
    2.3393   -0.7696    0.0553 H   0  0  0  0  0  0  0  0  0  0  0  0
   -0.8272   -0.3638    0.2831 H   0  0  0  0  0  0  0  0  0  0  0  0
   -0.0472    1.3879    1.8073 H   0  0  0  0  0  0  0  0  0  0  0  0
    1.3837    0.3844    2.0171 H   0  0  0  0  0  0  0  0  0  0  0  0
    2.6237    1.7475    0.3787 H   0  0  0  0  0  0  0  0  0  0  0  0
    1.7805    2.9516    1.3462 H   0  0  0  0  0  0  0  0  0  0  0  0
   -0.0472    3.0650   -0.2801 H   0  0  0  0  0  0  0  0  0  0  0  0
    1.3837    3.0537   -1.3053 H   0  0  0  0  0  0  0  0  0  0  0  0
   -0.6280    1.1847   -1.5744 H   0  0  0  0  0  0  0  0  0  0  0  0
    1.0469    0.7083   -3.1892 H   0  0  0  0  0  0  0  0  0  0  0  0
    2.3393    0.8894   -2.0096 H   0  0  0  0  0  0  0  0  0  0  0  0
  1  2  2  3
  1  5  1  0
  1  6  1  0
  2  3  1  0
  2 22  1  0
  3  4  2  3
  3  7  1  0
  4  8  1  0
  4  9  1  0
 10 17  1  0
 10 11  1  0
 10 18  1  0
 10 19  1  0
 11 12  1  0
 11 20  1  0
 11 21  1  0
 12 13  1  0
 12 16  1  0
 13 14  1  0
 13 23  1  0
 13 24  1  0
 14 15  1  0
 14 25  1  0
 14 26  1  0
 15 16  1  0
 15 27  1  0
 15 28  1  0
 16 17  1  0
 16 29  1  0
 17 30  1  0
 17 31  1  0
M  RAD  1  12   2
M  END
>  <reaction>  (14) 
rxn_574

>  <mol_properties>  (14) 
{"1": {"label": "*3", "atom_type": "Cd"}, "2": {"label": "*4", "atom_type": "Cd"}, "11": {"label": "*1", "atom_type": "Cs"}, "15": {"label": "*0", "atom_type": "Cs"}, "21": {"label": "*2", "atom_type": "H0"}}

>  <type>  (14) 
unop_10

>  <geom_source>  (14) 
Heuristics

$$$$

     RDKit          3D

 31 31  0  0  0  0  0  0  0  0999 V2000
   -1.8579   -2.0941    1.6569 C   0  0  0  0  0  0  0  0  0  0  0  0
   -1.8513   -1.1699    0.7021 C   0  0  0  0  0  0  0  0  0  0  0  0
   -2.9746   -0.2884    0.4129 C   0  0  0  0  0  0  0  0  0  0  0  0
   -2.9680    0.6359   -0.5419 C   0  0  0  0  0  0  0  0  0  0  0  0
   -1.0003   -2.7286    1.8380 H   0  0  0  0  0  0  0  0  0  0  0  0
   -2.7259   -2.2446    2.2894 H   0  0  0  0  0  0  0  0  0  0  0  0
   -3.8595   -0.4154    1.0307 H   0  0  0  0  0  0  0  0  0  0  0  0
   -3.8256    1.2704   -0.7230 H   0  0  0  0  0  0  0  0  0  0  0  0
   -2.1001    0.7864   -1.1744 H   0  0  0  0  0  0  0  0  0  0  0  0
    1.4974   -1.3139   -1.6093 C   0  0  0  0  0  0  0  0  0  0  0  0
    1.4974   -1.3139   -0.0828 C   0  0  0  0  0  0  0  0  0  0  0  0
    0.5340   -0.1792    0.3055 C   0  0  0  0  0  3  0  0  0  0  0  0
    0.9868    0.6594    1.5100 C   0  0  0  0  0  0  0  0  0  0  0  0
    1.7988    1.7976    0.8906 C   0  0  0  0  0  0  0  0  0  0  0  0
    0.9868    2.1572   -0.3543 C   0  0  0  0  0  0  0  0  0  0  0  0
    0.5340    0.8004   -0.9137 C   0  0  0  0  0  0  0  0  0  0  0  0
    1.4974    0.1767   -1.9381 C   0  0  0  0  0  0  0  0  0  0  0  0
    2.3422   -1.8521   -2.0417 H   0  0  0  0  0  0  0  0  0  0  0  0
    0.5815   -1.7807   -1.9843 H   0  0  0  0  0  0  0  0  0  0  0  0
    1.2131   -2.2723    0.3538 H   0  0  0  0  0  0  0  0  0  0  0  0
    2.5055   -1.0813    0.2764 H   0  0  0  0  0  0  0  0  0  0  0  0
   -0.6610   -0.6755    0.5042 H   0  0  0  0  0  0  0  0  0  0  0  0
    0.1190    1.0762    2.0284 H   0  0  0  0  0  0  0  0  0  0  0  0
    1.5499    0.0727    2.2382 H   0  0  0  0  0  0  0  0  0  0  0  0
    2.7899    1.4358    0.5999 H   0  0  0  0  0  0  0  0  0  0  0  0
    1.9467    2.6399    1.5673 H   0  0  0  0  0  0  0  0  0  0  0  0
    0.1190    2.7533   -0.0590 H   0  0  0  0  0  0  0  0  0  0  0  0
    1.5499    2.7420   -1.0842 H   0  0  0  0  0  0  0  0  0  0  0  0
   -0.4618    0.8730   -1.3533 H   0  0  0  0  0  0  0  0  0  0  0  0
    1.2131    0.3966   -2.9680 H   0  0  0  0  0  0  0  0  0  0  0  0
    2.5055    0.5776   -1.7884 H   0  0  0  0  0  0  0  0  0  0  0  0
  1  2  2  3
  1  5  1  0
  1  6  1  0
  2  3  1  0
  2 22  1  0
  3  4  2  3
  3  7  1  0
  4  8  1  0
  4  9  1  0
 10 17  1  0
 10 11  1  0
 10 18  1  0
 10 19  1  0
 11 12  1  0
 11 20  1  0
 11 21  1  0
 12 13  1  0
 12 16  1  0
 13 14  1  0
 13 23  1  0
 13 24  1  0
 14 15  1  0
 14 25  1  0
 14 26  1  0
 15 16  1  0
 15 27  1  0
 15 28  1  0
 16 17  1  0
 16 29  1  0
 17 30  1  0
 17 31  1  0
M  RAD  1  12   2
M  END
>  <reaction>  (15) 
rxn_574

>  <mol_properties>  (15) 
{"1": {"label": "*3", "atom_type": "Cd"}, "2": {"label": "*4", "atom_type": "Cd"}, "11": {"label": "*1", "atom_type": "Cs"}, "15": {"label": "*0", "atom_type": "Cs"}, "21": {"label": "*2", "atom_type": "H0"}}

>  <type>  (15) 
unop_11

>  <geom_source>  (15) 
Heuristics

$$$$

     RDKit          3D

 31 31  0  0  0  0  0  0  0  0999 V2000
   -3.0098    0.0237    1.0343 C   0  0  0  0  0  0  0  0  0  0  0  0
   -2.0132   -0.7838    0.6871 C   0  0  0  0  0  0  0  0  0  0  0  0
   -2.1551   -2.2223    0.5055 C   0  0  0  0  0  0  0  0  0  0  0  0
   -1.1585   -3.0299    0.1582 C   0  0  0  0  0  0  0  0  0  0  0  0
   -2.8602    1.0882    1.1585 H   0  0  0  0  0  0  0  0  0  0  0  0
   -4.0104   -0.3576    1.2058 H   0  0  0  0  0  0  0  0  0  0  0  0
   -3.1470   -2.6343    0.6704 H   0  0  0  0  0  0  0  0  0  0  0  0
   -1.3080   -4.0944    0.0340 H   0  0  0  0  0  0  0  0  0  0  0  0
   -0.1579   -2.6486   -0.0132 H   0  0  0  0  0  0  0  0  0  0  0  0
    1.3355   -0.9279   -1.6243 C   0  0  0  0  0  0  0  0  0  0  0  0
    1.3355   -0.9279   -0.0979 C   0  0  0  0  0  0  0  0  0  0  0  0
    0.3721    0.2069    0.2905 C   0  0  0  0  0  3  0  0  0  0  0  0
    0.8249    1.0454    1.4949 C   0  0  0  0  0  0  0  0  0  0  0  0
    1.6369    2.1836    0.8756 C   0  0  0  0  0  0  0  0  0  0  0  0
    0.8249    2.5433   -0.3693 C   0  0  0  0  0  0  0  0  0  0  0  0
    0.3721    1.1864   -0.9287 C   0  0  0  0  0  0  0  0  0  0  0  0
    1.3355    0.5627   -1.9532 C   0  0  0  0  0  0  0  0  0  0  0  0
    2.1803   -1.4661   -2.0567 H   0  0  0  0  0  0  0  0  0  0  0  0
    0.4196   -1.3947   -1.9994 H   0  0  0  0  0  0  0  0  0  0  0  0
    1.0512   -1.8862    0.3387 H   0  0  0  0  0  0  0  0  0  0  0  0
    2.3436   -0.6953    0.2614 H   0  0  0  0  0  0  0  0  0  0  0  0
   -0.8229   -0.2895    0.4892 H   0  0  0  0  0  0  0  0  0  0  0  0
   -0.0429    1.4623    2.0134 H   0  0  0  0  0  0  0  0  0  0  0  0
    1.3880    0.4587    2.2232 H   0  0  0  0  0  0  0  0  0  0  0  0
    2.6280    1.8218    0.5848 H   0  0  0  0  0  0  0  0  0  0  0  0
    1.7848    3.0260    1.5523 H   0  0  0  0  0  0  0  0  0  0  0  0
   -0.0429    3.1393   -0.0740 H   0  0  0  0  0  0  0  0  0  0  0  0
    1.3880    3.1280   -1.0992 H   0  0  0  0  0  0  0  0  0  0  0  0
   -0.6237    1.2590   -1.3683 H   0  0  0  0  0  0  0  0  0  0  0  0
    1.0512    0.7826   -2.9831 H   0  0  0  0  0  0  0  0  0  0  0  0
    2.3436    0.9637   -1.8035 H   0  0  0  0  0  0  0  0  0  0  0  0
  1  2  2  3
  1  5  1  0
  1  6  1  0
  2  3  1  0
  2 22  1  0
  3  4  2  3
  3  7  1  0
  4  8  1  0
  4  9  1  0
 10 17  1  0
 10 11  1  0
 10 18  1  0
 10 19  1  0
 11 12  1  0
 11 20  1  0
 11 21  1  0
 12 13  1  0
 12 16  1  0
 13 14  1  0
 13 23  1  0
 13 24  1  0
 14 15  1  0
 14 25  1  0
 14 26  1  0
 15 16  1  0
 15 27  1  0
 15 28  1  0
 16 17  1  0
 16 29  1  0
 17 30  1  0
 17 31  1  0
M  RAD  1  12   2
M  END
>  <reaction>  (16) 
rxn_574

>  <mol_properties>  (16) 
{"1": {"label": "*3", "atom_type": "Cd"}, "2": {"label": "*4", "atom_type": "Cd"}, "11": {"label": "*1", "atom_type": "Cs"}, "15": {"label": "*0", "atom_type": "Cs"}, "21": {"label": "*2", "atom_type": "H0"}}

>  <type>  (16) 
unop_12

>  <geom_source>  (16) 
Heuristics

$$$$

     RDKit          3D

 31 31  0  0  0  0  0  0  0  0999 V2000
   -1.3266    0.7233   -0.5264 C   0  0  0  0  0  0  0  0  0  0  0  0
   -2.5941   -0.0136   -0.9793 C   0  0  0  0  0  0  0  0  0  0  0  0
   -1.5545    1.6240    0.6950 C   0  0  0  0  0  0  0  0  0  0  0  0
   -2.4993   -1.4109   -0.3968 C   0  0  0  0  0  0  0  0  0  0  0  0
   -1.0751    0.8324    1.8968 C   0  0  0  0  0  0  0  0  0  0  0  0
   -1.0134   -1.7019   -0.3067 C   0  0  0  0  0  0  0  0  0  0  0  0
    0.0247   -0.0668    1.3651 C   0  0  0  0  0  0  0  0  0  0  0  0
   -0.3242   -0.3507   -0.0984 C   0  0  0  0  0  3  0  0  0  0  0  0
    2.8605   -0.5528    0.0955 C   0  0  0  0  0  0  0  0  0  0  0  0
    2.0617    0.3413   -0.7716 C   0  0  0  0  0  0  0  0  0  0  0  0
    4.1911   -0.6487    0.0763 C   0  0  0  0  0  0  0  0  0  0  0  0
    2.5655    1.1698   -1.6873 C   0  0  0  0  0  0  0  0  0  0  0  0
   -0.9112    1.3201   -1.3680 H   0  0  0  0  0  0  0  0  0  0  0  0
   -3.5348    0.4885   -0.6664 H   0  0  0  0  0  0  0  0  0  0  0  0
   -2.5949   -0.0860   -2.0897 H   0  0  0  0  0  0  0  0  0  0  0  0
   -2.9460   -1.4237    0.6217 H   0  0  0  0  0  0  0  0  0  0  0  0
   -3.0213   -2.1552   -1.0364 H   0  0  0  0  0  0  0  0  0  0  0  0
   -2.6118    1.9424    0.8201 H   0  0  0  0  0  0  0  0  0  0  0  0
   -0.9288    2.5385    0.5937 H   0  0  0  0  0  0  0  0  0  0  0  0
   -1.9081    0.2111    2.2931 H   0  0  0  0  0  0  0  0  0  0  0  0
   -0.7001    1.5010    2.7017 H   0  0  0  0  0  0  0  0  0  0  0  0
   -0.6640   -2.1223   -1.2743 H   0  0  0  0  0  0  0  0  0  0  0  0
   -0.7946   -2.4413    0.4936 H   0  0  0  0  0  0  0  0  0  0  0  0
    0.1306   -0.9840    1.9835 H   0  0  0  0  0  0  0  0  0  0  0  0
    0.9901    0.4832    1.3896 H   0  0  0  0  0  0  0  0  0  0  0  0
    2.3165   -1.1734    0.7963 H   0  0  0  0  0  0  0  0  0  0  0  0
    0.8473    0.3135   -0.6330 H   0  0  0  0  0  0  0  0  0  0  0  0
    4.8096   -0.0670   -0.5905 H   0  0  0  0  0  0  0  0  0  0  0  0
    4.6859   -1.3344    0.7519 H   0  0  0  0  0  0  0  0  0  0  0  0
    1.8944    1.7844   -2.2724 H   0  0  0  0  0  0  0  0  0  0  0  0
    3.6247    1.2591   -1.8766 H   0  0  0  0  0  0  0  0  0  0  0  0
  1  2  1  0
  1  3  1  0
  1  8  1  0
  1 13  1  0
  2  4  1  0
  2 14  1  0
  2 15  1  0
  3  5  1  0
  3 18  1  0
  3 19  1  0
  4  6  1  0
  4 16  1  0
  4 17  1  0
  5  7  1  0
  5 20  1  0
  5 21  1  0
  6  8  1  0
  6 22  1  0
  6 23  1  0
  7  8  1  0
  7 24  1  0
  7 25  1  0
  9 11  2  3
  9 10  1  0
  9 26  1  0
 10 12  2  3
 10 27  1  0
 11 28  1  0
 11 29  1  0
 12 30  1  0
 12 31  1  0
M  RAD  1   8   2
M  END
>  <reaction>  (17) 
rxn_574

>  <mol_properties>  (17) 
{"1": {"label": "*3", "atom_type": "Cd"}, "2": {"label": "*4", "atom_type": "Cd"}, "11": {"label": "*1", "atom_type": "Cs"}, "15": {"label": "*0", "atom_type": "Cs"}, "21": {"label": "*2", "atom_type": "H0"}}

>  <type>  (17) 
unop_13

>  <geom_source>  (17) 
AutoTST

$$$$

     RDKit          3D

 31 31  0  0  0  0  0  0  0  0999 V2000
   -3.0386    0.0635    0.6494 C   0  0  0  0  0  0  0  0  0  0  0  0
   -2.0274   -0.7954    0.5748 C   0  0  0  0  0  0  0  0  0  0  0  0
   -2.0858   -2.1677    1.0604 C   0  0  0  0  0  0  0  0  0  0  0  0
   -1.0746   -3.0266    0.9858 C   0  0  0  0  0  0  0  0  0  0  0  0
   -2.9521    1.0754    0.2757 H   0  0  0  0  0  0  0  0  0  0  0  0
   -3.9883   -0.2210    1.0889 H   0  0  0  0  0  0  0  0  0  0  0  0
   -3.0254   -2.4824    1.5064 H   0  0  0  0  0  0  0  0  0  0  0  0
   -1.1611   -4.0384    1.3595 H   0  0  0  0  0  0  0  0  0  0  0  0
   -0.1248   -2.7421    0.5464 H   0  0  0  0  0  0  0  0  0  0  0  0
    1.3213   -0.9394   -1.7365 C   0  0  0  0  0  0  0  0  0  0  0  0
    1.3213   -0.9394   -0.2101 C   0  0  0  0  0  0  0  0  0  0  0  0
    0.3580    0.1953    0.1783 C   0  0  0  0  0  3  0  0  0  0  0  0
    0.8107    1.0339    1.3827 C   0  0  0  0  0  0  0  0  0  0  0  0
    1.6227    2.1721    0.7633 C   0  0  0  0  0  0  0  0  0  0  0  0
    0.8107    2.5317   -0.4816 C   0  0  0  0  0  0  0  0  0  0  0  0
    0.3580    1.1749   -1.0410 C   0  0  0  0  0  0  0  0  0  0  0  0
    1.3213    0.5512   -2.0654 C   0  0  0  0  0  0  0  0  0  0  0  0
    2.1662   -1.4776   -2.1689 H   0  0  0  0  0  0  0  0  0  0  0  0
    0.4055   -1.4063   -2.1116 H   0  0  0  0  0  0  0  0  0  0  0  0
    1.0370   -1.8978    0.2265 H   0  0  0  0  0  0  0  0  0  0  0  0
    2.3295   -0.7069    0.1492 H   0  0  0  0  0  0  0  0  0  0  0  0
   -0.8370   -0.3010    0.3769 H   0  0  0  0  0  0  0  0  0  0  0  0
   -0.0571    1.4507    1.9011 H   0  0  0  0  0  0  0  0  0  0  0  0
    1.3738    0.4471    2.1110 H   0  0  0  0  0  0  0  0  0  0  0  0
    2.6139    1.8102    0.4726 H   0  0  0  0  0  0  0  0  0  0  0  0
    1.7707    3.0144    1.4401 H   0  0  0  0  0  0  0  0  0  0  0  0
   -0.0571    3.1277   -0.1862 H   0  0  0  0  0  0  0  0  0  0  0  0
    1.3738    3.1164   -1.2114 H   0  0  0  0  0  0  0  0  0  0  0  0
   -0.6379    1.2474   -1.4805 H   0  0  0  0  0  0  0  0  0  0  0  0
    1.0370    0.7710   -3.0953 H   0  0  0  0  0  0  0  0  0  0  0  0
    2.3295    0.9521   -1.9157 H   0  0  0  0  0  0  0  0  0  0  0  0
  1  2  2  3
  1  5  1  0
  1  6  1  0
  2  3  1  0
  2 22  1  0
  3  4  2  3
  3  7  1  0
  4  8  1  0
  4  9  1  0
 10 17  1  0
 10 11  1  0
 10 18  1  0
 10 19  1  0
 11 12  1  0
 11 20  1  0
 11 21  1  0
 12 13  1  0
 12 16  1  0
 13 14  1  0
 13 23  1  0
 13 24  1  0
 14 15  1  0
 14 25  1  0
 14 26  1  0
 15 16  1  0
 15 27  1  0
 15 28  1  0
 16 17  1  0
 16 29  1  0
 17 30  1  0
 17 31  1  0
M  RAD  1  12   2
M  END
>  <reaction>  (18) 
rxn_574

>  <mol_properties>  (18) 
{"1": {"label": "*3", "atom_type": "Cd"}, "2": {"label": "*4", "atom_type": "Cd"}, "11": {"label": "*1", "atom_type": "Cs"}, "15": {"label": "*0", "atom_type": "Cs"}, "21": {"label": "*2", "atom_type": "H0"}}

>  <type>  (18) 
unop_14

>  <geom_source>  (18) 
gaussian_log

$$$$
