
     RDKit          3D

 13 12  0  0  0  0  0  0  0  0999 V2000
    3.0977   -0.3549   -0.5105 C   0  0  0  0  0  0  0  0  0  0  0  0
    2.0556    0.4221   -0.2627 C   0  0  0  0  0  0  0  0  0  0  0  0
    0.6313   -0.0354   -0.2366 C   0  0  0  0  0  0  0  0  0  0  0  0
   -0.2567    0.6038   -1.2694 C   0  0  0  0  0  0  0  0  0  0  0  0
    0.1459    1.3456   -2.2891 C   0  0  0  0  0  0  0  0  0  0  0  0
    4.1081    0.0344   -0.5074 H   0  0  0  0  0  0  0  0  0  0  0  0
    2.9777   -1.4116   -0.7243 H   0  0  0  0  0  0  0  0  0  0  0  0
    2.2171    1.4781   -0.0618 H   0  0  0  0  0  0  0  0  0  0  0  0
    0.5865   -1.1233   -0.3540 H   0  0  0  0  0  0  0  0  0  0  0  0
    0.2065    0.1743    0.7521 H   0  0  0  0  0  0  0  0  0  0  0  0
   -1.3190    0.4126   -1.1445 H   0  0  0  0  0  0  0  0  0  0  0  0
    1.1948    1.5564   -2.4628 H   0  0  0  0  0  0  0  0  0  0  0  0
   -0.5644    1.7621   -2.9918 H   0  0  0  0  0  0  0  0  0  0  0  0
  1  2  2  3
  1  6  1  0
  1  7  1  0
  2  3  1  0
  2  8  1  0
  3  4  1  0
  3  9  1  0
  3 10  1  0
  4  5  2  3
  4 11  1  0
  5 12  1  0
  5 13  1  0
M  END
>  <reaction>  (1) 
rxn_1157

>  <mol_properties>  (1) 
{"2": {"label": "donator", "atom_type": "Cs"}, "8": {"label": "d_hydrogen", "atom_type": "H0"}}

>  <type>  (1) 
r1h

$$$$

     RDKit          3D

 12 11  0  0  0  0  0  0  0  0999 V2000
   -0.9951    0.1196   -0.8321 C   0  0  0  0  0  0  0  0  0  0  0  0
   -0.3760    0.2571    0.5231 C   0  0  0  0  0  3  0  0  0  0  0  0
    0.9330   -0.1537    0.7810 C   0  0  0  0  0  0  0  0  0  0  0  0
    1.5987   -0.1880    1.9734 C   0  0  0  0  0  0  0  0  0  0  0  0
   -1.4483    0.9449    1.7152 S   0  0  0  0  0  0  0  0  0  0  0  0
   -1.9164   -0.4696   -0.7936 H   0  0  0  0  0  0  0  0  0  0  0  0
   -1.2565    1.0958   -1.2506 H   0  0  0  0  0  0  0  0  0  0  0  0
   -0.3088   -0.3780   -1.5170 H   0  0  0  0  0  0  0  0  0  0  0  0
    1.4783   -0.4898   -0.0971 H   0  0  0  0  0  0  0  0  0  0  0  0
    2.6278   -0.5153    2.0142 H   0  0  0  0  0  0  0  0  0  0  0  0
    1.1316    0.0690    2.9151 H   0  0  0  0  0  0  0  0  0  0  0  0
   -0.5306    1.3052    2.6211 H   0  0  0  0  0  0  0  0  0  0  0  0
  1  2  1  0
  1  6  1  0
  1  7  1  0
  1  8  1  0
  2  3  1  0
  2  5  1  0
  3  4  2  3
  3  9  1  0
  4 10  1  0
  4 11  1  0
  5 12  1  0
M  RAD  1   2   2
M  END
>  <reaction>  (2) 
rxn_1157

>  <mol_properties>  (2) 
{"1": {"label": "acceptor", "atom_type": "Cs"}}

>  <type>  (2) 
r2

$$$$

     RDKit          3D

 13 12  0  0  0  0  0  0  0  0999 V2000
   -1.1828    0.8269   -0.1645 C   0  0  0  0  0  0  0  0  0  0  0  0
   -0.4827   -0.4584   -0.5736 C   0  0  1  0  0  0  0  0  0  0  0  0
   -0.9759   -1.7030    0.1030 C   0  0  0  0  0  0  0  0  0  0  0  0
   -2.0084   -1.7831    0.9287 C   0  0  0  0  0  0  0  0  0  0  0  0
   -0.4908   -0.7025   -2.3913 S   0  0  0  0  0  0  0  0  0  0  0  0
   -1.0941    0.9860    0.9125 H   0  0  0  0  0  0  0  0  0  0  0  0
   -0.7405    1.6784   -0.6793 H   0  0  0  0  0  0  0  0  0  0  0  0
   -2.2437    0.7943   -0.4195 H   0  0  0  0  0  0  0  0  0  0  0  0
    0.5870   -0.3637   -0.3637 H   0  0  0  0  0  0  0  0  0  0  0  0
   -0.4209   -2.6026   -0.1443 H   0  0  0  0  0  0  0  0  0  0  0  0
   -2.2982   -2.7315    1.3623 H   0  0  0  0  0  0  0  0  0  0  0  0
   -2.5999   -0.9190    1.2055 H   0  0  0  0  0  0  0  0  0  0  0  0
   -1.8040   -0.9489   -2.4971 H   0  0  0  0  0  0  0  0  0  0  0  0
  1  2  1  0
  1  6  1  0
  1  7  1  0
  1  8  1  0
  2  3  1  0
  2  5  1  0
  2  9  1  1
  3  4  2  3
  3 10  1  0
  4 11  1  0
  4 12  1  0
  5 13  1  0
M  END
>  <reaction>  (3) 
rxn_1157

>  <mol_properties>  (3) 
{"1": {"label": "acceptor", "atom_type": "Cs"}, "12": {"label": "a_hydrogen", "atom_type": "H0"}}

>  <type>  (3) 
r2h

$$$$

     RDKit          3D

 25 23  0  0  0  0  0  0  0  0999 V2000
   -0.3740    2.3013    0.7551 C   0  0  0  0  0  0  0  0  0  0  0  0
   -0.3929    1.2485   -0.3257 C   0  0  0  0  0  3  0  0  0  0  0  0
   -1.6267    1.0550   -1.0889 C   0  0  0  0  0  0  0  0  0  0  0  0
   -2.8216    1.5539   -0.7737 C   0  0  0  0  0  0  0  0  0  0  0  0
    1.1270    1.2575   -1.2598 S   0  0  0  0  0  0  0  0  0  0  0  0
   -0.5319    3.3011    0.3420 H   0  0  0  0  0  0  0  0  0  0  0  0
   -1.1621    2.1069    1.4847 H   0  0  0  0  0  0  0  0  0  0  0  0
    0.5798    2.2944    1.2841 H   0  0  0  0  0  0  0  0  0  0  0  0
   -1.5504    0.3944   -1.9474 H   0  0  0  0  0  0  0  0  0  0  0  0
   -3.6947    1.3127   -1.3654 H   0  0  0  0  0  0  0  0  0  0  0  0
   -2.9686    2.2217    0.0660 H   0  0  0  0  0  0  0  0  0  0  0  0
    0.7822    0.3122   -2.1442 H   0  0  0  0  0  0  0  0  0  0  0  0
    0.3904   -2.4537   -0.7932 C   0  0  0  0  0  0  0  0  0  0  0  0
   -0.4838   -2.0733    0.1398 C   0  0  0  0  0  0  0  0  0  0  0  0
   -0.2890   -1.0185    1.1424 C   0  0  0  0  0  0  0  0  0  0  0  0
    0.9405   -0.8715    1.9290 C   0  0  0  0  0  0  0  0  0  0  0  0
    2.0551   -1.5993    1.8697 C   0  0  0  0  0  0  0  0  0  0  0  0
    0.1322   -3.2185   -1.5146 H   0  0  0  0  0  0  0  0  0  0  0  0
    1.3774   -2.0148   -0.8678 H   0  0  0  0  0  0  0  0  0  0  0  0
   -1.4695   -2.5296    0.1270 H   0  0  0  0  0  0  0  0  0  0  0  0
   -0.3217    0.0956    0.4053 H   0  0  0  0  0  0  0  0  0  0  0  0
   -1.1805   -0.8340    1.7413 H   0  0  0  0  0  0  0  0  0  0  0  0
    0.9087   -0.0530    2.6439 H   0  0  0  0  0  0  0  0  0  0  0  0
    2.1568   -2.4487    1.2073 H   0  0  0  0  0  0  0  0  0  0  0  0
    2.8942   -1.3708    2.5135 H   0  0  0  0  0  0  0  0  0  0  0  0
  1  2  1  0
  1  6  1  0
  1  7  1  0
  1  8  1  0
  2  3  1  0
  2  5  1  0
  3  4  2  3
  3  9  1  0
  4 10  1  0
  4 11  1  0
  5 12  1  0
 13 14  2  3
 13 18  1  0
 13 19  1  0
 14 15  1  0
 14 20  1  0
 15 16  1  0
 15 21  1  0
 15 22  1  0
 16 17  2  3
 16 23  1  0
 17 24  1  0
 17 25  1  0
M  RAD  1   2   2
M  END
>  <reaction>  (4) 
rxn_1157

>  <mol_properties>  (4) 
{"1": {"label": "*3", "atom_type": "Cs"}, "4": {"label": "*4", "atom_type": "S2s"}, "13": {"label": "*0", "atom_type": "Cd"}, "14": {"label": "*1", "atom_type": "Cs"}, "20": {"label": "*2", "atom_type": "H0"}}

>  <type>  (4) 
ts

$$$$

     RDKit          3D

 25 23  0  0  0  0  0  0  0  0999 V2000
   -1.8872    1.6731   -0.1187 C   0  0  0  0  0  0  0  0  0  0  0  0
   -0.6273    0.9252   -0.5221 C   0  0  0  0  0  0  0  0  0  0  0  0
   -0.0939    1.2518   -1.8854 C   0  0  0  0  0  0  0  0  0  0  0  0
   -0.5613    2.1848   -2.7012 C   0  0  0  0  0  0  0  0  0  0  0  0
    0.7104    1.1025    0.7201 S   0  0  0  0  0  0  0  0  0  0  0  0
   -1.7088    2.7492   -0.0780 H   0  0  0  0  0  0  0  0  0  0  0  0
   -2.6904    1.4858   -0.8350 H   0  0  0  0  0  0  0  0  0  0  0  0
   -2.2185    1.3509    0.8672 H   0  0  0  0  0  0  0  0  0  0  0  0
    0.7638    0.6599   -2.1894 H   0  0  0  0  0  0  0  0  0  0  0  0
   -0.1024    2.3569   -3.6662 H   0  0  0  0  0  0  0  0  0  0  0  0
   -1.4103    2.8073   -2.4467 H   0  0  0  0  0  0  0  0  0  0  0  0
    0.9583    2.3977    0.4800 H   0  0  0  0  0  0  0  0  0  0  0  0
   -0.3872   -2.4438   -1.2028 C   0  0  0  0  0  0  0  0  0  0  0  0
   -0.3872   -2.4438    0.1204 C   0  0  0  0  0  0  0  0  0  0  0  0
   -0.3872   -1.2180    0.9784 C   0  0  0  0  0  3  0  0  0  0  0  0
    0.8225   -1.0636    1.8596 C   0  0  0  0  0  0  0  0  0  0  0  0
    1.9336   -1.7793    1.7872 C   0  0  0  0  0  0  0  0  0  0  0  0
   -0.3954   -3.3665   -1.7693 H   0  0  0  0  0  0  0  0  0  0  0  0
   -0.3809   -1.5183   -1.7688 H   0  0  0  0  0  0  0  0  0  0  0  0
   -0.3847   -3.3925    0.6510 H   0  0  0  0  0  0  0  0  0  0  0  0
   -0.5073   -0.1460    0.2279 H   0  0  0  0  0  0  0  0  0  0  0  0
   -1.2752   -1.2314    1.6212 H   0  0  0  0  0  0  0  0  0  0  0  0
    0.7498   -0.2786    2.6074 H   0  0  0  0  0  0  0  0  0  0  0  0
    2.0591   -2.5661    1.0523 H   0  0  0  0  0  0  0  0  0  0  0  0
    2.7618   -1.5950    2.4595 H   0  0  0  0  0  0  0  0  0  0  0  0
  1  2  1  0
  1  6  1  0
  1  7  1  0
  1  8  1  0
  2  3  1  0
  2  5  1  0
  2 21  1  0
  3  4  2  3
  3  9  1  0
  4 10  1  0
  4 11  1  0
  5 12  1  0
 13 14  2  3
 13 18  1  0
 13 19  1  0
 14 15  1  0
 14 20  1  0
 15 16  1  0
 15 22  1  0
 16 17  2  3
 16 23  1  0
 17 24  1  0
 17 25  1  0
M  RAD  1  15   2
M  END
>  <reaction>  (5) 
rxn_1157

>  <mol_properties>  (5) 
{"1": {"label": "*3", "atom_type": "Cs"}, "4": {"label": "*4", "atom_type": "S2s"}, "13": {"label": "*0", "atom_type": "Cd"}, "14": {"label": "*1", "atom_type": "Cs"}, "20": {"label": "*2", "atom_type": "H0"}}

>  <type>  (5) 
unop_1

>  <geom_source>  (5) 
Heuristics

$$$$

     RDKit          3D

 25 23  0  0  0  0  0  0  0  0999 V2000
   -1.1472    0.5055   -1.7890 C   0  0  0  0  0  0  0  0  0  0  0  0
   -0.3457    0.8582   -0.5470 C   0  0  0  0  0  0  0  0  0  0  0  0
    0.8227    1.7713   -0.7731 C   0  0  0  0  0  0  0  0  0  0  0  0
    1.1427    2.3573   -1.9170 C   0  0  0  0  0  0  0  0  0  0  0  0
   -1.4036    1.5333    0.7906 S   0  0  0  0  0  0  0  0  0  0  0  0
   -1.5946    1.3963   -2.2336 H   0  0  0  0  0  0  0  0  0  0  0  0
   -0.5066    0.0338   -2.5377 H   0  0  0  0  0  0  0  0  0  0  0  0
   -1.9519   -0.1832   -1.5364 H   0  0  0  0  0  0  0  0  0  0  0  0
    1.4281    1.9581    0.1084 H   0  0  0  0  0  0  0  0  0  0  0  0
    2.0020    3.0120   -1.9822 H   0  0  0  0  0  0  0  0  0  0  0  0
    0.5711    2.2105   -2.8252 H   0  0  0  0  0  0  0  0  0  0  0  0
   -1.6753    2.6976    0.1848 H   0  0  0  0  0  0  0  0  0  0  0  0
   -0.1056   -2.5107   -1.2277 C   0  0  0  0  0  0  0  0  0  0  0  0
   -0.1056   -2.5107    0.0955 C   0  0  0  0  0  0  0  0  0  0  0  0
   -0.1056   -1.2849    0.9535 C   0  0  0  0  0  3  0  0  0  0  0  0
    1.1041   -1.1306    1.8347 C   0  0  0  0  0  0  0  0  0  0  0  0
    2.2152   -1.8462    1.7623 C   0  0  0  0  0  0  0  0  0  0  0  0
   -0.1138   -3.4335   -1.7942 H   0  0  0  0  0  0  0  0  0  0  0  0
   -0.0993   -1.5853   -1.7937 H   0  0  0  0  0  0  0  0  0  0  0  0
   -0.1031   -3.4595    0.6261 H   0  0  0  0  0  0  0  0  0  0  0  0
   -0.2257   -0.2129    0.2030 H   0  0  0  0  0  0  0  0  0  0  0  0
   -0.9936   -1.2984    1.5963 H   0  0  0  0  0  0  0  0  0  0  0  0
    1.0314   -0.3455    2.5825 H   0  0  0  0  0  0  0  0  0  0  0  0
    2.3407   -2.6331    1.0274 H   0  0  0  0  0  0  0  0  0  0  0  0
    3.0434   -1.6619    2.4346 H   0  0  0  0  0  0  0  0  0  0  0  0
  1  2  1  0
  1  6  1  0
  1  7  1  0
  1  8  1  0
  2  3  1  0
  2  5  1  0
  2 21  1  0
  3  4  2  3
  3  9  1  0
  4 10  1  0
  4 11  1  0
  5 12  1  0
 13 14  2  3
 13 18  1  0
 13 19  1  0
 14 15  1  0
 14 20  1  0
 15 16  1  0
 15 22  1  0
 16 17  2  3
 16 23  1  0
 17 24  1  0
 17 25  1  0
M  RAD  1  15   2
M  END
>  <reaction>  (6) 
rxn_1157

>  <mol_properties>  (6) 
{"1": {"label": "*3", "atom_type": "Cs"}, "4": {"label": "*4", "atom_type": "S2s"}, "13": {"label": "*0", "atom_type": "Cd"}, "14": {"label": "*1", "atom_type": "Cs"}, "20": {"label": "*2", "atom_type": "H0"}}

>  <type>  (6) 
unop_2

>  <geom_source>  (6) 
Heuristics

$$$$

     RDKit          3D

 25 23  0  0  0  0  0  0  0  0999 V2000
   -1.3441    2.0699    0.4316 C   0  0  0  0  0  0  0  0  0  0  0  0
   -0.6251    0.9899   -0.3596 C   0  0  0  0  0  0  0  0  0  0  0  0
   -0.8562    1.0163   -1.8414 C   0  0  0  0  0  0  0  0  0  0  0  0
   -1.5358    1.9380   -2.5069 C   0  0  0  0  0  0  0  0  0  0  0  0
    1.1769    0.9663   -0.0189 S   0  0  0  0  0  0  0  0  0  0  0  0
   -1.0083    3.0646    0.1329 H   0  0  0  0  0  0  0  0  0  0  0  0
   -2.4228    2.0097    0.2702 H   0  0  0  0  0  0  0  0  0  0  0  0
   -1.1449    1.9545    1.4959 H   0  0  0  0  0  0  0  0  0  0  0  0
   -0.3952    0.1981   -2.3859 H   0  0  0  0  0  0  0  0  0  0  0  0
   -1.6408    1.8795   -3.5826 H   0  0  0  0  0  0  0  0  0  0  0  0
   -2.0114    2.7778   -2.0152 H   0  0  0  0  0  0  0  0  0  0  0  0
    1.4550    2.1225   -0.6374 H   0  0  0  0  0  0  0  0  0  0  0  0
   -0.3850   -2.3791   -1.0403 C   0  0  0  0  0  0  0  0  0  0  0  0
   -0.3850   -2.3791    0.2829 C   0  0  0  0  0  0  0  0  0  0  0  0
   -0.3850   -1.1532    1.1409 C   0  0  0  0  0  3  0  0  0  0  0  0
    0.8247   -0.9989    2.0221 C   0  0  0  0  0  0  0  0  0  0  0  0
    1.9358   -1.7146    1.9497 C   0  0  0  0  0  0  0  0  0  0  0  0
   -0.3932   -3.3018   -1.6069 H   0  0  0  0  0  0  0  0  0  0  0  0
   -0.3787   -1.4536   -1.6063 H   0  0  0  0  0  0  0  0  0  0  0  0
   -0.3825   -3.3278    0.8135 H   0  0  0  0  0  0  0  0  0  0  0  0
   -0.5051   -0.0813    0.3904 H   0  0  0  0  0  0  0  0  0  0  0  0
   -1.2730   -1.1667    1.7837 H   0  0  0  0  0  0  0  0  0  0  0  0
    0.7520   -0.2139    2.7699 H   0  0  0  0  0  0  0  0  0  0  0  0
    2.0613   -2.5014    1.2148 H   0  0  0  0  0  0  0  0  0  0  0  0
    2.7640   -1.5303    2.6220 H   0  0  0  0  0  0  0  0  0  0  0  0
  1  2  1  0
  1  6  1  0
  1  7  1  0
  1  8  1  0
  2  3  1  0
  2  5  1  0
  2 21  1  0
  3  4  2  3
  3  9  1  0
  4 10  1  0
  4 11  1  0
  5 12  1  0
 13 14  2  3
 13 18  1  0
 13 19  1  0
 14 15  1  0
 14 20  1  0
 15 16  1  0
 15 22  1  0
 16 17  2  3
 16 23  1  0
 17 24  1  0
 17 25  1  0
M  RAD  1  15   2
M  END
>  <reaction>  (7) 
rxn_1157

>  <mol_properties>  (7) 
{"1": {"label": "*3", "atom_type": "Cs"}, "4": {"label": "*4", "atom_type": "S2s"}, "13": {"label": "*0", "atom_type": "Cd"}, "14": {"label": "*1", "atom_type": "Cs"}, "20": {"label": "*2", "atom_type": "H0"}}

>  <type>  (7) 
unop_3

>  <geom_source>  (7) 
Heuristics

$$$$

     RDKit          3D

 25 23  0  0  0  0  0  0  0  0999 V2000
    0.8286    0.9186   -1.5114 C   0  0  0  0  0  0  0  0  0  0  0  0
   -0.3408    0.8592   -0.5427 C   0  0  0  0  0  0  0  0  0  0  0  0
   -0.1214    1.5442    0.7735 C   0  0  0  0  0  0  0  0  0  0  0  0
    0.9402    2.2609    1.1106 C   0  0  0  0  0  0  0  0  0  0  0  0
   -1.8976    1.4657   -1.2994 S   0  0  0  0  0  0  0  0  0  0  0  0
    1.0566    1.9494   -1.7887 H   0  0  0  0  0  0  0  0  0  0  0  0
    1.7219    0.4792   -1.0617 H   0  0  0  0  0  0  0  0  0  0  0  0
    0.5928    0.3709   -2.4225 H   0  0  0  0  0  0  0  0  0  0  0  0
   -0.9360    1.4336    1.4824 H   0  0  0  0  0  0  0  0  0  0  0  0
    1.0056    2.7294    2.0841 H   0  0  0  0  0  0  0  0  0  0  0  0
    1.7787    2.4082    0.4409 H   0  0  0  0  0  0  0  0  0  0  0  0
   -1.5350    2.7546   -1.3600 H   0  0  0  0  0  0  0  0  0  0  0  0
   -0.1008   -2.5098   -1.2235 C   0  0  0  0  0  0  0  0  0  0  0  0
   -0.1008   -2.5098    0.0998 C   0  0  0  0  0  0  0  0  0  0  0  0
   -0.1008   -1.2840    0.9578 C   0  0  0  0  0  3  0  0  0  0  0  0
    1.1090   -1.1296    1.8390 C   0  0  0  0  0  0  0  0  0  0  0  0
    2.2201   -1.8453    1.7665 C   0  0  0  0  0  0  0  0  0  0  0  0
   -0.1089   -3.4325   -1.7900 H   0  0  0  0  0  0  0  0  0  0  0  0
   -0.0944   -1.5843   -1.7895 H   0  0  0  0  0  0  0  0  0  0  0  0
   -0.0982   -3.4585    0.6303 H   0  0  0  0  0  0  0  0  0  0  0  0
   -0.2208   -0.2120    0.2072 H   0  0  0  0  0  0  0  0  0  0  0  0
   -0.9887   -1.2974    1.6006 H   0  0  0  0  0  0  0  0  0  0  0  0
    1.0363   -0.3446    2.5867 H   0  0  0  0  0  0  0  0  0  0  0  0
    2.3456   -2.6321    1.0317 H   0  0  0  0  0  0  0  0  0  0  0  0
    3.0483   -1.6610    2.4389 H   0  0  0  0  0  0  0  0  0  0  0  0
  1  2  1  0
  1  6  1  0
  1  7  1  0
  1  8  1  0
  2  3  1  0
  2  5  1  0
  2 21  1  0
  3  4  2  3
  3  9  1  0
  4 10  1  0
  4 11  1  0
  5 12  1  0
 13 14  2  3
 13 18  1  0
 13 19  1  0
 14 15  1  0
 14 20  1  0
 15 16  1  0
 15 22  1  0
 16 17  2  3
 16 23  1  0
 17 24  1  0
 17 25  1  0
M  RAD  1  15   2
M  END
>  <reaction>  (8) 
rxn_1157

>  <mol_properties>  (8) 
{"1": {"label": "*3", "atom_type": "Cs"}, "4": {"label": "*4", "atom_type": "S2s"}, "13": {"label": "*0", "atom_type": "Cd"}, "14": {"label": "*1", "atom_type": "Cs"}, "20": {"label": "*2", "atom_type": "H0"}}

>  <type>  (8) 
unop_4

>  <geom_source>  (8) 
Heuristics

$$$$

     RDKit          3D

 25 23  0  0  0  0  0  0  0  0999 V2000
   -0.4228    2.2636    0.6554 C   0  0  0  0  0  0  0  0  0  0  0  0
   -0.4251    1.0328   -0.2358 C   0  0  0  0  0  0  0  0  0  0  0  0
   -1.6447    0.8607   -1.0919 C   0  0  0  0  0  0  0  0  0  0  0  0
   -2.6448    1.7218   -1.2041 C   0  0  0  0  0  0  0  0  0  0  0  0
    1.0787    0.9323   -1.2810 S   0  0  0  0  0  0  0  0  0  0  0  0
   -0.4555    3.1786    0.0611 H   0  0  0  0  0  0  0  0  0  0  0  0
   -1.2885    2.2566    1.3215 H   0  0  0  0  0  0  0  0  0  0  0  0
    0.4817    2.2897    1.2612 H   0  0  0  0  0  0  0  0  0  0  0  0
   -1.6658   -0.0580   -1.6699 H   0  0  0  0  0  0  0  0  0  0  0  0
   -3.4820    1.5158   -1.8585 H   0  0  0  0  0  0  0  0  0  0  0  0
   -2.6726    2.6552   -0.6553 H   0  0  0  0  0  0  0  0  0  0  0  0
    0.7687    1.9644   -2.0780 H   0  0  0  0  0  0  0  0  0  0  0  0
   -0.1851   -2.3362   -0.9165 C   0  0  0  0  0  0  0  0  0  0  0  0
   -0.1851   -2.3362    0.4067 C   0  0  0  0  0  0  0  0  0  0  0  0
   -0.1851   -1.1104    1.2647 C   0  0  0  0  0  3  0  0  0  0  0  0
    1.0247   -0.9560    2.1459 C   0  0  0  0  0  0  0  0  0  0  0  0
    2.1358   -1.6717    2.0735 C   0  0  0  0  0  0  0  0  0  0  0  0
   -0.1932   -3.2589   -1.4831 H   0  0  0  0  0  0  0  0  0  0  0  0
   -0.1787   -1.4107   -1.4825 H   0  0  0  0  0  0  0  0  0  0  0  0
   -0.1825   -3.2849    0.9372 H   0  0  0  0  0  0  0  0  0  0  0  0
   -0.3051   -0.0384    0.5142 H   0  0  0  0  0  0  0  0  0  0  0  0
   -1.0730   -1.1239    1.9075 H   0  0  0  0  0  0  0  0  0  0  0  0
    0.9520   -0.1710    2.8936 H   0  0  0  0  0  0  0  0  0  0  0  0
    2.2613   -2.4586    1.3386 H   0  0  0  0  0  0  0  0  0  0  0  0
    2.9640   -1.4874    2.7458 H   0  0  0  0  0  0  0  0  0  0  0  0
  1  2  1  0
  1  6  1  0
  1  7  1  0
  1  8  1  0
  2  3  1  0
  2  5  1  0
  2 21  1  0
  3  4  2  3
  3  9  1  0
  4 10  1  0
  4 11  1  0
  5 12  1  0
 13 14  2  3
 13 18  1  0
 13 19  1  0
 14 15  1  0
 14 20  1  0
 15 16  1  0
 15 22  1  0
 16 17  2  3
 16 23  1  0
 17 24  1  0
 17 25  1  0
M  RAD  1  15   2
M  END
>  <reaction>  (9) 
rxn_1157

>  <mol_properties>  (9) 
{"1": {"label": "*3", "atom_type": "Cs"}, "4": {"label": "*4", "atom_type": "S2s"}, "13": {"label": "*0", "atom_type": "Cd"}, "14": {"label": "*1", "atom_type": "Cs"}, "20": {"label": "*2", "atom_type": "H0"}}

>  <type>  (9) 
unop_5

>  <geom_source>  (9) 
Heuristics

$$$$

     RDKit          3D

 25 23  0  0  0  0  0  0  0  0999 V2000
    1.1251    1.3726   -0.9431 C   0  0  0  0  0  0  0  0  0  0  0  0
   -0.2598    0.8889   -0.5461 C   0  0  0  0  0  0  0  0  0  0  0  0
   -0.7304    1.3273    0.8090 C   0  0  0  0  0  0  0  0  0  0  0  0
   -0.0968    2.1596    1.6214 C   0  0  0  0  0  0  0  0  0  0  0  0
   -1.5270    1.3108   -1.8031 S   0  0  0  0  0  0  0  0  0  0  0  0
    1.1603    2.4624   -0.9947 H   0  0  0  0  0  0  0  0  0  0  0  0
    1.8704    1.0398   -0.2172 H   0  0  0  0  0  0  0  0  0  0  0  0
    1.3953    0.9818   -1.9229 H   0  0  0  0  0  0  0  0  0  0  0  0
   -1.6895    0.9171    1.1094 H   0  0  0  0  0  0  0  0  0  0  0  0
   -0.5212    2.4279    2.5803 H   0  0  0  0  0  0  0  0  0  0  0  0
    0.8595    2.6020    1.3702 H   0  0  0  0  0  0  0  0  0  0  0  0
   -1.5195    2.6318   -1.5765 H   0  0  0  0  0  0  0  0  0  0  0  0
   -0.0197   -2.4801   -1.2268 C   0  0  0  0  0  0  0  0  0  0  0  0
   -0.0197   -2.4801    0.0965 C   0  0  0  0  0  0  0  0  0  0  0  0
   -0.0197   -1.2543    0.9545 C   0  0  0  0  0  3  0  0  0  0  0  0
    1.1900   -1.0999    1.8357 C   0  0  0  0  0  0  0  0  0  0  0  0
    2.3012   -1.8156    1.7632 C   0  0  0  0  0  0  0  0  0  0  0  0
   -0.0279   -3.4028   -1.7933 H   0  0  0  0  0  0  0  0  0  0  0  0
   -0.0134   -1.5546   -1.7928 H   0  0  0  0  0  0  0  0  0  0  0  0
   -0.0171   -3.4288    0.6270 H   0  0  0  0  0  0  0  0  0  0  0  0
   -0.1398   -0.1823    0.2039 H   0  0  0  0  0  0  0  0  0  0  0  0
   -0.9077   -1.2677    1.5972 H   0  0  0  0  0  0  0  0  0  0  0  0
    1.1173   -0.3149    2.5834 H   0  0  0  0  0  0  0  0  0  0  0  0
    2.4266   -2.6024    1.0284 H   0  0  0  0  0  0  0  0  0  0  0  0
    3.1294   -1.6313    2.4356 H   0  0  0  0  0  0  0  0  0  0  0  0
  1  2  1  0
  1  6  1  0
  1  7  1  0
  1  8  1  0
  2  3  1  0
  2  5  1  0
  2 21  1  0
  3  4  2  3
  3  9  1  0
  4 10  1  0
  4 11  1  0
  5 12  1  0
 13 14  2  3
 13 18  1  0
 13 19  1  0
 14 15  1  0
 14 20  1  0
 15 16  1  0
 15 22  1  0
 16 17  2  3
 16 23  1  0
 17 24  1  0
 17 25  1  0
M  RAD  1  15   2
M  END
>  <reaction>  (10) 
rxn_1157

>  <mol_properties>  (10) 
{"1": {"label": "*3", "atom_type": "Cs"}, "4": {"label": "*4", "atom_type": "S2s"}, "13": {"label": "*0", "atom_type": "Cd"}, "14": {"label": "*1", "atom_type": "Cs"}, "20": {"label": "*2", "atom_type": "H0"}}

>  <type>  (10) 
unop_6

>  <geom_source>  (10) 
Heuristics

$$$$

     RDKit          3D

 25 23  0  0  0  0  0  0  0  0999 V2000
    1.0294    1.8331   -0.2697 C   0  0  0  0  0  0  0  0  0  0  0  0
   -0.1877    0.9465   -0.4749 C   0  0  0  0  0  0  0  0  0  0  0  0
   -1.2695    1.0906    0.5540 C   0  0  0  0  0  0  0  0  0  0  0  0
   -1.2925    1.9737    1.5409 C   0  0  0  0  0  0  0  0  0  0  0  0
   -0.9057    1.1341   -2.1522 S   0  0  0  0  0  0  0  0  0  0  0  0
    0.7588    2.8893   -0.3219 H   0  0  0  0  0  0  0  0  0  0  0  0
    1.4821    1.6432    0.7061 H   0  0  0  0  0  0  0  0  0  0  0  0
    1.7726    1.6390   -1.0414 H   0  0  0  0  0  0  0  0  0  0  0  0
   -2.1004    0.4020    0.4364 H   0  0  0  0  0  0  0  0  0  0  0  0
   -2.1248    2.0103    2.2318 H   0  0  0  0  0  0  0  0  0  0  0  0
   -0.4933    2.6869    1.7015 H   0  0  0  0  0  0  0  0  0  0  0  0
   -1.3804    2.3739   -1.9671 H   0  0  0  0  0  0  0  0  0  0  0  0
    0.0524   -2.4225   -1.1556 C   0  0  0  0  0  0  0  0  0  0  0  0
    0.0524   -2.4225    0.1676 C   0  0  0  0  0  0  0  0  0  0  0  0
    0.0524   -1.1967    1.0256 C   0  0  0  0  0  3  0  0  0  0  0  0
    1.2621   -1.0423    1.9068 C   0  0  0  0  0  0  0  0  0  0  0  0
    2.3733   -1.7580    1.8344 C   0  0  0  0  0  0  0  0  0  0  0  0
    0.0442   -3.3452   -1.7222 H   0  0  0  0  0  0  0  0  0  0  0  0
    0.0587   -1.4970   -1.7216 H   0  0  0  0  0  0  0  0  0  0  0  0
    0.0550   -3.3712    0.6981 H   0  0  0  0  0  0  0  0  0  0  0  0
   -0.0677   -0.1247    0.2751 H   0  0  0  0  0  0  0  0  0  0  0  0
   -0.8356   -1.2102    1.6684 H   0  0  0  0  0  0  0  0  0  0  0  0
    1.1894   -0.2573    2.6545 H   0  0  0  0  0  0  0  0  0  0  0  0
    2.4987   -2.5449    1.0995 H   0  0  0  0  0  0  0  0  0  0  0  0
    3.2015   -1.5737    2.5067 H   0  0  0  0  0  0  0  0  0  0  0  0
  1  2  1  0
  1  6  1  0
  1  7  1  0
  1  8  1  0
  2  3  1  0
  2  5  1  0
  2 21  1  0
  3  4  2  3
  3  9  1  0
  4 10  1  0
  4 11  1  0
  5 12  1  0
 13 14  2  3
 13 18  1  0
 13 19  1  0
 14 15  1  0
 14 20  1  0
 15 16  1  0
 15 22  1  0
 16 17  2  3
 16 23  1  0
 17 24  1  0
 17 25  1  0
M  RAD  1  15   2
M  END
>  <reaction>  (11) 
rxn_1157

>  <mol_properties>  (11) 
{"1": {"label": "*3", "atom_type": "Cs"}, "4": {"label": "*4", "atom_type": "S2s"}, "13": {"label": "*0", "atom_type": "Cd"}, "14": {"label": "*1", "atom_type": "Cs"}, "20": {"label": "*2", "atom_type": "H0"}}

>  <type>  (11) 
unop_7

>  <geom_source>  (11) 
Heuristics

$$$$

     RDKit          3D

 25 23  0  0  0  0  0  0  0  0999 V2000
   -2.0018    1.2009   -0.7754 C   0  0  0  0  0  0  0  0  0  0  0  0
   -0.5265    0.8773   -0.6072 C   0  0  0  0  0  0  0  0  0  0  0  0
    0.3863    1.4855   -1.6304 C   0  0  0  0  0  0  0  0  0  0  0  0
    0.0324    2.3374   -2.5808 C   0  0  0  0  0  0  0  0  0  0  0  0
    0.0825    1.2786    1.0756 S   0  0  0  0  0  0  0  0  0  0  0  0
   -2.1817    2.2734   -0.6808 H   0  0  0  0  0  0  0  0  0  0  0  0
   -2.3554    0.8796   -1.7578 H   0  0  0  0  0  0  0  0  0  0  0  0
   -2.5893    0.6939   -0.0116 H   0  0  0  0  0  0  0  0  0  0  0  0
    1.4268    1.1893   -1.5414 H   0  0  0  0  0  0  0  0  0  0  0  0
    0.7665    2.7338   -3.2704 H   0  0  0  0  0  0  0  0  0  0  0  0
   -0.9899    2.6705   -2.7118 H   0  0  0  0  0  0  0  0  0  0  0  0
    0.0107    2.6101    0.9404 H   0  0  0  0  0  0  0  0  0  0  0  0
   -0.2865   -2.4916   -1.2880 C   0  0  0  0  0  0  0  0  0  0  0  0
   -0.2865   -2.4916    0.0353 C   0  0  0  0  0  0  0  0  0  0  0  0
   -0.2865   -1.2658    0.8933 C   0  0  0  0  0  3  0  0  0  0  0  0
    0.9232   -1.1115    1.7745 C   0  0  0  0  0  0  0  0  0  0  0  0
    2.0344   -1.8272    1.7021 C   0  0  0  0  0  0  0  0  0  0  0  0
   -0.2947   -3.4144   -1.8545 H   0  0  0  0  0  0  0  0  0  0  0  0
   -0.2801   -1.5662   -1.8539 H   0  0  0  0  0  0  0  0  0  0  0  0
   -0.2839   -3.4404    0.5658 H   0  0  0  0  0  0  0  0  0  0  0  0
   -0.4066   -0.1939    0.1427 H   0  0  0  0  0  0  0  0  0  0  0  0
   -1.1744   -1.2793    1.5361 H   0  0  0  0  0  0  0  0  0  0  0  0
    0.8505   -0.3265    2.5222 H   0  0  0  0  0  0  0  0  0  0  0  0
    2.1599   -2.6140    0.9672 H   0  0  0  0  0  0  0  0  0  0  0  0
    2.8626   -1.6429    2.3744 H   0  0  0  0  0  0  0  0  0  0  0  0
  1  2  1  0
  1  6  1  0
  1  7  1  0
  1  8  1  0
  2  3  1  0
  2  5  1  0
  2 21  1  0
  3  4  2  3
  3  9  1  0
  4 10  1  0
  4 11  1  0
  5 12  1  0
 13 14  2  3
 13 18  1  0
 13 19  1  0
 14 15  1  0
 14 20  1  0
 15 16  1  0
 15 22  1  0
 16 17  2  3
 16 23  1  0
 17 24  1  0
 17 25  1  0
M  RAD  1  15   2
M  END
>  <reaction>  (12) 
rxn_1157

>  <mol_properties>  (12) 
{"1": {"label": "*3", "atom_type": "Cs"}, "4": {"label": "*4", "atom_type": "S2s"}, "13": {"label": "*0", "atom_type": "Cd"}, "14": {"label": "*1", "atom_type": "Cs"}, "20": {"label": "*2", "atom_type": "H0"}}

>  <type>  (12) 
unop_8

>  <geom_source>  (12) 
Heuristics

$$$$

     RDKit          3D

 25 23  0  0  0  0  0  0  0  0999 V2000
    0.2557    0.5824   -1.8602 C   0  0  0  0  0  0  0  0  0  0  0  0
   -0.3729    0.8550   -0.5038 C   0  0  0  0  0  0  0  0  0  0  0  0
    0.4445    1.7026    0.4254 C   0  0  0  0  0  0  0  0  0  0  0  0
    1.5906    2.2976    0.1310 C   0  0  0  0  0  0  0  0  0  0  0  0
   -2.0607    1.5573   -0.6518 S   0  0  0  0  0  0  0  0  0  0  0  0
    0.4058    1.5093   -2.4168 H   0  0  0  0  0  0  0  0  0  0  0  0
    1.2250    0.0928   -1.7423 H   0  0  0  0  0  0  0  0  0  0  0  0
   -0.3902   -0.0635   -2.4530 H   0  0  0  0  0  0  0  0  0  0  0  0
    0.0171    1.8305    1.4150 H   0  0  0  0  0  0  0  0  0  0  0  0
    2.1059    2.9016    0.8666 H   0  0  0  0  0  0  0  0  0  0  0  0
    2.0590    2.2082   -0.8416 H   0  0  0  0  0  0  0  0  0  0  0  0
   -1.6783    2.7508   -1.1270 H   0  0  0  0  0  0  0  0  0  0  0  0
   -0.1328   -2.5139   -1.1845 C   0  0  0  0  0  0  0  0  0  0  0  0
   -0.1328   -2.5139    0.1387 C   0  0  0  0  0  0  0  0  0  0  0  0
   -0.1328   -1.2881    0.9967 C   0  0  0  0  0  3  0  0  0  0  0  0
    1.0769   -1.1337    1.8779 C   0  0  0  0  0  0  0  0  0  0  0  0
    2.1880   -1.8494    1.8055 C   0  0  0  0  0  0  0  0  0  0  0  0
   -0.1410   -3.4367   -1.7511 H   0  0  0  0  0  0  0  0  0  0  0  0
   -0.1265   -1.5885   -1.7505 H   0  0  0  0  0  0  0  0  0  0  0  0
   -0.1303   -3.4627    0.6692 H   0  0  0  0  0  0  0  0  0  0  0  0
   -0.2529   -0.2161    0.2462 H   0  0  0  0  0  0  0  0  0  0  0  0
   -1.0208   -1.3016    1.6395 H   0  0  0  0  0  0  0  0  0  0  0  0
    1.0042   -0.3487    2.6256 H   0  0  0  0  0  0  0  0  0  0  0  0
    2.3135   -2.6363    1.0706 H   0  0  0  0  0  0  0  0  0  0  0  0
    3.0163   -1.6651    2.4778 H   0  0  0  0  0  0  0  0  0  0  0  0
  1  2  1  0
  1  6  1  0
  1  7  1  0
  1  8  1  0
  2  3  1  0
  2  5  1  0
  2 21  1  0
  3  4  2  3
  3  9  1  0
  4 10  1  0
  4 11  1  0
  5 12  1  0
 13 14  2  3
 13 18  1  0
 13 19  1  0
 14 15  1  0
 14 20  1  0
 15 16  1  0
 15 22  1  0
 16 17  2  3
 16 23  1  0
 17 24  1  0
 17 25  1  0
M  RAD  1  15   2
M  END
>  <reaction>  (13) 
rxn_1157

>  <mol_properties>  (13) 
{"1": {"label": "*3", "atom_type": "Cs"}, "4": {"label": "*4", "atom_type": "S2s"}, "13": {"label": "*0", "atom_type": "Cd"}, "14": {"label": "*1", "atom_type": "Cs"}, "20": {"label": "*2", "atom_type": "H0"}}

>  <type>  (13) 
unop_9

>  <geom_source>  (13) 
Heuristics

$$$$

     RDKit          3D

 25 23  0  0  0  0  0  0  0  0999 V2000
   -1.7187    0.7788   -1.3766 C   0  0  0  0  0  0  0  0  0  0  0  0
   -0.4112    0.8581   -0.6062 C   0  0  0  0  0  0  0  0  0  0  0  0
    0.6706    1.6686   -1.2563 C   0  0  0  0  0  0  0  0  0  0  0  0
    0.5487    2.3817   -2.3658 C   0  0  0  0  0  0  0  0  0  0  0  0
   -0.6578    1.4327    1.1181 S   0  0  0  0  0  0  0  0  0  0  0  0
   -2.1670    1.7673   -1.4918 H   0  0  0  0  0  0  0  0  0  0  0  0
   -1.5527    0.3598   -2.3717 H   0  0  0  0  0  0  0  0  0  0  0  0
   -2.4310    0.1473   -0.8480 H   0  0  0  0  0  0  0  0  0  0  0  0
    1.6208    1.6586   -0.7316 H   0  0  0  0  0  0  0  0  0  0  0  0
    1.3858    2.9463   -2.7558 H   0  0  0  0  0  0  0  0  0  0  0  0
   -0.3768    2.4315   -2.9261 H   0  0  0  0  0  0  0  0  0  0  0  0
   -0.9771    2.6960    0.8039 H   0  0  0  0  0  0  0  0  0  0  0  0
   -0.1711   -2.5109   -1.2869 C   0  0  0  0  0  0  0  0  0  0  0  0
   -0.1711   -2.5109    0.0364 C   0  0  0  0  0  0  0  0  0  0  0  0
   -0.1711   -1.2851    0.8944 C   0  0  0  0  0  3  0  0  0  0  0  0
    1.0386   -1.1307    1.7756 C   0  0  0  0  0  0  0  0  0  0  0  0
    2.1497   -1.8464    1.7031 C   0  0  0  0  0  0  0  0  0  0  0  0
   -0.1793   -3.4336   -1.8534 H   0  0  0  0  0  0  0  0  0  0  0  0
   -0.1648   -1.5854   -1.8529 H   0  0  0  0  0  0  0  0  0  0  0  0
   -0.1686   -3.4596    0.5669 H   0  0  0  0  0  0  0  0  0  0  0  0
   -0.2912   -0.2131    0.1438 H   0  0  0  0  0  0  0  0  0  0  0  0
   -1.0591   -1.2986    1.5371 H   0  0  0  0  0  0  0  0  0  0  0  0
    0.9659   -0.3457    2.5233 H   0  0  0  0  0  0  0  0  0  0  0  0
    2.2752   -2.6333    0.9683 H   0  0  0  0  0  0  0  0  0  0  0  0
    2.9779   -1.6621    2.3755 H   0  0  0  0  0  0  0  0  0  0  0  0
  1  2  1  0
  1  6  1  0
  1  7  1  0
  1  8  1  0
  2  3  1  0
  2  5  1  0
  2 21  1  0
  3  4  2  3
  3  9  1  0
  4 10  1  0
  4 11  1  0
  5 12  1  0
 13 14  2  3
 13 18  1  0
 13 19  1  0
 14 15  1  0
 14 20  1  0
 15 16  1  0
 15 22  1  0
 16 17  2  3
 16 23  1  0
 17 24  1  0
 17 25  1  0
M  RAD  1  15   2
M  END
>  <reaction>  (14) 
rxn_1157

>  <mol_properties>  (14) 
{"1": {"label": "*3", "atom_type": "Cs"}, "4": {"label": "*4", "atom_type": "S2s"}, "13": {"label": "*0", "atom_type": "Cd"}, "14": {"label": "*1", "atom_type": "Cs"}, "20": {"label": "*2", "atom_type": "H0"}}

>  <type>  (14) 
unop_10

>  <geom_source>  (14) 
Heuristics

$$$$

     RDKit          3D

 25 23  0  0  0  0  0  0  0  0999 V2000
    0.4979    2.1706    0.3450 C   0  0  0  0  0  0  0  0  0  0  0  0
   -0.2131    1.0105   -0.3318 C   0  0  0  0  0  0  0  0  0  0  0  0
   -1.6811    0.8997   -0.0442 C   0  0  0  0  0  0  0  0  0  0  0  0
   -2.4055    1.7637    0.6508 C   0  0  0  0  0  0  0  0  0  0  0  0
    0.0609    0.9939   -2.1452 S   0  0  0  0  0  0  0  0  0  0  0  0
    0.0936    3.1277    0.0105 H   0  0  0  0  0  0  0  0  0  0  0  0
    0.3832    2.1106    1.4297 H   0  0  0  0  0  0  0  0  0  0  0  0
    1.5601    2.1537    0.1062 H   0  0  0  0  0  0  0  0  0  0  0  0
   -2.1620    0.0272   -0.4754 H   0  0  0  0  0  0  0  0  0  0  0  0
   -3.4661    1.6050    0.7976 H   0  0  0  0  0  0  0  0  0  0  0  0
   -1.9786    2.6528    1.0983 H   0  0  0  0  0  0  0  0  0  0  0  0
   -0.6747    2.0823   -2.4114 H   0  0  0  0  0  0  0  0  0  0  0  0
    0.0269   -2.3585   -1.0125 C   0  0  0  0  0  0  0  0  0  0  0  0
    0.0269   -2.3585    0.3108 C   0  0  0  0  0  0  0  0  0  0  0  0
    0.0269   -1.1326    1.1688 C   0  0  0  0  0  3  0  0  0  0  0  0
    1.2367   -0.9783    2.0500 C   0  0  0  0  0  0  0  0  0  0  0  0
    2.3478   -1.6940    1.9775 C   0  0  0  0  0  0  0  0  0  0  0  0
    0.0188   -3.2812   -1.5790 H   0  0  0  0  0  0  0  0  0  0  0  0
    0.0333   -1.4330   -1.5785 H   0  0  0  0  0  0  0  0  0  0  0  0
    0.0295   -3.3072    0.8413 H   0  0  0  0  0  0  0  0  0  0  0  0
   -0.0931   -0.0607    0.4182 H   0  0  0  0  0  0  0  0  0  0  0  0
   -0.8610   -1.1461    1.8115 H   0  0  0  0  0  0  0  0  0  0  0  0
    1.1640   -0.1933    2.7977 H   0  0  0  0  0  0  0  0  0  0  0  0
    2.4733   -2.4808    1.2427 H   0  0  0  0  0  0  0  0  0  0  0  0
    3.1760   -1.5097    2.6499 H   0  0  0  0  0  0  0  0  0  0  0  0
  1  2  1  0
  1  6  1  0
  1  7  1  0
  1  8  1  0
  2  3  1  0
  2  5  1  0
  2 21  1  0
  3  4  2  3
  3  9  1  0
  4 10  1  0
  4 11  1  0
  5 12  1  0
 13 14  2  3
 13 18  1  0
 13 19  1  0
 14 15  1  0
 14 20  1  0
 15 16  1  0
 15 22  1  0
 16 17  2  3
 16 23  1  0
 17 24  1  0
 17 25  1  0
M  RAD  1  15   2
M  END
>  <reaction>  (15) 
rxn_1157

>  <mol_properties>  (15) 
{"1": {"label": "*3", "atom_type": "Cs"}, "4": {"label": "*4", "atom_type": "S2s"}, "13": {"label": "*0", "atom_type": "Cd"}, "14": {"label": "*1", "atom_type": "Cs"}, "20": {"label": "*2", "atom_type": "H0"}}

>  <type>  (15) 
unop_11

>  <geom_source>  (15) 
Heuristics

$$$$

     RDKit          3D

 25 23  0  0  0  0  0  0  0  0999 V2000
   -0.4445    0.4358   -1.9517 C   0  0  0  0  0  0  0  0  0  0  0  0
   -0.3517    0.8594   -0.4952 C   0  0  0  0  0  0  0  0  0  0  0  0
    0.7838    1.7820   -0.1646 C   0  0  0  0  0  0  0  0  0  0  0  0
    1.6271    2.3206   -1.0324 C   0  0  0  0  0  0  0  0  0  0  0  0
   -1.9245    1.5759    0.1187 S   0  0  0  0  0  0  0  0  0  0  0  0
   -0.6108    1.2973   -2.6011 H   0  0  0  0  0  0  0  0  0  0  0  0
    0.4774   -0.0581   -2.2670 H   0  0  0  0  0  0  0  0  0  0  0  0
   -1.2745   -0.2548   -2.0921 H   0  0  0  0  0  0  0  0  0  0  0  0
    0.8812    2.0197    0.8902 H   0  0  0  0  0  0  0  0  0  0  0  0
    2.4127    2.9870   -0.7004 H   0  0  0  0  0  0  0  0  0  0  0  0
    1.5726    2.1221   -2.0958 H   0  0  0  0  0  0  0  0  0  0  0  0
   -1.8567    2.7062   -0.5984 H   0  0  0  0  0  0  0  0  0  0  0  0
   -0.1116   -2.5096   -1.1759 C   0  0  0  0  0  0  0  0  0  0  0  0
   -0.1116   -2.5096    0.1474 C   0  0  0  0  0  0  0  0  0  0  0  0
   -0.1116   -1.2838    1.0054 C   0  0  0  0  0  3  0  0  0  0  0  0
    1.0981   -1.1294    1.8866 C   0  0  0  0  0  0  0  0  0  0  0  0
    2.2092   -1.8451    1.8141 C   0  0  0  0  0  0  0  0  0  0  0  0
   -0.1198   -3.4323   -1.7424 H   0  0  0  0  0  0  0  0  0  0  0  0
   -0.1053   -1.5841   -1.7419 H   0  0  0  0  0  0  0  0  0  0  0  0
   -0.1091   -3.4583    0.6779 H   0  0  0  0  0  0  0  0  0  0  0  0
   -0.2317   -0.2118    0.2548 H   0  0  0  0  0  0  0  0  0  0  0  0
   -0.9996   -1.2972    1.6481 H   0  0  0  0  0  0  0  0  0  0  0  0
    1.0254   -0.3444    2.6343 H   0  0  0  0  0  0  0  0  0  0  0  0
    2.3347   -2.6319    1.0793 H   0  0  0  0  0  0  0  0  0  0  0  0
    3.0374   -1.6608    2.4865 H   0  0  0  0  0  0  0  0  0  0  0  0
  1  2  1  0
  1  6  1  0
  1  7  1  0
  1  8  1  0
  2  3  1  0
  2  5  1  0
  2 21  1  0
  3  4  2  3
  3  9  1  0
  4 10  1  0
  4 11  1  0
  5 12  1  0
 13 14  2  3
 13 18  1  0
 13 19  1  0
 14 15  1  0
 14 20  1  0
 15 16  1  0
 15 22  1  0
 16 17  2  3
 16 23  1  0
 17 24  1  0
 17 25  1  0
M  RAD  1  15   2
M  END
>  <reaction>  (16) 
rxn_1157

>  <mol_properties>  (16) 
{"1": {"label": "*3", "atom_type": "Cs"}, "4": {"label": "*4", "atom_type": "S2s"}, "13": {"label": "*0", "atom_type": "Cd"}, "14": {"label": "*1", "atom_type": "Cs"}, "20": {"label": "*2", "atom_type": "H0"}}

>  <type>  (16) 
unop_12

>  <geom_source>  (16) 
Heuristics

$$$$

     RDKit          3D

 25 23  0  0  0  0  0  0  0  0999 V2000
    1.4392   -1.6932    1.1776 S   0  0  0  0  0  0  0  0  0  0  0  0
    1.0634   -0.2420    0.1378 C   0  0  0  0  0  0  0  0  0  0  0  0
    1.6781   -0.4124   -1.2506 C   0  0  0  0  0  0  0  0  0  0  0  0
    1.5318    1.0295    0.8005 C   0  0  0  0  0  0  0  0  0  0  0  0
   -1.5216    0.1750    0.4761 C   0  0  0  0  0  3  0  0  0  0  0  0
   -1.8107   -1.2035   -0.0416 C   0  0  0  0  0  0  0  0  0  0  0  0
   -1.1678    1.1254   -0.6293 C   0  0  0  0  0  0  0  0  0  0  0  0
    2.8119    1.2487    1.1221 C   0  0  0  0  0  0  0  0  0  0  0  0
   -1.9236   -2.2315    0.8005 C   0  0  0  0  0  0  0  0  0  0  0  0
   -2.0955    1.6114   -1.4586 C   0  0  0  0  0  0  0  0  0  0  0  0
   -0.2155   -0.1763   -0.0011 H   0  0  0  0  0  0  0  0  0  0  0  0
    2.7802   -0.5345   -1.1855 H   0  0  0  0  0  0  0  0  0  0  0  0
    1.2491   -1.3113   -1.7413 H   0  0  0  0  0  0  0  0  0  0  0  0
    1.4470    0.4730   -1.8803 H   0  0  0  0  0  0  0  0  0  0  0  0
    0.7959    1.7943    1.0290 H   0  0  0  0  0  0  0  0  0  0  0  0
   -1.9388   -1.3757   -1.1071 H   0  0  0  0  0  0  0  0  0  0  0  0
   -2.3693    0.5618    1.0822 H   0  0  0  0  0  0  0  0  0  0  0  0
   -0.1318    1.4249   -0.7501 H   0  0  0  0  0  0  0  0  0  0  0  0
    3.0989    2.1797    1.5999 H   0  0  0  0  0  0  0  0  0  0  0  0
    3.5777    0.5070    0.9180 H   0  0  0  0  0  0  0  0  0  0  0  0
   -2.1368   -3.2250    0.4194 H   0  0  0  0  0  0  0  0  0  0  0  0
   -1.8047   -2.0920    1.8709 H   0  0  0  0  0  0  0  0  0  0  0  0
   -1.8114    2.2990   -2.2486 H   0  0  0  0  0  0  0  0  0  0  0  0
   -3.1387    1.3276   -1.3562 H   0  0  0  0  0  0  0  0  0  0  0  0
    0.5928   -1.2601    2.2164 H   0  0  0  0  0  0  0  0  0  0  0  0
  1  2  1  0
  1 25  1  0
  2  3  1  0
  2  4  1  0
  2 11  1  0
  3 12  1  0
  3 13  1  0
  3 14  1  0
  4  8  2  3
  4 15  1  0
  5  6  1  0
  5  7  1  0
  5 17  1  0
  6  9  2  3
  6 16  1  0
  7 10  2  3
  7 18  1  0
  8 19  1  0
  8 20  1  0
  9 21  1  0
  9 22  1  0
 10 23  1  0
 10 24  1  0
M  RAD  1   5   2
M  END
>  <reaction>  (17) 
rxn_1157

>  <mol_properties>  (17) 
{"1": {"label": "*3", "atom_type": "Cs"}, "4": {"label": "*4", "atom_type": "S2s"}, "13": {"label": "*0", "atom_type": "Cd"}, "14": {"label": "*1", "atom_type": "Cs"}, "20": {"label": "*2", "atom_type": "H0"}}

>  <type>  (17) 
unop_13

>  <geom_source>  (17) 
AutoTST

$$$$

     RDKit          3D

 25 23  0  0  0  0  0  0  0  0999 V2000
   -1.1472    0.5055   -1.7890 C   0  0  0  0  0  0  0  0  0  0  0  0
   -0.3457    0.8582   -0.5470 C   0  0  0  0  0  0  0  0  0  0  0  0
    0.8226    1.7713   -0.7731 C   0  0  0  0  0  0  0  0  0  0  0  0
    1.1427    2.3573   -1.9170 C   0  0  0  0  0  0  0  0  0  0  0  0
   -1.4036    1.5333    0.7906 S   0  0  0  0  0  0  0  0  0  0  0  0
   -1.5946    1.3963   -2.2336 H   0  0  0  0  0  0  0  0  0  0  0  0
   -0.5067    0.0338   -2.5377 H   0  0  0  0  0  0  0  0  0  0  0  0
   -1.9519   -0.1832   -1.5364 H   0  0  0  0  0  0  0  0  0  0  0  0
    1.4281    1.9581    0.1084 H   0  0  0  0  0  0  0  0  0  0  0  0
    2.0020    3.0120   -1.9822 H   0  0  0  0  0  0  0  0  0  0  0  0
    0.5711    2.2105   -2.8252 H   0  0  0  0  0  0  0  0  0  0  0  0
   -1.6752    2.6976    0.1848 H   0  0  0  0  0  0  0  0  0  0  0  0
   -0.1056   -2.5107   -1.2277 C   0  0  0  0  0  0  0  0  0  0  0  0
   -0.1056   -2.5107    0.0955 C   0  0  0  0  0  0  0  0  0  0  0  0
   -0.1056   -1.2849    0.9535 C   0  0  0  0  0  3  0  0  0  0  0  0
    1.1041   -1.1305    1.8348 C   0  0  0  0  0  0  0  0  0  0  0  0
    2.2152   -1.8462    1.7623 C   0  0  0  0  0  0  0  0  0  0  0  0
   -0.1138   -3.4335   -1.7942 H   0  0  0  0  0  0  0  0  0  0  0  0
   -0.0993   -1.5853   -1.7937 H   0  0  0  0  0  0  0  0  0  0  0  0
   -0.1031   -3.4595    0.6261 H   0  0  0  0  0  0  0  0  0  0  0  0
   -0.2257   -0.2129    0.2030 H   0  0  0  0  0  0  0  0  0  0  0  0
   -0.9936   -1.2984    1.5963 H   0  0  0  0  0  0  0  0  0  0  0  0
    1.0314   -0.3455    2.5825 H   0  0  0  0  0  0  0  0  0  0  0  0
    2.3407   -2.6331    1.0274 H   0  0  0  0  0  0  0  0  0  0  0  0
    3.0434   -1.6620    2.4346 H   0  0  0  0  0  0  0  0  0  0  0  0
  1  2  1  0
  1  6  1  0
  1  7  1  0
  1  8  1  0
  2  3  1  0
  2  5  1  0
  2 21  1  0
  3  4  2  3
  3  9  1  0
  4 10  1  0
  4 11  1  0
  5 12  1  0
 13 14  2  3
 13 18  1  0
 13 19  1  0
 14 15  1  0
 14 20  1  0
 15 16  1  0
 15 22  1  0
 16 17  2  3
 16 23  1  0
 17 24  1  0
 17 25  1  0
M  RAD  1  15   2
M  END
>  <reaction>  (18) 
rxn_1157

>  <mol_properties>  (18) 
{"1": {"label": "*3", "atom_type": "Cs"}, "4": {"label": "*4", "atom_type": "S2s"}, "13": {"label": "*0", "atom_type": "Cd"}, "14": {"label": "*1", "atom_type": "Cs"}, "20": {"label": "*2", "atom_type": "H0"}}

>  <type>  (18) 
unop_14

>  <geom_source>  (18) 
gaussian_log

$$$$
