
     RDKit          3D

  9  8  0  0  0  0  0  0  0  0999 V2000
    1.1303   -0.2933   -0.7510 C   0  0  0  0  0  0  0  0  0  0  0  0
    0.2866    0.4560   -0.0588 C   0  0  0  0  0  0  0  0  0  0  0  0
   -0.9719   -0.0331    0.5823 C   0  0  0  0  0  0  0  0  0  0  0  0
    2.0274    0.1230   -1.1916 H   0  0  0  0  0  0  0  0  0  0  0  0
    0.9532   -1.3530   -0.9023 H   0  0  0  0  0  0  0  0  0  0  0  0
    0.5065    1.5132    0.0659 H   0  0  0  0  0  0  0  0  0  0  0  0
   -0.9526    0.1426    1.6610 H   0  0  0  0  0  0  0  0  0  0  0  0
   -1.1182   -1.1002    0.4106 H   0  0  0  0  0  0  0  0  0  0  0  0
   -1.8412    0.5010    0.1901 H   0  0  0  0  0  0  0  0  0  0  0  0
  1  2  2  3
  1  4  1  0
  1  5  1  0
  2  3  1  0
  2  6  1  0
  3  7  1  0
  3  8  1  0
  3  9  1  0
M  END
>  <reaction>  (1) 
rxn_997

>  <mol_properties>  (1) 
{"2": {"label": "donator", "atom_type": "Cs"}, "6": {"label": "d_hydrogen", "atom_type": "H0"}}

>  <type>  (1) 
r1h

$$$$

     RDKit          3D

  7  6  0  0  0  0  0  0  0  0999 V2000
   -0.6201    0.0189   -0.0017 C   0  0  0  0  0  0  0  0  0  0  0  0
    0.8589   -0.0553    0.0500 C   0  0  0  0  0  3  0  0  0  0  0  0
   -1.0738   -0.9730   -0.0559 H   0  0  0  0  0  0  0  0  0  0  0  0
   -0.9680    0.5706   -0.8872 H   0  0  0  0  0  0  0  0  0  0  0  0
   -1.0303    0.5369    0.8678 H   0  0  0  0  0  0  0  0  0  0  0  0
    1.3939   -0.8386   -0.4695 H   0  0  0  0  0  0  0  0  0  0  0  0
    1.4394    0.7404    0.4965 H   0  0  0  0  0  0  0  0  0  0  0  0
  1  2  1  0
  1  3  1  0
  1  4  1  0
  1  5  1  0
  2  6  1  0
  2  7  1  0
M  RAD  1   2   2
M  END
>  <reaction>  (2) 
rxn_997

>  <mol_properties>  (2) 
{"1": {"label": "acceptor", "atom_type": "Cs"}}

>  <type>  (2) 
r2

$$$$

     RDKit          3D

  8  7  0  0  0  0  0  0  0  0999 V2000
    0.7610    0.0250    0.0051 C   0  0  0  0  0  0  0  0  0  0  0  0
   -0.7610   -0.0250   -0.0051 C   0  0  0  0  0  0  0  0  0  0  0  0
    1.1904   -0.9237   -0.3217 H   0  0  0  0  0  0  0  0  0  0  0  0
    1.1359    0.8041   -0.6609 H   0  0  0  0  0  0  0  0  0  0  0  0
    1.1435    0.2336    1.0058 H   0  0  0  0  0  0  0  0  0  0  0  0
   -1.1435   -0.2336   -1.0058 H   0  0  0  0  0  0  0  0  0  0  0  0
   -1.1904    0.9237    0.3216 H   0  0  0  0  0  0  0  0  0  0  0  0
   -1.1359   -0.8041    0.6609 H   0  0  0  0  0  0  0  0  0  0  0  0
  1  2  1  0
  1  3  1  0
  1  4  1  0
  1  5  1  0
  2  6  1  0
  2  7  1  0
  2  8  1  0
M  END
>  <reaction>  (3) 
rxn_997

>  <mol_properties>  (3) 
{"0": {"label": "a_hydrogen", "atom_type": "H0"}, "2": {"label": "acceptor", "atom_type": "Cs"}}

>  <type>  (3) 
r2h

$$$$

     RDKit          3D

 16 14  0  0  0  0  0  0  0  0999 V2000
    0.7492   -0.3993   -2.0939 C   0  0  0  0  0  0  0  0  0  0  0  0
    1.0525   -0.5357   -0.8021 C   0  0  0  0  0  0  0  0  0  0  0  0
    1.2292    0.5664    0.1414 C   0  0  0  0  0  0  0  0  0  0  0  0
    0.5942   -1.2592   -2.7326 H   0  0  0  0  0  0  0  0  0  0  0  0
    0.6574    0.5798   -2.5516 H   0  0  0  0  0  0  0  0  0  0  0  0
    1.1327   -1.5397   -0.3936 H   0  0  0  0  0  0  0  0  0  0  0  0
    0.1138    0.7379    0.7628 H   0  0  0  0  0  0  0  0  0  0  0  0
    1.4020    1.5373   -0.3201 H   0  0  0  0  0  0  0  0  0  0  0  0
    1.9271    0.3711    0.9531 H   0  0  0  0  0  0  0  0  0  0  0  0
   -1.7535   -0.5133    1.2489 C   0  0  0  0  0  0  0  0  0  0  0  0
   -1.1565    0.8569    1.3758 C   0  0  0  0  0  3  0  0  0  0  0  0
   -2.7761   -0.5456    1.6396 H   0  0  0  0  0  0  0  0  0  0  0  0
   -1.1702   -1.2531    1.8011 H   0  0  0  0  0  0  0  0  0  0  0  0
   -1.7915   -0.8285    0.2041 H   0  0  0  0  0  0  0  0  0  0  0  0
   -0.9162    1.1854    2.3842 H   0  0  0  0  0  0  0  0  0  0  0  0
   -1.6265    1.6362    0.7806 H   0  0  0  0  0  0  0  0  0  0  0  0
  1  2  2  3
  1  4  1  0
  1  5  1  0
  2  3  1  0
  2  6  1  0
  3  7  1  0
  3  8  1  0
  3  9  1  0
 10 11  1  0
 10 12  1  0
 10 13  1  0
 10 14  1  0
 11 15  1  0
 11 16  1  0
M  RAD  1  11   2
M  END
>  <reaction>  (4) 
rxn_997

>  <mol_properties>  (4) 
{"1": {"label": "*0", "atom_type": "Cd"}, "2": {"label": "*1", "atom_type": "Cs"}, "6": {"label": "*2", "atom_type": "H0"}, "9": {"label": "*4", "atom_type": "Cs"}, "10": {"label": "*3", "atom_type": "Cs"}}

>  <type>  (4) 
ts

$$$$

     RDKit          3D

 16 14  0  0  0  0  0  0  0  0999 V2000
    0.7865   -0.7874   -2.5559 C   0  0  0  0  0  0  0  0  0  0  0  0
    0.7865   -0.7874   -1.2321 C   0  0  0  0  0  0  0  0  0  0  0  0
    0.7865    0.4348   -0.3716 C   0  0  0  0  0  3  0  0  0  0  0  0
    0.7865   -1.7101   -3.1224 H   0  0  0  0  0  0  0  0  0  0  0  0
    0.7865    0.1382   -3.1219 H   0  0  0  0  0  0  0  0  0  0  0  0
    0.7865   -1.7400   -0.7086 H   0  0  0  0  0  0  0  0  0  0  0  0
   -0.2668    0.4553    0.4098 H   0  0  0  0  0  0  0  0  0  0  0  0
    0.7865    1.3452   -0.9722 H   0  0  0  0  0  0  0  0  0  0  0  0
    1.6642    0.4519    0.2796 H   0  0  0  0  0  0  0  0  0  0  0  0
   -0.9163    0.4931    2.6588 C   0  0  0  0  0  0  0  0  0  0  0  0
   -1.3185    0.4758    1.1901 C   0  0  0  0  0  0  0  0  0  0  0  0
   -1.5595    1.1584    3.2375 H   0  0  0  0  0  0  0  0  0  0  0  0
    0.1121    0.8368    2.7836 H   0  0  0  0  0  0  0  0  0  0  0  0
   -0.9878   -0.5023    3.1005 H   0  0  0  0  0  0  0  0  0  0  0  0
   -1.2470    1.4713    0.7484 H   0  0  0  0  0  0  0  0  0  0  0  0
   -2.3468    0.1321    1.0654 H   0  0  0  0  0  0  0  0  0  0  0  0
  1  2  2  3
  1  4  1  0
  1  5  1  0
  2  3  1  0
  2  6  1  0
  3  8  1  0
  3  9  1  0
  7 11  1  0
 10 11  1  0
 10 12  1  0
 10 13  1  0
 10 14  1  0
 11 15  1  0
 11 16  1  0
M  RAD  1   3   2
M  END
>  <reaction>  (5) 
rxn_997

>  <mol_properties>  (5) 
{"1": {"label": "*0", "atom_type": "Cd"}, "2": {"label": "*1", "atom_type": "Cs"}, "6": {"label": "*2", "atom_type": "H0"}, "9": {"label": "*4", "atom_type": "Cs"}, "10": {"label": "*3", "atom_type": "Cs"}}

>  <type>  (5) 
unop_1

>  <geom_source>  (5) 
Heuristics

$$$$

     RDKit          3D

 16 14  0  0  0  0  0  0  0  0999 V2000
    0.9680   -0.4763   -2.3235 C   0  0  0  0  0  0  0  0  0  0  0  0
    0.9680   -0.4763   -0.9998 C   0  0  0  0  0  0  0  0  0  0  0  0
    0.9680    0.7459   -0.1393 C   0  0  0  0  0  3  0  0  0  0  0  0
    0.9680   -1.3990   -2.8900 H   0  0  0  0  0  0  0  0  0  0  0  0
    0.9680    0.4493   -2.8895 H   0  0  0  0  0  0  0  0  0  0  0  0
    0.9680   -1.4289   -0.4762 H   0  0  0  0  0  0  0  0  0  0  0  0
   -0.0852    0.7665    0.6422 H   0  0  0  0  0  0  0  0  0  0  0  0
    0.9680    1.6564   -0.7398 H   0  0  0  0  0  0  0  0  0  0  0  0
    1.8457    0.7630    0.5120 H   0  0  0  0  0  0  0  0  0  0  0  0
   -1.5931   -0.6233    1.7717 C   0  0  0  0  0  0  0  0  0  0  0  0
   -1.1369    0.7870    1.4225 C   0  0  0  0  0  0  0  0  0  0  0  0
   -2.2445   -0.6232    2.6475 H   0  0  0  0  0  0  0  0  0  0  0  0
   -0.7429   -1.2711    1.9925 H   0  0  0  0  0  0  0  0  0  0  0  0
   -2.1477   -1.0754    0.9476 H   0  0  0  0  0  0  0  0  0  0  0  0
   -0.5823    1.2391    2.2467 H   0  0  0  0  0  0  0  0  0  0  0  0
   -1.9871    1.4348    1.2018 H   0  0  0  0  0  0  0  0  0  0  0  0
  1  2  2  3
  1  4  1  0
  1  5  1  0
  2  3  1  0
  2  6  1  0
  3  8  1  0
  3  9  1  0
  7 11  1  0
 10 11  1  0
 10 12  1  0
 10 13  1  0
 10 14  1  0
 11 15  1  0
 11 16  1  0
M  RAD  1   3   2
M  END
>  <reaction>  (6) 
rxn_997

>  <mol_properties>  (6) 
{"1": {"label": "*0", "atom_type": "Cd"}, "2": {"label": "*1", "atom_type": "Cs"}, "6": {"label": "*2", "atom_type": "H0"}, "9": {"label": "*4", "atom_type": "Cs"}, "10": {"label": "*3", "atom_type": "Cs"}}

>  <type>  (6) 
unop_2

>  <geom_source>  (6) 
Heuristics

$$$$

     RDKit          3D

 16 14  0  0  0  0  0  0  0  0999 V2000
    0.8127   -0.9342   -2.5191 C   0  0  0  0  0  0  0  0  0  0  0  0
    0.8127   -0.9342   -1.1953 C   0  0  0  0  0  0  0  0  0  0  0  0
    0.8127    0.2880   -0.3348 C   0  0  0  0  0  3  0  0  0  0  0  0
    0.8127   -1.8569   -3.0855 H   0  0  0  0  0  0  0  0  0  0  0  0
    0.8127   -0.0086   -3.0851 H   0  0  0  0  0  0  0  0  0  0  0  0
    0.8127   -1.8868   -0.6718 H   0  0  0  0  0  0  0  0  0  0  0  0
   -0.2405    0.3085    0.4467 H   0  0  0  0  0  0  0  0  0  0  0  0
    0.8127    1.1984   -0.9354 H   0  0  0  0  0  0  0  0  0  0  0  0
    1.6905    0.3051    0.3164 H   0  0  0  0  0  0  0  0  0  0  0  0
   -0.9970    1.0546    2.5328 C   0  0  0  0  0  0  0  0  0  0  0  0
   -1.2922    0.3290    1.2270 C   0  0  0  0  0  0  0  0  0  0  0  0
   -1.8974    1.5169    2.9411 H   0  0  0  0  0  0  0  0  0  0  0  0
   -0.2568    1.8436    2.3887 H   0  0  0  0  0  0  0  0  0  0  0  0
   -0.6065    0.3691    3.2870 H   0  0  0  0  0  0  0  0  0  0  0  0
   -1.6827    1.0145    0.4727 H   0  0  0  0  0  0  0  0  0  0  0  0
   -2.0324   -0.4600    1.3711 H   0  0  0  0  0  0  0  0  0  0  0  0
  1  2  2  3
  1  4  1  0
  1  5  1  0
  2  3  1  0
  2  6  1  0
  3  8  1  0
  3  9  1  0
  7 11  1  0
 10 11  1  0
 10 12  1  0
 10 13  1  0
 10 14  1  0
 11 15  1  0
 11 16  1  0
M  RAD  1   3   2
M  END
>  <reaction>  (7) 
rxn_997

>  <mol_properties>  (7) 
{"1": {"label": "*0", "atom_type": "Cd"}, "2": {"label": "*1", "atom_type": "Cs"}, "6": {"label": "*2", "atom_type": "H0"}, "9": {"label": "*4", "atom_type": "Cs"}, "10": {"label": "*3", "atom_type": "Cs"}}

>  <type>  (7) 
unop_3

>  <geom_source>  (7) 
Heuristics

$$$$

     RDKit          3D

 16 14  0  0  0  0  0  0  0  0999 V2000
    1.1460   -0.7821   -2.0733 C   0  0  0  0  0  0  0  0  0  0  0  0
    1.1460   -0.7821   -0.7495 C   0  0  0  0  0  0  0  0  0  0  0  0
    1.1460    0.4401    0.1110 C   0  0  0  0  0  3  0  0  0  0  0  0
    1.1460   -1.7048   -2.6398 H   0  0  0  0  0  0  0  0  0  0  0  0
    1.1460    0.1435   -2.6393 H   0  0  0  0  0  0  0  0  0  0  0  0
    1.1460   -1.7347   -0.2260 H   0  0  0  0  0  0  0  0  0  0  0  0
    0.0928    0.4606    0.8924 H   0  0  0  0  0  0  0  0  0  0  0  0
    1.1460    1.3505   -0.4896 H   0  0  0  0  0  0  0  0  0  0  0  0
    2.0237    0.4572    0.7622 H   0  0  0  0  0  0  0  0  0  0  0  0
   -2.2481    0.4811    0.8622 C   0  0  0  0  0  0  0  0  0  0  0  0
   -0.9589    0.4811    1.6727 C   0  0  0  0  0  0  0  0  0  0  0  0
   -3.0389    1.0302    1.3764 H   0  0  0  0  0  0  0  0  0  0  0  0
   -2.6084   -0.5349    0.6916 H   0  0  0  0  0  0  0  0  0  0  0  0
   -2.1022    0.9481   -0.1134 H   0  0  0  0  0  0  0  0  0  0  0  0
   -1.1047    0.0141    2.6484 H   0  0  0  0  0  0  0  0  0  0  0  0
   -0.5986    1.4971    1.8433 H   0  0  0  0  0  0  0  0  0  0  0  0
  1  2  2  3
  1  4  1  0
  1  5  1  0
  2  3  1  0
  2  6  1  0
  3  8  1  0
  3  9  1  0
  7 11  1  0
 10 11  1  0
 10 12  1  0
 10 13  1  0
 10 14  1  0
 11 15  1  0
 11 16  1  0
M  RAD  1   3   2
M  END
>  <reaction>  (8) 
rxn_997

>  <mol_properties>  (8) 
{"1": {"label": "*0", "atom_type": "Cd"}, "2": {"label": "*1", "atom_type": "Cs"}, "6": {"label": "*2", "atom_type": "H0"}, "9": {"label": "*4", "atom_type": "Cs"}, "10": {"label": "*3", "atom_type": "Cs"}}

>  <type>  (8) 
unop_4

>  <geom_source>  (8) 
Heuristics

$$$$

     RDKit          3D

 16 14  0  0  0  0  0  0  0  0999 V2000
    0.8768   -1.0370   -2.4328 C   0  0  0  0  0  0  0  0  0  0  0  0
    0.8768   -1.0370   -1.1090 C   0  0  0  0  0  0  0  0  0  0  0  0
    0.8768    0.1852   -0.2485 C   0  0  0  0  0  3  0  0  0  0  0  0
    0.8768   -1.9597   -2.9993 H   0  0  0  0  0  0  0  0  0  0  0  0
    0.8768   -0.1114   -2.9988 H   0  0  0  0  0  0  0  0  0  0  0  0
    0.8768   -1.9896   -0.5855 H   0  0  0  0  0  0  0  0  0  0  0  0
   -0.1764    0.2057    0.5329 H   0  0  0  0  0  0  0  0  0  0  0  0
    0.8768    1.0956   -0.8491 H   0  0  0  0  0  0  0  0  0  0  0  0
    1.7545    0.2023    0.4027 H   0  0  0  0  0  0  0  0  0  0  0  0
   -1.2378    1.4680    2.1946 C   0  0  0  0  0  0  0  0  0  0  0  0
   -1.2281    0.2262    1.3132 C   0  0  0  0  0  0  0  0  0  0  0  0
   -2.1142    1.4851    2.8448 H   0  0  0  0  0  0  0  0  0  0  0  0
   -1.2540    2.3794    1.5943 H   0  0  0  0  0  0  0  0  0  0  0  0
   -0.3527    1.5080    2.8320 H   0  0  0  0  0  0  0  0  0  0  0  0
   -2.1132    0.1863    0.6759 H   0  0  0  0  0  0  0  0  0  0  0  0
   -1.2119   -0.6851    1.9135 H   0  0  0  0  0  0  0  0  0  0  0  0
  1  2  2  3
  1  4  1  0
  1  5  1  0
  2  3  1  0
  2  6  1  0
  3  8  1  0
  3  9  1  0
  7 11  1  0
 10 11  1  0
 10 12  1  0
 10 13  1  0
 10 14  1  0
 11 15  1  0
 11 16  1  0
M  RAD  1   3   2
M  END
>  <reaction>  (9) 
rxn_997

>  <mol_properties>  (9) 
{"1": {"label": "*0", "atom_type": "Cd"}, "2": {"label": "*1", "atom_type": "Cs"}, "6": {"label": "*2", "atom_type": "H0"}, "9": {"label": "*4", "atom_type": "Cs"}, "10": {"label": "*3", "atom_type": "Cs"}}

>  <type>  (9) 
unop_5

>  <geom_source>  (9) 
Heuristics

$$$$

     RDKit          3D

 16 14  0  0  0  0  0  0  0  0999 V2000
    1.1173   -0.9332   -2.1063 C   0  0  0  0  0  0  0  0  0  0  0  0
    1.1173   -0.9332   -0.7825 C   0  0  0  0  0  0  0  0  0  0  0  0
    1.1173    0.2890    0.0780 C   0  0  0  0  0  3  0  0  0  0  0  0
    1.1173   -1.8559   -2.6727 H   0  0  0  0  0  0  0  0  0  0  0  0
    1.1173   -0.0076   -2.6723 H   0  0  0  0  0  0  0  0  0  0  0  0
    1.1173   -1.8858   -0.2590 H   0  0  0  0  0  0  0  0  0  0  0  0
    0.0641    0.3095    0.8595 H   0  0  0  0  0  0  0  0  0  0  0  0
    1.1173    1.1994   -0.5226 H   0  0  0  0  0  0  0  0  0  0  0  0
    1.9950    0.3061    0.7292 H   0  0  0  0  0  0  0  0  0  0  0  0
   -2.1571    1.0406    0.9718 C   0  0  0  0  0  0  0  0  0  0  0  0
   -0.9876    0.3300    1.6398 C   0  0  0  0  0  0  0  0  0  0  0  0
   -2.7068    1.6558    1.6864 H   0  0  0  0  0  0  0  0  0  0  0  0
   -2.8607    0.3260    0.5411 H   0  0  0  0  0  0  0  0  0  0  0  0
   -1.8158    1.6942    0.1671 H   0  0  0  0  0  0  0  0  0  0  0  0
   -1.3289   -0.3235    2.4445 H   0  0  0  0  0  0  0  0  0  0  0  0
   -0.2840    1.0446    2.0705 H   0  0  0  0  0  0  0  0  0  0  0  0
  1  2  2  3
  1  4  1  0
  1  5  1  0
  2  3  1  0
  2  6  1  0
  3  8  1  0
  3  9  1  0
  7 11  1  0
 10 11  1  0
 10 12  1  0
 10 13  1  0
 10 14  1  0
 11 15  1  0
 11 16  1  0
M  RAD  1   3   2
M  END
>  <reaction>  (10) 
rxn_997

>  <mol_properties>  (10) 
{"1": {"label": "*0", "atom_type": "Cd"}, "2": {"label": "*1", "atom_type": "Cs"}, "6": {"label": "*2", "atom_type": "H0"}, "9": {"label": "*4", "atom_type": "Cs"}, "10": {"label": "*3", "atom_type": "Cs"}}

>  <type>  (10) 
unop_6

>  <geom_source>  (10) 
Heuristics

$$$$

     RDKit          3D

 16 14  0  0  0  0  0  0  0  0999 V2000
    1.0486   -1.0408   -2.1959 C   0  0  0  0  0  0  0  0  0  0  0  0
    1.0486   -1.0408   -0.8722 C   0  0  0  0  0  0  0  0  0  0  0  0
    1.0486    0.1814   -0.0117 C   0  0  0  0  0  3  0  0  0  0  0  0
    1.0486   -1.9636   -2.7624 H   0  0  0  0  0  0  0  0  0  0  0  0
    1.0486   -0.1152   -2.7619 H   0  0  0  0  0  0  0  0  0  0  0  0
    1.0486   -1.9935   -0.3487 H   0  0  0  0  0  0  0  0  0  0  0  0
   -0.0046    0.2019    0.7698 H   0  0  0  0  0  0  0  0  0  0  0  0
    1.0486    1.0918   -0.6123 H   0  0  0  0  0  0  0  0  0  0  0  0
    1.9263    0.1985    0.6395 H   0  0  0  0  0  0  0  0  0  0  0  0
   -1.9117    1.4555    1.2919 C   0  0  0  0  0  0  0  0  0  0  0  0
   -1.0563    0.2224    1.5501 C   0  0  0  0  0  0  0  0  0  0  0  0
   -2.2975    1.8719    2.2240 H   0  0  0  0  0  0  0  0  0  0  0  0
   -2.7671    1.2181    0.6571 H   0  0  0  0  0  0  0  0  0  0  0  0
   -1.3374    2.2383    0.7931 H   0  0  0  0  0  0  0  0  0  0  0  0
   -1.6306   -0.5603    2.0488 H   0  0  0  0  0  0  0  0  0  0  0  0
   -0.2009    0.4599    2.1849 H   0  0  0  0  0  0  0  0  0  0  0  0
  1  2  2  3
  1  4  1  0
  1  5  1  0
  2  3  1  0
  2  6  1  0
  3  8  1  0
  3  9  1  0
  7 11  1  0
 10 11  1  0
 10 12  1  0
 10 13  1  0
 10 14  1  0
 11 15  1  0
 11 16  1  0
M  RAD  1   3   2
M  END
>  <reaction>  (11) 
rxn_997

>  <mol_properties>  (11) 
{"1": {"label": "*0", "atom_type": "Cd"}, "2": {"label": "*1", "atom_type": "Cs"}, "6": {"label": "*2", "atom_type": "H0"}, "9": {"label": "*4", "atom_type": "Cs"}, "10": {"label": "*3", "atom_type": "Cs"}}

>  <type>  (11) 
unop_7

>  <geom_source>  (11) 
Heuristics

$$$$

     RDKit          3D

 16 14  0  0  0  0  0  0  0  0999 V2000
    0.8092   -0.6353   -2.5293 C   0  0  0  0  0  0  0  0  0  0  0  0
    0.8092   -0.6353   -1.2056 C   0  0  0  0  0  0  0  0  0  0  0  0
    0.8092    0.5868   -0.3451 C   0  0  0  0  0  3  0  0  0  0  0  0
    0.8092   -1.5581   -3.0958 H   0  0  0  0  0  0  0  0  0  0  0  0
    0.8092    0.2903   -3.0953 H   0  0  0  0  0  0  0  0  0  0  0  0
    0.8092   -1.5880   -0.6821 H   0  0  0  0  0  0  0  0  0  0  0  0
   -0.2440    0.6074    0.4364 H   0  0  0  0  0  0  0  0  0  0  0  0
    0.8092    1.4973   -0.9457 H   0  0  0  0  0  0  0  0  0  0  0  0
    1.6870    0.6040    0.3061 H   0  0  0  0  0  0  0  0  0  0  0  0
   -1.0132   -0.0654    2.5427 C   0  0  0  0  0  0  0  0  0  0  0  0
   -1.2957    0.6279    1.2167 C   0  0  0  0  0  0  0  0  0  0  0  0
   -1.4774    0.4671    3.3747 H   0  0  0  0  0  0  0  0  0  0  0  0
    0.0587   -0.1183    2.7413 H   0  0  0  0  0  0  0  0  0  0  0  0
   -1.4005   -1.0858    2.5463 H   0  0  0  0  0  0  0  0  0  0  0  0
   -0.9084    1.6483    1.2131 H   0  0  0  0  0  0  0  0  0  0  0  0
   -2.3676    0.6807    1.0181 H   0  0  0  0  0  0  0  0  0  0  0  0
  1  2  2  3
  1  4  1  0
  1  5  1  0
  2  3  1  0
  2  6  1  0
  3  8  1  0
  3  9  1  0
  7 11  1  0
 10 11  1  0
 10 12  1  0
 10 13  1  0
 10 14  1  0
 11 15  1  0
 11 16  1  0
M  RAD  1   3   2
M  END
>  <reaction>  (12) 
rxn_997

>  <mol_properties>  (12) 
{"1": {"label": "*0", "atom_type": "Cd"}, "2": {"label": "*1", "atom_type": "Cs"}, "6": {"label": "*2", "atom_type": "H0"}, "9": {"label": "*4", "atom_type": "Cs"}, "10": {"label": "*3", "atom_type": "Cs"}}

>  <type>  (12) 
unop_8

>  <geom_source>  (12) 
Heuristics

$$$$

     RDKit          3D

 16 14  0  0  0  0  0  0  0  0999 V2000
    1.1255   -0.6286   -2.1072 C   0  0  0  0  0  0  0  0  0  0  0  0
    1.1255   -0.6286   -0.7834 C   0  0  0  0  0  0  0  0  0  0  0  0
    1.1255    0.5936    0.0771 C   0  0  0  0  0  3  0  0  0  0  0  0
    1.1255   -1.5513   -2.6737 H   0  0  0  0  0  0  0  0  0  0  0  0
    1.1255    0.2970   -2.6732 H   0  0  0  0  0  0  0  0  0  0  0  0
    1.1255   -1.5812   -0.2599 H   0  0  0  0  0  0  0  0  0  0  0  0
    0.0723    0.6141    0.8585 H   0  0  0  0  0  0  0  0  0  0  0  0
    1.1255    1.5041   -0.5235 H   0  0  0  0  0  0  0  0  0  0  0  0
    2.0033    0.6107    0.7283 H   0  0  0  0  0  0  0  0  0  0  0  0
   -2.1616   -0.0736    0.9911 C   0  0  0  0  0  0  0  0  0  0  0  0
   -0.9794    0.6347    1.6388 C   0  0  0  0  0  0  0  0  0  0  0  0
   -3.1015    0.2054    1.4707 H   0  0  0  0  0  0  0  0  0  0  0  0
   -2.0623   -1.1580    1.0649 H   0  0  0  0  0  0  0  0  0  0  0  0
   -2.2430    0.1793   -0.0675 H   0  0  0  0  0  0  0  0  0  0  0  0
   -0.8980    0.3817    2.6974 H   0  0  0  0  0  0  0  0  0  0  0  0
   -1.0787    1.7190    1.5650 H   0  0  0  0  0  0  0  0  0  0  0  0
  1  2  2  3
  1  4  1  0
  1  5  1  0
  2  3  1  0
  2  6  1  0
  3  8  1  0
  3  9  1  0
  7 11  1  0
 10 11  1  0
 10 12  1  0
 10 13  1  0
 10 14  1  0
 11 15  1  0
 11 16  1  0
M  RAD  1   3   2
M  END
>  <reaction>  (13) 
rxn_997

>  <mol_properties>  (13) 
{"1": {"label": "*0", "atom_type": "Cd"}, "2": {"label": "*1", "atom_type": "Cs"}, "6": {"label": "*2", "atom_type": "H0"}, "9": {"label": "*4", "atom_type": "Cs"}, "10": {"label": "*3", "atom_type": "Cs"}}

>  <type>  (13) 
unop_9

>  <geom_source>  (13) 
Heuristics

$$$$

     RDKit          3D

 16 14  0  0  0  0  0  0  0  0999 V2000
    0.8757   -0.5207   -2.4445 C   0  0  0  0  0  0  0  0  0  0  0  0
    0.8757   -0.5207   -1.1208 C   0  0  0  0  0  0  0  0  0  0  0  0
    0.8757    0.7015   -0.2602 C   0  0  0  0  0  3  0  0  0  0  0  0
    0.8757   -1.4434   -3.0110 H   0  0  0  0  0  0  0  0  0  0  0  0
    0.8757    0.4049   -3.0105 H   0  0  0  0  0  0  0  0  0  0  0  0
    0.8757   -1.4734   -0.5972 H   0  0  0  0  0  0  0  0  0  0  0  0
   -0.1775    0.7220    0.5212 H   0  0  0  0  0  0  0  0  0  0  0  0
    0.8757    1.6119   -0.8608 H   0  0  0  0  0  0  0  0  0  0  0  0
    1.7534    0.7186    0.3910 H   0  0  0  0  0  0  0  0  0  0  0  0
   -1.2609   -0.4733    2.2178 C   0  0  0  0  0  0  0  0  0  0  0  0
   -1.2292    0.7425    1.3015 C   0  0  0  0  0  0  0  0  0  0  0  0
   -1.7295   -0.2359    3.1745 H   0  0  0  0  0  0  0  0  0  0  0  0
   -0.2537   -0.8392    2.4250 H   0  0  0  0  0  0  0  0  0  0  0  0
   -1.8242   -1.2931    1.7685 H   0  0  0  0  0  0  0  0  0  0  0  0
   -0.6659    1.5623    1.7508 H   0  0  0  0  0  0  0  0  0  0  0  0
   -2.2364    1.1083    1.0943 H   0  0  0  0  0  0  0  0  0  0  0  0
  1  2  2  3
  1  4  1  0
  1  5  1  0
  2  3  1  0
  2  6  1  0
  3  8  1  0
  3  9  1  0
  7 11  1  0
 10 11  1  0
 10 12  1  0
 10 13  1  0
 10 14  1  0
 11 15  1  0
 11 16  1  0
M  RAD  1   3   2
M  END
>  <reaction>  (14) 
rxn_997

>  <mol_properties>  (14) 
{"1": {"label": "*0", "atom_type": "Cd"}, "2": {"label": "*1", "atom_type": "Cs"}, "6": {"label": "*2", "atom_type": "H0"}, "9": {"label": "*4", "atom_type": "Cs"}, "10": {"label": "*3", "atom_type": "Cs"}}

>  <type>  (14) 
unop_10

>  <geom_source>  (14) 
Heuristics

$$$$

     RDKit          3D

 16 14  0  0  0  0  0  0  0  0999 V2000
    0.9603   -1.0769   -2.3164 C   0  0  0  0  0  0  0  0  0  0  0  0
    0.9603   -1.0769   -0.9926 C   0  0  0  0  0  0  0  0  0  0  0  0
    0.9603    0.1453   -0.1321 C   0  0  0  0  0  3  0  0  0  0  0  0
    0.9603   -1.9996   -2.8829 H   0  0  0  0  0  0  0  0  0  0  0  0
    0.9603   -0.1513   -2.8824 H   0  0  0  0  0  0  0  0  0  0  0  0
    0.9603   -2.0296   -0.4691 H   0  0  0  0  0  0  0  0  0  0  0  0
   -0.0929    0.1658    0.6493 H   0  0  0  0  0  0  0  0  0  0  0  0
    0.9603    1.0557   -0.7327 H   0  0  0  0  0  0  0  0  0  0  0  0
    1.8381    0.1624    0.5191 H   0  0  0  0  0  0  0  0  0  0  0  0
   -1.5754    1.6139    1.7385 C   0  0  0  0  0  0  0  0  0  0  0  0
   -1.1446    0.1863    1.4296 C   0  0  0  0  0  0  0  0  0  0  0  0
   -2.0640    1.6780    2.7124 H   0  0  0  0  0  0  0  0  0  0  0  0
   -2.2785    1.9857    0.9911 H   0  0  0  0  0  0  0  0  0  0  0  0
   -0.7197    2.2912    1.7530 H   0  0  0  0  0  0  0  0  0  0  0  0
   -2.0003   -0.4910    1.4152 H   0  0  0  0  0  0  0  0  0  0  0  0
   -0.4415   -0.1855    2.1771 H   0  0  0  0  0  0  0  0  0  0  0  0
  1  2  2  3
  1  4  1  0
  1  5  1  0
  2  3  1  0
  2  6  1  0
  3  8  1  0
  3  9  1  0
  7 11  1  0
 10 11  1  0
 10 12  1  0
 10 13  1  0
 10 14  1  0
 11 15  1  0
 11 16  1  0
M  RAD  1   3   2
M  END
>  <reaction>  (15) 
rxn_997

>  <mol_properties>  (15) 
{"1": {"label": "*0", "atom_type": "Cd"}, "2": {"label": "*1", "atom_type": "Cs"}, "6": {"label": "*2", "atom_type": "H0"}, "9": {"label": "*4", "atom_type": "Cs"}, "10": {"label": "*3", "atom_type": "Cs"}}

>  <type>  (15) 
unop_11

>  <geom_source>  (15) 
Heuristics

$$$$

     RDKit          3D

 16 14  0  0  0  0  0  0  0  0999 V2000
    1.0602   -0.5158   -2.1993 C   0  0  0  0  0  0  0  0  0  0  0  0
    1.0602   -0.5158   -0.8756 C   0  0  0  0  0  0  0  0  0  0  0  0
    1.0602    0.7064   -0.0151 C   0  0  0  0  0  3  0  0  0  0  0  0
    1.0602   -1.4385   -2.7658 H   0  0  0  0  0  0  0  0  0  0  0  0
    1.0602    0.4098   -2.7653 H   0  0  0  0  0  0  0  0  0  0  0  0
    1.0602   -1.4684   -0.3521 H   0  0  0  0  0  0  0  0  0  0  0  0
    0.0070    0.7269    0.7664 H   0  0  0  0  0  0  0  0  0  0  0  0
    1.0602    1.6169   -0.6157 H   0  0  0  0  0  0  0  0  0  0  0  0
    1.9379    0.7235    0.6362 H   0  0  0  0  0  0  0  0  0  0  0  0
   -1.9221   -0.4770    1.3234 C   0  0  0  0  0  0  0  0  0  0  0  0
   -1.0447    0.7475    1.5467 C   0  0  0  0  0  0  0  0  0  0  0  0
   -2.7985   -0.4599    1.9737 H   0  0  0  0  0  0  0  0  0  0  0  0
   -1.3753   -1.3987    1.5301 H   0  0  0  0  0  0  0  0  0  0  0  0
   -2.2766   -0.5273    0.2924 H   0  0  0  0  0  0  0  0  0  0  0  0
   -0.6902    0.7977    2.5777 H   0  0  0  0  0  0  0  0  0  0  0  0
   -1.5915    1.6692    1.3400 H   0  0  0  0  0  0  0  0  0  0  0  0
  1  2  2  3
  1  4  1  0
  1  5  1  0
  2  3  1  0
  2  6  1  0
  3  8  1  0
  3  9  1  0
  7 11  1  0
 10 11  1  0
 10 12  1  0
 10 13  1  0
 10 14  1  0
 11 15  1  0
 11 16  1  0
M  RAD  1   3   2
M  END
>  <reaction>  (16) 
rxn_997

>  <mol_properties>  (16) 
{"1": {"label": "*0", "atom_type": "Cd"}, "2": {"label": "*1", "atom_type": "Cs"}, "6": {"label": "*2", "atom_type": "H0"}, "9": {"label": "*4", "atom_type": "Cs"}, "10": {"label": "*3", "atom_type": "Cs"}}

>  <type>  (16) 
unop_12

>  <geom_source>  (16) 
Heuristics

$$$$

     RDKit          3D

 16 14  0  0  0  0  0  0  0  0999 V2000
   -1.1229    0.5562    0.2377 C   0  0  0  0  0  0  0  0  0  0  0  0
   -2.5951    0.1878    0.1872 C   0  0  0  0  0  0  0  0  0  0  0  0
    1.9545   -0.3519   -0.6536 C   0  0  0  0  0  0  0  0  0  0  0  0
    0.8376   -1.1396   -0.0476 C   0  0  0  0  0  0  0  0  0  0  0  0
    2.5198    0.6559    0.0126 C   0  0  0  0  0  3  0  0  0  0  0  0
   -0.8902    1.0470    1.2062 H   0  0  0  0  0  0  0  0  0  0  0  0
   -0.8801    1.2533   -0.5918 H   0  0  0  0  0  0  0  0  0  0  0  0
   -0.4160   -0.4935    0.1212 H   0  0  0  0  0  0  0  0  0  0  0  0
   -3.2166    1.1024    0.2887 H   0  0  0  0  0  0  0  0  0  0  0  0
   -2.8351   -0.5105    1.0162 H   0  0  0  0  0  0  0  0  0  0  0  0
   -2.8251   -0.3043   -0.7809 H   0  0  0  0  0  0  0  0  0  0  0  0
    2.3009   -0.5955   -1.6536 H   0  0  0  0  0  0  0  0  0  0  0  0
    1.1935   -1.6635    0.8646 H   0  0  0  0  0  0  0  0  0  0  0  0
    0.4635   -1.8890   -0.7760 H   0  0  0  0  0  0  0  0  0  0  0  0
    2.1857    0.9221    1.0111 H   0  0  0  0  0  0  0  0  0  0  0  0
    3.3256    1.2232   -0.4419 H   0  0  0  0  0  0  0  0  0  0  0  0
  1  2  1  0
  1  6  1  0
  1  7  1  0
  1  8  1  0
  2  9  1  0
  2 10  1  0
  2 11  1  0
  3  4  2  3
  3  5  1  0
  3 12  1  0
  4 13  1  0
  4 14  1  0
  5 15  1  0
  5 16  1  0
M  RAD  1   5   2
M  END
>  <reaction>  (17) 
rxn_997

>  <mol_properties>  (17) 
{"1": {"label": "*0", "atom_type": "Cd"}, "2": {"label": "*1", "atom_type": "Cs"}, "6": {"label": "*2", "atom_type": "H0"}, "9": {"label": "*4", "atom_type": "Cs"}, "10": {"label": "*3", "atom_type": "Cs"}}

>  <type>  (17) 
unop_13

>  <geom_source>  (17) 
AutoTST

$$$$
