
     RDKit          3D

 15 15  0  0  0  0  0  0  0  0999 V2000
    2.2031   -0.2111   -0.1693 C   0  0  0  0  0  0  0  0  0  0  0  0
    0.7140   -0.0314   -0.0623 C   0  0  0  0  0  0  0  0  0  0  0  0
   -0.0114    0.5491   -1.0982 C   0  0  0  0  0  0  0  0  0  0  0  0
   -1.3882    0.6886   -1.0150 C   0  0  0  0  0  0  0  0  0  0  0  0
   -2.0661    0.2493    0.1118 C   0  0  0  0  0  0  0  0  0  0  0  0
   -1.3551   -0.3278    1.1528 C   0  0  0  0  0  0  0  0  0  0  0  0
    0.0216   -0.4648    1.0642 C   0  0  0  0  0  0  0  0  0  0  0  0
    2.6776   -0.1836    0.8122 H   0  0  0  0  0  0  0  0  0  0  0  0
    2.4446   -1.1749   -0.6249 H   0  0  0  0  0  0  0  0  0  0  0  0
    2.6532    0.5664   -0.7875 H   0  0  0  0  0  0  0  0  0  0  0  0
    0.5104    0.8989   -1.9819 H   0  0  0  0  0  0  0  0  0  0  0  0
   -1.9328    1.1452   -1.8322 H   0  0  0  0  0  0  0  0  0  0  0  0
   -3.1409    0.3597    0.1800 H   0  0  0  0  0  0  0  0  0  0  0  0
   -1.8736   -0.6702    2.0398 H   0  0  0  0  0  0  0  0  0  0  0  0
    0.5695   -0.9141    1.8849 H   0  0  0  0  0  0  0  0  0  0  0  0
  1  2  1  0
  1  8  1  0
  1  9  1  0
  1 10  1  0
  2  3  2  0
  2  7  1  0
  3  4  1  0
  3 11  1  0
  4  5  2  0
  4 12  1  0
  5  6  1  0
  5 13  1  0
  6  7  2  0
  6 14  1  0
  7 15  1  0
M  END
>  <reaction>  (1) 
rxn_1453

>  <mol_properties>  (1) 
{"0": {"label": "donator", "atom_type": "Cs"}, "7": {"label": "d_hydrogen", "atom_type": "H0"}}

>  <type>  (1) 
r1h

$$$$

     RDKit          3D

 11 11  0  0  0  0  0  0  0  0999 V2000
    0.1524   -1.5397    0.0698 C   0  0  0  0  0  3  0  0  0  0  0  0
   -1.1218   -1.0406    0.0516 C   0  0  0  0  0  0  0  0  0  0  0  0
   -1.2464    0.3470   -0.0114 C   0  0  0  0  0  0  0  0  0  0  0  0
   -0.1137    1.1487   -0.0521 C   0  0  0  0  0  0  0  0  0  0  0  0
    1.1542    0.5837   -0.0308 C   0  0  0  0  0  0  0  0  0  0  0  0
    1.3041   -0.8014    0.0319 C   0  0  0  0  0  0  0  0  0  0  0  0
   -1.9955   -1.6793    0.0840 H   0  0  0  0  0  0  0  0  0  0  0  0
   -2.2319    0.7966   -0.0284 H   0  0  0  0  0  0  0  0  0  0  0  0
   -0.2203    2.2248   -0.1009 H   0  0  0  0  0  0  0  0  0  0  0  0
    2.0325    1.2173   -0.0630 H   0  0  0  0  0  0  0  0  0  0  0  0
    2.2862   -1.2570    0.0492 H   0  0  0  0  0  0  0  0  0  0  0  0
  1  2  2  0
  1  6  1  0
  2  3  1  0
  2  7  1  0
  3  4  2  0
  3  8  1  0
  4  5  1  0
  4  9  1  0
  5  6  2  0
  5 10  1  0
  6 11  1  0
M  RAD  1   1   2
M  END
>  <reaction>  (2) 
rxn_1453

>  <mol_properties>  (2) 
{"0": {"label": "acceptor", "atom_type": "Cd"}}

>  <type>  (2) 
r2

$$$$

     RDKit          3D

 12 12  0  0  0  0  0  0  0  0999 V2000
   -1.2385    0.6248   -0.0199 C   0  0  0  0  0  0  0  0  0  0  0  0
   -0.0779    1.3848   -0.0298 C   0  0  0  0  0  0  0  0  0  0  0  0
    1.1605    0.7600   -0.0100 C   0  0  0  0  0  0  0  0  0  0  0  0
    1.2385   -0.6248    0.0199 C   0  0  0  0  0  0  0  0  0  0  0  0
    0.0779   -1.3848    0.0298 C   0  0  0  0  0  0  0  0  0  0  0  0
   -1.1606   -0.7600    0.0100 C   0  0  0  0  0  0  0  0  0  0  0  0
   -2.2052    1.1125   -0.0354 H   0  0  0  0  0  0  0  0  0  0  0  0
   -0.1387    2.4657   -0.0531 H   0  0  0  0  0  0  0  0  0  0  0  0
    2.0664    1.3532   -0.0177 H   0  0  0  0  0  0  0  0  0  0  0  0
    2.2052   -1.1125    0.0354 H   0  0  0  0  0  0  0  0  0  0  0  0
    0.1387   -2.4657    0.0531 H   0  0  0  0  0  0  0  0  0  0  0  0
   -2.0664   -1.3532    0.0177 H   0  0  0  0  0  0  0  0  0  0  0  0
  1  2  2  0
  1  6  1  0
  1  7  1  0
  2  3  1  0
  2  8  1  0
  3  4  2  0
  3  9  1  0
  4  5  1  0
  4 10  1  0
  5  6  2  0
  5 11  1  0
  6 12  1  0
M  END
>  <reaction>  (3) 
rxn_1453

>  <mol_properties>  (3) 
{"0": {"label": "acceptor", "atom_type": "Cd"}, "11": {"label": "a_hydrogen", "atom_type": "H0"}}

>  <type>  (3) 
r2h

$$$$

     RDKit          3D

 26 26  0  0  0  0  0  0  0  0999 V2000
    0.2541   -0.6232    1.6423 C   0  0  0  0  0  3  0  0  0  0  0  0
   -0.8740   -0.9393    0.9221 C   0  0  0  0  0  0  0  0  0  0  0  0
   -1.8037   -1.7936    1.5075 C   0  0  0  0  0  0  0  0  0  0  0  0
   -1.5779   -2.2989    2.7806 C   0  0  0  0  0  0  0  0  0  0  0  0
   -0.4275   -1.9584    3.4791 C   0  0  0  0  0  0  0  0  0  0  0  0
    0.5101   -1.1051    2.9051 C   0  0  0  0  0  0  0  0  0  0  0  0
   -1.0340   -0.5353   -0.0713 H   0  0  0  0  0  0  0  0  0  0  0  0
   -2.7036   -2.0633    0.9680 H   0  0  0  0  0  0  0  0  0  0  0  0
   -2.3039   -2.9632    3.2322 H   0  0  0  0  0  0  0  0  0  0  0  0
   -0.2582   -2.3568    4.4724 H   0  0  0  0  0  0  0  0  0  0  0  0
    1.4110   -0.8334    3.4421 H   0  0  0  0  0  0  0  0  0  0  0  0
    1.8504    1.0472    0.2331 C   0  0  0  0  0  0  0  0  0  0  0  0
    1.0834    1.2159   -1.0183 C   0  0  0  0  0  0  0  0  0  0  0  0
    0.1151    2.2139   -1.1350 C   0  0  0  0  0  0  0  0  0  0  0  0
   -0.6600    2.3244   -2.2774 C   0  0  0  0  0  0  0  0  0  0  0  0
   -0.4846    1.4359   -3.3286 C   0  0  0  0  0  0  0  0  0  0  0  0
    0.4748    0.4387   -3.2272 C   0  0  0  0  0  0  0  0  0  0  0  0
    1.2487    0.3301   -2.0838 C   0  0  0  0  0  0  0  0  0  0  0  0
    1.1922    0.2890    0.9519 H   0  0  0  0  0  0  0  0  0  0  0  0
    2.8063    0.5417    0.1081 H   0  0  0  0  0  0  0  0  0  0  0  0
    1.9544    1.9573    0.8210 H   0  0  0  0  0  0  0  0  0  0  0  0
   -0.0320    2.9077   -0.3153 H   0  0  0  0  0  0  0  0  0  0  0  0
   -1.4045    3.1076   -2.3481 H   0  0  0  0  0  0  0  0  0  0  0  0
   -1.0898    1.5218   -4.2221 H   0  0  0  0  0  0  0  0  0  0  0  0
    0.6208   -0.2580   -4.0432 H   0  0  0  0  0  0  0  0  0  0  0  0
    1.9919   -0.4554   -2.0092 H   0  0  0  0  0  0  0  0  0  0  0  0
  1  2  2  0
  1  6  1  0
  2  3  1  0
  2  7  1  0
  3  4  2  0
  3  8  1  0
  4  5  1  0
  4  9  1  0
  5  6  2  0
  5 10  1  0
  6 11  1  0
 12 13  1  0
 12 19  1  0
 12 20  1  0
 12 21  1  0
 13 14  2  0
 13 18  1  0
 14 15  1  0
 14 22  1  0
 15 16  2  0
 15 23  1  0
 16 17  1  0
 16 24  1  0
 17 18  2  0
 17 25  1  0
 18 26  1  0
M  RAD  1   1   2
M  END
>  <reaction>  (4) 
rxn_1453

>  <mol_properties>  (4) 
{"0": {"label": "*3", "atom_type": "Cd"}, "1": {"label": "*4", "atom_type": "Cd"}, "11": {"label": "*1", "atom_type": "Cs"}, "12": {"label": "*0", "atom_type": "Cd"}, "18": {"label": "*2", "atom_type": "H0"}}

>  <type>  (4) 
ts

$$$$

     RDKit          3D

 26 26  0  0  0  0  0  0  0  0999 V2000
   -0.3808   -0.9265    1.3090 C   0  0  0  0  0  0  0  0  0  0  0  0
    0.3228   -1.8042    2.1209 C   0  0  0  0  0  0  0  0  0  0  0  0
   -0.2609   -2.2975    3.2787 C   0  0  0  0  0  0  0  0  0  0  0  0
   -1.5483   -1.9132    3.6246 C   0  0  0  0  0  0  0  0  0  0  0  0
   -2.2519   -1.0355    2.8127 C   0  0  0  0  0  0  0  0  0  0  0  0
   -1.6682   -0.5422    1.6549 C   0  0  0  0  0  0  0  0  0  0  0  0
    1.3277   -2.1042    1.8510 H   0  0  0  0  0  0  0  0  0  0  0  0
    0.2883   -2.9826    3.9124 H   0  0  0  0  0  0  0  0  0  0  0  0
   -2.0039   -2.2983    4.5283 H   0  0  0  0  0  0  0  0  0  0  0  0
   -3.2567   -0.7355    3.0826 H   0  0  0  0  0  0  0  0  0  0  0  0
   -2.2174    0.1429    1.0211 H   0  0  0  0  0  0  0  0  0  0  0  0
    0.7948    1.1994    0.3602 C   0  0  0  0  0  0  0  0  0  0  0  0
    0.7948    1.1994   -1.1435 C   0  0  0  0  0  0  0  0  0  0  0  0
    0.7948    2.3938   -1.8575 C   0  0  0  0  0  3  0  0  0  0  0  0
    0.8252    2.3971   -3.2435 C   0  0  0  0  0  0  0  0  0  0  0  0
    0.8548    1.2001   -3.9425 C   0  0  0  0  0  0  0  0  0  0  0  0
    0.8517    0.0027   -3.2435 C   0  0  0  0  0  0  0  0  0  0  0  0
    0.8211    0.0054   -1.8575 C   0  0  0  0  0  0  0  0  0  0  0  0
    0.2049    0.1327    0.8363 H   0  0  0  0  0  0  0  0  0  0  0  0
    1.8170    1.2107    0.7470 H   0  0  0  0  0  0  0  0  0  0  0  0
    0.2838    2.0773    0.7570 H   0  0  0  0  0  0  0  0  0  0  0  0
    0.7682    3.3349   -1.3197 H   0  0  0  0  0  0  0  0  0  0  0  0
    0.8226    3.3383   -3.7792 H   0  0  0  0  0  0  0  0  0  0  0  0
    0.8759    1.2003   -5.0249 H   0  0  0  0  0  0  0  0  0  0  0  0
    0.8698   -0.9383   -3.7792 H   0  0  0  0  0  0  0  0  0  0  0  0
    0.8153   -0.9360   -1.3197 H   0  0  0  0  0  0  0  0  0  0  0  0
  1  2  2  0
  1  6  1  0
  1 19  1  0
  2  3  1  0
  2  7  1  0
  3  4  2  0
  3  8  1  0
  4  5  1  0
  4  9  1  0
  5  6  2  0
  5 10  1  0
  6 11  1  0
 12 13  2  3
 12 20  1  0
 12 21  1  0
 13 14  1  0
 13 18  1  0
 14 15  1  0
 14 22  1  0
 15 16  2  0
 15 23  1  0
 16 17  1  0
 16 24  1  0
 17 18  2  0
 17 25  1  0
 18 26  1  0
M  RAD  1  14   2
M  END
>  <reaction>  (5) 
rxn_1453

>  <mol_properties>  (5) 
{"0": {"label": "*3", "atom_type": "Cd"}, "1": {"label": "*4", "atom_type": "Cd"}, "11": {"label": "*1", "atom_type": "Cs"}, "12": {"label": "*0", "atom_type": "Cd"}, "18": {"label": "*2", "atom_type": "H0"}}

>  <type>  (5) 
unop_1

>  <geom_source>  (5) 
Heuristics

$$$$

     RDKit          3D

 26 26  0  0  0  0  0  0  0  0999 V2000
   -0.5204   -0.5968    1.5530 C   0  0  0  0  0  0  0  0  0  0  0  0
   -0.4906   -1.7842    0.8362 C   0  0  0  0  0  0  0  0  0  0  0  0
   -0.7748   -2.9847    1.4706 C   0  0  0  0  0  0  0  0  0  0  0  0
   -1.0889   -2.9979    2.8218 C   0  0  0  0  0  0  0  0  0  0  0  0
   -1.1188   -1.8106    3.5386 C   0  0  0  0  0  0  0  0  0  0  0  0
   -0.8345   -0.6100    2.9042 C   0  0  0  0  0  0  0  0  0  0  0  0
   -0.2454   -1.7739   -0.2185 H   0  0  0  0  0  0  0  0  0  0  0  0
   -0.7515   -3.9115    0.9111 H   0  0  0  0  0  0  0  0  0  0  0  0
   -1.3108   -3.9350    3.3170 H   0  0  0  0  0  0  0  0  0  0  0  0
   -1.3639   -1.8209    4.5933 H   0  0  0  0  0  0  0  0  0  0  0  0
   -0.8578    0.3168    3.4638 H   0  0  0  0  0  0  0  0  0  0  0  0
    0.6552    1.5291    0.6042 C   0  0  0  0  0  0  0  0  0  0  0  0
    0.6552    1.5291   -0.8995 C   0  0  0  0  0  0  0  0  0  0  0  0
    0.6552    2.7235   -1.6135 C   0  0  0  0  0  3  0  0  0  0  0  0
    0.6856    2.7268   -2.9995 C   0  0  0  0  0  0  0  0  0  0  0  0
    0.7152    1.5298   -3.6985 C   0  0  0  0  0  0  0  0  0  0  0  0
    0.7120    0.3324   -2.9995 C   0  0  0  0  0  0  0  0  0  0  0  0
    0.6815    0.3351   -1.6135 C   0  0  0  0  0  0  0  0  0  0  0  0
    0.0653    0.4624    1.0803 H   0  0  0  0  0  0  0  0  0  0  0  0
    1.6774    1.5404    0.9910 H   0  0  0  0  0  0  0  0  0  0  0  0
    0.1442    2.4070    1.0010 H   0  0  0  0  0  0  0  0  0  0  0  0
    0.6286    3.6646   -1.0757 H   0  0  0  0  0  0  0  0  0  0  0  0
    0.6830    3.6680   -3.5352 H   0  0  0  0  0  0  0  0  0  0  0  0
    0.7363    1.5300   -4.7809 H   0  0  0  0  0  0  0  0  0  0  0  0
    0.7301   -0.6086   -3.5352 H   0  0  0  0  0  0  0  0  0  0  0  0
    0.6757   -0.6064   -1.0757 H   0  0  0  0  0  0  0  0  0  0  0  0
  1  2  2  0
  1  6  1  0
  1 19  1  0
  2  3  1  0
  2  7  1  0
  3  4  2  0
  3  8  1  0
  4  5  1  0
  4  9  1  0
  5  6  2  0
  5 10  1  0
  6 11  1  0
 12 13  2  3
 12 20  1  0
 12 21  1  0
 13 14  1  0
 13 18  1  0
 14 15  1  0
 14 22  1  0
 15 16  2  0
 15 23  1  0
 16 17  1  0
 16 24  1  0
 17 18  2  0
 17 25  1  0
 18 26  1  0
M  RAD  1  14   2
M  END
>  <reaction>  (6) 
rxn_1453

>  <mol_properties>  (6) 
{"0": {"label": "*3", "atom_type": "Cd"}, "1": {"label": "*4", "atom_type": "Cd"}, "11": {"label": "*1", "atom_type": "Cs"}, "12": {"label": "*0", "atom_type": "Cd"}, "18": {"label": "*2", "atom_type": "H0"}}

>  <type>  (6) 
unop_2

>  <geom_source>  (6) 
Heuristics

$$$$

     RDKit          3D

 26 26  0  0  0  0  0  0  0  0999 V2000
   -0.2144   -0.8956    1.4514 C   0  0  0  0  0  0  0  0  0  0  0  0
    0.1818   -1.4204    2.6729 C   0  0  0  0  0  0  0  0  0  0  0  0
   -0.7589   -1.9801    3.5253 C   0  0  0  0  0  0  0  0  0  0  0  0
   -2.0957   -2.0150    3.1562 C   0  0  0  0  0  0  0  0  0  0  0  0
   -2.4919   -1.4901    1.9346 C   0  0  0  0  0  0  0  0  0  0  0  0
   -1.5512   -0.9304    1.0822 C   0  0  0  0  0  0  0  0  0  0  0  0
    1.2252   -1.3933    2.9611 H   0  0  0  0  0  0  0  0  0  0  0  0
   -0.4496   -2.3898    4.4788 H   0  0  0  0  0  0  0  0  0  0  0  0
   -2.8299   -2.4518    3.8215 H   0  0  0  0  0  0  0  0  0  0  0  0
   -3.5353   -1.5173    1.6465 H   0  0  0  0  0  0  0  0  0  0  0  0
   -1.8605   -0.5207    0.1288 H   0  0  0  0  0  0  0  0  0  0  0  0
    0.9612    1.2304    0.5026 C   0  0  0  0  0  0  0  0  0  0  0  0
    0.9612    1.2304   -1.0011 C   0  0  0  0  0  0  0  0  0  0  0  0
    0.9612    2.4247   -1.7152 C   0  0  0  0  0  3  0  0  0  0  0  0
    0.9916    2.4280   -3.1012 C   0  0  0  0  0  0  0  0  0  0  0  0
    1.0212    1.2310   -3.8002 C   0  0  0  0  0  0  0  0  0  0  0  0
    1.0180    0.0337   -3.1012 C   0  0  0  0  0  0  0  0  0  0  0  0
    0.9875    0.0363   -1.7152 C   0  0  0  0  0  0  0  0  0  0  0  0
    0.3713    0.1636    0.9787 H   0  0  0  0  0  0  0  0  0  0  0  0
    1.9834    1.2416    0.8894 H   0  0  0  0  0  0  0  0  0  0  0  0
    0.4502    2.1083    0.8993 H   0  0  0  0  0  0  0  0  0  0  0  0
    0.9346    3.3658   -1.1773 H   0  0  0  0  0  0  0  0  0  0  0  0
    0.9890    3.3692   -3.6369 H   0  0  0  0  0  0  0  0  0  0  0  0
    1.0423    1.2313   -4.8825 H   0  0  0  0  0  0  0  0  0  0  0  0
    1.0361   -0.9074   -3.6369 H   0  0  0  0  0  0  0  0  0  0  0  0
    0.9817   -0.9051   -1.1773 H   0  0  0  0  0  0  0  0  0  0  0  0
  1  2  2  0
  1  6  1  0
  1 19  1  0
  2  3  1  0
  2  7  1  0
  3  4  2  0
  3  8  1  0
  4  5  1  0
  4  9  1  0
  5  6  2  0
  5 10  1  0
  6 11  1  0
 12 13  2  3
 12 20  1  0
 12 21  1  0
 13 14  1  0
 13 18  1  0
 14 15  1  0
 14 22  1  0
 15 16  2  0
 15 23  1  0
 16 17  1  0
 16 24  1  0
 17 18  2  0
 17 25  1  0
 18 26  1  0
M  RAD  1  14   2
M  END
>  <reaction>  (7) 
rxn_1453

>  <mol_properties>  (7) 
{"0": {"label": "*3", "atom_type": "Cd"}, "1": {"label": "*4", "atom_type": "Cd"}, "11": {"label": "*1", "atom_type": "Cs"}, "12": {"label": "*0", "atom_type": "Cd"}, "18": {"label": "*2", "atom_type": "H0"}}

>  <type>  (7) 
unop_3

>  <geom_source>  (7) 
Heuristics

$$$$

     RDKit          3D

 26 26  0  0  0  0  0  0  0  0999 V2000
   -0.2735   -0.8558    1.4199 C   0  0  0  0  0  0  0  0  0  0  0  0
   -1.6025   -1.1090    1.1127 C   0  0  0  0  0  0  0  0  0  0  0  0
   -2.4163   -1.7540    2.0326 C   0  0  0  0  0  0  0  0  0  0  0  0
   -1.9013   -2.1458    3.2597 C   0  0  0  0  0  0  0  0  0  0  0  0
   -0.5723   -1.8926    3.5669 C   0  0  0  0  0  0  0  0  0  0  0  0
    0.2416   -1.2476    2.6470 C   0  0  0  0  0  0  0  0  0  0  0  0
   -2.0045   -0.8031    0.1549 H   0  0  0  0  0  0  0  0  0  0  0  0
   -3.4536   -1.9516    1.7928 H   0  0  0  0  0  0  0  0  0  0  0  0
   -2.5365   -2.6493    3.9777 H   0  0  0  0  0  0  0  0  0  0  0  0
   -0.1702   -2.1985    4.5247 H   0  0  0  0  0  0  0  0  0  0  0  0
    1.2789   -1.0500    2.8868 H   0  0  0  0  0  0  0  0  0  0  0  0
    0.9021    1.2701    0.4712 C   0  0  0  0  0  0  0  0  0  0  0  0
    0.9021    1.2701   -1.0326 C   0  0  0  0  0  0  0  0  0  0  0  0
    0.9021    2.4645   -1.7466 C   0  0  0  0  0  3  0  0  0  0  0  0
    0.9325    2.4678   -3.1326 C   0  0  0  0  0  0  0  0  0  0  0  0
    0.9621    1.2708   -3.8316 C   0  0  0  0  0  0  0  0  0  0  0  0
    0.9589    0.0734   -3.1326 C   0  0  0  0  0  0  0  0  0  0  0  0
    0.9284    0.0761   -1.7466 C   0  0  0  0  0  0  0  0  0  0  0  0
    0.3122    0.2034    0.9472 H   0  0  0  0  0  0  0  0  0  0  0  0
    1.9243    1.2814    0.8579 H   0  0  0  0  0  0  0  0  0  0  0  0
    0.3911    2.1480    0.8679 H   0  0  0  0  0  0  0  0  0  0  0  0
    0.8755    3.4056   -1.2088 H   0  0  0  0  0  0  0  0  0  0  0  0
    0.9299    3.4090   -3.6683 H   0  0  0  0  0  0  0  0  0  0  0  0
    0.9832    1.2710   -4.9140 H   0  0  0  0  0  0  0  0  0  0  0  0
    0.9771   -0.8676   -3.6683 H   0  0  0  0  0  0  0  0  0  0  0  0
    0.9226   -0.8654   -1.2088 H   0  0  0  0  0  0  0  0  0  0  0  0
  1  2  2  0
  1  6  1  0
  1 19  1  0
  2  3  1  0
  2  7  1  0
  3  4  2  0
  3  8  1  0
  4  5  1  0
  4  9  1  0
  5  6  2  0
  5 10  1  0
  6 11  1  0
 12 13  2  3
 12 20  1  0
 12 21  1  0
 13 14  1  0
 13 18  1  0
 14 15  1  0
 14 22  1  0
 15 16  2  0
 15 23  1  0
 16 17  1  0
 16 24  1  0
 17 18  2  0
 17 25  1  0
 18 26  1  0
M  RAD  1  14   2
M  END
>  <reaction>  (8) 
rxn_1453

>  <mol_properties>  (8) 
{"0": {"label": "*3", "atom_type": "Cd"}, "1": {"label": "*4", "atom_type": "Cd"}, "11": {"label": "*1", "atom_type": "Cs"}, "12": {"label": "*0", "atom_type": "Cd"}, "18": {"label": "*2", "atom_type": "H0"}}

>  <type>  (8) 
unop_4

>  <geom_source>  (8) 
Heuristics

$$$$

     RDKit          3D

 26 26  0  0  0  0  0  0  0  0999 V2000
   -0.3614   -0.6293    1.6135 C   0  0  0  0  0  0  0  0  0  0  0  0
   -0.4626   -0.8122    2.9850 C   0  0  0  0  0  0  0  0  0  0  0  0
   -1.0879   -1.9431    3.4896 C   0  0  0  0  0  0  0  0  0  0  0  0
   -1.6121   -2.8910    2.6229 C   0  0  0  0  0  0  0  0  0  0  0  0
   -1.5109   -2.7081    1.2514 C   0  0  0  0  0  0  0  0  0  0  0  0
   -0.8856   -1.5772    0.7467 C   0  0  0  0  0  0  0  0  0  0  0  0
   -0.0534   -0.0723    3.6615 H   0  0  0  0  0  0  0  0  0  0  0  0
   -1.1669   -2.0859    4.5601 H   0  0  0  0  0  0  0  0  0  0  0  0
   -2.1002   -3.7737    3.0168 H   0  0  0  0  0  0  0  0  0  0  0  0
   -1.9201   -3.4479    0.5749 H   0  0  0  0  0  0  0  0  0  0  0  0
   -0.8066   -1.4344   -0.3238 H   0  0  0  0  0  0  0  0  0  0  0  0
    0.8142    1.4966    0.6647 C   0  0  0  0  0  0  0  0  0  0  0  0
    0.8142    1.4966   -0.8390 C   0  0  0  0  0  0  0  0  0  0  0  0
    0.8142    2.6910   -1.5531 C   0  0  0  0  0  3  0  0  0  0  0  0
    0.8446    2.6943   -2.9391 C   0  0  0  0  0  0  0  0  0  0  0  0
    0.8742    1.4973   -3.6381 C   0  0  0  0  0  0  0  0  0  0  0  0
    0.8711    0.2999   -2.9391 C   0  0  0  0  0  0  0  0  0  0  0  0
    0.8405    0.3026   -1.5531 C   0  0  0  0  0  0  0  0  0  0  0  0
    0.2243    0.4299    1.1408 H   0  0  0  0  0  0  0  0  0  0  0  0
    1.8364    1.5079    1.0515 H   0  0  0  0  0  0  0  0  0  0  0  0
    0.3032    2.3745    1.0614 H   0  0  0  0  0  0  0  0  0  0  0  0
    0.7876    3.6321   -1.0153 H   0  0  0  0  0  0  0  0  0  0  0  0
    0.8420    3.6355   -3.4748 H   0  0  0  0  0  0  0  0  0  0  0  0
    0.8953    1.4975   -4.7205 H   0  0  0  0  0  0  0  0  0  0  0  0
    0.8892   -0.6411   -3.4748 H   0  0  0  0  0  0  0  0  0  0  0  0
    0.8347   -0.6389   -1.0153 H   0  0  0  0  0  0  0  0  0  0  0  0
  1  2  2  0
  1  6  1  0
  1 19  1  0
  2  3  1  0
  2  7  1  0
  3  4  2  0
  3  8  1  0
  4  5  1  0
  4  9  1  0
  5  6  2  0
  5 10  1  0
  6 11  1  0
 12 13  2  3
 12 20  1  0
 12 21  1  0
 13 14  1  0
 13 18  1  0
 14 15  1  0
 14 22  1  0
 15 16  2  0
 15 23  1  0
 16 17  1  0
 16 24  1  0
 17 18  2  0
 17 25  1  0
 18 26  1  0
M  RAD  1  14   2
M  END
>  <reaction>  (9) 
rxn_1453

>  <mol_properties>  (9) 
{"0": {"label": "*3", "atom_type": "Cd"}, "1": {"label": "*4", "atom_type": "Cd"}, "11": {"label": "*1", "atom_type": "Cs"}, "12": {"label": "*0", "atom_type": "Cd"}, "18": {"label": "*2", "atom_type": "H0"}}

>  <type>  (9) 
unop_5

>  <geom_source>  (9) 
Heuristics

$$$$

     RDKit          3D

 26 26  0  0  0  0  0  0  0  0999 V2000
   -0.4202   -0.8818    1.3115 C   0  0  0  0  0  0  0  0  0  0  0  0
   -1.7843   -0.8658    1.5638 C   0  0  0  0  0  0  0  0  0  0  0  0
   -2.2834   -1.4551    2.7163 C   0  0  0  0  0  0  0  0  0  0  0  0
   -1.4185   -2.0603    3.6165 C   0  0  0  0  0  0  0  0  0  0  0  0
   -0.0545   -2.0762    3.3641 C   0  0  0  0  0  0  0  0  0  0  0  0
    0.4447   -1.4870    2.2116 C   0  0  0  0  0  0  0  0  0  0  0  0
   -2.4594   -0.3934    0.8612 H   0  0  0  0  0  0  0  0  0  0  0  0
   -3.3481   -1.4426    2.9133 H   0  0  0  0  0  0  0  0  0  0  0  0
   -1.8082   -2.5202    4.5161 H   0  0  0  0  0  0  0  0  0  0  0  0
    0.6206   -2.5486    4.0667 H   0  0  0  0  0  0  0  0  0  0  0  0
    1.5094   -1.4995    2.0146 H   0  0  0  0  0  0  0  0  0  0  0  0
    0.7554    1.2441    0.3627 C   0  0  0  0  0  0  0  0  0  0  0  0
    0.7554    1.2441   -1.1410 C   0  0  0  0  0  0  0  0  0  0  0  0
    0.7554    2.4385   -1.8551 C   0  0  0  0  0  3  0  0  0  0  0  0
    0.7858    2.4418   -3.2411 C   0  0  0  0  0  0  0  0  0  0  0  0
    0.8154    1.2448   -3.9401 C   0  0  0  0  0  0  0  0  0  0  0  0
    0.8122    0.0474   -3.2411 C   0  0  0  0  0  0  0  0  0  0  0  0
    0.7817    0.0501   -1.8551 C   0  0  0  0  0  0  0  0  0  0  0  0
    0.1655    0.1774    0.8388 H   0  0  0  0  0  0  0  0  0  0  0  0
    1.7776    1.2554    0.7495 H   0  0  0  0  0  0  0  0  0  0  0  0
    0.2443    2.1220    0.7594 H   0  0  0  0  0  0  0  0  0  0  0  0
    0.7288    3.3796   -1.3173 H   0  0  0  0  0  0  0  0  0  0  0  0
    0.7832    3.3830   -3.7768 H   0  0  0  0  0  0  0  0  0  0  0  0
    0.8365    1.2450   -5.0225 H   0  0  0  0  0  0  0  0  0  0  0  0
    0.8303   -0.8936   -3.7768 H   0  0  0  0  0  0  0  0  0  0  0  0
    0.7759   -0.8913   -1.3173 H   0  0  0  0  0  0  0  0  0  0  0  0
  1  2  2  0
  1  6  1  0
  1 19  1  0
  2  3  1  0
  2  7  1  0
  3  4  2  0
  3  8  1  0
  4  5  1  0
  4  9  1  0
  5  6  2  0
  5 10  1  0
  6 11  1  0
 12 13  2  3
 12 20  1  0
 12 21  1  0
 13 14  1  0
 13 18  1  0
 14 15  1  0
 14 22  1  0
 15 16  2  0
 15 23  1  0
 16 17  1  0
 16 24  1  0
 17 18  2  0
 17 25  1  0
 18 26  1  0
M  RAD  1  14   2
M  END
>  <reaction>  (10) 
rxn_1453

>  <mol_properties>  (10) 
{"0": {"label": "*3", "atom_type": "Cd"}, "1": {"label": "*4", "atom_type": "Cd"}, "11": {"label": "*1", "atom_type": "Cs"}, "12": {"label": "*0", "atom_type": "Cd"}, "18": {"label": "*2", "atom_type": "H0"}}

>  <type>  (10) 
unop_6

>  <geom_source>  (10) 
Heuristics

$$$$

     RDKit          3D

 26 26  0  0  0  0  0  0  0  0999 V2000
   -0.6028   -0.8037    1.3090 C   0  0  0  0  0  0  0  0  0  0  0  0
   -1.7203   -0.6744    2.1209 C   0  0  0  0  0  0  0  0  0  0  0  0
   -1.8278   -1.4311    3.2787 C   0  0  0  0  0  0  0  0  0  0  0  0
   -0.8179   -2.3171    3.6246 C   0  0  0  0  0  0  0  0  0  0  0  0
    0.2996   -2.4464    2.8127 C   0  0  0  0  0  0  0  0  0  0  0  0
    0.4071   -1.6898    1.6549 C   0  0  0  0  0  0  0  0  0  0  0  0
   -2.5086    0.0172    1.8510 H   0  0  0  0  0  0  0  0  0  0  0  0
   -2.7000   -1.3301    3.9124 H   0  0  0  0  0  0  0  0  0  0  0  0
   -0.9018   -2.9078    4.5283 H   0  0  0  0  0  0  0  0  0  0  0  0
    1.0879   -3.1380    3.0826 H   0  0  0  0  0  0  0  0  0  0  0  0
    1.2793   -1.7907    1.0211 H   0  0  0  0  0  0  0  0  0  0  0  0
    0.5728    1.3222    0.3602 C   0  0  0  0  0  0  0  0  0  0  0  0
    0.5728    1.3222   -1.1435 C   0  0  0  0  0  0  0  0  0  0  0  0
    0.5728    2.5165   -1.8575 C   0  0  0  0  0  3  0  0  0  0  0  0
    0.6032    2.5199   -3.2435 C   0  0  0  0  0  0  0  0  0  0  0  0
    0.6328    1.3229   -3.9425 C   0  0  0  0  0  0  0  0  0  0  0  0
    0.6297    0.1255   -3.2435 C   0  0  0  0  0  0  0  0  0  0  0  0
    0.5991    0.1282   -1.8575 C   0  0  0  0  0  0  0  0  0  0  0  0
   -0.0171    0.2555    0.8363 H   0  0  0  0  0  0  0  0  0  0  0  0
    1.5950    1.3335    0.7470 H   0  0  0  0  0  0  0  0  0  0  0  0
    0.0618    2.2001    0.7570 H   0  0  0  0  0  0  0  0  0  0  0  0
    0.5462    3.4576   -1.3197 H   0  0  0  0  0  0  0  0  0  0  0  0
    0.6006    3.4611   -3.7792 H   0  0  0  0  0  0  0  0  0  0  0  0
    0.6539    1.3231   -5.0249 H   0  0  0  0  0  0  0  0  0  0  0  0
    0.6478   -0.8155   -3.7792 H   0  0  0  0  0  0  0  0  0  0  0  0
    0.5933   -0.8133   -1.3197 H   0  0  0  0  0  0  0  0  0  0  0  0
  1  2  2  0
  1  6  1  0
  1 19  1  0
  2  3  1  0
  2  7  1  0
  3  4  2  0
  3  8  1  0
  4  5  1  0
  4  9  1  0
  5  6  2  0
  5 10  1  0
  6 11  1  0
 12 13  2  3
 12 20  1  0
 12 21  1  0
 13 14  1  0
 13 18  1  0
 14 15  1  0
 14 22  1  0
 15 16  2  0
 15 23  1  0
 16 17  1  0
 16 24  1  0
 17 18  2  0
 17 25  1  0
 18 26  1  0
M  RAD  1  14   2
M  END
>  <reaction>  (11) 
rxn_1453

>  <mol_properties>  (11) 
{"0": {"label": "*3", "atom_type": "Cd"}, "1": {"label": "*4", "atom_type": "Cd"}, "11": {"label": "*1", "atom_type": "Cs"}, "12": {"label": "*0", "atom_type": "Cd"}, "18": {"label": "*2", "atom_type": "H0"}}

>  <type>  (11) 
unop_7

>  <geom_source>  (11) 
Heuristics

$$$$

     RDKit          3D

 26 26  0  0  0  0  0  0  0  0999 V2000
   -0.5440   -0.8134    1.3115 C   0  0  0  0  0  0  0  0  0  0  0  0
    0.1947   -1.9602    1.5638 C   0  0  0  0  0  0  0  0  0  0  0  0
   -0.0390   -2.6962    2.7163 C   0  0  0  0  0  0  0  0  0  0  0  0
   -1.0114   -2.2854    3.6165 C   0  0  0  0  0  0  0  0  0  0  0  0
   -1.7501   -1.1386    3.3641 C   0  0  0  0  0  0  0  0  0  0  0  0
   -1.5164   -0.4026    2.2116 C   0  0  0  0  0  0  0  0  0  0  0  0
    0.9538   -2.2808    0.8612 H   0  0  0  0  0  0  0  0  0  0  0  0
    0.5376   -3.5913    2.9133 H   0  0  0  0  0  0  0  0  0  0  0  0
   -1.1938   -2.8599    4.5161 H   0  0  0  0  0  0  0  0  0  0  0  0
   -2.5091   -0.8180    4.0667 H   0  0  0  0  0  0  0  0  0  0  0  0
   -2.0930    0.4926    2.0146 H   0  0  0  0  0  0  0  0  0  0  0  0
    0.6316    1.3126    0.3627 C   0  0  0  0  0  0  0  0  0  0  0  0
    0.6316    1.3126   -1.1410 C   0  0  0  0  0  0  0  0  0  0  0  0
    0.6316    2.5069   -1.8551 C   0  0  0  0  0  3  0  0  0  0  0  0
    0.6621    2.5102   -3.2411 C   0  0  0  0  0  0  0  0  0  0  0  0
    0.6916    1.3132   -3.9401 C   0  0  0  0  0  0  0  0  0  0  0  0
    0.6885    0.1159   -3.2411 C   0  0  0  0  0  0  0  0  0  0  0  0
    0.6580    0.1185   -1.8551 C   0  0  0  0  0  0  0  0  0  0  0  0
    0.0417    0.2458    0.8388 H   0  0  0  0  0  0  0  0  0  0  0  0
    1.6538    1.3238    0.7495 H   0  0  0  0  0  0  0  0  0  0  0  0
    0.1206    2.1905    0.7594 H   0  0  0  0  0  0  0  0  0  0  0  0
    0.6050    3.4480   -1.3173 H   0  0  0  0  0  0  0  0  0  0  0  0
    0.6594    3.4515   -3.7768 H   0  0  0  0  0  0  0  0  0  0  0  0
    0.7128    1.3135   -5.0225 H   0  0  0  0  0  0  0  0  0  0  0  0
    0.7066   -0.8252   -3.7768 H   0  0  0  0  0  0  0  0  0  0  0  0
    0.6521   -0.8229   -1.3173 H   0  0  0  0  0  0  0  0  0  0  0  0
  1  2  2  0
  1  6  1  0
  1 19  1  0
  2  3  1  0
  2  7  1  0
  3  4  2  0
  3  8  1  0
  4  5  1  0
  4  9  1  0
  5  6  2  0
  5 10  1  0
  6 11  1  0
 12 13  2  3
 12 20  1  0
 12 21  1  0
 13 14  1  0
 13 18  1  0
 14 15  1  0
 14 22  1  0
 15 16  2  0
 15 23  1  0
 16 17  1  0
 16 24  1  0
 17 18  2  0
 17 25  1  0
 18 26  1  0
M  RAD  1  14   2
M  END
>  <reaction>  (12) 
rxn_1453

>  <mol_properties>  (12) 
{"0": {"label": "*3", "atom_type": "Cd"}, "1": {"label": "*4", "atom_type": "Cd"}, "11": {"label": "*1", "atom_type": "Cs"}, "12": {"label": "*0", "atom_type": "Cd"}, "18": {"label": "*2", "atom_type": "H0"}}

>  <type>  (12) 
unop_8

>  <geom_source>  (12) 
Heuristics

$$$$

     RDKit          3D

 26 26  0  0  0  0  0  0  0  0999 V2000
   -0.2493   -0.7467    1.5530 C   0  0  0  0  0  0  0  0  0  0  0  0
   -1.2709   -1.3527    0.8362 C   0  0  0  0  0  0  0  0  0  0  0  0
   -2.1366   -2.2317    1.4706 C   0  0  0  0  0  0  0  0  0  0  0  0
   -1.9808   -2.5047    2.8218 C   0  0  0  0  0  0  0  0  0  0  0  0
   -0.9593   -1.8988    3.5386 C   0  0  0  0  0  0  0  0  0  0  0  0
   -0.0935   -1.0197    2.9042 C   0  0  0  0  0  0  0  0  0  0  0  0
   -1.3925   -1.1395   -0.2185 H   0  0  0  0  0  0  0  0  0  0  0  0
   -2.9340   -2.7047    0.9111 H   0  0  0  0  0  0  0  0  0  0  0  0
   -2.6566   -3.1909    3.3170 H   0  0  0  0  0  0  0  0  0  0  0  0
   -0.8376   -2.1119    4.5933 H   0  0  0  0  0  0  0  0  0  0  0  0
    0.7038   -0.5468    3.4638 H   0  0  0  0  0  0  0  0  0  0  0  0
    0.9263    1.3792    0.6042 C   0  0  0  0  0  0  0  0  0  0  0  0
    0.9263    1.3792   -0.8995 C   0  0  0  0  0  0  0  0  0  0  0  0
    0.9263    2.5735   -1.6135 C   0  0  0  0  0  3  0  0  0  0  0  0
    0.9567    2.5769   -2.9995 C   0  0  0  0  0  0  0  0  0  0  0  0
    0.9862    1.3799   -3.6985 C   0  0  0  0  0  0  0  0  0  0  0  0
    0.9831    0.1825   -2.9995 C   0  0  0  0  0  0  0  0  0  0  0  0
    0.9526    0.1852   -1.6135 C   0  0  0  0  0  0  0  0  0  0  0  0
    0.3364    0.3125    1.0803 H   0  0  0  0  0  0  0  0  0  0  0  0
    1.9485    1.3905    0.9910 H   0  0  0  0  0  0  0  0  0  0  0  0
    0.4152    2.2571    1.0010 H   0  0  0  0  0  0  0  0  0  0  0  0
    0.8996    3.5146   -1.0757 H   0  0  0  0  0  0  0  0  0  0  0  0
    0.9541    3.5181   -3.5352 H   0  0  0  0  0  0  0  0  0  0  0  0
    1.0074    1.3801   -4.7809 H   0  0  0  0  0  0  0  0  0  0  0  0
    1.0012   -0.7585   -3.5352 H   0  0  0  0  0  0  0  0  0  0  0  0
    0.9467   -0.7563   -1.0757 H   0  0  0  0  0  0  0  0  0  0  0  0
  1  2  2  0
  1  6  1  0
  1 19  1  0
  2  3  1  0
  2  7  1  0
  3  4  2  0
  3  8  1  0
  4  5  1  0
  4  9  1  0
  5  6  2  0
  5 10  1  0
  6 11  1  0
 12 13  2  3
 12 20  1  0
 12 21  1  0
 13 14  1  0
 13 18  1  0
 14 15  1  0
 14 22  1  0
 15 16  2  0
 15 23  1  0
 16 17  1  0
 16 24  1  0
 17 18  2  0
 17 25  1  0
 18 26  1  0
M  RAD  1  14   2
M  END
>  <reaction>  (13) 
rxn_1453

>  <mol_properties>  (13) 
{"0": {"label": "*3", "atom_type": "Cd"}, "1": {"label": "*4", "atom_type": "Cd"}, "11": {"label": "*1", "atom_type": "Cs"}, "12": {"label": "*0", "atom_type": "Cd"}, "18": {"label": "*2", "atom_type": "H0"}}

>  <type>  (13) 
unop_9

>  <geom_source>  (13) 
Heuristics

$$$$

     RDKit          3D

 26 26  0  0  0  0  0  0  0  0999 V2000
   -0.6000   -0.6753    1.4199 C   0  0  0  0  0  0  0  0  0  0  0  0
   -0.1079   -1.9355    1.1127 C   0  0  0  0  0  0  0  0  0  0  0  0
   -0.2215   -2.9677    2.0326 C   0  0  0  0  0  0  0  0  0  0  0  0
   -0.8272   -2.7397    3.2597 C   0  0  0  0  0  0  0  0  0  0  0  0
   -1.3193   -1.4796    3.5669 C   0  0  0  0  0  0  0  0  0  0  0  0
   -1.2057   -0.4473    2.6470 C   0  0  0  0  0  0  0  0  0  0  0  0
    0.3649   -2.1134    0.1549 H   0  0  0  0  0  0  0  0  0  0  0  0
    0.1626   -3.9513    1.7928 H   0  0  0  0  0  0  0  0  0  0  0  0
   -0.9159   -3.5455    3.9777 H   0  0  0  0  0  0  0  0  0  0  0  0
   -1.7921   -1.3016    4.5247 H   0  0  0  0  0  0  0  0  0  0  0  0
   -1.5898    0.5363    2.8868 H   0  0  0  0  0  0  0  0  0  0  0  0
    0.5756    1.4507    0.4712 C   0  0  0  0  0  0  0  0  0  0  0  0
    0.5756    1.4507   -1.0326 C   0  0  0  0  0  0  0  0  0  0  0  0
    0.5756    2.6450   -1.7466 C   0  0  0  0  0  3  0  0  0  0  0  0
    0.6061    2.6483   -3.1326 C   0  0  0  0  0  0  0  0  0  0  0  0
    0.6356    1.4513   -3.8316 C   0  0  0  0  0  0  0  0  0  0  0  0
    0.6325    0.2539   -3.1326 C   0  0  0  0  0  0  0  0  0  0  0  0
    0.6020    0.2566   -1.7466 C   0  0  0  0  0  0  0  0  0  0  0  0
   -0.0142    0.3839    0.9472 H   0  0  0  0  0  0  0  0  0  0  0  0
    1.5979    1.4619    0.8579 H   0  0  0  0  0  0  0  0  0  0  0  0
    0.0646    2.3285    0.8679 H   0  0  0  0  0  0  0  0  0  0  0  0
    0.5490    3.5861   -1.2088 H   0  0  0  0  0  0  0  0  0  0  0  0
    0.6034    3.5895   -3.6683 H   0  0  0  0  0  0  0  0  0  0  0  0
    0.6568    1.4516   -4.9140 H   0  0  0  0  0  0  0  0  0  0  0  0
    0.6506   -0.6871   -3.6683 H   0  0  0  0  0  0  0  0  0  0  0  0
    0.5961   -0.6848   -1.2088 H   0  0  0  0  0  0  0  0  0  0  0  0
  1  2  2  0
  1  6  1  0
  1 19  1  0
  2  3  1  0
  2  7  1  0
  3  4  2  0
  3  8  1  0
  4  5  1  0
  4  9  1  0
  5  6  2  0
  5 10  1  0
  6 11  1  0
 12 13  2  3
 12 20  1  0
 12 21  1  0
 13 14  1  0
 13 18  1  0
 14 15  1  0
 14 22  1  0
 15 16  2  0
 15 23  1  0
 16 17  1  0
 16 24  1  0
 17 18  2  0
 17 25  1  0
 18 26  1  0
M  RAD  1  14   2
M  END
>  <reaction>  (14) 
rxn_1453

>  <mol_properties>  (14) 
{"0": {"label": "*3", "atom_type": "Cd"}, "1": {"label": "*4", "atom_type": "Cd"}, "11": {"label": "*1", "atom_type": "Cs"}, "12": {"label": "*0", "atom_type": "Cd"}, "18": {"label": "*2", "atom_type": "H0"}}

>  <type>  (14) 
unop_10

>  <geom_source>  (14) 
Heuristics

$$$$

     RDKit          3D

 26 26  0  0  0  0  0  0  0  0999 V2000
   -0.6651   -0.6464    1.4514 C   0  0  0  0  0  0  0  0  0  0  0  0
   -1.3203   -0.5898    2.6729 C   0  0  0  0  0  0  0  0  0  0  0  0
   -1.2942   -1.6841    3.5253 C   0  0  0  0  0  0  0  0  0  0  0  0
   -0.6130   -2.8349    3.1562 C   0  0  0  0  0  0  0  0  0  0  0  0
    0.0422   -2.8914    1.9346 C   0  0  0  0  0  0  0  0  0  0  0  0
    0.0161   -1.7971    1.0822 C   0  0  0  0  0  0  0  0  0  0  0  0
   -1.8520    0.3084    2.9611 H   0  0  0  0  0  0  0  0  0  0  0  0
   -1.8056   -1.6400    4.4788 H   0  0  0  0  0  0  0  0  0  0  0  0
   -0.5927   -3.6890    3.8215 H   0  0  0  0  0  0  0  0  0  0  0  0
    0.5739   -3.7896    1.6465 H   0  0  0  0  0  0  0  0  0  0  0  0
    0.5275   -1.8412    0.1288 H   0  0  0  0  0  0  0  0  0  0  0  0
    0.5105    1.4796    0.5026 C   0  0  0  0  0  0  0  0  0  0  0  0
    0.5105    1.4796   -1.0011 C   0  0  0  0  0  0  0  0  0  0  0  0
    0.5105    2.6739   -1.7152 C   0  0  0  0  0  3  0  0  0  0  0  0
    0.5410    2.6772   -3.1012 C   0  0  0  0  0  0  0  0  0  0  0  0
    0.5705    1.4802   -3.8002 C   0  0  0  0  0  0  0  0  0  0  0  0
    0.5674    0.2829   -3.1012 C   0  0  0  0  0  0  0  0  0  0  0  0
    0.5369    0.2855   -1.7152 C   0  0  0  0  0  0  0  0  0  0  0  0
   -0.0793    0.4128    0.9787 H   0  0  0  0  0  0  0  0  0  0  0  0
    1.5328    1.4908    0.8894 H   0  0  0  0  0  0  0  0  0  0  0  0
   -0.0005    2.3575    0.8993 H   0  0  0  0  0  0  0  0  0  0  0  0
    0.4839    3.6150   -1.1773 H   0  0  0  0  0  0  0  0  0  0  0  0
    0.5383    3.6184   -3.6369 H   0  0  0  0  0  0  0  0  0  0  0  0
    0.5917    1.4805   -4.8825 H   0  0  0  0  0  0  0  0  0  0  0  0
    0.5855   -0.6582   -3.6369 H   0  0  0  0  0  0  0  0  0  0  0  0
    0.5310   -0.6559   -1.1773 H   0  0  0  0  0  0  0  0  0  0  0  0
  1  2  2  0
  1  6  1  0
  1 19  1  0
  2  3  1  0
  2  7  1  0
  3  4  2  0
  3  8  1  0
  4  5  1  0
  4  9  1  0
  5  6  2  0
  5 10  1  0
  6 11  1  0
 12 13  2  3
 12 20  1  0
 12 21  1  0
 13 14  1  0
 13 18  1  0
 14 15  1  0
 14 22  1  0
 15 16  2  0
 15 23  1  0
 16 17  1  0
 16 24  1  0
 17 18  2  0
 17 25  1  0
 18 26  1  0
M  RAD  1  14   2
M  END
>  <reaction>  (15) 
rxn_1453

>  <mol_properties>  (15) 
{"0": {"label": "*3", "atom_type": "Cd"}, "1": {"label": "*4", "atom_type": "Cd"}, "11": {"label": "*1", "atom_type": "Cs"}, "12": {"label": "*0", "atom_type": "Cd"}, "18": {"label": "*2", "atom_type": "H0"}}

>  <type>  (15) 
unop_11

>  <geom_source>  (15) 
Heuristics

$$$$

     RDKit          3D

 26 26  0  0  0  0  0  0  0  0999 V2000
   -0.3614   -0.6293    1.6135 C   0  0  0  0  0  0  0  0  0  0  0  0
   -0.8856   -1.5772    0.7467 C   0  0  0  0  0  0  0  0  0  0  0  0
   -1.5109   -2.7081    1.2514 C   0  0  0  0  0  0  0  0  0  0  0  0
   -1.6121   -2.8910    2.6229 C   0  0  0  0  0  0  0  0  0  0  0  0
   -1.0879   -1.9431    3.4896 C   0  0  0  0  0  0  0  0  0  0  0  0
   -0.4626   -0.8122    2.9850 C   0  0  0  0  0  0  0  0  0  0  0  0
   -0.8066   -1.4344   -0.3238 H   0  0  0  0  0  0  0  0  0  0  0  0
   -1.9201   -3.4480    0.5749 H   0  0  0  0  0  0  0  0  0  0  0  0
   -2.1002   -3.7737    3.0168 H   0  0  0  0  0  0  0  0  0  0  0  0
   -1.1669   -2.0859    4.5601 H   0  0  0  0  0  0  0  0  0  0  0  0
   -0.0534   -0.0723    3.6615 H   0  0  0  0  0  0  0  0  0  0  0  0
    0.8142    1.4966    0.6647 C   0  0  0  0  0  0  0  0  0  0  0  0
    0.8142    1.4966   -0.8390 C   0  0  0  0  0  0  0  0  0  0  0  0
    0.8142    2.6910   -1.5531 C   0  0  0  0  0  3  0  0  0  0  0  0
    0.8446    2.6943   -2.9391 C   0  0  0  0  0  0  0  0  0  0  0  0
    0.8742    1.4973   -3.6381 C   0  0  0  0  0  0  0  0  0  0  0  0
    0.8711    0.2999   -2.9391 C   0  0  0  0  0  0  0  0  0  0  0  0
    0.8405    0.3026   -1.5531 C   0  0  0  0  0  0  0  0  0  0  0  0
    0.2243    0.4299    1.1408 H   0  0  0  0  0  0  0  0  0  0  0  0
    1.8364    1.5079    1.0515 H   0  0  0  0  0  0  0  0  0  0  0  0
    0.3032    2.3745    1.0614 H   0  0  0  0  0  0  0  0  0  0  0  0
    0.7876    3.6321   -1.0153 H   0  0  0  0  0  0  0  0  0  0  0  0
    0.8420    3.6355   -3.4748 H   0  0  0  0  0  0  0  0  0  0  0  0
    0.8953    1.4975   -4.7205 H   0  0  0  0  0  0  0  0  0  0  0  0
    0.8892   -0.6411   -3.4748 H   0  0  0  0  0  0  0  0  0  0  0  0
    0.8347   -0.6389   -1.0153 H   0  0  0  0  0  0  0  0  0  0  0  0
  1  2  2  0
  1  6  1  0
  1 19  1  0
  2  3  1  0
  2  7  1  0
  3  4  2  0
  3  8  1  0
  4  5  1  0
  4  9  1  0
  5  6  2  0
  5 10  1  0
  6 11  1  0
 12 13  2  3
 12 20  1  0
 12 21  1  0
 13 14  1  0
 13 18  1  0
 14 15  1  0
 14 22  1  0
 15 16  2  0
 15 23  1  0
 16 17  1  0
 16 24  1  0
 17 18  2  0
 17 25  1  0
 18 26  1  0
M  RAD  1  14   2
M  END
>  <reaction>  (16) 
rxn_1453

>  <mol_properties>  (16) 
{"0": {"label": "*3", "atom_type": "Cd"}, "1": {"label": "*4", "atom_type": "Cd"}, "11": {"label": "*1", "atom_type": "Cs"}, "12": {"label": "*0", "atom_type": "Cd"}, "18": {"label": "*2", "atom_type": "H0"}}

>  <type>  (16) 
unop_12

>  <geom_source>  (16) 
Heuristics

$$$$

     RDKit          3D

 26 26  0  0  0  0  0  0  0  0999 V2000
    1.6246   -0.0763   -0.8776 C   0  0  0  0  0  0  0  0  0  0  0  0
    1.5098    0.8036    0.2070 C   0  0  0  0  0  3  0  0  0  0  0  0
    2.8535   -0.6999   -1.1407 C   0  0  0  0  0  0  0  0  0  0  0  0
   -3.7453    0.0676    1.4739 C   0  0  0  0  0  0  0  0  0  0  0  0
   -3.0449    1.1974    1.0374 C   0  0  0  0  0  0  0  0  0  0  0  0
   -3.4864   -1.1813    0.8988 C   0  0  0  0  0  0  0  0  0  0  0  0
   -2.0857    1.0780    0.0260 C   0  0  0  0  0  0  0  0  0  0  0  0
   -2.5271   -1.3001   -0.1126 C   0  0  0  0  0  0  0  0  0  0  0  0
   -1.8270   -0.1706   -0.5487 C   0  0  0  0  0  0  0  0  0  0  0  0
    2.6169    1.0583    1.0234 C   0  0  0  0  0  0  0  0  0  0  0  0
    3.8405    0.4353    0.7587 C   0  0  0  0  0  0  0  0  0  0  0  0
    3.9587   -0.4433   -0.3227 C   0  0  0  0  0  0  0  0  0  0  0  0
    0.4392   -0.3438   -1.7450 C   0  0  0  0  0  0  0  0  0  0  0  0
   -3.2451    2.1636    1.4822 H   0  0  0  0  0  0  0  0  0  0  0  0
   -4.4874    0.1597    2.2564 H   0  0  0  0  0  0  0  0  0  0  0  0
   -4.0281   -2.0554    1.2364 H   0  0  0  0  0  0  0  0  0  0  0  0
   -1.5433    1.9509   -0.3126 H   0  0  0  0  0  0  0  0  0  0  0  0
   -2.3257   -2.2654   -0.5582 H   0  0  0  0  0  0  0  0  0  0  0  0
   -0.9758   -0.2763   -1.4463 H   0  0  0  0  0  0  0  0  0  0  0  0
    0.5660    1.2907    0.4197 H   0  0  0  0  0  0  0  0  0  0  0  0
    2.5263    1.7381    1.8607 H   0  0  0  0  0  0  0  0  0  0  0  0
    2.9539   -1.3818   -1.9762 H   0  0  0  0  0  0  0  0  0  0  0  0
    4.6963    0.6332    1.3911 H   0  0  0  0  0  0  0  0  0  0  0  0
    4.9062   -0.9250   -0.5268 H   0  0  0  0  0  0  0  0  0  0  0  0
    0.6519   -0.0347   -2.7900 H   0  0  0  0  0  0  0  0  0  0  0  0
    0.1779   -1.4225   -1.7143 H   0  0  0  0  0  0  0  0  0  0  0  0
  1 13  2  3
  1  2  1  0
  1  3  1  0
  2 10  1  0
  2 20  1  0
  3 12  2  0
  3 22  1  0
  4  5  2  0
  4  6  1  0
  4 15  1  0
  5  7  1  0
  5 14  1  0
  6  8  2  0
  6 16  1  0
  7  9  2  0
  7 17  1  0
  8  9  1  0
  8 18  1  0
  9 19  1  0
 10 11  2  0
 10 21  1  0
 11 12  1  0
 11 23  1  0
 12 24  1  0
 13 25  1  0
 13 26  1  0
M  RAD  1   2   2
M  END
>  <reaction>  (17) 
rxn_1453

>  <mol_properties>  (17) 
{"0": {"label": "*3", "atom_type": "Cd"}, "1": {"label": "*4", "atom_type": "Cd"}, "11": {"label": "*1", "atom_type": "Cs"}, "12": {"label": "*0", "atom_type": "Cd"}, "18": {"label": "*2", "atom_type": "H0"}}

>  <type>  (17) 
unop_13

>  <geom_source>  (17) 
AutoTST

$$$$

     RDKit          3D

 26 26  0  0  0  0  0  0  0  0999 V2000
   -0.5204   -0.5968    1.5531 C   0  0  0  0  0  0  0  0  0  0  0  0
   -0.4906   -1.7842    0.8362 C   0  0  0  0  0  0  0  0  0  0  0  0
   -0.7748   -2.9847    1.4706 C   0  0  0  0  0  0  0  0  0  0  0  0
   -1.0889   -2.9979    2.8218 C   0  0  0  0  0  0  0  0  0  0  0  0
   -1.1188   -1.8106    3.5386 C   0  0  0  0  0  0  0  0  0  0  0  0
   -0.8345   -0.6100    2.9043 C   0  0  0  0  0  0  0  0  0  0  0  0
   -0.2454   -1.7739   -0.2185 H   0  0  0  0  0  0  0  0  0  0  0  0
   -0.7515   -3.9115    0.9111 H   0  0  0  0  0  0  0  0  0  0  0  0
   -1.3108   -3.9350    3.3170 H   0  0  0  0  0  0  0  0  0  0  0  0
   -1.3639   -1.8209    4.5933 H   0  0  0  0  0  0  0  0  0  0  0  0
   -0.8578    0.3168    3.4638 H   0  0  0  0  0  0  0  0  0  0  0  0
    0.6552    1.5291    0.6042 C   0  0  0  0  0  0  0  0  0  0  0  0
    0.6552    1.5291   -0.8995 C   0  0  0  0  0  0  0  0  0  0  0  0
    0.6552    2.7235   -1.6135 C   0  0  0  0  0  3  0  0  0  0  0  0
    0.6856    2.7268   -2.9995 C   0  0  0  0  0  0  0  0  0  0  0  0
    0.7152    1.5298   -3.6986 C   0  0  0  0  0  0  0  0  0  0  0  0
    0.7120    0.3324   -2.9995 C   0  0  0  0  0  0  0  0  0  0  0  0
    0.6815    0.3351   -1.6135 C   0  0  0  0  0  0  0  0  0  0  0  0
    0.0653    0.4624    1.0803 H   0  0  0  0  0  0  0  0  0  0  0  0
    1.6774    1.5404    0.9910 H   0  0  0  0  0  0  0  0  0  0  0  0
    0.1442    2.4070    1.0010 H   0  0  0  0  0  0  0  0  0  0  0  0
    0.6286    3.6646   -1.0757 H   0  0  0  0  0  0  0  0  0  0  0  0
    0.6830    3.6680   -3.5352 H   0  0  0  0  0  0  0  0  0  0  0  0
    0.7363    1.5300   -4.7809 H   0  0  0  0  0  0  0  0  0  0  0  0
    0.7301   -0.6086   -3.5352 H   0  0  0  0  0  0  0  0  0  0  0  0
    0.6757   -0.6064   -1.0757 H   0  0  0  0  0  0  0  0  0  0  0  0
  1  2  2  0
  1  6  1  0
  1 19  1  0
  2  3  1  0
  2  7  1  0
  3  4  2  0
  3  8  1  0
  4  5  1  0
  4  9  1  0
  5  6  2  0
  5 10  1  0
  6 11  1  0
 12 13  2  3
 12 20  1  0
 12 21  1  0
 13 14  1  0
 13 18  1  0
 14 15  1  0
 14 22  1  0
 15 16  2  0
 15 23  1  0
 16 17  1  0
 16 24  1  0
 17 18  2  0
 17 25  1  0
 18 26  1  0
M  RAD  1  14   2
M  END
>  <reaction>  (18) 
rxn_1453

>  <mol_properties>  (18) 
{"0": {"label": "*3", "atom_type": "Cd"}, "1": {"label": "*4", "atom_type": "Cd"}, "11": {"label": "*1", "atom_type": "Cs"}, "12": {"label": "*0", "atom_type": "Cd"}, "18": {"label": "*2", "atom_type": "H0"}}

>  <type>  (18) 
unop_14

>  <geom_source>  (18) 
gaussian_log

$$$$
