
     RDKit          3D

  9  8  0  0  0  0  0  0  0  0999 V2000
   -0.8818   -0.3578    0.1297 C   0  0  0  0  0  0  0  0  0  0  0  0
    0.6153   -0.3021   -0.1188 C   0  0  0  0  0  0  0  0  0  0  0  0
    1.5354   -1.7170    0.5545 S   0  0  0  0  0  0  0  0  0  0  0  0
   -1.1018   -0.3317    1.1984 H   0  0  0  0  0  0  0  0  0  0  0  0
   -1.3114   -1.2723   -0.2799 H   0  0  0  0  0  0  0  0  0  0  0  0
   -1.3767    0.4976   -0.3363 H   0  0  0  0  0  0  0  0  0  0  0  0
    1.0467    0.6194    0.2718 H   0  0  0  0  0  0  0  0  0  0  0  0
    0.8295   -0.3275   -1.1882 H   0  0  0  0  0  0  0  0  0  0  0  0
    1.2306   -1.5077    1.8423 H   0  0  0  0  0  0  0  0  0  0  0  0
  1  2  1  0
  1  4  1  0
  1  5  1  0
  1  6  1  0
  2  3  1  0
  2  7  1  0
  2  8  1  0
  3  9  1  0
M  END
>  <reaction>  (1) 
rxn_1954

>  <mol_properties>  (1) 
{"1": {"label": "donator", "atom_type": "Cs"}, "6": {"label": "d_hydrogen", "atom_type": "H0"}}

>  <type>  (1) 
r1h

$$$$

     RDKit          3D

  7  6  0  0  0  0  0  0  0  0999 V2000
    1.3002    0.7433    2.1279 C   0  0  0  0  0  0  0  0  0  0  0  0
    0.5758    0.3292    1.2319 C   0  0  0  0  0  0  0  0  0  0  0  0
   -0.2057   -0.1176    0.2652 C   0  0  0  0  0  3  0  0  0  0  0  0
   -0.9747   -0.5572   -0.6858 C   0  0  0  0  0  0  0  0  0  0  0  0
    1.9293    1.1030    2.9060 H   0  0  0  0  0  0  0  0  0  0  0  0
   -1.9977   -0.8727   -0.4932 H   0  0  0  0  0  0  0  0  0  0  0  0
   -0.6274   -0.6280   -1.7143 H   0  0  0  0  0  0  0  0  0  0  0  0
  1  2  3  0
  1  5  1  0
  2  3  1  0
  3  4  2  3
  4  6  1  0
  4  7  1  0
M  RAD  1   3   2
M  END
>  <reaction>  (2) 
rxn_1954

>  <mol_properties>  (2) 
{"2": {"label": "acceptor", "atom_type": "Cd"}}

>  <type>  (2) 
r2

$$$$

     RDKit          3D

  8  7  0  0  0  0  0  0  0  0999 V2000
    1.9029    0.9046   -0.2050 C   0  0  0  0  0  0  0  0  0  0  0  0
    0.8517    0.4283    0.1217 C   0  0  0  0  0  0  0  0  0  0  0  0
   -0.3908   -0.1311    0.5404 C   0  0  0  0  0  0  0  0  0  0  0  0
   -1.2847   -0.6576   -0.2899 C   0  0  0  0  0  0  0  0  0  0  0  0
    2.8335    1.3255   -0.5014 H   0  0  0  0  0  0  0  0  0  0  0  0
   -0.5867   -0.1096    1.6074 H   0  0  0  0  0  0  0  0  0  0  0  0
   -2.2126   -1.0686    0.0850 H   0  0  0  0  0  0  0  0  0  0  0  0
   -1.1134   -0.6914   -1.3582 H   0  0  0  0  0  0  0  0  0  0  0  0
  1  2  3  0
  1  5  1  0
  2  3  1  0
  3  4  2  3
  3  6  1  0
  4  7  1  0
  4  8  1  0
M  END
>  <reaction>  (3) 
rxn_1954

>  <mol_properties>  (3) 
{"2": {"label": "acceptor", "atom_type": "Cd"}, "7": {"label": "a_hydrogen", "atom_type": "H0"}}

>  <type>  (3) 
r2h

$$$$

     RDKit          3D

 16 14  0  0  0  0  0  0  0  0999 V2000
    2.0529   -2.4684   -1.2449 C   0  0  0  0  0  0  0  0  0  0  0  0
    1.5729   -1.8142   -0.3533 C   0  0  0  0  0  0  0  0  0  0  0  0
    0.9181   -1.0271    0.5915 C   0  0  0  0  0  3  0  0  0  0  0  0
    1.1849   -0.7031    1.8422 C   0  0  0  0  0  0  0  0  0  0  0  0
    2.4998   -3.0538   -2.0119 H   0  0  0  0  0  0  0  0  0  0  0  0
    2.0721   -1.0654    2.3537 H   0  0  0  0  0  0  0  0  0  0  0  0
    0.5134   -0.0576    2.3986 H   0  0  0  0  0  0  0  0  0  0  0  0
   -0.9802    0.4968   -1.7514 C   0  0  0  0  0  0  0  0  0  0  0  0
   -1.3064    0.1500   -0.3211 C   0  0  0  0  0  0  0  0  0  0  0  0
   -1.7103    1.4869    0.7792 S   0  0  0  0  0  0  0  0  0  0  0  0
   -0.1386    1.1907   -1.8005 H   0  0  0  0  0  0  0  0  0  0  0  0
   -1.8329    0.9605   -2.2525 H   0  0  0  0  0  0  0  0  0  0  0  0
   -0.7018   -0.4051   -2.2998 H   0  0  0  0  0  0  0  0  0  0  0  0
   -0.2550   -0.4443    0.1305 H   0  0  0  0  0  0  0  0  0  0  0  0
   -2.0836   -0.6061   -0.2161 H   0  0  0  0  0  0  0  0  0  0  0  0
   -0.6727    2.2745    0.4616 H   0  0  0  0  0  0  0  0  0  0  0  0
  1  2  3  0
  1  5  1  0
  2  3  1  0
  3  4  2  3
  4  6  1  0
  4  7  1  0
  8  9  1  0
  8 11  1  0
  8 12  1  0
  8 13  1  0
  9 10  1  0
  9 14  1  0
  9 15  1  0
 10 16  1  0
M  RAD  1   3   2
M  END
>  <reaction>  (4) 
rxn_1954

>  <mol_properties>  (4) 
{"1": {"label": "*4", "atom_type": "Ct"}, "2": {"label": "*3", "atom_type": "Cd"}, "8": {"label": "*1", "atom_type": "Cs"}, "9": {"label": "*0", "atom_type": "S2s"}, "13": {"label": "*2", "atom_type": "H0"}}

>  <type>  (4) 
ts

$$$$

     RDKit          3D

 16 14  0  0  0  0  0  0  0  0999 V2000
    2.5302    0.0602    1.7095 C   0  0  0  0  0  0  0  0  0  0  0  0
    1.7666   -0.5712    1.0337 C   0  0  0  0  0  0  0  0  0  0  0  0
    0.8574   -1.2972    0.2101 C   0  0  0  0  0  0  0  0  0  0  0  0
    0.4319   -2.5269    0.4796 C   0  0  0  0  0  0  0  0  0  0  0  0
    3.2073    0.6200    2.3088 H   0  0  0  0  0  0  0  0  0  0  0  0
    0.7615   -3.0586    1.3630 H   0  0  0  0  0  0  0  0  0  0  0  0
   -0.2597   -3.0302   -0.1829 H   0  0  0  0  0  0  0  0  0  0  0  0
   -1.1620    0.0585   -2.2548 C   0  0  0  0  0  0  0  0  0  0  0  0
   -1.1620    0.0585   -0.7361 C   0  0  0  0  0  3  0  0  0  0  0  0
   -1.1620    1.7159    0.0089 S   0  0  0  0  0  0  0  0  0  0  0  0
   -0.2554    0.5239   -2.6455 H   0  0  0  0  0  0  0  0  0  0  0  0
   -2.0180    0.6097   -2.6449 H   0  0  0  0  0  0  0  0  0  0  0  0
   -1.2051   -0.9648   -2.6351 H   0  0  0  0  0  0  0  0  0  0  0  0
   -0.1501   -0.6208   -0.2620 H   0  0  0  0  0  0  0  0  0  0  0  0
   -2.0696   -0.4085   -0.3510 H   0  0  0  0  0  0  0  0  0  0  0  0
    0.0128    2.1176   -0.4947 H   0  0  0  0  0  0  0  0  0  0  0  0
  1  2  3  0
  1  5  1  0
  2  3  1  0
  3  4  2  3
  3 14  1  0
  4  6  1  0
  4  7  1  0
  8  9  1  0
  8 11  1  0
  8 12  1  0
  8 13  1  0
  9 10  1  0
  9 15  1  0
 10 16  1  0
M  RAD  1   9   2
M  END
>  <reaction>  (5) 
rxn_1954

>  <mol_properties>  (5) 
{"1": {"label": "*4", "atom_type": "Ct"}, "2": {"label": "*3", "atom_type": "Cd"}, "8": {"label": "*1", "atom_type": "Cs"}, "9": {"label": "*0", "atom_type": "S2s"}, "13": {"label": "*2", "atom_type": "H0"}}

>  <type>  (5) 
unop_1

>  <geom_source>  (5) 
Heuristics

$$$$

     RDKit          3D

 16 14  0  0  0  0  0  0  0  0999 V2000
    2.8675   -1.1983   -0.9021 C   0  0  0  0  0  0  0  0  0  0  0  0
    1.8938   -1.1918   -0.2017 C   0  0  0  0  0  0  0  0  0  0  0  0
    0.7192   -1.1748    0.6058 C   0  0  0  0  0  0  0  0  0  0  0  0
    0.7018   -1.4887    1.8968 C   0  0  0  0  0  0  0  0  0  0  0  0
    3.7308   -1.2040   -1.5230 H   0  0  0  0  0  0  0  0  0  0  0  0
    1.6029   -1.7823    2.4198 H   0  0  0  0  0  0  0  0  0  0  0  0
   -0.2210   -1.4580    2.4609 H   0  0  0  0  0  0  0  0  0  0  0  0
   -1.3002    0.1809   -1.8591 C   0  0  0  0  0  0  0  0  0  0  0  0
   -1.3002    0.1809   -0.3404 C   0  0  0  0  0  3  0  0  0  0  0  0
   -1.3002    1.8383    0.4046 S   0  0  0  0  0  0  0  0  0  0  0  0
   -0.3936    0.6463   -2.2498 H   0  0  0  0  0  0  0  0  0  0  0  0
   -2.1562    0.7321   -2.2492 H   0  0  0  0  0  0  0  0  0  0  0  0
   -1.3433   -0.8425   -2.2394 H   0  0  0  0  0  0  0  0  0  0  0  0
   -0.2883   -0.4984    0.1337 H   0  0  0  0  0  0  0  0  0  0  0  0
   -2.2078   -0.2861    0.0447 H   0  0  0  0  0  0  0  0  0  0  0  0
   -0.1254    2.2399   -0.0990 H   0  0  0  0  0  0  0  0  0  0  0  0
  1  2  3  0
  1  5  1  0
  2  3  1  0
  3  4  2  3
  3 14  1  0
  4  6  1  0
  4  7  1  0
  8  9  1  0
  8 11  1  0
  8 12  1  0
  8 13  1  0
  9 10  1  0
  9 15  1  0
 10 16  1  0
M  RAD  1   9   2
M  END
>  <reaction>  (6) 
rxn_1954

>  <mol_properties>  (6) 
{"1": {"label": "*4", "atom_type": "Ct"}, "2": {"label": "*3", "atom_type": "Cd"}, "8": {"label": "*1", "atom_type": "Cs"}, "9": {"label": "*0", "atom_type": "S2s"}, "13": {"label": "*2", "atom_type": "H0"}}

>  <type>  (6) 
unop_2

>  <geom_source>  (6) 
Heuristics

$$$$

     RDKit          3D

 16 14  0  0  0  0  0  0  0  0999 V2000
    1.8586   -0.3779    2.4709 C   0  0  0  0  0  0  0  0  0  0  0  0
    1.4389   -0.7661    1.4165 C   0  0  0  0  0  0  0  0  0  0  0  0
    0.9323   -1.1975    0.1559 C   0  0  0  0  0  0  0  0  0  0  0  0
    0.9360   -2.4622   -0.2517 C   0  0  0  0  0  0  0  0  0  0  0  0
    2.2308   -0.0338    3.4058 H   0  0  0  0  0  0  0  0  0  0  0  0
    1.3347   -3.2552    0.3680 H   0  0  0  0  0  0  0  0  0  0  0  0
    0.5374   -2.7320   -1.2207 H   0  0  0  0  0  0  0  0  0  0  0  0
   -1.0871    0.1582   -2.3090 C   0  0  0  0  0  0  0  0  0  0  0  0
   -1.0871    0.1582   -0.7903 C   0  0  0  0  0  3  0  0  0  0  0  0
   -1.0871    1.8156   -0.0453 S   0  0  0  0  0  0  0  0  0  0  0  0
   -0.1805    0.6236   -2.6997 H   0  0  0  0  0  0  0  0  0  0  0  0
   -1.9431    0.7094   -2.6991 H   0  0  0  0  0  0  0  0  0  0  0  0
   -1.1302   -0.8652   -2.6893 H   0  0  0  0  0  0  0  0  0  0  0  0
   -0.0752   -0.5211   -0.3162 H   0  0  0  0  0  0  0  0  0  0  0  0
   -1.9947   -0.3089   -0.4052 H   0  0  0  0  0  0  0  0  0  0  0  0
    0.0877    2.2172   -0.5489 H   0  0  0  0  0  0  0  0  0  0  0  0
  1  2  3  0
  1  5  1  0
  2  3  1  0
  3  4  2  3
  3 14  1  0
  4  6  1  0
  4  7  1  0
  8  9  1  0
  8 11  1  0
  8 12  1  0
  8 13  1  0
  9 10  1  0
  9 15  1  0
 10 16  1  0
M  RAD  1   9   2
M  END
>  <reaction>  (7) 
rxn_1954

>  <mol_properties>  (7) 
{"1": {"label": "*4", "atom_type": "Ct"}, "2": {"label": "*3", "atom_type": "Cd"}, "8": {"label": "*1", "atom_type": "Cs"}, "9": {"label": "*0", "atom_type": "S2s"}, "13": {"label": "*2", "atom_type": "H0"}}

>  <type>  (7) 
unop_3

>  <geom_source>  (7) 
Heuristics

$$$$

     RDKit          3D

 16 14  0  0  0  0  0  0  0  0999 V2000
    1.1162   -3.3637   -0.2240 C   0  0  0  0  0  0  0  0  0  0  0  0
    1.0789   -2.2127    0.1111 C   0  0  0  0  0  0  0  0  0  0  0  0
    1.0209   -0.8374    0.4815 C   0  0  0  0  0  0  0  0  0  0  0  0
    1.4631   -0.3620    1.6409 C   0  0  0  0  0  0  0  0  0  0  0  0
    1.1492   -4.3843   -0.5211 H   0  0  0  0  0  0  0  0  0  0  0  0
    1.9033   -1.0107    2.3873 H   0  0  0  0  0  0  0  0  0  0  0  0
    1.3932    0.6934    1.8685 H   0  0  0  0  0  0  0  0  0  0  0  0
   -0.9985    0.5183   -1.9834 C   0  0  0  0  0  0  0  0  0  0  0  0
   -0.9985    0.5183   -0.4647 C   0  0  0  0  0  3  0  0  0  0  0  0
   -0.9985    2.1757    0.2803 S   0  0  0  0  0  0  0  0  0  0  0  0
   -0.0918    0.9838   -2.3741 H   0  0  0  0  0  0  0  0  0  0  0  0
   -1.8545    1.0695   -2.3735 H   0  0  0  0  0  0  0  0  0  0  0  0
   -1.0416   -0.5050   -2.3636 H   0  0  0  0  0  0  0  0  0  0  0  0
    0.0134   -0.1610    0.0094 H   0  0  0  0  0  0  0  0  0  0  0  0
   -1.9061    0.0513   -0.0796 H   0  0  0  0  0  0  0  0  0  0  0  0
    0.1763    2.5774   -0.2232 H   0  0  0  0  0  0  0  0  0  0  0  0
  1  2  3  0
  1  5  1  0
  2  3  1  0
  3  4  2  3
  3 14  1  0
  4  6  1  0
  4  7  1  0
  8  9  1  0
  8 11  1  0
  8 12  1  0
  8 13  1  0
  9 10  1  0
  9 15  1  0
 10 16  1  0
M  RAD  1   9   2
M  END
>  <reaction>  (8) 
rxn_1954

>  <mol_properties>  (8) 
{"1": {"label": "*4", "atom_type": "Ct"}, "2": {"label": "*3", "atom_type": "Cd"}, "8": {"label": "*1", "atom_type": "Cs"}, "9": {"label": "*0", "atom_type": "S2s"}, "13": {"label": "*2", "atom_type": "H0"}}

>  <type>  (8) 
unop_4

>  <geom_source>  (8) 
Heuristics

$$$$

     RDKit          3D

 16 14  0  0  0  0  0  0  0  0999 V2000
    1.1123   -1.2313    2.7764 C   0  0  0  0  0  0  0  0  0  0  0  0
    1.0521   -1.1908    1.5792 C   0  0  0  0  0  0  0  0  0  0  0  0
    0.9542   -1.1251    0.1585 C   0  0  0  0  0  0  0  0  0  0  0  0
    1.8153   -1.7032   -0.6720 C   0  0  0  0  0  0  0  0  0  0  0  0
    1.1658   -1.2672    3.8379 H   0  0  0  0  0  0  0  0  0  0  0  0
    2.6609   -2.2709   -0.3053 H   0  0  0  0  0  0  0  0  0  0  0  0
    1.6910   -1.6197   -1.7436 H   0  0  0  0  0  0  0  0  0  0  0  0
   -1.0652    0.2306   -2.3063 C   0  0  0  0  0  0  0  0  0  0  0  0
   -1.0652    0.2306   -0.7877 C   0  0  0  0  0  3  0  0  0  0  0  0
   -1.0652    1.8880   -0.0427 S   0  0  0  0  0  0  0  0  0  0  0  0
   -0.1586    0.6960   -2.6971 H   0  0  0  0  0  0  0  0  0  0  0  0
   -1.9212    0.7818   -2.6964 H   0  0  0  0  0  0  0  0  0  0  0  0
   -1.1083   -0.7928   -2.6866 H   0  0  0  0  0  0  0  0  0  0  0  0
   -0.0533   -0.4487   -0.3135 H   0  0  0  0  0  0  0  0  0  0  0  0
   -1.9728   -0.2364   -0.4025 H   0  0  0  0  0  0  0  0  0  0  0  0
    0.1096    2.2896   -0.5462 H   0  0  0  0  0  0  0  0  0  0  0  0
  1  2  3  0
  1  5  1  0
  2  3  1  0
  3  4  2  3
  3 14  1  0
  4  6  1  0
  4  7  1  0
  8  9  1  0
  8 11  1  0
  8 12  1  0
  8 13  1  0
  9 10  1  0
  9 15  1  0
 10 16  1  0
M  RAD  1   9   2
M  END
>  <reaction>  (9) 
rxn_1954

>  <mol_properties>  (9) 
{"1": {"label": "*4", "atom_type": "Ct"}, "2": {"label": "*3", "atom_type": "Cd"}, "8": {"label": "*1", "atom_type": "Cs"}, "9": {"label": "*0", "atom_type": "S2s"}, "13": {"label": "*2", "atom_type": "H0"}}

>  <type>  (9) 
unop_5

>  <geom_source>  (9) 
Heuristics

$$$$

     RDKit          3D

 16 14  0  0  0  0  0  0  0  0999 V2000
    0.6437   -3.4301    0.7263 C   0  0  0  0  0  0  0  0  0  0  0  0
    0.8515   -2.2608    0.5585 C   0  0  0  0  0  0  0  0  0  0  0  0
    1.0820   -0.8724    0.3319 C   0  0  0  0  0  0  0  0  0  0  0  0
    1.7741   -0.0914    1.1545 C   0  0  0  0  0  0  0  0  0  0  0  0
    0.4594   -4.4669    0.8750 H   0  0  0  0  0  0  0  0  0  0  0  0
    2.2122   -0.4772    2.0660 H   0  0  0  0  0  0  0  0  0  0  0  0
    1.9173    0.9575    0.9311 H   0  0  0  0  0  0  0  0  0  0  0  0
   -0.9374    0.4833   -2.1330 C   0  0  0  0  0  0  0  0  0  0  0  0
   -0.9374    0.4833   -0.6143 C   0  0  0  0  0  3  0  0  0  0  0  0
   -0.9374    2.1406    0.1307 S   0  0  0  0  0  0  0  0  0  0  0  0
   -0.0307    0.9487   -2.5237 H   0  0  0  0  0  0  0  0  0  0  0  0
   -1.7933    1.0345   -2.5231 H   0  0  0  0  0  0  0  0  0  0  0  0
   -0.9805   -0.5401   -2.5132 H   0  0  0  0  0  0  0  0  0  0  0  0
    0.0745   -0.1961   -0.1402 H   0  0  0  0  0  0  0  0  0  0  0  0
   -1.8450    0.0162   -0.2292 H   0  0  0  0  0  0  0  0  0  0  0  0
    0.2374    2.5423   -0.3728 H   0  0  0  0  0  0  0  0  0  0  0  0
  1  2  3  0
  1  5  1  0
  2  3  1  0
  3  4  2  3
  3 14  1  0
  4  6  1  0
  4  7  1  0
  8  9  1  0
  8 11  1  0
  8 12  1  0
  8 13  1  0
  9 10  1  0
  9 15  1  0
 10 16  1  0
M  RAD  1   9   2
M  END
>  <reaction>  (10) 
rxn_1954

>  <mol_properties>  (10) 
{"1": {"label": "*4", "atom_type": "Ct"}, "2": {"label": "*3", "atom_type": "Cd"}, "8": {"label": "*1", "atom_type": "Cs"}, "9": {"label": "*0", "atom_type": "S2s"}, "13": {"label": "*2", "atom_type": "H0"}}

>  <type>  (10) 
unop_6

>  <geom_source>  (10) 
Heuristics

$$$$

     RDKit          3D

 16 14  0  0  0  0  0  0  0  0999 V2000
    0.4539   -3.0326    1.7095 C   0  0  0  0  0  0  0  0  0  0  0  0
    0.7491   -2.0868    1.0337 C   0  0  0  0  0  0  0  0  0  0  0  0
    1.0768   -0.9703    0.2101 C   0  0  0  0  0  0  0  0  0  0  0  0
    2.0538   -0.1110    0.4796 C   0  0  0  0  0  0  0  0  0  0  0  0
    0.1921   -3.8713    2.3088 H   0  0  0  0  0  0  0  0  0  0  0  0
    2.6707   -0.2147    1.3630 H   0  0  0  0  0  0  0  0  0  0  0  0
    2.2578    0.7197   -0.1829 H   0  0  0  0  0  0  0  0  0  0  0  0
   -0.9426    0.3854   -2.2548 C   0  0  0  0  0  0  0  0  0  0  0  0
   -0.9426    0.3854   -0.7361 C   0  0  0  0  0  3  0  0  0  0  0  0
   -0.9426    2.0427    0.0089 S   0  0  0  0  0  0  0  0  0  0  0  0
   -0.0360    0.8508   -2.6455 H   0  0  0  0  0  0  0  0  0  0  0  0
   -1.7986    0.9366   -2.6449 H   0  0  0  0  0  0  0  0  0  0  0  0
   -0.9857   -0.6380   -2.6351 H   0  0  0  0  0  0  0  0  0  0  0  0
    0.0693   -0.2940   -0.2620 H   0  0  0  0  0  0  0  0  0  0  0  0
   -1.8502   -0.0817   -0.3510 H   0  0  0  0  0  0  0  0  0  0  0  0
    0.2322    2.4444   -0.4947 H   0  0  0  0  0  0  0  0  0  0  0  0
  1  2  3  0
  1  5  1  0
  2  3  1  0
  3  4  2  3
  3 14  1  0
  4  6  1  0
  4  7  1  0
  8  9  1  0
  8 11  1  0
  8 12  1  0
  8 13  1  0
  9 10  1  0
  9 15  1  0
 10 16  1  0
M  RAD  1   9   2
M  END
>  <reaction>  (11) 
rxn_1954

>  <mol_properties>  (11) 
{"1": {"label": "*4", "atom_type": "Ct"}, "2": {"label": "*3", "atom_type": "Cd"}, "8": {"label": "*1", "atom_type": "Cs"}, "9": {"label": "*0", "atom_type": "S2s"}, "13": {"label": "*2", "atom_type": "H0"}}

>  <type>  (11) 
unop_7

>  <geom_source>  (11) 
Heuristics

$$$$

     RDKit          3D

 16 14  0  0  0  0  0  0  0  0999 V2000
    2.9700    0.0350    0.7263 C   0  0  0  0  0  0  0  0  0  0  0  0
    1.9664   -0.6000    0.5585 C   0  0  0  0  0  0  0  0  0  0  0  0
    0.7687   -1.3391    0.3319 C   0  0  0  0  0  0  0  0  0  0  0  0
    0.3078   -2.2754    1.1545 C   0  0  0  0  0  0  0  0  0  0  0  0
    3.8598    0.5981    0.8750 H   0  0  0  0  0  0  0  0  0  0  0  0
    0.8308   -2.5348    2.0660 H   0  0  0  0  0  0  0  0  0  0  0  0
   -0.6087   -2.8051    0.9311 H   0  0  0  0  0  0  0  0  0  0  0  0
   -1.2507    0.0166   -2.1330 C   0  0  0  0  0  0  0  0  0  0  0  0
   -1.2507    0.0166   -0.6143 C   0  0  0  0  0  3  0  0  0  0  0  0
   -1.2507    1.6740    0.1307 S   0  0  0  0  0  0  0  0  0  0  0  0
   -0.3440    0.4820   -2.5237 H   0  0  0  0  0  0  0  0  0  0  0  0
   -2.1066    0.5678   -2.5231 H   0  0  0  0  0  0  0  0  0  0  0  0
   -1.2937   -1.0068   -2.5132 H   0  0  0  0  0  0  0  0  0  0  0  0
   -0.2388   -0.6627   -0.1402 H   0  0  0  0  0  0  0  0  0  0  0  0
   -2.1583   -0.4504   -0.2292 H   0  0  0  0  0  0  0  0  0  0  0  0
   -0.0759    2.0757   -0.3728 H   0  0  0  0  0  0  0  0  0  0  0  0
  1  2  3  0
  1  5  1  0
  2  3  1  0
  3  4  2  3
  3 14  1  0
  4  6  1  0
  4  7  1  0
  8  9  1  0
  8 11  1  0
  8 12  1  0
  8 13  1  0
  9 10  1  0
  9 15  1  0
 10 16  1  0
M  RAD  1   9   2
M  END
>  <reaction>  (12) 
rxn_1954

>  <mol_properties>  (12) 
{"1": {"label": "*4", "atom_type": "Ct"}, "2": {"label": "*3", "atom_type": "Cd"}, "8": {"label": "*1", "atom_type": "Cs"}, "9": {"label": "*0", "atom_type": "S2s"}, "13": {"label": "*2", "atom_type": "H0"}}

>  <type>  (12) 
unop_8

>  <geom_source>  (12) 
Heuristics

$$$$

     RDKit          3D

 16 14  0  0  0  0  0  0  0  0999 V2000
    1.7464   -2.8683   -0.9021 C   0  0  0  0  0  0  0  0  0  0  0  0
    1.3717   -1.9695   -0.2017 C   0  0  0  0  0  0  0  0  0  0  0  0
    0.9112   -0.8888    0.6058 C   0  0  0  0  0  0  0  0  0  0  0  0
    1.1951   -0.7539    1.8968 C   0  0  0  0  0  0  0  0  0  0  0  0
    2.0786   -3.6651   -1.5230 H   0  0  0  0  0  0  0  0  0  0  0  0
    1.8081   -1.4767    2.4198 H   0  0  0  0  0  0  0  0  0  0  0  0
    0.8174    0.0886    2.4609 H   0  0  0  0  0  0  0  0  0  0  0  0
   -1.1082    0.4669   -1.8591 C   0  0  0  0  0  0  0  0  0  0  0  0
   -1.1082    0.4669   -0.3404 C   0  0  0  0  0  3  0  0  0  0  0  0
   -1.1082    2.1243    0.4046 S   0  0  0  0  0  0  0  0  0  0  0  0
   -0.2016    0.9323   -2.2498 H   0  0  0  0  0  0  0  0  0  0  0  0
   -1.9642    1.0181   -2.2492 H   0  0  0  0  0  0  0  0  0  0  0  0
   -1.1513   -0.5565   -2.2394 H   0  0  0  0  0  0  0  0  0  0  0  0
   -0.0963   -0.2124    0.1337 H   0  0  0  0  0  0  0  0  0  0  0  0
   -2.0158   -0.0002    0.0447 H   0  0  0  0  0  0  0  0  0  0  0  0
    0.0666    2.5259   -0.0990 H   0  0  0  0  0  0  0  0  0  0  0  0
  1  2  3  0
  1  5  1  0
  2  3  1  0
  3  4  2  3
  3 14  1  0
  4  6  1  0
  4  7  1  0
  8  9  1  0
  8 11  1  0
  8 12  1  0
  8 13  1  0
  9 10  1  0
  9 15  1  0
 10 16  1  0
M  RAD  1   9   2
M  END
>  <reaction>  (13) 
rxn_1954

>  <mol_properties>  (13) 
{"1": {"label": "*4", "atom_type": "Ct"}, "2": {"label": "*3", "atom_type": "Cd"}, "8": {"label": "*1", "atom_type": "Cs"}, "9": {"label": "*0", "atom_type": "S2s"}, "13": {"label": "*2", "atom_type": "H0"}}

>  <type>  (13) 
unop_9

>  <geom_source>  (13) 
Heuristics

$$$$

     RDKit          3D

 16 14  0  0  0  0  0  0  0  0999 V2000
    3.0875   -0.4274   -0.2240 C   0  0  0  0  0  0  0  0  0  0  0  0
    2.0080   -0.8287    0.1111 C   0  0  0  0  0  0  0  0  0  0  0  0
    0.7131   -1.2958    0.4815 C   0  0  0  0  0  0  0  0  0  0  0  0
    0.4406   -1.8851    1.6409 C   0  0  0  0  0  0  0  0  0  0  0  0
    4.0446   -0.0716   -0.5211 H   0  0  0  0  0  0  0  0  0  0  0  0
    1.2077   -2.0468    2.3873 H   0  0  0  0  0  0  0  0  0  0  0  0
   -0.5627   -2.2200    1.8685 H   0  0  0  0  0  0  0  0  0  0  0  0
   -1.3063    0.0599   -1.9834 C   0  0  0  0  0  0  0  0  0  0  0  0
   -1.3063    0.0599   -0.4647 C   0  0  0  0  0  3  0  0  0  0  0  0
   -1.3063    1.7172    0.2803 S   0  0  0  0  0  0  0  0  0  0  0  0
   -0.3996    0.5253   -2.3741 H   0  0  0  0  0  0  0  0  0  0  0  0
   -2.1622    0.6111   -2.3735 H   0  0  0  0  0  0  0  0  0  0  0  0
   -1.3493   -0.9635   -2.3636 H   0  0  0  0  0  0  0  0  0  0  0  0
   -0.2944   -0.6195    0.0094 H   0  0  0  0  0  0  0  0  0  0  0  0
   -2.2139   -0.4072   -0.0796 H   0  0  0  0  0  0  0  0  0  0  0  0
   -0.1315    2.1189   -0.2232 H   0  0  0  0  0  0  0  0  0  0  0  0
  1  2  3  0
  1  5  1  0
  2  3  1  0
  3  4  2  3
  3 14  1  0
  4  6  1  0
  4  7  1  0
  8  9  1  0
  8 11  1  0
  8 12  1  0
  8 13  1  0
  9 10  1  0
  9 15  1  0
 10 16  1  0
M  RAD  1   9   2
M  END
>  <reaction>  (14) 
rxn_1954

>  <mol_properties>  (14) 
{"1": {"label": "*4", "atom_type": "Ct"}, "2": {"label": "*3", "atom_type": "Cd"}, "8": {"label": "*1", "atom_type": "Cs"}, "9": {"label": "*0", "atom_type": "S2s"}, "13": {"label": "*2", "atom_type": "H0"}}

>  <type>  (14) 
unop_10

>  <geom_source>  (14) 
Heuristics

$$$$

     RDKit          3D

 16 14  0  0  0  0  0  0  0  0999 V2000
    0.6051   -2.2451    2.4709 C   0  0  0  0  0  0  0  0  0  0  0  0
    0.8054   -1.7097    1.4165 C   0  0  0  0  0  0  0  0  0  0  0  0
    1.0129   -1.0774    0.1559 C   0  0  0  0  0  0  0  0  0  0  0  0
    2.1849   -0.6020   -0.2517 C   0  0  0  0  0  0  0  0  0  0  0  0
    0.4275   -2.7199    3.4058 H   0  0  0  0  0  0  0  0  0  0  0  0
    3.0697   -0.6708    0.3680 H   0  0  0  0  0  0  0  0  0  0  0  0
    2.2836   -0.1309   -1.2207 H   0  0  0  0  0  0  0  0  0  0  0  0
   -1.0065    0.2783   -2.3090 C   0  0  0  0  0  0  0  0  0  0  0  0
   -1.0065    0.2783   -0.7903 C   0  0  0  0  0  3  0  0  0  0  0  0
   -1.0065    1.9356   -0.0453 S   0  0  0  0  0  0  0  0  0  0  0  0
   -0.0999    0.7437   -2.6997 H   0  0  0  0  0  0  0  0  0  0  0  0
   -1.8625    0.8295   -2.6991 H   0  0  0  0  0  0  0  0  0  0  0  0
   -1.0496   -0.7451   -2.6893 H   0  0  0  0  0  0  0  0  0  0  0  0
    0.0054   -0.4011   -0.3162 H   0  0  0  0  0  0  0  0  0  0  0  0
   -1.9141   -0.1888   -0.4052 H   0  0  0  0  0  0  0  0  0  0  0  0
    0.1683    2.3373   -0.5489 H   0  0  0  0  0  0  0  0  0  0  0  0
  1  2  3  0
  1  5  1  0
  2  3  1  0
  3  4  2  3
  3 14  1  0
  4  6  1  0
  4  7  1  0
  8  9  1  0
  8 11  1  0
  8 12  1  0
  8 13  1  0
  9 10  1  0
  9 15  1  0
 10 16  1  0
M  RAD  1   9   2
M  END
>  <reaction>  (15) 
rxn_1954

>  <mol_properties>  (15) 
{"1": {"label": "*4", "atom_type": "Ct"}, "2": {"label": "*3", "atom_type": "Cd"}, "8": {"label": "*1", "atom_type": "Cs"}, "9": {"label": "*0", "atom_type": "S2s"}, "13": {"label": "*2", "atom_type": "H0"}}

>  <type>  (15) 
unop_11

>  <geom_source>  (15) 
Heuristics

$$$$

     RDKit          3D

 16 14  0  0  0  0  0  0  0  0999 V2000
    2.3793   -2.0819   -1.1463 C   0  0  0  0  0  0  0  0  0  0  0  0
    1.6632   -1.6011   -0.3128 C   0  0  0  0  0  0  0  0  0  0  0  0
    0.7939   -1.0175    0.6546 C   0  0  0  0  0  0  0  0  0  0  0  0
    0.9627   -1.1308    1.9678 C   0  0  0  0  0  0  0  0  0  0  0  0
    3.0142   -2.5081   -1.8853 H   0  0  0  0  0  0  0  0  0  0  0  0
    1.7918   -1.6874    2.3856 H   0  0  0  0  0  0  0  0  0  0  0  0
    0.2699   -0.6657    2.6564 H   0  0  0  0  0  0  0  0  0  0  0  0
   -1.2255    0.3382   -1.8102 C   0  0  0  0  0  0  0  0  0  0  0  0
   -1.2255    0.3382   -0.2916 C   0  0  0  0  0  3  0  0  0  0  0  0
   -1.2255    1.9955    0.4534 S   0  0  0  0  0  0  0  0  0  0  0  0
   -0.3188    0.8036   -2.2010 H   0  0  0  0  0  0  0  0  0  0  0  0
   -2.0814    0.8894   -2.2003 H   0  0  0  0  0  0  0  0  0  0  0  0
   -1.2685   -0.6852   -2.1905 H   0  0  0  0  0  0  0  0  0  0  0  0
   -0.2135   -0.3412    0.1826 H   0  0  0  0  0  0  0  0  0  0  0  0
   -2.1331   -0.1289    0.0936 H   0  0  0  0  0  0  0  0  0  0  0  0
   -0.0507    2.3972   -0.0501 H   0  0  0  0  0  0  0  0  0  0  0  0
  1  2  3  0
  1  5  1  0
  2  3  1  0
  3  4  2  3
  3 14  1  0
  4  6  1  0
  4  7  1  0
  8  9  1  0
  8 11  1  0
  8 12  1  0
  8 13  1  0
  9 10  1  0
  9 15  1  0
 10 16  1  0
M  RAD  1   9   2
M  END
>  <reaction>  (16) 
rxn_1954

>  <mol_properties>  (16) 
{"1": {"label": "*4", "atom_type": "Ct"}, "2": {"label": "*3", "atom_type": "Cd"}, "8": {"label": "*1", "atom_type": "Cs"}, "9": {"label": "*0", "atom_type": "S2s"}, "13": {"label": "*2", "atom_type": "H0"}}

>  <type>  (16) 
unop_12

>  <geom_source>  (16) 
Heuristics

$$$$

     RDKit          3D

 16 14  0  0  0  0  0  0  0  0999 V2000
   -1.4166    2.0874    0.4921 S   0  0  0  0  0  0  0  0  0  0  0  0
   -2.3852   -0.3530   -0.3391 C   0  0  0  0  0  0  0  0  0  0  0  0
   -1.1423    0.3070    0.2360 C   0  0  0  0  0  3  0  0  0  0  0  0
    1.4204   -0.1928    0.1329 C   0  0  0  0  0  0  0  0  0  0  0  0
    1.8623   -1.1669    0.9197 C   0  0  0  0  0  0  0  0  0  0  0  0
    2.2140    0.2837   -0.9676 C   0  0  0  0  0  0  0  0  0  0  0  0
    2.8785    0.6839   -1.8905 C   0  0  0  0  0  0  0  0  0  0  0  0
   -2.6516    0.1206   -1.3072 H   0  0  0  0  0  0  0  0  0  0  0  0
   -3.2361   -0.2554    0.3680 H   0  0  0  0  0  0  0  0  0  0  0  0
   -2.1825   -1.4302   -0.5126 H   0  0  0  0  0  0  0  0  0  0  0  0
   -0.8616   -0.1727    1.1975 H   0  0  0  0  0  0  0  0  0  0  0  0
    0.3050    0.3177    0.3469 H   0  0  0  0  0  0  0  0  0  0  0  0
    2.8292   -1.6268    0.7538 H   0  0  0  0  0  0  0  0  0  0  0  0
    1.2512   -1.5123    1.7429 H   0  0  0  0  0  0  0  0  0  0  0  0
   -2.3466    1.8747    1.5279 H   0  0  0  0  0  0  0  0  0  0  0  0
    3.4619    1.0352   -2.7006 H   0  0  0  0  0  0  0  0  0  0  0  0
  1  3  1  0
  1 15  1  0
  2  3  1  0
  2  8  1  0
  2  9  1  0
  2 10  1  0
  3 11  1  0
  4  5  2  3
  4  6  1  0
  4 12  1  0
  5 13  1  0
  5 14  1  0
  6  7  3  0
  7 16  1  0
M  RAD  1   3   2
M  END
>  <reaction>  (17) 
rxn_1954

>  <mol_properties>  (17) 
{"1": {"label": "*4", "atom_type": "Ct"}, "2": {"label": "*3", "atom_type": "Cd"}, "8": {"label": "*1", "atom_type": "Cs"}, "9": {"label": "*0", "atom_type": "S2s"}, "13": {"label": "*2", "atom_type": "H0"}}

>  <type>  (17) 
unop_13

>  <geom_source>  (17) 
AutoTST

$$$$
