
     RDKit          3D

 13 12  0  0  0  0  0  0  0  0999 V2000
    3.0977   -0.3549   -0.5105 C   0  0  0  0  0  0  0  0  0  0  0  0
    2.0556    0.4221   -0.2627 C   0  0  0  0  0  0  0  0  0  0  0  0
    0.6313   -0.0354   -0.2366 C   0  0  0  0  0  0  0  0  0  0  0  0
   -0.2567    0.6038   -1.2694 C   0  0  0  0  0  0  0  0  0  0  0  0
    0.1459    1.3456   -2.2891 C   0  0  0  0  0  0  0  0  0  0  0  0
    4.1081    0.0344   -0.5074 H   0  0  0  0  0  0  0  0  0  0  0  0
    2.9777   -1.4116   -0.7243 H   0  0  0  0  0  0  0  0  0  0  0  0
    2.2171    1.4781   -0.0618 H   0  0  0  0  0  0  0  0  0  0  0  0
    0.5865   -1.1233   -0.3540 H   0  0  0  0  0  0  0  0  0  0  0  0
    0.2065    0.1743    0.7521 H   0  0  0  0  0  0  0  0  0  0  0  0
   -1.3190    0.4126   -1.1445 H   0  0  0  0  0  0  0  0  0  0  0  0
    1.1948    1.5564   -2.4628 H   0  0  0  0  0  0  0  0  0  0  0  0
   -0.5644    1.7621   -2.9918 H   0  0  0  0  0  0  0  0  0  0  0  0
  1  2  2  3
  1  6  1  0
  1  7  1  0
  2  3  1  0
  2  8  1  0
  3  4  1  0
  3  9  1  0
  3 10  1  0
  4  5  2  3
  4 11  1  0
  5 12  1  0
  5 13  1  0
M  END
>  <reaction>  (1) 
rxn_1155

>  <mol_properties>  (1) 
{"2": {"label": "donator", "atom_type": "Cs"}, "8": {"label": "d_hydrogen", "atom_type": "H0"}}

>  <type>  (1) 
r1h

$$$$

     RDKit          3D

  7  6  0  0  0  0  0  0  0  0999 V2000
   -1.3496    0.0255    0.0758 C   0  0  0  0  0  0  0  0  0  0  0  0
   -0.0636   -0.0704   -0.0033 C   0  0  0  0  0  0  0  0  0  0  0  0
    1.2597   -0.1602   -0.0839 C   0  0  0  0  0  0  0  0  0  0  0  0
    2.2616    1.2090   -0.0064 S   0  0  0  0  0  1  0  0  0  0  0  0
   -1.8547   -0.0180    1.0345 H   0  0  0  0  0  0  0  0  0  0  0  0
   -1.9552    0.1601   -0.8138 H   0  0  0  0  0  0  0  0  0  0  0  0
    1.7017   -1.1460   -0.2029 H   0  0  0  0  0  0  0  0  0  0  0  0
  1  2  2  0
  1  5  1  0
  1  6  1  0
  2  3  2  0
  3  4  1  0
  3  7  1  0
M  RAD  1   4   2
M  END
>  <reaction>  (2) 
rxn_1155

>  <mol_properties>  (2) 
{"1": {"label": "acceptor", "atom_type": "Cd"}}

>  <type>  (2) 
r2

$$$$

     RDKit          3D

  8  7  0  0  0  0  0  0  0  0999 V2000
   -1.1617    0.0338    0.5053 C   0  0  0  0  0  0  0  0  0  0  0  0
   -0.1023    0.4503   -0.1863 C   0  0  0  0  0  0  0  0  0  0  0  0
    1.0978   -0.3557   -0.3104 C   0  0  0  0  0  0  0  0  0  0  0  0
    2.4251    0.0667   -1.1256 S   0  0  0  0  0  0  0  0  0  0  0  0
   -1.1653   -0.9292    1.0039 H   0  0  0  0  0  0  0  0  0  0  0  0
   -2.0546    0.6389    0.5948 H   0  0  0  0  0  0  0  0  0  0  0  0
   -0.0991    1.4132   -0.6847 H   0  0  0  0  0  0  0  0  0  0  0  0
    1.0601   -1.3180    0.2032 H   0  0  0  0  0  0  0  0  0  0  0  0
  1  2  2  3
  1  5  1  0
  1  6  1  0
  2  3  1  0
  2  7  1  0
  3  4  2  0
  3  8  1  0
M  END
>  <reaction>  (3) 
rxn_1155

>  <mol_properties>  (3) 
{"1": {"label": "acceptor", "atom_type": "Cd"}, "7": {"label": "a_hydrogen", "atom_type": "H0"}}

>  <type>  (3) 
r2h

$$$$

     RDKit          3D

 20 18  0  0  0  0  0  0  0  0999 V2000
    1.4660    2.1467   -0.1777 C   0  0  0  0  0  0  0  0  0  0  0  0
    0.4264    1.4456   -0.5569 C   0  0  0  0  0  0  0  0  0  0  0  0
   -0.7757    1.4856   -1.2753 C   0  0  0  0  0  0  0  0  0  0  0  0
   -2.2615    1.5644   -0.5765 S   0  0  0  0  0  1  0  0  0  0  0  0
    1.5513    3.2023   -0.4147 H   0  0  0  0  0  0  0  0  0  0  0  0
    2.2670    1.6943    0.3969 H   0  0  0  0  0  0  0  0  0  0  0  0
   -0.6921    1.3559   -2.3543 H   0  0  0  0  0  0  0  0  0  0  0  0
   -0.7745   -2.2191   -1.1294 C   0  0  0  0  0  0  0  0  0  0  0  0
    0.3916   -1.8871   -0.5803 C   0  0  0  0  0  0  0  0  0  0  0  0
    0.5098   -0.9740    0.5583 C   0  0  0  0  0  0  0  0  0  0  0  0
    1.6923   -0.9706    1.4279 C   0  0  0  0  0  0  0  0  0  0  0  0
    2.8316   -1.6331    1.2332 C   0  0  0  0  0  0  0  0  0  0  0  0
   -0.8249   -2.8589   -2.0008 H   0  0  0  0  0  0  0  0  0  0  0  0
   -1.7135   -1.8645   -0.7197 H   0  0  0  0  0  0  0  0  0  0  0  0
    1.3090   -2.2478   -1.0333 H   0  0  0  0  0  0  0  0  0  0  0  0
    0.5242    0.1820   -0.0129 H   0  0  0  0  0  0  0  0  0  0  0  0
   -0.4269   -0.8318    1.0975 H   0  0  0  0  0  0  0  0  0  0  0  0
    1.6088   -0.3340    2.3035 H   0  0  0  0  0  0  0  0  0  0  0  0
    2.9856   -2.2945    0.3899 H   0  0  0  0  0  0  0  0  0  0  0  0
    3.6505   -1.5414    1.9343 H   0  0  0  0  0  0  0  0  0  0  0  0
  1  2  2  0
  1  5  1  0
  1  6  1  0
  2  3  2  0
  3  4  1  0
  3  7  1  0
  8  9  2  3
  8 13  1  0
  8 14  1  0
  9 10  1  0
  9 15  1  0
 10 11  1  0
 10 16  1  0
 10 17  1  0
 11 12  2  3
 11 18  1  0
 12 19  1  0
 12 20  1  0
M  RAD  1   4   2
M  END
>  <reaction>  (4) 
rxn_1155

>  <mol_properties>  (4) 
{"1": {"label": "*3", "atom_type": "Cdd"}, "2": {"label": "*4", "atom_type": "Cd"}, "8": {"label": "*0", "atom_type": "Cd"}, "9": {"label": "*1", "atom_type": "Cs"}, "15": {"label": "*2", "atom_type": "H0"}}

>  <type>  (4) 
ts

$$$$

     RDKit          3D

 20 18  0  0  0  0  0  0  0  0999 V2000
   -2.1203    2.1232   -0.3756 C   0  0  0  0  0  0  0  0  0  0  0  0
   -1.0946    1.2867   -0.5246 C   0  0  0  0  0  0  0  0  0  0  0  0
    0.2694    1.7623   -0.6605 C   0  0  0  0  0  0  0  0  0  0  0  0
    1.5703    0.8250   -0.8447 S   0  0  0  0  0  0  0  0  0  0  0  0
   -1.9718    3.1970   -0.3503 H   0  0  0  0  0  0  0  0  0  0  0  0
   -3.1360    1.7632   -0.2746 H   0  0  0  0  0  0  0  0  0  0  0  0
    0.3828    2.8475   -0.6309 H   0  0  0  0  0  0  0  0  0  0  0  0
   -0.8556   -2.0725   -1.2122 C   0  0  0  0  0  0  0  0  0  0  0  0
   -0.8556   -2.0725    0.1111 C   0  0  0  0  0  0  0  0  0  0  0  0
   -0.8556   -0.8467    0.9691 C   0  0  0  0  0  3  0  0  0  0  0  0
    0.3541   -0.6923    1.8503 C   0  0  0  0  0  0  0  0  0  0  0  0
    1.4652   -1.4080    1.7779 C   0  0  0  0  0  0  0  0  0  0  0  0
   -0.8638   -2.9952   -1.7787 H   0  0  0  0  0  0  0  0  0  0  0  0
   -0.8493   -1.1470   -1.7781 H   0  0  0  0  0  0  0  0  0  0  0  0
   -0.8531   -3.0212    0.6416 H   0  0  0  0  0  0  0  0  0  0  0  0
   -0.9757    0.2253    0.2185 H   0  0  0  0  0  0  0  0  0  0  0  0
   -1.7436   -0.8601    1.6119 H   0  0  0  0  0  0  0  0  0  0  0  0
    0.2814    0.0927    2.5980 H   0  0  0  0  0  0  0  0  0  0  0  0
    1.5907   -2.1948    1.0430 H   0  0  0  0  0  0  0  0  0  0  0  0
    2.2935   -1.2237    2.4502 H   0  0  0  0  0  0  0  0  0  0  0  0
  1  2  2  3
  1  5  1  0
  1  6  1  0
  2  3  1  0
  2 16  1  0
  3  4  2  0
  3  7  1  0
  8  9  2  3
  8 13  1  0
  8 14  1  0
  9 10  1  0
  9 15  1  0
 10 11  1  0
 10 17  1  0
 11 12  2  3
 11 18  1  0
 12 19  1  0
 12 20  1  0
M  RAD  1  10   2
M  END
>  <reaction>  (5) 
rxn_1155

>  <mol_properties>  (5) 
{"1": {"label": "*3", "atom_type": "Cdd"}, "2": {"label": "*4", "atom_type": "Cd"}, "8": {"label": "*0", "atom_type": "Cd"}, "9": {"label": "*1", "atom_type": "Cs"}, "15": {"label": "*2", "atom_type": "H0"}}

>  <type>  (5) 
unop_1

>  <geom_source>  (5) 
Heuristics

$$$$

     RDKit          3D

 20 18  0  0  0  0  0  0  0  0999 V2000
   -1.3294    0.8479   -2.1632 C   0  0  0  0  0  0  0  0  0  0  0  0
   -0.6669    0.8837   -1.0083 C   0  0  0  0  0  0  0  0  0  0  0  0
   -0.3743    2.1328   -0.3303 C   0  0  0  0  0  0  0  0  0  0  0  0
    0.4200    2.2717    1.0677 S   0  0  0  0  0  0  0  0  0  0  0  0
   -1.6762    1.7572   -2.6416 H   0  0  0  0  0  0  0  0  0  0  0  0
   -1.5451   -0.0865   -2.6649 H   0  0  0  0  0  0  0  0  0  0  0  0
   -0.7374    3.0277   -0.8389 H   0  0  0  0  0  0  0  0  0  0  0  0
   -0.4280   -2.4754   -1.6958 C   0  0  0  0  0  0  0  0  0  0  0  0
   -0.4280   -2.4754   -0.3726 C   0  0  0  0  0  0  0  0  0  0  0  0
   -0.4280   -1.2496    0.4854 C   0  0  0  0  0  3  0  0  0  0  0  0
    0.7818   -1.0952    1.3666 C   0  0  0  0  0  0  0  0  0  0  0  0
    1.8929   -1.8109    1.2942 C   0  0  0  0  0  0  0  0  0  0  0  0
   -0.4361   -3.3981   -2.2624 H   0  0  0  0  0  0  0  0  0  0  0  0
   -0.4216   -1.5500   -2.2618 H   0  0  0  0  0  0  0  0  0  0  0  0
   -0.4254   -3.4242    0.1579 H   0  0  0  0  0  0  0  0  0  0  0  0
   -0.5480   -0.1776   -0.2651 H   0  0  0  0  0  0  0  0  0  0  0  0
   -1.3159   -1.2631    1.1282 H   0  0  0  0  0  0  0  0  0  0  0  0
    0.7091   -0.3102    2.1143 H   0  0  0  0  0  0  0  0  0  0  0  0
    2.0184   -2.5978    0.5593 H   0  0  0  0  0  0  0  0  0  0  0  0
    2.7211   -1.6266    1.9665 H   0  0  0  0  0  0  0  0  0  0  0  0
  1  2  2  3
  1  5  1  0
  1  6  1  0
  2  3  1  0
  2 16  1  0
  3  4  2  0
  3  7  1  0
  8  9  2  3
  8 13  1  0
  8 14  1  0
  9 10  1  0
  9 15  1  0
 10 11  1  0
 10 17  1  0
 11 12  2  3
 11 18  1  0
 12 19  1  0
 12 20  1  0
M  RAD  1  10   2
M  END
>  <reaction>  (6) 
rxn_1155

>  <mol_properties>  (6) 
{"1": {"label": "*3", "atom_type": "Cdd"}, "2": {"label": "*4", "atom_type": "Cd"}, "8": {"label": "*0", "atom_type": "Cd"}, "9": {"label": "*1", "atom_type": "Cs"}, "15": {"label": "*2", "atom_type": "H0"}}

>  <type>  (6) 
unop_2

>  <geom_source>  (6) 
Heuristics

$$$$

     RDKit          3D

 20 18  0  0  0  0  0  0  0  0999 V2000
   -1.5540    2.5706    0.2346 C   0  0  0  0  0  0  0  0  0  0  0  0
   -0.9568    1.4709   -0.2217 C   0  0  0  0  0  0  0  0  0  0  0  0
    0.2009    1.5326   -1.0942 C   0  0  0  0  0  0  0  0  0  0  0  0
    0.9865    0.2566   -1.6936 S   0  0  0  0  0  0  0  0  0  0  0  0
   -1.1938    3.5582   -0.0313 H   0  0  0  0  0  0  0  0  0  0  0  0
   -2.4174    2.5190    0.8852 H   0  0  0  0  0  0  0  0  0  0  0  0
    0.5366    2.5413   -1.3415 H   0  0  0  0  0  0  0  0  0  0  0  0
   -0.7179   -1.8883   -0.9093 C   0  0  0  0  0  0  0  0  0  0  0  0
   -0.7179   -1.8883    0.4140 C   0  0  0  0  0  0  0  0  0  0  0  0
   -0.7179   -0.6625    1.2720 C   0  0  0  0  0  3  0  0  0  0  0  0
    0.4919   -0.5081    2.1532 C   0  0  0  0  0  0  0  0  0  0  0  0
    1.6030   -1.2238    2.0807 C   0  0  0  0  0  0  0  0  0  0  0  0
   -0.7260   -2.8110   -1.4758 H   0  0  0  0  0  0  0  0  0  0  0  0
   -0.7115   -0.9628   -1.4753 H   0  0  0  0  0  0  0  0  0  0  0  0
   -0.7153   -2.8370    0.9445 H   0  0  0  0  0  0  0  0  0  0  0  0
   -0.8379    0.4095    0.5214 H   0  0  0  0  0  0  0  0  0  0  0  0
   -1.6058   -0.6760    1.9147 H   0  0  0  0  0  0  0  0  0  0  0  0
    0.4192    0.2769    2.9009 H   0  0  0  0  0  0  0  0  0  0  0  0
    1.7285   -2.0107    1.3459 H   0  0  0  0  0  0  0  0  0  0  0  0
    2.4312   -1.0395    2.7531 H   0  0  0  0  0  0  0  0  0  0  0  0
  1  2  2  3
  1  5  1  0
  1  6  1  0
  2  3  1  0
  2 16  1  0
  3  4  2  0
  3  7  1  0
  8  9  2  3
  8 13  1  0
  8 14  1  0
  9 10  1  0
  9 15  1  0
 10 11  1  0
 10 17  1  0
 11 12  2  3
 11 18  1  0
 12 19  1  0
 12 20  1  0
M  RAD  1  10   2
M  END
>  <reaction>  (7) 
rxn_1155

>  <mol_properties>  (7) 
{"1": {"label": "*3", "atom_type": "Cdd"}, "2": {"label": "*4", "atom_type": "Cd"}, "8": {"label": "*0", "atom_type": "Cd"}, "9": {"label": "*1", "atom_type": "Cs"}, "15": {"label": "*2", "atom_type": "H0"}}

>  <type>  (7) 
unop_3

>  <geom_source>  (7) 
Heuristics

$$$$

     RDKit          3D

 20 18  0  0  0  0  0  0  0  0999 V2000
    0.8215    1.2995   -1.9307 C   0  0  0  0  0  0  0  0  0  0  0  0
   -0.0780    1.0086   -0.9924 C   0  0  0  0  0  0  0  0  0  0  0  0
   -0.7880    2.0431   -0.2636 C   0  0  0  0  0  0  0  0  0  0  0  0
   -1.8909    1.7848    0.8860 S   0  0  0  0  0  0  0  0  0  0  0  0
    1.0571    2.3268   -2.1854 H   0  0  0  0  0  0  0  0  0  0  0  0
    1.3484    0.5240   -2.4715 H   0  0  0  0  0  0  0  0  0  0  0  0
   -0.5268    3.0649   -0.5448 H   0  0  0  0  0  0  0  0  0  0  0  0
    0.1610   -2.3505   -1.6800 C   0  0  0  0  0  0  0  0  0  0  0  0
    0.1610   -2.3505   -0.3568 C   0  0  0  0  0  0  0  0  0  0  0  0
    0.1610   -1.1247    0.5012 C   0  0  0  0  0  3  0  0  0  0  0  0
    1.3707   -0.9704    1.3825 C   0  0  0  0  0  0  0  0  0  0  0  0
    2.4819   -1.6861    1.3100 C   0  0  0  0  0  0  0  0  0  0  0  0
    0.1528   -3.2733   -2.2465 H   0  0  0  0  0  0  0  0  0  0  0  0
    0.1673   -1.4251   -2.2460 H   0  0  0  0  0  0  0  0  0  0  0  0
    0.1636   -3.2993    0.1738 H   0  0  0  0  0  0  0  0  0  0  0  0
    0.0409   -0.0528   -0.2493 H   0  0  0  0  0  0  0  0  0  0  0  0
   -0.7270   -1.1382    1.1440 H   0  0  0  0  0  0  0  0  0  0  0  0
    1.2980   -0.1853    2.1302 H   0  0  0  0  0  0  0  0  0  0  0  0
    2.6073   -2.4729    0.5752 H   0  0  0  0  0  0  0  0  0  0  0  0
    3.3101   -1.5018    1.9824 H   0  0  0  0  0  0  0  0  0  0  0  0
  1  2  2  3
  1  5  1  0
  1  6  1  0
  2  3  1  0
  2 16  1  0
  3  4  2  0
  3  7  1  0
  8  9  2  3
  8 13  1  0
  8 14  1  0
  9 10  1  0
  9 15  1  0
 10 11  1  0
 10 17  1  0
 11 12  2  3
 11 18  1  0
 12 19  1  0
 12 20  1  0
M  RAD  1  10   2
M  END
>  <reaction>  (8) 
rxn_1155

>  <mol_properties>  (8) 
{"1": {"label": "*3", "atom_type": "Cdd"}, "2": {"label": "*4", "atom_type": "Cd"}, "8": {"label": "*0", "atom_type": "Cd"}, "9": {"label": "*1", "atom_type": "Cs"}, "15": {"label": "*2", "atom_type": "H0"}}

>  <type>  (8) 
unop_4

>  <geom_source>  (8) 
Heuristics

$$$$

     RDKit          3D

 20 18  0  0  0  0  0  0  0  0999 V2000
   -0.4569    2.8031    0.5202 C   0  0  0  0  0  0  0  0  0  0  0  0
   -0.4314    1.5839   -0.0155 C   0  0  0  0  0  0  0  0  0  0  0  0
   -0.5342    1.3729   -1.4473 C   0  0  0  0  0  0  0  0  0  0  0  0
   -0.5126   -0.0636   -2.1826 S   0  0  0  0  0  0  0  0  0  0  0  0
   -0.5559    3.6879   -0.0989 H   0  0  0  0  0  0  0  0  0  0  0  0
   -0.3798    2.9551    1.5890 H   0  0  0  0  0  0  0  0  0  0  0  0
   -0.6326    2.2841   -2.0401 H   0  0  0  0  0  0  0  0  0  0  0  0
   -0.1925   -1.7752   -0.7031 C   0  0  0  0  0  0  0  0  0  0  0  0
   -0.1925   -1.7752    0.6202 C   0  0  0  0  0  0  0  0  0  0  0  0
   -0.1925   -0.5494    1.4782 C   0  0  0  0  0  3  0  0  0  0  0  0
    1.0173   -0.3951    2.3594 C   0  0  0  0  0  0  0  0  0  0  0  0
    2.1284   -1.1108    2.2870 C   0  0  0  0  0  0  0  0  0  0  0  0
   -0.2006   -2.6980   -1.2696 H   0  0  0  0  0  0  0  0  0  0  0  0
   -0.1861   -0.8498   -1.2690 H   0  0  0  0  0  0  0  0  0  0  0  0
   -0.1899   -2.7240    1.1507 H   0  0  0  0  0  0  0  0  0  0  0  0
   -0.3125    0.5225    0.7276 H   0  0  0  0  0  0  0  0  0  0  0  0
   -1.0804   -0.5629    2.1210 H   0  0  0  0  0  0  0  0  0  0  0  0
    0.9446    0.3899    3.1071 H   0  0  0  0  0  0  0  0  0  0  0  0
    2.2539   -1.8976    1.5521 H   0  0  0  0  0  0  0  0  0  0  0  0
    2.9566   -0.9265    2.9593 H   0  0  0  0  0  0  0  0  0  0  0  0
  1  2  2  3
  1  5  1  0
  1  6  1  0
  2  3  1  0
  2 16  1  0
  3  4  2  0
  3  7  1  0
  8  9  2  3
  8 13  1  0
  8 14  1  0
  9 10  1  0
  9 15  1  0
 10 11  1  0
 10 17  1  0
 11 12  2  3
 11 18  1  0
 12 19  1  0
 12 20  1  0
M  RAD  1  10   2
M  END
>  <reaction>  (9) 
rxn_1155

>  <mol_properties>  (9) 
{"1": {"label": "*3", "atom_type": "Cdd"}, "2": {"label": "*4", "atom_type": "Cd"}, "8": {"label": "*0", "atom_type": "Cd"}, "9": {"label": "*1", "atom_type": "Cs"}, "15": {"label": "*2", "atom_type": "H0"}}

>  <type>  (9) 
unop_5

>  <geom_source>  (9) 
Heuristics

$$$$

     RDKit          3D

 20 18  0  0  0  0  0  0  0  0999 V2000
    1.1654    1.7949   -1.3433 C   0  0  0  0  0  0  0  0  0  0  0  0
    0.0952    1.1678   -0.8579 C   0  0  0  0  0  0  0  0  0  0  0  0
   -1.0382    1.8930   -0.3151 C   0  0  0  0  0  0  0  0  0  0  0  0
   -2.3729    1.2190    0.2924 S   0  0  0  0  0  0  0  0  0  0  0  0
    1.2284    2.8774   -1.3502 H   0  0  0  0  0  0  0  0  0  0  0  0
    2.0083    1.2492   -1.7471 H   0  0  0  0  0  0  0  0  0  0  0  0
   -0.9416    2.9800   -0.3376 H   0  0  0  0  0  0  0  0  0  0  0  0
    0.3342   -2.1914   -1.5455 C   0  0  0  0  0  0  0  0  0  0  0  0
    0.3342   -2.1914   -0.2223 C   0  0  0  0  0  0  0  0  0  0  0  0
    0.3342   -0.9656    0.6357 C   0  0  0  0  0  3  0  0  0  0  0  0
    1.5439   -0.8112    1.5169 C   0  0  0  0  0  0  0  0  0  0  0  0
    2.6551   -1.5269    1.4445 C   0  0  0  0  0  0  0  0  0  0  0  0
    0.3260   -3.1141   -2.1121 H   0  0  0  0  0  0  0  0  0  0  0  0
    0.3405   -1.2659   -2.1115 H   0  0  0  0  0  0  0  0  0  0  0  0
    0.3368   -3.1401    0.3082 H   0  0  0  0  0  0  0  0  0  0  0  0
    0.2141    0.1064   -0.1148 H   0  0  0  0  0  0  0  0  0  0  0  0
   -0.5538   -0.9790    1.2785 H   0  0  0  0  0  0  0  0  0  0  0  0
    1.4712   -0.0262    2.2646 H   0  0  0  0  0  0  0  0  0  0  0  0
    2.7805   -2.3137    0.7096 H   0  0  0  0  0  0  0  0  0  0  0  0
    3.4833   -1.3426    2.1168 H   0  0  0  0  0  0  0  0  0  0  0  0
  1  2  2  3
  1  5  1  0
  1  6  1  0
  2  3  1  0
  2 16  1  0
  3  4  2  0
  3  7  1  0
  8  9  2  3
  8 13  1  0
  8 14  1  0
  9 10  1  0
  9 15  1  0
 10 11  1  0
 10 17  1  0
 11 12  2  3
 11 18  1  0
 12 19  1  0
 12 20  1  0
M  RAD  1  10   2
M  END
>  <reaction>  (10) 
rxn_1155

>  <mol_properties>  (10) 
{"1": {"label": "*3", "atom_type": "Cdd"}, "2": {"label": "*4", "atom_type": "Cd"}, "8": {"label": "*0", "atom_type": "Cd"}, "9": {"label": "*1", "atom_type": "Cs"}, "15": {"label": "*2", "atom_type": "H0"}}

>  <type>  (10) 
unop_6

>  <geom_source>  (10) 
Heuristics

$$$$

     RDKit          3D

 20 18  0  0  0  0  0  0  0  0999 V2000
    1.1087    2.3040   -0.6339 C   0  0  0  0  0  0  0  0  0  0  0  0
    0.1715    1.3576   -0.6259 C   0  0  0  0  0  0  0  0  0  0  0  0
   -1.2411    1.6777   -0.5397 C   0  0  0  0  0  0  0  0  0  0  0  0
   -2.4426    0.6003   -0.5236 S   0  0  0  0  0  0  0  0  0  0  0  0
    0.8478    3.3549   -0.5759 H   0  0  0  0  0  0  0  0  0  0  0  0
    2.1611    2.0598   -0.6984 H   0  0  0  0  0  0  0  0  0  0  0  0
   -1.4680    2.7439   -0.4828 H   0  0  0  0  0  0  0  0  0  0  0  0
    0.4105   -2.0016   -1.3135 C   0  0  0  0  0  0  0  0  0  0  0  0
    0.4105   -2.0016    0.0098 C   0  0  0  0  0  0  0  0  0  0  0  0
    0.4105   -0.7758    0.8678 C   0  0  0  0  0  3  0  0  0  0  0  0
    1.6202   -0.6214    1.7490 C   0  0  0  0  0  0  0  0  0  0  0  0
    2.7313   -1.3371    1.6766 C   0  0  0  0  0  0  0  0  0  0  0  0
    0.4023   -2.9243   -1.8800 H   0  0  0  0  0  0  0  0  0  0  0  0
    0.4168   -1.0761   -1.8794 H   0  0  0  0  0  0  0  0  0  0  0  0
    0.4130   -2.9503    0.5403 H   0  0  0  0  0  0  0  0  0  0  0  0
    0.2904    0.2962    0.1172 H   0  0  0  0  0  0  0  0  0  0  0  0
   -0.4775   -0.7892    1.5106 H   0  0  0  0  0  0  0  0  0  0  0  0
    1.5475    0.1636    2.4967 H   0  0  0  0  0  0  0  0  0  0  0  0
    2.8568   -2.1239    0.9417 H   0  0  0  0  0  0  0  0  0  0  0  0
    3.5595   -1.1528    2.3489 H   0  0  0  0  0  0  0  0  0  0  0  0
  1  2  2  3
  1  5  1  0
  1  6  1  0
  2  3  1  0
  2 16  1  0
  3  4  2  0
  3  7  1  0
  8  9  2  3
  8 13  1  0
  8 14  1  0
  9 10  1  0
  9 15  1  0
 10 11  1  0
 10 17  1  0
 11 12  2  3
 11 18  1  0
 12 19  1  0
 12 20  1  0
M  RAD  1  10   2
M  END
>  <reaction>  (11) 
rxn_1155

>  <mol_properties>  (11) 
{"1": {"label": "*3", "atom_type": "Cdd"}, "2": {"label": "*4", "atom_type": "Cd"}, "8": {"label": "*0", "atom_type": "Cd"}, "9": {"label": "*1", "atom_type": "Cs"}, "15": {"label": "*2", "atom_type": "H0"}}

>  <type>  (11) 
unop_7

>  <geom_source>  (11) 
Heuristics

$$$$

     RDKit          3D

 20 18  0  0  0  0  0  0  0  0999 V2000
   -2.2320    1.6047   -1.0715 C   0  0  0  0  0  0  0  0  0  0  0  0
   -1.0355    1.1045   -0.7675 C   0  0  0  0  0  0  0  0  0  0  0  0
    0.0821    1.9558   -0.4048 C   0  0  0  0  0  0  0  0  0  0  0  0
    1.5626    1.4394   -0.0225 S   0  0  0  0  0  0  0  0  0  0  0  0
   -2.4150    2.6734   -1.0587 H   0  0  0  0  0  0  0  0  0  0  0  0
   -3.0624    0.9652   -1.3414 H   0  0  0  0  0  0  0  0  0  0  0  0
   -0.1368    3.0251   -0.4020 H   0  0  0  0  0  0  0  0  0  0  0  0
   -0.7965   -2.2547   -1.4551 C   0  0  0  0  0  0  0  0  0  0  0  0
   -0.7965   -2.2547   -0.1318 C   0  0  0  0  0  0  0  0  0  0  0  0
   -0.7965   -1.0289    0.7262 C   0  0  0  0  0  3  0  0  0  0  0  0
    0.4132   -0.8745    1.6074 C   0  0  0  0  0  0  0  0  0  0  0  0
    1.5243   -1.5902    1.5350 C   0  0  0  0  0  0  0  0  0  0  0  0
   -0.8047   -3.1774   -2.0216 H   0  0  0  0  0  0  0  0  0  0  0  0
   -0.7902   -1.3292   -2.0210 H   0  0  0  0  0  0  0  0  0  0  0  0
   -0.7940   -3.2034    0.3987 H   0  0  0  0  0  0  0  0  0  0  0  0
   -0.9166    0.0431   -0.0244 H   0  0  0  0  0  0  0  0  0  0  0  0
   -1.6845   -1.0424    1.3690 H   0  0  0  0  0  0  0  0  0  0  0  0
    0.3405   -0.0895    2.3551 H   0  0  0  0  0  0  0  0  0  0  0  0
    1.6498   -2.3771    0.8001 H   0  0  0  0  0  0  0  0  0  0  0  0
    2.3525   -1.4059    2.2073 H   0  0  0  0  0  0  0  0  0  0  0  0
  1  2  2  3
  1  5  1  0
  1  6  1  0
  2  3  1  0
  2 16  1  0
  3  4  2  0
  3  7  1  0
  8  9  2  3
  8 13  1  0
  8 14  1  0
  9 10  1  0
  9 15  1  0
 10 11  1  0
 10 17  1  0
 11 12  2  3
 11 18  1  0
 12 19  1  0
 12 20  1  0
M  RAD  1  10   2
M  END
>  <reaction>  (12) 
rxn_1155

>  <mol_properties>  (12) 
{"1": {"label": "*3", "atom_type": "Cdd"}, "2": {"label": "*4", "atom_type": "Cd"}, "8": {"label": "*0", "atom_type": "Cd"}, "9": {"label": "*1", "atom_type": "Cs"}, "15": {"label": "*2", "atom_type": "H0"}}

>  <type>  (12) 
unop_8

>  <geom_source>  (12) 
Heuristics

$$$$

     RDKit          3D

 20 18  0  0  0  0  0  0  0  0999 V2000
    0.1908    0.9331   -2.2849 C   0  0  0  0  0  0  0  0  0  0  0  0
   -0.2801    0.9054   -1.0392 C   0  0  0  0  0  0  0  0  0  0  0  0
   -0.5982    2.1202   -0.3124 C   0  0  0  0  0  0  0  0  0  0  0  0
   -1.1714    2.1826    1.1950 S   0  0  0  0  0  0  0  0  0  0  0  0
    0.3544    1.8709   -2.8041 H   0  0  0  0  0  0  0  0  0  0  0  0
    0.4266    0.0239   -2.8226 H   0  0  0  0  0  0  0  0  0  0  0  0
   -0.4219    3.0453   -0.8642 H   0  0  0  0  0  0  0  0  0  0  0  0
   -0.0411   -2.4537   -1.7268 C   0  0  0  0  0  0  0  0  0  0  0  0
   -0.0411   -2.4537   -0.4035 C   0  0  0  0  0  0  0  0  0  0  0  0
   -0.0411   -1.2279    0.4545 C   0  0  0  0  0  3  0  0  0  0  0  0
    1.1686   -1.0736    1.3357 C   0  0  0  0  0  0  0  0  0  0  0  0
    2.2798   -1.7893    1.2632 C   0  0  0  0  0  0  0  0  0  0  0  0
   -0.0493   -3.3765   -2.2933 H   0  0  0  0  0  0  0  0  0  0  0  0
   -0.0347   -1.5283   -2.2928 H   0  0  0  0  0  0  0  0  0  0  0  0
   -0.0385   -3.4025    0.1270 H   0  0  0  0  0  0  0  0  0  0  0  0
   -0.1612   -0.1560   -0.2961 H   0  0  0  0  0  0  0  0  0  0  0  0
   -0.9291   -1.2414    1.0972 H   0  0  0  0  0  0  0  0  0  0  0  0
    1.0959   -0.2885    2.0834 H   0  0  0  0  0  0  0  0  0  0  0  0
    2.4053   -2.5761    0.5284 H   0  0  0  0  0  0  0  0  0  0  0  0
    3.1080   -1.6050    1.9356 H   0  0  0  0  0  0  0  0  0  0  0  0
  1  2  2  3
  1  5  1  0
  1  6  1  0
  2  3  1  0
  2 16  1  0
  3  4  2  0
  3  7  1  0
  8  9  2  3
  8 13  1  0
  8 14  1  0
  9 10  1  0
  9 15  1  0
 10 11  1  0
 10 17  1  0
 11 12  2  3
 11 18  1  0
 12 19  1  0
 12 20  1  0
M  RAD  1  10   2
M  END
>  <reaction>  (13) 
rxn_1155

>  <mol_properties>  (13) 
{"1": {"label": "*3", "atom_type": "Cdd"}, "2": {"label": "*4", "atom_type": "Cd"}, "8": {"label": "*0", "atom_type": "Cd"}, "9": {"label": "*1", "atom_type": "Cs"}, "15": {"label": "*2", "atom_type": "H0"}}

>  <type>  (13) 
unop_9

>  <geom_source>  (13) 
Heuristics

$$$$

     RDKit          3D

 20 18  0  0  0  0  0  0  0  0999 V2000
   -1.9327    1.1452   -1.7104 C   0  0  0  0  0  0  0  0  0  0  0  0
   -0.8692    0.9643   -0.9291 C   0  0  0  0  0  0  0  0  0  0  0  0
   -0.1719    2.0776   -0.3129 C   0  0  0  0  0  0  0  0  0  0  0  0
    1.1210    1.9535    0.6450 S   0  0  0  0  0  0  0  0  0  0  0  0
   -2.3182    2.1378   -1.9154 H   0  0  0  0  0  0  0  0  0  0  0  0
   -2.4493    0.3113   -2.1677 H   0  0  0  0  0  0  0  0  0  0  0  0
   -0.5861    3.0616   -0.5401 H   0  0  0  0  0  0  0  0  0  0  0  0
   -0.6303   -2.3949   -1.6167 C   0  0  0  0  0  0  0  0  0  0  0  0
   -0.6303   -2.3949   -0.2934 C   0  0  0  0  0  0  0  0  0  0  0  0
   -0.6303   -1.1690    0.5646 C   0  0  0  0  0  3  0  0  0  0  0  0
    0.5795   -1.0147    1.4458 C   0  0  0  0  0  0  0  0  0  0  0  0
    1.6906   -1.7304    1.3733 C   0  0  0  0  0  0  0  0  0  0  0  0
   -0.6384   -3.3176   -2.1832 H   0  0  0  0  0  0  0  0  0  0  0  0
   -0.6239   -1.4694   -2.1827 H   0  0  0  0  0  0  0  0  0  0  0  0
   -0.6277   -3.3436    0.2371 H   0  0  0  0  0  0  0  0  0  0  0  0
   -0.7503   -0.0971   -0.1860 H   0  0  0  0  0  0  0  0  0  0  0  0
   -1.5182   -1.1825    1.2073 H   0  0  0  0  0  0  0  0  0  0  0  0
    0.5068   -0.2297    2.1935 H   0  0  0  0  0  0  0  0  0  0  0  0
    1.8161   -2.5172    0.6385 H   0  0  0  0  0  0  0  0  0  0  0  0
    2.5188   -1.5461    2.0457 H   0  0  0  0  0  0  0  0  0  0  0  0
  1  2  2  3
  1  5  1  0
  1  6  1  0
  2  3  1  0
  2 16  1  0
  3  4  2  0
  3  7  1  0
  8  9  2  3
  8 13  1  0
  8 14  1  0
  9 10  1  0
  9 15  1  0
 10 11  1  0
 10 17  1  0
 11 12  2  3
 11 18  1  0
 12 19  1  0
 12 20  1  0
M  RAD  1  10   2
M  END
>  <reaction>  (14) 
rxn_1155

>  <mol_properties>  (14) 
{"1": {"label": "*3", "atom_type": "Cdd"}, "2": {"label": "*4", "atom_type": "Cd"}, "8": {"label": "*0", "atom_type": "Cd"}, "9": {"label": "*1", "atom_type": "Cs"}, "15": {"label": "*2", "atom_type": "H0"}}

>  <type>  (14) 
unop_10

>  <geom_source>  (14) 
Heuristics

$$$$

     RDKit          3D

 20 18  0  0  0  0  0  0  0  0999 V2000
    0.6001    2.6912    0.0623 C   0  0  0  0  0  0  0  0  0  0  0  0
    0.0639    1.5280   -0.3034 C   0  0  0  0  0  0  0  0  0  0  0  0
   -1.2171    1.4532   -0.9807 C   0  0  0  0  0  0  0  0  0  0  0  0
   -1.9413    0.0926   -1.4593 S   0  0  0  0  0  0  0  0  0  0  0  0
    0.0950    3.6304   -0.1344 H   0  0  0  0  0  0  0  0  0  0  0  0
    1.5560    2.7415    0.5673 H   0  0  0  0  0  0  0  0  0  0  0  0
   -1.6975    2.4162   -1.1628 H   0  0  0  0  0  0  0  0  0  0  0  0
    0.3029   -1.8311   -0.9910 C   0  0  0  0  0  0  0  0  0  0  0  0
    0.3029   -1.8311    0.3323 C   0  0  0  0  0  0  0  0  0  0  0  0
    0.3029   -0.6053    1.1903 C   0  0  0  0  0  3  0  0  0  0  0  0
    1.5126   -0.4509    2.0715 C   0  0  0  0  0  0  0  0  0  0  0  0
    2.6237   -1.1666    1.9990 C   0  0  0  0  0  0  0  0  0  0  0  0
    0.2947   -2.7539   -1.5575 H   0  0  0  0  0  0  0  0  0  0  0  0
    0.3092   -0.9057   -1.5570 H   0  0  0  0  0  0  0  0  0  0  0  0
    0.3054   -2.7799    0.8628 H   0  0  0  0  0  0  0  0  0  0  0  0
    0.1828    0.4667    0.4397 H   0  0  0  0  0  0  0  0  0  0  0  0
   -0.5851   -0.6188    1.8331 H   0  0  0  0  0  0  0  0  0  0  0  0
    1.4399    0.3341    2.8192 H   0  0  0  0  0  0  0  0  0  0  0  0
    2.7492   -1.9535    1.2642 H   0  0  0  0  0  0  0  0  0  0  0  0
    3.4519   -0.9823    2.6714 H   0  0  0  0  0  0  0  0  0  0  0  0
  1  2  2  3
  1  5  1  0
  1  6  1  0
  2  3  1  0
  2 16  1  0
  3  4  2  0
  3  7  1  0
  8  9  2  3
  8 13  1  0
  8 14  1  0
  9 10  1  0
  9 15  1  0
 10 11  1  0
 10 17  1  0
 11 12  2  3
 11 18  1  0
 12 19  1  0
 12 20  1  0
M  RAD  1  10   2
M  END
>  <reaction>  (15) 
rxn_1155

>  <mol_properties>  (15) 
{"1": {"label": "*3", "atom_type": "Cdd"}, "2": {"label": "*4", "atom_type": "Cd"}, "8": {"label": "*0", "atom_type": "Cd"}, "9": {"label": "*1", "atom_type": "Cs"}, "15": {"label": "*2", "atom_type": "H0"}}

>  <type>  (15) 
unop_11

>  <geom_source>  (15) 
Heuristics

$$$$

     RDKit          3D

 20 18  0  0  0  0  0  0  0  0999 V2000
   -0.5737    0.7725   -2.3614 C   0  0  0  0  0  0  0  0  0  0  0  0
   -0.4728    0.8644   -1.0365 C   0  0  0  0  0  0  0  0  0  0  0  0
   -0.4898    2.1442   -0.3529 C   0  0  0  0  0  0  0  0  0  0  0  0
   -0.3736    2.3508    1.2435 S   0  0  0  0  0  0  0  0  0  0  0  0
   -0.6728    1.6569   -2.9810 H   0  0  0  0  0  0  0  0  0  0  0  0
   -0.5605   -0.1846   -2.8664 H   0  0  0  0  0  0  0  0  0  0  0  0
   -0.5907    3.0127   -1.0062 H   0  0  0  0  0  0  0  0  0  0  0  0
   -0.2339   -2.4947   -1.7240 C   0  0  0  0  0  0  0  0  0  0  0  0
   -0.2339   -2.4947   -0.4008 C   0  0  0  0  0  0  0  0  0  0  0  0
   -0.2339   -1.2689    0.4572 C   0  0  0  0  0  3  0  0  0  0  0  0
    0.9759   -1.1146    1.3384 C   0  0  0  0  0  0  0  0  0  0  0  0
    2.0870   -1.8302    1.2660 C   0  0  0  0  0  0  0  0  0  0  0  0
   -0.2420   -3.4175   -2.2906 H   0  0  0  0  0  0  0  0  0  0  0  0
   -0.2275   -1.5693   -2.2900 H   0  0  0  0  0  0  0  0  0  0  0  0
   -0.2313   -3.4435    0.1297 H   0  0  0  0  0  0  0  0  0  0  0  0
   -0.3539   -0.1969   -0.2933 H   0  0  0  0  0  0  0  0  0  0  0  0
   -1.1218   -1.2824    1.1000 H   0  0  0  0  0  0  0  0  0  0  0  0
    0.9032   -0.3295    2.0861 H   0  0  0  0  0  0  0  0  0  0  0  0
    2.2125   -2.6171    0.5311 H   0  0  0  0  0  0  0  0  0  0  0  0
    2.9152   -1.6460    1.9383 H   0  0  0  0  0  0  0  0  0  0  0  0
  1  2  2  3
  1  5  1  0
  1  6  1  0
  2  3  1  0
  2 16  1  0
  3  4  2  0
  3  7  1  0
  8  9  2  3
  8 13  1  0
  8 14  1  0
  9 10  1  0
  9 15  1  0
 10 11  1  0
 10 17  1  0
 11 12  2  3
 11 18  1  0
 12 19  1  0
 12 20  1  0
M  RAD  1  10   2
M  END
>  <reaction>  (16) 
rxn_1155

>  <mol_properties>  (16) 
{"1": {"label": "*3", "atom_type": "Cdd"}, "2": {"label": "*4", "atom_type": "Cd"}, "8": {"label": "*0", "atom_type": "Cd"}, "9": {"label": "*1", "atom_type": "Cs"}, "15": {"label": "*2", "atom_type": "H0"}}

>  <type>  (16) 
unop_12

>  <geom_source>  (16) 
Heuristics

$$$$

     RDKit          3D

 20 18  0  0  0  0  0  0  0  0999 V2000
    2.3019    1.8023   -1.9572 S   0  0  0  0  0  1  0  0  0  0  0  0
   -0.4741    0.1029    0.2927 C   0  0  0  0  0  0  0  0  0  0  0  0
   -1.1377   -0.7143   -0.7794 C   0  0  0  0  0  0  0  0  0  0  0  0
   -1.1792    1.4168    0.4772 C   0  0  0  0  0  0  0  0  0  0  0  0
   -2.2235   -1.4529   -0.5329 C   0  0  0  0  0  0  0  0  0  0  0  0
   -2.2815    1.5270    1.2241 C   0  0  0  0  0  0  0  0  0  0  0  0
    2.5615   -1.2094    0.5291 C   0  0  0  0  0  0  0  0  0  0  0  0
    2.9385    0.5656   -1.1035 C   0  0  0  0  0  0  0  0  0  0  0  0
    2.0884   -0.1955   -0.1863 C   0  0  0  0  0  0  0  0  0  0  0  0
    0.6470    0.3277   -0.0516 H   0  0  0  0  0  0  0  0  0  0  0  0
   -0.4222   -0.4608    1.2503 H   0  0  0  0  0  0  0  0  0  0  0  0
   -0.7187   -0.7063   -1.7812 H   0  0  0  0  0  0  0  0  0  0  0  0
   -0.7773    2.3014   -0.0078 H   0  0  0  0  0  0  0  0  0  0  0  0
   -2.6778   -2.0321   -1.3302 H   0  0  0  0  0  0  0  0  0  0  0  0
   -2.6619   -1.4914    0.4593 H   0  0  0  0  0  0  0  0  0  0  0  0
   -2.7659    2.4914    1.3370 H   0  0  0  0  0  0  0  0  0  0  0  0
   -2.7039    0.6650    1.7307 H   0  0  0  0  0  0  0  0  0  0  0  0
    1.9006   -1.7463    1.1955 H   0  0  0  0  0  0  0  0  0  0  0  0
    3.5995   -1.5108    0.4586 H   0  0  0  0  0  0  0  0  0  0  0  0
    3.9862    0.3198   -1.2245 H   0  0  0  0  0  0  0  0  0  0  0  0
  1  8  1  0
  2  3  1  0
  2  4  1  0
  2 10  1  0
  2 11  1  0
  3  5  2  3
  3 12  1  0
  4  6  2  3
  4 13  1  0
  5 14  1  0
  5 15  1  0
  6 16  1  0
  6 17  1  0
  7  9  2  0
  7 18  1  0
  7 19  1  0
  8  9  2  0
  8 20  1  0
M  RAD  1   1   2
M  END
>  <reaction>  (17) 
rxn_1155

>  <mol_properties>  (17) 
{"1": {"label": "*3", "atom_type": "Cdd"}, "2": {"label": "*4", "atom_type": "Cd"}, "8": {"label": "*0", "atom_type": "Cd"}, "9": {"label": "*1", "atom_type": "Cs"}, "15": {"label": "*2", "atom_type": "H0"}}

>  <type>  (17) 
unop_13

>  <geom_source>  (17) 
AutoTST

$$$$

     RDKit          3D

 20 18  0  0  0  0  0  0  0  0999 V2000
   -1.3294    0.8479   -2.1632 C   0  0  0  0  0  0  0  0  0  0  0  0
   -0.6669    0.8838   -1.0083 C   0  0  0  0  0  0  0  0  0  0  0  0
   -0.3743    2.1328   -0.3303 C   0  0  0  0  0  0  0  0  0  0  0  0
    0.4200    2.2717    1.0677 S   0  0  0  0  0  0  0  0  0  0  0  0
   -1.6762    1.7572   -2.6416 H   0  0  0  0  0  0  0  0  0  0  0  0
   -1.5451   -0.0865   -2.6649 H   0  0  0  0  0  0  0  0  0  0  0  0
   -0.7374    3.0277   -0.8389 H   0  0  0  0  0  0  0  0  0  0  0  0
   -0.4280   -2.4754   -1.6958 C   0  0  0  0  0  0  0  0  0  0  0  0
   -0.4280   -2.4754   -0.3726 C   0  0  0  0  0  0  0  0  0  0  0  0
   -0.4280   -1.2496    0.4854 C   0  0  0  0  0  3  0  0  0  0  0  0
    0.7817   -1.0952    1.3666 C   0  0  0  0  0  0  0  0  0  0  0  0
    1.8929   -1.8109    1.2942 C   0  0  0  0  0  0  0  0  0  0  0  0
   -0.4361   -3.3981   -2.2624 H   0  0  0  0  0  0  0  0  0  0  0  0
   -0.4216   -1.5499   -2.2618 H   0  0  0  0  0  0  0  0  0  0  0  0
   -0.4254   -3.4242    0.1579 H   0  0  0  0  0  0  0  0  0  0  0  0
   -0.5481   -0.1776   -0.2651 H   0  0  0  0  0  0  0  0  0  0  0  0
   -1.3159   -1.2631    1.1282 H   0  0  0  0  0  0  0  0  0  0  0  0
    0.7091   -0.3102    2.1143 H   0  0  0  0  0  0  0  0  0  0  0  0
    2.0184   -2.5978    0.5593 H   0  0  0  0  0  0  0  0  0  0  0  0
    2.7211   -1.6266    1.9665 H   0  0  0  0  0  0  0  0  0  0  0  0
  1  2  2  3
  1  5  1  0
  1  6  1  0
  2  3  1  0
  2 16  1  0
  3  4  2  0
  3  7  1  0
  8  9  2  3
  8 13  1  0
  8 14  1  0
  9 10  1  0
  9 15  1  0
 10 11  1  0
 10 17  1  0
 11 12  2  3
 11 18  1  0
 12 19  1  0
 12 20  1  0
M  RAD  1  10   2
M  END
>  <reaction>  (18) 
rxn_1155

>  <mol_properties>  (18) 
{"1": {"label": "*3", "atom_type": "Cdd"}, "2": {"label": "*4", "atom_type": "Cd"}, "8": {"label": "*0", "atom_type": "Cd"}, "9": {"label": "*1", "atom_type": "Cs"}, "15": {"label": "*2", "atom_type": "H0"}}

>  <type>  (18) 
unop_14

>  <geom_source>  (18) 
gaussian_log

$$$$
