
     RDKit          3D

  8  7  0  0  0  0  0  0  0  0999 V2000
    0.9548    0.1194   -0.0790 C   0  0  0  0  0  0  0  0  0  0  0  0
   -0.4838   -0.2649    0.0193 C   0  0  0  0  0  0  0  0  0  0  0  0
   -0.8933   -1.1081    0.8664 N   0  0  0  0  0  0  0  0  0  0  0  0
    1.3360   -0.0983   -1.0800 H   0  0  0  0  0  0  0  0  0  0  0  0
    1.0698    1.1948    0.0786 H   0  0  0  0  0  0  0  0  0  0  0  0
    1.5426   -0.4219    0.6602 H   0  0  0  0  0  0  0  0  0  0  0  0
   -1.1575    0.2324   -0.6905 H   0  0  0  0  0  0  0  0  0  0  0  0
   -1.8989   -1.2455    0.7886 H   0  0  0  0  0  0  0  0  0  0  0  0
  1  2  1  0
  1  4  1  0
  1  5  1  0
  1  6  1  0
  2  3  2  3
  2  7  1  0
  3  8  1  0
M  END
>  <reaction>  (1) 
rxn_126

>  <mol_properties>  (1) 
{"0": {"label": "donator", "atom_type": "Cs"}, "3": {"label": "d_hydrogen", "atom_type": "H0"}}

>  <type>  (1) 
r1h

$$$$

     RDKit          3D

  1  0  0  0  0  0  0  0  0  0999 V2000
    0.0000    0.0000    0.0000 H   0  0  0  0  0 15  0  0  0  0  0  0
M  END
>  <reaction>  (2) 
rxn_126

>  <mol_properties>  (2) 
{"0": {"label": "acceptor", "atom_type": "H0"}}

>  <type>  (2) 
r2

$$$$

     RDKit          3D

  2  1  0  0  0  0  0  0  0  0999 V2000
    0.0000    0.0000    0.3721 H   0  0  0  0  0  0  0  0  0  0  0  0
    0.0000    0.0000   -0.3721 H   0  0  0  0  0  0  0  0  0  0  0  0
  1  2  1  0
M  END
>  <reaction>  (3) 
rxn_126

>  <mol_properties>  (3) 
{"0": {"label": "a_hydrogen", "atom_type": "H0"}, "1": {"label": "acceptor", "atom_type": "H0"}}

>  <type>  (3) 
r2h

$$$$

     RDKit          3D

  9  7  0  0  0  0  0  0  0  0999 V2000
    0.1234    0.8046    0.8867 C   0  0  0  0  0  0  0  0  0  0  0  0
    0.1193   -0.4405    0.1054 C   0  0  0  0  0  0  0  0  0  0  0  0
   -0.1560   -0.4387   -1.1330 N   0  0  0  0  0  0  0  0  0  0  0  0
   -0.9629    0.8448    1.5191 H   0  0  0  0  0  0  0  0  0  0  0  0
    0.8588    0.8408    1.6875 H   0  0  0  0  0  0  0  0  0  0  0  0
    0.1010    1.7024    0.2748 H   0  0  0  0  0  0  0  0  0  0  0  0
    0.3380   -1.3588    0.6624 H   0  0  0  0  0  0  0  0  0  0  0  0
   -0.1322   -1.3822   -1.5137 H   0  0  0  0  0  0  0  0  0  0  0  0
   -1.8355    0.9413    2.0422 H   0  0  0  0  0 15  0  0  0  0  0  0
  1  2  1  0
  1  4  1  0
  1  5  1  0
  1  6  1  0
  2  3  2  3
  2  7  1  0
  3  8  1  0
M  END
>  <reaction>  (4) 
rxn_126

>  <mol_properties>  (4) 
{"0": {"label": "*3", "atom_type": "Cs"}, "1": {"label": "*4", "atom_type": "Cd"}, "3": {"label": "*2", "atom_type": "H0"}, "8": {"label": "*1", "atom_type": "H0"}}

>  <type>  (4) 
ts

$$$$

     RDKit          3D

  9  7  0  0  0  0  0  0  0  0999 V2000
    0.0445    0.8252    0.8796 C   0  0  0  0  0  0  0  0  0  0  0  0
    0.0445   -0.4417    0.0910 C   0  0  0  0  0  0  0  0  0  0  0  0
    0.0445   -0.4417   -1.1725 N   0  0  0  0  0  0  0  0  0  0  0  0
   -1.0094    0.8736    1.6589 H   0  0  0  0  0  0  0  0  0  0  0  0
    0.9228    0.8655    1.5290 H   0  0  0  0  0  0  0  0  0  0  0  0
    0.0445    1.6859    0.2133 H   0  0  0  0  0  0  0  0  0  0  0  0
    0.0445   -1.3677    0.6804 H   0  0  0  0  0  0  0  0  0  0  0  0
    0.0445   -1.3918   -1.5379 H   0  0  0  0  0  0  0  0  0  0  0  0
   -1.7269    0.9065    2.1895 H   0  0  0  0  0 15  0  0  0  0  0  0
  1  2  1  0
  1  4  1  0
  1  5  1  0
  1  6  1  0
  2  3  2  3
  2  7  1  0
  3  8  1  0
M  END
>  <reaction>  (5) 
rxn_126

>  <mol_properties>  (5) 
{"0": {"label": "*3", "atom_type": "Cs"}, "1": {"label": "*4", "atom_type": "Cd"}, "3": {"label": "*2", "atom_type": "H0"}, "8": {"label": "*1", "atom_type": "H0"}}

>  <type>  (5) 
unop_1

>  <geom_source>  (5) 
Heuristics

$$$$

     RDKit          3D

  9  7  0  0  0  0  0  0  0  0999 V2000
   -1.6254    0.4827    0.3814 N   0  0  0  0  0  0  0  0  0  0  0  0
   -0.7392   -0.4155    0.1453 C   0  0  0  0  0  0  0  0  0  0  0  0
    0.5446   -0.0655   -0.5378 C   0  0  0  0  0  0  0  0  0  0  0  0
   -0.9220   -1.4394    0.4546 H   0  0  0  0  0  0  0  0  0  0  0  0
    1.1939   -0.9631   -0.6079 H   0  0  0  0  0  0  0  0  0  0  0  0
    0.3365    0.3163   -1.5593 H   0  0  0  0  0  0  0  0  0  0  0  0
   -1.4813    1.4655    0.1052 H   0  0  0  0  0  0  0  0  0  0  0  0
    1.5080    0.3535    1.4163 H   0  0  0  0  0 15  0  0  0  0  0  0
    1.1849    0.2655    0.2021 H   0  0  0  0  0  0  0  0  0  0  0  0
  1  2  2  3
  1  7  1  0
  2  3  1  0
  2  4  1  0
  3  5  1  0
  3  6  1  0
  3  9  1  0
M  END
>  <reaction>  (6) 
rxn_126

>  <mol_properties>  (6) 
{"0": {"label": "*3", "atom_type": "Cs"}, "1": {"label": "*4", "atom_type": "Cd"}, "3": {"label": "*2", "atom_type": "H0"}, "8": {"label": "*1", "atom_type": "H0"}}

>  <type>  (6) 
unop_2

>  <geom_source>  (6) 
AutoTST

$$$$

     RDKit          3D

  9  7  0  0  0  0  0  0  0  0999 V2000
    0.6259    0.8026   -1.3667 N   0  0  0  0  0  0  0  0  0  0  0  0
   -0.0267   -0.1689    0.7540 C   0  0  0  0  0  0  0  0  0  0  0  0
   -0.0841    0.8916   -0.3006 C   0  0  0  0  0  0  0  0  0  0  0  0
   -0.3695   -1.2803    0.2595 H   0  0  0  0  0  0  0  0  0  0  0  0
    1.0059   -0.2458    1.1547 H   0  0  0  0  0  0  0  0  0  0  0  0
   -0.7184    0.0877    1.5833 H   0  0  0  0  0  0  0  0  0  0  0  0
   -0.7368    1.7479   -0.1654 H   0  0  0  0  0  0  0  0  0  0  0  0
    1.2554    0.0022   -1.5280 H   0  0  0  0  0  0  0  0  0  0  0  0
   -0.9517   -1.8370   -0.3907 H   0  0  0  0  0 15  0  0  0  0  0  0
  1  3  2  3
  1  8  1  0
  2  3  1  0
  2  4  1  0
  2  5  1  0
  2  6  1  0
  3  7  1  0
M  END
>  <reaction>  (7) 
rxn_126

>  <mol_properties>  (7) 
{"0": {"label": "*3", "atom_type": "Cs"}, "1": {"label": "*4", "atom_type": "Cd"}, "3": {"label": "*2", "atom_type": "H0"}, "8": {"label": "*1", "atom_type": "H0"}}

>  <type>  (7) 
unop_3

>  <geom_source>  (7) 
gaussian_log

$$$$
