
     RDKit          3D

  5  4  0  0  0  0  0  0  0  0999 V2000
    0.0000    0.0000    0.0000 C   0  0  0  0  0  0  0  0  0  0  0  0
   -0.6486   -0.7720   -0.4113 H   0  0  0  0  0  0  0  0  0  0  0  0
   -0.3482    0.9787   -0.3267 H   0  0  0  0  0  0  0  0  0  0  0  0
   -0.0223   -0.0487    1.0876 H   0  0  0  0  0  0  0  0  0  0  0  0
    1.0191   -0.1580   -0.3496 H   0  0  0  0  0  0  0  0  0  0  0  0
  1  2  1  0
  1  3  1  0
  1  4  1  0
  1  5  1  0
M  END
>  <reaction>  (1) 
rxn_864

>  <mol_properties>  (1) 
{"0": {"label": "donator", "atom_type": "Cs"}, "1": {"label": "d_hydrogen", "atom_type": "H0"}}

>  <type>  (1) 
r1h

$$$$

     RDKit          3D

  6  5  0  0  0  0  0  0  0  0999 V2000
   -0.5027    0.1225    0.0381 C   0  0  0  0  0  0  0  0  0  0  0  0
    0.9546    0.1078    0.2160 C   0  0  0  0  0  3  0  0  0  0  0  0
    2.2010   -0.6803   -0.2886 S   0  0  0  0  0  0  0  0  0  0  0  0
   -0.8606   -0.6432   -0.6570 H   0  0  0  0  0  0  0  0  0  0  0  0
   -0.8094    1.1090   -0.3184 H   0  0  0  0  0  0  0  0  0  0  0  0
   -0.9829   -0.0159    1.0100 H   0  0  0  0  0  0  0  0  0  0  0  0
  1  2  1  0
  1  4  1  0
  1  5  1  0
  1  6  1  0
  2  3  2  0
M  RAD  1   2   2
M  END
>  <reaction>  (2) 
rxn_864

>  <mol_properties>  (2) 
{"1": {"label": "acceptor", "atom_type": "CS"}}

>  <type>  (2) 
r2

$$$$

     RDKit          3D

  7  6  0  0  0  0  0  0  0  0999 V2000
   -0.6782    0.0507    0.0301 C   0  0  0  0  0  0  0  0  0  0  0  0
    0.8092    0.0996    0.0213 C   0  0  0  0  0  0  0  0  0  0  0  0
    1.7473    0.7521    1.1507 S   0  0  0  0  0  0  0  0  0  0  0  0
   -1.0667    0.5456   -0.8653 H   0  0  0  0  0  0  0  0  0  0  0  0
   -1.0112   -0.9904   -0.0239 H   0  0  0  0  0  0  0  0  0  0  0  0
   -1.0920    0.5225    0.9188 H   0  0  0  0  0  0  0  0  0  0  0  0
    1.2740   -0.3620   -0.8520 H   0  0  0  0  0  0  0  0  0  0  0  0
  1  2  1  0
  1  4  1  0
  1  5  1  0
  1  6  1  0
  2  3  2  0
  2  7  1  0
M  END
>  <reaction>  (3) 
rxn_864

>  <mol_properties>  (3) 
{"0": {"label": "a_hydrogen", "atom_type": "H0"}, "2": {"label": "acceptor", "atom_type": "CS"}}

>  <type>  (3) 
r2h

$$$$

     RDKit          3D

 11  9  0  0  0  0  0  0  0  0999 V2000
   -0.4746   -2.4015   -0.7530 C   0  0  0  0  0  3  0  0  0  0  0  0
   -0.3368   -1.0583   -0.2561 H   0  0  0  0  0  0  0  0  0  0  0  0
   -0.0186   -3.0282    0.0070 H   0  0  0  0  0  0  0  0  0  0  0  0
   -1.5436   -2.5458   -0.8743 H   0  0  0  0  0  0  0  0  0  0  0  0
    0.0822   -2.3395   -1.6824 H   0  0  0  0  0  0  0  0  0  0  0  0
   -0.9433    0.2442    1.5039 C   0  0  0  0  0  0  0  0  0  0  0  0
   -0.2317    0.1232    0.2088 C   0  0  0  0  0  0  0  0  0  0  0  0
    0.5896    1.2042   -0.6180 S   0  0  0  0  0  0  0  0  0  0  0  0
   -0.8713    1.2454    1.9274 H   0  0  0  0  0  0  0  0  0  0  0  0
   -0.5335   -0.4861    2.2078 H   0  0  0  0  0  0  0  0  0  0  0  0
   -1.9946   -0.0231    1.3617 H   0  0  0  0  0  0  0  0  0  0  0  0
  1  3  1  0
  1  4  1  0
  1  5  1  0
  2  7  1  0
  6  7  1  0
  6  9  1  0
  6 10  1  0
  6 11  1  0
  7  8  2  0
M  RAD  1   1   2
M  END
>  <reaction>  (4) 
rxn_864

>  <mol_properties>  (4) 
{"0": {"label": "*3", "atom_type": "Cs"}, "1": {"label": "*2", "atom_type": "H0"}, "2": {"label": "*4", "atom_type": "H0"}, "6": {"label": "*1", "atom_type": "CS"}, "7": {"label": "*0", "atom_type": "S2d"}}

>  <type>  (4) 
ts

$$$$

     RDKit          3D

 11  9  0  0  0  0  0  0  0  0999 V2000
   -0.4037   -2.1980   -0.9755 C   0  0  0  0  0  0  0  0  0  0  0  0
   -0.4037   -0.9660   -0.5399 H   0  0  0  0  0  0  0  0  0  0  0  0
    0.4854   -2.7113   -0.6125 H   0  0  0  0  0  0  0  0  0  0  0  0
   -1.2928   -2.7113   -0.6125 H   0  0  0  0  0  0  0  0  0  0  0  0
   -0.4037   -2.1980   -2.0644 H   0  0  0  0  0  0  0  0  0  0  0  0
   -1.5755    0.6277    0.7411 C   0  0  0  0  0  0  0  0  0  0  0  0
   -0.4037    0.2691   -0.1032 C   0  0  0  0  0  3  0  0  0  0  0  0
    1.1240    0.6922    0.1585 S   0  0  0  0  0  0  0  0  0  0  0  0
   -1.2857    1.2346    1.5963 H   0  0  0  0  0  0  0  0  0  0  0  0
   -2.0712   -0.2846    1.0871 H   0  0  0  0  0  0  0  0  0  0  0  0
   -2.3109    1.1683    0.1373 H   0  0  0  0  0  0  0  0  0  0  0  0
  1  2  1  0
  1  3  1  0
  1  4  1  0
  1  5  1  0
  6  7  1  0
  6  9  1  0
  6 10  1  0
  6 11  1  0
  7  8  2  0
M  RAD  1   7   2
M  END
>  <reaction>  (5) 
rxn_864

>  <mol_properties>  (5) 
{"0": {"label": "*3", "atom_type": "Cs"}, "1": {"label": "*2", "atom_type": "H0"}, "2": {"label": "*4", "atom_type": "H0"}, "6": {"label": "*1", "atom_type": "CS"}, "7": {"label": "*0", "atom_type": "S2d"}}

>  <type>  (5) 
unop_1

>  <geom_source>  (5) 
Heuristics

$$$$

     RDKit          3D

 11  9  0  0  0  0  0  0  0  0999 V2000
   -0.0050   -2.2400   -1.1591 C   0  0  0  0  0  0  0  0  0  0  0  0
   -0.0050   -1.0080   -0.7236 H   0  0  0  0  0  0  0  0  0  0  0  0
    0.8841   -2.7533   -0.7962 H   0  0  0  0  0  0  0  0  0  0  0  0
   -0.8941   -2.7533   -0.7962 H   0  0  0  0  0  0  0  0  0  0  0  0
   -0.0050   -2.2400   -2.2481 H   0  0  0  0  0  0  0  0  0  0  0  0
   -0.6815    1.2018   -1.1852 C   0  0  0  0  0  0  0  0  0  0  0  0
   -0.0050    0.2271   -0.2869 C   0  0  0  0  0  3  0  0  0  0  0  0
    0.3407    0.4448    1.2670 S   0  0  0  0  0  0  0  0  0  0  0  0
   -0.9330    2.1232   -0.6641 H   0  0  0  0  0  0  0  0  0  0  0  0
   -1.5897    0.7514   -1.5975 H   0  0  0  0  0  0  0  0  0  0  0  0
   -0.0334    1.4255   -2.0382 H   0  0  0  0  0  0  0  0  0  0  0  0
  1  2  1  0
  1  3  1  0
  1  4  1  0
  1  5  1  0
  6  7  1  0
  6  9  1  0
  6 10  1  0
  6 11  1  0
  7  8  2  0
M  RAD  1   7   2
M  END
>  <reaction>  (6) 
rxn_864

>  <mol_properties>  (6) 
{"0": {"label": "*3", "atom_type": "Cs"}, "1": {"label": "*2", "atom_type": "H0"}, "2": {"label": "*4", "atom_type": "H0"}, "6": {"label": "*1", "atom_type": "CS"}, "7": {"label": "*0", "atom_type": "S2d"}}

>  <type>  (6) 
unop_2

>  <geom_source>  (6) 
Heuristics

$$$$

     RDKit          3D

 11  9  0  0  0  0  0  0  0  0999 V2000
   -0.3861   -2.3442   -0.7217 C   0  0  0  0  0  0  0  0  0  0  0  0
   -0.3861   -1.1122   -0.2861 H   0  0  0  0  0  0  0  0  0  0  0  0
    0.5030   -2.8575   -0.3587 H   0  0  0  0  0  0  0  0  0  0  0  0
   -1.2752   -2.8575   -0.3587 H   0  0  0  0  0  0  0  0  0  0  0  0
   -0.3861   -2.3442   -1.8106 H   0  0  0  0  0  0  0  0  0  0  0  0
   -1.0626    0.3164    1.4619 C   0  0  0  0  0  0  0  0  0  0  0  0
   -0.3861    0.1229    0.1506 C   0  0  0  0  0  3  0  0  0  0  0  0
    0.8556    0.9713   -0.4149 S   0  0  0  0  0  0  0  0  0  0  0  0
   -0.6144    1.1281    2.0310 H   0  0  0  0  0  0  0  0  0  0  0  0
   -1.0131   -0.6111    2.0405 H   0  0  0  0  0  0  0  0  0  0  0  0
   -2.1251    0.5224    1.2995 H   0  0  0  0  0  0  0  0  0  0  0  0
  1  2  1  0
  1  3  1  0
  1  4  1  0
  1  5  1  0
  6  7  1  0
  6  9  1  0
  6 10  1  0
  6 11  1  0
  7  8  2  0
M  RAD  1   7   2
M  END
>  <reaction>  (7) 
rxn_864

>  <mol_properties>  (7) 
{"0": {"label": "*3", "atom_type": "Cs"}, "1": {"label": "*2", "atom_type": "H0"}, "2": {"label": "*4", "atom_type": "H0"}, "6": {"label": "*1", "atom_type": "CS"}, "7": {"label": "*0", "atom_type": "S2d"}}

>  <type>  (7) 
unop_3

>  <geom_source>  (7) 
Heuristics

$$$$

     RDKit          3D

 11  9  0  0  0  0  0  0  0  0999 V2000
    0.0968   -2.1774   -1.1838 C   0  0  0  0  0  0  0  0  0  0  0  0
    0.0968   -0.9454   -0.7483 H   0  0  0  0  0  0  0  0  0  0  0  0
    0.9859   -2.6907   -0.8209 H   0  0  0  0  0  0  0  0  0  0  0  0
   -0.7923   -2.6907   -0.8209 H   0  0  0  0  0  0  0  0  0  0  0  0
    0.0968   -2.1774   -2.2728 H   0  0  0  0  0  0  0  0  0  0  0  0
    1.2686    1.0993   -0.7429 C   0  0  0  0  0  0  0  0  0  0  0  0
    0.0968    0.2897   -0.3116 C   0  0  0  0  0  3  0  0  0  0  0  0
   -0.7093    0.4418    1.0698 S   0  0  0  0  0  0  0  0  0  0  0  0
    1.5423    1.8421    0.0034 H   0  0  0  0  0  0  0  0  0  0  0  0
    1.0423    1.5956   -1.6917 H   0  0  0  0  0  0  0  0  0  0  0  0
    2.1198    0.4390   -0.9356 H   0  0  0  0  0  0  0  0  0  0  0  0
  1  2  1  0
  1  3  1  0
  1  4  1  0
  1  5  1  0
  6  7  1  0
  6  9  1  0
  6 10  1  0
  6 11  1  0
  7  8  2  0
M  RAD  1   7   2
M  END
>  <reaction>  (8) 
rxn_864

>  <mol_properties>  (8) 
{"0": {"label": "*3", "atom_type": "Cs"}, "1": {"label": "*2", "atom_type": "H0"}, "2": {"label": "*4", "atom_type": "H0"}, "6": {"label": "*1", "atom_type": "CS"}, "7": {"label": "*0", "atom_type": "S2d"}}

>  <type>  (8) 
unop_4

>  <geom_source>  (8) 
Heuristics

$$$$

     RDKit          3D

 11  9  0  0  0  0  0  0  0  0999 V2000
   -0.0000   -2.4826   -0.5454 C   0  0  0  0  0  0  0  0  0  0  0  0
   -0.0000   -1.2506   -0.1098 H   0  0  0  0  0  0  0  0  0  0  0  0
    0.8891   -2.9959   -0.1824 H   0  0  0  0  0  0  0  0  0  0  0  0
   -0.8891   -2.9959   -0.1824 H   0  0  0  0  0  0  0  0  0  0  0  0
   -0.0000   -2.4826   -1.6343 H   0  0  0  0  0  0  0  0  0  0  0  0
   -0.0000    0.1176    1.8091 C   0  0  0  0  0  0  0  0  0  0  0  0
   -0.0000   -0.0155    0.3269 C   0  0  0  0  0  3  0  0  0  0  0  0
    0.0000    1.1881   -0.7375 S   0  0  0  0  0  0  0  0  0  0  0  0
   -0.0000    1.1601    2.1204 H   0  0  0  0  0  0  0  0  0  0  0  0
    0.8762   -0.3910    2.2230 H   0  0  0  0  0  0  0  0  0  0  0  0
   -0.8761   -0.3910    2.2230 H   0  0  0  0  0  0  0  0  0  0  0  0
  1  2  1  0
  1  3  1  0
  1  4  1  0
  1  5  1  0
  6  7  1  0
  6  9  1  0
  6 10  1  0
  6 11  1  0
  7  8  2  0
M  RAD  1   7   2
M  END
>  <reaction>  (9) 
rxn_864

>  <mol_properties>  (9) 
{"0": {"label": "*3", "atom_type": "Cs"}, "1": {"label": "*2", "atom_type": "H0"}, "2": {"label": "*4", "atom_type": "H0"}, "6": {"label": "*1", "atom_type": "CS"}, "7": {"label": "*0", "atom_type": "S2d"}}

>  <type>  (9) 
unop_5

>  <geom_source>  (9) 
Heuristics

$$$$

     RDKit          3D

 11  9  0  0  0  0  0  0  0  0999 V2000
    0.2597   -2.1497   -1.1354 C   0  0  0  0  0  0  0  0  0  0  0  0
    0.2597   -0.9177   -0.6998 H   0  0  0  0  0  0  0  0  0  0  0  0
    1.1488   -2.6630   -0.7724 H   0  0  0  0  0  0  0  0  0  0  0  0
   -0.6294   -2.6630   -0.7724 H   0  0  0  0  0  0  0  0  0  0  0  0
    0.2597   -2.1497   -2.2243 H   0  0  0  0  0  0  0  0  0  0  0  0
    1.6127    0.9015   -0.0566 C   0  0  0  0  0  0  0  0  0  0  0  0
    0.2597    0.3174   -0.2631 C   0  0  0  0  0  3  0  0  0  0  0  0
   -1.0189    0.5157    0.6894 S   0  0  0  0  0  0  0  0  0  0  0  0
    1.6573    1.5066    0.8465 H   0  0  0  0  0  0  0  0  0  0  0  0
    1.8850    1.5117   -0.9233 H   0  0  0  0  0  0  0  0  0  0  0  0
    2.3541    0.0985    0.0004 H   0  0  0  0  0  0  0  0  0  0  0  0
  1  2  1  0
  1  3  1  0
  1  4  1  0
  1  5  1  0
  6  7  1  0
  6  9  1  0
  6 10  1  0
  6 11  1  0
  7  8  2  0
M  RAD  1   7   2
M  END
>  <reaction>  (10) 
rxn_864

>  <mol_properties>  (10) 
{"0": {"label": "*3", "atom_type": "Cs"}, "1": {"label": "*2", "atom_type": "H0"}, "2": {"label": "*4", "atom_type": "H0"}, "6": {"label": "*1", "atom_type": "CS"}, "7": {"label": "*0", "atom_type": "S2d"}}

>  <type>  (10) 
unop_6

>  <geom_source>  (10) 
Heuristics

$$$$

     RDKit          3D

 11  9  0  0  0  0  0  0  0  0999 V2000
    0.4037   -2.1980   -0.9755 C   0  0  0  0  0  0  0  0  0  0  0  0
    0.4037   -0.9660   -0.5399 H   0  0  0  0  0  0  0  0  0  0  0  0
    1.2928   -2.7113   -0.6125 H   0  0  0  0  0  0  0  0  0  0  0  0
   -0.4854   -2.7113   -0.6125 H   0  0  0  0  0  0  0  0  0  0  0  0
    0.4037   -2.1980   -2.0644 H   0  0  0  0  0  0  0  0  0  0  0  0
    1.5755    0.6277    0.7411 C   0  0  0  0  0  0  0  0  0  0  0  0
    0.4037    0.2691   -0.1032 C   0  0  0  0  0  3  0  0  0  0  0  0
   -1.1240    0.6923    0.1585 S   0  0  0  0  0  0  0  0  0  0  0  0
    1.2857    1.2346    1.5963 H   0  0  0  0  0  0  0  0  0  0  0  0
    2.3109    1.1684    0.1373 H   0  0  0  0  0  0  0  0  0  0  0  0
    2.0712   -0.2846    1.0871 H   0  0  0  0  0  0  0  0  0  0  0  0
  1  2  1  0
  1  3  1  0
  1  4  1  0
  1  5  1  0
  6  7  1  0
  6  9  1  0
  6 10  1  0
  6 11  1  0
  7  8  2  0
M  RAD  1   7   2
M  END
>  <reaction>  (11) 
rxn_864

>  <mol_properties>  (11) 
{"0": {"label": "*3", "atom_type": "Cs"}, "1": {"label": "*2", "atom_type": "H0"}, "2": {"label": "*4", "atom_type": "H0"}, "6": {"label": "*1", "atom_type": "CS"}, "7": {"label": "*0", "atom_type": "S2d"}}

>  <type>  (11) 
unop_7

>  <geom_source>  (11) 
Heuristics

$$$$

     RDKit          3D

 11  9  0  0  0  0  0  0  0  0999 V2000
   -0.2597   -2.1497   -1.1354 C   0  0  0  0  0  0  0  0  0  0  0  0
   -0.2597   -0.9177   -0.6998 H   0  0  0  0  0  0  0  0  0  0  0  0
    0.6294   -2.6630   -0.7724 H   0  0  0  0  0  0  0  0  0  0  0  0
   -1.1488   -2.6630   -0.7724 H   0  0  0  0  0  0  0  0  0  0  0  0
   -0.2597   -2.1497   -2.2243 H   0  0  0  0  0  0  0  0  0  0  0  0
   -1.6127    0.9015   -0.0566 C   0  0  0  0  0  0  0  0  0  0  0  0
   -0.2597    0.3174   -0.2631 C   0  0  0  0  0  3  0  0  0  0  0  0
    1.0189    0.5157    0.6894 S   0  0  0  0  0  0  0  0  0  0  0  0
   -1.6572    1.5066    0.8464 H   0  0  0  0  0  0  0  0  0  0  0  0
   -2.3541    0.0985    0.0004 H   0  0  0  0  0  0  0  0  0  0  0  0
   -1.8850    1.5117   -0.9234 H   0  0  0  0  0  0  0  0  0  0  0  0
  1  2  1  0
  1  3  1  0
  1  4  1  0
  1  5  1  0
  6  7  1  0
  6  9  1  0
  6 10  1  0
  6 11  1  0
  7  8  2  0
M  RAD  1   7   2
M  END
>  <reaction>  (12) 
rxn_864

>  <mol_properties>  (12) 
{"0": {"label": "*3", "atom_type": "Cs"}, "1": {"label": "*2", "atom_type": "H0"}, "2": {"label": "*4", "atom_type": "H0"}, "6": {"label": "*1", "atom_type": "CS"}, "7": {"label": "*0", "atom_type": "S2d"}}

>  <type>  (12) 
unop_8

>  <geom_source>  (12) 
Heuristics

$$$$

     RDKit          3D

 11  9  0  0  0  0  0  0  0  0999 V2000
    0.0050   -2.2400   -1.1591 C   0  0  0  0  0  0  0  0  0  0  0  0
    0.0050   -1.0080   -0.7236 H   0  0  0  0  0  0  0  0  0  0  0  0
    0.8941   -2.7533   -0.7962 H   0  0  0  0  0  0  0  0  0  0  0  0
   -0.8841   -2.7533   -0.7962 H   0  0  0  0  0  0  0  0  0  0  0  0
    0.0050   -2.2400   -2.2481 H   0  0  0  0  0  0  0  0  0  0  0  0
    0.6815    1.2018   -1.1852 C   0  0  0  0  0  0  0  0  0  0  0  0
    0.0050    0.2271   -0.2869 C   0  0  0  0  0  3  0  0  0  0  0  0
   -0.3407    0.4448    1.2670 S   0  0  0  0  0  0  0  0  0  0  0  0
    0.9330    2.1231   -0.6641 H   0  0  0  0  0  0  0  0  0  0  0  0
    0.0334    1.4255   -2.0381 H   0  0  0  0  0  0  0  0  0  0  0  0
    1.5897    0.7514   -1.5975 H   0  0  0  0  0  0  0  0  0  0  0  0
  1  2  1  0
  1  3  1  0
  1  4  1  0
  1  5  1  0
  6  7  1  0
  6  9  1  0
  6 10  1  0
  6 11  1  0
  7  8  2  0
M  RAD  1   7   2
M  END
>  <reaction>  (13) 
rxn_864

>  <mol_properties>  (13) 
{"0": {"label": "*3", "atom_type": "Cs"}, "1": {"label": "*2", "atom_type": "H0"}, "2": {"label": "*4", "atom_type": "H0"}, "6": {"label": "*1", "atom_type": "CS"}, "7": {"label": "*0", "atom_type": "S2d"}}

>  <type>  (13) 
unop_9

>  <geom_source>  (13) 
Heuristics

$$$$

     RDKit          3D

 11  9  0  0  0  0  0  0  0  0999 V2000
   -0.0968   -2.1774   -1.1839 C   0  0  0  0  0  0  0  0  0  0  0  0
   -0.0968   -0.9454   -0.7483 H   0  0  0  0  0  0  0  0  0  0  0  0
    0.7923   -2.6907   -0.8209 H   0  0  0  0  0  0  0  0  0  0  0  0
   -0.9859   -2.6907   -0.8209 H   0  0  0  0  0  0  0  0  0  0  0  0
   -0.0968   -2.1774   -2.2728 H   0  0  0  0  0  0  0  0  0  0  0  0
   -1.2686    1.0993   -0.7429 C   0  0  0  0  0  0  0  0  0  0  0  0
   -0.0968    0.2897   -0.3116 C   0  0  0  0  0  3  0  0  0  0  0  0
    0.7093    0.4417    1.0698 S   0  0  0  0  0  0  0  0  0  0  0  0
   -1.5423    1.8421    0.0034 H   0  0  0  0  0  0  0  0  0  0  0  0
   -2.1198    0.4390   -0.9356 H   0  0  0  0  0  0  0  0  0  0  0  0
   -1.0423    1.5956   -1.6917 H   0  0  0  0  0  0  0  0  0  0  0  0
  1  2  1  0
  1  3  1  0
  1  4  1  0
  1  5  1  0
  6  7  1  0
  6  9  1  0
  6 10  1  0
  6 11  1  0
  7  8  2  0
M  RAD  1   7   2
M  END
>  <reaction>  (14) 
rxn_864

>  <mol_properties>  (14) 
{"0": {"label": "*3", "atom_type": "Cs"}, "1": {"label": "*2", "atom_type": "H0"}, "2": {"label": "*4", "atom_type": "H0"}, "6": {"label": "*1", "atom_type": "CS"}, "7": {"label": "*0", "atom_type": "S2d"}}

>  <type>  (14) 
unop_10

>  <geom_source>  (14) 
Heuristics

$$$$

     RDKit          3D

 11  9  0  0  0  0  0  0  0  0999 V2000
    0.3861   -2.3442   -0.7217 C   0  0  0  0  0  0  0  0  0  0  0  0
    0.3861   -1.1122   -0.2861 H   0  0  0  0  0  0  0  0  0  0  0  0
    1.2752   -2.8575   -0.3587 H   0  0  0  0  0  0  0  0  0  0  0  0
   -0.5030   -2.8575   -0.3587 H   0  0  0  0  0  0  0  0  0  0  0  0
    0.3861   -2.3442   -1.8106 H   0  0  0  0  0  0  0  0  0  0  0  0
    1.0626    0.3164    1.4619 C   0  0  0  0  0  0  0  0  0  0  0  0
    0.3861    0.1229    0.1506 C   0  0  0  0  0  3  0  0  0  0  0  0
   -0.8556    0.9713   -0.4149 S   0  0  0  0  0  0  0  0  0  0  0  0
    0.6144    1.1281    2.0310 H   0  0  0  0  0  0  0  0  0  0  0  0
    2.1251    0.5224    1.2995 H   0  0  0  0  0  0  0  0  0  0  0  0
    1.0131   -0.6112    2.0405 H   0  0  0  0  0  0  0  0  0  0  0  0
  1  2  1  0
  1  3  1  0
  1  4  1  0
  1  5  1  0
  6  7  1  0
  6  9  1  0
  6 10  1  0
  6 11  1  0
  7  8  2  0
M  RAD  1   7   2
M  END
>  <reaction>  (15) 
rxn_864

>  <mol_properties>  (15) 
{"0": {"label": "*3", "atom_type": "Cs"}, "1": {"label": "*2", "atom_type": "H0"}, "2": {"label": "*4", "atom_type": "H0"}, "6": {"label": "*1", "atom_type": "CS"}, "7": {"label": "*0", "atom_type": "S2d"}}

>  <type>  (15) 
unop_11

>  <geom_source>  (15) 
Heuristics

$$$$

     RDKit          3D

 11  9  0  0  0  0  0  0  0  0999 V2000
    0.0000   -2.2737   -1.1362 C   0  0  0  0  0  0  0  0  0  0  0  0
    0.0000   -1.0417   -0.7006 H   0  0  0  0  0  0  0  0  0  0  0  0
    0.8891   -2.7870   -0.7732 H   0  0  0  0  0  0  0  0  0  0  0  0
   -0.8891   -2.7870   -0.7732 H   0  0  0  0  0  0  0  0  0  0  0  0
    0.0000   -2.2737   -2.2251 H   0  0  0  0  0  0  0  0  0  0  0  0
    0.0000    1.2285   -1.3331 C   0  0  0  0  0  0  0  0  0  0  0  0
    0.0000    0.1934   -0.2640 C   0  0  0  0  0  3  0  0  0  0  0  0
   -0.0000    0.4605    1.3203 S   0  0  0  0  0  0  0  0  0  0  0  0
    0.0000    2.2350   -0.9200 H   0  0  0  0  0  0  0  0  0  0  0  0
   -0.8762    1.0931   -1.9747 H   0  0  0  0  0  0  0  0  0  0  0  0
    0.8761    1.0931   -1.9748 H   0  0  0  0  0  0  0  0  0  0  0  0
  1  2  1  0
  1  3  1  0
  1  4  1  0
  1  5  1  0
  6  7  1  0
  6  9  1  0
  6 10  1  0
  6 11  1  0
  7  8  2  0
M  RAD  1   7   2
M  END
>  <reaction>  (16) 
rxn_864

>  <mol_properties>  (16) 
{"0": {"label": "*3", "atom_type": "Cs"}, "1": {"label": "*2", "atom_type": "H0"}, "2": {"label": "*4", "atom_type": "H0"}, "6": {"label": "*1", "atom_type": "CS"}, "7": {"label": "*0", "atom_type": "S2d"}}

>  <type>  (16) 
unop_12

>  <geom_source>  (16) 
Heuristics

$$$$

     RDKit          3D

 11  9  0  0  0  0  0  0  0  0999 V2000
   -0.4005    1.9580   -0.4361 S   0  0  0  0  0  0  0  0  0  0  0  0
   -1.8414   -0.1343   -0.2297 C   0  0  0  0  0  0  0  0  0  0  0  0
   -0.5177    0.5568   -0.1449 C   0  0  0  0  0  3  0  0  0  0  0  0
    1.9175   -0.1937    0.3472 C   0  0  0  0  0  0  0  0  0  0  0  0
   -2.2463   -0.0667   -1.2622 H   0  0  0  0  0  0  0  0  0  0  0  0
   -1.7118   -1.2047    0.0323 H   0  0  0  0  0  0  0  0  0  0  0  0
   -2.5611    0.3223    0.4830 H   0  0  0  0  0  0  0  0  0  0  0  0
    0.6148   -0.1664    0.2206 H   0  0  0  0  0  0  0  0  0  0  0  0
    2.4754    0.1933   -0.5301 H   0  0  0  0  0  0  0  0  0  0  0  0
    1.7845   -1.2905    0.2463 H   0  0  0  0  0  0  0  0  0  0  0  0
    2.4866    0.0261    1.2737 H   0  0  0  0  0  0  0  0  0  0  0  0
  1  3  2  0
  2  3  1  0
  2  5  1  0
  2  6  1  0
  2  7  1  0
  4  8  1  0
  4  9  1  0
  4 10  1  0
  4 11  1  0
M  RAD  1   3   2
M  END
>  <reaction>  (17) 
rxn_864

>  <mol_properties>  (17) 
{"0": {"label": "*3", "atom_type": "Cs"}, "1": {"label": "*2", "atom_type": "H0"}, "2": {"label": "*4", "atom_type": "H0"}, "6": {"label": "*1", "atom_type": "CS"}, "7": {"label": "*0", "atom_type": "S2d"}}

>  <type>  (17) 
unop_13

>  <geom_source>  (17) 
AutoTST

$$$$
