
     RDKit          3D

 16 15  0  0  0  0  0  0  0  0999 V2000
    1.7961   -0.3807    1.6176 C   0  0  0  0  0  0  0  0  0  0  0  0
    0.8562   -0.8708    0.8256 C   0  0  0  0  0  0  0  0  0  0  0  0
    0.0895   -0.0826   -0.2048 C   0  0  0  0  0  0  0  0  0  0  0  0
   -1.4061   -0.1111    0.0982 C   0  0  0  0  0  0  0  0  0  0  0  0
    0.4476   -0.5902   -1.5797 C   0  0  0  0  0  0  0  0  0  0  0  0
   -0.3793   -1.1113   -2.4728 C   0  0  0  0  0  0  0  0  0  0  0  0
    2.3110   -1.0032    2.3386 H   0  0  0  0  0  0  0  0  0  0  0  0
    2.0846    0.6643    1.5737 H   0  0  0  0  0  0  0  0  0  0  0  0
    0.5921   -1.9241    0.8925 H   0  0  0  0  0  0  0  0  0  0  0  0
    0.4358    0.9557   -0.1462 H   0  0  0  0  0  0  0  0  0  0  0  0
   -1.5968    0.3080    1.0865 H   0  0  0  0  0  0  0  0  0  0  0  0
   -1.9674    0.4693   -0.6359 H   0  0  0  0  0  0  0  0  0  0  0  0
   -1.7902   -1.1338    0.0883 H   0  0  0  0  0  0  0  0  0  0  0  0
    1.5049   -0.5197   -1.8214 H   0  0  0  0  0  0  0  0  0  0  0  0
   -1.4421   -1.2131   -2.2889 H   0  0  0  0  0  0  0  0  0  0  0  0
   -0.0162   -1.4558   -3.4328 H   0  0  0  0  0  0  0  0  0  0  0  0
  1  2  2  3
  1  7  1  0
  1  8  1  0
  2  3  1  0
  2  9  1  0
  3  4  1  0
  3  5  1  0
  3 10  1  0
  4 11  1  0
  4 12  1  0
  4 13  1  0
  5  6  2  3
  5 14  1  0
  6 15  1  0
  6 16  1  0
M  END
>  <reaction>  (1) 
rxn_1194

>  <mol_properties>  (1) 
{"2": {"label": "donator", "atom_type": "Cs"}, "9": {"label": "d_hydrogen", "atom_type": "H0"}}

>  <type>  (1) 
r1h

$$$$

     RDKit          3D

  6  5  0  0  0  0  0  0  0  0999 V2000
   -0.7309   -0.0987    0.0327 C   0  0  0  0  0  0  0  0  0  0  0  0
    0.6208    0.0065   -0.0096 C   0  0  0  0  0  0  0  0  0  0  0  0
    1.6572   -1.2972    0.2837 S   0  0  0  0  0  1  0  0  0  0  0  0
   -1.3651    0.7588   -0.1608 H   0  0  0  0  0  0  0  0  0  0  0  0
   -1.2044   -1.0453    0.2616 H   0  0  0  0  0  0  0  0  0  0  0  0
    1.0609    0.9725   -0.2426 H   0  0  0  0  0  0  0  0  0  0  0  0
  1  2  2  3
  1  4  1  0
  1  5  1  0
  2  3  1  0
  2  6  1  0
M  RAD  1   3   2
M  END
>  <reaction>  (2) 
rxn_1194

>  <mol_properties>  (2) 
{"0": {"label": "acceptor", "atom_type": "Cs"}}

>  <type>  (2) 
r2

$$$$

     RDKit          3D

  7  6  0  0  0  0  0  0  0  0999 V2000
   -0.6782    0.0507    0.0301 C   0  0  0  0  0  0  0  0  0  0  0  0
    0.8092    0.0996    0.0213 C   0  0  0  0  0  0  0  0  0  0  0  0
    1.7473    0.7521    1.1507 S   0  0  0  0  0  0  0  0  0  0  0  0
   -1.0667    0.5456   -0.8653 H   0  0  0  0  0  0  0  0  0  0  0  0
   -1.0112   -0.9904   -0.0239 H   0  0  0  0  0  0  0  0  0  0  0  0
   -1.0920    0.5225    0.9188 H   0  0  0  0  0  0  0  0  0  0  0  0
    1.2740   -0.3620   -0.8520 H   0  0  0  0  0  0  0  0  0  0  0  0
  1  2  1  0
  1  4  1  0
  1  5  1  0
  1  6  1  0
  2  3  2  0
  2  7  1  0
M  END
>  <reaction>  (3) 
rxn_1194

>  <mol_properties>  (3) 
{"0": {"label": "a_hydrogen", "atom_type": "H0"}, "1": {"label": "acceptor", "atom_type": "Cs"}}

>  <type>  (3) 
r2h

$$$$

     RDKit          3D

 22 20  0  0  0  0  0  0  0  0999 V2000
    0.4403   -2.3391   -0.9714 C   0  0  0  0  0  0  0  0  0  0  0  0
    1.0794   -2.0268    0.1524 C   0  0  0  0  0  0  0  0  0  0  0  0
    0.6320   -1.0160    1.1382 C   0  0  0  0  0  0  0  0  0  0  0  0
    1.6284   -0.7106    2.2356 C   0  0  0  0  0  0  0  0  0  0  0  0
   -0.7907   -1.0373    1.5002 C   0  0  0  0  0  0  0  0  0  0  0  0
   -1.3312   -0.4475    2.5666 C   0  0  0  0  0  0  0  0  0  0  0  0
    0.8407   -3.0788   -1.6520 H   0  0  0  0  0  0  0  0  0  0  0  0
   -0.4881   -1.8560   -1.2578 H   0  0  0  0  0  0  0  0  0  0  0  0
    2.0334   -2.5026    0.3629 H   0  0  0  0  0  0  0  0  0  0  0  0
    0.6540    0.1003    0.4323 H   0  0  0  0  0  0  0  0  0  0  0  0
    2.6337   -0.6167    1.8232 H   0  0  0  0  0  0  0  0  0  0  0  0
    1.3913    0.2216    2.7484 H   0  0  0  0  0  0  0  0  0  0  0  0
    1.6372   -1.5104    2.9805 H   0  0  0  0  0  0  0  0  0  0  0  0
   -1.4485   -1.5415    0.8013 H   0  0  0  0  0  0  0  0  0  0  0  0
   -0.7406    0.0806    3.3048 H   0  0  0  0  0  0  0  0  0  0  0  0
   -2.3989   -0.4888    2.7360 H   0  0  0  0  0  0  0  0  0  0  0  0
    0.6914    1.2208   -0.3578 C   0  0  0  0  0  0  0  0  0  0  0  0
   -0.6209    1.7436   -0.2690 C   0  0  0  0  0  0  0  0  0  0  0  0
   -1.8982    1.2209   -1.1651 S   0  0  0  0  0  1  0  0  0  0  0  0
    1.4940    1.7801    0.1162 H   0  0  0  0  0  0  0  0  0  0  0  0
    0.9564    0.6935   -1.2703 H   0  0  0  0  0  0  0  0  0  0  0  0
   -0.7933    2.5006    0.4945 H   0  0  0  0  0  0  0  0  0  0  0  0
  1  2  2  3
  1  7  1  0
  1  8  1  0
  2  3  1  0
  2  9  1  0
  3  4  1  0
  3  5  1  0
  3 10  1  0
  4 11  1  0
  4 12  1  0
  4 13  1  0
  5  6  2  3
  5 14  1  0
  6 15  1  0
  6 16  1  0
 17 18  2  3
 17 20  1  0
 17 21  1  0
 18 19  1  0
 18 22  1  0
M  RAD  1  19   2
M  END
>  <reaction>  (4) 
rxn_1194

>  <mol_properties>  (4) 
{"1": {"label": "*0", "atom_type": "Cd"}, "2": {"label": "*1", "atom_type": "Cs"}, "9": {"label": "*2", "atom_type": "H0"}, "16": {"label": "*3", "atom_type": "Cd"}, "17": {"label": "*4", "atom_type": "Cd"}}

>  <type>  (4) 
ts

$$$$

     RDKit          3D

 22 20  0  0  0  0  0  0  0  0999 V2000
    0.6169   -2.4052   -1.4451 C   0  0  0  0  0  0  0  0  0  0  0  0
    0.6169   -2.4052   -0.1219 C   0  0  0  0  0  0  0  0  0  0  0  0
    0.6169   -1.1744    0.7475 C   0  0  0  0  0  3  0  0  0  0  0  0
    1.8553   -1.1446    1.6391 C   0  0  0  0  0  0  0  0  0  0  0  0
   -0.6866   -1.1059    1.5041 C   0  0  0  0  0  0  0  0  0  0  0  0
   -0.8412   -1.1056    2.8190 C   0  0  0  0  0  0  0  0  0  0  0  0
    0.6162   -3.3278   -2.0118 H   0  0  0  0  0  0  0  0  0  0  0  0
    0.6187   -1.4794   -2.0108 H   0  0  0  0  0  0  0  0  0  0  0  0
    0.6122   -3.3510    0.4158 H   0  0  0  0  0  0  0  0  0  0  0  0
    0.6535   -0.1301   -0.0513 H   0  0  0  0  0  0  0  0  0  0  0  0
    2.7581   -1.1530    1.0279 H   0  0  0  0  0  0  0  0  0  0  0  0
    1.8700   -0.2489    2.2623 H   0  0  0  0  0  0  0  0  0  0  0  0
    1.8879   -2.0164    2.2968 H   0  0  0  0  0  0  0  0  0  0  0  0
   -1.5698   -1.0701    0.8715 H   0  0  0  0  0  0  0  0  0  0  0  0
   -0.0009   -1.1449    3.5015 H   0  0  0  0  0  0  0  0  0  0  0  0
   -1.8276   -1.0625    3.2632 H   0  0  0  0  0  0  0  0  0  0  0  0
    0.6901    0.9126   -0.8488 C   0  0  0  0  0  0  0  0  0  0  0  0
   -0.5159    1.7550   -0.6239 C   0  0  0  0  0  0  0  0  0  0  0  0
   -1.1087    2.8577   -1.6309 S   0  0  0  0  0  0  0  0  0  0  0  0
    1.4109    1.0815   -0.0429 H   0  0  0  0  0  0  0  0  0  0  0  0
    1.1566    1.1243   -1.8086 H   0  0  0  0  0  0  0  0  0  0  0  0
   -1.0215    1.5801    0.3277 H   0  0  0  0  0  0  0  0  0  0  0  0
  1  2  2  3
  1  7  1  0
  1  8  1  0
  2  3  1  0
  2  9  1  0
  3  4  1  0
  3  5  1  0
  4 11  1  0
  4 12  1  0
  4 13  1  0
  5  6  2  3
  5 14  1  0
  6 15  1  0
  6 16  1  0
 10 17  1  0
 17 18  1  0
 17 20  1  0
 17 21  1  0
 18 19  2  0
 18 22  1  0
M  RAD  1   3   2
M  END
>  <reaction>  (5) 
rxn_1194

>  <mol_properties>  (5) 
{"1": {"label": "*0", "atom_type": "Cd"}, "2": {"label": "*1", "atom_type": "Cs"}, "9": {"label": "*2", "atom_type": "H0"}, "16": {"label": "*3", "atom_type": "Cd"}, "17": {"label": "*4", "atom_type": "Cd"}}

>  <type>  (5) 
unop_1

>  <geom_source>  (5) 
Heuristics

$$$$

     RDKit          3D

 22 20  0  0  0  0  0  0  0  0999 V2000
    0.2146   -1.8827   -0.8578 C   0  0  0  0  0  0  0  0  0  0  0  0
    0.2146   -1.8827    0.4655 C   0  0  0  0  0  0  0  0  0  0  0  0
    0.2146   -0.6519    1.3349 C   0  0  0  0  0  3  0  0  0  0  0  0
    1.4530   -0.6221    2.2265 C   0  0  0  0  0  0  0  0  0  0  0  0
   -1.0889   -0.5834    2.0914 C   0  0  0  0  0  0  0  0  0  0  0  0
   -1.2436   -0.5831    3.4063 C   0  0  0  0  0  0  0  0  0  0  0  0
    0.2138   -2.8053   -1.4245 H   0  0  0  0  0  0  0  0  0  0  0  0
    0.2164   -0.9569   -1.4235 H   0  0  0  0  0  0  0  0  0  0  0  0
    0.2098   -2.8285    1.0031 H   0  0  0  0  0  0  0  0  0  0  0  0
    0.2512    0.3924    0.5360 H   0  0  0  0  0  0  0  0  0  0  0  0
    2.3557   -0.6305    1.6152 H   0  0  0  0  0  0  0  0  0  0  0  0
    1.4676    0.2736    2.8496 H   0  0  0  0  0  0  0  0  0  0  0  0
    1.4855   -1.4939    2.8841 H   0  0  0  0  0  0  0  0  0  0  0  0
   -1.9721   -0.5476    1.4588 H   0  0  0  0  0  0  0  0  0  0  0  0
   -0.4032   -0.6224    4.0888 H   0  0  0  0  0  0  0  0  0  0  0  0
   -2.2300   -0.5400    3.8505 H   0  0  0  0  0  0  0  0  0  0  0  0
    0.2877    1.4351   -0.2615 C   0  0  0  0  0  0  0  0  0  0  0  0
   -0.3886    1.1050   -1.5453 C   0  0  0  0  0  0  0  0  0  0  0  0
    0.0924    1.5412   -3.0149 S   0  0  0  0  0  0  0  0  0  0  0  0
   -0.4051    1.9776    0.3891 H   0  0  0  0  0  0  0  0  0  0  0  0
    1.1846    2.0303   -0.4196 H   0  0  0  0  0  0  0  0  0  0  0  0
   -1.2961    0.5074   -1.4404 H   0  0  0  0  0  0  0  0  0  0  0  0
  1  2  2  3
  1  7  1  0
  1  8  1  0
  2  3  1  0
  2  9  1  0
  3  4  1  0
  3  5  1  0
  4 11  1  0
  4 12  1  0
  4 13  1  0
  5  6  2  3
  5 14  1  0
  6 15  1  0
  6 16  1  0
 10 17  1  0
 17 18  1  0
 17 20  1  0
 17 21  1  0
 18 19  2  0
 18 22  1  0
M  RAD  1   3   2
M  END
>  <reaction>  (6) 
rxn_1194

>  <mol_properties>  (6) 
{"1": {"label": "*0", "atom_type": "Cd"}, "2": {"label": "*1", "atom_type": "Cs"}, "9": {"label": "*2", "atom_type": "H0"}, "16": {"label": "*3", "atom_type": "Cd"}, "17": {"label": "*4", "atom_type": "Cd"}}

>  <type>  (6) 
unop_2

>  <geom_source>  (6) 
Heuristics

$$$$

     RDKit          3D

 22 20  0  0  0  0  0  0  0  0999 V2000
    0.4971   -2.5181   -1.6331 C   0  0  0  0  0  0  0  0  0  0  0  0
    0.4971   -2.5181   -0.3099 C   0  0  0  0  0  0  0  0  0  0  0  0
    0.4971   -1.2874    0.5595 C   0  0  0  0  0  3  0  0  0  0  0  0
    1.7355   -1.2576    1.4511 C   0  0  0  0  0  0  0  0  0  0  0  0
   -0.8064   -1.2188    1.3161 C   0  0  0  0  0  0  0  0  0  0  0  0
   -0.9610   -1.2185    2.6310 C   0  0  0  0  0  0  0  0  0  0  0  0
    0.4964   -3.4408   -2.1998 H   0  0  0  0  0  0  0  0  0  0  0  0
    0.4989   -1.5923   -2.1988 H   0  0  0  0  0  0  0  0  0  0  0  0
    0.4923   -3.4640    0.2278 H   0  0  0  0  0  0  0  0  0  0  0  0
    0.5337   -0.2430   -0.2393 H   0  0  0  0  0  0  0  0  0  0  0  0
    2.6382   -1.2659    0.8399 H   0  0  0  0  0  0  0  0  0  0  0  0
    1.7501   -0.3618    2.0743 H   0  0  0  0  0  0  0  0  0  0  0  0
    1.7680   -2.1293    2.1088 H   0  0  0  0  0  0  0  0  0  0  0  0
   -1.6896   -1.1831    0.6835 H   0  0  0  0  0  0  0  0  0  0  0  0
   -0.1207   -1.2579    3.3135 H   0  0  0  0  0  0  0  0  0  0  0  0
   -1.9474   -1.1754    3.0752 H   0  0  0  0  0  0  0  0  0  0  0  0
    0.5702    0.7997   -1.0368 C   0  0  0  0  0  0  0  0  0  0  0  0
   -0.1272    1.9454   -0.3922 C   0  0  0  0  0  0  0  0  0  0  0  0
   -0.9176    3.1247   -1.1445 S   0  0  0  0  0  0  0  0  0  0  0  0
    1.6247    0.8005   -0.7441 H   0  0  0  0  0  0  0  0  0  0  0  0
    0.4906    0.8375   -2.1212 H   0  0  0  0  0  0  0  0  0  0  0  0
   -0.0763    1.9531    0.6983 H   0  0  0  0  0  0  0  0  0  0  0  0
  1  2  2  3
  1  7  1  0
  1  8  1  0
  2  3  1  0
  2  9  1  0
  3  4  1  0
  3  5  1  0
  4 11  1  0
  4 12  1  0
  4 13  1  0
  5  6  2  3
  5 14  1  0
  6 15  1  0
  6 16  1  0
 10 17  1  0
 17 18  1  0
 17 20  1  0
 17 21  1  0
 18 19  2  0
 18 22  1  0
M  RAD  1   3   2
M  END
>  <reaction>  (7) 
rxn_1194

>  <mol_properties>  (7) 
{"1": {"label": "*0", "atom_type": "Cd"}, "2": {"label": "*1", "atom_type": "Cs"}, "9": {"label": "*2", "atom_type": "H0"}, "16": {"label": "*3", "atom_type": "Cd"}, "17": {"label": "*4", "atom_type": "Cd"}}

>  <type>  (7) 
unop_3

>  <geom_source>  (7) 
Heuristics

$$$$

     RDKit          3D

 22 20  0  0  0  0  0  0  0  0999 V2000
   -0.6081   -2.0179   -1.4112 C   0  0  0  0  0  0  0  0  0  0  0  0
   -0.6081   -2.0179   -0.0879 C   0  0  0  0  0  0  0  0  0  0  0  0
   -0.6081   -0.7871    0.7815 C   0  0  0  0  0  3  0  0  0  0  0  0
    0.6303   -0.7573    1.6731 C   0  0  0  0  0  0  0  0  0  0  0  0
   -1.9116   -0.7185    1.5380 C   0  0  0  0  0  0  0  0  0  0  0  0
   -2.0663   -0.7183    2.8529 C   0  0  0  0  0  0  0  0  0  0  0  0
   -0.6089   -2.9405   -1.9779 H   0  0  0  0  0  0  0  0  0  0  0  0
   -0.6064   -1.0921   -1.9769 H   0  0  0  0  0  0  0  0  0  0  0  0
   -0.6129   -2.9637    0.4497 H   0  0  0  0  0  0  0  0  0  0  0  0
   -0.5715    0.2572   -0.0174 H   0  0  0  0  0  0  0  0  0  0  0  0
    1.5330   -0.7657    1.0618 H   0  0  0  0  0  0  0  0  0  0  0  0
    0.6449    0.1384    2.2962 H   0  0  0  0  0  0  0  0  0  0  0  0
    0.6628   -1.6291    2.3307 H   0  0  0  0  0  0  0  0  0  0  0  0
   -2.7948   -0.6828    0.9054 H   0  0  0  0  0  0  0  0  0  0  0  0
   -1.2259   -0.7576    3.5355 H   0  0  0  0  0  0  0  0  0  0  0  0
   -3.0527   -0.6752    3.2971 H   0  0  0  0  0  0  0  0  0  0  0  0
   -0.5350    1.2999   -0.8149 C   0  0  0  0  0  0  0  0  0  0  0  0
    0.6987    1.2495   -1.6456 C   0  0  0  0  0  0  0  0  0  0  0  0
    2.1243    1.8905   -1.2737 S   0  0  0  0  0  0  0  0  0  0  0  0
   -1.3400    1.7771   -1.3824 H   0  0  0  0  0  0  0  0  0  0  0  0
   -0.3727    1.8394    0.1158 H   0  0  0  0  0  0  0  0  0  0  0  0
    0.5877    0.7175   -2.5924 H   0  0  0  0  0  0  0  0  0  0  0  0
  1  2  2  3
  1  7  1  0
  1  8  1  0
  2  3  1  0
  2  9  1  0
  3  4  1  0
  3  5  1  0
  4 11  1  0
  4 12  1  0
  4 13  1  0
  5  6  2  3
  5 14  1  0
  6 15  1  0
  6 16  1  0
 10 17  1  0
 17 18  1  0
 17 20  1  0
 17 21  1  0
 18 19  2  0
 18 22  1  0
M  RAD  1   3   2
M  END
>  <reaction>  (8) 
rxn_1194

>  <mol_properties>  (8) 
{"1": {"label": "*0", "atom_type": "Cd"}, "2": {"label": "*1", "atom_type": "Cs"}, "9": {"label": "*2", "atom_type": "H0"}, "16": {"label": "*3", "atom_type": "Cd"}, "17": {"label": "*4", "atom_type": "Cd"}}

>  <type>  (8) 
unop_4

>  <geom_source>  (8) 
Heuristics

$$$$

     RDKit          3D

 22 20  0  0  0  0  0  0  0  0999 V2000
    0.3401   -2.5524   -1.8325 C   0  0  0  0  0  0  0  0  0  0  0  0
    0.3401   -2.5524   -0.5093 C   0  0  0  0  0  0  0  0  0  0  0  0
    0.3401   -1.3216    0.3602 C   0  0  0  0  0  3  0  0  0  0  0  0
    1.5785   -1.2918    1.2518 C   0  0  0  0  0  0  0  0  0  0  0  0
   -0.9634   -1.2530    1.1167 C   0  0  0  0  0  0  0  0  0  0  0  0
   -1.1180   -1.2528    2.4316 C   0  0  0  0  0  0  0  0  0  0  0  0
    0.3394   -3.4750   -2.3992 H   0  0  0  0  0  0  0  0  0  0  0  0
    0.3419   -1.6266   -2.3982 H   0  0  0  0  0  0  0  0  0  0  0  0
    0.3354   -3.4982    0.0284 H   0  0  0  0  0  0  0  0  0  0  0  0
    0.3767   -0.2773   -0.4387 H   0  0  0  0  0  0  0  0  0  0  0  0
    2.4813   -1.3002    0.6405 H   0  0  0  0  0  0  0  0  0  0  0  0
    1.5932   -0.3961    1.8749 H   0  0  0  0  0  0  0  0  0  0  0  0
    1.6111   -2.1636    1.9094 H   0  0  0  0  0  0  0  0  0  0  0  0
   -1.8466   -1.2173    0.4841 H   0  0  0  0  0  0  0  0  0  0  0  0
   -0.2777   -1.2921    3.1141 H   0  0  0  0  0  0  0  0  0  0  0  0
   -2.1044   -1.2097    2.8758 H   0  0  0  0  0  0  0  0  0  0  0  0
    0.4133    0.7654   -1.2362 C   0  0  0  0  0  0  0  0  0  0  0  0
    0.4150    2.0135   -0.4257 C   0  0  0  0  0  0  0  0  0  0  0  0
   -0.6631    3.2021   -0.5050 S   0  0  0  0  0  0  0  0  0  0  0  0
    1.3496    0.6915   -1.7978 H   0  0  0  0  0  0  0  0  0  0  0  0
   -0.4299    0.7317   -1.9229 H   0  0  0  0  0  0  0  0  0  0  0  0
    1.2433    2.0956    0.2806 H   0  0  0  0  0  0  0  0  0  0  0  0
  1  2  2  3
  1  7  1  0
  1  8  1  0
  2  3  1  0
  2  9  1  0
  3  4  1  0
  3  5  1  0
  4 11  1  0
  4 12  1  0
  4 13  1  0
  5  6  2  3
  5 14  1  0
  6 15  1  0
  6 16  1  0
 10 17  1  0
 17 18  1  0
 17 20  1  0
 17 21  1  0
 18 19  2  0
 18 22  1  0
M  RAD  1   3   2
M  END
>  <reaction>  (9) 
rxn_1194

>  <mol_properties>  (9) 
{"1": {"label": "*0", "atom_type": "Cd"}, "2": {"label": "*1", "atom_type": "Cs"}, "9": {"label": "*2", "atom_type": "H0"}, "16": {"label": "*3", "atom_type": "Cd"}, "17": {"label": "*4", "atom_type": "Cd"}}

>  <type>  (9) 
unop_5

>  <geom_source>  (9) 
Heuristics

$$$$

     RDKit          3D

 22 20  0  0  0  0  0  0  0  0999 V2000
   -0.5582   -2.2101   -1.7172 C   0  0  0  0  0  0  0  0  0  0  0  0
   -0.5582   -2.2101   -0.3940 C   0  0  0  0  0  0  0  0  0  0  0  0
   -0.5582   -0.9793    0.4754 C   0  0  0  0  0  3  0  0  0  0  0  0
    0.6802   -0.9495    1.3670 C   0  0  0  0  0  0  0  0  0  0  0  0
   -1.8617   -0.9107    1.2319 C   0  0  0  0  0  0  0  0  0  0  0  0
   -2.0163   -0.9105    2.5468 C   0  0  0  0  0  0  0  0  0  0  0  0
   -0.5589   -3.1327   -2.2840 H   0  0  0  0  0  0  0  0  0  0  0  0
   -0.5564   -1.2843   -2.2830 H   0  0  0  0  0  0  0  0  0  0  0  0
   -0.5629   -3.1559    0.1436 H   0  0  0  0  0  0  0  0  0  0  0  0
   -0.5216    0.0650   -0.3234 H   0  0  0  0  0  0  0  0  0  0  0  0
    1.5830   -0.9579    0.7557 H   0  0  0  0  0  0  0  0  0  0  0  0
    0.6949   -0.0538    1.9901 H   0  0  0  0  0  0  0  0  0  0  0  0
    0.7128   -1.8213    2.0246 H   0  0  0  0  0  0  0  0  0  0  0  0
   -2.7449   -0.8750    0.5994 H   0  0  0  0  0  0  0  0  0  0  0  0
   -1.1760   -0.9498    3.2294 H   0  0  0  0  0  0  0  0  0  0  0  0
   -3.0027   -0.8674    2.9911 H   0  0  0  0  0  0  0  0  0  0  0  0
   -0.4850    1.1077   -1.1210 C   0  0  0  0  0  0  0  0  0  0  0  0
    0.9303    1.4801   -1.3905 C   0  0  0  0  0  0  0  0  0  0  0  0
    1.8746    2.3777   -0.4503 S   0  0  0  0  0  0  0  0  0  0  0  0
   -1.1194    1.4603   -1.9401 H   0  0  0  0  0  0  0  0  0  0  0  0
   -0.8386    1.5216   -0.1790 H   0  0  0  0  0  0  0  0  0  0  0  0
    1.3331    1.0881   -2.3264 H   0  0  0  0  0  0  0  0  0  0  0  0
  1  2  2  3
  1  7  1  0
  1  8  1  0
  2  3  1  0
  2  9  1  0
  3  4  1  0
  3  5  1  0
  4 11  1  0
  4 12  1  0
  4 13  1  0
  5  6  2  3
  5 14  1  0
  6 15  1  0
  6 16  1  0
 10 17  1  0
 17 18  1  0
 17 20  1  0
 17 21  1  0
 18 19  2  0
 18 22  1  0
M  RAD  1   3   2
M  END
>  <reaction>  (10) 
rxn_1194

>  <mol_properties>  (10) 
{"1": {"label": "*0", "atom_type": "Cd"}, "2": {"label": "*1", "atom_type": "Cs"}, "9": {"label": "*2", "atom_type": "H0"}, "16": {"label": "*3", "atom_type": "Cd"}, "17": {"label": "*4", "atom_type": "Cd"}}

>  <type>  (10) 
unop_6

>  <geom_source>  (10) 
Heuristics

$$$$

     RDKit          3D

 22 20  0  0  0  0  0  0  0  0999 V2000
   -0.3236   -2.3904   -1.9426 C   0  0  0  0  0  0  0  0  0  0  0  0
   -0.3236   -2.3904   -0.6194 C   0  0  0  0  0  0  0  0  0  0  0  0
   -0.3236   -1.1596    0.2500 C   0  0  0  0  0  3  0  0  0  0  0  0
    0.9147   -1.1298    1.1416 C   0  0  0  0  0  0  0  0  0  0  0  0
   -1.6271   -1.0910    1.0066 C   0  0  0  0  0  0  0  0  0  0  0  0
   -1.7818   -1.0908    2.3215 C   0  0  0  0  0  0  0  0  0  0  0  0
   -0.3244   -3.3130   -2.5093 H   0  0  0  0  0  0  0  0  0  0  0  0
   -0.3219   -1.4646   -2.5083 H   0  0  0  0  0  0  0  0  0  0  0  0
   -0.3284   -3.3362   -0.0817 H   0  0  0  0  0  0  0  0  0  0  0  0
   -0.2870   -0.1153   -0.5488 H   0  0  0  0  0  0  0  0  0  0  0  0
    1.8175   -1.1382    0.5304 H   0  0  0  0  0  0  0  0  0  0  0  0
    0.9294   -0.2341    1.7648 H   0  0  0  0  0  0  0  0  0  0  0  0
    0.9473   -2.0016    1.7993 H   0  0  0  0  0  0  0  0  0  0  0  0
   -2.5103   -1.0553    0.3740 H   0  0  0  0  0  0  0  0  0  0  0  0
   -0.9414   -1.1301    3.0040 H   0  0  0  0  0  0  0  0  0  0  0  0
   -2.7682   -1.0477    2.7657 H   0  0  0  0  0  0  0  0  0  0  0  0
   -0.2505    0.9274   -1.3463 C   0  0  0  0  0  0  0  0  0  0  0  0
    0.9710    1.7290   -1.0636 C   0  0  0  0  0  0  0  0  0  0  0  0
    1.1440    2.8233    0.1000 S   0  0  0  0  0  0  0  0  0  0  0  0
   -0.5794    1.1102   -2.3740 H   0  0  0  0  0  0  0  0  0  0  0  0
   -1.0570    1.1641   -0.6556 H   0  0  0  0  0  0  0  0  0  0  0  0
    1.8111    1.5280   -1.7311 H   0  0  0  0  0  0  0  0  0  0  0  0
  1  2  2  3
  1  7  1  0
  1  8  1  0
  2  3  1  0
  2  9  1  0
  3  4  1  0
  3  5  1  0
  4 11  1  0
  4 12  1  0
  4 13  1  0
  5  6  2  3
  5 14  1  0
  6 15  1  0
  6 16  1  0
 10 17  1  0
 17 18  1  0
 17 20  1  0
 17 21  1  0
 18 19  2  0
 18 22  1  0
M  RAD  1   3   2
M  END
>  <reaction>  (11) 
rxn_1194

>  <mol_properties>  (11) 
{"1": {"label": "*0", "atom_type": "Cd"}, "2": {"label": "*1", "atom_type": "Cs"}, "9": {"label": "*2", "atom_type": "H0"}, "16": {"label": "*3", "atom_type": "Cd"}, "17": {"label": "*4", "atom_type": "Cd"}}

>  <type>  (11) 
unop_7

>  <geom_source>  (11) 
Heuristics

$$$$

     RDKit          3D

 22 20  0  0  0  0  0  0  0  0999 V2000
    0.6443   -2.2293   -1.2140 C   0  0  0  0  0  0  0  0  0  0  0  0
    0.6443   -2.2293    0.1092 C   0  0  0  0  0  0  0  0  0  0  0  0
    0.6443   -0.9985    0.9786 C   0  0  0  0  0  3  0  0  0  0  0  0
    1.8826   -0.9688    1.8702 C   0  0  0  0  0  0  0  0  0  0  0  0
   -0.6592   -0.9300    1.7352 C   0  0  0  0  0  0  0  0  0  0  0  0
   -0.8139   -0.9297    3.0501 C   0  0  0  0  0  0  0  0  0  0  0  0
    0.6435   -3.1519   -1.7807 H   0  0  0  0  0  0  0  0  0  0  0  0
    0.6460   -1.3035   -1.7797 H   0  0  0  0  0  0  0  0  0  0  0  0
    0.6395   -3.1751    0.6469 H   0  0  0  0  0  0  0  0  0  0  0  0
    0.6809    0.0458    0.1798 H   0  0  0  0  0  0  0  0  0  0  0  0
    2.7854   -0.9771    1.2590 H   0  0  0  0  0  0  0  0  0  0  0  0
    1.8973   -0.0730    2.4933 H   0  0  0  0  0  0  0  0  0  0  0  0
    1.9152   -1.8405    2.5279 H   0  0  0  0  0  0  0  0  0  0  0  0
   -1.5424   -0.8942    1.1026 H   0  0  0  0  0  0  0  0  0  0  0  0
    0.0265   -0.9691    3.7326 H   0  0  0  0  0  0  0  0  0  0  0  0
   -1.8003   -0.8866    3.4943 H   0  0  0  0  0  0  0  0  0  0  0  0
    0.7174    1.0885   -0.6177 C   0  0  0  0  0  0  0  0  0  0  0  0
   -0.6702    1.5081   -0.9540 C   0  0  0  0  0  0  0  0  0  0  0  0
   -1.1133    2.4245   -2.1971 S   0  0  0  0  0  0  0  0  0  0  0  0
    0.9695    1.4299    0.3910 H   0  0  0  0  0  0  0  0  0  0  0  0
    1.4410    1.4808   -1.3293 H   0  0  0  0  0  0  0  0  0  0  0  0
   -1.4353    1.1392   -0.2683 H   0  0  0  0  0  0  0  0  0  0  0  0
  1  2  2  3
  1  7  1  0
  1  8  1  0
  2  3  1  0
  2  9  1  0
  3  4  1  0
  3  5  1  0
  4 11  1  0
  4 12  1  0
  4 13  1  0
  5  6  2  3
  5 14  1  0
  6 15  1  0
  6 16  1  0
 10 17  1  0
 17 18  1  0
 17 20  1  0
 17 21  1  0
 18 19  2  0
 18 22  1  0
M  RAD  1   3   2
M  END
>  <reaction>  (12) 
rxn_1194

>  <mol_properties>  (12) 
{"1": {"label": "*0", "atom_type": "Cd"}, "2": {"label": "*1", "atom_type": "Cs"}, "9": {"label": "*2", "atom_type": "H0"}, "16": {"label": "*3", "atom_type": "Cd"}, "17": {"label": "*4", "atom_type": "Cd"}}

>  <type>  (12) 
unop_8

>  <geom_source>  (12) 
Heuristics

$$$$

     RDKit          3D

 22 20  0  0  0  0  0  0  0  0999 V2000
   -0.4626   -1.8718   -1.1088 C   0  0  0  0  0  0  0  0  0  0  0  0
   -0.4626   -1.8718    0.2144 C   0  0  0  0  0  0  0  0  0  0  0  0
   -0.4626   -0.6410    1.0838 C   0  0  0  0  0  3  0  0  0  0  0  0
    0.7757   -0.6112    1.9754 C   0  0  0  0  0  0  0  0  0  0  0  0
   -1.7661   -0.5725    1.8404 C   0  0  0  0  0  0  0  0  0  0  0  0
   -1.9208   -0.5722    3.1553 C   0  0  0  0  0  0  0  0  0  0  0  0
   -0.4634   -2.7944   -1.6755 H   0  0  0  0  0  0  0  0  0  0  0  0
   -0.4609   -0.9460   -1.6745 H   0  0  0  0  0  0  0  0  0  0  0  0
   -0.4674   -2.8176    0.7521 H   0  0  0  0  0  0  0  0  0  0  0  0
   -0.4260    0.4033    0.2850 H   0  0  0  0  0  0  0  0  0  0  0  0
    1.6785   -0.6196    1.3642 H   0  0  0  0  0  0  0  0  0  0  0  0
    0.7904    0.2845    2.5985 H   0  0  0  0  0  0  0  0  0  0  0  0
    0.8083   -1.4830    2.6331 H   0  0  0  0  0  0  0  0  0  0  0  0
   -2.6493   -0.5367    1.2078 H   0  0  0  0  0  0  0  0  0  0  0  0
   -1.0804   -0.6115    3.8378 H   0  0  0  0  0  0  0  0  0  0  0  0
   -2.9072   -0.5291    3.5995 H   0  0  0  0  0  0  0  0  0  0  0  0
   -0.3895    1.4460   -0.5125 C   0  0  0  0  0  0  0  0  0  0  0  0
    0.3357    1.0923   -1.7630 C   0  0  0  0  0  0  0  0  0  0  0  0
    1.8386    1.5136   -2.1441 S   0  0  0  0  0  0  0  0  0  0  0  0
   -1.3057    1.9904   -0.7614 H   0  0  0  0  0  0  0  0  0  0  0  0
    0.2252    2.0477    0.1537 H   0  0  0  0  0  0  0  0  0  0  0  0
   -0.2397    0.4874   -2.4664 H   0  0  0  0  0  0  0  0  0  0  0  0
  1  2  2  3
  1  7  1  0
  1  8  1  0
  2  3  1  0
  2  9  1  0
  3  4  1  0
  3  5  1  0
  4 11  1  0
  4 12  1  0
  4 13  1  0
  5  6  2  3
  5 14  1  0
  6 15  1  0
  6 16  1  0
 10 17  1  0
 17 18  1  0
 17 20  1  0
 17 21  1  0
 18 19  2  0
 18 22  1  0
M  RAD  1   3   2
M  END
>  <reaction>  (13) 
rxn_1194

>  <mol_properties>  (13) 
{"1": {"label": "*0", "atom_type": "Cd"}, "2": {"label": "*1", "atom_type": "Cs"}, "9": {"label": "*2", "atom_type": "H0"}, "16": {"label": "*3", "atom_type": "Cd"}, "17": {"label": "*4", "atom_type": "Cd"}}

>  <type>  (13) 
unop_9

>  <geom_source>  (13) 
Heuristics

$$$$

     RDKit          3D

 22 20  0  0  0  0  0  0  0  0999 V2000
    0.5097   -2.0359   -0.9883 C   0  0  0  0  0  0  0  0  0  0  0  0
    0.5097   -2.0359    0.3349 C   0  0  0  0  0  0  0  0  0  0  0  0
    0.5097   -0.8051    1.2043 C   0  0  0  0  0  3  0  0  0  0  0  0
    1.7481   -0.7753    2.0959 C   0  0  0  0  0  0  0  0  0  0  0  0
   -0.7938   -0.7365    1.9608 C   0  0  0  0  0  0  0  0  0  0  0  0
   -0.9484   -0.7363    3.2758 C   0  0  0  0  0  0  0  0  0  0  0  0
    0.5090   -2.9585   -1.5550 H   0  0  0  0  0  0  0  0  0  0  0  0
    0.5115   -1.1101   -1.5540 H   0  0  0  0  0  0  0  0  0  0  0  0
    0.5050   -2.9817    0.8725 H   0  0  0  0  0  0  0  0  0  0  0  0
    0.5463    0.2393    0.4055 H   0  0  0  0  0  0  0  0  0  0  0  0
    2.6508   -0.7837    1.4847 H   0  0  0  0  0  0  0  0  0  0  0  0
    1.7628    0.1205    2.7190 H   0  0  0  0  0  0  0  0  0  0  0  0
    1.7807   -1.6471    2.7535 H   0  0  0  0  0  0  0  0  0  0  0  0
   -1.6770   -0.7008    1.3283 H   0  0  0  0  0  0  0  0  0  0  0  0
   -0.1081   -0.7756    3.9583 H   0  0  0  0  0  0  0  0  0  0  0  0
   -1.9348   -0.6932    3.7200 H   0  0  0  0  0  0  0  0  0  0  0  0
    0.5828    1.2819   -0.3921 C   0  0  0  0  0  0  0  0  0  0  0  0
   -0.6109    1.2723   -1.2806 C   0  0  0  0  0  0  0  0  0  0  0  0
   -0.7172    1.9353   -2.7402 S   0  0  0  0  0  0  0  0  0  0  0  0
    0.3263    1.7530    0.5618 H   0  0  0  0  0  0  0  0  0  0  0  0
    1.4200    1.8072   -0.8470 H   0  0  0  0  0  0  0  0  0  0  0  0
   -1.4801    0.7560   -0.8685 H   0  0  0  0  0  0  0  0  0  0  0  0
  1  2  2  3
  1  7  1  0
  1  8  1  0
  2  3  1  0
  2  9  1  0
  3  4  1  0
  3  5  1  0
  4 11  1  0
  4 12  1  0
  4 13  1  0
  5  6  2  3
  5 14  1  0
  6 15  1  0
  6 16  1  0
 10 17  1  0
 17 18  1  0
 17 20  1  0
 17 21  1  0
 18 19  2  0
 18 22  1  0
M  RAD  1   3   2
M  END
>  <reaction>  (14) 
rxn_1194

>  <mol_properties>  (14) 
{"1": {"label": "*0", "atom_type": "Cd"}, "2": {"label": "*1", "atom_type": "Cs"}, "9": {"label": "*2", "atom_type": "H0"}, "16": {"label": "*3", "atom_type": "Cd"}, "17": {"label": "*4", "atom_type": "Cd"}}

>  <type>  (14) 
unop_10

>  <geom_source>  (14) 
Heuristics

$$$$

     RDKit          3D

 22 20  0  0  0  0  0  0  0  0999 V2000
    0.0319   -2.5110   -1.9967 C   0  0  0  0  0  0  0  0  0  0  0  0
    0.0319   -2.5110   -0.6735 C   0  0  0  0  0  0  0  0  0  0  0  0
    0.0319   -1.2803    0.1959 C   0  0  0  0  0  3  0  0  0  0  0  0
    1.2703   -1.2505    1.0875 C   0  0  0  0  0  0  0  0  0  0  0  0
   -1.2716   -1.2117    0.9525 C   0  0  0  0  0  0  0  0  0  0  0  0
   -1.4262   -1.2115    2.2674 C   0  0  0  0  0  0  0  0  0  0  0  0
    0.0312   -3.4337   -2.5634 H   0  0  0  0  0  0  0  0  0  0  0  0
    0.0337   -1.5853   -2.5624 H   0  0  0  0  0  0  0  0  0  0  0  0
    0.0272   -3.4569   -0.1358 H   0  0  0  0  0  0  0  0  0  0  0  0
    0.0685   -0.2359   -0.6029 H   0  0  0  0  0  0  0  0  0  0  0  0
    2.1730   -1.2589    0.4763 H   0  0  0  0  0  0  0  0  0  0  0  0
    1.2850   -0.3547    1.7107 H   0  0  0  0  0  0  0  0  0  0  0  0
    1.3029   -2.1223    1.7452 H   0  0  0  0  0  0  0  0  0  0  0  0
   -2.1548   -1.1760    0.3199 H   0  0  0  0  0  0  0  0  0  0  0  0
   -0.5859   -1.2508    2.9499 H   0  0  0  0  0  0  0  0  0  0  0  0
   -2.4126   -1.1683    2.7116 H   0  0  0  0  0  0  0  0  0  0  0  0
    0.1050    0.8068   -1.4004 C   0  0  0  0  0  0  0  0  0  0  0  0
    0.8091    1.9289   -0.7224 C   0  0  0  0  0  0  0  0  0  0  0  0
    0.1243    3.1097    0.1249 S   0  0  0  0  0  0  0  0  0  0  0  0
    0.3403    0.8185   -2.4692 H   0  0  0  0  0  0  0  0  0  0  0  0
   -0.9725    0.8640   -1.2614 H   0  0  0  0  0  0  0  0  0  0  0  0
    1.8952    1.9166   -0.8324 H   0  0  0  0  0  0  0  0  0  0  0  0
  1  2  2  3
  1  7  1  0
  1  8  1  0
  2  3  1  0
  2  9  1  0
  3  4  1  0
  3  5  1  0
  4 11  1  0
  4 12  1  0
  4 13  1  0
  5  6  2  3
  5 14  1  0
  6 15  1  0
  6 16  1  0
 10 17  1  0
 17 18  1  0
 17 20  1  0
 17 21  1  0
 18 19  2  0
 18 22  1  0
M  RAD  1   3   2
M  END
>  <reaction>  (15) 
rxn_1194

>  <mol_properties>  (15) 
{"1": {"label": "*0", "atom_type": "Cd"}, "2": {"label": "*1", "atom_type": "Cs"}, "9": {"label": "*2", "atom_type": "H0"}, "16": {"label": "*3", "atom_type": "Cd"}, "17": {"label": "*4", "atom_type": "Cd"}}

>  <type>  (15) 
unop_11

>  <geom_source>  (15) 
Heuristics

$$$$

     RDKit          3D

 22 20  0  0  0  0  0  0  0  0999 V2000
   -0.1554   -1.8206   -0.8985 C   0  0  0  0  0  0  0  0  0  0  0  0
   -0.1554   -1.8206    0.4247 C   0  0  0  0  0  0  0  0  0  0  0  0
   -0.1554   -0.5898    1.2942 C   0  0  0  0  0  3  0  0  0  0  0  0
    1.0830   -0.5600    2.1858 C   0  0  0  0  0  0  0  0  0  0  0  0
   -1.4589   -0.5212    2.0507 C   0  0  0  0  0  0  0  0  0  0  0  0
   -1.6135   -0.5210    3.3656 C   0  0  0  0  0  0  0  0  0  0  0  0
   -0.1561   -2.7432   -1.4652 H   0  0  0  0  0  0  0  0  0  0  0  0
   -0.1536   -0.8948   -1.4642 H   0  0  0  0  0  0  0  0  0  0  0  0
   -0.1601   -2.7664    0.9624 H   0  0  0  0  0  0  0  0  0  0  0  0
   -0.1188    0.4545    0.4953 H   0  0  0  0  0  0  0  0  0  0  0  0
    1.9857   -0.5684    1.5745 H   0  0  0  0  0  0  0  0  0  0  0  0
    1.0977    0.3357    2.8089 H   0  0  0  0  0  0  0  0  0  0  0  0
    1.1156   -1.4318    2.8434 H   0  0  0  0  0  0  0  0  0  0  0  0
   -2.3421   -0.4855    1.4181 H   0  0  0  0  0  0  0  0  0  0  0  0
   -0.7732   -0.5603    4.0481 H   0  0  0  0  0  0  0  0  0  0  0  0
   -2.5999   -0.4779    3.8098 H   0  0  0  0  0  0  0  0  0  0  0  0
   -0.0823    1.4972   -0.3022 C   0  0  0  0  0  0  0  0  0  0  0  0
   -0.0562    1.0411   -1.7185 C   0  0  0  0  0  0  0  0  0  0  0  0
    1.0754    1.3800   -2.8076 S   0  0  0  0  0  0  0  0  0  0  0  0
   -1.0015    2.0609   -0.1153 H   0  0  0  0  0  0  0  0  0  0  0  0
    0.7813    2.1134   -0.0610 H   0  0  0  0  0  0  0  0  0  0  0  0
   -0.9035    0.4180   -2.0110 H   0  0  0  0  0  0  0  0  0  0  0  0
  1  2  2  3
  1  7  1  0
  1  8  1  0
  2  3  1  0
  2  9  1  0
  3  4  1  0
  3  5  1  0
  4 11  1  0
  4 12  1  0
  4 13  1  0
  5  6  2  3
  5 14  1  0
  6 15  1  0
  6 16  1  0
 10 17  1  0
 17 18  1  0
 17 20  1  0
 17 21  1  0
 18 19  2  0
 18 22  1  0
M  RAD  1   3   2
M  END
>  <reaction>  (16) 
rxn_1194

>  <mol_properties>  (16) 
{"1": {"label": "*0", "atom_type": "Cd"}, "2": {"label": "*1", "atom_type": "Cs"}, "9": {"label": "*2", "atom_type": "H0"}, "16": {"label": "*3", "atom_type": "Cd"}, "17": {"label": "*4", "atom_type": "Cd"}}

>  <type>  (16) 
unop_12

>  <geom_source>  (16) 
Heuristics

$$$$

     RDKit          3D

 22 20  0  0  0  0  0  0  0  0999 V2000
    3.9698    0.3143   -0.1564 S   0  0  0  0  0  0  0  0  0  0  0  0
   -2.3436    0.1384   -0.9135 C   0  0  0  0  0  0  0  0  0  0  0  0
    1.4934    0.2131   -0.7514 C   0  0  0  0  0  0  0  0  0  0  0  0
   -1.0213   -0.0414   -0.1727 C   0  0  0  0  0  3  0  0  0  0  0  0
   -0.7556    1.1143    0.7446 C   0  0  0  0  0  0  0  0  0  0  0  0
   -1.0043   -1.3287    0.5956 C   0  0  0  0  0  0  0  0  0  0  0  0
    2.6104    0.0651    0.2329 C   0  0  0  0  0  0  0  0  0  0  0  0
    0.3374    1.8626    0.5918 C   0  0  0  0  0  0  0  0  0  0  0  0
   -0.0820   -2.2571    0.3405 C   0  0  0  0  0  0  0  0  0  0  0  0
    1.6348   -0.4868   -1.6027 H   0  0  0  0  0  0  0  0  0  0  0  0
    1.4503    1.2563   -1.1313 H   0  0  0  0  0  0  0  0  0  0  0  0
    0.3623   -0.0649   -0.1664 H   0  0  0  0  0  0  0  0  0  0  0  0
   -2.5007   -0.7090   -1.6139 H   0  0  0  0  0  0  0  0  0  0  0  0
   -3.1937    0.1813   -0.1985 H   0  0  0  0  0  0  0  0  0  0  0  0
   -2.3188    1.0781   -1.5049 H   0  0  0  0  0  0  0  0  0  0  0  0
   -1.4554    1.3420    1.5442 H   0  0  0  0  0  0  0  0  0  0  0  0
   -1.7452   -1.5058    1.3704 H   0  0  0  0  0  0  0  0  0  0  0  0
    2.3925   -0.2338    1.2527 H   0  0  0  0  0  0  0  0  0  0  0  0
    0.5234    2.6956    1.2618 H   0  0  0  0  0  0  0  0  0  0  0  0
    1.0516    1.6511   -0.1985 H   0  0  0  0  0  0  0  0  0  0  0  0
    0.6698   -2.0999   -0.4274 H   0  0  0  0  0  0  0  0  0  0  0  0
   -0.0751   -3.1850    0.9031 H   0  0  0  0  0  0  0  0  0  0  0  0
  1  7  2  0
  2  4  1  0
  2 13  1  0
  2 14  1  0
  2 15  1  0
  3  7  1  0
  3 10  1  0
  3 11  1  0
  3 12  1  0
  4  5  1  0
  4  6  1  0
  5  8  2  3
  5 16  1  0
  6  9  2  3
  6 17  1  0
  7 18  1  0
  8 19  1  0
  8 20  1  0
  9 21  1  0
  9 22  1  0
M  RAD  1   4   2
M  END
>  <reaction>  (17) 
rxn_1194

>  <mol_properties>  (17) 
{"1": {"label": "*0", "atom_type": "Cd"}, "2": {"label": "*1", "atom_type": "Cs"}, "9": {"label": "*2", "atom_type": "H0"}, "16": {"label": "*3", "atom_type": "Cd"}, "17": {"label": "*4", "atom_type": "Cd"}}

>  <type>  (17) 
unop_13

>  <geom_source>  (17) 
AutoTST

$$$$
