
     RDKit          3D

 13 12  0  0  0  0  0  0  0  0999 V2000
    3.0977   -0.3549   -0.5105 C   0  0  0  0  0  0  0  0  0  0  0  0
    2.0556    0.4221   -0.2627 C   0  0  0  0  0  0  0  0  0  0  0  0
    0.6313   -0.0354   -0.2366 C   0  0  0  0  0  0  0  0  0  0  0  0
   -0.2567    0.6038   -1.2694 C   0  0  0  0  0  0  0  0  0  0  0  0
    0.1459    1.3456   -2.2891 C   0  0  0  0  0  0  0  0  0  0  0  0
    4.1081    0.0344   -0.5074 H   0  0  0  0  0  0  0  0  0  0  0  0
    2.9777   -1.4116   -0.7243 H   0  0  0  0  0  0  0  0  0  0  0  0
    2.2171    1.4781   -0.0618 H   0  0  0  0  0  0  0  0  0  0  0  0
    0.5865   -1.1233   -0.3540 H   0  0  0  0  0  0  0  0  0  0  0  0
    0.2065    0.1743    0.7521 H   0  0  0  0  0  0  0  0  0  0  0  0
   -1.3190    0.4126   -1.1445 H   0  0  0  0  0  0  0  0  0  0  0  0
    1.1948    1.5564   -2.4628 H   0  0  0  0  0  0  0  0  0  0  0  0
   -0.5644    1.7621   -2.9918 H   0  0  0  0  0  0  0  0  0  0  0  0
  1  2  2  3
  1  6  1  0
  1  7  1  0
  2  3  1  0
  2  8  1  0
  3  4  1  0
  3  9  1  0
  3 10  1  0
  4  5  2  3
  4 11  1  0
  5 12  1  0
  5 13  1  0
M  END
>  <reaction>  (1) 
rxn_1126

>  <mol_properties>  (1) 
{"2": {"label": "donator", "atom_type": "Cs"}, "8": {"label": "d_hydrogen", "atom_type": "H0"}}

>  <type>  (1) 
r1h

$$$$

     RDKit          3D

  4  3  0  0  0  0  0  0  0  0999 V2000
    0.0000    0.0000    0.0000 C   0  0  0  0  0  3  0  0  0  0  0  0
    1.0638   -0.1747    0.0540 H   0  0  0  0  0  0  0  0  0  0  0  0
   -0.6833   -0.8351   -0.0280 H   0  0  0  0  0  0  0  0  0  0  0  0
   -0.3805    1.0098   -0.0260 H   0  0  0  0  0  0  0  0  0  0  0  0
  1  2  1  0
  1  3  1  0
  1  4  1  0
M  RAD  1   1   2
M  END
>  <reaction>  (2) 
rxn_1126

>  <mol_properties>  (2) 
{"0": {"label": "acceptor", "atom_type": "Cs"}}

>  <type>  (2) 
r2

$$$$

     RDKit          3D

  5  4  0  0  0  0  0  0  0  0999 V2000
    0.0000    0.0000    0.0000 C   0  0  0  0  0  0  0  0  0  0  0  0
   -0.6486   -0.7720   -0.4113 H   0  0  0  0  0  0  0  0  0  0  0  0
   -0.3482    0.9787   -0.3267 H   0  0  0  0  0  0  0  0  0  0  0  0
   -0.0223   -0.0487    1.0876 H   0  0  0  0  0  0  0  0  0  0  0  0
    1.0191   -0.1580   -0.3496 H   0  0  0  0  0  0  0  0  0  0  0  0
  1  2  1  0
  1  3  1  0
  1  4  1  0
  1  5  1  0
M  END
>  <reaction>  (3) 
rxn_1126

>  <mol_properties>  (3) 
{"0": {"label": "acceptor", "atom_type": "Cs"}, "4": {"label": "a_hydrogen", "atom_type": "H0"}}

>  <type>  (3) 
r2h

$$$$

     RDKit          3D

 17 15  0  0  0  0  0  0  0  0999 V2000
   -0.3466    2.5569   -0.9251 C   0  0  0  0  0  3  0  0  0  0  0  0
   -0.9091    3.1924   -0.2504 H   0  0  0  0  0  0  0  0  0  0  0  0
   -0.8123    2.3646   -1.8850 H   0  0  0  0  0  0  0  0  0  0  0  0
    0.7226    2.7351   -0.9502 H   0  0  0  0  0  0  0  0  0  0  0  0
   -1.0308   -1.6456   -1.4409 C   0  0  0  0  0  0  0  0  0  0  0  0
   -0.1441   -0.8807   -0.8152 C   0  0  0  0  0  0  0  0  0  0  0  0
   -0.4687    0.0849    0.2514 C   0  0  0  0  0  0  0  0  0  0  0  0
    0.4323    0.1748    1.4237 C   0  0  0  0  0  0  0  0  0  0  0  0
    1.5253   -0.5468    1.6427 C   0  0  0  0  0  0  0  0  0  0  0  0
   -0.7383   -2.3074   -2.2461 H   0  0  0  0  0  0  0  0  0  0  0  0
   -2.0798   -1.6384   -1.1649 H   0  0  0  0  0  0  0  0  0  0  0  0
    0.8960   -0.9206   -1.1274 H   0  0  0  0  0  0  0  0  0  0  0  0
   -0.4131    1.2099   -0.2761 H   0  0  0  0  0  0  0  0  0  0  0  0
   -1.5190    0.0412    0.5479 H   0  0  0  0  0  0  0  0  0  0  0  0
    0.1553    0.9306    2.1539 H   0  0  0  0  0  0  0  0  0  0  0  0
    1.8462   -1.3287    0.9649 H   0  0  0  0  0  0  0  0  0  0  0  0
    2.1302   -0.3861    2.5258 H   0  0  0  0  0  0  0  0  0  0  0  0
  1  2  1  0
  1  3  1  0
  1  4  1  0
  5  6  2  3
  5 10  1  0
  5 11  1  0
  6  7  1  0
  6 12  1  0
  7  8  1  0
  7 13  1  0
  7 14  1  0
  8  9  2  3
  8 15  1  0
  9 16  1  0
  9 17  1  0
M  RAD  1   1   2
M  END
>  <reaction>  (4) 
rxn_1126

>  <mol_properties>  (4) 
{"0": {"label": "*3", "atom_type": "Cs"}, "1": {"label": "*4", "atom_type": "H0"}, "5": {"label": "*0", "atom_type": "Cd"}, "6": {"label": "*1", "atom_type": "Cs"}, "12": {"label": "*2", "atom_type": "H0"}}

>  <type>  (4) 
ts

$$$$

     RDKit          3D

 17 15  0  0  0  0  0  0  0  0999 V2000
   -0.7765    2.2025   -0.9985 C   0  0  0  0  0  0  0  0  0  0  0  0
   -1.6775    2.7445   -0.7156 H   0  0  0  0  0  0  0  0  0  0  0  0
   -0.4812    2.4901   -2.0064 H   0  0  0  0  0  0  0  0  0  0  0  0
   -0.0937    2.5693   -0.2337 H   0  0  0  0  0  0  0  0  0  0  0  0
   -0.5370   -1.1613   -1.6829 C   0  0  0  0  0  0  0  0  0  0  0  0
   -0.5370   -1.1613   -0.3596 C   0  0  0  0  0  0  0  0  0  0  0  0
   -0.5370    0.0645    0.4984 C   0  0  0  0  0  3  0  0  0  0  0  0
    0.6727    0.2189    1.3796 C   0  0  0  0  0  0  0  0  0  0  0  0
    1.7839   -0.4968    1.3071 C   0  0  0  0  0  0  0  0  0  0  0  0
   -0.5452   -2.0840   -2.2494 H   0  0  0  0  0  0  0  0  0  0  0  0
   -0.5307   -0.2358   -2.2489 H   0  0  0  0  0  0  0  0  0  0  0  0
   -0.5344   -2.1100    0.1709 H   0  0  0  0  0  0  0  0  0  0  0  0
   -0.6571    1.1365   -0.2522 H   0  0  0  0  0  0  0  0  0  0  0  0
   -1.4250    0.0511    1.1411 H   0  0  0  0  0  0  0  0  0  0  0  0
    0.6000    1.0039    2.1273 H   0  0  0  0  0  0  0  0  0  0  0  0
    1.9093   -1.2836    0.5723 H   0  0  0  0  0  0  0  0  0  0  0  0
    2.6121   -0.3125    1.9795 H   0  0  0  0  0  0  0  0  0  0  0  0
  1  2  1  0
  1  3  1  0
  1  4  1  0
  1 13  1  0
  5  6  2  3
  5 10  1  0
  5 11  1  0
  6  7  1  0
  6 12  1  0
  7  8  1  0
  7 14  1  0
  8  9  2  3
  8 15  1  0
  9 16  1  0
  9 17  1  0
M  RAD  1   7   2
M  END
>  <reaction>  (5) 
rxn_1126

>  <mol_properties>  (5) 
{"0": {"label": "*3", "atom_type": "Cs"}, "1": {"label": "*4", "atom_type": "H0"}, "5": {"label": "*0", "atom_type": "Cd"}, "6": {"label": "*1", "atom_type": "Cs"}, "12": {"label": "*2", "atom_type": "H0"}}

>  <type>  (5) 
unop_1

>  <geom_source>  (5) 
Heuristics

$$$$

     RDKit          3D

 17 15  0  0  0  0  0  0  0  0999 V2000
   -0.7761    2.2084   -0.9963 C   0  0  0  0  0  0  0  0  0  0  0  0
   -1.3496    1.9641   -1.8891 H   0  0  0  0  0  0  0  0  0  0  0  0
    0.0618    2.8489   -1.2672 H   0  0  0  0  0  0  0  0  0  0  0  0
   -0.9921    2.5169    0.0254 H   0  0  0  0  0  0  0  0  0  0  0  0
   -0.5366   -1.1553   -1.6807 C   0  0  0  0  0  0  0  0  0  0  0  0
   -0.5366   -1.1553   -0.3574 C   0  0  0  0  0  0  0  0  0  0  0  0
   -0.5366    0.0705    0.5006 C   0  0  0  0  0  3  0  0  0  0  0  0
    0.6731    0.2249    1.3818 C   0  0  0  0  0  0  0  0  0  0  0  0
    1.7842   -0.4908    1.3093 C   0  0  0  0  0  0  0  0  0  0  0  0
   -0.5448   -2.0780   -2.2472 H   0  0  0  0  0  0  0  0  0  0  0  0
   -0.5303   -0.2298   -2.2467 H   0  0  0  0  0  0  0  0  0  0  0  0
   -0.5341   -2.1040    0.1731 H   0  0  0  0  0  0  0  0  0  0  0  0
   -0.6567    1.1425   -0.2500 H   0  0  0  0  0  0  0  0  0  0  0  0
   -1.4246    0.0570    1.1433 H   0  0  0  0  0  0  0  0  0  0  0  0
    0.6004    1.0099    2.1295 H   0  0  0  0  0  0  0  0  0  0  0  0
    1.9097   -1.2777    0.5745 H   0  0  0  0  0  0  0  0  0  0  0  0
    2.6124   -0.3065    1.9817 H   0  0  0  0  0  0  0  0  0  0  0  0
  1  2  1  0
  1  3  1  0
  1  4  1  0
  1 13  1  0
  5  6  2  3
  5 10  1  0
  5 11  1  0
  6  7  1  0
  6 12  1  0
  7  8  1  0
  7 14  1  0
  8  9  2  3
  8 15  1  0
  9 16  1  0
  9 17  1  0
M  RAD  1   7   2
M  END
>  <reaction>  (6) 
rxn_1126

>  <mol_properties>  (6) 
{"0": {"label": "*3", "atom_type": "Cs"}, "1": {"label": "*4", "atom_type": "H0"}, "5": {"label": "*0", "atom_type": "Cd"}, "6": {"label": "*1", "atom_type": "Cs"}, "12": {"label": "*2", "atom_type": "H0"}}

>  <type>  (6) 
unop_2

>  <geom_source>  (6) 
Heuristics

$$$$

     RDKit          3D

 17 15  0  0  0  0  0  0  0  0999 V2000
   -0.7780    2.2016   -0.9959 C   0  0  0  0  0  0  0  0  0  0  0  0
   -1.2926    2.9810   -0.4359 H   0  0  0  0  0  0  0  0  0  0  0  0
   -1.0243    2.2911   -2.0528 H   0  0  0  0  0  0  0  0  0  0  0  0
    0.1832    2.6022   -0.6773 H   0  0  0  0  0  0  0  0  0  0  0  0
   -0.5385   -1.1622   -1.6802 C   0  0  0  0  0  0  0  0  0  0  0  0
   -0.5385   -1.1622   -0.3570 C   0  0  0  0  0  0  0  0  0  0  0  0
   -0.5385    0.0637    0.5010 C   0  0  0  0  0  3  0  0  0  0  0  0
    0.6712    0.2180    1.3822 C   0  0  0  0  0  0  0  0  0  0  0  0
    1.7824   -0.4977    1.3098 C   0  0  0  0  0  0  0  0  0  0  0  0
   -0.5467   -2.0849   -2.2468 H   0  0  0  0  0  0  0  0  0  0  0  0
   -0.5321   -0.2367   -2.2462 H   0  0  0  0  0  0  0  0  0  0  0  0
   -0.5359   -2.1109    0.1735 H   0  0  0  0  0  0  0  0  0  0  0  0
   -0.6586    1.1356   -0.2495 H   0  0  0  0  0  0  0  0  0  0  0  0
   -1.4265    0.0502    1.1438 H   0  0  0  0  0  0  0  0  0  0  0  0
    0.5985    1.0030    2.1299 H   0  0  0  0  0  0  0  0  0  0  0  0
    1.9078   -1.2845    0.5749 H   0  0  0  0  0  0  0  0  0  0  0  0
    2.6106   -0.3134    1.9821 H   0  0  0  0  0  0  0  0  0  0  0  0
  1  2  1  0
  1  3  1  0
  1  4  1  0
  1 13  1  0
  5  6  2  3
  5 10  1  0
  5 11  1  0
  6  7  1  0
  6 12  1  0
  7  8  1  0
  7 14  1  0
  8  9  2  3
  8 15  1  0
  9 16  1  0
  9 17  1  0
M  RAD  1   7   2
M  END
>  <reaction>  (7) 
rxn_1126

>  <mol_properties>  (7) 
{"0": {"label": "*3", "atom_type": "Cs"}, "1": {"label": "*4", "atom_type": "H0"}, "5": {"label": "*0", "atom_type": "Cd"}, "6": {"label": "*1", "atom_type": "Cs"}, "12": {"label": "*2", "atom_type": "H0"}}

>  <type>  (7) 
unop_3

>  <geom_source>  (7) 
Heuristics

$$$$

     RDKit          3D

 17 15  0  0  0  0  0  0  0  0999 V2000
   -0.7766    2.2065   -0.9985 C   0  0  0  0  0  0  0  0  0  0  0  0
    0.0582    2.2566   -1.6960 H   0  0  0  0  0  0  0  0  0  0  0  0
   -0.5031    2.7032   -0.0688 H   0  0  0  0  0  0  0  0  0  0  0  0
   -1.7998    2.5249   -1.1921 H   0  0  0  0  0  0  0  0  0  0  0  0
   -0.5371   -1.1572   -1.6829 C   0  0  0  0  0  0  0  0  0  0  0  0
   -0.5371   -1.1572   -0.3596 C   0  0  0  0  0  0  0  0  0  0  0  0
   -0.5371    0.0686    0.4984 C   0  0  0  0  0  3  0  0  0  0  0  0
    0.6726    0.2229    1.3796 C   0  0  0  0  0  0  0  0  0  0  0  0
    1.7838   -0.4928    1.3071 C   0  0  0  0  0  0  0  0  0  0  0  0
   -0.5453   -2.0800   -2.2494 H   0  0  0  0  0  0  0  0  0  0  0  0
   -0.5307   -0.2318   -2.2489 H   0  0  0  0  0  0  0  0  0  0  0  0
   -0.5345   -2.1060    0.1709 H   0  0  0  0  0  0  0  0  0  0  0  0
   -0.6572    1.1405   -0.2522 H   0  0  0  0  0  0  0  0  0  0  0  0
   -1.4251    0.0551    1.1412 H   0  0  0  0  0  0  0  0  0  0  0  0
    0.5999    1.0079    2.1273 H   0  0  0  0  0  0  0  0  0  0  0  0
    1.9092   -1.2796    0.5723 H   0  0  0  0  0  0  0  0  0  0  0  0
    2.6120   -0.3085    1.9795 H   0  0  0  0  0  0  0  0  0  0  0  0
  1  2  1  0
  1  3  1  0
  1  4  1  0
  1 13  1  0
  5  6  2  3
  5 10  1  0
  5 11  1  0
  6  7  1  0
  6 12  1  0
  7  8  1  0
  7 14  1  0
  8  9  2  3
  8 15  1  0
  9 16  1  0
  9 17  1  0
M  RAD  1   7   2
M  END
>  <reaction>  (8) 
rxn_1126

>  <mol_properties>  (8) 
{"0": {"label": "*3", "atom_type": "Cs"}, "1": {"label": "*4", "atom_type": "H0"}, "5": {"label": "*0", "atom_type": "Cd"}, "6": {"label": "*1", "atom_type": "Cs"}, "12": {"label": "*2", "atom_type": "H0"}}

>  <type>  (8) 
unop_4

>  <geom_source>  (8) 
Heuristics

$$$$

     RDKit          3D

 17 15  0  0  0  0  0  0  0  0999 V2000
   -0.7748    2.2016   -0.9930 C   0  0  0  0  0  0  0  0  0  0  0  0
   -0.7740    3.0888   -0.3616 H   0  0  0  0  0  0  0  0  0  0  0  0
   -1.7099    2.1526   -1.5489 H   0  0  0  0  0  0  0  0  0  0  0  0
    0.0989    2.6323   -1.4798 H   0  0  0  0  0  0  0  0  0  0  0  0
   -0.5353   -1.1621   -1.6774 C   0  0  0  0  0  0  0  0  0  0  0  0
   -0.5353   -1.1621   -0.3542 C   0  0  0  0  0  0  0  0  0  0  0  0
   -0.5353    0.0637    0.5038 C   0  0  0  0  0  3  0  0  0  0  0  0
    0.6744    0.2180    1.3850 C   0  0  0  0  0  0  0  0  0  0  0  0
    1.7855   -0.4977    1.3126 C   0  0  0  0  0  0  0  0  0  0  0  0
   -0.5435   -2.0849   -2.2439 H   0  0  0  0  0  0  0  0  0  0  0  0
   -0.5290   -0.2367   -2.2434 H   0  0  0  0  0  0  0  0  0  0  0  0
   -0.5328   -2.1109    0.1764 H   0  0  0  0  0  0  0  0  0  0  0  0
   -0.6554    1.1356   -0.2467 H   0  0  0  0  0  0  0  0  0  0  0  0
   -1.4233    0.0502    1.1466 H   0  0  0  0  0  0  0  0  0  0  0  0
    0.6017    1.0031    2.1328 H   0  0  0  0  0  0  0  0  0  0  0  0
    1.9110   -1.2845    0.5777 H   0  0  0  0  0  0  0  0  0  0  0  0
    2.6138   -0.3134    1.9849 H   0  0  0  0  0  0  0  0  0  0  0  0
  1  2  1  0
  1  3  1  0
  1  4  1  0
  1 13  1  0
  5  6  2  3
  5 10  1  0
  5 11  1  0
  6  7  1  0
  6 12  1  0
  7  8  1  0
  7 14  1  0
  8  9  2  3
  8 15  1  0
  9 16  1  0
  9 17  1  0
M  RAD  1   7   2
M  END
>  <reaction>  (9) 
rxn_1126

>  <mol_properties>  (9) 
{"0": {"label": "*3", "atom_type": "Cs"}, "1": {"label": "*4", "atom_type": "H0"}, "5": {"label": "*0", "atom_type": "Cd"}, "6": {"label": "*1", "atom_type": "Cs"}, "12": {"label": "*2", "atom_type": "H0"}}

>  <type>  (9) 
unop_5

>  <geom_source>  (9) 
Heuristics

$$$$

     RDKit          3D

 17 15  0  0  0  0  0  0  0  0999 V2000
   -0.7753    2.2043   -0.9986 C   0  0  0  0  0  0  0  0  0  0  0  0
    0.2134    2.5576   -1.2877 H   0  0  0  0  0  0  0  0  0  0  0  0
   -1.0036    2.5488    0.0088 H   0  0  0  0  0  0  0  0  0  0  0  0
   -1.5582    2.5558   -1.6688 H   0  0  0  0  0  0  0  0  0  0  0  0
   -0.5358   -1.1595   -1.6830 C   0  0  0  0  0  0  0  0  0  0  0  0
   -0.5358   -1.1595   -0.3597 C   0  0  0  0  0  0  0  0  0  0  0  0
   -0.5358    0.0663    0.4983 C   0  0  0  0  0  3  0  0  0  0  0  0
    0.6739    0.2207    1.3795 C   0  0  0  0  0  0  0  0  0  0  0  0
    1.7851   -0.4950    1.3070 C   0  0  0  0  0  0  0  0  0  0  0  0
   -0.5440   -2.0822   -2.2495 H   0  0  0  0  0  0  0  0  0  0  0  0
   -0.5294   -0.2340   -2.2490 H   0  0  0  0  0  0  0  0  0  0  0  0
   -0.5332   -2.1082    0.1708 H   0  0  0  0  0  0  0  0  0  0  0  0
   -0.6559    1.1383   -0.2523 H   0  0  0  0  0  0  0  0  0  0  0  0
   -1.4238    0.0528    1.1410 H   0  0  0  0  0  0  0  0  0  0  0  0
    0.6012    1.0057    2.1272 H   0  0  0  0  0  0  0  0  0  0  0  0
    1.9106   -1.2819    0.5722 H   0  0  0  0  0  0  0  0  0  0  0  0
    2.6133   -0.3107    1.9794 H   0  0  0  0  0  0  0  0  0  0  0  0
  1  2  1  0
  1  3  1  0
  1  4  1  0
  1 13  1  0
  5  6  2  3
  5 10  1  0
  5 11  1  0
  6  7  1  0
  6 12  1  0
  7  8  1  0
  7 14  1  0
  8  9  2  3
  8 15  1  0
  9 16  1  0
  9 17  1  0
M  RAD  1   7   2
M  END
>  <reaction>  (10) 
rxn_1126

>  <mol_properties>  (10) 
{"0": {"label": "*3", "atom_type": "Cs"}, "1": {"label": "*4", "atom_type": "H0"}, "5": {"label": "*0", "atom_type": "Cd"}, "6": {"label": "*1", "atom_type": "Cs"}, "12": {"label": "*2", "atom_type": "H0"}}

>  <type>  (10) 
unop_6

>  <geom_source>  (10) 
Heuristics

$$$$

     RDKit          3D

 17 15  0  0  0  0  0  0  0  0999 V2000
   -0.7732    2.2026   -0.9981 C   0  0  0  0  0  0  0  0  0  0  0  0
    0.0956    2.8438   -0.8568 H   0  0  0  0  0  0  0  0  0  0  0  0
   -1.4765    2.3593   -0.1817 H   0  0  0  0  0  0  0  0  0  0  0  0
   -1.1334    2.5885   -1.9505 H   0  0  0  0  0  0  0  0  0  0  0  0
   -0.5337   -1.1611   -1.6825 C   0  0  0  0  0  0  0  0  0  0  0  0
   -0.5337   -1.1611   -0.3592 C   0  0  0  0  0  0  0  0  0  0  0  0
   -0.5337    0.0647    0.4988 C   0  0  0  0  0  3  0  0  0  0  0  0
    0.6760    0.2191    1.3800 C   0  0  0  0  0  0  0  0  0  0  0  0
    1.7872   -0.4966    1.3075 C   0  0  0  0  0  0  0  0  0  0  0  0
   -0.5419   -2.0838   -2.2490 H   0  0  0  0  0  0  0  0  0  0  0  0
   -0.5274   -0.2357   -2.2485 H   0  0  0  0  0  0  0  0  0  0  0  0
   -0.5311   -2.1099    0.1713 H   0  0  0  0  0  0  0  0  0  0  0  0
   -0.6538    1.1367   -0.2518 H   0  0  0  0  0  0  0  0  0  0  0  0
   -1.4217    0.0512    1.1416 H   0  0  0  0  0  0  0  0  0  0  0  0
    0.6033    1.0041    2.1277 H   0  0  0  0  0  0  0  0  0  0  0  0
    1.9126   -1.2835    0.5727 H   0  0  0  0  0  0  0  0  0  0  0  0
    2.6154   -0.3123    1.9799 H   0  0  0  0  0  0  0  0  0  0  0  0
  1  2  1  0
  1  3  1  0
  1  4  1  0
  1 13  1  0
  5  6  2  3
  5 10  1  0
  5 11  1  0
  6  7  1  0
  6 12  1  0
  7  8  1  0
  7 14  1  0
  8  9  2  3
  8 15  1  0
  9 16  1  0
  9 17  1  0
M  RAD  1   7   2
M  END
>  <reaction>  (11) 
rxn_1126

>  <mol_properties>  (11) 
{"0": {"label": "*3", "atom_type": "Cs"}, "1": {"label": "*4", "atom_type": "H0"}, "5": {"label": "*0", "atom_type": "Cd"}, "6": {"label": "*1", "atom_type": "Cs"}, "12": {"label": "*2", "atom_type": "H0"}}

>  <type>  (11) 
unop_7

>  <geom_source>  (11) 
Heuristics

$$$$

     RDKit          3D

 17 15  0  0  0  0  0  0  0  0999 V2000
   -0.7745    2.2043   -0.9984 C   0  0  0  0  0  0  0  0  0  0  0  0
   -1.8295    2.4432   -1.1239 H   0  0  0  0  0  0  0  0  0  0  0  0
   -0.1995    2.6688   -1.7980 H   0  0  0  0  0  0  0  0  0  0  0  0
   -0.3779    2.5479   -0.0442 H   0  0  0  0  0  0  0  0  0  0  0  0
   -0.5350   -1.1595   -1.6828 C   0  0  0  0  0  0  0  0  0  0  0  0
   -0.5350   -1.1595   -0.3595 C   0  0  0  0  0  0  0  0  0  0  0  0
   -0.5350    0.0664    0.4985 C   0  0  0  0  0  3  0  0  0  0  0  0
    0.6747    0.2207    1.3797 C   0  0  0  0  0  0  0  0  0  0  0  0
    1.7858   -0.4950    1.3073 C   0  0  0  0  0  0  0  0  0  0  0  0
   -0.5432   -2.0822   -2.2493 H   0  0  0  0  0  0  0  0  0  0  0  0
   -0.5287   -0.2340   -2.2487 H   0  0  0  0  0  0  0  0  0  0  0  0
   -0.5325   -2.1082    0.1710 H   0  0  0  0  0  0  0  0  0  0  0  0
   -0.6551    1.1383   -0.2521 H   0  0  0  0  0  0  0  0  0  0  0  0
   -1.4230    0.0529    1.1413 H   0  0  0  0  0  0  0  0  0  0  0  0
    0.6020    1.0057    2.1274 H   0  0  0  0  0  0  0  0  0  0  0  0
    1.9113   -1.2818    0.5724 H   0  0  0  0  0  0  0  0  0  0  0  0
    2.6140   -0.3107    1.9796 H   0  0  0  0  0  0  0  0  0  0  0  0
  1  2  1  0
  1  3  1  0
  1  4  1  0
  1 13  1  0
  5  6  2  3
  5 10  1  0
  5 11  1  0
  6  7  1  0
  6 12  1  0
  7  8  1  0
  7 14  1  0
  8  9  2  3
  8 15  1  0
  9 16  1  0
  9 17  1  0
M  RAD  1   7   2
M  END
>  <reaction>  (12) 
rxn_1126

>  <mol_properties>  (12) 
{"0": {"label": "*3", "atom_type": "Cs"}, "1": {"label": "*4", "atom_type": "H0"}, "5": {"label": "*0", "atom_type": "Cd"}, "6": {"label": "*1", "atom_type": "Cs"}, "12": {"label": "*2", "atom_type": "H0"}}

>  <type>  (12) 
unop_8

>  <geom_source>  (12) 
Heuristics

$$$$

     RDKit          3D

 17 15  0  0  0  0  0  0  0  0999 V2000
   -0.7774    2.2085   -0.9982 C   0  0  0  0  0  0  0  0  0  0  0  0
   -0.3291    2.0213   -1.9727 H   0  0  0  0  0  0  0  0  0  0  0  0
   -0.0949    2.8030   -0.3928 H   0  0  0  0  0  0  0  0  0  0  0  0
   -1.7539    2.5046   -0.6179 H   0  0  0  0  0  0  0  0  0  0  0  0
   -0.5379   -1.1553   -1.6825 C   0  0  0  0  0  0  0  0  0  0  0  0
   -0.5379   -1.1553   -0.3593 C   0  0  0  0  0  0  0  0  0  0  0  0
   -0.5379    0.0705    0.4987 C   0  0  0  0  0  3  0  0  0  0  0  0
    0.6718    0.2249    1.3799 C   0  0  0  0  0  0  0  0  0  0  0  0
    1.7829   -0.4908    1.3075 C   0  0  0  0  0  0  0  0  0  0  0  0
   -0.5461   -2.0780   -2.2491 H   0  0  0  0  0  0  0  0  0  0  0  0
   -0.5316   -0.2298   -2.2485 H   0  0  0  0  0  0  0  0  0  0  0  0
   -0.5354   -2.1040    0.1712 H   0  0  0  0  0  0  0  0  0  0  0  0
   -0.6580    1.1425   -0.2518 H   0  0  0  0  0  0  0  0  0  0  0  0
   -1.4259    0.0570    1.1415 H   0  0  0  0  0  0  0  0  0  0  0  0
    0.5991    1.0099    2.1276 H   0  0  0  0  0  0  0  0  0  0  0  0
    1.9084   -1.2777    0.5726 H   0  0  0  0  0  0  0  0  0  0  0  0
    2.6111   -0.3065    1.9798 H   0  0  0  0  0  0  0  0  0  0  0  0
  1  2  1  0
  1  3  1  0
  1  4  1  0
  1 13  1  0
  5  6  2  3
  5 10  1  0
  5 11  1  0
  6  7  1  0
  6 12  1  0
  7  8  1  0
  7 14  1  0
  8  9  2  3
  8 15  1  0
  9 16  1  0
  9 17  1  0
M  RAD  1   7   2
M  END
>  <reaction>  (13) 
rxn_1126

>  <mol_properties>  (13) 
{"0": {"label": "*3", "atom_type": "Cs"}, "1": {"label": "*4", "atom_type": "H0"}, "5": {"label": "*0", "atom_type": "Cd"}, "6": {"label": "*1", "atom_type": "Cs"}, "12": {"label": "*2", "atom_type": "H0"}}

>  <type>  (13) 
unop_9

>  <geom_source>  (13) 
Heuristics

$$$$

     RDKit          3D

 17 15  0  0  0  0  0  0  0  0999 V2000
   -0.7745    2.2065   -0.9970 C   0  0  0  0  0  0  0  0  0  0  0  0
   -1.7096    2.1575   -1.5529 H   0  0  0  0  0  0  0  0  0  0  0  0
   -0.0481    2.7912   -1.5593 H   0  0  0  0  0  0  0  0  0  0  0  0
   -0.6531    2.5323    0.0350 H   0  0  0  0  0  0  0  0  0  0  0  0
   -0.5350   -1.1572   -1.6814 C   0  0  0  0  0  0  0  0  0  0  0  0
   -0.5350   -1.1572   -0.3581 C   0  0  0  0  0  0  0  0  0  0  0  0
   -0.5350    0.0686    0.4999 C   0  0  0  0  0  3  0  0  0  0  0  0
    0.6747    0.2230    1.3811 C   0  0  0  0  0  0  0  0  0  0  0  0
    1.7859   -0.4927    1.3087 C   0  0  0  0  0  0  0  0  0  0  0  0
   -0.5432   -2.0799   -2.2479 H   0  0  0  0  0  0  0  0  0  0  0  0
   -0.5287   -0.2317   -2.2473 H   0  0  0  0  0  0  0  0  0  0  0  0
   -0.5324   -2.1059    0.1724 H   0  0  0  0  0  0  0  0  0  0  0  0
   -0.6551    1.1406   -0.2507 H   0  0  0  0  0  0  0  0  0  0  0  0
   -1.4230    0.0551    1.1427 H   0  0  0  0  0  0  0  0  0  0  0  0
    0.6020    1.0080    2.1288 H   0  0  0  0  0  0  0  0  0  0  0  0
    1.9113   -1.2796    0.5738 H   0  0  0  0  0  0  0  0  0  0  0  0
    2.6141   -0.3084    1.9810 H   0  0  0  0  0  0  0  0  0  0  0  0
  1  2  1  0
  1  3  1  0
  1  4  1  0
  1 13  1  0
  5  6  2  3
  5 10  1  0
  5 11  1  0
  6  7  1  0
  6 12  1  0
  7  8  1  0
  7 14  1  0
  8  9  2  3
  8 15  1  0
  9 16  1  0
  9 17  1  0
M  RAD  1   7   2
M  END
>  <reaction>  (14) 
rxn_1126

>  <mol_properties>  (14) 
{"0": {"label": "*3", "atom_type": "Cs"}, "1": {"label": "*4", "atom_type": "H0"}, "5": {"label": "*0", "atom_type": "Cd"}, "6": {"label": "*1", "atom_type": "Cs"}, "12": {"label": "*2", "atom_type": "H0"}}

>  <type>  (14) 
unop_10

>  <geom_source>  (14) 
Heuristics

$$$$

     RDKit          3D

 17 15  0  0  0  0  0  0  0  0999 V2000
   -0.7718    2.2019   -0.9956 C   0  0  0  0  0  0  0  0  0  0  0  0
   -0.2646    3.0385   -0.5174 H   0  0  0  0  0  0  0  0  0  0  0  0
   -1.8179    2.1909   -0.6934 H   0  0  0  0  0  0  0  0  0  0  0  0
   -0.5453    2.6198   -1.9753 H   0  0  0  0  0  0  0  0  0  0  0  0
   -0.5323   -1.1618   -1.6800 C   0  0  0  0  0  0  0  0  0  0  0  0
   -0.5323   -1.1618   -0.3567 C   0  0  0  0  0  0  0  0  0  0  0  0
   -0.5323    0.0640    0.5013 C   0  0  0  0  0  3  0  0  0  0  0  0
    0.6774    0.2183    1.3825 C   0  0  0  0  0  0  0  0  0  0  0  0
    1.7886   -0.4974    1.3100 C   0  0  0  0  0  0  0  0  0  0  0  0
   -0.5404   -2.0846   -2.2465 H   0  0  0  0  0  0  0  0  0  0  0  0
   -0.5259   -0.2364   -2.2460 H   0  0  0  0  0  0  0  0  0  0  0  0
   -0.5297   -2.1106    0.1738 H   0  0  0  0  0  0  0  0  0  0  0  0
   -0.6523    1.1360   -0.2493 H   0  0  0  0  0  0  0  0  0  0  0  0
   -1.4202    0.0505    1.1440 H   0  0  0  0  0  0  0  0  0  0  0  0
    0.6048    1.0034    2.1302 H   0  0  0  0  0  0  0  0  0  0  0  0
    1.9141   -1.2842    0.5752 H   0  0  0  0  0  0  0  0  0  0  0  0
    2.6168   -0.3131    1.9824 H   0  0  0  0  0  0  0  0  0  0  0  0
  1  2  1  0
  1  3  1  0
  1  4  1  0
  1 13  1  0
  5  6  2  3
  5 10  1  0
  5 11  1  0
  6  7  1  0
  6 12  1  0
  7  8  1  0
  7 14  1  0
  8  9  2  3
  8 15  1  0
  9 16  1  0
  9 17  1  0
M  RAD  1   7   2
M  END
>  <reaction>  (15) 
rxn_1126

>  <mol_properties>  (15) 
{"0": {"label": "*3", "atom_type": "Cs"}, "1": {"label": "*4", "atom_type": "H0"}, "5": {"label": "*0", "atom_type": "Cd"}, "6": {"label": "*1", "atom_type": "Cs"}, "12": {"label": "*2", "atom_type": "H0"}}

>  <type>  (15) 
unop_11

>  <geom_source>  (15) 
Heuristics

$$$$

     RDKit          3D

 17 15  0  0  0  0  0  0  0  0999 V2000
   -0.7775    2.2092   -0.9971 C   0  0  0  0  0  0  0  0  0  0  0  0
   -0.8447    1.9143   -2.0432 H   0  0  0  0  0  0  0  0  0  0  0  0
    0.0912    2.8504   -0.8559 H   0  0  0  0  0  0  0  0  0  0  0  0
   -1.4161    2.5037   -0.1657 H   0  0  0  0  0  0  0  0  0  0  0  0
   -0.5380   -1.1545   -1.6815 C   0  0  0  0  0  0  0  0  0  0  0  0
   -0.5380   -1.1545   -0.3583 C   0  0  0  0  0  0  0  0  0  0  0  0
   -0.5380    0.0713    0.4997 C   0  0  0  0  0  3  0  0  0  0  0  0
    0.6717    0.2257    1.3809 C   0  0  0  0  0  0  0  0  0  0  0  0
    1.7828   -0.4900    1.3085 C   0  0  0  0  0  0  0  0  0  0  0  0
   -0.5462   -2.0773   -2.2480 H   0  0  0  0  0  0  0  0  0  0  0  0
   -0.5317   -0.2291   -2.2475 H   0  0  0  0  0  0  0  0  0  0  0  0
   -0.5355   -2.1033    0.1723 H   0  0  0  0  0  0  0  0  0  0  0  0
   -0.6581    1.1433   -0.2508 H   0  0  0  0  0  0  0  0  0  0  0  0
   -1.4260    0.0578    1.1425 H   0  0  0  0  0  0  0  0  0  0  0  0
    0.5990    1.0107    2.1287 H   0  0  0  0  0  0  0  0  0  0  0  0
    1.9083   -1.2769    0.5736 H   0  0  0  0  0  0  0  0  0  0  0  0
    2.6110   -0.3057    1.9808 H   0  0  0  0  0  0  0  0  0  0  0  0
  1  2  1  0
  1  3  1  0
  1  4  1  0
  1 13  1  0
  5  6  2  3
  5 10  1  0
  5 11  1  0
  6  7  1  0
  6 12  1  0
  7  8  1  0
  7 14  1  0
  8  9  2  3
  8 15  1  0
  9 16  1  0
  9 17  1  0
M  RAD  1   7   2
M  END
>  <reaction>  (16) 
rxn_1126

>  <mol_properties>  (16) 
{"0": {"label": "*3", "atom_type": "Cs"}, "1": {"label": "*4", "atom_type": "H0"}, "5": {"label": "*0", "atom_type": "Cd"}, "6": {"label": "*1", "atom_type": "Cs"}, "12": {"label": "*2", "atom_type": "H0"}}

>  <type>  (16) 
unop_12

>  <geom_source>  (16) 
Heuristics

$$$$

     RDKit          3D

 17 15  0  0  0  0  0  0  0  0999 V2000
    2.0927   -0.1531   -0.3079 C   0  0  0  0  0  0  0  0  0  0  0  0
   -0.4023    0.5381    0.2636 C   0  0  0  0  0  3  0  0  0  0  0  0
   -0.0076   -0.8230    0.7439 C   0  0  0  0  0  0  0  0  0  0  0  0
   -1.8899    0.6484    0.1111 C   0  0  0  0  0  0  0  0  0  0  0  0
    0.6590   -1.6576   -0.0541 C   0  0  0  0  0  0  0  0  0  0  0  0
   -2.4306    1.7091   -0.4902 C   0  0  0  0  0  0  0  0  0  0  0  0
    2.6236    0.4645    0.4454 H   0  0  0  0  0  0  0  0  0  0  0  0
    2.1318   -1.2198   -0.0055 H   0  0  0  0  0  0  0  0  0  0  0  0
    2.5807   -0.0308   -1.2967 H   0  0  0  0  0  0  0  0  0  0  0  0
    0.9422    0.2023   -0.3806 H   0  0  0  0  0  0  0  0  0  0  0  0
   -0.2803   -1.1381    1.7469 H   0  0  0  0  0  0  0  0  0  0  0  0
   -0.0299    1.3113    0.9686 H   0  0  0  0  0  0  0  0  0  0  0  0
   -2.5424   -0.1326    0.4933 H   0  0  0  0  0  0  0  0  0  0  0  0
    0.9340   -1.3644   -1.0630 H   0  0  0  0  0  0  0  0  0  0  0  0
    0.9338   -2.6453    0.3013 H   0  0  0  0  0  0  0  0  0  0  0  0
   -1.8066    2.5074   -0.8812 H   0  0  0  0  0  0  0  0  0  0  0  0
   -3.5081    1.7836   -0.5950 H   0  0  0  0  0  0  0  0  0  0  0  0
  1  7  1  0
  1  8  1  0
  1  9  1  0
  1 10  1  0
  2  3  1  0
  2  4  1  0
  2 12  1  0
  3  5  2  3
  3 11  1  0
  4  6  2  3
  4 13  1  0
  5 14  1  0
  5 15  1  0
  6 16  1  0
  6 17  1  0
M  RAD  1   2   2
M  END
>  <reaction>  (17) 
rxn_1126

>  <mol_properties>  (17) 
{"0": {"label": "*3", "atom_type": "Cs"}, "1": {"label": "*4", "atom_type": "H0"}, "5": {"label": "*0", "atom_type": "Cd"}, "6": {"label": "*1", "atom_type": "Cs"}, "12": {"label": "*2", "atom_type": "H0"}}

>  <type>  (17) 
unop_13

>  <geom_source>  (17) 
AutoTST

$$$$

     RDKit          3D

 17 15  0  0  0  0  0  0  0  0999 V2000
   -0.7761    2.2084   -0.9963 C   0  0  0  0  0  0  0  0  0  0  0  0
   -1.3497    1.9641   -1.8891 H   0  0  0  0  0  0  0  0  0  0  0  0
    0.0618    2.8489   -1.2672 H   0  0  0  0  0  0  0  0  0  0  0  0
   -0.9921    2.5169    0.0254 H   0  0  0  0  0  0  0  0  0  0  0  0
   -0.5366   -1.1553   -1.6807 C   0  0  0  0  0  0  0  0  0  0  0  0
   -0.5366   -1.1553   -0.3574 C   0  0  0  0  0  0  0  0  0  0  0  0
   -0.5366    0.0705    0.5006 C   0  0  0  0  0  3  0  0  0  0  0  0
    0.6731    0.2249    1.3818 C   0  0  0  0  0  0  0  0  0  0  0  0
    1.7842   -0.4908    1.3093 C   0  0  0  0  0  0  0  0  0  0  0  0
   -0.5448   -2.0780   -2.2472 H   0  0  0  0  0  0  0  0  0  0  0  0
   -0.5303   -0.2298   -2.2467 H   0  0  0  0  0  0  0  0  0  0  0  0
   -0.5341   -2.1040    0.1731 H   0  0  0  0  0  0  0  0  0  0  0  0
   -0.6567    1.1425   -0.2500 H   0  0  0  0  0  0  0  0  0  0  0  0
   -1.4246    0.0570    1.1433 H   0  0  0  0  0  0  0  0  0  0  0  0
    0.6004    1.0099    2.1295 H   0  0  0  0  0  0  0  0  0  0  0  0
    1.9097   -1.2777    0.5745 H   0  0  0  0  0  0  0  0  0  0  0  0
    2.6124   -0.3065    1.9817 H   0  0  0  0  0  0  0  0  0  0  0  0
  1  2  1  0
  1  3  1  0
  1  4  1  0
  1 13  1  0
  5  6  2  3
  5 10  1  0
  5 11  1  0
  6  7  1  0
  6 12  1  0
  7  8  1  0
  7 14  1  0
  8  9  2  3
  8 15  1  0
  9 16  1  0
  9 17  1  0
M  RAD  1   7   2
M  END
>  <reaction>  (18) 
rxn_1126

>  <mol_properties>  (18) 
{"0": {"label": "*3", "atom_type": "Cs"}, "1": {"label": "*4", "atom_type": "H0"}, "5": {"label": "*0", "atom_type": "Cd"}, "6": {"label": "*1", "atom_type": "Cs"}, "12": {"label": "*2", "atom_type": "H0"}}

>  <type>  (18) 
unop_14

>  <geom_source>  (18) 
gaussian_log

$$$$
