
     RDKit          3D

 15 15  0  0  0  0  0  0  0  0999 V2000
    2.2031   -0.2111   -0.1693 C   0  0  0  0  0  0  0  0  0  0  0  0
    0.7140   -0.0314   -0.0623 C   0  0  0  0  0  0  0  0  0  0  0  0
   -0.0114    0.5491   -1.0982 C   0  0  0  0  0  0  0  0  0  0  0  0
   -1.3882    0.6886   -1.0150 C   0  0  0  0  0  0  0  0  0  0  0  0
   -2.0661    0.2493    0.1118 C   0  0  0  0  0  0  0  0  0  0  0  0
   -1.3551   -0.3278    1.1528 C   0  0  0  0  0  0  0  0  0  0  0  0
    0.0216   -0.4648    1.0642 C   0  0  0  0  0  0  0  0  0  0  0  0
    2.6776   -0.1836    0.8122 H   0  0  0  0  0  0  0  0  0  0  0  0
    2.4446   -1.1749   -0.6249 H   0  0  0  0  0  0  0  0  0  0  0  0
    2.6532    0.5664   -0.7875 H   0  0  0  0  0  0  0  0  0  0  0  0
    0.5104    0.8989   -1.9819 H   0  0  0  0  0  0  0  0  0  0  0  0
   -1.9328    1.1452   -1.8322 H   0  0  0  0  0  0  0  0  0  0  0  0
   -3.1409    0.3597    0.1800 H   0  0  0  0  0  0  0  0  0  0  0  0
   -1.8736   -0.6702    2.0398 H   0  0  0  0  0  0  0  0  0  0  0  0
    0.5695   -0.9141    1.8849 H   0  0  0  0  0  0  0  0  0  0  0  0
  1  2  1  0
  1  8  1  0
  1  9  1  0
  1 10  1  0
  2  3  2  0
  2  7  1  0
  3  4  1  0
  3 11  1  0
  4  5  2  0
  4 12  1  0
  5  6  1  0
  5 13  1  0
  6  7  2  0
  6 14  1  0
  7 15  1  0
M  END
>  <reaction>  (1) 
rxn_1465

>  <mol_properties>  (1) 
{"0": {"label": "donator", "atom_type": "Cs"}, "7": {"label": "d_hydrogen", "atom_type": "H0"}}

>  <type>  (1) 
r1h

$$$$

     RDKit          3D

  7  6  0  0  0  0  0  0  0  0999 V2000
    1.8092   -0.3013   -0.2242 S   0  0  0  0  0  0  0  0  0  0  0  0
    0.1552   -0.6967   -0.1137 C   0  0  0  0  0  0  0  0  0  0  0  0
   -0.8921    0.1788    0.1148 C   0  0  0  0  0  0  0  0  0  0  0  0
   -0.7548    1.8245    0.3328 S   0  0  0  0  0  1  0  0  0  0  0  0
    1.6168    1.0210   -0.0187 H   0  0  0  0  0  0  0  0  0  0  0  0
   -0.0550   -1.7522   -0.2412 H   0  0  0  0  0  0  0  0  0  0  0  0
   -1.8791   -0.2740    0.1502 H   0  0  0  0  0  0  0  0  0  0  0  0
  1  2  1  0
  1  5  1  0
  2  3  2  3
  2  6  1  0
  3  4  1  0
  3  7  1  0
M  RAD  1   4   2
M  END
>  <reaction>  (2) 
rxn_1465

>  <mol_properties>  (2) 
{"1": {"label": "acceptor", "atom_type": "Cs"}}

>  <type>  (2) 
r2

$$$$

     RDKit          3D

  8  7  0  0  0  0  0  0  0  0999 V2000
    1.7301   -0.0562    0.5281 S   0  0  0  0  0  0  0  0  0  0  0  0
    0.1858    0.6127   -0.1669 C   0  0  0  0  0  0  0  0  0  0  0  0
   -0.9621   -0.2567    0.2171 C   0  0  0  0  0  0  0  0  0  0  0  0
   -1.8663   -1.1002   -0.8086 S   0  0  0  0  0  0  0  0  0  0  0  0
    1.7025   -1.2092   -0.1540 H   0  0  0  0  0  0  0  0  0  0  0  0
    0.2619    0.7246   -1.2458 H   0  0  0  0  0  0  0  0  0  0  0  0
    0.0809    1.5982    0.2929 H   0  0  0  0  0  0  0  0  0  0  0  0
   -1.1456   -0.3126    1.2907 H   0  0  0  0  0  0  0  0  0  0  0  0
  1  2  1  0
  1  5  1  0
  2  3  1  0
  2  6  1  0
  2  7  1  0
  3  4  2  0
  3  8  1  0
M  END
>  <reaction>  (3) 
rxn_1465

>  <mol_properties>  (3) 
{"1": {"label": "acceptor", "atom_type": "Cs"}, "7": {"label": "a_hydrogen", "atom_type": "H0"}}

>  <type>  (3) 
r2h

$$$$

     RDKit          3D

 22 21  0  0  0  0  0  0  0  0999 V2000
    0.2088   -2.5150    1.1580 S   0  0  0  0  0  0  0  0  0  0  0  0
   -0.3320   -0.9139    1.7038 C   0  0  0  0  0  0  0  0  0  0  0  0
   -1.4592   -0.2630    1.0653 C   0  0  0  0  0  0  0  0  0  0  0  0
   -2.1259   -0.6168   -0.3735 S   0  0  0  0  0  0  0  0  0  0  0  0
   -0.4029   -2.4274   -0.0391 H   0  0  0  0  0  0  0  0  0  0  0  0
   -0.3514   -0.8566    2.7907 H   0  0  0  0  0  0  0  0  0  0  0  0
   -1.8249    0.6030    1.6170 H   0  0  0  0  0  0  0  0  0  0  0  0
    1.7753    0.6581    0.9809 C   0  0  0  0  0  0  0  0  0  0  0  0
    1.4191    0.9019   -0.3933 C   0  0  0  0  0  0  0  0  0  0  0  0
    0.6978    2.0488   -0.7572 C   0  0  0  0  0  3  0  0  0  0  0  0
    0.2707    2.2332   -2.0577 C   0  0  0  0  0  0  0  0  0  0  0  0
    0.5458    1.2749   -3.0242 C   0  0  0  0  0  0  0  0  0  0  0  0
    1.2624    0.1346   -2.6827 C   0  0  0  0  0  0  0  0  0  0  0  0
    1.6946   -0.0526   -1.3845 C   0  0  0  0  0  0  0  0  0  0  0  0
    0.6221   -0.1068    1.4359 H   0  0  0  0  0  0  0  0  0  0  0  0
    2.5349   -0.0893    1.1855 H   0  0  0  0  0  0  0  0  0  0  0  0
    1.7508    1.4975    1.6688 H   0  0  0  0  0  0  0  0  0  0  0  0
    0.4727    2.7935   -0.0025 H   0  0  0  0  0  0  0  0  0  0  0  0
   -0.2872    3.1228   -2.3207 H   0  0  0  0  0  0  0  0  0  0  0  0
    0.2044    1.4168   -4.0415 H   0  0  0  0  0  0  0  0  0  0  0  0
    1.4797   -0.6129   -3.4351 H   0  0  0  0  0  0  0  0  0  0  0  0
    2.2426   -0.9474   -1.1157 H   0  0  0  0  0  0  0  0  0  0  0  0
  1  2  1  0
  1  5  1  0
  2  3  1  0
  2  6  1  0
  2 15  1  0
  3  4  2  0
  3  7  1  0
  8  9  2  3
  8 16  1  0
  8 17  1  0
  9 10  1  0
  9 14  1  0
 10 11  1  0
 10 18  1  0
 11 12  2  0
 11 19  1  0
 12 13  1  0
 12 20  1  0
 13 14  2  0
 13 21  1  0
 14 22  1  0
M  RAD  1  10   2
M  END
>  <reaction>  (4) 
rxn_1465

>  <mol_properties>  (4) 
{"1": {"label": "*1", "atom_type": "Cs"}, "2": {"label": "*0", "atom_type": "CS"}, "7": {"label": "*3", "atom_type": "Cd"}, "8": {"label": "*4", "atom_type": "Cd"}, "14": {"label": "*2", "atom_type": "H0"}}

>  <type>  (4) 
ts

$$$$

     RDKit          3D

 22 21  0  0  0  0  0  0  0  0999 V2000
    0.6957   -1.5832    2.9010 S   0  0  0  0  0  0  0  0  0  0  0  0
   -0.4499   -0.6111    1.8724 C   0  0  0  0  0  0  0  0  0  0  0  0
   -1.6307   -1.4420    1.5036 C   0  0  0  0  0  0  0  0  0  0  0  0
   -2.0164   -1.8884    0.0092 S   0  0  0  0  0  0  0  0  0  0  0  0
    0.9790   -2.5004    1.9662 H   0  0  0  0  0  0  0  0  0  0  0  0
   -0.7593    0.2182    2.5130 H   0  0  0  0  0  0  0  0  0  0  0  0
   -2.2336   -1.7697    2.3513 H   0  0  0  0  0  0  0  0  0  0  0  0
    0.7282    1.5193    0.9216 C   0  0  0  0  0  0  0  0  0  0  0  0
    0.7282    1.5193   -0.5822 C   0  0  0  0  0  0  0  0  0  0  0  0
    0.7282    2.7136   -1.2962 C   0  0  0  0  0  3  0  0  0  0  0  0
    0.7587    2.7169   -2.6822 C   0  0  0  0  0  0  0  0  0  0  0  0
    0.7882    1.5199   -3.3812 C   0  0  0  0  0  0  0  0  0  0  0  0
    0.7851    0.3226   -2.6822 C   0  0  0  0  0  0  0  0  0  0  0  0
    0.7545    0.3252   -1.2962 C   0  0  0  0  0  0  0  0  0  0  0  0
    0.1383    0.4526    1.3976 H   0  0  0  0  0  0  0  0  0  0  0  0
    1.7504    1.5305    1.3083 H   0  0  0  0  0  0  0  0  0  0  0  0
    0.2172    2.3972    1.3183 H   0  0  0  0  0  0  0  0  0  0  0  0
    0.7016    3.6547   -0.7584 H   0  0  0  0  0  0  0  0  0  0  0  0
    0.7560    3.6582   -3.2179 H   0  0  0  0  0  0  0  0  0  0  0  0
    0.8093    1.5202   -4.4636 H   0  0  0  0  0  0  0  0  0  0  0  0
    0.8032   -0.6185   -3.2179 H   0  0  0  0  0  0  0  0  0  0  0  0
    0.7487   -0.6162   -0.7584 H   0  0  0  0  0  0  0  0  0  0  0  0
  1  2  1  0
  1  5  1  0
  2  3  1  0
  2  6  1  0
  2 15  1  0
  3  4  2  0
  3  7  1  0
  8  9  2  3
  8 16  1  0
  8 17  1  0
  9 10  1  0
  9 14  1  0
 10 11  1  0
 10 18  1  0
 11 12  2  0
 11 19  1  0
 12 13  1  0
 12 20  1  0
 13 14  2  0
 13 21  1  0
 14 22  1  0
M  RAD  1  10   2
M  END
>  <reaction>  (5) 
rxn_1465

>  <mol_properties>  (5) 
{"1": {"label": "*1", "atom_type": "Cs"}, "2": {"label": "*0", "atom_type": "CS"}, "7": {"label": "*3", "atom_type": "Cd"}, "8": {"label": "*4", "atom_type": "Cd"}, "14": {"label": "*2", "atom_type": "H0"}}

>  <type>  (5) 
unop_1

>  <geom_source>  (5) 
Heuristics

$$$$

     RDKit          3D

 22 21  0  0  0  0  0  0  0  0999 V2000
    0.0864   -2.4140    0.6640 S   0  0  0  0  0  0  0  0  0  0  0  0
   -0.1054   -1.0035    1.7994 C   0  0  0  0  0  0  0  0  0  0  0  0
   -1.4646   -1.0244    2.4101 C   0  0  0  0  0  0  0  0  0  0  0  0
   -2.5948    0.0957    2.1885 S   0  0  0  0  0  0  0  0  0  0  0  0
   -0.8723   -2.0354   -0.1922 H   0  0  0  0  0  0  0  0  0  0  0  0
    0.6544   -1.1634    2.5682 H   0  0  0  0  0  0  0  0  0  0  0  0
   -1.6689   -1.9017    3.0249 H   0  0  0  0  0  0  0  0  0  0  0  0
    1.0727    1.1269    0.8486 C   0  0  0  0  0  0  0  0  0  0  0  0
    1.0727    1.1269   -0.6551 C   0  0  0  0  0  0  0  0  0  0  0  0
    1.0727    2.3212   -1.3691 C   0  0  0  0  0  3  0  0  0  0  0  0
    1.1032    2.3246   -2.7551 C   0  0  0  0  0  0  0  0  0  0  0  0
    1.1327    1.1276   -3.4542 C   0  0  0  0  0  0  0  0  0  0  0  0
    1.1296   -0.0698   -2.7551 C   0  0  0  0  0  0  0  0  0  0  0  0
    1.0990   -0.0671   -1.3691 C   0  0  0  0  0  0  0  0  0  0  0  0
    0.4828    0.0602    1.3247 H   0  0  0  0  0  0  0  0  0  0  0  0
    2.0949    1.1382    1.2354 H   0  0  0  0  0  0  0  0  0  0  0  0
    0.5617    2.0048    1.2454 H   0  0  0  0  0  0  0  0  0  0  0  0
    1.0461    3.2623   -0.8313 H   0  0  0  0  0  0  0  0  0  0  0  0
    1.1005    3.2658   -3.2909 H   0  0  0  0  0  0  0  0  0  0  0  0
    1.1538    1.1278   -4.5365 H   0  0  0  0  0  0  0  0  0  0  0  0
    1.1477   -1.0108   -3.2909 H   0  0  0  0  0  0  0  0  0  0  0  0
    1.0932   -1.0086   -0.8313 H   0  0  0  0  0  0  0  0  0  0  0  0
  1  2  1  0
  1  5  1  0
  2  3  1  0
  2  6  1  0
  2 15  1  0
  3  4  2  0
  3  7  1  0
  8  9  2  3
  8 16  1  0
  8 17  1  0
  9 10  1  0
  9 14  1  0
 10 11  1  0
 10 18  1  0
 11 12  2  0
 11 19  1  0
 12 13  1  0
 12 20  1  0
 13 14  2  0
 13 21  1  0
 14 22  1  0
M  RAD  1  10   2
M  END
>  <reaction>  (6) 
rxn_1465

>  <mol_properties>  (6) 
{"1": {"label": "*1", "atom_type": "Cs"}, "2": {"label": "*0", "atom_type": "CS"}, "7": {"label": "*3", "atom_type": "Cd"}, "8": {"label": "*4", "atom_type": "Cd"}, "14": {"label": "*2", "atom_type": "H0"}}

>  <type>  (6) 
unop_2

>  <geom_source>  (6) 
Heuristics

$$$$

     RDKit          3D

 22 21  0  0  0  0  0  0  0  0999 V2000
    0.0233   -1.0523    3.4352 S   0  0  0  0  0  0  0  0  0  0  0  0
   -0.6870   -0.5796    1.8266 C   0  0  0  0  0  0  0  0  0  0  0  0
   -1.2438   -1.7819    1.1445 C   0  0  0  0  0  0  0  0  0  0  0  0
   -0.6995   -2.3959   -0.2368 S   0  0  0  0  0  0  0  0  0  0  0  0
    0.9754   -1.8532    2.9375 H   0  0  0  0  0  0  0  0  0  0  0  0
   -1.4909    0.1176    2.0746 H   0  0  0  0  0  0  0  0  0  0  0  0
   -2.0654   -2.2622    1.6771 H   0  0  0  0  0  0  0  0  0  0  0  0
    0.4910    1.5508    0.8758 C   0  0  0  0  0  0  0  0  0  0  0  0
    0.4910    1.5508   -0.6279 C   0  0  0  0  0  0  0  0  0  0  0  0
    0.4910    2.7451   -1.3420 C   0  0  0  0  0  3  0  0  0  0  0  0
    0.5215    2.7484   -2.7279 C   0  0  0  0  0  0  0  0  0  0  0  0
    0.5510    1.5514   -3.4270 C   0  0  0  0  0  0  0  0  0  0  0  0
    0.5479    0.3541   -2.7279 C   0  0  0  0  0  0  0  0  0  0  0  0
    0.5174    0.3567   -1.3420 C   0  0  0  0  0  0  0  0  0  0  0  0
   -0.0988    0.4840    1.3519 H   0  0  0  0  0  0  0  0  0  0  0  0
    1.5133    1.5620    1.2626 H   0  0  0  0  0  0  0  0  0  0  0  0
   -0.0200    2.4287    1.2726 H   0  0  0  0  0  0  0  0  0  0  0  0
    0.4644    3.6862   -0.8041 H   0  0  0  0  0  0  0  0  0  0  0  0
    0.5188    3.6896   -3.2637 H   0  0  0  0  0  0  0  0  0  0  0  0
    0.5722    1.5517   -4.5093 H   0  0  0  0  0  0  0  0  0  0  0  0
    0.5660   -0.5870   -3.2637 H   0  0  0  0  0  0  0  0  0  0  0  0
    0.5115   -0.5847   -0.8041 H   0  0  0  0  0  0  0  0  0  0  0  0
  1  2  1  0
  1  5  1  0
  2  3  1  0
  2  6  1  0
  2 15  1  0
  3  4  2  0
  3  7  1  0
  8  9  2  3
  8 16  1  0
  8 17  1  0
  9 10  1  0
  9 14  1  0
 10 11  1  0
 10 18  1  0
 11 12  2  0
 11 19  1  0
 12 13  1  0
 12 20  1  0
 13 14  2  0
 13 21  1  0
 14 22  1  0
M  RAD  1  10   2
M  END
>  <reaction>  (7) 
rxn_1465

>  <mol_properties>  (7) 
{"1": {"label": "*1", "atom_type": "Cs"}, "2": {"label": "*0", "atom_type": "CS"}, "7": {"label": "*3", "atom_type": "Cd"}, "8": {"label": "*4", "atom_type": "Cd"}, "14": {"label": "*2", "atom_type": "H0"}}

>  <type>  (7) 
unop_3

>  <geom_source>  (7) 
Heuristics

$$$$

     RDKit          3D

 22 21  0  0  0  0  0  0  0  0999 V2000
   -2.1701   -1.5595    0.8823 S   0  0  0  0  0  0  0  0  0  0  0  0
   -0.4384   -1.4715    1.4378 C   0  0  0  0  0  0  0  0  0  0  0  0
   -0.3611   -0.7689    2.7497 C   0  0  0  0  0  0  0  0  0  0  0  0
    0.3781    0.6347    3.0044 S   0  0  0  0  0  0  0  0  0  0  0  0
   -2.3492   -0.2361    0.7726 H   0  0  0  0  0  0  0  0  0  0  0  0
   -0.1322   -2.5142    1.5515 H   0  0  0  0  0  0  0  0  0  0  0  0
   -0.8850   -1.2731    3.5625 H   0  0  0  0  0  0  0  0  0  0  0  0
    0.7397    0.6589    0.4870 C   0  0  0  0  0  0  0  0  0  0  0  0
    0.7397    0.6589   -1.0167 C   0  0  0  0  0  0  0  0  0  0  0  0
    0.7397    1.8532   -1.7308 C   0  0  0  0  0  3  0  0  0  0  0  0
    0.7702    1.8566   -3.1167 C   0  0  0  0  0  0  0  0  0  0  0  0
    0.7997    0.6596   -3.8158 C   0  0  0  0  0  0  0  0  0  0  0  0
    0.7966   -0.5378   -3.1167 C   0  0  0  0  0  0  0  0  0  0  0  0
    0.7661   -0.5351   -1.7308 C   0  0  0  0  0  0  0  0  0  0  0  0
    0.1498   -0.4078    0.9631 H   0  0  0  0  0  0  0  0  0  0  0  0
    1.7619    0.6702    0.8738 H   0  0  0  0  0  0  0  0  0  0  0  0
    0.2287    1.5368    0.8838 H   0  0  0  0  0  0  0  0  0  0  0  0
    0.7131    2.7943   -1.1929 H   0  0  0  0  0  0  0  0  0  0  0  0
    0.7675    2.7978   -3.6525 H   0  0  0  0  0  0  0  0  0  0  0  0
    0.8209    0.6598   -4.8981 H   0  0  0  0  0  0  0  0  0  0  0  0
    0.8147   -1.4788   -3.6525 H   0  0  0  0  0  0  0  0  0  0  0  0
    0.7602   -1.4766   -1.1929 H   0  0  0  0  0  0  0  0  0  0  0  0
  1  2  1  0
  1  5  1  0
  2  3  1  0
  2  6  1  0
  2 15  1  0
  3  4  2  0
  3  7  1  0
  8  9  2  3
  8 16  1  0
  8 17  1  0
  9 10  1  0
  9 14  1  0
 10 11  1  0
 10 18  1  0
 11 12  2  0
 11 19  1  0
 12 13  1  0
 12 20  1  0
 13 14  2  0
 13 21  1  0
 14 22  1  0
M  RAD  1  10   2
M  END
>  <reaction>  (8) 
rxn_1465

>  <mol_properties>  (8) 
{"1": {"label": "*1", "atom_type": "Cs"}, "2": {"label": "*0", "atom_type": "CS"}, "7": {"label": "*3", "atom_type": "Cd"}, "8": {"label": "*4", "atom_type": "Cd"}, "14": {"label": "*2", "atom_type": "H0"}}

>  <type>  (8) 
unop_4

>  <geom_source>  (8) 
Heuristics

$$$$

     RDKit          3D

 22 21  0  0  0  0  0  0  0  0999 V2000
   -0.9916   -0.7371    3.4734 S   0  0  0  0  0  0  0  0  0  0  0  0
   -0.9979   -0.7485    1.6526 C   0  0  0  0  0  0  0  0  0  0  0  0
   -0.3628   -1.9996    1.1505 C   0  0  0  0  0  0  0  0  0  0  0  0
    0.9971   -2.0679    0.2976 S   0  0  0  0  0  0  0  0  0  0  0  0
    0.3415   -0.7318    3.6085 H   0  0  0  0  0  0  0  0  0  0  0  0
   -2.0559   -0.7290    1.3806 H   0  0  0  0  0  0  0  0  0  0  0  0
   -0.8848   -2.9146    1.4327 H   0  0  0  0  0  0  0  0  0  0  0  0
    0.1802    1.3819    0.7018 C   0  0  0  0  0  0  0  0  0  0  0  0
    0.1802    1.3819   -0.8019 C   0  0  0  0  0  0  0  0  0  0  0  0
    0.1802    2.5762   -1.5160 C   0  0  0  0  0  3  0  0  0  0  0  0
    0.2106    2.5796   -2.9020 C   0  0  0  0  0  0  0  0  0  0  0  0
    0.2402    1.3826   -3.6010 C   0  0  0  0  0  0  0  0  0  0  0  0
    0.2370    0.1852   -2.9020 C   0  0  0  0  0  0  0  0  0  0  0  0
    0.2065    0.1879   -1.5160 C   0  0  0  0  0  0  0  0  0  0  0  0
   -0.4097    0.3152    1.1779 H   0  0  0  0  0  0  0  0  0  0  0  0
    1.2024    1.3932    1.0885 H   0  0  0  0  0  0  0  0  0  0  0  0
   -0.3308    2.2598    1.0985 H   0  0  0  0  0  0  0  0  0  0  0  0
    0.1536    3.5173   -0.9782 H   0  0  0  0  0  0  0  0  0  0  0  0
    0.2080    3.5208   -3.4377 H   0  0  0  0  0  0  0  0  0  0  0  0
    0.2613    1.3828   -4.6834 H   0  0  0  0  0  0  0  0  0  0  0  0
    0.2551   -0.7558   -3.4377 H   0  0  0  0  0  0  0  0  0  0  0  0
    0.2007   -0.7536   -0.9782 H   0  0  0  0  0  0  0  0  0  0  0  0
  1  2  1  0
  1  5  1  0
  2  3  1  0
  2  6  1  0
  2 15  1  0
  3  4  2  0
  3  7  1  0
  8  9  2  3
  8 16  1  0
  8 17  1  0
  9 10  1  0
  9 14  1  0
 10 11  1  0
 10 18  1  0
 11 12  2  0
 11 19  1  0
 12 13  1  0
 12 20  1  0
 13 14  2  0
 13 21  1  0
 14 22  1  0
M  RAD  1  10   2
M  END
>  <reaction>  (9) 
rxn_1465

>  <mol_properties>  (9) 
{"1": {"label": "*1", "atom_type": "Cs"}, "2": {"label": "*0", "atom_type": "CS"}, "7": {"label": "*3", "atom_type": "Cd"}, "8": {"label": "*4", "atom_type": "Cd"}, "14": {"label": "*2", "atom_type": "H0"}}

>  <type>  (9) 
unop_5

>  <geom_source>  (9) 
Heuristics

$$$$

     RDKit          3D

 22 21  0  0  0  0  0  0  0  0999 V2000
   -2.4364   -1.1584    1.6074 S   0  0  0  0  0  0  0  0  0  0  0  0
   -0.6549   -1.4514    1.3709 C   0  0  0  0  0  0  0  0  0  0  0  0
    0.1015   -0.9670    2.5600 C   0  0  0  0  0  0  0  0  0  0  0  0
    1.1657    0.2367    2.5510 S   0  0  0  0  0  0  0  0  0  0  0  0
   -2.3526    0.1779    1.6592 H   0  0  0  0  0  0  0  0  0  0  0  0
   -0.5634   -2.5366    1.2839 H   0  0  0  0  0  0  0  0  0  0  0  0
   -0.1407   -1.4837    3.4893 H   0  0  0  0  0  0  0  0  0  0  0  0
    0.5232    0.6790    0.4201 C   0  0  0  0  0  0  0  0  0  0  0  0
    0.5232    0.6790   -1.0836 C   0  0  0  0  0  0  0  0  0  0  0  0
    0.5232    1.8734   -1.7977 C   0  0  0  0  0  3  0  0  0  0  0  0
    0.5536    1.8767   -3.1837 C   0  0  0  0  0  0  0  0  0  0  0  0
    0.5832    0.6797   -3.8827 C   0  0  0  0  0  0  0  0  0  0  0  0
    0.5800   -0.5177   -3.1837 C   0  0  0  0  0  0  0  0  0  0  0  0
    0.5495   -0.5150   -1.7977 C   0  0  0  0  0  0  0  0  0  0  0  0
   -0.0667   -0.3877    0.8962 H   0  0  0  0  0  0  0  0  0  0  0  0
    1.5454    0.6903    0.8069 H   0  0  0  0  0  0  0  0  0  0  0  0
    0.0122    1.5569    0.8168 H   0  0  0  0  0  0  0  0  0  0  0  0
    0.4966    2.8145   -1.2599 H   0  0  0  0  0  0  0  0  0  0  0  0
    0.5510    2.8179   -3.7194 H   0  0  0  0  0  0  0  0  0  0  0  0
    0.6043    0.6799   -4.9651 H   0  0  0  0  0  0  0  0  0  0  0  0
    0.5981   -1.4587   -3.7194 H   0  0  0  0  0  0  0  0  0  0  0  0
    0.5437   -1.4564   -1.2599 H   0  0  0  0  0  0  0  0  0  0  0  0
  1  2  1  0
  1  5  1  0
  2  3  1  0
  2  6  1  0
  2 15  1  0
  3  4  2  0
  3  7  1  0
  8  9  2  3
  8 16  1  0
  8 17  1  0
  9 10  1  0
  9 14  1  0
 10 11  1  0
 10 18  1  0
 11 12  2  0
 11 19  1  0
 12 13  1  0
 12 20  1  0
 13 14  2  0
 13 21  1  0
 14 22  1  0
M  RAD  1  10   2
M  END
>  <reaction>  (10) 
rxn_1465

>  <mol_properties>  (10) 
{"1": {"label": "*1", "atom_type": "Cs"}, "2": {"label": "*0", "atom_type": "CS"}, "7": {"label": "*3", "atom_type": "Cd"}, "8": {"label": "*4", "atom_type": "Cd"}, "14": {"label": "*2", "atom_type": "H0"}}

>  <type>  (10) 
unop_6

>  <geom_source>  (10) 
Heuristics

$$$$

     RDKit          3D

 22 21  0  0  0  0  0  0  0  0999 V2000
   -2.2998   -0.8875    2.3918 S   0  0  0  0  0  0  0  0  0  0  0  0
   -0.8674   -1.3409    1.3632 C   0  0  0  0  0  0  0  0  0  0  0  0
    0.3800   -1.2843    2.1765 C   0  0  0  0  0  0  0  0  0  0  0  0
    1.6007   -0.2699    1.9271 S   0  0  0  0  0  0  0  0  0  0  0  0
   -1.9007    0.3670    2.6419 H   0  0  0  0  0  0  0  0  0  0  0  0
   -1.0665   -2.3691    1.0516 H   0  0  0  0  0  0  0  0  0  0  0  0
    0.4068   -1.9872    3.0099 H   0  0  0  0  0  0  0  0  0  0  0  0
    0.3106    0.7895    0.4124 C   0  0  0  0  0  0  0  0  0  0  0  0
    0.3106    0.7895   -1.0914 C   0  0  0  0  0  0  0  0  0  0  0  0
    0.3106    1.9838   -1.8054 C   0  0  0  0  0  3  0  0  0  0  0  0
    0.3411    1.9872   -3.1914 C   0  0  0  0  0  0  0  0  0  0  0  0
    0.3706    0.7901   -3.8904 C   0  0  0  0  0  0  0  0  0  0  0  0
    0.3675   -0.4072   -3.1914 C   0  0  0  0  0  0  0  0  0  0  0  0
    0.3370   -0.4045   -1.8054 C   0  0  0  0  0  0  0  0  0  0  0  0
   -0.2792   -0.2772    0.8885 H   0  0  0  0  0  0  0  0  0  0  0  0
    1.3329    0.8007    0.7991 H   0  0  0  0  0  0  0  0  0  0  0  0
   -0.2004    1.6674    0.8091 H   0  0  0  0  0  0  0  0  0  0  0  0
    0.2840    2.9249   -1.2676 H   0  0  0  0  0  0  0  0  0  0  0  0
    0.3384    2.9284   -3.7271 H   0  0  0  0  0  0  0  0  0  0  0  0
    0.3918    0.7904   -4.9728 H   0  0  0  0  0  0  0  0  0  0  0  0
    0.3856   -1.3483   -3.7271 H   0  0  0  0  0  0  0  0  0  0  0  0
    0.3311   -1.3460   -1.2676 H   0  0  0  0  0  0  0  0  0  0  0  0
  1  2  1  0
  1  5  1  0
  2  3  1  0
  2  6  1  0
  2 15  1  0
  3  4  2  0
  3  7  1  0
  8  9  2  3
  8 16  1  0
  8 17  1  0
  9 10  1  0
  9 14  1  0
 10 11  1  0
 10 18  1  0
 11 12  2  0
 11 19  1  0
 12 13  1  0
 12 20  1  0
 13 14  2  0
 13 21  1  0
 14 22  1  0
M  RAD  1  10   2
M  END
>  <reaction>  (11) 
rxn_1465

>  <mol_properties>  (11) 
{"1": {"label": "*1", "atom_type": "Cs"}, "2": {"label": "*0", "atom_type": "CS"}, "7": {"label": "*3", "atom_type": "Cd"}, "8": {"label": "*4", "atom_type": "Cd"}, "14": {"label": "*2", "atom_type": "H0"}}

>  <type>  (11) 
unop_7

>  <geom_source>  (11) 
Heuristics

$$$$

     RDKit          3D

 22 21  0  0  0  0  0  0  0  0999 V2000
    0.8968   -2.0492    2.1122 S   0  0  0  0  0  0  0  0  0  0  0  0
   -0.2984   -0.6961    1.8757 C   0  0  0  0  0  0  0  0  0  0  0  0
   -1.6871   -1.2365    1.8929 C   0  0  0  0  0  0  0  0  0  0  0  0
   -2.7044   -1.2106    0.6496 S   0  0  0  0  0  0  0  0  0  0  0  0
    0.5840   -2.7099    0.9893 H   0  0  0  0  0  0  0  0  0  0  0  0
   -0.1413   -0.0367    2.7326 H   0  0  0  0  0  0  0  0  0  0  0  0
   -1.9790   -1.6990    2.8364 H   0  0  0  0  0  0  0  0  0  0  0  0
    0.8797    1.4343    0.9249 C   0  0  0  0  0  0  0  0  0  0  0  0
    0.8797    1.4343   -0.5788 C   0  0  0  0  0  0  0  0  0  0  0  0
    0.8797    2.6286   -1.2929 C   0  0  0  0  0  3  0  0  0  0  0  0
    0.9101    2.6320   -2.6789 C   0  0  0  0  0  0  0  0  0  0  0  0
    0.9396    1.4350   -3.3779 C   0  0  0  0  0  0  0  0  0  0  0  0
    0.9365    0.2376   -2.6789 C   0  0  0  0  0  0  0  0  0  0  0  0
    0.9060    0.2403   -1.2929 C   0  0  0  0  0  0  0  0  0  0  0  0
    0.2898    0.3676    1.4010 H   0  0  0  0  0  0  0  0  0  0  0  0
    1.9019    1.4456    1.3117 H   0  0  0  0  0  0  0  0  0  0  0  0
    0.3686    2.3122    1.3216 H   0  0  0  0  0  0  0  0  0  0  0  0
    0.8530    3.5697   -0.7551 H   0  0  0  0  0  0  0  0  0  0  0  0
    0.9075    3.5732   -3.2146 H   0  0  0  0  0  0  0  0  0  0  0  0
    0.9608    1.4352   -4.4603 H   0  0  0  0  0  0  0  0  0  0  0  0
    0.9546   -0.7034   -3.2146 H   0  0  0  0  0  0  0  0  0  0  0  0
    0.9001   -0.7012   -0.7551 H   0  0  0  0  0  0  0  0  0  0  0  0
  1  2  1  0
  1  5  1  0
  2  3  1  0
  2  6  1  0
  2 15  1  0
  3  4  2  0
  3  7  1  0
  8  9  2  3
  8 16  1  0
  8 17  1  0
  9 10  1  0
  9 14  1  0
 10 11  1  0
 10 18  1  0
 11 12  2  0
 11 19  1  0
 12 13  1  0
 12 20  1  0
 13 14  2  0
 13 21  1  0
 14 22  1  0
M  RAD  1  10   2
M  END
>  <reaction>  (12) 
rxn_1465

>  <mol_properties>  (12) 
{"1": {"label": "*1", "atom_type": "Cs"}, "2": {"label": "*0", "atom_type": "CS"}, "7": {"label": "*3", "atom_type": "Cd"}, "8": {"label": "*4", "atom_type": "Cd"}, "14": {"label": "*2", "atom_type": "H0"}}

>  <type>  (12) 
unop_8

>  <geom_source>  (12) 
Heuristics

$$$$

     RDKit          3D

 22 21  0  0  0  0  0  0  0  0999 V2000
   -1.5380   -1.9827    0.4165 S   0  0  0  0  0  0  0  0  0  0  0  0
   -0.2414   -1.3952    1.5519 C   0  0  0  0  0  0  0  0  0  0  0  0
   -0.8632   -0.7399    2.7371 C   0  0  0  0  0  0  0  0  0  0  0  0
   -0.7109    0.8128    3.1207 S   0  0  0  0  0  0  0  0  0  0  0  0
   -2.0376   -0.7713    0.1362 H   0  0  0  0  0  0  0  0  0  0  0  0
    0.2878   -2.3008    1.8579 H   0  0  0  0  0  0  0  0  0  0  0  0
   -1.4816   -1.4013    3.3450 H   0  0  0  0  0  0  0  0  0  0  0  0
    0.9367    0.7352    0.6011 C   0  0  0  0  0  0  0  0  0  0  0  0
    0.9367    0.7352   -0.9026 C   0  0  0  0  0  0  0  0  0  0  0  0
    0.9367    1.9295   -1.6166 C   0  0  0  0  0  3  0  0  0  0  0  0
    0.9671    1.9329   -3.0026 C   0  0  0  0  0  0  0  0  0  0  0  0
    0.9967    0.7359   -3.7017 C   0  0  0  0  0  0  0  0  0  0  0  0
    0.9935   -0.4615   -3.0026 C   0  0  0  0  0  0  0  0  0  0  0  0
    0.9630   -0.4588   -1.6166 C   0  0  0  0  0  0  0  0  0  0  0  0
    0.3468   -0.3315    1.0772 H   0  0  0  0  0  0  0  0  0  0  0  0
    1.9589    0.7465    0.9879 H   0  0  0  0  0  0  0  0  0  0  0  0
    0.4256    1.6131    0.9979 H   0  0  0  0  0  0  0  0  0  0  0  0
    0.9100    2.8706   -1.0788 H   0  0  0  0  0  0  0  0  0  0  0  0
    0.9645    2.8741   -3.5383 H   0  0  0  0  0  0  0  0  0  0  0  0
    1.0178    0.7361   -4.7840 H   0  0  0  0  0  0  0  0  0  0  0  0
    1.0116   -1.4025   -3.5383 H   0  0  0  0  0  0  0  0  0  0  0  0
    0.9571   -1.4003   -1.0788 H   0  0  0  0  0  0  0  0  0  0  0  0
  1  2  1  0
  1  5  1  0
  2  3  1  0
  2  6  1  0
  2 15  1  0
  3  4  2  0
  3  7  1  0
  8  9  2  3
  8 16  1  0
  8 17  1  0
  9 10  1  0
  9 14  1  0
 10 11  1  0
 10 18  1  0
 11 12  2  0
 11 19  1  0
 12 13  1  0
 12 20  1  0
 13 14  2  0
 13 21  1  0
 14 22  1  0
M  RAD  1  10   2
M  END
>  <reaction>  (13) 
rxn_1465

>  <mol_properties>  (13) 
{"1": {"label": "*1", "atom_type": "Cs"}, "2": {"label": "*0", "atom_type": "CS"}, "7": {"label": "*3", "atom_type": "Cd"}, "8": {"label": "*4", "atom_type": "Cd"}, "14": {"label": "*2", "atom_type": "H0"}}

>  <type>  (13) 
unop_9

>  <geom_source>  (13) 
Heuristics

$$$$

     RDKit          3D

 22 21  0  0  0  0  0  0  0  0999 V2000
    0.6636   -2.3355    1.3015 S   0  0  0  0  0  0  0  0  0  0  0  0
   -0.1826   -0.8220    1.8570 C   0  0  0  0  0  0  0  0  0  0  0  0
   -1.6010   -1.1285    2.1957 C   0  0  0  0  0  0  0  0  0  0  0  0
   -2.8829   -0.5414    1.4252 S   0  0  0  0  0  0  0  0  0  0  0  0
   -0.0977   -2.5309    0.2163 H   0  0  0  0  0  0  0  0  0  0  0  0
    0.3604   -0.5165    2.7547 H   0  0  0  0  0  0  0  0  0  0  0  0
   -1.7258   -1.8313    3.0203 H   0  0  0  0  0  0  0  0  0  0  0  0
    0.9955    1.3084    0.9063 C   0  0  0  0  0  0  0  0  0  0  0  0
    0.9955    1.3084   -0.5975 C   0  0  0  0  0  0  0  0  0  0  0  0
    0.9955    2.5028   -1.3115 C   0  0  0  0  0  3  0  0  0  0  0  0
    1.0260    2.5061   -2.6975 C   0  0  0  0  0  0  0  0  0  0  0  0
    1.0555    1.3091   -3.3965 C   0  0  0  0  0  0  0  0  0  0  0  0
    1.0524    0.1117   -2.6975 C   0  0  0  0  0  0  0  0  0  0  0  0
    1.0218    0.1144   -1.3115 C   0  0  0  0  0  0  0  0  0  0  0  0
    0.4056    0.2417    1.3823 H   0  0  0  0  0  0  0  0  0  0  0  0
    2.0177    1.3197    1.2930 H   0  0  0  0  0  0  0  0  0  0  0  0
    0.4845    2.1863    1.3030 H   0  0  0  0  0  0  0  0  0  0  0  0
    0.9689    3.4439   -0.7737 H   0  0  0  0  0  0  0  0  0  0  0  0
    1.0233    3.4473   -3.2332 H   0  0  0  0  0  0  0  0  0  0  0  0
    1.0767    1.3093   -4.4789 H   0  0  0  0  0  0  0  0  0  0  0  0
    1.0705   -0.8293   -3.2332 H   0  0  0  0  0  0  0  0  0  0  0  0
    1.0160   -0.8271   -0.7737 H   0  0  0  0  0  0  0  0  0  0  0  0
  1  2  1  0
  1  5  1  0
  2  3  1  0
  2  6  1  0
  2 15  1  0
  3  4  2  0
  3  7  1  0
  8  9  2  3
  8 16  1  0
  8 17  1  0
  9 10  1  0
  9 14  1  0
 10 11  1  0
 10 18  1  0
 11 12  2  0
 11 19  1  0
 12 13  1  0
 12 20  1  0
 13 14  2  0
 13 21  1  0
 14 22  1  0
M  RAD  1  10   2
M  END
>  <reaction>  (14) 
rxn_1465

>  <mol_properties>  (14) 
{"1": {"label": "*1", "atom_type": "Cs"}, "2": {"label": "*0", "atom_type": "CS"}, "7": {"label": "*3", "atom_type": "Cd"}, "8": {"label": "*4", "atom_type": "Cd"}, "14": {"label": "*2", "atom_type": "H0"}}

>  <type>  (14) 
unop_10

>  <geom_source>  (14) 
Heuristics

$$$$

     RDKit          3D

 22 21  0  0  0  0  0  0  0  0999 V2000
   -1.8181   -0.7574    3.0518 S   0  0  0  0  0  0  0  0  0  0  0  0
   -1.0401   -1.1077    1.4432 C   0  0  0  0  0  0  0  0  0  0  0  0
    0.3163   -1.6887    1.6512 C   0  0  0  0  0  0  0  0  0  0  0  0
    1.6965   -0.9963    1.2073 S   0  0  0  0  0  0  0  0  0  0  0  0
   -0.9188    0.1542    3.4463 H   0  0  0  0  0  0  0  0  0  0  0  0
   -1.6966   -1.8446    0.9744 H   0  0  0  0  0  0  0  0  0  0  0  0
    0.3212   -2.6464    2.1730 H   0  0  0  0  0  0  0  0  0  0  0  0
    0.1380    1.0227    0.4924 C   0  0  0  0  0  0  0  0  0  0  0  0
    0.1380    1.0227   -1.0113 C   0  0  0  0  0  0  0  0  0  0  0  0
    0.1380    2.2170   -1.7253 C   0  0  0  0  0  3  0  0  0  0  0  0
    0.1684    2.2203   -3.1113 C   0  0  0  0  0  0  0  0  0  0  0  0
    0.1980    1.0233   -3.8104 C   0  0  0  0  0  0  0  0  0  0  0  0
    0.1948   -0.1740   -3.1113 C   0  0  0  0  0  0  0  0  0  0  0  0
    0.1643   -0.1714   -1.7253 C   0  0  0  0  0  0  0  0  0  0  0  0
   -0.4519   -0.0441    0.9685 H   0  0  0  0  0  0  0  0  0  0  0  0
    1.1602    1.0339    0.8792 H   0  0  0  0  0  0  0  0  0  0  0  0
   -0.3730    1.9006    0.8892 H   0  0  0  0  0  0  0  0  0  0  0  0
    0.1114    3.1581   -1.1875 H   0  0  0  0  0  0  0  0  0  0  0  0
    0.1658    3.1615   -3.6470 H   0  0  0  0  0  0  0  0  0  0  0  0
    0.2191    1.0236   -4.8927 H   0  0  0  0  0  0  0  0  0  0  0  0
    0.2129   -1.1151   -3.6470 H   0  0  0  0  0  0  0  0  0  0  0  0
    0.1585   -1.1128   -1.1875 H   0  0  0  0  0  0  0  0  0  0  0  0
  1  2  1  0
  1  5  1  0
  2  3  1  0
  2  6  1  0
  2 15  1  0
  3  4  2  0
  3  7  1  0
  8  9  2  3
  8 16  1  0
  8 17  1  0
  9 10  1  0
  9 14  1  0
 10 11  1  0
 10 18  1  0
 11 12  2  0
 11 19  1  0
 12 13  1  0
 12 20  1  0
 13 14  2  0
 13 21  1  0
 14 22  1  0
M  RAD  1  10   2
M  END
>  <reaction>  (15) 
rxn_1465

>  <mol_properties>  (15) 
{"1": {"label": "*1", "atom_type": "Cs"}, "2": {"label": "*0", "atom_type": "CS"}, "7": {"label": "*3", "atom_type": "Cd"}, "8": {"label": "*4", "atom_type": "Cd"}, "14": {"label": "*2", "atom_type": "H0"}}

>  <type>  (15) 
unop_11

>  <geom_source>  (15) 
Heuristics

$$$$

     RDKit          3D

 22 21  0  0  0  0  0  0  0  0999 V2000
   -0.7081   -2.2918    0.3409 S   0  0  0  0  0  0  0  0  0  0  0  0
   -0.1156   -1.2203    1.6885 C   0  0  0  0  0  0  0  0  0  0  0  0
   -1.2474   -0.8673    2.5914 C   0  0  0  0  0  0  0  0  0  0  0  0
   -1.8251    0.6154    2.8131 S   0  0  0  0  0  0  0  0  0  0  0  0
   -1.5399   -1.3905   -0.1988 H   0  0  0  0  0  0  0  0  0  0  0  0
    0.6160   -1.8301    2.2240 H   0  0  0  0  0  0  0  0  0  0  0  0
   -1.7025   -1.7193    3.0979 H   0  0  0  0  0  0  0  0  0  0  0  0
    1.0625    0.9101    0.7378 C   0  0  0  0  0  0  0  0  0  0  0  0
    1.0625    0.9101   -0.7660 C   0  0  0  0  0  0  0  0  0  0  0  0
    1.0625    2.1044   -1.4800 C   0  0  0  0  0  3  0  0  0  0  0  0
    1.0929    2.1078   -2.8660 C   0  0  0  0  0  0  0  0  0  0  0  0
    1.1225    0.9107   -3.5650 C   0  0  0  0  0  0  0  0  0  0  0  0
    1.1193   -0.2866   -2.8660 C   0  0  0  0  0  0  0  0  0  0  0  0
    1.0888   -0.2839   -1.4800 C   0  0  0  0  0  0  0  0  0  0  0  0
    0.4726   -0.1566    1.2138 H   0  0  0  0  0  0  0  0  0  0  0  0
    2.0847    0.9213    1.1245 H   0  0  0  0  0  0  0  0  0  0  0  0
    0.5514    1.7880    1.1345 H   0  0  0  0  0  0  0  0  0  0  0  0
    1.0359    3.0455   -0.9422 H   0  0  0  0  0  0  0  0  0  0  0  0
    1.0903    3.0490   -3.4017 H   0  0  0  0  0  0  0  0  0  0  0  0
    1.1436    0.9110   -4.6474 H   0  0  0  0  0  0  0  0  0  0  0  0
    1.1374   -1.2277   -3.4017 H   0  0  0  0  0  0  0  0  0  0  0  0
    1.0830   -1.2254   -0.9422 H   0  0  0  0  0  0  0  0  0  0  0  0
  1  2  1  0
  1  5  1  0
  2  3  1  0
  2  6  1  0
  2 15  1  0
  3  4  2  0
  3  7  1  0
  8  9  2  3
  8 16  1  0
  8 17  1  0
  9 10  1  0
  9 14  1  0
 10 11  1  0
 10 18  1  0
 11 12  2  0
 11 19  1  0
 12 13  1  0
 12 20  1  0
 13 14  2  0
 13 21  1  0
 14 22  1  0
M  RAD  1  10   2
M  END
>  <reaction>  (16) 
rxn_1465

>  <mol_properties>  (16) 
{"1": {"label": "*1", "atom_type": "Cs"}, "2": {"label": "*0", "atom_type": "CS"}, "7": {"label": "*3", "atom_type": "Cd"}, "8": {"label": "*4", "atom_type": "Cd"}, "14": {"label": "*2", "atom_type": "H0"}}

>  <type>  (16) 
unop_12

>  <geom_source>  (16) 
Heuristics

$$$$

     RDKit          3D

 22 21  0  0  0  0  0  0  0  0999 V2000
    4.1199    0.4484    1.0373 S   0  0  0  0  0  0  0  0  0  0  0  0
    3.5848   -2.5820   -0.4077 S   0  0  0  0  0  1  0  0  0  0  0  0
    2.8128   -0.1652   -0.0707 C   0  0  0  0  0  0  0  0  0  0  0  0
   -0.8185    0.5583   -0.0748 C   0  0  0  0  0  0  0  0  0  0  0  0
   -1.9326    1.3173   -0.4634 C   0  0  0  0  0  0  0  0  0  0  0  0
   -0.9950   -0.7604    0.3654 C   0  0  0  0  0  0  0  0  0  0  0  0
   -3.2139    0.7585   -0.4109 C   0  0  0  0  0  0  0  0  0  0  0  0
   -3.3863   -0.5576    0.0289 C   0  0  0  0  0  0  0  0  0  0  0  0
   -2.2776   -1.3165    0.4168 C   0  0  0  0  0  0  0  0  0  0  0  0
    2.6235   -1.6427    0.1021 C   0  0  0  0  0  0  0  0  0  0  0  0
    0.5531    1.1459   -0.1273 C   0  0  0  0  0  0  0  0  0  0  0  0
    3.0672    0.0775   -1.1254 H   0  0  0  0  0  0  0  0  0  0  0  0
    1.6231    0.4816    0.2523 H   0  0  0  0  0  0  0  0  0  0  0  0
   -1.8081    2.3374   -0.8053 H   0  0  0  0  0  0  0  0  0  0  0  0
   -4.0725    1.3452   -0.7109 H   0  0  0  0  0  0  0  0  0  0  0  0
   -0.1422   -1.3557    0.6678 H   0  0  0  0  0  0  0  0  0  0  0  0
   -4.3781   -0.9891    0.0691 H   0  0  0  0  0  0  0  0  0  0  0  0
   -2.4121   -2.3351    0.7570 H   0  0  0  0  0  0  0  0  0  0  0  0
    1.6918   -2.0116    0.5174 H   0  0  0  0  0  0  0  0  0  0  0  0
    0.6158    2.0317    0.5391 H   0  0  0  0  0  0  0  0  0  0  0  0
    0.8057    1.4361   -1.1688 H   0  0  0  0  0  0  0  0  0  0  0  0
    3.9393    1.7780    0.6118 H   0  0  0  0  0  0  0  0  0  0  0  0
  1  3  1  0
  1 22  1  0
  2 10  1  0
  3 10  2  3
  3 12  1  0
  4 11  1  0
  4  5  2  0
  4  6  1  0
  5  7  1  0
  5 14  1  0
  6  9  2  0
  6 16  1  0
  7  8  2  0
  7 15  1  0
  8  9  1  0
  8 17  1  0
  9 18  1  0
 10 19  1  0
 11 13  1  0
 11 20  1  0
 11 21  1  0
M  RAD  1   2   2
M  END
>  <reaction>  (17) 
rxn_1465

>  <mol_properties>  (17) 
{"1": {"label": "*1", "atom_type": "Cs"}, "2": {"label": "*0", "atom_type": "CS"}, "7": {"label": "*3", "atom_type": "Cd"}, "8": {"label": "*4", "atom_type": "Cd"}, "14": {"label": "*2", "atom_type": "H0"}}

>  <type>  (17) 
unop_13

>  <geom_source>  (17) 
AutoTST

$$$$
