
     RDKit          3D

  7  6  0  0  0  0  0  0  0  0999 V2000
    1.2985   -0.0065   -0.2721 C   0  0  0  0  0  0  0  0  0  0  0  0
    0.0000    0.0000   -0.2926 C   0  0  0  0  0  0  0  0  0  0  0  0
   -1.2985    0.0065   -0.3130 C   0  0  0  0  0  0  0  0  0  0  0  0
    1.8444   -0.7551    0.2895 H   0  0  0  0  0  0  0  0  0  0  0  0
    1.8693    0.7364   -0.8162 H   0  0  0  0  0  0  0  0  0  0  0  0
   -1.8658    0.5623    0.4239 H   0  0  0  0  0  0  0  0  0  0  0  0
   -1.8479   -0.5437   -1.0675 H   0  0  0  0  0  0  0  0  0  0  0  0
  1  2  2  0
  1  4  1  0
  1  5  1  0
  2  3  2  0
  3  6  1  0
  3  7  1  0
M  END
>  <reaction>  (1) 
rxn_1800

>  <mol_properties>  (1) 
{"0": {"label": "donator", "atom_type": "Cd"}, "3": {"label": "d_hydrogen", "atom_type": "H0"}}

>  <type>  (1) 
r1h

$$$$

     RDKit          3D

  5  4  0  0  0  0  0  0  0  0999 V2000
   -0.5642    0.0794    0.0348 C   0  0  0  0  0  3  0  0  0  0  0  0
    1.0624    0.5420    0.2853 S   0  0  0  0  0  0  0  0  0  0  0  0
   -1.3257    0.7631    0.3741 H   0  0  0  0  0  0  0  0  0  0  0  0
   -0.8236   -0.8519   -0.4401 H   0  0  0  0  0  0  0  0  0  0  0  0
    1.6511   -0.5325   -0.2540 H   0  0  0  0  0  0  0  0  0  0  0  0
  1  2  1  0
  1  3  1  0
  1  4  1  0
  2  5  1  0
M  RAD  1   1   2
M  END
>  <reaction>  (2) 
rxn_1800

>  <mol_properties>  (2) 
{"0": {"label": "acceptor", "atom_type": "Cs"}}

>  <type>  (2) 
r2

$$$$

     RDKit          3D

  6  5  0  0  0  0  0  0  0  0999 V2000
   -0.5072   -0.0291   -0.0097 C   0  0  0  0  0  0  0  0  0  0  0  0
    1.1321   -0.1527   -0.7687 S   0  0  0  0  0  0  0  0  0  0  0  0
   -0.6174   -0.7330    0.8127 H   0  0  0  0  0  0  0  0  0  0  0  0
   -0.5863    0.9827    0.3845 H   0  0  0  0  0  0  0  0  0  0  0  0
   -1.2962   -0.1800   -0.7434 H   0  0  0  0  0  0  0  0  0  0  0  0
    1.0312   -1.4237   -1.1764 H   0  0  0  0  0  0  0  0  0  0  0  0
  1  2  1  0
  1  3  1  0
  1  4  1  0
  1  5  1  0
  2  6  1  0
M  END
>  <reaction>  (3) 
rxn_1800

>  <mol_properties>  (3) 
{"0": {"label": "acceptor", "atom_type": "Cs"}, "5": {"label": "a_hydrogen", "atom_type": "H0"}}

>  <type>  (3) 
r2h

$$$$

     RDKit          3D

 12 10  0  0  0  0  0  0  0  0999 V2000
   -0.2818   -0.4075    1.5568 C   0  0  0  0  0  3  0  0  0  0  0  0
   -0.8606   -1.4485    0.2628 S   0  0  0  0  0  0  0  0  0  0  0  0
    0.3989   -0.9545    2.2036 H   0  0  0  0  0  0  0  0  0  0  0  0
   -1.0548    0.1223    2.1065 H   0  0  0  0  0  0  0  0  0  0  0  0
   -1.7283   -0.5835   -0.2779 H   0  0  0  0  0  0  0  0  0  0  0  0
    1.1586    1.5005    0.3553 C   0  0  0  0  0  0  0  0  0  0  0  0
    1.0556    1.4384   -0.9125 C   0  0  0  0  0  0  0  0  0  0  0  0
    0.8822    1.2840   -2.2078 C   0  0  0  0  0  0  0  0  0  0  0  0
    0.4660    0.5610    1.0049 H   0  0  0  0  0  0  0  0  0  0  0  0
    1.7097    2.1703    0.9966 H   0  0  0  0  0  0  0  0  0  0  0  0
    0.0889    1.8039   -2.7302 H   0  0  0  0  0  0  0  0  0  0  0  0
    1.5435    0.6504   -2.7853 H   0  0  0  0  0  0  0  0  0  0  0  0
  1  2  1  0
  1  3  1  0
  1  4  1  0
  2  5  1  0
  6  7  2  0
  6  9  1  0
  6 10  1  0
  7  8  2  0
  8 11  1  0
  8 12  1  0
M  RAD  1   1   2
M  END
>  <reaction>  (4) 
rxn_1800

>  <mol_properties>  (4) 
{"0": {"label": "*3", "atom_type": "Cs"}, "1": {"label": "*4", "atom_type": "S2s"}, "5": {"label": "*1", "atom_type": "Cd"}, "6": {"label": "*0", "atom_type": "Cdd"}, "8": {"label": "*2", "atom_type": "H0"}}

>  <type>  (4) 
ts

$$$$

     RDKit          3D

 12 10  0  0  0  0  0  0  0  0999 V2000
   -1.0133   -0.4466    0.8158 C   0  0  0  0  0  3  0  0  0  0  0  0
    0.0817   -1.4215    1.8784 S   0  0  0  0  0  0  0  0  0  0  0  0
   -1.1704    0.5019    1.3267 H   0  0  0  0  0  0  0  0  0  0  0  0
   -1.9764   -0.9353    0.6844 H   0  0  0  0  0  0  0  0  0  0  0  0
    0.1469   -2.5074    1.0984 H   0  0  0  0  0  0  0  0  0  0  0  0
    0.3168    1.3470   -0.5272 C   0  0  0  0  0  0  0  0  0  0  0  0
    0.3168    1.3470   -1.8259 C   0  0  0  0  0  0  0  0  0  0  0  0
    0.3168    1.3470   -3.1245 C   0  0  0  0  0  0  0  0  0  0  0  0
   -0.3468    0.4521    0.1429 H   0  0  0  0  0  0  0  0  0  0  0  0
    0.8698    2.0928    0.0312 H   0  0  0  0  0  0  0  0  0  0  0  0
   -0.4290    1.9000   -3.6830 H   0  0  0  0  0  0  0  0  0  0  0  0
    1.0625    0.7940   -3.6830 H   0  0  0  0  0  0  0  0  0  0  0  0
  1  2  1  0
  1  3  1  0
  1  4  1  0
  2  5  1  0
  6  7  2  0
  6  9  1  0
  6 10  1  0
  7  8  2  0
  8 11  1  0
  8 12  1  0
M  RAD  1   1   2
M  END
>  <reaction>  (5) 
rxn_1800

>  <mol_properties>  (5) 
{"0": {"label": "*3", "atom_type": "Cs"}, "1": {"label": "*4", "atom_type": "S2s"}, "5": {"label": "*1", "atom_type": "Cd"}, "6": {"label": "*0", "atom_type": "Cdd"}, "8": {"label": "*2", "atom_type": "H0"}}

>  <type>  (5) 
unop_1

>  <geom_source>  (5) 
Heuristics

$$$$

     RDKit          3D

 12 10  0  0  0  0  0  0  0  0999 V2000
   -0.5565   -0.2369    1.5541 C   0  0  0  0  0  3  0  0  0  0  0  0
   -0.6644   -1.7978    0.6429 S   0  0  0  0  0  0  0  0  0  0  0  0
    0.2385   -0.3648    2.2869 H   0  0  0  0  0  0  0  0  0  0  0  0
   -1.4838   -0.0201    2.0803 H   0  0  0  0  0  0  0  0  0  0  0  0
   -1.6618   -1.4435   -0.1766 H   0  0  0  0  0  0  0  0  0  0  0  0
    0.7735    1.5567    0.2111 C   0  0  0  0  0  0  0  0  0  0  0  0
    0.7735    1.5567   -1.0876 C   0  0  0  0  0  0  0  0  0  0  0  0
    0.7735    1.5567   -2.3863 C   0  0  0  0  0  0  0  0  0  0  0  0
    0.1099    0.6618    0.8812 H   0  0  0  0  0  0  0  0  0  0  0  0
    1.3265    2.3024    0.7695 H   0  0  0  0  0  0  0  0  0  0  0  0
    0.0277    2.1097   -2.9447 H   0  0  0  0  0  0  0  0  0  0  0  0
    1.5192    1.0037   -2.9447 H   0  0  0  0  0  0  0  0  0  0  0  0
  1  2  1  0
  1  3  1  0
  1  4  1  0
  2  5  1  0
  6  7  2  0
  6  9  1  0
  6 10  1  0
  7  8  2  0
  8 11  1  0
  8 12  1  0
M  RAD  1   1   2
M  END
>  <reaction>  (6) 
rxn_1800

>  <mol_properties>  (6) 
{"0": {"label": "*3", "atom_type": "Cs"}, "1": {"label": "*4", "atom_type": "S2s"}, "5": {"label": "*1", "atom_type": "Cd"}, "6": {"label": "*0", "atom_type": "Cdd"}, "8": {"label": "*2", "atom_type": "H0"}}

>  <type>  (6) 
unop_2

>  <geom_source>  (6) 
Heuristics

$$$$

     RDKit          3D

 12 10  0  0  0  0  0  0  0  0999 V2000
   -0.9039   -0.6780    0.6178 C   0  0  0  0  0  3  0  0  0  0  0  0
   -0.1152   -1.0298    2.2092 S   0  0  0  0  0  0  0  0  0  0  0  0
   -1.5928    0.1467    0.7934 H   0  0  0  0  0  0  0  0  0  0  0  0
   -1.4702   -1.5345    0.2580 H   0  0  0  0  0  0  0  0  0  0  0  0
    0.6636   -2.0348    1.7904 H   0  0  0  0  0  0  0  0  0  0  0  0
    0.4261    1.1156   -0.7253 C   0  0  0  0  0  0  0  0  0  0  0  0
    0.4261    1.1156   -2.0240 C   0  0  0  0  0  0  0  0  0  0  0  0
    0.4261    1.1156   -3.3226 C   0  0  0  0  0  0  0  0  0  0  0  0
   -0.2375    0.2207   -0.0552 H   0  0  0  0  0  0  0  0  0  0  0  0
    0.9792    1.8614   -0.1669 H   0  0  0  0  0  0  0  0  0  0  0  0
   -0.3196    1.6686   -3.8810 H   0  0  0  0  0  0  0  0  0  0  0  0
    1.1719    0.5626   -3.8810 H   0  0  0  0  0  0  0  0  0  0  0  0
  1  2  1  0
  1  3  1  0
  1  4  1  0
  2  5  1  0
  6  7  2  0
  6  9  1  0
  6 10  1  0
  7  8  2  0
  8 11  1  0
  8 12  1  0
M  RAD  1   1   2
M  END
>  <reaction>  (7) 
rxn_1800

>  <mol_properties>  (7) 
{"0": {"label": "*3", "atom_type": "Cs"}, "1": {"label": "*4", "atom_type": "S2s"}, "5": {"label": "*1", "atom_type": "Cd"}, "6": {"label": "*0", "atom_type": "Cdd"}, "8": {"label": "*2", "atom_type": "H0"}}

>  <type>  (7) 
unop_3

>  <geom_source>  (7) 
Heuristics

$$$$

     RDKit          3D

 12 10  0  0  0  0  0  0  0  0999 V2000
    0.0550   -0.8589    1.3491 C   0  0  0  0  0  3  0  0  0  0  0  0
   -1.7135   -0.7924    0.9667 S   0  0  0  0  0  0  0  0  0  0  0  0
    0.2747   -1.8950    1.6016 H   0  0  0  0  0  0  0  0  0  0  0  0
    0.2996   -0.2325    2.2044 H   0  0  0  0  0  0  0  0  0  0  0  0
   -1.7754    0.5164    0.6927 H   0  0  0  0  0  0  0  0  0  0  0  0
    1.3851    0.9347    0.0061 C   0  0  0  0  0  0  0  0  0  0  0  0
    1.3851    0.9347   -1.2926 C   0  0  0  0  0  0  0  0  0  0  0  0
    1.3851    0.9347   -2.5913 C   0  0  0  0  0  0  0  0  0  0  0  0
    0.7215    0.0397    0.6762 H   0  0  0  0  0  0  0  0  0  0  0  0
    1.9381    1.6804    0.5645 H   0  0  0  0  0  0  0  0  0  0  0  0
    0.6393    1.4877   -3.1497 H   0  0  0  0  0  0  0  0  0  0  0  0
    2.1308    0.3817   -3.1497 H   0  0  0  0  0  0  0  0  0  0  0  0
  1  2  1  0
  1  3  1  0
  1  4  1  0
  2  5  1  0
  6  7  2  0
  6  9  1  0
  6 10  1  0
  7  8  2  0
  8 11  1  0
  8 12  1  0
M  RAD  1   1   2
M  END
>  <reaction>  (8) 
rxn_1800

>  <mol_properties>  (8) 
{"0": {"label": "*3", "atom_type": "Cs"}, "1": {"label": "*4", "atom_type": "S2s"}, "5": {"label": "*1", "atom_type": "Cd"}, "6": {"label": "*0", "atom_type": "Cdd"}, "8": {"label": "*2", "atom_type": "H0"}}

>  <type>  (8) 
unop_4

>  <geom_source>  (8) 
Heuristics

$$$$

     RDKit          3D

 12 10  0  0  0  0  0  0  0  0999 V2000
   -0.6857   -0.9035    0.5427 C   0  0  0  0  0  3  0  0  0  0  0  0
   -0.5049   -0.6595    2.3277 S   0  0  0  0  0  0  0  0  0  0  0  0
   -1.7460   -0.7876    0.3240 H   0  0  0  0  0  0  0  0  0  0  0  0
   -0.3759   -1.9033    0.2458 H   0  0  0  0  0  0  0  0  0  0  0  0
    0.8207   -0.8368    2.3864 H   0  0  0  0  0  0  0  0  0  0  0  0
    0.6443    0.8902   -0.8003 C   0  0  0  0  0  0  0  0  0  0  0  0
    0.6443    0.8902   -2.0990 C   0  0  0  0  0  0  0  0  0  0  0  0
    0.6443    0.8902   -3.3977 C   0  0  0  0  0  0  0  0  0  0  0  0
   -0.0193   -0.0048   -0.1302 H   0  0  0  0  0  0  0  0  0  0  0  0
    1.1973    1.6359   -0.2419 H   0  0  0  0  0  0  0  0  0  0  0  0
   -0.1014    1.4432   -3.9561 H   0  0  0  0  0  0  0  0  0  0  0  0
    1.3901    0.3371   -3.9561 H   0  0  0  0  0  0  0  0  0  0  0  0
  1  2  1  0
  1  3  1  0
  1  4  1  0
  2  5  1  0
  6  7  2  0
  6  9  1  0
  6 10  1  0
  7  8  2  0
  8 11  1  0
  8 12  1  0
M  RAD  1   1   2
M  END
>  <reaction>  (9) 
rxn_1800

>  <mol_properties>  (9) 
{"0": {"label": "*3", "atom_type": "Cs"}, "1": {"label": "*4", "atom_type": "S2s"}, "5": {"label": "*1", "atom_type": "Cd"}, "6": {"label": "*0", "atom_type": "Cdd"}, "8": {"label": "*2", "atom_type": "H0"}}

>  <type>  (9) 
unop_5

>  <geom_source>  (9) 
Heuristics

$$$$

     RDKit          3D

 12 10  0  0  0  0  0  0  0  0999 V2000
    0.0198   -1.0389    1.0771 C   0  0  0  0  0  3  0  0  0  0  0  0
   -1.6713   -0.4887    1.4172 S   0  0  0  0  0  0  0  0  0  0  0  0
    0.0072   -2.1256    1.1432 H   0  0  0  0  0  0  0  0  0  0  0  0
    0.7185   -0.6530    1.8165 H   0  0  0  0  0  0  0  0  0  0  0  0
   -1.4474    0.8250    1.2914 H   0  0  0  0  0  0  0  0  0  0  0  0
    1.3499    0.7547   -0.2659 C   0  0  0  0  0  0  0  0  0  0  0  0
    1.3499    0.7547   -1.5646 C   0  0  0  0  0  0  0  0  0  0  0  0
    1.3499    0.7547   -2.8633 C   0  0  0  0  0  0  0  0  0  0  0  0
    0.6863   -0.1402    0.4042 H   0  0  0  0  0  0  0  0  0  0  0  0
    1.9029    1.5005    0.2925 H   0  0  0  0  0  0  0  0  0  0  0  0
    0.6041    1.3077   -3.4217 H   0  0  0  0  0  0  0  0  0  0  0  0
    2.0956    0.2017   -3.4217 H   0  0  0  0  0  0  0  0  0  0  0  0
  1  2  1  0
  1  3  1  0
  1  4  1  0
  2  5  1  0
  6  7  2  0
  6  9  1  0
  6 10  1  0
  7  8  2  0
  8 11  1  0
  8 12  1  0
M  RAD  1   1   2
M  END
>  <reaction>  (10) 
rxn_1800

>  <mol_properties>  (10) 
{"0": {"label": "*3", "atom_type": "Cs"}, "1": {"label": "*4", "atom_type": "S2s"}, "5": {"label": "*1", "atom_type": "Cd"}, "6": {"label": "*0", "atom_type": "Cdd"}, "8": {"label": "*2", "atom_type": "H0"}}

>  <type>  (10) 
unop_6

>  <geom_source>  (10) 
Heuristics

$$$$

     RDKit          3D

 12 10  0  0  0  0  0  0  0  0999 V2000
   -0.1506   -1.1152    0.8067 C   0  0  0  0  0  3  0  0  0  0  0  0
   -1.4015   -0.3505    1.8692 S   0  0  0  0  0  0  0  0  0  0  0  0
   -0.4679   -2.1453    0.6531 H   0  0  0  0  0  0  0  0  0  0  0  0
    0.8268   -1.1193    1.2846 H   0  0  0  0  0  0  0  0  0  0  0  0
   -0.8444    0.8649    1.9339 H   0  0  0  0  0  0  0  0  0  0  0  0
    1.1795    0.6784   -0.5364 C   0  0  0  0  0  0  0  0  0  0  0  0
    1.1795    0.6784   -1.8350 C   0  0  0  0  0  0  0  0  0  0  0  0
    1.1795    0.6784   -3.1337 C   0  0  0  0  0  0  0  0  0  0  0  0
    0.5158   -0.2165    0.1338 H   0  0  0  0  0  0  0  0  0  0  0  0
    1.7325    1.4242    0.0221 H   0  0  0  0  0  0  0  0  0  0  0  0
    0.4337    1.2314   -3.6921 H   0  0  0  0  0  0  0  0  0  0  0  0
    1.9252    0.1254   -3.6921 H   0  0  0  0  0  0  0  0  0  0  0  0
  1  2  1  0
  1  3  1  0
  1  4  1  0
  2  5  1  0
  6  7  2  0
  6  9  1  0
  6 10  1  0
  7  8  2  0
  8 11  1  0
  8 12  1  0
M  RAD  1   1   2
M  END
>  <reaction>  (11) 
rxn_1800

>  <mol_properties>  (11) 
{"0": {"label": "*3", "atom_type": "Cs"}, "1": {"label": "*4", "atom_type": "S2s"}, "5": {"label": "*1", "atom_type": "Cd"}, "6": {"label": "*0", "atom_type": "Cdd"}, "8": {"label": "*2", "atom_type": "H0"}}

>  <type>  (11) 
unop_7

>  <geom_source>  (11) 
Heuristics

$$$$

     RDKit          3D

 12 10  0  0  0  0  0  0  0  0999 V2000
   -0.9815   -0.2678    1.0862 C   0  0  0  0  0  3  0  0  0  0  0  0
    0.0361   -1.7263    1.4262 S   0  0  0  0  0  0  0  0  0  0  0  0
   -0.6827    0.4891    1.8095 H   0  0  0  0  0  0  0  0  0  0  0  0
   -2.0395   -0.4819    1.2227 H   0  0  0  0  0  0  0  0  0  0  0  0
   -0.4688   -2.5093    0.4650 H   0  0  0  0  0  0  0  0  0  0  0  0
    0.3485    1.5258   -0.2569 C   0  0  0  0  0  0  0  0  0  0  0  0
    0.3485    1.5258   -1.5556 C   0  0  0  0  0  0  0  0  0  0  0  0
    0.3485    1.5258   -2.8542 C   0  0  0  0  0  0  0  0  0  0  0  0
   -0.3151    0.6309    0.4132 H   0  0  0  0  0  0  0  0  0  0  0  0
    0.9015    2.2716    0.3015 H   0  0  0  0  0  0  0  0  0  0  0  0
   -0.3972    2.0788   -3.4126 H   0  0  0  0  0  0  0  0  0  0  0  0
    1.0943    0.9728   -3.4126 H   0  0  0  0  0  0  0  0  0  0  0  0
  1  2  1  0
  1  3  1  0
  1  4  1  0
  2  5  1  0
  6  7  2  0
  6  9  1  0
  6 10  1  0
  7  8  2  0
  8 11  1  0
  8 12  1  0
M  RAD  1   1   2
M  END
>  <reaction>  (12) 
rxn_1800

>  <mol_properties>  (12) 
{"0": {"label": "*3", "atom_type": "Cs"}, "1": {"label": "*4", "atom_type": "S2s"}, "5": {"label": "*1", "atom_type": "Cd"}, "6": {"label": "*0", "atom_type": "Cdd"}, "8": {"label": "*2", "atom_type": "H0"}}

>  <type>  (12) 
unop_8

>  <geom_source>  (12) 
Heuristics

$$$$

     RDKit          3D

 12 10  0  0  0  0  0  0  0  0999 V2000
   -0.0538   -0.6236    1.5497 C   0  0  0  0  0  3  0  0  0  0  0  0
   -1.5161   -1.1802    0.6384 S   0  0  0  0  0  0  0  0  0  0  0  0
    0.4092   -1.5189    1.9613 H   0  0  0  0  0  0  0  0  0  0  0  0
   -0.3257    0.0368    2.3704 H   0  0  0  0  0  0  0  0  0  0  0  0
   -1.9251    0.0262    0.2272 H   0  0  0  0  0  0  0  0  0  0  0  0
    1.2762    1.1700    0.2066 C   0  0  0  0  0  0  0  0  0  0  0  0
    1.2762    1.1700   -1.0920 C   0  0  0  0  0  0  0  0  0  0  0  0
    1.2762    1.1700   -2.3907 C   0  0  0  0  0  0  0  0  0  0  0  0
    0.6126    0.2750    0.8767 H   0  0  0  0  0  0  0  0  0  0  0  0
    1.8292    1.9157    0.7651 H   0  0  0  0  0  0  0  0  0  0  0  0
    0.5304    1.7230   -2.9491 H   0  0  0  0  0  0  0  0  0  0  0  0
    2.0219    0.6170   -2.9491 H   0  0  0  0  0  0  0  0  0  0  0  0
  1  2  1  0
  1  3  1  0
  1  4  1  0
  2  5  1  0
  6  7  2  0
  6  9  1  0
  6 10  1  0
  7  8  2  0
  8 11  1  0
  8 12  1  0
M  RAD  1   1   2
M  END
>  <reaction>  (13) 
rxn_1800

>  <mol_properties>  (13) 
{"0": {"label": "*3", "atom_type": "Cs"}, "1": {"label": "*4", "atom_type": "S2s"}, "5": {"label": "*1", "atom_type": "Cd"}, "6": {"label": "*0", "atom_type": "Cdd"}, "8": {"label": "*2", "atom_type": "H0"}}

>  <type>  (13) 
unop_9

>  <geom_source>  (13) 
Heuristics

$$$$

     RDKit          3D

 12 10  0  0  0  0  0  0  0  0999 V2000
   -0.8146   -0.1904    1.3566 C   0  0  0  0  0  3  0  0  0  0  0  0
   -0.2372   -1.8634    0.9742 S   0  0  0  0  0  0  0  0  0  0  0  0
   -0.1724    0.1800    2.1540 H   0  0  0  0  0  0  0  0  0  0  0  0
   -1.8428   -0.1974    1.7122 H   0  0  0  0  0  0  0  0  0  0  0  0
   -1.1245   -2.1288    0.0076 H   0  0  0  0  0  0  0  0  0  0  0  0
    0.5155    1.6032    0.0136 C   0  0  0  0  0  0  0  0  0  0  0  0
    0.5155    1.6032   -1.2851 C   0  0  0  0  0  0  0  0  0  0  0  0
    0.5155    1.6032   -2.5838 C   0  0  0  0  0  0  0  0  0  0  0  0
   -0.1481    0.7082    0.6837 H   0  0  0  0  0  0  0  0  0  0  0  0
    1.0685    2.3489    0.5720 H   0  0  0  0  0  0  0  0  0  0  0  0
   -0.2303    2.1562   -3.1422 H   0  0  0  0  0  0  0  0  0  0  0  0
    1.2612    1.0502   -3.1422 H   0  0  0  0  0  0  0  0  0  0  0  0
  1  2  1  0
  1  3  1  0
  1  4  1  0
  2  5  1  0
  6  7  2  0
  6  9  1  0
  6 10  1  0
  7  8  2  0
  8 11  1  0
  8 12  1  0
M  RAD  1   1   2
M  END
>  <reaction>  (14) 
rxn_1800

>  <mol_properties>  (14) 
{"0": {"label": "*3", "atom_type": "Cs"}, "1": {"label": "*4", "atom_type": "S2s"}, "5": {"label": "*1", "atom_type": "Cd"}, "6": {"label": "*0", "atom_type": "Cdd"}, "8": {"label": "*2", "atom_type": "H0"}}

>  <type>  (14) 
unop_10

>  <geom_source>  (14) 
Heuristics

$$$$

     RDKit          3D

 12 10  0  0  0  0  0  0  0  0999 V2000
   -0.4103   -1.0658    0.6108 C   0  0  0  0  0  3  0  0  0  0  0  0
   -0.9760   -0.4133    2.2023 S   0  0  0  0  0  0  0  0  0  0  0  0
   -1.1688   -1.7753    0.2841 H   0  0  0  0  0  0  0  0  0  0  0  0
    0.5374   -1.5907    0.7118 H   0  0  0  0  0  0  0  0  0  0  0  0
    0.0576    0.4084    2.4221 H   0  0  0  0  0  0  0  0  0  0  0  0
    0.9197    0.7278   -0.7322 C   0  0  0  0  0  0  0  0  0  0  0  0
    0.9197    0.7278   -2.0309 C   0  0  0  0  0  0  0  0  0  0  0  0
    0.9197    0.7278   -3.3295 C   0  0  0  0  0  0  0  0  0  0  0  0
    0.2561   -0.1671   -0.0621 H   0  0  0  0  0  0  0  0  0  0  0  0
    1.4727    1.4736   -0.1738 H   0  0  0  0  0  0  0  0  0  0  0  0
    0.1740    1.2808   -3.8880 H   0  0  0  0  0  0  0  0  0  0  0  0
    1.6655    0.1748   -3.8880 H   0  0  0  0  0  0  0  0  0  0  0  0
  1  2  1  0
  1  3  1  0
  1  4  1  0
  2  5  1  0
  6  7  2  0
  6  9  1  0
  6 10  1  0
  7  8  2  0
  8 11  1  0
  8 12  1  0
M  RAD  1   1   2
M  END
>  <reaction>  (15) 
rxn_1800

>  <mol_properties>  (15) 
{"0": {"label": "*3", "atom_type": "Cs"}, "1": {"label": "*4", "atom_type": "S2s"}, "5": {"label": "*1", "atom_type": "Cd"}, "6": {"label": "*0", "atom_type": "Cdd"}, "8": {"label": "*2", "atom_type": "H0"}}

>  <type>  (15) 
unop_11

>  <geom_source>  (15) 
Heuristics

$$$$

     RDKit          3D

 12 10  0  0  0  0  0  0  0  0999 V2000
   -0.2777   -0.3957    1.6249 C   0  0  0  0  0  3  0  0  0  0  0  0
   -1.1321   -1.5480    0.5200 S   0  0  0  0  0  0  0  0  0  0  0  0
    0.4266   -0.9916    2.2030 H   0  0  0  0  0  0  0  0  0  0  0  0
   -0.9723    0.0851    2.3104 H   0  0  0  0  0  0  0  0  0  0  0  0
   -1.9224   -0.6489   -0.0791 H   0  0  0  0  0  0  0  0  0  0  0  0
    1.0524    1.3979    0.2818 C   0  0  0  0  0  0  0  0  0  0  0  0
    1.0524    1.3979   -1.0169 C   0  0  0  0  0  0  0  0  0  0  0  0
    1.0524    1.3979   -2.3155 C   0  0  0  0  0  0  0  0  0  0  0  0
    0.3887    0.5030    0.9519 H   0  0  0  0  0  0  0  0  0  0  0  0
    1.6054    2.1436    0.8402 H   0  0  0  0  0  0  0  0  0  0  0  0
    0.3066    1.9509   -2.8740 H   0  0  0  0  0  0  0  0  0  0  0  0
    1.7981    0.8449   -2.8740 H   0  0  0  0  0  0  0  0  0  0  0  0
  1  2  1  0
  1  3  1  0
  1  4  1  0
  2  5  1  0
  6  7  2  0
  6  9  1  0
  6 10  1  0
  7  8  2  0
  8 11  1  0
  8 12  1  0
M  RAD  1   1   2
M  END
>  <reaction>  (16) 
rxn_1800

>  <mol_properties>  (16) 
{"0": {"label": "*3", "atom_type": "Cs"}, "1": {"label": "*4", "atom_type": "S2s"}, "5": {"label": "*1", "atom_type": "Cd"}, "6": {"label": "*0", "atom_type": "Cdd"}, "8": {"label": "*2", "atom_type": "H0"}}

>  <type>  (16) 
unop_12

>  <geom_source>  (16) 
Heuristics

$$$$

     RDKit          3D

 12 10  0  0  0  0  0  0  0  0999 V2000
   -2.0753    1.4868    0.1839 S   0  0  0  0  0  0  0  0  0  0  0  0
   -1.7800   -0.2870    0.4266 C   0  0  0  0  0  3  0  0  0  0  0  0
    2.4715    0.6474    0.0733 C   0  0  0  0  0  0  0  0  0  0  0  0
    1.5327   -0.2527    0.0012 C   0  0  0  0  0  0  0  0  0  0  0  0
    0.5941   -1.1528   -0.0711 C   0  0  0  0  0  0  0  0  0  0  0  0
   -1.7043   -0.5029    1.5121 H   0  0  0  0  0  0  0  0  0  0  0  0
   -2.6212   -0.8671   -0.0062 H   0  0  0  0  0  0  0  0  0  0  0  0
   -0.6124   -0.6454   -0.1907 H   0  0  0  0  0  0  0  0  0  0  0  0
    2.5137    1.3180    0.9207 H   0  0  0  0  0  0  0  0  0  0  0  0
    3.2086    0.7242   -0.7142 H   0  0  0  0  0  0  0  0  0  0  0  0
   -2.0802    1.3555   -1.2176 H   0  0  0  0  0  0  0  0  0  0  0  0
    0.5528   -1.8241   -0.9179 H   0  0  0  0  0  0  0  0  0  0  0  0
  1  2  1  0
  1 11  1  0
  2  6  1  0
  2  7  1  0
  3  4  2  0
  3  9  1  0
  3 10  1  0
  4  5  2  0
  5  8  1  0
  5 12  1  0
M  RAD  1   2   2
M  END
>  <reaction>  (17) 
rxn_1800

>  <mol_properties>  (17) 
{"0": {"label": "*3", "atom_type": "Cs"}, "1": {"label": "*4", "atom_type": "S2s"}, "5": {"label": "*1", "atom_type": "Cd"}, "6": {"label": "*0", "atom_type": "Cdd"}, "8": {"label": "*2", "atom_type": "H0"}}

>  <type>  (17) 
unop_13

>  <geom_source>  (17) 
AutoTST

$$$$
