
     RDKit          3D

 13 12  0  0  0  0  0  0  0  0999 V2000
    3.0977   -0.3549   -0.5105 C   0  0  0  0  0  0  0  0  0  0  0  0
    2.0556    0.4221   -0.2627 C   0  0  0  0  0  0  0  0  0  0  0  0
    0.6313   -0.0354   -0.2366 C   0  0  0  0  0  0  0  0  0  0  0  0
   -0.2567    0.6038   -1.2694 C   0  0  0  0  0  0  0  0  0  0  0  0
    0.1459    1.3456   -2.2891 C   0  0  0  0  0  0  0  0  0  0  0  0
    4.1081    0.0344   -0.5074 H   0  0  0  0  0  0  0  0  0  0  0  0
    2.9777   -1.4116   -0.7243 H   0  0  0  0  0  0  0  0  0  0  0  0
    2.2171    1.4781   -0.0618 H   0  0  0  0  0  0  0  0  0  0  0  0
    0.5865   -1.1233   -0.3540 H   0  0  0  0  0  0  0  0  0  0  0  0
    0.2065    0.1743    0.7521 H   0  0  0  0  0  0  0  0  0  0  0  0
   -1.3190    0.4126   -1.1445 H   0  0  0  0  0  0  0  0  0  0  0  0
    1.1948    1.5564   -2.4628 H   0  0  0  0  0  0  0  0  0  0  0  0
   -0.5644    1.7621   -2.9918 H   0  0  0  0  0  0  0  0  0  0  0  0
  1  2  2  3
  1  6  1  0
  1  7  1  0
  2  3  1  0
  2  8  1  0
  3  4  1  0
  3  9  1  0
  3 10  1  0
  4  5  2  3
  4 11  1  0
  5 12  1  0
  5 13  1  0
M  END
>  <reaction>  (1) 
rxn_746

>  <mol_properties>  (1) 
{"2": {"label": "donator", "atom_type": "Cs"}, "8": {"label": "d_hydrogen", "atom_type": "H0"}}

>  <type>  (1) 
r1h

$$$$

     RDKit          3D

 24 25  0  0  0  0  0  0  0  0999 V2000
   -2.3462    0.0587    0.4026 C   0  0  0  0  0  3  0  0  0  0  0  0
   -1.9216   -0.8977   -0.6619 C   0  0  0  0  0  0  0  0  0  0  0  0
   -0.4224   -0.6048   -0.8347 C   0  0  0  0  0  0  0  0  0  0  0  0
    0.4246   -1.4411    0.1277 C   0  0  0  0  0  0  0  0  0  0  0  0
    1.8615   -0.9403    0.2199 C   0  0  0  0  0  0  0  0  0  0  0  0
    1.8962    0.5175    0.6671 C   0  0  0  0  0  0  0  0  0  0  0  0
    1.1011    1.4007   -0.2911 C   0  0  0  0  0  0  0  0  0  0  0  0
   -0.3231    0.9028   -0.5260 C   0  0  0  0  0  0  0  0  0  0  0  0
   -1.3110    1.1041    0.6384 C   0  0  0  0  0  0  0  0  0  0  0  0
   -3.2900    0.0057    0.9268 H   0  0  0  0  0  0  0  0  0  0  0  0
   -2.1170   -1.9442   -0.4050 H   0  0  0  0  0  0  0  0  0  0  0  0
   -2.4616   -0.7093   -1.6016 H   0  0  0  0  0  0  0  0  0  0  0  0
   -0.0868   -0.8050   -1.8562 H   0  0  0  0  0  0  0  0  0  0  0  0
   -0.0273   -1.4106    1.1258 H   0  0  0  0  0  0  0  0  0  0  0  0
    0.4005   -2.4873   -0.1884 H   0  0  0  0  0  0  0  0  0  0  0  0
    2.4341   -1.5641    0.9101 H   0  0  0  0  0  0  0  0  0  0  0  0
    2.3441   -1.0297   -0.7603 H   0  0  0  0  0  0  0  0  0  0  0  0
    1.4821    0.5910    1.6781 H   0  0  0  0  0  0  0  0  0  0  0  0
    2.9265    0.8752    0.7283 H   0  0  0  0  0  0  0  0  0  0  0  0
    1.0758    2.4318    0.0723 H   0  0  0  0  0  0  0  0  0  0  0  0
    1.6246    1.4246   -1.2529 H   0  0  0  0  0  0  0  0  0  0  0  0
   -0.7335    1.4393   -1.3877 H   0  0  0  0  0  0  0  0  0  0  0  0
   -0.8124    0.9625    1.6085 H   0  0  0  0  0  0  0  0  0  0  0  0
   -1.7184    2.1202    0.6602 H   0  0  0  0  0  0  0  0  0  0  0  0
  1  2  1  0
  1  9  1  0
  1 10  1  0
  2  3  1  0
  2 11  1  0
  2 12  1  0
  3  4  1  0
  3  8  1  0
  3 13  1  0
  4  5  1  0
  4 14  1  0
  4 15  1  0
  5  6  1  0
  5 16  1  0
  5 17  1  0
  6  7  1  0
  6 18  1  0
  6 19  1  0
  7  8  1  0
  7 20  1  0
  7 21  1  0
  8  9  1  0
  8 22  1  0
  9 23  1  0
  9 24  1  0
M  RAD  1   1   2
M  END
>  <reaction>  (2) 
rxn_746

>  <mol_properties>  (2) 
{"0": {"label": "acceptor", "atom_type": "Cs"}}

>  <type>  (2) 
r2

$$$$

     RDKit          3D

 25 26  0  0  0  0  0  0  0  0999 V2000
    2.0298   -1.1515    0.0571 C   0  0  0  0  0  0  0  0  0  0  0  0
    2.2278    0.2445    0.6528 C   0  0  0  0  0  0  0  0  0  0  0  0
    1.2292    1.2625    0.0947 C   0  0  0  0  0  0  0  0  0  0  0  0
   -0.1869    0.7454    0.2762 C   0  0  0  0  0  0  0  0  0  0  0  0
   -1.3415    1.5501   -0.3122 C   0  0  0  0  0  0  0  0  0  0  0  0
   -2.5060    0.5338   -0.4178 C   0  0  0  0  0  0  0  0  0  0  0  0
   -1.8709   -0.8658   -0.2234 C   0  0  0  0  0  0  0  0  0  0  0  0
   -0.3715   -0.6265   -0.3693 C   0  0  0  0  0  0  0  0  0  0  0  0
    0.5898   -1.6500    0.2086 C   0  0  0  0  0  0  0  0  0  0  0  0
    2.2820   -1.1226   -1.0088 H   0  0  0  0  0  0  0  0  0  0  0  0
    2.7243   -1.8549    0.5221 H   0  0  0  0  0  0  0  0  0  0  0  0
    2.1030    0.1885    1.7400 H   0  0  0  0  0  0  0  0  0  0  0  0
    3.2514    0.5819    0.4743 H   0  0  0  0  0  0  0  0  0  0  0  0
    1.3611    2.2304    0.5855 H   0  0  0  0  0  0  0  0  0  0  0  0
    1.4198    1.4194   -0.9737 H   0  0  0  0  0  0  0  0  0  0  0  0
   -0.3675    0.6209    1.3539 H   0  0  0  0  0  0  0  0  0  0  0  0
   -1.5992    2.4249    0.2862 H   0  0  0  0  0  0  0  0  0  0  0  0
   -1.0595    1.9116   -1.3055 H   0  0  0  0  0  0  0  0  0  0  0  0
   -3.2666    0.7244    0.3399 H   0  0  0  0  0  0  0  0  0  0  0  0
   -3.0030    0.6112   -1.3853 H   0  0  0  0  0  0  0  0  0  0  0  0
   -2.2549   -1.6039   -0.9288 H   0  0  0  0  0  0  0  0  0  0  0  0
   -2.0796   -1.2429    0.7821 H   0  0  0  0  0  0  0  0  0  0  0  0
   -0.1432   -0.5121   -1.4391 H   0  0  0  0  0  0  0  0  0  0  0  0
    0.4720   -2.6209   -0.2799 H   0  0  0  0  0  0  0  0  0  0  0  0
    0.3601   -1.7986    1.2704 H   0  0  0  0  0  0  0  0  0  0  0  0
  1  2  1  0
  1  9  1  0
  1 10  1  0
  1 11  1  0
  2  3  1  0
  2 12  1  0
  2 13  1  0
  3  4  1  0
  3 14  1  0
  3 15  1  0
  4  5  1  0
  4  8  1  0
  4 16  1  0
  5  6  1  0
  5 17  1  0
  5 18  1  0
  6  7  1  0
  6 19  1  0
  6 20  1  0
  7  8  1  0
  7 21  1  0
  7 22  1  0
  8  9  1  0
  8 23  1  0
  9 24  1  0
  9 25  1  0
M  END
>  <reaction>  (3) 
rxn_746

>  <mol_properties>  (3) 
{"0": {"label": "a_hydrogen", "atom_type": "H0"}, "1": {"label": "acceptor", "atom_type": "Cs"}}

>  <type>  (3) 
r2h

$$$$

     RDKit          3D

 37 37  0  0  0  0  0  0  0  0999 V2000
   -0.8181   -3.3630   -1.5159 C   0  0  0  0  0  0  0  0  0  0  0  0
   -0.5520   -2.5785   -0.4749 C   0  0  0  0  0  0  0  0  0  0  0  0
   -1.5491   -2.0814    0.4831 C   0  0  0  0  0  0  0  0  0  0  0  0
   -1.1920   -2.0022    1.9117 C   0  0  0  0  0  0  0  0  0  0  0  0
    0.0063   -2.2023    2.4560 C   0  0  0  0  0  0  0  0  0  0  0  0
   -0.0430   -3.6649   -2.2085 H   0  0  0  0  0  0  0  0  0  0  0  0
   -1.8210   -3.7293   -1.7066 H   0  0  0  0  0  0  0  0  0  0  0  0
    0.4701   -2.2373   -0.3318 H   0  0  0  0  0  0  0  0  0  0  0  0
   -1.7821   -0.8634    0.1478 H   0  0  0  0  0  0  0  0  0  0  0  0
   -2.5363   -2.5192    0.3271 H   0  0  0  0  0  0  0  0  0  0  0  0
   -2.0100   -1.7176    2.5683 H   0  0  0  0  0  0  0  0  0  0  0  0
    0.8659   -2.5073    1.8718 H   0  0  0  0  0  0  0  0  0  0  0  0
    0.1596   -2.0793    3.5202 H   0  0  0  0  0  0  0  0  0  0  0  0
   -1.9372    0.5255   -0.2175 C   0  0  0  0  0  3  0  0  0  0  0  0
   -1.1091    0.6645   -1.4843 C   0  0  0  0  0  0  0  0  0  0  0  0
    0.1184    1.4711   -1.0420 C   0  0  2  0  0  0  0  0  0  0  0  0
    1.4400    1.2382   -1.7520 C   0  0  0  0  0  0  0  0  0  0  0  0
    2.5324    2.0864   -1.0937 C   0  0  0  0  0  0  0  0  0  0  0  0
    2.6206    1.8601    0.4181 C   0  0  0  0  0  0  0  0  0  0  0  0
    1.2717    2.0488    1.1192 C   0  0  0  0  0  0  0  0  0  0  0  0
    0.2328    1.1676    0.4526 C   0  0  1  0  0  0  0  0  0  0  0  0
   -1.2183    1.2257    0.9149 C   0  0  0  0  0  0  0  0  0  0  0  0
   -3.0177    0.6167   -0.2866 H   0  0  0  0  0  0  0  0  0  0  0  0
   -0.8046   -0.3187   -1.8626 H   0  0  0  0  0  0  0  0  0  0  0  0
   -1.6616    1.1489   -2.2927 H   0  0  0  0  0  0  0  0  0  0  0  0
   -0.1282    2.5384   -1.1303 H   0  0  0  0  0  0  0  0  0  0  0  0
    1.7010    0.1753   -1.6839 H   0  0  0  0  0  0  0  0  0  0  0  0
    1.3651    1.4782   -2.8159 H   0  0  0  0  0  0  0  0  0  0  0  0
    3.5007    1.8802   -1.5554 H   0  0  0  0  0  0  0  0  0  0  0  0
    2.3161    3.1438   -1.2828 H   0  0  0  0  0  0  0  0  0  0  0  0
    2.9713    0.8390    0.6054 H   0  0  0  0  0  0  0  0  0  0  0  0
    3.3686    2.5295    0.8489 H   0  0  0  0  0  0  0  0  0  0  0  0
    1.3622    1.8127    2.1825 H   0  0  0  0  0  0  0  0  0  0  0  0
    0.9593    3.0974    1.0488 H   0  0  0  0  0  0  0  0  0  0  0  0
    0.5629    0.1239    0.5552 H   0  0  0  0  0  0  0  0  0  0  0  0
   -1.3820    0.7511    1.8853 H   0  0  0  0  0  0  0  0  0  0  0  0
   -1.5475    2.2697    1.0038 H   0  0  0  0  0  0  0  0  0  0  0  0
  1  2  2  3
  1  6  1  0
  1  7  1  0
  2  3  1  0
  2  8  1  0
  3  4  1  0
  3  9  1  0
  3 10  1  0
  4  5  2  3
  4 11  1  0
  5 12  1  0
  5 13  1  0
 14 15  1  0
 14 22  1  0
 14 23  1  0
 15 16  1  0
 15 24  1  0
 15 25  1  0
 16 17  1  0
 16 21  1  0
 16 26  1  1
 17 18  1  0
 17 27  1  0
 17 28  1  0
 18 19  1  0
 18 29  1  0
 18 30  1  0
 19 20  1  0
 19 31  1  0
 19 32  1  0
 20 21  1  0
 20 33  1  0
 20 34  1  0
 21 22  1  0
 21 35  1  6
 22 36  1  0
 22 37  1  0
M  RAD  1  14   2
M  END
>  <reaction>  (4) 
rxn_746

>  <mol_properties>  (4) 
{"1": {"label": "*0", "atom_type": "Cd"}, "2": {"label": "*1", "atom_type": "Cs"}, "8": {"label": "*2", "atom_type": "H0"}, "13": {"label": "*3", "atom_type": "Cs"}, "21": {"label": "*4", "atom_type": "Cs"}}

>  <type>  (4) 
ts

$$$$

     RDKit          3D

 37 37  0  0  0  0  0  0  0  0999 V2000
    0.6917   -3.5436   -0.1769 C   0  0  0  0  0  0  0  0  0  0  0  0
    0.6917   -3.5436    1.1463 C   0  0  0  0  0  0  0  0  0  0  0  0
    0.6917   -2.3178    2.0043 C   0  0  0  0  0  3  0  0  0  0  0  0
    1.9014   -2.1634    2.8855 C   0  0  0  0  0  0  0  0  0  0  0  0
    3.0125   -2.8791    2.8131 C   0  0  0  0  0  0  0  0  0  0  0  0
    0.6835   -4.4663   -0.7435 H   0  0  0  0  0  0  0  0  0  0  0  0
    0.6980   -2.6181   -0.7429 H   0  0  0  0  0  0  0  0  0  0  0  0
    0.6942   -4.4923    1.6768 H   0  0  0  0  0  0  0  0  0  0  0  0
    0.5716   -1.2458    1.2538 H   0  0  0  0  0  0  0  0  0  0  0  0
   -0.1963   -2.3313    2.6471 H   0  0  0  0  0  0  0  0  0  0  0  0
    1.8287   -1.3784    3.6332 H   0  0  0  0  0  0  0  0  0  0  0  0
    3.1380   -3.6660    2.0782 H   0  0  0  0  0  0  0  0  0  0  0  0
    3.8407   -2.6948    3.4854 H   0  0  0  0  0  0  0  0  0  0  0  0
    0.4520   -0.1784    0.5064 C   0  0  0  0  0  0  0  0  0  0  0  0
   -0.8220    0.6190    0.8820 C   0  0  0  0  0  0  0  0  0  0  0  0
   -0.8940    1.7325   -0.1582 C   0  0  0  0  0  0  0  0  0  0  0  0
   -2.2259    2.4205   -0.3988 C   0  0  0  0  0  0  0  0  0  0  0  0
   -2.0952    3.4109   -1.5594 C   0  0  0  0  0  0  0  0  0  0  0  0
   -1.5345    2.7549   -2.8236 C   0  0  0  0  0  0  0  0  0  0  0  0
   -0.2110    2.0293   -2.5647 C   0  0  0  0  0  0  0  0  0  0  0  0
   -0.3802    1.0445   -1.4214 C   0  0  0  0  0  0  0  0  0  0  0  0
    0.8459    0.2904   -0.9166 C   0  0  0  0  0  0  0  0  0  0  0  0
    1.2591    0.0098    1.2151 H   0  0  0  0  0  0  0  0  0  0  0  0
   -1.7089   -0.0152    0.7929 H   0  0  0  0  0  0  0  0  0  0  0  0
   -0.7974    0.9939    1.9060 H   0  0  0  0  0  0  0  0  0  0  0  0
   -0.1571    2.5034    0.1107 H   0  0  0  0  0  0  0  0  0  0  0  0
   -2.9818    1.6641   -0.6419 H   0  0  0  0  0  0  0  0  0  0  0  0
   -2.5715    2.9357    0.5013 H   0  0  0  0  0  0  0  0  0  0  0  0
   -3.0631    3.8681   -1.7772 H   0  0  0  0  0  0  0  0  0  0  0  0
   -1.4275    4.2244   -1.2545 H   0  0  0  0  0  0  0  0  0  0  0  0
   -2.2645    2.0310   -3.2027 H   0  0  0  0  0  0  0  0  0  0  0  0
   -1.4068    3.5065   -3.6059 H   0  0  0  0  0  0  0  0  0  0  0  0
    0.1277    1.5240   -3.4730 H   0  0  0  0  0  0  0  0  0  0  0  0
    0.5640    2.7581   -2.2988 H   0  0  0  0  0  0  0  0  0  0  0  0
   -1.1404    0.3071   -1.7180 H   0  0  0  0  0  0  0  0  0  0  0  0
    1.1351   -0.5360   -1.5671 H   0  0  0  0  0  0  0  0  0  0  0  0
    1.6970    0.9763   -0.8703 H   0  0  0  0  0  0  0  0  0  0  0  0
  1  2  2  3
  1  6  1  0
  1  7  1  0
  2  3  1  0
  2  8  1  0
  3  4  1  0
  3 10  1  0
  4  5  2  3
  4 11  1  0
  5 12  1  0
  5 13  1  0
  9 14  1  0
 14 15  1  0
 14 22  1  0
 14 23  1  0
 15 16  1  0
 15 24  1  0
 15 25  1  0
 16 17  1  0
 16 21  1  0
 16 26  1  0
 17 18  1  0
 17 27  1  0
 17 28  1  0
 18 19  1  0
 18 29  1  0
 18 30  1  0
 19 20  1  0
 19 31  1  0
 19 32  1  0
 20 21  1  0
 20 33  1  0
 20 34  1  0
 21 22  1  0
 21 35  1  0
 22 36  1  0
 22 37  1  0
M  RAD  1   3   2
M  END
>  <reaction>  (5) 
rxn_746

>  <mol_properties>  (5) 
{"1": {"label": "*0", "atom_type": "Cd"}, "2": {"label": "*1", "atom_type": "Cs"}, "8": {"label": "*2", "atom_type": "H0"}, "13": {"label": "*3", "atom_type": "Cs"}, "21": {"label": "*4", "atom_type": "Cs"}}

>  <type>  (5) 
unop_1

>  <geom_source>  (5) 
Heuristics

$$$$

     RDKit          3D

 37 37  0  0  0  0  0  0  0  0999 V2000
   -0.4128   -2.9509    0.4352 C   0  0  0  0  0  0  0  0  0  0  0  0
   -0.4128   -2.9509    1.7585 C   0  0  0  0  0  0  0  0  0  0  0  0
   -0.4128   -1.7251    2.6165 C   0  0  0  0  0  3  0  0  0  0  0  0
    0.7969   -1.5707    3.4977 C   0  0  0  0  0  0  0  0  0  0  0  0
    1.9081   -2.2864    3.4252 C   0  0  0  0  0  0  0  0  0  0  0  0
   -0.4210   -3.8736   -0.1313 H   0  0  0  0  0  0  0  0  0  0  0  0
   -0.4064   -2.0254   -0.1308 H   0  0  0  0  0  0  0  0  0  0  0  0
   -0.4102   -3.8997    2.2890 H   0  0  0  0  0  0  0  0  0  0  0  0
   -0.5329   -0.6531    1.8659 H   0  0  0  0  0  0  0  0  0  0  0  0
   -1.3008   -1.7386    3.2592 H   0  0  0  0  0  0  0  0  0  0  0  0
    0.7242   -0.7857    4.2454 H   0  0  0  0  0  0  0  0  0  0  0  0
    2.0336   -3.0733    2.6904 H   0  0  0  0  0  0  0  0  0  0  0  0
    2.7363   -2.1021    4.0976 H   0  0  0  0  0  0  0  0  0  0  0  0
   -0.6524    0.4143    1.1186 C   0  0  0  0  0  0  0  0  0  0  0  0
   -1.4647    0.1029   -0.1633 C   0  0  0  0  0  0  0  0  0  0  0  0
   -0.9575    1.1116   -1.1891 C   0  0  0  0  0  0  0  0  0  0  0  0
   -1.1721    0.8222   -2.6641 C   0  0  0  0  0  0  0  0  0  0  0  0
   -0.4817    1.8970   -3.5087 C   0  0  0  0  0  0  0  0  0  0  0  0
    0.9974    2.0581   -3.1493 C   0  0  0  0  0  0  0  0  0  0  0  0
    1.2088    2.3104   -1.6538 C   0  0  0  0  0  0  0  0  0  0  0  0
    0.5273    1.2191   -0.8474 C   0  0  0  0  0  0  0  0  0  0  0  0
    0.5132    1.3326    0.6737 C   0  0  0  0  0  0  0  0  0  0  0  0
   -1.2715    0.9076    1.8685 H   0  0  0  0  0  0  0  0  0  0  0  0
   -1.2476   -0.9097   -0.5159 H   0  0  0  0  0  0  0  0  0  0  0  0
   -2.5421    0.1629   -0.0039 H   0  0  0  0  0  0  0  0  0  0  0  0
   -1.4107    2.0884   -0.9652 H   0  0  0  0  0  0  0  0  0  0  0  0
   -0.7504   -0.1618   -2.9018 H   0  0  0  0  0  0  0  0  0  0  0  0
   -2.2373    0.7771   -2.9059 H   0  0  0  0  0  0  0  0  0  0  0  0
   -0.5818    1.6649   -4.5714 H   0  0  0  0  0  0  0  0  0  0  0  0
   -0.9930    2.8528   -3.3486 H   0  0  0  0  0  0  0  0  0  0  0  0
    1.5337    1.1453   -3.4316 H   0  0  0  0  0  0  0  0  0  0  0  0
    1.4349    2.8697   -3.7352 H   0  0  0  0  0  0  0  0  0  0  0  0
    2.2768    2.3602   -1.4256 H   0  0  0  0  0  0  0  0  0  0  0  0
    0.7795    3.2811   -1.3785 H   0  0  0  0  0  0  0  0  0  0  0  0
    0.9899    0.2584   -1.1171 H   0  0  0  0  0  0  0  0  0  0  0  0
    1.4646    1.0562    1.1301 H   0  0  0  0  0  0  0  0  0  0  0  0
    0.3105    2.3699    0.9558 H   0  0  0  0  0  0  0  0  0  0  0  0
  1  2  2  3
  1  6  1  0
  1  7  1  0
  2  3  1  0
  2  8  1  0
  3  4  1  0
  3 10  1  0
  4  5  2  3
  4 11  1  0
  5 12  1  0
  5 13  1  0
  9 14  1  0
 14 15  1  0
 14 22  1  0
 14 23  1  0
 15 16  1  0
 15 24  1  0
 15 25  1  0
 16 17  1  0
 16 21  1  0
 16 26  1  0
 17 18  1  0
 17 27  1  0
 17 28  1  0
 18 19  1  0
 18 29  1  0
 18 30  1  0
 19 20  1  0
 19 31  1  0
 19 32  1  0
 20 21  1  0
 20 33  1  0
 20 34  1  0
 21 22  1  0
 21 35  1  0
 22 36  1  0
 22 37  1  0
M  RAD  1   3   2
M  END
>  <reaction>  (6) 
rxn_746

>  <mol_properties>  (6) 
{"1": {"label": "*0", "atom_type": "Cd"}, "2": {"label": "*1", "atom_type": "Cs"}, "8": {"label": "*2", "atom_type": "H0"}, "13": {"label": "*3", "atom_type": "Cs"}, "21": {"label": "*4", "atom_type": "Cs"}}

>  <type>  (6) 
unop_2

>  <geom_source>  (6) 
Heuristics

$$$$

     RDKit          3D

 37 37  0  0  0  0  0  0  0  0999 V2000
    0.8755   -3.5993   -0.4615 C   0  0  0  0  0  0  0  0  0  0  0  0
    0.8755   -3.5993    0.8617 C   0  0  0  0  0  0  0  0  0  0  0  0
    0.8755   -2.3735    1.7197 C   0  0  0  0  0  3  0  0  0  0  0  0
    2.0852   -2.2191    2.6009 C   0  0  0  0  0  0  0  0  0  0  0  0
    3.1964   -2.9348    2.5285 C   0  0  0  0  0  0  0  0  0  0  0  0
    0.8673   -4.5220   -1.0281 H   0  0  0  0  0  0  0  0  0  0  0  0
    0.8818   -2.6739   -1.0275 H   0  0  0  0  0  0  0  0  0  0  0  0
    0.8780   -4.5481    1.3923 H   0  0  0  0  0  0  0  0  0  0  0  0
    0.7554   -1.3015    0.9692 H   0  0  0  0  0  0  0  0  0  0  0  0
   -0.0125   -2.3870    2.3625 H   0  0  0  0  0  0  0  0  0  0  0  0
    2.0125   -1.4341    3.3487 H   0  0  0  0  0  0  0  0  0  0  0  0
    3.3218   -3.7217    1.7936 H   0  0  0  0  0  0  0  0  0  0  0  0
    4.0246   -2.7505    3.2008 H   0  0  0  0  0  0  0  0  0  0  0  0
    0.6358   -0.2341    0.2218 C   0  0  0  0  0  0  0  0  0  0  0  0
   -0.0934    0.8978    0.9880 C   0  0  0  0  0  0  0  0  0  0  0  0
   -0.5286    1.8742   -0.1001 C   0  0  0  0  0  0  0  0  0  0  0  0
   -1.6522    2.8497    0.2024 C   0  0  0  0  0  0  0  0  0  0  0  0
   -2.0032    3.6431   -1.0594 C   0  0  0  0  0  0  0  0  0  0  0  0
   -2.3174    2.7337   -2.2498 C   0  0  0  0  0  0  0  0  0  0  0  0
   -1.1972    1.7264   -2.5243 C   0  0  0  0  0  0  0  0  0  0  0  0
   -0.8866    0.9462   -1.2593 C   0  0  0  0  0  0  0  0  0  0  0  0
    0.2794   -0.0372   -1.2728 C   0  0  0  0  0  0  0  0  0  0  0  0
    1.7143   -0.1833    0.3744 H   0  0  0  0  0  0  0  0  0  0  0  0
   -0.9795    0.5054    1.4955 H   0  0  0  0  0  0  0  0  0  0  0  0
    0.5337    1.3618    1.7505 H   0  0  0  0  0  0  0  0  0  0  0  0
    0.3509    2.4557   -0.4132 H   0  0  0  0  0  0  0  0  0  0  0  0
   -2.5313    2.2898    0.5433 H   0  0  0  0  0  0  0  0  0  0  0  0
   -1.3761    3.5297    1.0126 H   0  0  0  0  0  0  0  0  0  0  0  0
   -2.8494    4.3062   -0.8659 H   0  0  0  0  0  0  0  0  0  0  0  0
   -1.1550    4.2870   -1.3176 H   0  0  0  0  0  0  0  0  0  0  0  0
   -3.2424    2.1839   -2.0432 H   0  0  0  0  0  0  0  0  0  0  0  0
   -2.5077    3.3393   -3.1389 H   0  0  0  0  0  0  0  0  0  0  0  0
   -1.4819    1.0568   -3.3402 H   0  0  0  0  0  0  0  0  0  0  0  0
   -0.2945    2.2573   -2.8493 H   0  0  0  0  0  0  0  0  0  0  0  0
   -1.7948    0.4000   -0.9654 H   0  0  0  0  0  0  0  0  0  0  0  0
    0.0395   -0.9751   -1.7755 H   0  0  0  0  0  0  0  0  0  0  0  0
    1.1213    0.4094   -1.8100 H   0  0  0  0  0  0  0  0  0  0  0  0
  1  2  2  3
  1  6  1  0
  1  7  1  0
  2  3  1  0
  2  8  1  0
  3  4  1  0
  3 10  1  0
  4  5  2  3
  4 11  1  0
  5 12  1  0
  5 13  1  0
  9 14  1  0
 14 15  1  0
 14 22  1  0
 14 23  1  0
 15 16  1  0
 15 24  1  0
 15 25  1  0
 16 17  1  0
 16 21  1  0
 16 26  1  0
 17 18  1  0
 17 27  1  0
 17 28  1  0
 18 19  1  0
 18 29  1  0
 18 30  1  0
 19 20  1  0
 19 31  1  0
 19 32  1  0
 20 21  1  0
 20 33  1  0
 20 34  1  0
 21 22  1  0
 21 35  1  0
 22 36  1  0
 22 37  1  0
M  RAD  1   3   2
M  END
>  <reaction>  (7) 
rxn_746

>  <mol_properties>  (7) 
{"1": {"label": "*0", "atom_type": "Cd"}, "2": {"label": "*1", "atom_type": "Cs"}, "8": {"label": "*2", "atom_type": "H0"}, "13": {"label": "*3", "atom_type": "Cs"}, "21": {"label": "*4", "atom_type": "Cs"}}

>  <type>  (7) 
unop_3

>  <geom_source>  (7) 
Heuristics

$$$$

     RDKit          3D

 37 37  0  0  0  0  0  0  0  0999 V2000
   -1.5724   -3.1609   -1.3619 C   0  0  0  0  0  0  0  0  0  0  0  0
   -1.5724   -3.1609   -0.0386 C   0  0  0  0  0  0  0  0  0  0  0  0
   -1.5724   -1.9351    0.8194 C   0  0  0  0  0  3  0  0  0  0  0  0
   -0.3627   -1.7807    1.7006 C   0  0  0  0  0  0  0  0  0  0  0  0
    0.7484   -2.4964    1.6281 C   0  0  0  0  0  0  0  0  0  0  0  0
   -1.5806   -4.0836   -1.9284 H   0  0  0  0  0  0  0  0  0  0  0  0
   -1.5661   -2.2354   -1.9279 H   0  0  0  0  0  0  0  0  0  0  0  0
   -1.5699   -4.1096    0.4919 H   0  0  0  0  0  0  0  0  0  0  0  0
   -1.6925   -0.8631    0.0688 H   0  0  0  0  0  0  0  0  0  0  0  0
   -2.4604   -1.9486    1.4622 H   0  0  0  0  0  0  0  0  0  0  0  0
   -0.4354   -0.9957    2.4483 H   0  0  0  0  0  0  0  0  0  0  0  0
    0.8739   -3.2833    0.8933 H   0  0  0  0  0  0  0  0  0  0  0  0
    1.5767   -2.3121    2.3005 H   0  0  0  0  0  0  0  0  0  0  0  0
   -1.8121    0.2043   -0.6785 C   0  0  0  0  0  0  0  0  0  0  0  0
   -0.6390    0.3081   -1.6850 C   0  0  0  0  0  0  0  0  0  0  0  0
    0.2789    1.3717   -1.0907 C   0  0  0  0  0  0  0  0  0  0  0  0
    1.7297    1.4146   -1.5367 C   0  0  0  0  0  0  0  0  0  0  0  0
    2.4888    2.4711   -0.7290 C   0  0  0  0  0  0  0  0  0  0  0  0
    2.3428    2.2651    0.7807 C   0  0  0  0  0  0  0  0  0  0  0  0
    0.8775    2.1831    1.2178 C   0  0  0  0  0  0  0  0  0  0  0  0
    0.1596    1.1161    0.4105 C   0  0  0  0  0  0  0  0  0  0  0  0
   -1.3436    0.9406    0.6015 C   0  0  0  0  0  0  0  0  0  0  0  0
   -2.7181    0.6596   -1.0794 H   0  0  0  0  0  0  0  0  0  0  0  0
   -0.1000   -0.6422   -1.7419 H   0  0  0  0  0  0  0  0  0  0  0  0
   -0.9715    0.5492   -2.6956 H   0  0  0  0  0  0  0  0  0  0  0  0
   -0.1657    2.3586   -1.2854 H   0  0  0  0  0  0  0  0  0  0  0  0
    2.1839    0.4297   -1.3757 H   0  0  0  0  0  0  0  0  0  0  0  0
    1.8069    1.6281   -2.6061 H   0  0  0  0  0  0  0  0  0  0  0  0
    3.5464    2.4687   -1.0029 H   0  0  0  0  0  0  0  0  0  0  0  0
    2.1008    3.4615   -0.9922 H   0  0  0  0  0  0  0  0  0  0  0  0
    2.8471    1.3342    1.0632 H   0  0  0  0  0  0  0  0  0  0  0  0
    2.8525    3.0696    1.3157 H   0  0  0  0  0  0  0  0  0  0  0  0
    0.8131    1.9762    2.2893 H   0  0  0  0  0  0  0  0  0  0  0  0
    0.3875    3.1497    1.0509 H   0  0  0  0  0  0  0  0  0  0  0  0
    0.6477    0.1515    0.6125 H   0  0  0  0  0  0  0  0  0  0  0  0
   -1.5965    0.3999    1.5145 H   0  0  0  0  0  0  0  0  0  0  0  0
   -1.8157    1.9251    0.6695 H   0  0  0  0  0  0  0  0  0  0  0  0
  1  2  2  3
  1  6  1  0
  1  7  1  0
  2  3  1  0
  2  8  1  0
  3  4  1  0
  3 10  1  0
  4  5  2  3
  4 11  1  0
  5 12  1  0
  5 13  1  0
  9 14  1  0
 14 15  1  0
 14 22  1  0
 14 23  1  0
 15 16  1  0
 15 24  1  0
 15 25  1  0
 16 17  1  0
 16 21  1  0
 16 26  1  0
 17 18  1  0
 17 27  1  0
 17 28  1  0
 18 19  1  0
 18 29  1  0
 18 30  1  0
 19 20  1  0
 19 31  1  0
 19 32  1  0
 20 21  1  0
 20 33  1  0
 20 34  1  0
 21 22  1  0
 21 35  1  0
 22 36  1  0
 22 37  1  0
M  RAD  1   3   2
M  END
>  <reaction>  (8) 
rxn_746

>  <mol_properties>  (8) 
{"1": {"label": "*0", "atom_type": "Cd"}, "2": {"label": "*1", "atom_type": "Cs"}, "8": {"label": "*2", "atom_type": "H0"}, "13": {"label": "*3", "atom_type": "Cs"}, "21": {"label": "*4", "atom_type": "Cs"}}

>  <type>  (8) 
unop_4

>  <geom_source>  (8) 
Heuristics

$$$$

     RDKit          3D

 37 37  0  0  0  0  0  0  0  0999 V2000
    1.1133   -3.5583   -1.2033 C   0  0  0  0  0  0  0  0  0  0  0  0
    1.1133   -3.5583    0.1200 C   0  0  0  0  0  0  0  0  0  0  0  0
    1.1133   -2.3325    0.9780 C   0  0  0  0  0  3  0  0  0  0  0  0
    2.3231   -2.1782    1.8592 C   0  0  0  0  0  0  0  0  0  0  0  0
    3.4342   -2.8939    1.7868 C   0  0  0  0  0  0  0  0  0  0  0  0
    1.1052   -4.4811   -1.7698 H   0  0  0  0  0  0  0  0  0  0  0  0
    1.1197   -2.6329   -1.7692 H   0  0  0  0  0  0  0  0  0  0  0  0
    1.1159   -4.5071    0.6505 H   0  0  0  0  0  0  0  0  0  0  0  0
    0.9933   -1.2605    0.2274 H   0  0  0  0  0  0  0  0  0  0  0  0
    0.2254   -2.3460    1.6208 H   0  0  0  0  0  0  0  0  0  0  0  0
    2.2504   -1.3931    2.6069 H   0  0  0  0  0  0  0  0  0  0  0  0
    3.5597   -3.6807    1.0519 H   0  0  0  0  0  0  0  0  0  0  0  0
    4.2624   -2.7096    2.4591 H   0  0  0  0  0  0  0  0  0  0  0  0
    0.8737   -0.1931   -0.5199 C   0  0  0  0  0  0  0  0  0  0  0  0
    0.8712    1.0907    0.3470 C   0  0  0  0  0  0  0  0  0  0  0  0
   -0.2763    1.9253   -0.2129 C   0  0  0  0  0  0  0  0  0  0  0  0
   -0.8769    3.0157    0.6565 C   0  0  0  0  0  0  0  0  0  0  0  0
   -2.0833    3.6379   -0.0524 C   0  0  0  0  0  0  0  0  0  0  0  0
   -3.1137    2.5885   -0.4763 C   0  0  0  0  0  0  0  0  0  0  0  0
   -2.4932    1.4710   -1.3196 C   0  0  0  0  0  0  0  0  0  0  0  0
   -1.3127    0.8655   -0.5813 C   0  0  0  0  0  0  0  0  0  0  0  0
   -0.4719   -0.1933   -1.2876 C   0  0  0  0  0  0  0  0  0  0  0  0
    1.7162   -0.2008   -1.2120 H   0  0  0  0  0  0  0  0  0  0  0  0
    0.6613    0.8448    1.3922 H   0  0  0  0  0  0  0  0  0  0  0  0
    1.8279    1.6143    0.3267 H   0  0  0  0  0  0  0  0  0  0  0  0
    0.0599    2.3869   -1.1528 H   0  0  0  0  0  0  0  0  0  0  0  0
   -1.1939    2.5795    1.6113 H   0  0  0  0  0  0  0  0  0  0  0  0
   -0.1367    3.7856    0.8902 H   0  0  0  0  0  0  0  0  0  0  0  0
   -2.5565    4.3835    0.5906 H   0  0  0  0  0  0  0  0  0  0  0  0
   -1.7318    4.1715   -0.9425 H   0  0  0  0  0  0  0  0  0  0  0  0
   -3.5606    2.1457    0.4209 H   0  0  0  0  0  0  0  0  0  0  0  0
   -3.9276    3.0685   -1.0246 H   0  0  0  0  0  0  0  0  0  0  0  0
   -3.2440    0.7112   -1.5526 H   0  0  0  0  0  0  0  0  0  0  0  0
   -2.1469    1.8793   -2.2766 H   0  0  0  0  0  0  0  0  0  0  0  0
   -1.6846    0.4378    0.3612 H   0  0  0  0  0  0  0  0  0  0  0  0
   -0.9478   -1.1747   -1.3027 H   0  0  0  0  0  0  0  0  0  0  0  0
   -0.3170    0.1050   -2.3287 H   0  0  0  0  0  0  0  0  0  0  0  0
  1  2  2  3
  1  6  1  0
  1  7  1  0
  2  3  1  0
  2  8  1  0
  3  4  1  0
  3 10  1  0
  4  5  2  3
  4 11  1  0
  5 12  1  0
  5 13  1  0
  9 14  1  0
 14 15  1  0
 14 22  1  0
 14 23  1  0
 15 16  1  0
 15 24  1  0
 15 25  1  0
 16 17  1  0
 16 21  1  0
 16 26  1  0
 17 18  1  0
 17 27  1  0
 17 28  1  0
 18 19  1  0
 18 29  1  0
 18 30  1  0
 19 20  1  0
 19 31  1  0
 19 32  1  0
 20 21  1  0
 20 33  1  0
 20 34  1  0
 21 22  1  0
 21 35  1  0
 22 36  1  0
 22 37  1  0
M  RAD  1   3   2
M  END
>  <reaction>  (9) 
rxn_746

>  <mol_properties>  (9) 
{"1": {"label": "*0", "atom_type": "Cd"}, "2": {"label": "*1", "atom_type": "Cs"}, "8": {"label": "*2", "atom_type": "H0"}, "13": {"label": "*3", "atom_type": "Cs"}, "21": {"label": "*4", "atom_type": "Cs"}}

>  <type>  (9) 
unop_5

>  <geom_source>  (9) 
Heuristics

$$$$

     RDKit          3D

 37 37  0  0  0  0  0  0  0  0999 V2000
   -1.1310   -3.3684   -2.0168 C   0  0  0  0  0  0  0  0  0  0  0  0
   -1.1310   -3.3684   -0.6935 C   0  0  0  0  0  0  0  0  0  0  0  0
   -1.1310   -2.1426    0.1645 C   0  0  0  0  0  3  0  0  0  0  0  0
    0.0787   -1.9882    1.0457 C   0  0  0  0  0  0  0  0  0  0  0  0
    1.1899   -2.7039    0.9732 C   0  0  0  0  0  0  0  0  0  0  0  0
   -1.1392   -4.2911   -2.5833 H   0  0  0  0  0  0  0  0  0  0  0  0
   -1.1246   -2.4429   -2.5828 H   0  0  0  0  0  0  0  0  0  0  0  0
   -1.1284   -4.3171   -0.1630 H   0  0  0  0  0  0  0  0  0  0  0  0
   -1.2511   -1.0706   -0.5861 H   0  0  0  0  0  0  0  0  0  0  0  0
   -2.0190   -2.1561    0.8073 H   0  0  0  0  0  0  0  0  0  0  0  0
    0.0060   -1.2032    1.7934 H   0  0  0  0  0  0  0  0  0  0  0  0
    1.3153   -3.4908    0.2384 H   0  0  0  0  0  0  0  0  0  0  0  0
    2.0181   -2.5196    1.6456 H   0  0  0  0  0  0  0  0  0  0  0  0
   -1.3706   -0.0032   -1.3334 C   0  0  0  0  0  0  0  0  0  0  0  0
    0.0194    0.5281   -1.7642 C   0  0  0  0  0  0  0  0  0  0  0  0
    0.3484    1.6078   -0.7380 C   0  0  0  0  0  0  0  0  0  0  0  0
    1.7977    2.0216   -0.5542 C   0  0  0  0  0  0  0  0  0  0  0  0
    1.9086    3.0206    0.6011 C   0  0  0  0  0  0  0  0  0  0  0  0
    1.2796    2.4897    1.8916 C   0  0  0  0  0  0  0  0  0  0  0  0
   -0.1693    2.0374    1.6895 C   0  0  0  0  0  0  0  0  0  0  0  0
   -0.2408    1.0363    0.5501 C   0  0  0  0  0  0  0  0  0  0  0  0
   -1.6096    0.5365    0.0989 C   0  0  0  0  0  0  0  0  0  0  0  0
   -2.1521    0.3383   -2.0129 H   0  0  0  0  0  0  0  0  0  0  0  0
    0.7676   -0.2676   -1.7026 H   0  0  0  0  0  0  0  0  0  0  0  0
    0.0290    0.8986   -2.7900 H   0  0  0  0  0  0  0  0  0  0  0  0
   -0.2330    2.5078   -0.9863 H   0  0  0  0  0  0  0  0  0  0  0  0
    2.3995    1.1322   -0.3326 H   0  0  0  0  0  0  0  0  0  0  0  0
    2.2023    2.4573   -1.4716 H   0  0  0  0  0  0  0  0  0  0  0  0
    2.9551    3.2795    0.7779 H   0  0  0  0  0  0  0  0  0  0  0  0
    1.4019    3.9487    0.3138 H   0  0  0  0  0  0  0  0  0  0  0  0
    1.8678    1.6374    2.2497 H   0  0  0  0  0  0  0  0  0  0  0  0
    1.3322    3.2533    2.6710 H   0  0  0  0  0  0  0  0  0  0  0  0
   -0.5650    1.6100    2.6147 H   0  0  0  0  0  0  0  0  0  0  0  0
   -0.7962    2.9035    1.4461 H   0  0  0  0  0  0  0  0  0  0  0  0
    0.3710    0.1647    0.8248 H   0  0  0  0  0  0  0  0  0  0  0  0
   -2.0297   -0.2160    0.7677 H   0  0  0  0  0  0  0  0  0  0  0  0
   -2.3109    1.3758    0.0782 H   0  0  0  0  0  0  0  0  0  0  0  0
  1  2  2  3
  1  6  1  0
  1  7  1  0
  2  3  1  0
  2  8  1  0
  3  4  1  0
  3 10  1  0
  4  5  2  3
  4 11  1  0
  5 12  1  0
  5 13  1  0
  9 14  1  0
 14 15  1  0
 14 22  1  0
 14 23  1  0
 15 16  1  0
 15 24  1  0
 15 25  1  0
 16 17  1  0
 16 21  1  0
 16 26  1  0
 17 18  1  0
 17 27  1  0
 17 28  1  0
 18 19  1  0
 18 29  1  0
 18 30  1  0
 19 20  1  0
 19 31  1  0
 19 32  1  0
 20 21  1  0
 20 33  1  0
 20 34  1  0
 21 22  1  0
 21 35  1  0
 22 36  1  0
 22 37  1  0
M  RAD  1   3   2
M  END
>  <reaction>  (10) 
rxn_746

>  <mol_properties>  (10) 
{"1": {"label": "*0", "atom_type": "Cd"}, "2": {"label": "*1", "atom_type": "Cs"}, "8": {"label": "*2", "atom_type": "H0"}, "13": {"label": "*3", "atom_type": "Cs"}, "21": {"label": "*4", "atom_type": "Cs"}}

>  <type>  (10) 
unop_6

>  <geom_source>  (10) 
Heuristics

$$$$

     RDKit          3D

 37 37  0  0  0  0  0  0  0  0999 V2000
   -0.3515   -3.5062   -2.3531 C   0  0  0  0  0  0  0  0  0  0  0  0
   -0.3515   -3.5062   -1.0298 C   0  0  0  0  0  0  0  0  0  0  0  0
   -0.3515   -2.2804   -0.1718 C   0  0  0  0  0  3  0  0  0  0  0  0
    0.8582   -2.1261    0.7094 C   0  0  0  0  0  0  0  0  0  0  0  0
    1.9694   -2.8418    0.6370 C   0  0  0  0  0  0  0  0  0  0  0  0
   -0.3597   -4.4290   -2.9196 H   0  0  0  0  0  0  0  0  0  0  0  0
   -0.3452   -2.5808   -2.9190 H   0  0  0  0  0  0  0  0  0  0  0  0
   -0.3489   -4.4550   -0.4993 H   0  0  0  0  0  0  0  0  0  0  0  0
   -0.4716   -1.2085   -0.9224 H   0  0  0  0  0  0  0  0  0  0  0  0
   -1.2395   -2.2939    0.4710 H   0  0  0  0  0  0  0  0  0  0  0  0
    0.7855   -1.3410    1.4571 H   0  0  0  0  0  0  0  0  0  0  0  0
    2.0948   -3.6286   -0.0979 H   0  0  0  0  0  0  0  0  0  0  0  0
    2.7976   -2.6575    1.3093 H   0  0  0  0  0  0  0  0  0  0  0  0
   -0.5911   -0.1411   -1.6697 C   0  0  0  0  0  0  0  0  0  0  0  0
    0.6298    0.7960   -1.4938 C   0  0  0  0  0  0  0  0  0  0  0  0
    0.1882    1.8011   -0.4347 C   0  0  0  0  0  0  0  0  0  0  0  0
    1.2515    2.5727    0.3267 C   0  0  0  0  0  0  0  0  0  0  0  0
    0.5931    3.4263    1.4143 C   0  0  0  0  0  0  0  0  0  0  0  0
   -0.3083    2.6007    2.3355 C   0  0  0  0  0  0  0  0  0  0  0  0
   -1.3527    1.7945    1.5581 C   0  0  0  0  0  0  0  0  0  0  0  0
   -0.6657    0.9480    0.5013 C   0  0  0  0  0  0  0  0  0  0  0  0
   -1.5273    0.1466   -0.4694 C   0  0  0  0  0  0  0  0  0  0  0  0
   -1.1013    0.0479   -2.6147 H   0  0  0  0  0  0  0  0  0  0  0  0
    1.4912    0.2342   -1.1205 H   0  0  0  0  0  0  0  0  0  0  0  0
    0.9358    1.2688   -2.4280 H   0  0  0  0  0  0  0  0  0  0  0  0
   -0.4849    2.5294   -0.9101 H   0  0  0  0  0  0  0  0  0  0  0  0
    1.9499    1.8631    0.7862 H   0  0  0  0  0  0  0  0  0  0  0  0
    1.8381    3.2036   -0.3463 H   0  0  0  0  0  0  0  0  0  0  0  0
    1.3551    3.9402    2.0046 H   0  0  0  0  0  0  0  0  0  0  0  0
   -0.0080    4.2063    0.9338 H   0  0  0  0  0  0  0  0  0  0  0  0
    0.3129    1.9073    2.9134 H   0  0  0  0  0  0  0  0  0  0  0  0
   -0.7985    3.2561    3.0591 H   0  0  0  0  0  0  0  0  0  0  0  0
   -1.9371    1.1732    2.2419 H   0  0  0  0  0  0  0  0  0  0  0  0
   -2.0573    2.4775    1.0686 H   0  0  0  0  0  0  0  0  0  0  0  0
    0.0150    0.2521    1.0131 H   0  0  0  0  0  0  0  0  0  0  0  0
   -1.9348   -0.7629   -0.0259 H   0  0  0  0  0  0  0  0  0  0  0  0
   -2.3770    0.7584   -0.7865 H   0  0  0  0  0  0  0  0  0  0  0  0
  1  2  2  3
  1  6  1  0
  1  7  1  0
  2  3  1  0
  2  8  1  0
  3  4  1  0
  3 10  1  0
  4  5  2  3
  4 11  1  0
  5 12  1  0
  5 13  1  0
  9 14  1  0
 14 15  1  0
 14 22  1  0
 14 23  1  0
 15 16  1  0
 15 24  1  0
 15 25  1  0
 16 17  1  0
 16 21  1  0
 16 26  1  0
 17 18  1  0
 17 27  1  0
 17 28  1  0
 18 19  1  0
 18 29  1  0
 18 30  1  0
 19 20  1  0
 19 31  1  0
 19 32  1  0
 20 21  1  0
 20 33  1  0
 20 34  1  0
 21 22  1  0
 21 35  1  0
 22 36  1  0
 22 37  1  0
M  RAD  1   3   2
M  END
>  <reaction>  (11) 
rxn_746

>  <mol_properties>  (11) 
{"1": {"label": "*0", "atom_type": "Cd"}, "2": {"label": "*1", "atom_type": "Cs"}, "8": {"label": "*2", "atom_type": "H0"}, "13": {"label": "*3", "atom_type": "Cs"}, "21": {"label": "*4", "atom_type": "Cs"}}

>  <type>  (11) 
unop_7

>  <geom_source>  (11) 
Heuristics

$$$$

     RDKit          3D

 37 37  0  0  0  0  0  0  0  0999 V2000
    0.5485   -3.3693    0.0899 C   0  0  0  0  0  0  0  0  0  0  0  0
    0.5485   -3.3693    1.4132 C   0  0  0  0  0  0  0  0  0  0  0  0
    0.5485   -2.1435    2.2712 C   0  0  0  0  0  3  0  0  0  0  0  0
    1.7583   -1.9891    3.1524 C   0  0  0  0  0  0  0  0  0  0  0  0
    2.8694   -2.7048    3.0800 C   0  0  0  0  0  0  0  0  0  0  0  0
    0.5404   -4.2920   -0.4766 H   0  0  0  0  0  0  0  0  0  0  0  0
    0.5549   -2.4438   -0.4760 H   0  0  0  0  0  0  0  0  0  0  0  0
    0.5511   -4.3181    1.9437 H   0  0  0  0  0  0  0  0  0  0  0  0
    0.4285   -1.0715    1.5206 H   0  0  0  0  0  0  0  0  0  0  0  0
   -0.3394   -2.1570    2.9140 H   0  0  0  0  0  0  0  0  0  0  0  0
    1.6856   -1.2041    3.9001 H   0  0  0  0  0  0  0  0  0  0  0  0
    2.9949   -3.4917    2.3451 H   0  0  0  0  0  0  0  0  0  0  0  0
    3.6976   -2.5205    3.7523 H   0  0  0  0  0  0  0  0  0  0  0  0
    0.3089   -0.0041    0.7733 C   0  0  0  0  0  0  0  0  0  0  0  0
   -1.1821    0.3658    0.5731 C   0  0  0  0  0  0  0  0  0  0  0  0
   -1.1572    1.5155   -0.4292 C   0  0  0  0  0  0  0  0  0  0  0  0
   -2.4201    1.8276   -1.2123 C   0  0  0  0  0  0  0  0  0  0  0  0
   -2.1349    2.9282   -2.2381 C   0  0  0  0  0  0  0  0  0  0  0  0
   -0.9497    2.5858   -3.1442 C   0  0  0  0  0  0  0  0  0  0  0  0
    0.3095    2.2336   -2.3472 C   0  0  0  0  0  0  0  0  0  0  0  0
   -0.0038    1.1295   -1.3532 C   0  0  0  0  0  0  0  0  0  0  0  0
    1.0811    0.6980   -0.3715 C   0  0  0  0  0  0  0  0  0  0  0  0
    0.6709    0.3275    1.7470 H   0  0  0  0  0  0  0  0  0  0  0  0
   -1.7295   -0.4771    0.1411 H   0  0  0  0  0  0  0  0  0  0  0  0
   -1.6803    0.6265    1.5077 H   0  0  0  0  0  0  0  0  0  0  0  0
   -0.8522    2.4291    0.1018 H   0  0  0  0  0  0  0  0  0  0  0  0
   -2.7562    0.9201   -1.7279 H   0  0  0  0  0  0  0  0  0  0  0  0
   -3.2316    2.1322   -0.5460 H   0  0  0  0  0  0  0  0  0  0  0  0
   -3.0229    3.1185   -2.8452 H   0  0  0  0  0  0  0  0  0  0  0  0
   -1.9169    3.8596   -1.7037 H   0  0  0  0  0  0  0  0  0  0  0  0
   -1.2186    1.7303   -3.7738 H   0  0  0  0  0  0  0  0  0  0  0  0
   -0.7480    3.4190   -3.8213 H   0  0  0  0  0  0  0  0  0  0  0  0
    1.1153    1.9374   -3.0240 H   0  0  0  0  0  0  0  0  0  0  0  0
    0.6612    3.1179   -1.8023 H   0  0  0  0  0  0  0  0  0  0  0  0
   -0.3278    0.2442   -1.9197 H   0  0  0  0  0  0  0  0  0  0  0  0
    1.8357    0.0550   -0.8265 H   0  0  0  0  0  0  0  0  0  0  0  0
    1.5992    1.5846    0.0056 H   0  0  0  0  0  0  0  0  0  0  0  0
  1  2  2  3
  1  6  1  0
  1  7  1  0
  2  3  1  0
  2  8  1  0
  3  4  1  0
  3 10  1  0
  4  5  2  3
  4 11  1  0
  5 12  1  0
  5 13  1  0
  9 14  1  0
 14 15  1  0
 14 22  1  0
 14 23  1  0
 15 16  1  0
 15 24  1  0
 15 25  1  0
 16 17  1  0
 16 21  1  0
 16 26  1  0
 17 18  1  0
 17 27  1  0
 17 28  1  0
 18 19  1  0
 18 29  1  0
 18 30  1  0
 19 20  1  0
 19 31  1  0
 19 32  1  0
 20 21  1  0
 20 33  1  0
 20 34  1  0
 21 22  1  0
 21 35  1  0
 22 36  1  0
 22 37  1  0
M  RAD  1   3   2
M  END
>  <reaction>  (12) 
rxn_746

>  <mol_properties>  (12) 
{"1": {"label": "*0", "atom_type": "Cd"}, "2": {"label": "*1", "atom_type": "Cs"}, "8": {"label": "*2", "atom_type": "H0"}, "13": {"label": "*3", "atom_type": "Cs"}, "21": {"label": "*4", "atom_type": "Cs"}}

>  <type>  (12) 
unop_8

>  <geom_source>  (12) 
Heuristics

$$$$

     RDKit          3D

 37 37  0  0  0  0  0  0  0  0999 V2000
   -1.5773   -2.9696   -0.5703 C   0  0  0  0  0  0  0  0  0  0  0  0
   -1.5773   -2.9696    0.7530 C   0  0  0  0  0  0  0  0  0  0  0  0
   -1.5773   -1.7437    1.6110 C   0  0  0  0  0  3  0  0  0  0  0  0
   -0.3676   -1.5894    2.4922 C   0  0  0  0  0  0  0  0  0  0  0  0
    0.7436   -2.3051    2.4197 C   0  0  0  0  0  0  0  0  0  0  0  0
   -1.5855   -3.8923   -1.1368 H   0  0  0  0  0  0  0  0  0  0  0  0
   -1.5710   -2.0441   -1.1363 H   0  0  0  0  0  0  0  0  0  0  0  0
   -1.5747   -3.9183    1.2835 H   0  0  0  0  0  0  0  0  0  0  0  0
   -1.6974   -0.6718    0.8604 H   0  0  0  0  0  0  0  0  0  0  0  0
   -2.4653   -1.7572    2.2537 H   0  0  0  0  0  0  0  0  0  0  0  0
   -0.4403   -0.8044    3.2399 H   0  0  0  0  0  0  0  0  0  0  0  0
    0.8690   -3.0919    1.6849 H   0  0  0  0  0  0  0  0  0  0  0  0
    1.5718   -2.1208    3.0921 H   0  0  0  0  0  0  0  0  0  0  0  0
   -1.8170    0.3956    0.1131 C   0  0  0  0  0  0  0  0  0  0  0  0
   -1.1887    0.1650   -1.2841 C   0  0  0  0  0  0  0  0  0  0  0  0
   -0.0407    1.1669   -1.3548 C   0  0  0  0  0  0  0  0  0  0  0  0
    1.0755    0.9274   -2.3559 C   0  0  0  0  0  0  0  0  0  0  0  0
    2.1723    1.9799   -2.1706 C   0  0  0  0  0  0  0  0  0  0  0  0
    2.6792    2.0439   -0.7277 C   0  0  0  0  0  0  0  0  0  0  0  0
    1.5436    2.2460    0.2796 C   0  0  0  0  0  0  0  0  0  0  0  0
    0.4836    1.1775    0.0798 C   0  0  0  0  0  0  0  0  0  0  0  0
   -0.7980    1.2538    0.9037 C   0  0  0  0  0  0  0  0  0  0  0  0
   -2.7774    0.9060    0.0350 H   0  0  0  0  0  0  0  0  0  0  0  0
   -0.7866   -0.8497   -1.3586 H   0  0  0  0  0  0  0  0  0  0  0  0
   -1.9089    0.2848   -2.0945 H   0  0  0  0  0  0  0  0  0  0  0  0
   -0.4641    2.1630   -1.5500 H   0  0  0  0  0  0  0  0  0  0  0  0
    1.4932   -0.0737   -2.1951 H   0  0  0  0  0  0  0  0  0  0  0  0
    0.6970    0.9516   -3.3812 H   0  0  0  0  0  0  0  0  0  0  0  0
    3.0059    1.7806   -2.8478 H   0  0  0  0  0  0  0  0  0  0  0  0
    1.7704    2.9601   -2.4505 H   0  0  0  0  0  0  0  0  0  0  0  0
    3.1976    1.1082   -0.4907 H   0  0  0  0  0  0  0  0  0  0  0  0
    3.4182    2.8424   -0.6296 H   0  0  0  0  0  0  0  0  0  0  0  0
    1.9351    2.2267    1.3002 H   0  0  0  0  0  0  0  0  0  0  0  0
    1.0901    3.2334    0.1319 H   0  0  0  0  0  0  0  0  0  0  0  0
    0.9506    0.1980    0.2590 H   0  0  0  0  0  0  0  0  0  0  0  0
   -0.6652    0.9102    1.9304 H   0  0  0  0  0  0  0  0  0  0  0  0
   -1.1329    2.2941    0.9535 H   0  0  0  0  0  0  0  0  0  0  0  0
  1  2  2  3
  1  6  1  0
  1  7  1  0
  2  3  1  0
  2  8  1  0
  3  4  1  0
  3 10  1  0
  4  5  2  3
  4 11  1  0
  5 12  1  0
  5 13  1  0
  9 14  1  0
 14 15  1  0
 14 22  1  0
 14 23  1  0
 15 16  1  0
 15 24  1  0
 15 25  1  0
 16 17  1  0
 16 21  1  0
 16 26  1  0
 17 18  1  0
 17 27  1  0
 17 28  1  0
 18 19  1  0
 18 29  1  0
 18 30  1  0
 19 20  1  0
 19 31  1  0
 19 32  1  0
 20 21  1  0
 20 33  1  0
 20 34  1  0
 21 22  1  0
 21 35  1  0
 22 36  1  0
 22 37  1  0
M  RAD  1   3   2
M  END
>  <reaction>  (13) 
rxn_746

>  <mol_properties>  (13) 
{"1": {"label": "*0", "atom_type": "Cd"}, "2": {"label": "*1", "atom_type": "Cs"}, "8": {"label": "*2", "atom_type": "H0"}, "13": {"label": "*3", "atom_type": "Cs"}, "21": {"label": "*4", "atom_type": "Cs"}}

>  <type>  (13) 
unop_9

>  <geom_source>  (13) 
Heuristics

$$$$

     RDKit          3D

 37 37  0  0  0  0  0  0  0  0999 V2000
    0.2049   -3.1402    0.3573 C   0  0  0  0  0  0  0  0  0  0  0  0
    0.2049   -3.1402    1.6805 C   0  0  0  0  0  0  0  0  0  0  0  0
    0.2049   -1.9144    2.5385 C   0  0  0  0  0  3  0  0  0  0  0  0
    1.4146   -1.7601    3.4197 C   0  0  0  0  0  0  0  0  0  0  0  0
    2.5257   -2.4758    3.3473 C   0  0  0  0  0  0  0  0  0  0  0  0
    0.1967   -4.0630   -0.2093 H   0  0  0  0  0  0  0  0  0  0  0  0
    0.2112   -2.2148   -0.2087 H   0  0  0  0  0  0  0  0  0  0  0  0
    0.2074   -4.0890    2.2110 H   0  0  0  0  0  0  0  0  0  0  0  0
    0.0848   -0.8425    1.7880 H   0  0  0  0  0  0  0  0  0  0  0  0
   -0.6831   -1.9279    3.1813 H   0  0  0  0  0  0  0  0  0  0  0  0
    1.3419   -0.9751    4.1674 H   0  0  0  0  0  0  0  0  0  0  0  0
    2.6512   -3.2626    2.6124 H   0  0  0  0  0  0  0  0  0  0  0  0
    3.3539   -2.2915    4.0196 H   0  0  0  0  0  0  0  0  0  0  0  0
   -0.0348    0.2249    1.0406 C   0  0  0  0  0  0  0  0  0  0  0  0
   -1.3567    0.1891    0.2337 C   0  0  0  0  0  0  0  0  0  0  0  0
   -1.1908    1.2827   -0.8167 C   0  0  0  0  0  0  0  0  0  0  0  0
   -2.0608    1.2374   -2.0602 C   0  0  0  0  0  0  0  0  0  0  0  0
   -1.6438    2.3510   -3.0251 C   0  0  0  0  0  0  0  0  0  0  0  0
   -0.1488    2.3091   -3.3506 C   0  0  0  0  0  0  0  0  0  0  0  0
    0.7215    2.3151   -2.0906 C   0  0  0  0  0  0  0  0  0  0  0  0
    0.2934    1.1900   -1.1652 C   0  0  0  0  0  0  0  0  0  0  0  0
    0.9527    1.0781    0.2058 C   0  0  0  0  0  0  0  0  0  0  0  0
   -0.1866    0.6611    2.0284 H   0  0  0  0  0  0  0  0  0  0  0  0
   -1.4719   -0.7768   -0.2669 H   0  0  0  0  0  0  0  0  0  0  0  0
   -2.2372    0.3318    0.8616 H   0  0  0  0  0  0  0  0  0  0  0  0
   -1.3465    2.2559   -0.3285 H   0  0  0  0  0  0  0  0  0  0  0  0
   -1.9403    0.2623   -2.5472 H   0  0  0  0  0  0  0  0  0  0  0  0
   -3.1192    1.3349   -1.8043 H   0  0  0  0  0  0  0  0  0  0  0  0
   -2.2259    2.2898   -3.9475 H   0  0  0  0  0  0  0  0  0  0  0  0
   -1.8819    3.3188   -2.5697 H   0  0  0  0  0  0  0  0  0  0  0  0
    0.0656    1.3991   -3.9221 H   0  0  0  0  0  0  0  0  0  0  0  0
    0.1140    3.1506   -3.9956 H   0  0  0  0  0  0  0  0  0  0  0  0
    1.7773    2.2239   -2.3593 H   0  0  0  0  0  0  0  0  0  0  0  0
    0.6083    3.2723   -1.5679 H   0  0  0  0  0  0  0  0  0  0  0  0
    0.4402    0.2384   -1.6969 H   0  0  0  0  0  0  0  0  0  0  0  0
    1.9524    0.6439    0.1634 H   0  0  0  0  0  0  0  0  0  0  0  0
    1.0542    2.0774    0.6394 H   0  0  0  0  0  0  0  0  0  0  0  0
  1  2  2  3
  1  6  1  0
  1  7  1  0
  2  3  1  0
  2  8  1  0
  3  4  1  0
  3 10  1  0
  4  5  2  3
  4 11  1  0
  5 12  1  0
  5 13  1  0
  9 14  1  0
 14 15  1  0
 14 22  1  0
 14 23  1  0
 15 16  1  0
 15 24  1  0
 15 25  1  0
 16 17  1  0
 16 21  1  0
 16 26  1  0
 17 18  1  0
 17 27  1  0
 17 28  1  0
 18 19  1  0
 18 29  1  0
 18 30  1  0
 19 20  1  0
 19 31  1  0
 19 32  1  0
 20 21  1  0
 20 33  1  0
 20 34  1  0
 21 22  1  0
 21 35  1  0
 22 36  1  0
 22 37  1  0
M  RAD  1   3   2
M  END
>  <reaction>  (14) 
rxn_746

>  <mol_properties>  (14) 
{"1": {"label": "*0", "atom_type": "Cd"}, "2": {"label": "*1", "atom_type": "Cs"}, "8": {"label": "*2", "atom_type": "H0"}, "13": {"label": "*3", "atom_type": "Cs"}, "21": {"label": "*4", "atom_type": "Cs"}}

>  <type>  (14) 
unop_10

>  <geom_source>  (14) 
Heuristics

$$$$

     RDKit          3D

 37 37  0  0  0  0  0  0  0  0999 V2000
    0.5859   -3.5435   -2.1375 C   0  0  0  0  0  0  0  0  0  0  0  0
    0.5859   -3.5435   -0.8143 C   0  0  0  0  0  0  0  0  0  0  0  0
    0.5859   -2.3177    0.0437 C   0  0  0  0  0  3  0  0  0  0  0  0
    1.7956   -2.1633    0.9249 C   0  0  0  0  0  0  0  0  0  0  0  0
    2.9067   -2.8790    0.8525 C   0  0  0  0  0  0  0  0  0  0  0  0
    0.5777   -4.4662   -2.7041 H   0  0  0  0  0  0  0  0  0  0  0  0
    0.5922   -2.6181   -2.7035 H   0  0  0  0  0  0  0  0  0  0  0  0
    0.5884   -4.4923   -0.2838 H   0  0  0  0  0  0  0  0  0  0  0  0
    0.4658   -1.2457   -0.7068 H   0  0  0  0  0  0  0  0  0  0  0  0
   -0.3021   -2.3312    0.6865 H   0  0  0  0  0  0  0  0  0  0  0  0
    1.7229   -1.3783    1.6726 H   0  0  0  0  0  0  0  0  0  0  0  0
    3.0322   -3.6659    0.1176 H   0  0  0  0  0  0  0  0  0  0  0  0
    3.7349   -2.6947    1.5248 H   0  0  0  0  0  0  0  0  0  0  0  0
    0.3462   -0.1783   -1.4542 C   0  0  0  0  0  0  0  0  0  0  0  0
    1.0575    1.0342   -0.8033 C   0  0  0  0  0  0  0  0  0  0  0  0
   -0.0796    1.9054   -0.2789 C   0  0  0  0  0  0  0  0  0  0  0  0
    0.2225    2.9227    0.8072 C   0  0  0  0  0  0  0  0  0  0  0  0
   -1.0760    3.5934    1.2643 C   0  0  0  0  0  0  0  0  0  0  0  0
   -2.1379    2.5762    1.6892 C   0  0  0  0  0  0  0  0  0  0  0  0
   -2.4087    1.5301    0.6042 C   0  0  0  0  0  0  0  0  0  0  0  0
   -1.1048    0.8735    0.1869 C   0  0  0  0  0  0  0  0  0  0  0  0
   -1.1234   -0.1240   -0.9671 C   0  0  0  0  0  0  0  0  0  0  0  0
    0.3973   -0.1290   -2.5423 H   0  0  0  0  0  0  0  0  0  0  0  0
    1.6775    0.7070    0.0365 H   0  0  0  0  0  0  0  0  0  0  0  0
    1.7119    1.5615   -1.4987 H   0  0  0  0  0  0  0  0  0  0  0  0
   -0.5251    2.4400   -1.1305 H   0  0  0  0  0  0  0  0  0  0  0  0
    0.6934    2.4123    1.6559 H   0  0  0  0  0  0  0  0  0  0  0  0
    0.9337    3.6748    0.4557 H   0  0  0  0  0  0  0  0  0  0  0  0
   -0.8754    4.2850    2.0858 H   0  0  0  0  0  0  0  0  0  0  0  0
   -1.4706    4.1960    0.4386 H   0  0  0  0  0  0  0  0  0  0  0  0
   -1.7970    2.0633    2.5955 H   0  0  0  0  0  0  0  0  0  0  0  0
   -3.0624    3.0942    1.9541 H   0  0  0  0  0  0  0  0  0  0  0  0
   -3.1259    0.7878    0.9646 H   0  0  0  0  0  0  0  0  0  0  0  0
   -2.8631    2.0128   -0.2693 H   0  0  0  0  0  0  0  0  0  0  0  0
   -0.6793    0.3724    1.0686 H   0  0  0  0  0  0  0  0  0  0  0  0
   -1.5074   -1.1030   -0.6775 H   0  0  0  0  0  0  0  0  0  0  0  0
   -1.7744    0.2550   -1.7605 H   0  0  0  0  0  0  0  0  0  0  0  0
  1  2  2  3
  1  6  1  0
  1  7  1  0
  2  3  1  0
  2  8  1  0
  3  4  1  0
  3 10  1  0
  4  5  2  3
  4 11  1  0
  5 12  1  0
  5 13  1  0
  9 14  1  0
 14 15  1  0
 14 22  1  0
 14 23  1  0
 15 16  1  0
 15 24  1  0
 15 25  1  0
 16 17  1  0
 16 21  1  0
 16 26  1  0
 17 18  1  0
 17 27  1  0
 17 28  1  0
 18 19  1  0
 18 29  1  0
 18 30  1  0
 19 20  1  0
 19 31  1  0
 19 32  1  0
 20 21  1  0
 20 33  1  0
 20 34  1  0
 21 22  1  0
 21 35  1  0
 22 36  1  0
 22 37  1  0
M  RAD  1   3   2
M  END
>  <reaction>  (15) 
rxn_746

>  <mol_properties>  (15) 
{"1": {"label": "*0", "atom_type": "Cd"}, "2": {"label": "*1", "atom_type": "Cs"}, "8": {"label": "*2", "atom_type": "H0"}, "13": {"label": "*3", "atom_type": "Cs"}, "21": {"label": "*4", "atom_type": "Cs"}}

>  <type>  (15) 
unop_11

>  <geom_source>  (15) 
Heuristics

$$$$

     RDKit          3D

 37 37  0  0  0  0  0  0  0  0999 V2000
   -1.1245   -2.8846    0.1170 C   0  0  0  0  0  0  0  0  0  0  0  0
   -1.1245   -2.8846    1.4403 C   0  0  0  0  0  0  0  0  0  0  0  0
   -1.1245   -1.6588    2.2983 C   0  0  0  0  0  3  0  0  0  0  0  0
    0.0852   -1.5044    3.1795 C   0  0  0  0  0  0  0  0  0  0  0  0
    1.1964   -2.2201    3.1070 C   0  0  0  0  0  0  0  0  0  0  0  0
   -1.1327   -3.8074   -0.4495 H   0  0  0  0  0  0  0  0  0  0  0  0
   -1.1181   -1.9592   -0.4490 H   0  0  0  0  0  0  0  0  0  0  0  0
   -1.1219   -3.8334    1.9708 H   0  0  0  0  0  0  0  0  0  0  0  0
   -1.2446   -0.5868    1.5477 H   0  0  0  0  0  0  0  0  0  0  0  0
   -2.0125   -1.6723    2.9410 H   0  0  0  0  0  0  0  0  0  0  0  0
    0.0125   -0.7194    3.9272 H   0  0  0  0  0  0  0  0  0  0  0  0
    1.3219   -3.0070    2.3722 H   0  0  0  0  0  0  0  0  0  0  0  0
    2.0246   -2.0358    3.7794 H   0  0  0  0  0  0  0  0  0  0  0  0
   -1.3641    0.4806    0.8004 C   0  0  0  0  0  0  0  0  0  0  0  0
   -1.4625    0.0979   -0.6976 C   0  0  0  0  0  0  0  0  0  0  0  0
   -0.5171    1.0669   -1.4004 C   0  0  0  0  0  0  0  0  0  0  0  0
    0.0016    0.7071   -2.7814 C   0  0  0  0  0  0  0  0  0  0  0  0
    1.0211    1.7534   -3.2406 C   0  0  0  0  0  0  0  0  0  0  0  0
    2.1465    1.9548   -2.2230 C   0  0  0  0  0  0  0  0  0  0  0  0
    1.6150    2.2784   -0.8238 C   0  0  0  0  0  0  0  0  0  0  0  0
    0.6215    1.2140   -0.3929 C   0  0  0  0  0  0  0  0  0  0  0  0
   -0.1212    1.3965    0.9269 C   0  0  0  0  0  0  0  0  0  0  0  0
   -2.2637    0.9973    1.1361 H   0  0  0  0  0  0  0  0  0  0  0  0
   -1.1105   -0.9260   -0.8536 H   0  0  0  0  0  0  0  0  0  0  0  0
   -2.4835    0.1475   -1.0785 H   0  0  0  0  0  0  0  0  0  0  0  0
   -1.0147    2.0454   -1.4687 H   0  0  0  0  0  0  0  0  0  0  0  0
    0.4780   -0.2797   -2.7399 H   0  0  0  0  0  0  0  0  0  0  0  0
   -0.8166    0.6337   -3.5027 H   0  0  0  0  0  0  0  0  0  0  0  0
    1.4424    1.4715   -4.2083 H   0  0  0  0  0  0  0  0  0  0  0  0
    0.5031    2.7070   -3.3918 H   0  0  0  0  0  0  0  0  0  0  0  0
    2.7456    1.0389   -2.1689 H   0  0  0  0  0  0  0  0  0  0  0  0
    2.8180    2.7458   -2.5646 H   0  0  0  0  0  0  0  0  0  0  0  0
    2.4421    2.3559   -0.1132 H   0  0  0  0  0  0  0  0  0  0  0  0
    1.1136    3.2535   -0.8354 H   0  0  0  0  0  0  0  0  0  0  0  0
    1.1494    0.2497   -0.3609 H   0  0  0  0  0  0  0  0  0  0  0  0
    0.4916    1.1567    1.7969 H   0  0  0  0  0  0  0  0  0  0  0  0
   -0.4266    2.4422    1.0270 H   0  0  0  0  0  0  0  0  0  0  0  0
  1  2  2  3
  1  6  1  0
  1  7  1  0
  2  3  1  0
  2  8  1  0
  3  4  1  0
  3 10  1  0
  4  5  2  3
  4 11  1  0
  5 12  1  0
  5 13  1  0
  9 14  1  0
 14 15  1  0
 14 22  1  0
 14 23  1  0
 15 16  1  0
 15 24  1  0
 15 25  1  0
 16 17  1  0
 16 21  1  0
 16 26  1  0
 17 18  1  0
 17 27  1  0
 17 28  1  0
 18 19  1  0
 18 29  1  0
 18 30  1  0
 19 20  1  0
 19 31  1  0
 19 32  1  0
 20 21  1  0
 20 33  1  0
 20 34  1  0
 21 22  1  0
 21 35  1  0
 22 36  1  0
 22 37  1  0
M  RAD  1   3   2
M  END
>  <reaction>  (16) 
rxn_746

>  <mol_properties>  (16) 
{"1": {"label": "*0", "atom_type": "Cd"}, "2": {"label": "*1", "atom_type": "Cs"}, "8": {"label": "*2", "atom_type": "H0"}, "13": {"label": "*3", "atom_type": "Cs"}, "21": {"label": "*4", "atom_type": "Cs"}}

>  <type>  (16) 
unop_12

>  <geom_source>  (16) 
Heuristics

$$$$

     RDKit          3D

 37 36  0  0  0  0  0  0  0  0999 V2000
   -1.0395   -0.7102   -0.6688 C   0  0  0  0  0  0  0  0  0  0  0  0
   -1.6100   -0.3016    0.6749 C   0  0  0  0  0  0  0  0  0  0  0  0
    0.4349   -0.9534   -0.3830 C   0  0  0  0  0  3  0  0  0  0  0  0
   -0.5381    0.5987    1.2717 C   0  0  0  0  0  0  0  0  0  0  0  0
   -1.8284   -1.8983   -1.2549 C   0  0  0  0  0  0  0  0  0  0  0  0
   -3.0099    0.3214    0.5035 C   0  0  0  0  0  0  0  0  0  0  0  0
    0.7861    0.0441    0.7291 C   0  0  0  0  0  3  0  0  0  0  0  0
   -3.3406   -1.8092   -0.9179 C   0  0  0  0  0  0  0  0  0  0  0  0
   -3.8116   -0.3651   -0.6342 C   0  0  0  0  0  0  0  0  0  0  0  0
    2.7856    1.6416    0.0793 C   0  0  0  0  0  3  0  0  0  0  0  0
    4.0119    1.6844    0.9412 C   0  0  0  0  0  0  0  0  0  0  0  0
    2.9814    0.7349   -1.0947 C   0  0  0  0  0  0  0  0  0  0  0  0
    3.9774    2.2756    2.1363 C   0  0  0  0  0  0  0  0  0  0  0  0
    2.3034   -0.4092   -1.1895 C   0  0  0  0  0  0  0  0  0  0  0  0
   -1.1154    0.1507   -1.3752 H   0  0  0  0  0  0  0  0  0  0  0  0
   -1.6997   -1.2054    1.3239 H   0  0  0  0  0  0  0  0  0  0  0  0
    1.3555   -0.4656    1.5368 H   0  0  0  0  0  0  0  0  0  0  0  0
    1.4864    0.9830    0.2655 H   0  0  0  0  0  0  0  0  0  0  0  0
    1.0530   -0.7792   -1.2899 H   0  0  0  0  0  0  0  0  0  0  0  0
    0.6001   -1.9911   -0.0175 H   0  0  0  0  0  0  0  0  0  0  0  0
   -0.5655    0.5721    2.3826 H   0  0  0  0  0  0  0  0  0  0  0  0
   -0.6654    1.6477    0.9253 H   0  0  0  0  0  0  0  0  0  0  0  0
   -1.4342   -2.8611   -0.8629 H   0  0  0  0  0  0  0  0  0  0  0  0
   -1.6929   -1.9060   -2.3582 H   0  0  0  0  0  0  0  0  0  0  0  0
   -3.5640    0.2212    1.4621 H   0  0  0  0  0  0  0  0  0  0  0  0
   -2.9298    1.4066    0.2755 H   0  0  0  0  0  0  0  0  0  0  0  0
   -3.5509   -2.4292   -0.0187 H   0  0  0  0  0  0  0  0  0  0  0  0
   -3.9328   -2.2333   -1.7572 H   0  0  0  0  0  0  0  0  0  0  0  0
   -3.7011    0.2291   -1.5679 H   0  0  0  0  0  0  0  0  0  0  0  0
   -4.8920   -0.3728   -0.3736 H   0  0  0  0  0  0  0  0  0  0  0  0
    2.5258    2.6633   -0.2703 H   0  0  0  0  0  0  0  0  0  0  0  0
    4.9421    1.2384    0.5983 H   0  0  0  0  0  0  0  0  0  0  0  0
    3.6938    1.0053   -1.8687 H   0  0  0  0  0  0  0  0  0  0  0  0
    3.0644    2.7322    2.5070 H   0  0  0  0  0  0  0  0  0  0  0  0
    4.8692    2.3051    2.7538 H   0  0  0  0  0  0  0  0  0  0  0  0
    1.5924   -0.7014   -0.4223 H   0  0  0  0  0  0  0  0  0  0  0  0
    2.4584   -1.0634   -2.0413 H   0  0  0  0  0  0  0  0  0  0  0  0
  1  3  1  0
  1  5  1  0
  1  2  1  0
  1 15  1  0
  2  4  1  0
  2  6  1  0
  2 16  1  0
  3 19  1  0
  3 20  1  0
  4  7  1  0
  4 21  1  0
  4 22  1  0
  5  8  1  0
  5 23  1  0
  5 24  1  0
  6  9  1  0
  6 25  1  0
  6 26  1  0
  7 17  1  0
  7 18  1  0
  8  9  1  0
  8 27  1  0
  8 28  1  0
  9 29  1  0
  9 30  1  0
 10 11  1  0
 10 12  1  0
 10 31  1  0
 11 13  2  3
 11 32  1  0
 12 14  2  3
 12 33  1  0
 13 34  1  0
 13 35  1  0
 14 36  1  0
 14 37  1  0
M  CHG  2   3   1   7  -1
M  RAD  1  10   2
M  END
>  <reaction>  (17) 
rxn_746

>  <mol_properties>  (17) 
{"1": {"label": "*0", "atom_type": "Cd"}, "2": {"label": "*1", "atom_type": "Cs"}, "8": {"label": "*2", "atom_type": "H0"}, "13": {"label": "*3", "atom_type": "Cs"}, "21": {"label": "*4", "atom_type": "Cs"}}

>  <type>  (17) 
unop_13

>  <geom_source>  (17) 
AutoTST

$$$$

     RDKit          3D

 37 37  0  0  0  0  0  0  0  0999 V2000
   -0.4128   -2.9509    0.4352 C   0  0  0  0  0  0  0  0  0  0  0  0
   -0.4128   -2.9509    1.7585 C   0  0  0  0  0  0  0  0  0  0  0  0
   -0.4128   -1.7251    2.6165 C   0  0  0  0  0  3  0  0  0  0  0  0
    0.7969   -1.5707    3.4977 C   0  0  0  0  0  0  0  0  0  0  0  0
    1.9081   -2.2864    3.4252 C   0  0  0  0  0  0  0  0  0  0  0  0
   -0.4210   -3.8736   -0.1313 H   0  0  0  0  0  0  0  0  0  0  0  0
   -0.4064   -2.0255   -0.1308 H   0  0  0  0  0  0  0  0  0  0  0  0
   -0.4102   -3.8996    2.2890 H   0  0  0  0  0  0  0  0  0  0  0  0
   -0.5329   -0.6531    1.8659 H   0  0  0  0  0  0  0  0  0  0  0  0
   -1.3008   -1.7386    3.2592 H   0  0  0  0  0  0  0  0  0  0  0  0
    0.7242   -0.7857    4.2454 H   0  0  0  0  0  0  0  0  0  0  0  0
    2.0335   -3.0733    2.6904 H   0  0  0  0  0  0  0  0  0  0  0  0
    2.7363   -2.1021    4.0976 H   0  0  0  0  0  0  0  0  0  0  0  0
   -0.6524    0.4143    1.1186 C   0  0  0  0  0  0  0  0  0  0  0  0
   -1.4647    0.1029   -0.1633 C   0  0  0  0  0  0  0  0  0  0  0  0
   -0.9575    1.1116   -1.1891 C   0  0  0  0  0  0  0  0  0  0  0  0
   -1.1721    0.8222   -2.6641 C   0  0  0  0  0  0  0  0  0  0  0  0
   -0.4817    1.8970   -3.5087 C   0  0  0  0  0  0  0  0  0  0  0  0
    0.9974    2.0581   -3.1493 C   0  0  0  0  0  0  0  0  0  0  0  0
    1.2088    2.3104   -1.6538 C   0  0  0  0  0  0  0  0  0  0  0  0
    0.5273    1.2191   -0.8475 C   0  0  0  0  0  0  0  0  0  0  0  0
    0.5132    1.3326    0.6737 C   0  0  0  0  0  0  0  0  0  0  0  0
   -1.2715    0.9075    1.8685 H   0  0  0  0  0  0  0  0  0  0  0  0
   -1.2476   -0.9097   -0.5159 H   0  0  0  0  0  0  0  0  0  0  0  0
   -2.5421    0.1629   -0.0040 H   0  0  0  0  0  0  0  0  0  0  0  0
   -1.4107    2.0884   -0.9652 H   0  0  0  0  0  0  0  0  0  0  0  0
   -0.7504   -0.1618   -2.9018 H   0  0  0  0  0  0  0  0  0  0  0  0
   -2.2373    0.7771   -2.9059 H   0  0  0  0  0  0  0  0  0  0  0  0
   -0.5818    1.6649   -4.5714 H   0  0  0  0  0  0  0  0  0  0  0  0
   -0.9930    2.8528   -3.3486 H   0  0  0  0  0  0  0  0  0  0  0  0
    1.5337    1.1453   -3.4316 H   0  0  0  0  0  0  0  0  0  0  0  0
    1.4349    2.8697   -3.7352 H   0  0  0  0  0  0  0  0  0  0  0  0
    2.2768    2.3602   -1.4256 H   0  0  0  0  0  0  0  0  0  0  0  0
    0.7795    3.2811   -1.3785 H   0  0  0  0  0  0  0  0  0  0  0  0
    0.9899    0.2584   -1.1171 H   0  0  0  0  0  0  0  0  0  0  0  0
    1.4646    1.0562    1.1301 H   0  0  0  0  0  0  0  0  0  0  0  0
    0.3105    2.3699    0.9558 H   0  0  0  0  0  0  0  0  0  0  0  0
  1  2  2  3
  1  6  1  0
  1  7  1  0
  2  3  1  0
  2  8  1  0
  3  4  1  0
  3 10  1  0
  4  5  2  3
  4 11  1  0
  5 12  1  0
  5 13  1  0
  9 14  1  0
 14 15  1  0
 14 22  1  0
 14 23  1  0
 15 16  1  0
 15 24  1  0
 15 25  1  0
 16 17  1  0
 16 21  1  0
 16 26  1  0
 17 18  1  0
 17 27  1  0
 17 28  1  0
 18 19  1  0
 18 29  1  0
 18 30  1  0
 19 20  1  0
 19 31  1  0
 19 32  1  0
 20 21  1  0
 20 33  1  0
 20 34  1  0
 21 22  1  0
 21 35  1  0
 22 36  1  0
 22 37  1  0
M  RAD  1   3   2
M  END
>  <reaction>  (18) 
rxn_746

>  <mol_properties>  (18) 
{"1": {"label": "*0", "atom_type": "Cd"}, "2": {"label": "*1", "atom_type": "Cs"}, "8": {"label": "*2", "atom_type": "H0"}, "13": {"label": "*3", "atom_type": "Cs"}, "21": {"label": "*4", "atom_type": "Cs"}}

>  <type>  (18) 
unop_14

>  <geom_source>  (18) 
gaussian_log

$$$$
