
     RDKit          3D

  7  6  0  0  0  0  0  0  0  0999 V2000
    1.6964   -0.0938    0.0583 C   0  0  0  0  0  0  0  0  0  0  0  0
    0.5019   -0.0278    0.0173 C   0  0  0  0  0  0  0  0  0  0  0  0
   -0.9505    0.0525   -0.0327 C   0  0  0  0  0  0  0  0  0  0  0  0
    2.7574   -0.1524    0.0947 H   0  0  0  0  0  0  0  0  0  0  0  0
   -1.2692    0.9972   -0.4754 H   0  0  0  0  0  0  0  0  0  0  0  0
   -1.3749   -0.0147    0.9700 H   0  0  0  0  0  0  0  0  0  0  0  0
   -1.3610   -0.7611   -0.6323 H   0  0  0  0  0  0  0  0  0  0  0  0
  1  2  3  0
  1  4  1  0
  2  3  1  0
  3  5  1  0
  3  6  1  0
  3  7  1  0
M  END
>  <reaction>  (1) 
rxn_1220

>  <mol_properties>  (1) 
{"2": {"label": "donator", "atom_type": "Cs"}, "4": {"label": "d_hydrogen", "atom_type": "H0"}}

>  <type>  (1) 
r1h

$$$$

     RDKit          3D

 14 13  0  0  0  0  0  0  0  0999 V2000
    1.0767   -1.6838    1.2931 C   0  0  0  0  0  0  0  0  0  0  0  0
    1.0020   -0.3665    0.9163 C   0  0  0  0  0  0  0  0  0  0  0  0
    1.3965    0.7260    1.6806 C   0  0  0  0  0  3  0  0  0  0  0  0
    1.2666    2.1197    1.1619 C   0  0  0  0  0  0  0  0  0  0  0  0
    1.9670    0.5479    3.0536 C   0  0  0  0  0  0  0  0  0  0  0  0
    0.7448   -2.4705    0.6300 H   0  0  0  0  0  0  0  0  0  0  0  0
    1.4663   -1.9826    2.2578 H   0  0  0  0  0  0  0  0  0  0  0  0
    0.5980   -0.1511   -0.0695 H   0  0  0  0  0  0  0  0  0  0  0  0
    0.6296    2.7241    1.8172 H   0  0  0  0  0  0  0  0  0  0  0  0
    2.2410    2.6200    1.1341 H   0  0  0  0  0  0  0  0  0  0  0  0
    0.8426    2.1448    0.1579 H   0  0  0  0  0  0  0  0  0  0  0  0
    2.8745   -0.0634    3.0328 H   0  0  0  0  0  0  0  0  0  0  0  0
    1.2599    0.0408    3.7173 H   0  0  0  0  0  0  0  0  0  0  0  0
    2.2205    1.5071    3.5054 H   0  0  0  0  0  0  0  0  0  0  0  0
  1  2  2  3
  1  6  1  0
  1  7  1  0
  2  3  1  0
  2  8  1  0
  3  4  1  0
  3  5  1  0
  4  9  1  0
  4 10  1  0
  4 11  1  0
  5 12  1  0
  5 13  1  0
  5 14  1  0
M  RAD  1   3   2
M  END
>  <reaction>  (2) 
rxn_1220

>  <mol_properties>  (2) 
{"2": {"label": "acceptor", "atom_type": "Cs"}}

>  <type>  (2) 
r2

$$$$

     RDKit          3D

 15 14  0  0  0  0  0  0  0  0999 V2000
    2.1256    0.4849   -0.6284 C   0  0  0  0  0  0  0  0  0  0  0  0
    1.1128    0.2141    0.1794 C   0  0  0  0  0  0  0  0  0  0  0  0
   -0.3017   -0.0425   -0.2513 C   0  0  0  0  0  0  0  0  0  0  0  0
   -1.2427    1.0075    0.3423 C   0  0  0  0  0  0  0  0  0  0  0  0
   -0.7381   -1.4526    0.1504 C   0  0  0  0  0  0  0  0  0  0  0  0
    3.1243    0.6602   -0.2486 H   0  0  0  0  0  0  0  0  0  0  0  0
    1.9908    0.5411   -1.7036 H   0  0  0  0  0  0  0  0  0  0  0  0
    1.2888    0.1665    1.2533 H   0  0  0  0  0  0  0  0  0  0  0  0
   -0.3426    0.0343   -1.3424 H   0  0  0  0  0  0  0  0  0  0  0  0
   -0.9570    2.0133    0.0315 H   0  0  0  0  0  0  0  0  0  0  0  0
   -1.2189    0.9728    1.4350 H   0  0  0  0  0  0  0  0  0  0  0  0
   -2.2723    0.8287    0.0254 H   0  0  0  0  0  0  0  0  0  0  0  0
   -0.6964   -1.5744    1.2363 H   0  0  0  0  0  0  0  0  0  0  0  0
   -0.0911   -2.2079   -0.2978 H   0  0  0  0  0  0  0  0  0  0  0  0
   -1.7646   -1.6461   -0.1677 H   0  0  0  0  0  0  0  0  0  0  0  0
  1  2  2  3
  1  6  1  0
  1  7  1  0
  2  3  1  0
  2  8  1  0
  3  4  1  0
  3  5  1  0
  3  9  1  0
  4 10  1  0
  4 11  1  0
  4 12  1  0
  5 13  1  0
  5 14  1  0
  5 15  1  0
M  END
>  <reaction>  (3) 
rxn_1220

>  <mol_properties>  (3) 
{"0": {"label": "a_hydrogen", "atom_type": "H0"}, "3": {"label": "acceptor", "atom_type": "Cs"}}

>  <type>  (3) 
r2h

$$$$

     RDKit          3D

 21 19  0  0  0  0  0  0  0  0999 V2000
    0.9412   -3.2819    0.4706 C   0  0  0  0  0  0  0  0  0  0  0  0
    0.3763   -2.4790   -0.2283 C   0  0  0  0  0  0  0  0  0  0  0  0
   -0.2652   -1.4792   -0.9939 C   0  0  0  0  0  3  0  0  0  0  0  0
    1.4319   -4.0114    1.0684 H   0  0  0  0  0  0  0  0  0  0  0  0
   -0.0801   -0.2598   -0.3124 H   0  0  0  0  0  0  0  0  0  0  0  0
   -1.3502   -1.5260   -1.0237 H   0  0  0  0  0  0  0  0  0  0  0  0
    0.1894   -1.2540   -1.9545 H   0  0  0  0  0  0  0  0  0  0  0  0
   -1.6557    2.4657   -0.0152 C   0  0  0  0  0  0  0  0  0  0  0  0
   -0.4918    1.8813   -0.2950 C   0  0  0  0  0  0  0  0  0  0  0  0
    0.1351    0.7714    0.4381 C   0  0  0  0  0  0  0  0  0  0  0  0
   -0.5030    0.3556    1.7420 C   0  0  0  0  0  0  0  0  0  0  0  0
    1.6479    0.8132    0.4791 C   0  0  0  0  0  0  0  0  0  0  0  0
   -2.0419    3.2626   -0.6376 H   0  0  0  0  0  0  0  0  0  0  0  0
   -2.2537    2.1823    0.8423 H   0  0  0  0  0  0  0  0  0  0  0  0
    0.0598    2.2273   -1.1664 H   0  0  0  0  0  0  0  0  0  0  0  0
   -0.0327   -0.5544    2.1176 H   0  0  0  0  0  0  0  0  0  0  0  0
   -0.3864    1.1372    2.4992 H   0  0  0  0  0  0  0  0  0  0  0  0
   -1.5695    0.1565    1.6256 H   0  0  0  0  0  0  0  0  0  0  0  0
    1.9950    1.5645    1.1955 H   0  0  0  0  0  0  0  0  0  0  0  0
    2.0659    1.0646   -0.4976 H   0  0  0  0  0  0  0  0  0  0  0  0
    2.0511   -0.1544    0.7846 H   0  0  0  0  0  0  0  0  0  0  0  0
  1  2  3  0
  1  4  1  0
  2  3  1  0
  3  6  1  0
  3  7  1  0
  5 10  1  0
  8  9  2  3
  8 13  1  0
  8 14  1  0
  9 10  1  0
  9 15  1  0
 10 11  1  0
 10 12  1  0
 11 16  1  0
 11 17  1  0
 11 18  1  0
 12 19  1  0
 12 20  1  0
 12 21  1  0
M  RAD  1   3   2
M  END
>  <reaction>  (4) 
rxn_1220

>  <mol_properties>  (4) 
{"1": {"label": "*4", "atom_type": "Ct"}, "2": {"label": "*3", "atom_type": "Cs"}, "4": {"label": "*2", "atom_type": "H0"}, "8": {"label": "*0", "atom_type": "Cd"}, "9": {"label": "*1", "atom_type": "Cs"}}

>  <type>  (4) 
ts

$$$$

     RDKit          3D

 21 19  0  0  0  0  0  0  0  0999 V2000
    0.0876   -1.6424   -2.9837 C   0  0  0  0  0  0  0  0  0  0  0  0
    0.0876   -1.6424   -1.7866 C   0  0  0  0  0  0  0  0  0  0  0  0
    0.0876   -1.6424   -0.3312 C   0  0  0  0  0  0  0  0  0  0  0  0
    0.0876   -1.6424   -4.0470 H   0  0  0  0  0  0  0  0  0  0  0  0
    0.1991   -0.4229    0.1312 H   0  0  0  0  0  0  0  0  0  0  0  0
    0.9213   -2.2310    0.0542 H   0  0  0  0  0  0  0  0  0  0  0  0
   -0.8390   -2.0701    0.0542 H   0  0  0  0  0  0  0  0  0  0  0  0
   -2.1377    0.7057    1.1498 C   0  0  0  0  0  0  0  0  0  0  0  0
   -0.9033    1.0947    1.4267 C   0  0  0  0  0  0  0  0  0  0  0  0
    0.3109    0.8008    0.5952 C   0  0  0  0  0  3  0  0  0  0  0  0
    1.3219   -0.0241    1.3938 C   0  0  0  0  0  0  0  0  0  0  0  0
    0.9448    2.0992    0.0926 C   0  0  0  0  0  0  0  0  0  0  0  0
   -2.9703    0.9540    1.7961 H   0  0  0  0  0  0  0  0  0  0  0  0
   -2.3601    0.1224    0.2623 H   0  0  0  0  0  0  0  0  0  0  0  0
   -0.7208    1.6792    2.3276 H   0  0  0  0  0  0  0  0  0  0  0  0
    2.2041   -0.2464    0.7898 H   0  0  0  0  0  0  0  0  0  0  0  0
    1.6534    0.5248    2.2796 H   0  0  0  0  0  0  0  0  0  0  0  0
    0.8861   -0.9672    1.7262 H   0  0  0  0  0  0  0  0  0  0  0  0
    1.2629    2.7231    0.9323 H   0  0  0  0  0  0  0  0  0  0  0  0
    0.2390    2.6760   -0.5066 H   0  0  0  0  0  0  0  0  0  0  0  0
    1.8247    1.8895   -0.5192 H   0  0  0  0  0  0  0  0  0  0  0  0
  1  2  3  0
  1  4  1  0
  2  3  1  0
  3  5  1  0
  3  6  1  0
  3  7  1  0
  8  9  2  3
  8 13  1  0
  8 14  1  0
  9 10  1  0
  9 15  1  0
 10 11  1  0
 10 12  1  0
 11 16  1  0
 11 17  1  0
 11 18  1  0
 12 19  1  0
 12 20  1  0
 12 21  1  0
M  RAD  1  10   2
M  END
>  <reaction>  (5) 
rxn_1220

>  <mol_properties>  (5) 
{"1": {"label": "*4", "atom_type": "Ct"}, "2": {"label": "*3", "atom_type": "Cs"}, "4": {"label": "*2", "atom_type": "H0"}, "8": {"label": "*0", "atom_type": "Cd"}, "9": {"label": "*1", "atom_type": "Cs"}}

>  <type>  (5) 
unop_1

>  <geom_source>  (5) 
Heuristics

$$$$

     RDKit          3D

 21 19  0  0  0  0  0  0  0  0999 V2000
   -0.0010   -1.7933   -2.5913 C   0  0  0  0  0  0  0  0  0  0  0  0
   -0.0010   -1.7933   -1.3943 C   0  0  0  0  0  0  0  0  0  0  0  0
   -0.0010   -1.7933    0.0612 C   0  0  0  0  0  0  0  0  0  0  0  0
   -0.0010   -1.7933   -3.6546 H   0  0  0  0  0  0  0  0  0  0  0  0
    0.1104   -0.5737    0.5236 H   0  0  0  0  0  0  0  0  0  0  0  0
    0.8327   -2.3818    0.4465 H   0  0  0  0  0  0  0  0  0  0  0  0
   -0.9276   -2.2210    0.4465 H   0  0  0  0  0  0  0  0  0  0  0  0
   -0.6680    1.2971   -1.2709 C   0  0  0  0  0  0  0  0  0  0  0  0
   -0.4091    1.5822   -0.0047 C   0  0  0  0  0  0  0  0  0  0  0  0
    0.2222    0.6499    0.9876 C   0  0  0  0  0  3  0  0  0  0  0  0
   -0.7327    0.3771    2.1511 C   0  0  0  0  0  0  0  0  0  0  0  0
    1.5472    1.2224    1.4947 C   0  0  0  0  0  0  0  0  0  0  0  0
   -1.1268    2.0199   -1.9338 H   0  0  0  0  0  0  0  0  0  0  0  0
   -0.4289    0.3258   -1.6913 H   0  0  0  0  0  0  0  0  0  0  0  0
   -0.6642    2.5688    0.3798 H   0  0  0  0  0  0  0  0  0  0  0  0
   -0.2799   -0.3068    2.8720 H   0  0  0  0  0  0  0  0  0  0  0  0
   -0.9745    1.3047    2.6772 H   0  0  0  0  0  0  0  0  0  0  0  0
   -1.6667   -0.0632    1.7993 H   0  0  0  0  0  0  0  0  0  0  0  0
    1.3861    2.1800    1.9975 H   0  0  0  0  0  0  0  0  0  0  0  0
    2.2453    1.3873    0.6729 H   0  0  0  0  0  0  0  0  0  0  0  0
    2.0136    0.5436    2.2117 H   0  0  0  0  0  0  0  0  0  0  0  0
  1  2  3  0
  1  4  1  0
  2  3  1  0
  3  5  1  0
  3  6  1  0
  3  7  1  0
  8  9  2  3
  8 13  1  0
  8 14  1  0
  9 10  1  0
  9 15  1  0
 10 11  1  0
 10 12  1  0
 11 16  1  0
 11 17  1  0
 11 18  1  0
 12 19  1  0
 12 20  1  0
 12 21  1  0
M  RAD  1  10   2
M  END
>  <reaction>  (6) 
rxn_1220

>  <mol_properties>  (6) 
{"1": {"label": "*4", "atom_type": "Ct"}, "2": {"label": "*3", "atom_type": "Cs"}, "4": {"label": "*2", "atom_type": "H0"}, "8": {"label": "*0", "atom_type": "Cd"}, "9": {"label": "*1", "atom_type": "Cs"}}

>  <type>  (6) 
unop_2

>  <geom_source>  (6) 
Heuristics

$$$$

     RDKit          3D

 21 19  0  0  0  0  0  0  0  0999 V2000
   -0.0235   -1.6070   -3.0677 C   0  0  0  0  0  0  0  0  0  0  0  0
   -0.0235   -1.6070   -1.8707 C   0  0  0  0  0  0  0  0  0  0  0  0
   -0.0235   -1.6070   -0.4153 C   0  0  0  0  0  0  0  0  0  0  0  0
   -0.0235   -1.6070   -4.1310 H   0  0  0  0  0  0  0  0  0  0  0  0
    0.0879   -0.3874    0.0471 H   0  0  0  0  0  0  0  0  0  0  0  0
    0.8102   -2.1955   -0.0299 H   0  0  0  0  0  0  0  0  0  0  0  0
   -0.9501   -2.0347   -0.0299 H   0  0  0  0  0  0  0  0  0  0  0  0
   -1.5230    0.1284    2.1972 C   0  0  0  0  0  0  0  0  0  0  0  0
   -0.5111    0.8989    1.8313 C   0  0  0  0  0  0  0  0  0  0  0  0
    0.1998    0.8362    0.5111 C   0  0  0  0  0  3  0  0  0  0  0  0
    1.6750    0.4843    0.7116 C   0  0  0  0  0  0  0  0  0  0  0  0
    0.0544    2.1607   -0.2405 C   0  0  0  0  0  0  0  0  0  0  0  0
   -1.9908    0.2279    3.1687 H   0  0  0  0  0  0  0  0  0  0  0  0
   -1.9213   -0.6329    1.5346 H   0  0  0  0  0  0  0  0  0  0  0  0
   -0.1397    1.6519    2.5252 H   0  0  0  0  0  0  0  0  0  0  0  0
    2.1944    0.4305   -0.2475 H   0  0  0  0  0  0  0  0  0  0  0  0
    2.1736    1.2444    1.3192 H   0  0  0  0  0  0  0  0  0  0  0  0
    1.7857   -0.4761    1.2170 H   0  0  0  0  0  0  0  0  0  0  0  0
    0.4956    2.9802    0.3334 H   0  0  0  0  0  0  0  0  0  0  0  0
   -0.9952    2.4005   -0.4168 H   0  0  0  0  0  0  0  0  0  0  0  0
    0.5641    2.1169   -1.2053 H   0  0  0  0  0  0  0  0  0  0  0  0
  1  2  3  0
  1  4  1  0
  2  3  1  0
  3  5  1  0
  3  6  1  0
  3  7  1  0
  8  9  2  3
  8 13  1  0
  8 14  1  0
  9 10  1  0
  9 15  1  0
 10 11  1  0
 10 12  1  0
 11 16  1  0
 11 17  1  0
 11 18  1  0
 12 19  1  0
 12 20  1  0
 12 21  1  0
M  RAD  1  10   2
M  END
>  <reaction>  (7) 
rxn_1220

>  <mol_properties>  (7) 
{"1": {"label": "*4", "atom_type": "Ct"}, "2": {"label": "*3", "atom_type": "Cs"}, "4": {"label": "*2", "atom_type": "H0"}, "8": {"label": "*0", "atom_type": "Cd"}, "9": {"label": "*1", "atom_type": "Cs"}}

>  <type>  (7) 
unop_3

>  <geom_source>  (7) 
Heuristics

$$$$

     RDKit          3D

 21 19  0  0  0  0  0  0  0  0999 V2000
   -0.4270   -1.7051   -2.7051 C   0  0  0  0  0  0  0  0  0  0  0  0
   -0.4270   -1.7051   -1.5081 C   0  0  0  0  0  0  0  0  0  0  0  0
   -0.4270   -1.7051   -0.0527 C   0  0  0  0  0  0  0  0  0  0  0  0
   -0.4270   -1.7051   -3.7684 H   0  0  0  0  0  0  0  0  0  0  0  0
   -0.3155   -0.4856    0.4098 H   0  0  0  0  0  0  0  0  0  0  0  0
    0.4067   -2.2937    0.3327 H   0  0  0  0  0  0  0  0  0  0  0  0
   -1.3536   -2.1328    0.3327 H   0  0  0  0  0  0  0  0  0  0  0  0
    1.6613    1.0151   -0.7867 C   0  0  0  0  0  0  0  0  0  0  0  0
    1.0896    1.3091    0.3702 C   0  0  0  0  0  0  0  0  0  0  0  0
   -0.2037    0.7381    0.8737 C   0  0  0  0  0  3  0  0  0  0  0  0
   -1.2388    1.8467    1.0731 C   0  0  0  0  0  0  0  0  0  0  0  0
    0.0211   -0.0358    2.1741 C   0  0  0  0  0  0  0  0  0  0  0  0
    2.5985    1.4660   -1.0882 H   0  0  0  0  0  0  0  0  0  0  0  0
    1.2099    0.3096   -1.4764 H   0  0  0  0  0  0  0  0  0  0  0  0
    1.5743    2.0225    1.0354 H   0  0  0  0  0  0  0  0  0  0  0  0
   -2.1840    1.4345    1.4326 H   0  0  0  0  0  0  0  0  0  0  0  0
   -0.8887    2.5728    1.8119 H   0  0  0  0  0  0  0  0  0  0  0  0
   -1.4289    2.3805    0.1409 H   0  0  0  0  0  0  0  0  0  0  0  0
    0.4158    0.6237    2.9519 H   0  0  0  0  0  0  0  0  0  0  0  0
    0.7330   -0.8497    2.0301 H   0  0  0  0  0  0  0  0  0  0  0  0
   -0.9165   -0.4593    2.5402 H   0  0  0  0  0  0  0  0  0  0  0  0
  1  2  3  0
  1  4  1  0
  2  3  1  0
  3  5  1  0
  3  6  1  0
  3  7  1  0
  8  9  2  3
  8 13  1  0
  8 14  1  0
  9 10  1  0
  9 15  1  0
 10 11  1  0
 10 12  1  0
 11 16  1  0
 11 17  1  0
 11 18  1  0
 12 19  1  0
 12 20  1  0
 12 21  1  0
M  RAD  1  10   2
M  END
>  <reaction>  (8) 
rxn_1220

>  <mol_properties>  (8) 
{"1": {"label": "*4", "atom_type": "Ct"}, "2": {"label": "*3", "atom_type": "Cs"}, "4": {"label": "*2", "atom_type": "H0"}, "8": {"label": "*0", "atom_type": "Cd"}, "9": {"label": "*1", "atom_type": "Cs"}}

>  <type>  (8) 
unop_4

>  <geom_source>  (8) 
Heuristics

$$$$

     RDKit          3D

 21 19  0  0  0  0  0  0  0  0999 V2000
   -0.1456   -1.5933   -3.0920 C   0  0  0  0  0  0  0  0  0  0  0  0
   -0.1456   -1.5933   -1.8950 C   0  0  0  0  0  0  0  0  0  0  0  0
   -0.1456   -1.5933   -0.4396 C   0  0  0  0  0  0  0  0  0  0  0  0
   -0.1456   -1.5933   -4.1553 H   0  0  0  0  0  0  0  0  0  0  0  0
   -0.0342   -0.3737    0.0229 H   0  0  0  0  0  0  0  0  0  0  0  0
    0.6881   -2.1819   -0.0542 H   0  0  0  0  0  0  0  0  0  0  0  0
   -1.0722   -2.0210   -0.0542 H   0  0  0  0  0  0  0  0  0  0  0  0
   -0.0299   -0.3268    2.7040 C   0  0  0  0  0  0  0  0  0  0  0  0
    0.0713    0.7804    1.9860 C   0  0  0  0  0  0  0  0  0  0  0  0
    0.0777    0.8499    0.4868 C   0  0  0  0  0  3  0  0  0  0  0  0
    1.3961    1.4393   -0.0179 C   0  0  0  0  0  0  0  0  0  0  0  0
   -1.1121    1.6685   -0.0179 C   0  0  0  0  0  0  0  0  0  0  0  0
   -0.0278   -0.3042    3.7866 H   0  0  0  0  0  0  0  0  0  0  0  0
   -0.1188   -1.2997    2.2320 H   0  0  0  0  0  0  0  0  0  0  0  0
    0.1589    1.7382    2.4972 H   0  0  0  0  0  0  0  0  0  0  0  0
    1.4078    1.4849   -1.1088 H   0  0  0  0  0  0  0  0  0  0  0  0
    1.5338    2.4560    0.3604 H   0  0  0  0  0  0  0  0  0  0  0  0
    2.2467    0.8403    0.3104 H   0  0  0  0  0  0  0  0  0  0  0  0
   -1.0632    2.6933    0.3604 H   0  0  0  0  0  0  0  0  0  0  0  0
   -2.0571    1.2336    0.3104 H   0  0  0  0  0  0  0  0  0  0  0  0
   -1.1153    1.7155   -1.1088 H   0  0  0  0  0  0  0  0  0  0  0  0
  1  2  3  0
  1  4  1  0
  2  3  1  0
  3  5  1  0
  3  6  1  0
  3  7  1  0
  8  9  2  3
  8 13  1  0
  8 14  1  0
  9 10  1  0
  9 15  1  0
 10 11  1  0
 10 12  1  0
 11 16  1  0
 11 17  1  0
 11 18  1  0
 12 19  1  0
 12 20  1  0
 12 21  1  0
M  RAD  1  10   2
M  END
>  <reaction>  (9) 
rxn_1220

>  <mol_properties>  (9) 
{"1": {"label": "*4", "atom_type": "Ct"}, "2": {"label": "*3", "atom_type": "Cs"}, "4": {"label": "*2", "atom_type": "H0"}, "8": {"label": "*0", "atom_type": "Cd"}, "9": {"label": "*1", "atom_type": "Cs"}}

>  <type>  (9) 
unop_5

>  <geom_source>  (9) 
Heuristics

$$$$

     RDKit          3D

 21 19  0  0  0  0  0  0  0  0999 V2000
   -0.4464   -1.6439   -2.8506 C   0  0  0  0  0  0  0  0  0  0  0  0
   -0.4464   -1.6439   -1.6536 C   0  0  0  0  0  0  0  0  0  0  0  0
   -0.4464   -1.6439   -0.1981 C   0  0  0  0  0  0  0  0  0  0  0  0
   -0.4464   -1.6439   -3.9139 H   0  0  0  0  0  0  0  0  0  0  0  0
   -0.3349   -0.4243    0.2643 H   0  0  0  0  0  0  0  0  0  0  0  0
    0.3873   -2.2325    0.1872 H   0  0  0  0  0  0  0  0  0  0  0  0
   -1.3730   -2.0716    0.1872 H   0  0  0  0  0  0  0  0  0  0  0  0
    2.1988    0.7252    0.0640 C   0  0  0  0  0  0  0  0  0  0  0  0
    1.2376    1.1019    0.8922 C   0  0  0  0  0  0  0  0  0  0  0  0
   -0.2231    0.7993    0.7282 C   0  0  0  0  0  3  0  0  0  0  0  0
   -1.0277    2.0933    0.5925 C   0  0  0  0  0  0  0  0  0  0  0  0
   -0.7335   -0.0372    1.9030 C   0  0  0  0  0  0  0  0  0  0  0  0
    3.2359    0.9791    0.2439 H   0  0  0  0  0  0  0  0  0  0  0  0
    1.9810    0.1467   -0.8277 H   0  0  0  0  0  0  0  0  0  0  0  0
    1.4969    1.6819    1.7770 H   0  0  0  0  0  0  0  0  0  0  0  0
   -2.0906    1.8774    0.4656 H   0  0  0  0  0  0  0  0  0  0  0  0
   -0.9171    2.7118    1.4874 H   0  0  0  0  0  0  0  0  0  0  0  0
   -0.6910    2.6785   -0.2644 H   0  0  0  0  0  0  0  0  0  0  0  0
   -0.6125    0.5058    2.8443 H   0  0  0  0  0  0  0  0  0  0  0  0
   -0.1861   -0.9774    1.9843 H   0  0  0  0  0  0  0  0  0  0  0  0
   -1.7946   -0.2659    1.7840 H   0  0  0  0  0  0  0  0  0  0  0  0
  1  2  3  0
  1  4  1  0
  2  3  1  0
  3  5  1  0
  3  6  1  0
  3  7  1  0
  8  9  2  3
  8 13  1  0
  8 14  1  0
  9 10  1  0
  9 15  1  0
 10 11  1  0
 10 12  1  0
 11 16  1  0
 11 17  1  0
 11 18  1  0
 12 19  1  0
 12 20  1  0
 12 21  1  0
M  RAD  1  10   2
M  END
>  <reaction>  (10) 
rxn_1220

>  <mol_properties>  (10) 
{"1": {"label": "*4", "atom_type": "Ct"}, "2": {"label": "*3", "atom_type": "Cs"}, "4": {"label": "*2", "atom_type": "H0"}, "8": {"label": "*0", "atom_type": "Cd"}, "9": {"label": "*1", "atom_type": "Cs"}}

>  <type>  (10) 
unop_6

>  <geom_source>  (10) 
Heuristics

$$$$

     RDKit          3D

 21 19  0  0  0  0  0  0  0  0999 V2000
   -0.3839   -1.5994   -2.9837 C   0  0  0  0  0  0  0  0  0  0  0  0
   -0.3839   -1.5994   -1.7866 C   0  0  0  0  0  0  0  0  0  0  0  0
   -0.3839   -1.5994   -0.3312 C   0  0  0  0  0  0  0  0  0  0  0  0
   -0.3839   -1.5994   -4.0470 H   0  0  0  0  0  0  0  0  0  0  0  0
   -0.2724   -0.3798    0.1312 H   0  0  0  0  0  0  0  0  0  0  0  0
    0.4498   -2.1879    0.0542 H   0  0  0  0  0  0  0  0  0  0  0  0
   -1.3105   -2.0271    0.0542 H   0  0  0  0  0  0  0  0  0  0  0  0
    2.2302    0.3065    1.1498 C   0  0  0  0  0  0  0  0  0  0  0  0
    1.0868    0.9128    1.4267 C   0  0  0  0  0  0  0  0  0  0  0  0
   -0.1606    0.8438    0.5952 C   0  0  0  0  0  3  0  0  0  0  0  0
   -0.5487    2.2357    0.0926 C   0  0  0  0  0  0  0  0  0  0  0  0
   -1.3044    0.2160    1.3938 C   0  0  0  0  0  0  0  0  0  0  0  0
    3.0940    0.3997    1.7961 H   0  0  0  0  0  0  0  0  0  0  0  0
    2.3432   -0.3075    0.2623 H   0  0  0  0  0  0  0  0  0  0  0  0
    1.0133    1.5207    2.3276 H   0  0  0  0  0  0  0  0  0  0  0  0
   -1.4520    2.1889   -0.5192 H   0  0  0  0  0  0  0  0  0  0  0  0
   -0.7484    2.9070    0.9323 H   0  0  0  0  0  0  0  0  0  0  0  0
    0.2501    2.6750   -0.5066 H   0  0  0  0  0  0  0  0  0  0  0  0
   -1.5309    0.8158    2.2796 H   0  0  0  0  0  0  0  0  0  0  0  0
   -1.0467   -0.7906    1.7262 H   0  0  0  0  0  0  0  0  0  0  0  0
   -2.2123    0.1572    0.7898 H   0  0  0  0  0  0  0  0  0  0  0  0
  1  2  3  0
  1  4  1  0
  2  3  1  0
  3  5  1  0
  3  6  1  0
  3  7  1  0
  8  9  2  3
  8 13  1  0
  8 14  1  0
  9 10  1  0
  9 15  1  0
 10 11  1  0
 10 12  1  0
 11 16  1  0
 11 17  1  0
 11 18  1  0
 12 19  1  0
 12 20  1  0
 12 21  1  0
M  RAD  1  10   2
M  END
>  <reaction>  (11) 
rxn_1220

>  <mol_properties>  (11) 
{"1": {"label": "*4", "atom_type": "Ct"}, "2": {"label": "*3", "atom_type": "Cs"}, "4": {"label": "*2", "atom_type": "H0"}, "8": {"label": "*0", "atom_type": "Cd"}, "9": {"label": "*1", "atom_type": "Cs"}}

>  <type>  (11) 
unop_7

>  <geom_source>  (11) 
Heuristics

$$$$

     RDKit          3D

 21 19  0  0  0  0  0  0  0  0999 V2000
    0.1410   -1.6976   -2.8506 C   0  0  0  0  0  0  0  0  0  0  0  0
    0.1410   -1.6976   -1.6536 C   0  0  0  0  0  0  0  0  0  0  0  0
    0.1410   -1.6976   -0.1981 C   0  0  0  0  0  0  0  0  0  0  0  0
    0.1410   -1.6976   -3.9139 H   0  0  0  0  0  0  0  0  0  0  0  0
    0.2525   -0.4780    0.2643 H   0  0  0  0  0  0  0  0  0  0  0  0
    0.9747   -2.2861    0.1872 H   0  0  0  0  0  0  0  0  0  0  0  0
   -0.7856   -2.1253    0.1872 H   0  0  0  0  0  0  0  0  0  0  0  0
   -2.0309    1.1118    0.0640 C   0  0  0  0  0  0  0  0  0  0  0  0
   -1.0174    1.3080    0.8922 C   0  0  0  0  0  0  0  0  0  0  0  0
    0.3643    0.7456    0.7282 C   0  0  0  0  0  3  0  0  0  0  0  0
    0.7146   -0.1696    1.9030 C   0  0  0  0  0  0  0  0  0  0  0  0
    1.3901    1.8724    0.5925 C   0  0  0  0  0  0  0  0  0  0  0  0
   -3.0048    1.5495    0.2439 H   0  0  0  0  0  0  0  0  0  0  0  0
   -1.9216    0.5033   -0.8277 H   0  0  0  0  0  0  0  0  0  0  0  0
   -1.1672    1.9254    1.7770 H   0  0  0  0  0  0  0  0  0  0  0  0
    1.7166   -0.5868    1.7840 H   0  0  0  0  0  0  0  0  0  0  0  0
    0.6940    0.3864    2.8443 H   0  0  0  0  0  0  0  0  0  0  0  0
    0.0059   -0.9949    1.9843 H   0  0  0  0  0  0  0  0  0  0  0  0
    1.3935    2.5006    1.4874 H   0  0  0  0  0  0  0  0  0  0  0  0
    1.1651    2.5089   -0.2644 H   0  0  0  0  0  0  0  0  0  0  0  0
    2.3963    1.4673    0.4656 H   0  0  0  0  0  0  0  0  0  0  0  0
  1  2  3  0
  1  4  1  0
  2  3  1  0
  3  5  1  0
  3  6  1  0
  3  7  1  0
  8  9  2  3
  8 13  1  0
  8 14  1  0
  9 10  1  0
  9 15  1  0
 10 11  1  0
 10 12  1  0
 11 16  1  0
 11 17  1  0
 11 18  1  0
 12 19  1  0
 12 20  1  0
 12 21  1  0
M  RAD  1  10   2
M  END
>  <reaction>  (12) 
rxn_1220

>  <mol_properties>  (12) 
{"1": {"label": "*4", "atom_type": "Ct"}, "2": {"label": "*3", "atom_type": "Cs"}, "4": {"label": "*2", "atom_type": "H0"}, "8": {"label": "*0", "atom_type": "Cd"}, "9": {"label": "*1", "atom_type": "Cs"}}

>  <type>  (12) 
unop_8

>  <geom_source>  (12) 
Heuristics

$$$$

     RDKit          3D

 21 19  0  0  0  0  0  0  0  0999 V2000
   -0.3240   -1.7637   -2.5913 C   0  0  0  0  0  0  0  0  0  0  0  0
   -0.3240   -1.7637   -1.3943 C   0  0  0  0  0  0  0  0  0  0  0  0
   -0.3240   -1.7637    0.0612 C   0  0  0  0  0  0  0  0  0  0  0  0
   -0.3240   -1.7637   -3.6546 H   0  0  0  0  0  0  0  0  0  0  0  0
   -0.2126   -0.5442    0.5236 H   0  0  0  0  0  0  0  0  0  0  0  0
    0.5097   -2.3523    0.4465 H   0  0  0  0  0  0  0  0  0  0  0  0
   -1.2506   -2.1914    0.4465 H   0  0  0  0  0  0  0  0  0  0  0  0
    0.8920    1.1545   -1.2709 C   0  0  0  0  0  0  0  0  0  0  0  0
    0.6891    1.4818   -0.0047 C   0  0  0  0  0  0  0  0  0  0  0  0
   -0.1007    0.6794    0.9876 C   0  0  0  0  0  3  0  0  0  0  0  0
   -1.2999    1.4826    1.4947 C   0  0  0  0  0  0  0  0  0  0  0  0
    0.7889    0.2380    2.1511 C   0  0  0  0  0  0  0  0  0  0  0  0
    1.4743    1.7822   -1.9338 H   0  0  0  0  0  0  0  0  0  0  0  0
    0.4808    0.2427   -1.6913 H   0  0  0  0  0  0  0  0  0  0  0  0
    1.1189    2.4059    0.3798 H   0  0  0  0  0  0  0  0  0  0  0  0
   -1.8817    0.8996    2.2117 H   0  0  0  0  0  0  0  0  0  0  0  0
   -0.9680    2.3951    1.9975 H   0  0  0  0  0  0  0  0  0  0  0  0
   -1.9567    1.7713    0.6729 H   0  0  0  0  0  0  0  0  0  0  0  0
    1.1948    1.1064    2.6772 H   0  0  0  0  0  0  0  0  0  0  0  0
    1.6277   -0.3643    1.7993 H   0  0  0  0  0  0  0  0  0  0  0  0
    0.2197   -0.3525    2.8720 H   0  0  0  0  0  0  0  0  0  0  0  0
  1  2  3  0
  1  4  1  0
  2  3  1  0
  3  5  1  0
  3  6  1  0
  3  7  1  0
  8  9  2  3
  8 13  1  0
  8 14  1  0
  9 10  1  0
  9 15  1  0
 10 11  1  0
 10 12  1  0
 11 16  1  0
 11 17  1  0
 11 18  1  0
 12 19  1  0
 12 20  1  0
 12 21  1  0
M  RAD  1  10   2
M  END
>  <reaction>  (13) 
rxn_1220

>  <mol_properties>  (13) 
{"1": {"label": "*4", "atom_type": "Ct"}, "2": {"label": "*3", "atom_type": "Cs"}, "4": {"label": "*2", "atom_type": "H0"}, "8": {"label": "*0", "atom_type": "Cd"}, "9": {"label": "*1", "atom_type": "Cs"}}

>  <type>  (13) 
unop_9

>  <geom_source>  (13) 
Heuristics

$$$$

     RDKit          3D

 21 19  0  0  0  0  0  0  0  0999 V2000
    0.1108   -1.7543   -2.7051 C   0  0  0  0  0  0  0  0  0  0  0  0
    0.1108   -1.7543   -1.5081 C   0  0  0  0  0  0  0  0  0  0  0  0
    0.1108   -1.7543   -0.0527 C   0  0  0  0  0  0  0  0  0  0  0  0
    0.1108   -1.7543   -3.7684 H   0  0  0  0  0  0  0  0  0  0  0  0
    0.2223   -0.5347    0.4098 H   0  0  0  0  0  0  0  0  0  0  0  0
    0.9445   -2.3429    0.3327 H   0  0  0  0  0  0  0  0  0  0  0  0
   -0.8158   -2.1820    0.3327 H   0  0  0  0  0  0  0  0  0  0  0  0
   -1.4498    1.2995   -0.7867 C   0  0  0  0  0  0  0  0  0  0  0  0
   -0.8342    1.4849    0.3702 C   0  0  0  0  0  0  0  0  0  0  0  0
    0.3341    0.6889    0.8737 C   0  0  0  0  0  3  0  0  0  0  0  0
   -0.0272   -0.0314    2.1741 C   0  0  0  0  0  0  0  0  0  0  0  0
    1.5531    1.5916    1.0731 C   0  0  0  0  0  0  0  0  0  0  0  0
   -2.2897    1.9127   -1.0882 H   0  0  0  0  0  0  0  0  0  0  0  0
   -1.1337    0.5238   -1.4764 H   0  0  0  0  0  0  0  0  0  0  0  0
   -1.1816    2.2744    1.0354 H   0  0  0  0  0  0  0  0  0  0  0  0
    0.8181   -0.6178    2.5402 H   0  0  0  0  0  0  0  0  0  0  0  0
   -0.2959    0.6887    2.9519 H   0  0  0  0  0  0  0  0  0  0  0  0
   -0.8749   -0.7028    2.0301 H   0  0  0  0  0  0  0  0  0  0  0  0
    1.3403    2.3691    1.8119 H   0  0  0  0  0  0  0  0  0  0  0  0
    1.8368    2.0820    0.1409 H   0  0  0  0  0  0  0  0  0  0  0  0
    2.4078    1.0149    1.4326 H   0  0  0  0  0  0  0  0  0  0  0  0
  1  2  3  0
  1  4  1  0
  2  3  1  0
  3  5  1  0
  3  6  1  0
  3  7  1  0
  8  9  2  3
  8 13  1  0
  8 14  1  0
  9 10  1  0
  9 15  1  0
 10 11  1  0
 10 12  1  0
 11 16  1  0
 11 17  1  0
 11 18  1  0
 12 19  1  0
 12 20  1  0
 12 21  1  0
M  RAD  1  10   2
M  END
>  <reaction>  (14) 
rxn_1220

>  <mol_properties>  (14) 
{"1": {"label": "*4", "atom_type": "Ct"}, "2": {"label": "*3", "atom_type": "Cs"}, "4": {"label": "*2", "atom_type": "H0"}, "8": {"label": "*0", "atom_type": "Cd"}, "9": {"label": "*1", "atom_type": "Cs"}}

>  <type>  (14) 
unop_10

>  <geom_source>  (14) 
Heuristics

$$$$

     RDKit          3D

 21 19  0  0  0  0  0  0  0  0999 V2000
   -0.2682   -1.5846   -3.0677 C   0  0  0  0  0  0  0  0  0  0  0  0
   -0.2682   -1.5846   -1.8707 C   0  0  0  0  0  0  0  0  0  0  0  0
   -0.2682   -1.5846   -0.4153 C   0  0  0  0  0  0  0  0  0  0  0  0
   -0.2682   -1.5846   -4.1310 H   0  0  0  0  0  0  0  0  0  0  0  0
   -0.1567   -0.3650    0.0471 H   0  0  0  0  0  0  0  0  0  0  0  0
    0.5656   -2.1732   -0.0299 H   0  0  0  0  0  0  0  0  0  0  0  0
   -1.1947   -2.0123   -0.0299 H   0  0  0  0  0  0  0  0  0  0  0  0
    1.5211   -0.1498    2.1972 C   0  0  0  0  0  0  0  0  0  0  0  0
    0.6655    0.7914    1.8313 C   0  0  0  0  0  0  0  0  0  0  0  0
   -0.0449    0.8586    0.5111 C   0  0  0  0  0  3  0  0  0  0  0  0
    0.3382    2.1348   -0.2405 C   0  0  0  0  0  0  0  0  0  0  0  0
   -1.5594    0.7799    0.7116 C   0  0  0  0  0  0  0  0  0  0  0  0
    1.9991   -0.1367    3.1687 H   0  0  0  0  0  0  0  0  0  0  0  0
    1.7748   -0.9707    1.5346 H   0  0  0  0  0  0  0  0  0  0  0  0
    0.4368    1.5993    2.5252 H   0  0  0  0  0  0  0  0  0  0  0  0
   -0.1710    2.1841   -1.2053 H   0  0  0  0  0  0  0  0  0  0  0  0
    0.0528    3.0207    0.3334 H   0  0  0  0  0  0  0  0  0  0  0  0
    1.4138    2.1803   -0.4168 H   0  0  0  0  0  0  0  0  0  0  0  0
   -1.9120    1.6178    1.3192 H   0  0  0  0  0  0  0  0  0  0  0  0
   -1.8424   -0.1445    1.2170 H   0  0  0  0  0  0  0  0  0  0  0  0
   -2.0800    0.8211   -0.2475 H   0  0  0  0  0  0  0  0  0  0  0  0
  1  2  3  0
  1  4  1  0
  2  3  1  0
  3  5  1  0
  3  6  1  0
  3  7  1  0
  8  9  2  3
  8 13  1  0
  8 14  1  0
  9 10  1  0
  9 15  1  0
 10 11  1  0
 10 12  1  0
 11 16  1  0
 11 17  1  0
 11 18  1  0
 12 19  1  0
 12 20  1  0
 12 21  1  0
M  RAD  1  10   2
M  END
>  <reaction>  (15) 
rxn_1220

>  <mol_properties>  (15) 
{"1": {"label": "*4", "atom_type": "Ct"}, "2": {"label": "*3", "atom_type": "Cs"}, "4": {"label": "*2", "atom_type": "H0"}, "8": {"label": "*0", "atom_type": "Cd"}, "9": {"label": "*1", "atom_type": "Cs"}}

>  <type>  (15) 
unop_11

>  <geom_source>  (15) 
Heuristics

$$$$

     RDKit          3D

 21 19  0  0  0  0  0  0  0  0999 V2000
   -0.1643   -1.7979   -2.5478 C   0  0  0  0  0  0  0  0  0  0  0  0
   -0.1643   -1.7979   -1.3508 C   0  0  0  0  0  0  0  0  0  0  0  0
   -0.1643   -1.7979    0.1046 C   0  0  0  0  0  0  0  0  0  0  0  0
   -0.1643   -1.7979   -3.6111 H   0  0  0  0  0  0  0  0  0  0  0  0
   -0.0529   -0.5783    0.5671 H   0  0  0  0  0  0  0  0  0  0  0  0
    0.6694   -2.3865    0.4900 H   0  0  0  0  0  0  0  0  0  0  0  0
   -1.0909   -2.2256    0.4900 H   0  0  0  0  0  0  0  0  0  0  0  0
    0.1116    1.2216   -1.4138 C   0  0  0  0  0  0  0  0  0  0  0  0
    0.1444    1.5798   -0.1401 C   0  0  0  0  0  0  0  0  0  0  0  0
    0.0590    0.6453    1.0310 C   0  0  0  0  0  3  0  0  0  0  0  0
   -1.1772    0.9560    1.8770 C   0  0  0  0  0  0  0  0  0  0  0  0
    1.3310    0.7267    1.8770 C   0  0  0  0  0  0  0  0  0  0  0  0
    0.1783    1.9512   -2.2112 H   0  0  0  0  0  0  0  0  0  0  0  0
    0.0165    0.1809   -1.7053 H   0  0  0  0  0  0  0  0  0  0  0  0
    0.2408    2.6351    0.1119 H   0  0  0  0  0  0  0  0  0  0  0  0
   -1.2471    0.2733    2.7265 H   0  0  0  0  0  0  0  0  0  0  0  0
   -1.1288    1.9750    2.2707 H   0  0  0  0  0  0  0  0  0  0  0  0
   -2.0907    0.8662    1.2876 H   0  0  0  0  0  0  0  0  0  0  0  0
    1.4681    1.7376    2.2707 H   0  0  0  0  0  0  0  0  0  0  0  0
    2.2131    0.4728    1.2876 H   0  0  0  0  0  0  0  0  0  0  0  0
    1.2760    0.0427    2.7265 H   0  0  0  0  0  0  0  0  0  0  0  0
  1  2  3  0
  1  4  1  0
  2  3  1  0
  3  5  1  0
  3  6  1  0
  3  7  1  0
  8  9  2  3
  8 13  1  0
  8 14  1  0
  9 10  1  0
  9 15  1  0
 10 11  1  0
 10 12  1  0
 11 16  1  0
 11 17  1  0
 11 18  1  0
 12 19  1  0
 12 20  1  0
 12 21  1  0
M  RAD  1  10   2
M  END
>  <reaction>  (16) 
rxn_1220

>  <mol_properties>  (16) 
{"1": {"label": "*4", "atom_type": "Ct"}, "2": {"label": "*3", "atom_type": "Cs"}, "4": {"label": "*2", "atom_type": "H0"}, "8": {"label": "*0", "atom_type": "Cd"}, "9": {"label": "*1", "atom_type": "Cs"}}

>  <type>  (16) 
unop_12

>  <geom_source>  (16) 
Heuristics

$$$$

     RDKit          3D

 21 18  0  0  0  0  0  0  0  0999 V2000
   -0.7028   -0.2541   -0.0005 C   0  0  0  0  0  0  0  0  0  0  0  0
   -1.5452   -0.2863   -1.2798 C   0  0  0  0  0  0  0  0  0  0  0  0
   -0.7354   -1.6172    0.6963 C   0  0  0  0  0  0  0  0  0  0  0  0
   -1.1904    0.8287    0.9317 C   0  0  0  0  0  0  0  0  0  0  0  0
   -0.9727    2.1206    0.6704 C   0  0  0  0  0  0  0  0  0  0  0  0
    1.7057   -0.3435   -0.9781 C   0  0  0  0  0  2  0  0  0  0  0  0
    2.7763   -0.1060   -0.0096 C   0  0  0  0  0  3  0  0  0  0  0  0
    3.6583    0.0895    0.7885 C   0  0  0  0  0  0  0  0  0  0  0  0
    0.5850    0.0070   -0.3371 H   0  0  0  0  0  0  0  0  0  0  0  0
   -1.1725   -1.0804   -1.9611 H   0  0  0  0  0  0  0  0  0  0  0  0
   -1.4708    0.6844   -1.8138 H   0  0  0  0  0  0  0  0  0  0  0  0
   -2.6124   -0.4862   -1.0420 H   0  0  0  0  0  0  0  0  0  0  0  0
   -0.3299   -2.3997    0.0204 H   0  0  0  0  0  0  0  0  0  0  0  0
   -1.7745   -1.8902    0.9817 H   0  0  0  0  0  0  0  0  0  0  0  0
   -0.1047   -1.5906    1.6104 H   0  0  0  0  0  0  0  0  0  0  0  0
   -1.7047    0.5626    1.8516 H   0  0  0  0  0  0  0  0  0  0  0  0
   -0.4460    2.4289   -0.2276 H   0  0  0  0  0  0  0  0  0  0  0  0
   -1.3209    2.8808    1.3622 H   0  0  0  0  0  0  0  0  0  0  0  0
    2.0781   -0.1305   -2.0013 H   0  0  0  0  0  0  0  0  0  0  0  0
    0.8469    0.3213   -0.7513 H   0  0  0  0  0  0  0  0  0  0  0  0
    4.4327    0.2612    1.4891 H   0  0  0  0  0  0  0  0  0  0  0  0
  1  2  1  0
  1  3  1  0
  1  4  1  0
  1  9  1  0
  2 10  1  0
  2 11  1  0
  2 12  1  0
  3 13  1  0
  3 14  1  0
  3 15  1  0
  4  5  2  3
  4 16  1  0
  5 17  1  0
  5 18  1  0
  6 19  1  0
  6 20  1  0
  7  8  3  0
  8 21  1  0
M  RAD  2   6   3   7   2
M  END
>  <reaction>  (17) 
rxn_1220

>  <mol_properties>  (17) 
{"1": {"label": "*4", "atom_type": "Ct"}, "2": {"label": "*3", "atom_type": "Cs"}, "4": {"label": "*2", "atom_type": "H0"}, "8": {"label": "*0", "atom_type": "Cd"}, "9": {"label": "*1", "atom_type": "Cs"}}

>  <type>  (17) 
unop_13

>  <geom_source>  (17) 
AutoTST

$$$$
