
     RDKit          3D

 22 23  0  0  0  0  0  0  0  0999 V2000
   -2.1093   -0.3263    0.3079 C   0  0  0  0  0  0  0  0  0  0  0  0
   -1.3270    0.9803    0.4115 C   0  0  0  0  0  0  0  0  0  0  0  0
   -0.1818    0.8289   -0.6044 C   0  0  0  0  0  0  0  0  0  0  0  0
    1.1682    1.3904   -0.1341 C   0  0  0  0  0  0  0  0  0  0  0  0
    1.8508    0.2041    0.5479 C   0  0  0  0  0  0  0  0  0  0  0  0
    1.4982   -0.9663   -0.3710 C   0  0  0  0  0  0  0  0  0  0  0  0
    0.0340   -0.7124   -0.7594 C   0  0  0  0  0  0  0  0  0  0  0  0
   -0.9986   -1.3650    0.1756 C   0  0  0  0  0  0  0  0  0  0  0  0
   -2.7686   -0.5042    1.1589 H   0  0  0  0  0  0  0  0  0  0  0  0
   -2.7285   -0.3223   -0.5943 H   0  0  0  0  0  0  0  0  0  0  0  0
   -1.9339    1.8682    0.2289 H   0  0  0  0  0  0  0  0  0  0  0  0
   -0.9144    1.0729    1.4218 H   0  0  0  0  0  0  0  0  0  0  0  0
   -0.4804    1.2763   -1.5535 H   0  0  0  0  0  0  0  0  0  0  0  0
    1.7667    1.7058   -0.9931 H   0  0  0  0  0  0  0  0  0  0  0  0
    1.0540    2.2578    0.5189 H   0  0  0  0  0  0  0  0  0  0  0  0
    1.4197    0.0438    1.5410 H   0  0  0  0  0  0  0  0  0  0  0  0
    2.9248    0.3413    0.6788 H   0  0  0  0  0  0  0  0  0  0  0  0
    2.1362   -0.9329   -1.2584 H   0  0  0  0  0  0  0  0  0  0  0  0
    1.6421   -1.9421    0.0966 H   0  0  0  0  0  0  0  0  0  0  0  0
   -0.1575   -1.0299   -1.7854 H   0  0  0  0  0  0  0  0  0  0  0  0
   -1.3459   -2.3310   -0.1933 H   0  0  0  0  0  0  0  0  0  0  0  0
   -0.5489   -1.5373    1.1593 H   0  0  0  0  0  0  0  0  0  0  0  0
  1  2  1  0
  1  8  1  0
  1  9  1  0
  1 10  1  0
  2  3  1  0
  2 11  1  0
  2 12  1  0
  3  4  1  0
  3  7  1  0
  3 13  1  0
  4  5  1  0
  4 14  1  0
  4 15  1  0
  5  6  1  0
  5 16  1  0
  5 17  1  0
  6  7  1  0
  6 18  1  0
  6 19  1  0
  7  8  1  0
  7 20  1  0
  8 21  1  0
  8 22  1  0
M  END
>  <reaction>  (1) 
rxn_576

>  <mol_properties>  (1) 
{"2": {"label": "donator", "atom_type": "Cs"}, "12": {"label": "d_hydrogen", "atom_type": "H0"}}

>  <type>  (1) 
r1h

$$$$

     RDKit          3D

  7  6  0  0  0  0  0  0  0  0999 V2000
    1.3004    0.7433    2.1277 C   0  0  0  0  0  0  0  0  0  0  0  0
    0.5759    0.3292    1.2318 C   0  0  0  0  0  0  0  0  0  0  0  0
   -0.2057   -0.1176    0.2653 C   0  0  0  0  0  3  0  0  0  0  0  0
   -0.9747   -0.5572   -0.6857 C   0  0  0  0  0  0  0  0  0  0  0  0
    1.9295    1.1030    2.9058 H   0  0  0  0  0  0  0  0  0  0  0  0
   -1.9978   -0.8727   -0.4930 H   0  0  0  0  0  0  0  0  0  0  0  0
   -0.6275   -0.6280   -1.7142 H   0  0  0  0  0  0  0  0  0  0  0  0
  1  2  3  0
  1  5  1  0
  2  3  1  0
  3  4  2  3
  4  6  1  0
  4  7  1  0
M  RAD  1   3   2
M  END
>  <reaction>  (2) 
rxn_576

>  <mol_properties>  (2) 
{"2": {"label": "acceptor", "atom_type": "Cd"}}

>  <type>  (2) 
r2

$$$$

     RDKit          3D

  8  7  0  0  0  0  0  0  0  0999 V2000
    1.9029    0.9046   -0.2050 C   0  0  0  0  0  0  0  0  0  0  0  0
    0.8517    0.4283    0.1217 C   0  0  0  0  0  0  0  0  0  0  0  0
   -0.3908   -0.1311    0.5404 C   0  0  0  0  0  0  0  0  0  0  0  0
   -1.2847   -0.6576   -0.2899 C   0  0  0  0  0  0  0  0  0  0  0  0
    2.8335    1.3255   -0.5014 H   0  0  0  0  0  0  0  0  0  0  0  0
   -0.5867   -0.1096    1.6074 H   0  0  0  0  0  0  0  0  0  0  0  0
   -2.2126   -1.0686    0.0850 H   0  0  0  0  0  0  0  0  0  0  0  0
   -1.1134   -0.6914   -1.3582 H   0  0  0  0  0  0  0  0  0  0  0  0
  1  2  3  0
  1  5  1  0
  2  3  1  0
  3  4  2  3
  3  6  1  0
  4  7  1  0
  4  8  1  0
M  END
>  <reaction>  (3) 
rxn_576

>  <mol_properties>  (3) 
{"2": {"label": "acceptor", "atom_type": "Cd"}, "7": {"label": "a_hydrogen", "atom_type": "H0"}}

>  <type>  (3) 
r2h

$$$$

     RDKit          3D

 29 29  0  0  0  0  0  0  0  0999 V2000
   -3.3215    0.6669    1.7883 C   0  0  0  0  0  0  0  0  0  0  0  0
   -2.6922   -0.1849    1.2118 C   0  0  0  0  0  0  0  0  0  0  0  0
   -1.8552   -1.0817    0.5502 C   0  0  0  0  0  3  0  0  0  0  0  0
   -2.0585   -2.2822    0.0399 C   0  0  0  0  0  0  0  0  0  0  0  0
   -3.9008    1.3998    2.2962 H   0  0  0  0  0  0  0  0  0  0  0  0
   -1.2545   -2.8188   -0.4518 H   0  0  0  0  0  0  0  0  0  0  0  0
   -3.0253   -2.7746    0.0894 H   0  0  0  0  0  0  0  0  0  0  0  0
    1.6041   -1.3847   -1.6096 C   0  0  0  0  0  0  0  0  0  0  0  0
    1.5234   -1.3307   -0.0827 C   0  0  0  0  0  0  0  0  0  0  0  0
    0.6127   -0.1461    0.2033 C   0  0  1  0  0  0  0  0  0  0  0  0
    0.9282    0.7631    1.3782 C   0  0  0  0  0  0  0  0  0  0  0  0
    1.6450    1.9512    0.7248 C   0  0  0  0  0  0  0  0  0  0  0  0
    0.8732    2.1528   -0.5824 C   0  0  0  0  0  0  0  0  0  0  0  0
    0.5638    0.7279   -1.0653 C   0  0  1  0  0  0  0  0  0  0  0  0
    1.6031    0.0924   -2.0018 C   0  0  0  0  0  0  0  0  0  0  0  0
    2.4753   -1.9298   -1.9749 H   0  0  0  0  0  0  0  0  0  0  0  0
    0.7134   -1.8747   -2.0140 H   0  0  0  0  0  0  0  0  0  0  0  0
    1.1697   -2.2585    0.3720 H   0  0  0  0  0  0  0  0  0  0  0  0
    2.5184   -1.1335    0.3344 H   0  0  0  0  0  0  0  0  0  0  0  0
   -0.5671   -0.6083    0.3927 H   0  0  0  0  0  0  0  0  0  0  0  0
    0.0012    1.1075    1.8481 H   0  0  0  0  0  0  0  0  0  0  0  0
    1.5205    0.2657    2.1476 H   0  0  0  0  0  0  0  0  0  0  0  0
    2.6834    1.6817    0.5089 H   0  0  0  0  0  0  0  0  0  0  0  0
    1.6632    2.8412    1.3549 H   0  0  0  0  0  0  0  0  0  0  0  0
   -0.0576    2.6866   -0.3757 H   0  0  0  0  0  0  0  0  0  0  0  0
    1.4266    2.7336   -1.3224 H   0  0  0  0  0  0  0  0  0  0  0  0
   -0.4211    0.6781   -1.5368 H   0  0  0  0  0  0  0  0  0  0  0  0
    1.3802    0.2628   -3.0558 H   0  0  0  0  0  0  0  0  0  0  0  0
    2.5907    0.5218   -1.8017 H   0  0  0  0  0  0  0  0  0  0  0  0
  1  2  3  0
  1  5  1  0
  2  3  1  0
  3  4  2  3
  4  6  1  0
  4  7  1  0
  8  9  1  0
  8 15  1  0
  8 16  1  0
  8 17  1  0
  9 10  1  0
  9 18  1  0
  9 19  1  0
 10 11  1  0
 10 14  1  0
 10 20  1  1
 11 12  1  0
 11 21  1  0
 11 22  1  0
 12 13  1  0
 12 23  1  0
 12 24  1  0
 13 14  1  0
 13 25  1  0
 13 26  1  0
 14 15  1  0
 14 27  1  6
 15 28  1  0
 15 29  1  0
M  RAD  1   3   2
M  END
>  <reaction>  (4) 
rxn_576

>  <mol_properties>  (4) 
{"1": {"label": "*4", "atom_type": "Ct"}, "2": {"label": "*3", "atom_type": "Cd"}, "9": {"label": "*1", "atom_type": "Cs"}, "13": {"label": "*0", "atom_type": "Cs"}, "19": {"label": "*2", "atom_type": "H0"}}

>  <type>  (4) 
ts

$$$$

     RDKit          3D

 29 29  0  0  0  0  0  0  0  0999 V2000
   -2.8638   -0.7501    2.8815 C   0  0  0  0  0  0  0  0  0  0  0  0
   -2.4275   -0.9035    1.7748 C   0  0  0  0  0  0  0  0  0  0  0  0
   -1.8807   -1.0930    0.4721 C   0  0  0  0  0  0  0  0  0  0  0  0
   -2.5743   -0.9474   -0.6520 C   0  0  0  0  0  0  0  0  0  0  0  0
   -3.2505   -0.6140    3.8628 H   0  0  0  0  0  0  0  0  0  0  0  0
   -2.1062   -1.1045   -1.6147 H   0  0  0  0  0  0  0  0  0  0  0  0
   -3.6204   -0.6696   -0.6393 H   0  0  0  0  0  0  0  0  0  0  0  0
    1.4662   -1.2378   -1.8390 C   0  0  0  0  0  0  0  0  0  0  0  0
    1.4662   -1.2378   -0.3125 C   0  0  0  0  0  0  0  0  0  0  0  0
    0.5028   -0.1031    0.0758 C   0  0  0  0  0  3  0  0  0  0  0  0
    0.9556    0.7355    1.2803 C   0  0  0  0  0  0  0  0  0  0  0  0
    1.7676    1.8737    0.6609 C   0  0  0  0  0  0  0  0  0  0  0  0
    0.9556    2.2333   -0.5840 C   0  0  0  0  0  0  0  0  0  0  0  0
    0.5028    0.8765   -1.1434 C   0  0  0  0  0  0  0  0  0  0  0  0
    1.4662    0.2528   -2.1678 C   0  0  0  0  0  0  0  0  0  0  0  0
    2.3110   -1.7760   -2.2714 H   0  0  0  0  0  0  0  0  0  0  0  0
    0.5503   -1.7046   -2.2140 H   0  0  0  0  0  0  0  0  0  0  0  0
    1.1819   -2.1962    0.1241 H   0  0  0  0  0  0  0  0  0  0  0  0
    2.4743   -1.0052    0.0467 H   0  0  0  0  0  0  0  0  0  0  0  0
   -0.6922   -0.5994    0.2745 H   0  0  0  0  0  0  0  0  0  0  0  0
    0.0878    1.1523    1.7987 H   0  0  0  0  0  0  0  0  0  0  0  0
    1.5187    0.1488    2.0085 H   0  0  0  0  0  0  0  0  0  0  0  0
    2.7587    1.5119    0.3702 H   0  0  0  0  0  0  0  0  0  0  0  0
    1.9155    2.7160    1.3376 H   0  0  0  0  0  0  0  0  0  0  0  0
    0.0878    2.8294   -0.2887 H   0  0  0  0  0  0  0  0  0  0  0  0
    1.5187    2.8181   -1.3139 H   0  0  0  0  0  0  0  0  0  0  0  0
   -0.4930    0.9491   -1.5830 H   0  0  0  0  0  0  0  0  0  0  0  0
    1.1819    0.4727   -3.1977 H   0  0  0  0  0  0  0  0  0  0  0  0
    2.4743    0.6537   -2.0181 H   0  0  0  0  0  0  0  0  0  0  0  0
  1  2  3  0
  1  5  1  0
  2  3  1  0
  3  4  2  3
  3 20  1  0
  4  6  1  0
  4  7  1  0
  8 15  1  0
  8  9  1  0
  8 16  1  0
  8 17  1  0
  9 10  1  0
  9 18  1  0
  9 19  1  0
 10 11  1  0
 10 14  1  0
 11 12  1  0
 11 21  1  0
 11 22  1  0
 12 13  1  0
 12 23  1  0
 12 24  1  0
 13 14  1  0
 13 25  1  0
 13 26  1  0
 14 15  1  0
 14 27  1  0
 15 28  1  0
 15 29  1  0
M  RAD  1  10   2
M  END
>  <reaction>  (5) 
rxn_576

>  <mol_properties>  (5) 
{"1": {"label": "*4", "atom_type": "Ct"}, "2": {"label": "*3", "atom_type": "Cd"}, "9": {"label": "*1", "atom_type": "Cs"}, "13": {"label": "*0", "atom_type": "Cs"}, "19": {"label": "*2", "atom_type": "H0"}}

>  <type>  (5) 
unop_1

>  <geom_source>  (5) 
Heuristics

$$$$

     RDKit          3D

 29 29  0  0  0  0  0  0  0  0999 V2000
   -2.0275   -3.2859    1.4181 C   0  0  0  0  0  0  0  0  0  0  0  0
   -2.0125   -2.1524    1.0264 C   0  0  0  0  0  0  0  0  0  0  0  0
   -1.9647   -0.8093    0.5513 C   0  0  0  0  0  0  0  0  0  0  0  0
   -2.9819    0.0421    0.6297 C   0  0  0  0  0  0  0  0  0  0  0  0
   -2.0407   -4.2910    1.7655 H   0  0  0  0  0  0  0  0  0  0  0  0
   -2.8883    1.0515    0.2518 H   0  0  0  0  0  0  0  0  0  0  0  0
   -3.9277   -0.2457    1.0705 H   0  0  0  0  0  0  0  0  0  0  0  0
    1.3823   -0.9541   -1.7598 C   0  0  0  0  0  0  0  0  0  0  0  0
    1.3823   -0.9541   -0.2333 C   0  0  0  0  0  0  0  0  0  0  0  0
    0.4189    0.1807    0.1550 C   0  0  0  0  0  3  0  0  0  0  0  0
    0.8717    1.0193    1.3595 C   0  0  0  0  0  0  0  0  0  0  0  0
    1.6837    2.1575    0.7401 C   0  0  0  0  0  0  0  0  0  0  0  0
    0.8717    2.5171   -0.5048 C   0  0  0  0  0  0  0  0  0  0  0  0
    0.4189    1.1603   -1.0642 C   0  0  0  0  0  0  0  0  0  0  0  0
    1.3823    0.5365   -2.0886 C   0  0  0  0  0  0  0  0  0  0  0  0
    2.2271   -1.4922   -2.1922 H   0  0  0  0  0  0  0  0  0  0  0  0
    0.4664   -1.4209   -2.1348 H   0  0  0  0  0  0  0  0  0  0  0  0
    1.0980   -1.9124    0.2033 H   0  0  0  0  0  0  0  0  0  0  0  0
    2.3904   -0.7215    0.1259 H   0  0  0  0  0  0  0  0  0  0  0  0
   -0.7761   -0.3156    0.3537 H   0  0  0  0  0  0  0  0  0  0  0  0
    0.0039    1.4361    1.8779 H   0  0  0  0  0  0  0  0  0  0  0  0
    1.4348    0.4325    2.0877 H   0  0  0  0  0  0  0  0  0  0  0  0
    2.6748    1.7956    0.4494 H   0  0  0  0  0  0  0  0  0  0  0  0
    1.8316    2.9998    1.4168 H   0  0  0  0  0  0  0  0  0  0  0  0
    0.0039    3.1131   -0.2095 H   0  0  0  0  0  0  0  0  0  0  0  0
    1.4348    3.1018   -1.2347 H   0  0  0  0  0  0  0  0  0  0  0  0
   -0.5770    1.2328   -1.5038 H   0  0  0  0  0  0  0  0  0  0  0  0
    1.0980    0.7564   -3.1185 H   0  0  0  0  0  0  0  0  0  0  0  0
    2.3904    0.9375   -1.9389 H   0  0  0  0  0  0  0  0  0  0  0  0
  1  2  3  0
  1  5  1  0
  2  3  1  0
  3  4  2  3
  3 20  1  0
  4  6  1  0
  4  7  1  0
  8 15  1  0
  8  9  1  0
  8 16  1  0
  8 17  1  0
  9 10  1  0
  9 18  1  0
  9 19  1  0
 10 11  1  0
 10 14  1  0
 11 12  1  0
 11 21  1  0
 11 22  1  0
 12 13  1  0
 12 23  1  0
 12 24  1  0
 13 14  1  0
 13 25  1  0
 13 26  1  0
 14 15  1  0
 14 27  1  0
 15 28  1  0
 15 29  1  0
M  RAD  1  10   2
M  END
>  <reaction>  (6) 
rxn_576

>  <mol_properties>  (6) 
{"1": {"label": "*4", "atom_type": "Ct"}, "2": {"label": "*3", "atom_type": "Cd"}, "9": {"label": "*1", "atom_type": "Cs"}, "13": {"label": "*0", "atom_type": "Cs"}, "19": {"label": "*2", "atom_type": "H0"}}

>  <type>  (6) 
unop_2

>  <geom_source>  (6) 
Heuristics

$$$$

     RDKit          3D

 29 29  0  0  0  0  0  0  0  0999 V2000
   -3.3120    0.1327    2.3115 C   0  0  0  0  0  0  0  0  0  0  0  0
   -2.6514   -0.4504    1.4978 C   0  0  0  0  0  0  0  0  0  0  0  0
   -1.8401   -1.1359    0.5470 C   0  0  0  0  0  0  0  0  0  0  0  0
   -2.3191   -1.7616   -0.5229 C   0  0  0  0  0  0  0  0  0  0  0  0
   -3.8977    0.6497    3.0330 H   0  0  0  0  0  0  0  0  0  0  0  0
   -1.6548   -2.2663   -1.2118 H   0  0  0  0  0  0  0  0  0  0  0  0
   -3.3800   -1.7856   -0.7366 H   0  0  0  0  0  0  0  0  0  0  0  0
    1.5068   -1.2807   -1.7641 C   0  0  0  0  0  0  0  0  0  0  0  0
    1.5068   -1.2807   -0.2377 C   0  0  0  0  0  0  0  0  0  0  0  0
    0.5435   -0.1459    0.1507 C   0  0  0  0  0  3  0  0  0  0  0  0
    0.9962    0.6926    1.3551 C   0  0  0  0  0  0  0  0  0  0  0  0
    1.8082    1.8308    0.7358 C   0  0  0  0  0  0  0  0  0  0  0  0
    0.9962    2.1904   -0.5091 C   0  0  0  0  0  0  0  0  0  0  0  0
    0.5435    0.8336   -1.0685 C   0  0  0  0  0  0  0  0  0  0  0  0
    1.5068    0.2099   -2.0929 C   0  0  0  0  0  0  0  0  0  0  0  0
    2.3516   -1.8189   -2.1965 H   0  0  0  0  0  0  0  0  0  0  0  0
    0.5910   -1.7475   -2.1392 H   0  0  0  0  0  0  0  0  0  0  0  0
    1.2225   -2.2390    0.1989 H   0  0  0  0  0  0  0  0  0  0  0  0
    2.5150   -1.0481    0.1216 H   0  0  0  0  0  0  0  0  0  0  0  0
   -0.6516   -0.6423    0.3494 H   0  0  0  0  0  0  0  0  0  0  0  0
    0.1284    1.1094    1.8736 H   0  0  0  0  0  0  0  0  0  0  0  0
    1.5593    0.1059    2.0834 H   0  0  0  0  0  0  0  0  0  0  0  0
    2.7993    1.4690    0.4451 H   0  0  0  0  0  0  0  0  0  0  0  0
    1.9561    2.6731    1.4125 H   0  0  0  0  0  0  0  0  0  0  0  0
    0.1284    2.7865   -0.2138 H   0  0  0  0  0  0  0  0  0  0  0  0
    1.5593    2.7752   -1.2390 H   0  0  0  0  0  0  0  0  0  0  0  0
   -0.4524    0.9062   -1.5081 H   0  0  0  0  0  0  0  0  0  0  0  0
    1.2225    0.4298   -3.1229 H   0  0  0  0  0  0  0  0  0  0  0  0
    2.5149    0.6109   -1.9432 H   0  0  0  0  0  0  0  0  0  0  0  0
  1  2  3  0
  1  5  1  0
  2  3  1  0
  3  4  2  3
  3 20  1  0
  4  6  1  0
  4  7  1  0
  8 15  1  0
  8  9  1  0
  8 16  1  0
  8 17  1  0
  9 10  1  0
  9 18  1  0
  9 19  1  0
 10 11  1  0
 10 14  1  0
 11 12  1  0
 11 21  1  0
 11 22  1  0
 12 13  1  0
 12 23  1  0
 12 24  1  0
 13 14  1  0
 13 25  1  0
 13 26  1  0
 14 15  1  0
 14 27  1  0
 15 28  1  0
 15 29  1  0
M  RAD  1  10   2
M  END
>  <reaction>  (7) 
rxn_576

>  <mol_properties>  (7) 
{"1": {"label": "*4", "atom_type": "Ct"}, "2": {"label": "*3", "atom_type": "Cd"}, "9": {"label": "*1", "atom_type": "Cs"}, "13": {"label": "*0", "atom_type": "Cs"}, "19": {"label": "*2", "atom_type": "H0"}}

>  <type>  (7) 
unop_3

>  <geom_source>  (7) 
Heuristics

$$$$

     RDKit          3D

 29 29  0  0  0  0  0  0  0  0999 V2000
   -2.9403   -2.1758   -1.2223 C   0  0  0  0  0  0  0  0  0  0  0  0
   -2.4646   -1.6100   -0.2778 C   0  0  0  0  0  0  0  0  0  0  0  0
   -1.8704   -0.9467    0.8353 C   0  0  0  0  0  0  0  0  0  0  0  0
   -2.5590   -0.2802    1.7559 C   0  0  0  0  0  0  0  0  0  0  0  0
   -3.3620   -2.6775   -2.0599 H   0  0  0  0  0  0  0  0  0  0  0  0
   -2.0539    0.2048    2.5806 H   0  0  0  0  0  0  0  0  0  0  0  0
   -3.6377   -0.2026    1.7094 H   0  0  0  0  0  0  0  0  0  0  0  0
    1.4765   -1.0915   -1.4757 C   0  0  0  0  0  0  0  0  0  0  0  0
    1.4765   -1.0915    0.0507 C   0  0  0  0  0  0  0  0  0  0  0  0
    0.5131    0.0433    0.4391 C   0  0  0  0  0  3  0  0  0  0  0  0
    0.9659    0.8819    1.6435 C   0  0  0  0  0  0  0  0  0  0  0  0
    1.7779    2.0201    1.0241 C   0  0  0  0  0  0  0  0  0  0  0  0
    0.9659    2.3797   -0.2208 C   0  0  0  0  0  0  0  0  0  0  0  0
    0.5131    1.0228   -0.7802 C   0  0  0  0  0  0  0  0  0  0  0  0
    1.4765    0.3991   -1.8046 C   0  0  0  0  0  0  0  0  0  0  0  0
    2.3213   -1.6296   -1.9081 H   0  0  0  0  0  0  0  0  0  0  0  0
    0.5606   -1.5583   -1.8508 H   0  0  0  0  0  0  0  0  0  0  0  0
    1.1922   -2.0498    0.4873 H   0  0  0  0  0  0  0  0  0  0  0  0
    2.4846   -0.8589    0.4100 H   0  0  0  0  0  0  0  0  0  0  0  0
   -0.6819   -0.4530    0.6377 H   0  0  0  0  0  0  0  0  0  0  0  0
    0.0981    1.2987    2.1619 H   0  0  0  0  0  0  0  0  0  0  0  0
    1.5290    0.2951    2.3718 H   0  0  0  0  0  0  0  0  0  0  0  0
    2.7690    1.6582    0.7334 H   0  0  0  0  0  0  0  0  0  0  0  0
    1.9258    2.8624    1.7009 H   0  0  0  0  0  0  0  0  0  0  0  0
    0.0981    2.9757    0.0746 H   0  0  0  0  0  0  0  0  0  0  0  0
    1.5290    2.9644   -0.9506 H   0  0  0  0  0  0  0  0  0  0  0  0
   -0.4827    1.0954   -1.2197 H   0  0  0  0  0  0  0  0  0  0  0  0
    1.1922    0.6190   -2.8345 H   0  0  0  0  0  0  0  0  0  0  0  0
    2.4846    0.8001   -1.6549 H   0  0  0  0  0  0  0  0  0  0  0  0
  1  2  3  0
  1  5  1  0
  2  3  1  0
  3  4  2  3
  3 20  1  0
  4  6  1  0
  4  7  1  0
  8 15  1  0
  8  9  1  0
  8 16  1  0
  8 17  1  0
  9 10  1  0
  9 18  1  0
  9 19  1  0
 10 11  1  0
 10 14  1  0
 11 12  1  0
 11 21  1  0
 11 22  1  0
 12 13  1  0
 12 23  1  0
 12 24  1  0
 13 14  1  0
 13 25  1  0
 13 26  1  0
 14 15  1  0
 14 27  1  0
 15 28  1  0
 15 29  1  0
M  RAD  1  10   2
M  END
>  <reaction>  (8) 
rxn_576

>  <mol_properties>  (8) 
{"1": {"label": "*4", "atom_type": "Ct"}, "2": {"label": "*3", "atom_type": "Cd"}, "9": {"label": "*1", "atom_type": "Cs"}, "13": {"label": "*0", "atom_type": "Cs"}, "19": {"label": "*2", "atom_type": "H0"}}

>  <type>  (8) 
unop_4

>  <geom_source>  (8) 
Heuristics

$$$$

     RDKit          3D

 29 29  0  0  0  0  0  0  0  0999 V2000
   -3.6629    0.6088    1.2746 C   0  0  0  0  0  0  0  0  0  0  0  0
   -2.8302   -0.1969    0.9649 C   0  0  0  0  0  0  0  0  0  0  0  0
   -1.8189   -1.1312    0.5954 C   0  0  0  0  0  0  0  0  0  0  0  0
   -2.0307   -2.4349    0.4499 C   0  0  0  0  0  0  0  0  0  0  0  0
   -4.4013    1.3232    1.5491 H   0  0  0  0  0  0  0  0  0  0  0  0
   -1.2238   -3.0979    0.1673 H   0  0  0  0  0  0  0  0  0  0  0  0
   -3.0091   -2.8702    0.6082 H   0  0  0  0  0  0  0  0  0  0  0  0
    1.5280   -1.2760   -1.7157 C   0  0  0  0  0  0  0  0  0  0  0  0
    1.5280   -1.2760   -0.1892 C   0  0  0  0  0  0  0  0  0  0  0  0
    0.5647   -0.1412    0.1991 C   0  0  0  0  0  3  0  0  0  0  0  0
    1.0174    0.6973    1.4036 C   0  0  0  0  0  0  0  0  0  0  0  0
    1.8294    1.8355    0.7842 C   0  0  0  0  0  0  0  0  0  0  0  0
    1.0174    2.1951   -0.4607 C   0  0  0  0  0  0  0  0  0  0  0  0
    0.5647    0.8383   -1.0201 C   0  0  0  0  0  0  0  0  0  0  0  0
    1.5280    0.2146   -2.0445 C   0  0  0  0  0  0  0  0  0  0  0  0
    2.3729   -1.8142   -2.1480 H   0  0  0  0  0  0  0  0  0  0  0  0
    0.6122   -1.7428   -2.0907 H   0  0  0  0  0  0  0  0  0  0  0  0
    1.2437   -2.2343    0.2474 H   0  0  0  0  0  0  0  0  0  0  0  0
    2.5362   -1.0434    0.1701 H   0  0  0  0  0  0  0  0  0  0  0  0
   -0.6304   -0.6376    0.3978 H   0  0  0  0  0  0  0  0  0  0  0  0
    0.1496    1.1141    1.9220 H   0  0  0  0  0  0  0  0  0  0  0  0
    1.5805    0.1106    2.1319 H   0  0  0  0  0  0  0  0  0  0  0  0
    2.8205    1.4737    0.4935 H   0  0  0  0  0  0  0  0  0  0  0  0
    1.9774    2.6779    1.4610 H   0  0  0  0  0  0  0  0  0  0  0  0
    0.1496    2.7912   -0.1654 H   0  0  0  0  0  0  0  0  0  0  0  0
    1.5805    2.7799   -1.1905 H   0  0  0  0  0  0  0  0  0  0  0  0
   -0.4312    0.9109   -1.4596 H   0  0  0  0  0  0  0  0  0  0  0  0
    1.2437    0.4345   -3.0744 H   0  0  0  0  0  0  0  0  0  0  0  0
    2.5362    0.6156   -1.8948 H   0  0  0  0  0  0  0  0  0  0  0  0
  1  2  3  0
  1  5  1  0
  2  3  1  0
  3  4  2  3
  3 20  1  0
  4  6  1  0
  4  7  1  0
  8 15  1  0
  8  9  1  0
  8 16  1  0
  8 17  1  0
  9 10  1  0
  9 18  1  0
  9 19  1  0
 10 11  1  0
 10 14  1  0
 11 12  1  0
 11 21  1  0
 11 22  1  0
 12 13  1  0
 12 23  1  0
 12 24  1  0
 13 14  1  0
 13 25  1  0
 13 26  1  0
 14 15  1  0
 14 27  1  0
 15 28  1  0
 15 29  1  0
M  RAD  1  10   2
M  END
>  <reaction>  (9) 
rxn_576

>  <mol_properties>  (9) 
{"1": {"label": "*4", "atom_type": "Ct"}, "2": {"label": "*3", "atom_type": "Cd"}, "9": {"label": "*1", "atom_type": "Cs"}, "13": {"label": "*0", "atom_type": "Cs"}, "19": {"label": "*2", "atom_type": "H0"}}

>  <type>  (9) 
unop_5

>  <geom_source>  (9) 
Heuristics

$$$$

     RDKit          3D

 29 29  0  0  0  0  0  0  0  0999 V2000
   -3.3857   -1.1614   -1.3015 C   0  0  0  0  0  0  0  0  0  0  0  0
   -2.6894   -1.1090   -0.3263 C   0  0  0  0  0  0  0  0  0  0  0  0
   -1.8371   -1.0559    0.8151 C   0  0  0  0  0  0  0  0  0  0  0  0
   -2.2466   -0.7119    2.0315 C   0  0  0  0  0  0  0  0  0  0  0  0
   -4.0031   -1.2078   -2.1662 H   0  0  0  0  0  0  0  0  0  0  0  0
   -1.5538   -0.6890    2.8622 H   0  0  0  0  0  0  0  0  0  0  0  0
   -3.2775   -0.4460    2.2272 H   0  0  0  0  0  0  0  0  0  0  0  0
    1.5098   -1.2007   -1.4960 C   0  0  0  0  0  0  0  0  0  0  0  0
    1.5098   -1.2007    0.0305 C   0  0  0  0  0  0  0  0  0  0  0  0
    0.5465   -0.0660    0.4188 C   0  0  0  0  0  3  0  0  0  0  0  0
    0.9992    0.7726    1.6233 C   0  0  0  0  0  0  0  0  0  0  0  0
    1.8112    1.9108    1.0039 C   0  0  0  0  0  0  0  0  0  0  0  0
    0.9992    2.2704   -0.2410 C   0  0  0  0  0  0  0  0  0  0  0  0
    0.5465    0.9136   -0.8004 C   0  0  0  0  0  0  0  0  0  0  0  0
    1.5098    0.2899   -1.8248 C   0  0  0  0  0  0  0  0  0  0  0  0
    2.3547   -1.7389   -1.9284 H   0  0  0  0  0  0  0  0  0  0  0  0
    0.5940   -1.6675   -1.8710 H   0  0  0  0  0  0  0  0  0  0  0  0
    1.2255   -2.1591    0.4671 H   0  0  0  0  0  0  0  0  0  0  0  0
    2.5180   -0.9681    0.3897 H   0  0  0  0  0  0  0  0  0  0  0  0
   -0.6486   -0.5623    0.6175 H   0  0  0  0  0  0  0  0  0  0  0  0
    0.1314    1.1894    2.1417 H   0  0  0  0  0  0  0  0  0  0  0  0
    1.5623    0.1859    2.3515 H   0  0  0  0  0  0  0  0  0  0  0  0
    2.8023    1.5490    0.7132 H   0  0  0  0  0  0  0  0  0  0  0  0
    1.9592    2.7531    1.6806 H   0  0  0  0  0  0  0  0  0  0  0  0
    0.1314    2.8665    0.0543 H   0  0  0  0  0  0  0  0  0  0  0  0
    1.5623    2.8552   -0.9709 H   0  0  0  0  0  0  0  0  0  0  0  0
   -0.4494    0.9862   -1.2400 H   0  0  0  0  0  0  0  0  0  0  0  0
    1.2255    0.5098   -2.8547 H   0  0  0  0  0  0  0  0  0  0  0  0
    2.5180    0.6908   -1.6751 H   0  0  0  0  0  0  0  0  0  0  0  0
  1  2  3  0
  1  5  1  0
  2  3  1  0
  3  4  2  3
  3 20  1  0
  4  6  1  0
  4  7  1  0
  8 15  1  0
  8  9  1  0
  8 16  1  0
  8 17  1  0
  9 10  1  0
  9 18  1  0
  9 19  1  0
 10 11  1  0
 10 14  1  0
 11 12  1  0
 11 21  1  0
 11 22  1  0
 12 13  1  0
 12 23  1  0
 12 24  1  0
 13 14  1  0
 13 25  1  0
 13 26  1  0
 14 15  1  0
 14 27  1  0
 15 28  1  0
 15 29  1  0
M  RAD  1  10   2
M  END
>  <reaction>  (10) 
rxn_576

>  <mol_properties>  (10) 
{"1": {"label": "*4", "atom_type": "Ct"}, "2": {"label": "*3", "atom_type": "Cd"}, "9": {"label": "*1", "atom_type": "Cs"}, "13": {"label": "*0", "atom_type": "Cs"}, "19": {"label": "*2", "atom_type": "H0"}}

>  <type>  (10) 
unop_6

>  <geom_source>  (10) 
Heuristics

$$$$

     RDKit          3D

 29 29  0  0  0  0  0  0  0  0999 V2000
   -3.7091   -0.1988   -0.8262 C   0  0  0  0  0  0  0  0  0  0  0  0
   -2.8550   -0.6248   -0.0999 C   0  0  0  0  0  0  0  0  0  0  0  0
   -1.8200   -1.1326    0.7385 C   0  0  0  0  0  0  0  0  0  0  0  0
   -1.9600   -1.3480    2.0423 C   0  0  0  0  0  0  0  0  0  0  0  0
   -4.4664    0.1790   -1.4702 H   0  0  0  0  0  0  0  0  0  0  0  0
   -1.1384   -1.7356    2.6299 H   0  0  0  0  0  0  0  0  0  0  0  0
   -2.8927   -1.1441    2.5524 H   0  0  0  0  0  0  0  0  0  0  0  0
    1.5269   -1.2774   -1.5725 C   0  0  0  0  0  0  0  0  0  0  0  0
    1.5269   -1.2774   -0.0461 C   0  0  0  0  0  0  0  0  0  0  0  0
    0.5636   -0.1427    0.3423 C   0  0  0  0  0  3  0  0  0  0  0  0
    1.0163    0.6959    1.5467 C   0  0  0  0  0  0  0  0  0  0  0  0
    1.8283    1.8341    0.9274 C   0  0  0  0  0  0  0  0  0  0  0  0
    1.0163    2.1937   -0.3175 C   0  0  0  0  0  0  0  0  0  0  0  0
    0.5636    0.8369   -0.8769 C   0  0  0  0  0  0  0  0  0  0  0  0
    1.5269    0.2132   -1.9014 C   0  0  0  0  0  0  0  0  0  0  0  0
    2.3718   -1.8156   -2.0049 H   0  0  0  0  0  0  0  0  0  0  0  0
    0.6111   -1.7443   -1.9476 H   0  0  0  0  0  0  0  0  0  0  0  0
    1.2426   -2.2358    0.3905 H   0  0  0  0  0  0  0  0  0  0  0  0
    2.5351   -1.0448    0.3132 H   0  0  0  0  0  0  0  0  0  0  0  0
   -0.6315   -0.6390    0.5410 H   0  0  0  0  0  0  0  0  0  0  0  0
    0.1485    1.1127    2.0652 H   0  0  0  0  0  0  0  0  0  0  0  0
    1.5794    0.1092    2.2750 H   0  0  0  0  0  0  0  0  0  0  0  0
    2.8194    1.4722    0.6366 H   0  0  0  0  0  0  0  0  0  0  0  0
    1.9763    2.6764    1.6041 H   0  0  0  0  0  0  0  0  0  0  0  0
    0.1485    2.7898   -0.0222 H   0  0  0  0  0  0  0  0  0  0  0  0
    1.5794    2.7785   -1.0474 H   0  0  0  0  0  0  0  0  0  0  0  0
   -0.4323    0.9094   -1.3165 H   0  0  0  0  0  0  0  0  0  0  0  0
    1.2426    0.4330   -2.9313 H   0  0  0  0  0  0  0  0  0  0  0  0
    2.5351    0.6141   -1.7517 H   0  0  0  0  0  0  0  0  0  0  0  0
  1  2  3  0
  1  5  1  0
  2  3  1  0
  3  4  2  3
  3 20  1  0
  4  6  1  0
  4  7  1  0
  8 15  1  0
  8  9  1  0
  8 16  1  0
  8 17  1  0
  9 10  1  0
  9 18  1  0
  9 19  1  0
 10 11  1  0
 10 14  1  0
 11 12  1  0
 11 21  1  0
 11 22  1  0
 12 13  1  0
 12 23  1  0
 12 24  1  0
 13 14  1  0
 13 25  1  0
 13 26  1  0
 14 15  1  0
 14 27  1  0
 15 28  1  0
 15 29  1  0
M  RAD  1  10   2
M  END
>  <reaction>  (11) 
rxn_576

>  <mol_properties>  (11) 
{"1": {"label": "*4", "atom_type": "Ct"}, "2": {"label": "*3", "atom_type": "Cd"}, "9": {"label": "*1", "atom_type": "Cs"}, "13": {"label": "*0", "atom_type": "Cs"}, "19": {"label": "*2", "atom_type": "H0"}}

>  <type>  (11) 
unop_7

>  <geom_source>  (11) 
Heuristics

$$$$

     RDKit          3D

 29 29  0  0  0  0  0  0  0  0999 V2000
   -2.4307   -1.7843    2.8874 C   0  0  0  0  0  0  0  0  0  0  0  0
   -2.2125   -1.4201    1.7657 C   0  0  0  0  0  0  0  0  0  0  0  0
   -1.9238   -0.9993    0.4346 C   0  0  0  0  0  0  0  0  0  0  0  0
   -2.7884   -0.3585   -0.3449 C   0  0  0  0  0  0  0  0  0  0  0  0
   -2.6241   -2.1071    3.8821 H   0  0  0  0  0  0  0  0  0  0  0  0
   -2.5139   -0.0629   -1.3487 H   0  0  0  0  0  0  0  0  0  0  0  0
   -3.7858   -0.1145   -0.0023 H   0  0  0  0  0  0  0  0  0  0  0  0
    1.4231   -1.1441   -1.8765 C   0  0  0  0  0  0  0  0  0  0  0  0
    1.4231   -1.1441   -0.3500 C   0  0  0  0  0  0  0  0  0  0  0  0
    0.4597   -0.0094    0.0383 C   0  0  0  0  0  3  0  0  0  0  0  0
    0.9125    0.8292    1.2428 C   0  0  0  0  0  0  0  0  0  0  0  0
    1.7245    1.9674    0.6234 C   0  0  0  0  0  0  0  0  0  0  0  0
    0.9125    2.3270   -0.6215 C   0  0  0  0  0  0  0  0  0  0  0  0
    0.4597    0.9702   -1.1809 C   0  0  0  0  0  0  0  0  0  0  0  0
    1.4231    0.3465   -2.2053 C   0  0  0  0  0  0  0  0  0  0  0  0
    2.2679   -1.6823   -2.3088 H   0  0  0  0  0  0  0  0  0  0  0  0
    0.5072   -1.6110   -2.2515 H   0  0  0  0  0  0  0  0  0  0  0  0
    1.1388   -2.1025    0.0866 H   0  0  0  0  0  0  0  0  0  0  0  0
    2.4312   -0.9116    0.0093 H   0  0  0  0  0  0  0  0  0  0  0  0
   -0.7353   -0.5057    0.2370 H   0  0  0  0  0  0  0  0  0  0  0  0
    0.0447    1.2460    1.7612 H   0  0  0  0  0  0  0  0  0  0  0  0
    1.4756    0.2425    1.9711 H   0  0  0  0  0  0  0  0  0  0  0  0
    2.7156    1.6055    0.3327 H   0  0  0  0  0  0  0  0  0  0  0  0
    1.8724    2.8097    1.3002 H   0  0  0  0  0  0  0  0  0  0  0  0
    0.0447    2.9230   -0.3262 H   0  0  0  0  0  0  0  0  0  0  0  0
    1.4756    2.9118   -1.3513 H   0  0  0  0  0  0  0  0  0  0  0  0
   -0.5361    1.0427   -1.6204 H   0  0  0  0  0  0  0  0  0  0  0  0
    1.1388    0.5663   -3.2352 H   0  0  0  0  0  0  0  0  0  0  0  0
    2.4312    0.7474   -2.0556 H   0  0  0  0  0  0  0  0  0  0  0  0
  1  2  3  0
  1  5  1  0
  2  3  1  0
  3  4  2  3
  3 20  1  0
  4  6  1  0
  4  7  1  0
  8 15  1  0
  8  9  1  0
  8 16  1  0
  8 17  1  0
  9 10  1  0
  9 18  1  0
  9 19  1  0
 10 11  1  0
 10 14  1  0
 11 12  1  0
 11 21  1  0
 11 22  1  0
 12 13  1  0
 12 23  1  0
 12 24  1  0
 13 14  1  0
 13 25  1  0
 13 26  1  0
 14 15  1  0
 14 27  1  0
 15 28  1  0
 15 29  1  0
M  RAD  1  10   2
M  END
>  <reaction>  (12) 
rxn_576

>  <mol_properties>  (12) 
{"1": {"label": "*4", "atom_type": "Ct"}, "2": {"label": "*3", "atom_type": "Cd"}, "9": {"label": "*1", "atom_type": "Cs"}, "13": {"label": "*0", "atom_type": "Cs"}, "19": {"label": "*2", "atom_type": "H0"}}

>  <type>  (12) 
unop_8

>  <geom_source>  (12) 
Heuristics

$$$$

     RDKit          3D

 29 29  0  0  0  0  0  0  0  0999 V2000
   -2.4926   -2.9826   -0.6219 C   0  0  0  0  0  0  0  0  0  0  0  0
   -2.2412   -2.0033    0.0233 C   0  0  0  0  0  0  0  0  0  0  0  0
   -1.9115   -0.8439    0.7845 C   0  0  0  0  0  0  0  0  0  0  0  0
   -2.8098   -0.0701    1.3844 C   0  0  0  0  0  0  0  0  0  0  0  0
   -2.7155   -3.8510   -1.1939 H   0  0  0  0  0  0  0  0  0  0  0  0
   -2.5011    0.7990    1.9500 H   0  0  0  0  0  0  0  0  0  0  0  0
   -3.8694   -0.2837    1.3263 H   0  0  0  0  0  0  0  0  0  0  0  0
    1.4354   -0.9887   -1.5266 C   0  0  0  0  0  0  0  0  0  0  0  0
    1.4354   -0.9887   -0.0002 C   0  0  0  0  0  0  0  0  0  0  0  0
    0.4721    0.1460    0.3882 C   0  0  0  0  0  3  0  0  0  0  0  0
    0.9248    0.9846    1.5926 C   0  0  0  0  0  0  0  0  0  0  0  0
    1.7368    2.1228    0.9733 C   0  0  0  0  0  0  0  0  0  0  0  0
    0.9248    2.4824   -0.2716 C   0  0  0  0  0  0  0  0  0  0  0  0
    0.4721    1.1256   -0.8310 C   0  0  0  0  0  0  0  0  0  0  0  0
    1.4354    0.5019   -1.8555 C   0  0  0  0  0  0  0  0  0  0  0  0
    2.2803   -1.5269   -1.9590 H   0  0  0  0  0  0  0  0  0  0  0  0
    0.5196   -1.4556   -1.9017 H   0  0  0  0  0  0  0  0  0  0  0  0
    1.1511   -1.9471    0.4364 H   0  0  0  0  0  0  0  0  0  0  0  0
    2.4436   -0.7561    0.3591 H   0  0  0  0  0  0  0  0  0  0  0  0
   -0.7230   -0.3503    0.5869 H   0  0  0  0  0  0  0  0  0  0  0  0
    0.0570    1.4014    2.1111 H   0  0  0  0  0  0  0  0  0  0  0  0
    1.4879    0.3979    2.3209 H   0  0  0  0  0  0  0  0  0  0  0  0
    2.7279    1.7609    0.6825 H   0  0  0  0  0  0  0  0  0  0  0  0
    1.8848    2.9651    1.6500 H   0  0  0  0  0  0  0  0  0  0  0  0
    0.0570    3.0785    0.0237 H   0  0  0  0  0  0  0  0  0  0  0  0
    1.4879    3.0672   -1.0015 H   0  0  0  0  0  0  0  0  0  0  0  0
   -0.5238    1.1981   -1.2706 H   0  0  0  0  0  0  0  0  0  0  0  0
    1.1511    0.7217   -2.8854 H   0  0  0  0  0  0  0  0  0  0  0  0
    2.4436    0.9028   -1.7058 H   0  0  0  0  0  0  0  0  0  0  0  0
  1  2  3  0
  1  5  1  0
  2  3  1  0
  3  4  2  3
  3 20  1  0
  4  6  1  0
  4  7  1  0
  8 15  1  0
  8  9  1  0
  8 16  1  0
  8 17  1  0
  9 10  1  0
  9 18  1  0
  9 19  1  0
 10 11  1  0
 10 14  1  0
 11 12  1  0
 11 21  1  0
 11 22  1  0
 12 13  1  0
 12 23  1  0
 12 24  1  0
 13 14  1  0
 13 25  1  0
 13 26  1  0
 14 15  1  0
 14 27  1  0
 15 28  1  0
 15 29  1  0
M  RAD  1  10   2
M  END
>  <reaction>  (13) 
rxn_576

>  <mol_properties>  (13) 
{"1": {"label": "*4", "atom_type": "Ct"}, "2": {"label": "*3", "atom_type": "Cd"}, "9": {"label": "*1", "atom_type": "Cs"}, "13": {"label": "*0", "atom_type": "Cs"}, "19": {"label": "*2", "atom_type": "H0"}}

>  <type>  (13) 
unop_9

>  <geom_source>  (13) 
Heuristics

$$$$

     RDKit          3D

 29 29  0  0  0  0  0  0  0  0999 V2000
   -2.1260   -2.7069    2.3492 C   0  0  0  0  0  0  0  0  0  0  0  0
   -2.0617   -1.8728    1.4897 C   0  0  0  0  0  0  0  0  0  0  0  0
   -1.9557   -0.8911    0.4616 C   0  0  0  0  0  0  0  0  0  0  0  0
   -2.9263   -0.0407    0.1449 C   0  0  0  0  0  0  0  0  0  0  0  0
   -2.1830   -3.4464    3.1113 H   0  0  0  0  0  0  0  0  0  0  0  0
   -2.7896    0.6846   -0.6462 H   0  0  0  0  0  0  0  0  0  0  0  0
   -3.8760   -0.0472    0.6643 H   0  0  0  0  0  0  0  0  0  0  0  0
    1.3913   -1.0359   -1.8495 C   0  0  0  0  0  0  0  0  0  0  0  0
    1.3913   -1.0359   -0.3231 C   0  0  0  0  0  0  0  0  0  0  0  0
    0.4279    0.0989    0.0653 C   0  0  0  0  0  3  0  0  0  0  0  0
    0.8807    0.9374    1.2697 C   0  0  0  0  0  0  0  0  0  0  0  0
    1.6927    2.0756    0.6504 C   0  0  0  0  0  0  0  0  0  0  0  0
    0.8807    2.4352   -0.5945 C   0  0  0  0  0  0  0  0  0  0  0  0
    0.4279    1.0784   -1.1539 C   0  0  0  0  0  0  0  0  0  0  0  0
    1.3913    0.4547   -2.1784 C   0  0  0  0  0  0  0  0  0  0  0  0
    2.2361   -1.5741   -2.2819 H   0  0  0  0  0  0  0  0  0  0  0  0
    0.4754   -1.5027   -2.2246 H   0  0  0  0  0  0  0  0  0  0  0  0
    1.1069   -1.9942    0.1135 H   0  0  0  0  0  0  0  0  0  0  0  0
    2.3994   -0.8033    0.0362 H   0  0  0  0  0  0  0  0  0  0  0  0
   -0.7671   -0.3975    0.2640 H   0  0  0  0  0  0  0  0  0  0  0  0
    0.0128    1.3542    1.7882 H   0  0  0  0  0  0  0  0  0  0  0  0
    1.4437    0.3507    1.9980 H   0  0  0  0  0  0  0  0  0  0  0  0
    2.6838    1.7138    0.3596 H   0  0  0  0  0  0  0  0  0  0  0  0
    1.8406    2.9180    1.3271 H   0  0  0  0  0  0  0  0  0  0  0  0
    0.0128    3.0313   -0.2992 H   0  0  0  0  0  0  0  0  0  0  0  0
    1.4437    3.0200   -1.3244 H   0  0  0  0  0  0  0  0  0  0  0  0
   -0.5680    1.1510   -1.5935 H   0  0  0  0  0  0  0  0  0  0  0  0
    1.1069    0.6746   -3.2083 H   0  0  0  0  0  0  0  0  0  0  0  0
    2.3994    0.8557   -2.0287 H   0  0  0  0  0  0  0  0  0  0  0  0
  1  2  3  0
  1  5  1  0
  2  3  1  0
  3  4  2  3
  3 20  1  0
  4  6  1  0
  4  7  1  0
  8 15  1  0
  8  9  1  0
  8 16  1  0
  8 17  1  0
  9 10  1  0
  9 18  1  0
  9 19  1  0
 10 11  1  0
 10 14  1  0
 11 12  1  0
 11 21  1  0
 11 22  1  0
 12 13  1  0
 12 23  1  0
 12 24  1  0
 13 14  1  0
 13 25  1  0
 13 26  1  0
 14 15  1  0
 14 27  1  0
 15 28  1  0
 15 29  1  0
M  RAD  1  10   2
M  END
>  <reaction>  (14) 
rxn_576

>  <mol_properties>  (14) 
{"1": {"label": "*4", "atom_type": "Ct"}, "2": {"label": "*3", "atom_type": "Cd"}, "9": {"label": "*1", "atom_type": "Cs"}, "13": {"label": "*0", "atom_type": "Cs"}, "19": {"label": "*2", "atom_type": "H0"}}

>  <type>  (14) 
unop_10

>  <geom_source>  (14) 
Heuristics

$$$$

     RDKit          3D

 29 29  0  0  0  0  0  0  0  0999 V2000
   -3.8163    0.4615    0.0999 C   0  0  0  0  0  0  0  0  0  0  0  0
   -2.9110   -0.2812    0.3594 C   0  0  0  0  0  0  0  0  0  0  0  0
   -1.8178   -1.1505    0.6449 C   0  0  0  0  0  0  0  0  0  0  0  0
   -1.8357   -2.0769    1.5973 C   0  0  0  0  0  0  0  0  0  0  0  0
   -4.6189    1.1201   -0.1303 H   0  0  0  0  0  0  0  0  0  0  0  0
   -0.9751   -2.7096    1.7694 H   0  0  0  0  0  0  0  0  0  0  0  0
   -2.7048   -2.2260    2.2252 H   0  0  0  0  0  0  0  0  0  0  0  0
    1.5291   -1.2953   -1.6662 C   0  0  0  0  0  0  0  0  0  0  0  0
    1.5291   -1.2953   -0.1397 C   0  0  0  0  0  0  0  0  0  0  0  0
    0.5658   -0.1605    0.2486 C   0  0  0  0  0  3  0  0  0  0  0  0
    1.0185    0.6781    1.4531 C   0  0  0  0  0  0  0  0  0  0  0  0
    1.8305    1.8163    0.8337 C   0  0  0  0  0  0  0  0  0  0  0  0
    1.0185    2.1759   -0.4112 C   0  0  0  0  0  0  0  0  0  0  0  0
    0.5658    0.8191   -0.9706 C   0  0  0  0  0  0  0  0  0  0  0  0
    1.5291    0.1953   -1.9950 C   0  0  0  0  0  0  0  0  0  0  0  0
    2.3740   -1.8334   -2.0986 H   0  0  0  0  0  0  0  0  0  0  0  0
    0.6133   -1.7621   -2.0413 H   0  0  0  0  0  0  0  0  0  0  0  0
    1.2448   -2.2536    0.2968 H   0  0  0  0  0  0  0  0  0  0  0  0
    2.5373   -1.0627    0.2195 H   0  0  0  0  0  0  0  0  0  0  0  0
   -0.6293   -0.6568    0.4473 H   0  0  0  0  0  0  0  0  0  0  0  0
    0.1507    1.0949    1.9715 H   0  0  0  0  0  0  0  0  0  0  0  0
    1.5816    0.0913    2.1813 H   0  0  0  0  0  0  0  0  0  0  0  0
    2.8216    1.4544    0.5430 H   0  0  0  0  0  0  0  0  0  0  0  0
    1.9784    2.6586    1.5104 H   0  0  0  0  0  0  0  0  0  0  0  0
    0.1507    2.7719   -0.1159 H   0  0  0  0  0  0  0  0  0  0  0  0
    1.5816    2.7606   -1.1411 H   0  0  0  0  0  0  0  0  0  0  0  0
   -0.4301    0.8916   -1.4102 H   0  0  0  0  0  0  0  0  0  0  0  0
    1.2448    0.4152   -3.0249 H   0  0  0  0  0  0  0  0  0  0  0  0
    2.5373    0.5963   -1.8453 H   0  0  0  0  0  0  0  0  0  0  0  0
  1  2  3  0
  1  5  1  0
  2  3  1  0
  3  4  2  3
  3 20  1  0
  4  6  1  0
  4  7  1  0
  8 15  1  0
  8  9  1  0
  8 16  1  0
  8 17  1  0
  9 10  1  0
  9 18  1  0
  9 19  1  0
 10 11  1  0
 10 14  1  0
 11 12  1  0
 11 21  1  0
 11 22  1  0
 12 13  1  0
 12 23  1  0
 12 24  1  0
 13 14  1  0
 13 25  1  0
 13 26  1  0
 14 15  1  0
 14 27  1  0
 15 28  1  0
 15 29  1  0
M  RAD  1  10   2
M  END
>  <reaction>  (15) 
rxn_576

>  <mol_properties>  (15) 
{"1": {"label": "*4", "atom_type": "Ct"}, "2": {"label": "*3", "atom_type": "Cd"}, "9": {"label": "*1", "atom_type": "Cs"}, "13": {"label": "*0", "atom_type": "Cs"}, "19": {"label": "*2", "atom_type": "H0"}}

>  <type>  (15) 
unop_11

>  <geom_source>  (15) 
Heuristics

$$$$

     RDKit          3D

 29 29  0  0  0  0  0  0  0  0999 V2000
   -2.1602   -3.3841    0.3382 C   0  0  0  0  0  0  0  0  0  0  0  0
   -2.0771   -2.1980    0.4956 C   0  0  0  0  0  0  0  0  0  0  0  0
   -1.9474   -0.7898    0.6755 C   0  0  0  0  0  0  0  0  0  0  0  0
   -2.9506    0.0092    1.0230 C   0  0  0  0  0  0  0  0  0  0  0  0
   -2.2339   -4.4358    0.1987 H   0  0  0  0  0  0  0  0  0  0  0  0
   -2.7934    1.0727    1.1453 H   0  0  0  0  0  0  0  0  0  0  0  0
   -3.9478   -0.3759    1.1931 H   0  0  0  0  0  0  0  0  0  0  0  0
    1.3996   -0.9346   -1.6356 C   0  0  0  0  0  0  0  0  0  0  0  0
    1.3996   -0.9346   -0.1092 C   0  0  0  0  0  0  0  0  0  0  0  0
    0.4362    0.2001    0.2792 C   0  0  0  0  0  3  0  0  0  0  0  0
    0.8890    1.0387    1.4836 C   0  0  0  0  0  0  0  0  0  0  0  0
    1.7010    2.1769    0.8643 C   0  0  0  0  0  0  0  0  0  0  0  0
    0.8890    2.5365   -0.3806 C   0  0  0  0  0  0  0  0  0  0  0  0
    0.4362    1.1797   -0.9400 C   0  0  0  0  0  0  0  0  0  0  0  0
    1.3996    0.5560   -1.9645 C   0  0  0  0  0  0  0  0  0  0  0  0
    2.2444   -1.4728   -2.0680 H   0  0  0  0  0  0  0  0  0  0  0  0
    0.4837   -1.4014   -2.0107 H   0  0  0  0  0  0  0  0  0  0  0  0
    1.1152   -1.8930    0.3274 H   0  0  0  0  0  0  0  0  0  0  0  0
    2.4077   -0.7020    0.2501 H   0  0  0  0  0  0  0  0  0  0  0  0
   -0.7588   -0.2962    0.4779 H   0  0  0  0  0  0  0  0  0  0  0  0
    0.0212    1.4555    2.0021 H   0  0  0  0  0  0  0  0  0  0  0  0
    1.4521    0.4520    2.2119 H   0  0  0  0  0  0  0  0  0  0  0  0
    2.6921    1.8151    0.5735 H   0  0  0  0  0  0  0  0  0  0  0  0
    1.8489    3.0192    1.5410 H   0  0  0  0  0  0  0  0  0  0  0  0
    0.0212    3.1326   -0.0853 H   0  0  0  0  0  0  0  0  0  0  0  0
    1.4521    3.1213   -1.1105 H   0  0  0  0  0  0  0  0  0  0  0  0
   -0.5597    1.2523   -1.3796 H   0  0  0  0  0  0  0  0  0  0  0  0
    1.1152    0.7759   -2.9944 H   0  0  0  0  0  0  0  0  0  0  0  0
    2.4077    0.9569   -1.8148 H   0  0  0  0  0  0  0  0  0  0  0  0
  1  2  3  0
  1  5  1  0
  2  3  1  0
  3  4  2  3
  3 20  1  0
  4  6  1  0
  4  7  1  0
  8 15  1  0
  8  9  1  0
  8 16  1  0
  8 17  1  0
  9 10  1  0
  9 18  1  0
  9 19  1  0
 10 11  1  0
 10 14  1  0
 11 12  1  0
 11 21  1  0
 11 22  1  0
 12 13  1  0
 12 23  1  0
 12 24  1  0
 13 14  1  0
 13 25  1  0
 13 26  1  0
 14 15  1  0
 14 27  1  0
 15 28  1  0
 15 29  1  0
M  RAD  1  10   2
M  END
>  <reaction>  (16) 
rxn_576

>  <mol_properties>  (16) 
{"1": {"label": "*4", "atom_type": "Ct"}, "2": {"label": "*3", "atom_type": "Cd"}, "9": {"label": "*1", "atom_type": "Cs"}, "13": {"label": "*0", "atom_type": "Cs"}, "19": {"label": "*2", "atom_type": "H0"}}

>  <type>  (16) 
unop_12

>  <geom_source>  (16) 
Heuristics

$$$$

     RDKit          3D

 29 29  0  0  0  0  0  0  0  0999 V2000
   -0.9742   -0.9241    0.8526 C   0  0  0  0  0  0  0  0  0  0  0  0
   -2.3785   -0.4357    1.2222 C   0  0  0  0  0  0  0  0  0  0  0  0
   -0.9394   -2.0880   -0.1430 C   0  0  0  0  0  0  0  0  0  0  0  0
   -2.2889    1.0815    1.2200 C   0  0  0  0  0  0  0  0  0  0  0  0
    0.1759   -1.7484   -1.1181 C   0  0  0  0  0  0  0  0  0  0  0  0
   -1.2414    1.4201    0.1725 C   0  0  0  0  0  0  0  0  0  0  0  0
    0.1964   -0.2307   -1.1914 C   0  0  0  0  0  0  0  0  0  0  0  0
   -0.2645    0.2444    0.1865 C   0  0  0  0  0  3  0  0  0  0  0  0
    2.2552    0.5440   -0.3029 C   0  0  0  0  0  0  0  0  0  0  0  0
    2.9745   -0.0274   -1.2616 C   0  0  0  0  0  0  0  0  0  0  0  0
    2.7591    1.6808    0.4193 C   0  0  0  0  0  0  0  0  0  0  0  0
    3.1805    2.6340    1.0253 C   0  0  0  0  0  0  0  0  0  0  0  0
   -0.4092   -1.1922    1.7726 H   0  0  0  0  0  0  0  0  0  0  0  0
   -3.1375   -0.7480    0.4720 H   0  0  0  0  0  0  0  0  0  0  0  0
   -2.6851   -0.8153    2.2208 H   0  0  0  0  0  0  0  0  0  0  0  0
   -1.9474    1.4362    2.2179 H   0  0  0  0  0  0  0  0  0  0  0  0
   -3.2695    1.5474    0.9809 H   0  0  0  0  0  0  0  0  0  0  0  0
   -0.7375   -3.0514    0.3733 H   0  0  0  0  0  0  0  0  0  0  0  0
   -1.8917   -2.1782   -0.7098 H   0  0  0  0  0  0  0  0  0  0  0  0
    1.1465   -2.1161   -0.7171 H   0  0  0  0  0  0  0  0  0  0  0  0
   -0.0038   -2.2021   -2.1170 H   0  0  0  0  0  0  0  0  0  0  0  0
   -0.7139    2.3637    0.4265 H   0  0  0  0  0  0  0  0  0  0  0  0
   -1.7423    1.5351   -0.8135 H   0  0  0  0  0  0  0  0  0  0  0  0
   -0.4924    0.1000   -1.9991 H   0  0  0  0  0  0  0  0  0  0  0  0
    1.2191    0.1443   -1.4072 H   0  0  0  0  0  0  0  0  0  0  0  0
    1.1238    0.0908   -0.0208 H   0  0  0  0  0  0  0  0  0  0  0  0
    2.5788   -0.8819   -1.7941 H   0  0  0  0  0  0  0  0  0  0  0  0
    3.9569    0.3468   -1.5242 H   0  0  0  0  0  0  0  0  0  0  0  0
    3.5506    3.4707    1.5573 H   0  0  0  0  0  0  0  0  0  0  0  0
  1  2  1  0
  1  3  1  0
  1  8  1  0
  1 13  1  0
  2  4  1  0
  2 14  1  0
  2 15  1  0
  3  5  1  0
  3 18  1  0
  3 19  1  0
  4  6  1  0
  4 16  1  0
  4 17  1  0
  5  7  1  0
  5 20  1  0
  5 21  1  0
  6  8  1  0
  6 22  1  0
  6 23  1  0
  7  8  1  0
  7 24  1  0
  7 25  1  0
  9 10  2  3
  9 11  1  0
  9 26  1  0
 10 27  1  0
 10 28  1  0
 11 12  3  0
 12 29  1  0
M  RAD  1   8   2
M  END
>  <reaction>  (17) 
rxn_576

>  <mol_properties>  (17) 
{"1": {"label": "*4", "atom_type": "Ct"}, "2": {"label": "*3", "atom_type": "Cd"}, "9": {"label": "*1", "atom_type": "Cs"}, "13": {"label": "*0", "atom_type": "Cs"}, "19": {"label": "*2", "atom_type": "H0"}}

>  <type>  (17) 
unop_13

>  <geom_source>  (17) 
AutoTST

$$$$

     RDKit          3D

 29 29  0  0  0  0  0  0  0  0999 V2000
   -2.0275   -3.2860    1.4181 C   0  0  0  0  0  0  0  0  0  0  0  0
   -2.0125   -2.1524    1.0264 C   0  0  0  0  0  0  0  0  0  0  0  0
   -1.9647   -0.8093    0.5513 C   0  0  0  0  0  0  0  0  0  0  0  0
   -2.9819    0.0421    0.6297 C   0  0  0  0  0  0  0  0  0  0  0  0
   -2.0407   -4.2910    1.7655 H   0  0  0  0  0  0  0  0  0  0  0  0
   -2.8883    1.0515    0.2517 H   0  0  0  0  0  0  0  0  0  0  0  0
   -3.9277   -0.2457    1.0705 H   0  0  0  0  0  0  0  0  0  0  0  0
    1.3823   -0.9540   -1.7598 C   0  0  0  0  0  0  0  0  0  0  0  0
    1.3823   -0.9540   -0.2333 C   0  0  0  0  0  0  0  0  0  0  0  0
    0.4189    0.1807    0.1550 C   0  0  0  0  0  3  0  0  0  0  0  0
    0.8717    1.0193    1.3595 C   0  0  0  0  0  0  0  0  0  0  0  0
    1.6837    2.1575    0.7401 C   0  0  0  0  0  0  0  0  0  0  0  0
    0.8717    2.5171   -0.5048 C   0  0  0  0  0  0  0  0  0  0  0  0
    0.4189    1.1603   -1.0642 C   0  0  0  0  0  0  0  0  0  0  0  0
    1.3823    0.5365   -2.0886 C   0  0  0  0  0  0  0  0  0  0  0  0
    2.2271   -1.4922   -2.1922 H   0  0  0  0  0  0  0  0  0  0  0  0
    0.4664   -1.4209   -2.1348 H   0  0  0  0  0  0  0  0  0  0  0  0
    1.0980   -1.9124    0.2033 H   0  0  0  0  0  0  0  0  0  0  0  0
    2.3904   -0.7215    0.1260 H   0  0  0  0  0  0  0  0  0  0  0  0
   -0.7761   -0.3156    0.3537 H   0  0  0  0  0  0  0  0  0  0  0  0
    0.0039    1.4361    1.8779 H   0  0  0  0  0  0  0  0  0  0  0  0
    1.4348    0.4325    2.0877 H   0  0  0  0  0  0  0  0  0  0  0  0
    2.6748    1.7956    0.4494 H   0  0  0  0  0  0  0  0  0  0  0  0
    1.8316    2.9998    1.4168 H   0  0  0  0  0  0  0  0  0  0  0  0
    0.0039    3.1131   -0.2095 H   0  0  0  0  0  0  0  0  0  0  0  0
    1.4348    3.1018   -1.2347 H   0  0  0  0  0  0  0  0  0  0  0  0
   -0.5769    1.2328   -1.5038 H   0  0  0  0  0  0  0  0  0  0  0  0
    1.0980    0.7564   -3.1185 H   0  0  0  0  0  0  0  0  0  0  0  0
    2.3904    0.9375   -1.9389 H   0  0  0  0  0  0  0  0  0  0  0  0
  1  2  3  0
  1  5  1  0
  2  3  1  0
  3  4  2  3
  3 20  1  0
  4  6  1  0
  4  7  1  0
  8 15  1  0
  8  9  1  0
  8 16  1  0
  8 17  1  0
  9 10  1  0
  9 18  1  0
  9 19  1  0
 10 11  1  0
 10 14  1  0
 11 12  1  0
 11 21  1  0
 11 22  1  0
 12 13  1  0
 12 23  1  0
 12 24  1  0
 13 14  1  0
 13 25  1  0
 13 26  1  0
 14 15  1  0
 14 27  1  0
 15 28  1  0
 15 29  1  0
M  RAD  1  10   2
M  END
>  <reaction>  (18) 
rxn_576

>  <mol_properties>  (18) 
{"1": {"label": "*4", "atom_type": "Ct"}, "2": {"label": "*3", "atom_type": "Cd"}, "9": {"label": "*1", "atom_type": "Cs"}, "13": {"label": "*0", "atom_type": "Cs"}, "19": {"label": "*2", "atom_type": "H0"}}

>  <type>  (18) 
unop_14

>  <geom_source>  (18) 
gaussian_log

$$$$
