
     RDKit          3D

 16 15  0  0  0  0  0  0  0  0999 V2000
    1.7961   -0.3807    1.6176 C   0  0  0  0  0  0  0  0  0  0  0  0
    0.8562   -0.8708    0.8256 C   0  0  0  0  0  0  0  0  0  0  0  0
    0.0895   -0.0826   -0.2048 C   0  0  0  0  0  0  0  0  0  0  0  0
   -1.4061   -0.1111    0.0982 C   0  0  0  0  0  0  0  0  0  0  0  0
    0.4476   -0.5902   -1.5797 C   0  0  0  0  0  0  0  0  0  0  0  0
   -0.3793   -1.1113   -2.4728 C   0  0  0  0  0  0  0  0  0  0  0  0
    2.3110   -1.0032    2.3386 H   0  0  0  0  0  0  0  0  0  0  0  0
    2.0846    0.6643    1.5737 H   0  0  0  0  0  0  0  0  0  0  0  0
    0.5921   -1.9241    0.8925 H   0  0  0  0  0  0  0  0  0  0  0  0
    0.4358    0.9557   -0.1462 H   0  0  0  0  0  0  0  0  0  0  0  0
   -1.5968    0.3080    1.0865 H   0  0  0  0  0  0  0  0  0  0  0  0
   -1.9674    0.4693   -0.6359 H   0  0  0  0  0  0  0  0  0  0  0  0
   -1.7902   -1.1338    0.0883 H   0  0  0  0  0  0  0  0  0  0  0  0
    1.5049   -0.5197   -1.8214 H   0  0  0  0  0  0  0  0  0  0  0  0
   -1.4421   -1.2131   -2.2889 H   0  0  0  0  0  0  0  0  0  0  0  0
   -0.0162   -1.4558   -3.4328 H   0  0  0  0  0  0  0  0  0  0  0  0
  1  2  2  3
  1  7  1  0
  1  8  1  0
  2  3  1  0
  2  9  1  0
  3  4  1  0
  3  5  1  0
  3 10  1  0
  4 11  1  0
  4 12  1  0
  4 13  1  0
  5  6  2  3
  5 14  1  0
  6 15  1  0
  6 16  1  0
M  END
>  <reaction>  (1) 
rxn_1191

>  <mol_properties>  (1) 
{"2": {"label": "donator", "atom_type": "Cs"}, "9": {"label": "d_hydrogen", "atom_type": "H0"}}

>  <type>  (1) 
r1h

$$$$

     RDKit          3D

  5  4  0  0  0  0  0  0  0  0999 V2000
   -0.5642    0.0794    0.0348 C   0  0  0  0  0  3  0  0  0  0  0  0
    1.0624    0.5420    0.2853 S   0  0  0  0  0  0  0  0  0  0  0  0
   -1.3257    0.7631    0.3741 H   0  0  0  0  0  0  0  0  0  0  0  0
   -0.8236   -0.8519   -0.4401 H   0  0  0  0  0  0  0  0  0  0  0  0
    1.6511   -0.5325   -0.2540 H   0  0  0  0  0  0  0  0  0  0  0  0
  1  2  1  0
  1  3  1  0
  1  4  1  0
  2  5  1  0
M  RAD  1   1   2
M  END
>  <reaction>  (2) 
rxn_1191

>  <mol_properties>  (2) 
{"0": {"label": "acceptor", "atom_type": "Cs"}}

>  <type>  (2) 
r2

$$$$

     RDKit          3D

  6  5  0  0  0  0  0  0  0  0999 V2000
   -0.5072   -0.0291   -0.0097 C   0  0  0  0  0  0  0  0  0  0  0  0
    1.1321   -0.1527   -0.7687 S   0  0  0  0  0  0  0  0  0  0  0  0
   -0.6174   -0.7330    0.8127 H   0  0  0  0  0  0  0  0  0  0  0  0
   -0.5863    0.9827    0.3845 H   0  0  0  0  0  0  0  0  0  0  0  0
   -1.2962   -0.1800   -0.7434 H   0  0  0  0  0  0  0  0  0  0  0  0
    1.0312   -1.4237   -1.1764 H   0  0  0  0  0  0  0  0  0  0  0  0
  1  2  1  0
  1  3  1  0
  1  4  1  0
  1  5  1  0
  2  6  1  0
M  END
>  <reaction>  (3) 
rxn_1191

>  <mol_properties>  (3) 
{"0": {"label": "acceptor", "atom_type": "Cs"}, "5": {"label": "a_hydrogen", "atom_type": "H0"}}

>  <type>  (3) 
r2h

$$$$

     RDKit          3D

 21 19  0  0  0  0  0  0  0  0999 V2000
   -0.1794    1.5623   -0.9583 C   0  0  0  0  0  3  0  0  0  0  0  0
    0.2897    2.6883    0.2965 S   0  0  0  0  0  0  0  0  0  0  0  0
    0.6007    1.4472   -1.7040 H   0  0  0  0  0  0  0  0  0  0  0  0
   -1.1758    1.6877   -1.3707 H   0  0  0  0  0  0  0  0  0  0  0  0
   -0.8285    2.6027    1.0299 H   0  0  0  0  0  0  0  0  0  0  0  0
    0.0971   -2.7493   -1.3848 C   0  0  0  0  0  0  0  0  0  0  0  0
   -0.6922   -1.8743   -0.7702 C   0  0  0  0  0  0  0  0  0  0  0  0
   -0.2960   -0.8876    0.2618 C   0  0  0  0  0  0  0  0  0  0  0  0
    1.1212   -0.9790    0.7796 C   0  0  0  0  0  0  0  0  0  0  0  0
   -1.3520   -0.6480    1.2713 C   0  0  0  0  0  0  0  0  0  0  0  0
   -1.1775   -0.2958    2.5423 C   0  0  0  0  0  0  0  0  0  0  0  0
   -0.2960   -3.4107   -2.1460 H   0  0  0  0  0  0  0  0  0  0  0  0
    1.1490   -2.8488   -1.1477 H   0  0  0  0  0  0  0  0  0  0  0  0
   -1.7420   -1.8437   -1.0535 H   0  0  0  0  0  0  0  0  0  0  0  0
   -0.2868    0.2058   -0.3619 H   0  0  0  0  0  0  0  0  0  0  0  0
    1.8329   -1.0210   -0.0456 H   0  0  0  0  0  0  0  0  0  0  0  0
    1.3705   -0.1021    1.3780 H   0  0  0  0  0  0  0  0  0  0  0  0
    1.2601   -1.8699    1.3976 H   0  0  0  0  0  0  0  0  0  0  0  0
   -2.3707   -0.7443    0.9020 H   0  0  0  0  0  0  0  0  0  0  0  0
   -0.1950   -0.1889    2.9845 H   0  0  0  0  0  0  0  0  0  0  0  0
   -2.0270   -0.1180    3.1891 H   0  0  0  0  0  0  0  0  0  0  0  0
  1  2  1  0
  1  3  1  0
  1  4  1  0
  2  5  1  0
  6  7  2  3
  6 12  1  0
  6 13  1  0
  7  8  1  0
  7 14  1  0
  8  9  1  0
  8 10  1  0
  8 15  1  0
  9 16  1  0
  9 17  1  0
  9 18  1  0
 10 11  2  3
 10 19  1  0
 11 20  1  0
 11 21  1  0
M  RAD  1   1   2
M  END
>  <reaction>  (4) 
rxn_1191

>  <mol_properties>  (4) 
{"0": {"label": "*3", "atom_type": "Cs"}, "1": {"label": "*4", "atom_type": "S2s"}, "6": {"label": "*0", "atom_type": "Cd"}, "7": {"label": "*1", "atom_type": "Cs"}, "14": {"label": "*2", "atom_type": "H0"}}

>  <type>  (4) 
ts

$$$$

     RDKit          3D

 21 19  0  0  0  0  0  0  0  0999 V2000
    0.5585    1.2906   -1.1401 C   0  0  0  0  0  0  0  0  0  0  0  0
   -0.8901    2.3514   -0.9061 S   0  0  0  0  0  0  0  0  0  0  0  0
    1.2340    1.5087   -0.3146 H   0  0  0  0  0  0  0  0  0  0  0  0
    1.0673    1.5149   -2.0753 H   0  0  0  0  0  0  0  0  0  0  0  0
   -1.5707    1.9437   -1.9843 H   0  0  0  0  0  0  0  0  0  0  0  0
    0.4856   -2.0212   -1.7410 C   0  0  0  0  0  0  0  0  0  0  0  0
    0.4856   -2.0212   -0.4178 C   0  0  0  0  0  0  0  0  0  0  0  0
    0.4856   -0.7904    0.4516 C   0  0  0  0  0  3  0  0  0  0  0  0
    1.7239   -0.7606    1.3432 C   0  0  0  0  0  0  0  0  0  0  0  0
   -0.8180   -0.7218    1.2081 C   0  0  0  0  0  0  0  0  0  0  0  0
   -0.9726   -0.7216    2.5230 C   0  0  0  0  0  0  0  0  0  0  0  0
    0.4848   -2.9438   -2.3078 H   0  0  0  0  0  0  0  0  0  0  0  0
    0.4873   -1.0954   -2.3068 H   0  0  0  0  0  0  0  0  0  0  0  0
    0.4808   -2.9670    0.1198 H   0  0  0  0  0  0  0  0  0  0  0  0
    0.5222    0.2540   -0.3472 H   0  0  0  0  0  0  0  0  0  0  0  0
    2.6267   -0.7690    0.7319 H   0  0  0  0  0  0  0  0  0  0  0  0
    1.7386    0.1352    1.9663 H   0  0  0  0  0  0  0  0  0  0  0  0
    1.7565   -1.6324    2.0008 H   0  0  0  0  0  0  0  0  0  0  0  0
   -1.7011   -0.6861    0.5756 H   0  0  0  0  0  0  0  0  0  0  0  0
   -0.1322   -0.7609    3.2056 H   0  0  0  0  0  0  0  0  0  0  0  0
   -1.9590   -0.6785    2.9673 H   0  0  0  0  0  0  0  0  0  0  0  0
  1  2  1  0
  1  3  1  0
  1  4  1  0
  1 15  1  0
  2  5  1  0
  6  7  2  3
  6 12  1  0
  6 13  1  0
  7  8  1  0
  7 14  1  0
  8  9  1  0
  8 10  1  0
  9 16  1  0
  9 17  1  0
  9 18  1  0
 10 11  2  3
 10 19  1  0
 11 20  1  0
 11 21  1  0
M  RAD  1   8   2
M  END
>  <reaction>  (5) 
rxn_1191

>  <mol_properties>  (5) 
{"0": {"label": "*3", "atom_type": "Cs"}, "1": {"label": "*4", "atom_type": "S2s"}, "6": {"label": "*0", "atom_type": "Cd"}, "7": {"label": "*1", "atom_type": "Cs"}, "14": {"label": "*2", "atom_type": "H0"}}

>  <type>  (5) 
unop_1

>  <geom_source>  (5) 
Heuristics

$$$$

     RDKit          3D

 21 19  0  0  0  0  0  0  0  0999 V2000
    0.3904    1.6472   -0.6850 C   0  0  0  0  0  0  0  0  0  0  0  0
   -0.4212    1.2979   -2.2654 S   0  0  0  0  0  0  0  0  0  0  0  0
   -0.3295    2.2045   -0.0879 H   0  0  0  0  0  0  0  0  0  0  0  0
    1.2784    2.2608   -0.8224 H   0  0  0  0  0  0  0  0  0  0  0  0
    0.5937    0.6324   -2.8301 H   0  0  0  0  0  0  0  0  0  0  0  0
    0.3175   -1.6645   -1.2859 C   0  0  0  0  0  0  0  0  0  0  0  0
    0.3175   -1.6645    0.0373 C   0  0  0  0  0  0  0  0  0  0  0  0
    0.3175   -0.4337    0.9067 C   0  0  0  0  0  3  0  0  0  0  0  0
    1.5559   -0.4040    1.7983 C   0  0  0  0  0  0  0  0  0  0  0  0
   -0.9860   -0.3652    1.6632 C   0  0  0  0  0  0  0  0  0  0  0  0
   -1.1406   -0.3649    2.9782 C   0  0  0  0  0  0  0  0  0  0  0  0
    0.3168   -2.5871   -1.8526 H   0  0  0  0  0  0  0  0  0  0  0  0
    0.3193   -0.7387   -1.8516 H   0  0  0  0  0  0  0  0  0  0  0  0
    0.3128   -2.6103    0.5749 H   0  0  0  0  0  0  0  0  0  0  0  0
    0.3541    0.6106    0.1079 H   0  0  0  0  0  0  0  0  0  0  0  0
    2.4587   -0.4123    1.1871 H   0  0  0  0  0  0  0  0  0  0  0  0
    1.5706    0.4918    2.4214 H   0  0  0  0  0  0  0  0  0  0  0  0
    1.5885   -1.2757    2.4559 H   0  0  0  0  0  0  0  0  0  0  0  0
   -1.8692   -0.3294    1.0307 H   0  0  0  0  0  0  0  0  0  0  0  0
   -0.3003   -0.4043    3.6607 H   0  0  0  0  0  0  0  0  0  0  0  0
   -2.1270   -0.3218    3.4224 H   0  0  0  0  0  0  0  0  0  0  0  0
  1  2  1  0
  1  3  1  0
  1  4  1  0
  1 15  1  0
  2  5  1  0
  6  7  2  3
  6 12  1  0
  6 13  1  0
  7  8  1  0
  7 14  1  0
  8  9  1  0
  8 10  1  0
  9 16  1  0
  9 17  1  0
  9 18  1  0
 10 11  2  3
 10 19  1  0
 11 20  1  0
 11 21  1  0
M  RAD  1   8   2
M  END
>  <reaction>  (6) 
rxn_1191

>  <mol_properties>  (6) 
{"0": {"label": "*3", "atom_type": "Cs"}, "1": {"label": "*4", "atom_type": "S2s"}, "6": {"label": "*0", "atom_type": "Cd"}, "7": {"label": "*1", "atom_type": "Cs"}, "14": {"label": "*2", "atom_type": "H0"}}

>  <type>  (6) 
unop_2

>  <geom_source>  (6) 
Heuristics

$$$$

     RDKit          3D

 21 19  0  0  0  0  0  0  0  0999 V2000
    0.4078    1.1988   -1.2685 C   0  0  0  0  0  0  0  0  0  0  0  0
   -0.4293    2.6243   -0.5297 S   0  0  0  0  0  0  0  0  0  0  0  0
    1.4460    1.2520   -0.9448 H   0  0  0  0  0  0  0  0  0  0  0  0
    0.3791    1.2416   -2.3553 H   0  0  0  0  0  0  0  0  0  0  0  0
   -1.6460    2.3815   -1.0321 H   0  0  0  0  0  0  0  0  0  0  0  0
    0.3349   -2.1129   -1.8694 C   0  0  0  0  0  0  0  0  0  0  0  0
    0.3349   -2.1129   -0.5462 C   0  0  0  0  0  0  0  0  0  0  0  0
    0.3349   -0.8821    0.3232 C   0  0  0  0  0  3  0  0  0  0  0  0
    1.5732   -0.8524    1.2148 C   0  0  0  0  0  0  0  0  0  0  0  0
   -0.9687   -0.8136    1.0797 C   0  0  0  0  0  0  0  0  0  0  0  0
   -1.1233   -0.8133    2.3947 C   0  0  0  0  0  0  0  0  0  0  0  0
    0.3341   -3.0355   -2.4361 H   0  0  0  0  0  0  0  0  0  0  0  0
    0.3366   -1.1871   -2.4351 H   0  0  0  0  0  0  0  0  0  0  0  0
    0.3301   -3.0587   -0.0086 H   0  0  0  0  0  0  0  0  0  0  0  0
    0.3715    0.1622   -0.4756 H   0  0  0  0  0  0  0  0  0  0  0  0
    2.4760   -0.8607    0.6036 H   0  0  0  0  0  0  0  0  0  0  0  0
    1.5879    0.0434    1.8379 H   0  0  0  0  0  0  0  0  0  0  0  0
    1.6058   -1.7241    1.8724 H   0  0  0  0  0  0  0  0  0  0  0  0
   -1.8518   -0.7778    0.4472 H   0  0  0  0  0  0  0  0  0  0  0  0
   -0.2829   -0.8527    3.0772 H   0  0  0  0  0  0  0  0  0  0  0  0
   -2.1097   -0.7702    2.8389 H   0  0  0  0  0  0  0  0  0  0  0  0
  1  2  1  0
  1  3  1  0
  1  4  1  0
  1 15  1  0
  2  5  1  0
  6  7  2  3
  6 12  1  0
  6 13  1  0
  7  8  1  0
  7 14  1  0
  8  9  1  0
  8 10  1  0
  9 16  1  0
  9 17  1  0
  9 18  1  0
 10 11  2  3
 10 19  1  0
 11 20  1  0
 11 21  1  0
M  RAD  1   8   2
M  END
>  <reaction>  (7) 
rxn_1191

>  <mol_properties>  (7) 
{"0": {"label": "*3", "atom_type": "Cs"}, "1": {"label": "*4", "atom_type": "S2s"}, "6": {"label": "*0", "atom_type": "Cd"}, "7": {"label": "*1", "atom_type": "Cs"}, "14": {"label": "*2", "atom_type": "H0"}}

>  <type>  (7) 
unop_3

>  <geom_source>  (7) 
Heuristics

$$$$

     RDKit          3D

 21 19  0  0  0  0  0  0  0  0999 V2000
   -0.1887    1.5619   -0.8345 C   0  0  0  0  0  0  0  0  0  0  0  0
    1.2966    1.5489   -1.8699 S   0  0  0  0  0  0  0  0  0  0  0  0
   -0.9603    2.0677   -1.4127 H   0  0  0  0  0  0  0  0  0  0  0  0
   -0.0246    2.1161    0.0873 H   0  0  0  0  0  0  0  0  0  0  0  0
    2.0949    0.9077   -1.0077 H   0  0  0  0  0  0  0  0  0  0  0  0
   -0.2616   -1.7498   -1.4354 C   0  0  0  0  0  0  0  0  0  0  0  0
   -0.2616   -1.7498   -0.1122 C   0  0  0  0  0  0  0  0  0  0  0  0
   -0.2616   -0.5190    0.7573 C   0  0  0  0  0  3  0  0  0  0  0  0
    0.9767   -0.4892    1.6489 C   0  0  0  0  0  0  0  0  0  0  0  0
   -1.5652   -0.4504    1.5138 C   0  0  0  0  0  0  0  0  0  0  0  0
   -1.7198   -0.4502    2.8287 C   0  0  0  0  0  0  0  0  0  0  0  0
   -0.2624   -2.6724   -2.0021 H   0  0  0  0  0  0  0  0  0  0  0  0
   -0.2599   -0.8240   -2.0011 H   0  0  0  0  0  0  0  0  0  0  0  0
   -0.2664   -2.6956    0.4255 H   0  0  0  0  0  0  0  0  0  0  0  0
   -0.2250    0.5253   -0.0416 H   0  0  0  0  0  0  0  0  0  0  0  0
    1.8795   -0.4976    1.0376 H   0  0  0  0  0  0  0  0  0  0  0  0
    0.9914    0.4065    2.2720 H   0  0  0  0  0  0  0  0  0  0  0  0
    1.0093   -1.3610    2.3065 H   0  0  0  0  0  0  0  0  0  0  0  0
   -2.4483   -0.4147    0.8812 H   0  0  0  0  0  0  0  0  0  0  0  0
   -0.8794   -0.4895    3.5112 H   0  0  0  0  0  0  0  0  0  0  0  0
   -2.7062   -0.4071    3.2729 H   0  0  0  0  0  0  0  0  0  0  0  0
  1  2  1  0
  1  3  1  0
  1  4  1  0
  1 15  1  0
  2  5  1  0
  6  7  2  3
  6 12  1  0
  6 13  1  0
  7  8  1  0
  7 14  1  0
  8  9  1  0
  8 10  1  0
  9 16  1  0
  9 17  1  0
  9 18  1  0
 10 11  2  3
 10 19  1  0
 11 20  1  0
 11 21  1  0
M  RAD  1   8   2
M  END
>  <reaction>  (8) 
rxn_1191

>  <mol_properties>  (8) 
{"0": {"label": "*3", "atom_type": "Cs"}, "1": {"label": "*4", "atom_type": "S2s"}, "6": {"label": "*0", "atom_type": "Cd"}, "7": {"label": "*1", "atom_type": "Cs"}, "14": {"label": "*2", "atom_type": "H0"}}

>  <type>  (8) 
unop_4

>  <geom_source>  (8) 
Heuristics

$$$$

     RDKit          3D

 21 19  0  0  0  0  0  0  0  0999 V2000
    0.1998    1.1679   -1.3241 C   0  0  0  0  0  0  0  0  0  0  0  0
    0.2035    2.7165   -0.3859 S   0  0  0  0  0  0  0  0  0  0  0  0
    1.1338    1.1467   -1.8832 H   0  0  0  0  0  0  0  0  0  0  0  0
   -0.6287    1.1331   -2.0285 H   0  0  0  0  0  0  0  0  0  0  0  0
   -0.9842    2.5532    0.2095 H   0  0  0  0  0  0  0  0  0  0  0  0
    0.1269   -2.1438   -1.9251 C   0  0  0  0  0  0  0  0  0  0  0  0
    0.1269   -2.1438   -0.6018 C   0  0  0  0  0  0  0  0  0  0  0  0
    0.1269   -0.9130    0.2676 C   0  0  0  0  0  3  0  0  0  0  0  0
    1.3652   -0.8832    1.1592 C   0  0  0  0  0  0  0  0  0  0  0  0
   -1.1766   -0.8445    1.0241 C   0  0  0  0  0  0  0  0  0  0  0  0
   -1.3313   -0.8442    2.3390 C   0  0  0  0  0  0  0  0  0  0  0  0
    0.1261   -3.0664   -2.4918 H   0  0  0  0  0  0  0  0  0  0  0  0
    0.1286   -1.2180   -2.4908 H   0  0  0  0  0  0  0  0  0  0  0  0
    0.1221   -3.0896   -0.0642 H   0  0  0  0  0  0  0  0  0  0  0  0
    0.1635    0.1313   -0.5312 H   0  0  0  0  0  0  0  0  0  0  0  0
    2.2680   -0.8916    0.5479 H   0  0  0  0  0  0  0  0  0  0  0  0
    1.3799    0.0125    1.7823 H   0  0  0  0  0  0  0  0  0  0  0  0
    1.3978   -1.7550    1.8168 H   0  0  0  0  0  0  0  0  0  0  0  0
   -2.0598   -0.8087    0.3916 H   0  0  0  0  0  0  0  0  0  0  0  0
   -0.4909   -0.8835    3.0216 H   0  0  0  0  0  0  0  0  0  0  0  0
   -2.3177   -0.8011    2.7833 H   0  0  0  0  0  0  0  0  0  0  0  0
  1  2  1  0
  1  3  1  0
  1  4  1  0
  1 15  1  0
  2  5  1  0
  6  7  2  3
  6 12  1  0
  6 13  1  0
  7  8  1  0
  7 14  1  0
  8  9  1  0
  8 10  1  0
  9 16  1  0
  9 17  1  0
  9 18  1  0
 10 11  2  3
 10 19  1  0
 11 20  1  0
 11 21  1  0
M  RAD  1   8   2
M  END
>  <reaction>  (9) 
rxn_1191

>  <mol_properties>  (9) 
{"0": {"label": "*3", "atom_type": "Cs"}, "1": {"label": "*4", "atom_type": "S2s"}, "6": {"label": "*0", "atom_type": "Cd"}, "7": {"label": "*1", "atom_type": "Cs"}, "14": {"label": "*2", "atom_type": "H0"}}

>  <type>  (9) 
unop_5

>  <geom_source>  (9) 
Heuristics

$$$$

     RDKit          3D

 21 19  0  0  0  0  0  0  0  0999 V2000
   -0.2400    1.4333   -1.0069 C   0  0  0  0  0  0  0  0  0  0  0  0
    1.4638    1.9288   -1.3675 S   0  0  0  0  0  0  0  0  0  0  0  0
   -0.8514    1.8287   -1.8163 H   0  0  0  0  0  0  0  0  0  0  0  0
   -0.5867    1.8598   -0.0680 H   0  0  0  0  0  0  0  0  0  0  0  0
    2.0316    1.3653   -0.2942 H   0  0  0  0  0  0  0  0  0  0  0  0
   -0.3129   -1.8785   -1.6078 C   0  0  0  0  0  0  0  0  0  0  0  0
   -0.3129   -1.8785   -0.2846 C   0  0  0  0  0  0  0  0  0  0  0  0
   -0.3129   -0.6477    0.5848 C   0  0  0  0  0  3  0  0  0  0  0  0
    0.9255   -0.6179    1.4764 C   0  0  0  0  0  0  0  0  0  0  0  0
   -1.6164   -0.5791    1.3414 C   0  0  0  0  0  0  0  0  0  0  0  0
   -1.7711   -0.5789    2.6563 C   0  0  0  0  0  0  0  0  0  0  0  0
   -0.3137   -2.8011   -2.1745 H   0  0  0  0  0  0  0  0  0  0  0  0
   -0.3112   -0.9527   -2.1735 H   0  0  0  0  0  0  0  0  0  0  0  0
   -0.3177   -2.8243    0.2531 H   0  0  0  0  0  0  0  0  0  0  0  0
   -0.2763    0.3966   -0.2140 H   0  0  0  0  0  0  0  0  0  0  0  0
    1.8282   -0.6263    0.8652 H   0  0  0  0  0  0  0  0  0  0  0  0
    0.9401    0.2778    2.0995 H   0  0  0  0  0  0  0  0  0  0  0  0
    0.9580   -1.4897    2.1341 H   0  0  0  0  0  0  0  0  0  0  0  0
   -2.4996   -0.5434    0.7088 H   0  0  0  0  0  0  0  0  0  0  0  0
   -0.9307   -0.6182    3.3388 H   0  0  0  0  0  0  0  0  0  0  0  0
   -2.7575   -0.5358    3.1005 H   0  0  0  0  0  0  0  0  0  0  0  0
  1  2  1  0
  1  3  1  0
  1  4  1  0
  1 15  1  0
  2  5  1  0
  6  7  2  3
  6 12  1  0
  6 13  1  0
  7  8  1  0
  7 14  1  0
  8  9  1  0
  8 10  1  0
  9 16  1  0
  9 17  1  0
  9 18  1  0
 10 11  2  3
 10 19  1  0
 11 20  1  0
 11 21  1  0
M  RAD  1   8   2
M  END
>  <reaction>  (10) 
rxn_1191

>  <mol_properties>  (10) 
{"0": {"label": "*3", "atom_type": "Cs"}, "1": {"label": "*4", "atom_type": "S2s"}, "6": {"label": "*0", "atom_type": "Cd"}, "7": {"label": "*1", "atom_type": "Cs"}, "14": {"label": "*2", "atom_type": "H0"}}

>  <type>  (10) 
unop_6

>  <geom_source>  (10) 
Heuristics

$$$$

     RDKit          3D

 21 19  0  0  0  0  0  0  0  0999 V2000
   -0.1765    1.3030   -1.1745 C   0  0  0  0  0  0  0  0  0  0  0  0
    1.2941    2.3146   -0.8709 S   0  0  0  0  0  0  0  0  0  0  0  0
   -0.5073    1.5393   -2.1845 H   0  0  0  0  0  0  0  0  0  0  0  0
   -0.9768    1.5481   -0.4793 H   0  0  0  0  0  0  0  0  0  0  0  0
    1.5339    1.8898    0.3756 H   0  0  0  0  0  0  0  0  0  0  0  0
   -0.2494   -2.0088   -1.7754 C   0  0  0  0  0  0  0  0  0  0  0  0
   -0.2494   -2.0088   -0.4521 C   0  0  0  0  0  0  0  0  0  0  0  0
   -0.2494   -0.7780    0.4173 C   0  0  0  0  0  3  0  0  0  0  0  0
    0.9889   -0.7482    1.3089 C   0  0  0  0  0  0  0  0  0  0  0  0
   -1.5530   -0.7094    1.1738 C   0  0  0  0  0  0  0  0  0  0  0  0
   -1.7076   -0.7092    2.4887 C   0  0  0  0  0  0  0  0  0  0  0  0
   -0.2502   -2.9314   -2.3421 H   0  0  0  0  0  0  0  0  0  0  0  0
   -0.2477   -1.0830   -2.3411 H   0  0  0  0  0  0  0  0  0  0  0  0
   -0.2542   -2.9546    0.0855 H   0  0  0  0  0  0  0  0  0  0  0  0
   -0.2128    0.2663   -0.3815 H   0  0  0  0  0  0  0  0  0  0  0  0
    1.8917   -0.7566    0.6976 H   0  0  0  0  0  0  0  0  0  0  0  0
    1.0036    0.1475    1.9320 H   0  0  0  0  0  0  0  0  0  0  0  0
    1.0215   -1.6200    1.9665 H   0  0  0  0  0  0  0  0  0  0  0  0
   -2.4361   -0.6737    0.5413 H   0  0  0  0  0  0  0  0  0  0  0  0
   -0.8672   -0.7485    3.1713 H   0  0  0  0  0  0  0  0  0  0  0  0
   -2.6940   -0.6661    2.9329 H   0  0  0  0  0  0  0  0  0  0  0  0
  1  2  1  0
  1  3  1  0
  1  4  1  0
  1 15  1  0
  2  5  1  0
  6  7  2  3
  6 12  1  0
  6 13  1  0
  7  8  1  0
  7 14  1  0
  8  9  1  0
  8 10  1  0
  9 16  1  0
  9 17  1  0
  9 18  1  0
 10 11  2  3
 10 19  1  0
 11 20  1  0
 11 21  1  0
M  RAD  1   8   2
M  END
>  <reaction>  (11) 
rxn_1191

>  <mol_properties>  (11) 
{"0": {"label": "*3", "atom_type": "Cs"}, "1": {"label": "*4", "atom_type": "S2s"}, "6": {"label": "*0", "atom_type": "Cd"}, "7": {"label": "*1", "atom_type": "Cs"}, "14": {"label": "*2", "atom_type": "H0"}}

>  <type>  (11) 
unop_7

>  <geom_source>  (11) 
Heuristics

$$$$

     RDKit          3D

 21 19  0  0  0  0  0  0  0  0999 V2000
    0.6112    1.4189   -0.9700 C   0  0  0  0  0  0  0  0  0  0  0  0
   -1.0558    1.9712   -1.4109 S   0  0  0  0  0  0  0  0  0  0  0  0
    0.8047    1.7995    0.0316 H   0  0  0  0  0  0  0  0  0  0  0  0
    1.3569    1.8283   -1.6484 H   0  0  0  0  0  0  0  0  0  0  0  0
   -1.0969    1.4195   -2.6298 H   0  0  0  0  0  0  0  0  0  0  0  0
    0.5383   -1.8928   -1.5709 C   0  0  0  0  0  0  0  0  0  0  0  0
    0.5383   -1.8928   -0.2477 C   0  0  0  0  0  0  0  0  0  0  0  0
    0.5383   -0.6620    0.6217 C   0  0  0  0  0  3  0  0  0  0  0  0
    1.7767   -0.6322    1.5133 C   0  0  0  0  0  0  0  0  0  0  0  0
   -0.7652   -0.5935    1.3783 C   0  0  0  0  0  0  0  0  0  0  0  0
   -0.9198   -0.5932    2.6932 C   0  0  0  0  0  0  0  0  0  0  0  0
    0.5376   -2.8154   -2.1376 H   0  0  0  0  0  0  0  0  0  0  0  0
    0.5401   -0.9670   -2.1366 H   0  0  0  0  0  0  0  0  0  0  0  0
    0.5336   -2.8386    0.2900 H   0  0  0  0  0  0  0  0  0  0  0  0
    0.5749    0.3823   -0.1771 H   0  0  0  0  0  0  0  0  0  0  0  0
    2.6795   -0.6406    0.9021 H   0  0  0  0  0  0  0  0  0  0  0  0
    1.7914    0.2635    2.1364 H   0  0  0  0  0  0  0  0  0  0  0  0
    1.8093   -1.5040    2.1710 H   0  0  0  0  0  0  0  0  0  0  0  0
   -1.6484   -0.5577    0.7457 H   0  0  0  0  0  0  0  0  0  0  0  0
   -0.0795   -0.6325    3.3757 H   0  0  0  0  0  0  0  0  0  0  0  0
   -1.9062   -0.5501    3.1374 H   0  0  0  0  0  0  0  0  0  0  0  0
  1  2  1  0
  1  3  1  0
  1  4  1  0
  1 15  1  0
  2  5  1  0
  6  7  2  3
  6 12  1  0
  6 13  1  0
  7  8  1  0
  7 14  1  0
  8  9  1  0
  8 10  1  0
  9 16  1  0
  9 17  1  0
  9 18  1  0
 10 11  2  3
 10 19  1  0
 11 20  1  0
 11 21  1  0
M  RAD  1   8   2
M  END
>  <reaction>  (12) 
rxn_1191

>  <mol_properties>  (12) 
{"0": {"label": "*3", "atom_type": "Cs"}, "1": {"label": "*4", "atom_type": "S2s"}, "6": {"label": "*0", "atom_type": "Cd"}, "7": {"label": "*1", "atom_type": "Cs"}, "14": {"label": "*2", "atom_type": "H0"}}

>  <type>  (12) 
unop_8

>  <geom_source>  (12) 
Heuristics

$$$$

     RDKit          3D

 21 19  0  0  0  0  0  0  0  0999 V2000
   -0.0367    1.6544   -0.7033 C   0  0  0  0  0  0  0  0  0  0  0  0
    0.8370    1.2767   -2.2435 S   0  0  0  0  0  0  0  0  0  0  0  0
   -0.9262    2.2152   -0.9858 H   0  0  0  0  0  0  0  0  0  0  0  0
    0.5700    2.2721   -0.0445 H   0  0  0  0  0  0  0  0  0  0  0  0
    1.8603    0.6102   -1.6952 H   0  0  0  0  0  0  0  0  0  0  0  0
   -0.1097   -1.6573   -1.3042 C   0  0  0  0  0  0  0  0  0  0  0  0
   -0.1097   -1.6573    0.0190 C   0  0  0  0  0  0  0  0  0  0  0  0
   -0.1097   -0.4265    0.8884 C   0  0  0  0  0  3  0  0  0  0  0  0
    1.1287   -0.3968    1.7800 C   0  0  0  0  0  0  0  0  0  0  0  0
   -1.4132   -0.3580    1.6449 C   0  0  0  0  0  0  0  0  0  0  0  0
   -1.5678   -0.3577    2.9599 C   0  0  0  0  0  0  0  0  0  0  0  0
   -0.1104   -2.5800   -1.8709 H   0  0  0  0  0  0  0  0  0  0  0  0
   -0.1079   -0.7315   -1.8699 H   0  0  0  0  0  0  0  0  0  0  0  0
   -0.1144   -2.6032    0.5567 H   0  0  0  0  0  0  0  0  0  0  0  0
   -0.0731    0.6178    0.0896 H   0  0  0  0  0  0  0  0  0  0  0  0
    2.0315   -0.4051    1.1688 H   0  0  0  0  0  0  0  0  0  0  0  0
    1.1434    0.4990    2.4031 H   0  0  0  0  0  0  0  0  0  0  0  0
    1.1613   -1.2685    2.4376 H   0  0  0  0  0  0  0  0  0  0  0  0
   -2.2963   -0.3222    1.0124 H   0  0  0  0  0  0  0  0  0  0  0  0
   -0.7274   -0.3971    3.6424 H   0  0  0  0  0  0  0  0  0  0  0  0
   -2.5542   -0.3146    3.4041 H   0  0  0  0  0  0  0  0  0  0  0  0
  1  2  1  0
  1  3  1  0
  1  4  1  0
  1 15  1  0
  2  5  1  0
  6  7  2  3
  6 12  1  0
  6 13  1  0
  7  8  1  0
  7 14  1  0
  8  9  1  0
  8 10  1  0
  9 16  1  0
  9 17  1  0
  9 18  1  0
 10 11  2  3
 10 19  1  0
 11 20  1  0
 11 21  1  0
M  RAD  1   8   2
M  END
>  <reaction>  (13) 
rxn_1191

>  <mol_properties>  (13) 
{"0": {"label": "*3", "atom_type": "Cs"}, "1": {"label": "*4", "atom_type": "S2s"}, "6": {"label": "*0", "atom_type": "Cd"}, "7": {"label": "*1", "atom_type": "Cs"}, "14": {"label": "*2", "atom_type": "H0"}}

>  <type>  (13) 
unop_9

>  <geom_source>  (13) 
Heuristics

$$$$

     RDKit          3D

 21 19  0  0  0  0  0  0  0  0999 V2000
    0.5501    1.5495   -0.8031 C   0  0  0  0  0  0  0  0  0  0  0  0
   -0.8838    1.5856   -1.9081 S   0  0  0  0  0  0  0  0  0  0  0  0
    0.2413    2.0464    0.1152 H   0  0  0  0  0  0  0  0  0  0  0  0
    1.3915    2.0933   -1.2275 H   0  0  0  0  0  0  0  0  0  0  0  0
   -0.3151    0.9496   -2.9395 H   0  0  0  0  0  0  0  0  0  0  0  0
    0.4772   -1.7622   -1.4040 C   0  0  0  0  0  0  0  0  0  0  0  0
    0.4772   -1.7622   -0.0808 C   0  0  0  0  0  0  0  0  0  0  0  0
    0.4772   -0.5314    0.7886 C   0  0  0  0  0  3  0  0  0  0  0  0
    1.7155   -0.5017    1.6802 C   0  0  0  0  0  0  0  0  0  0  0  0
   -0.8264   -0.4629    1.5451 C   0  0  0  0  0  0  0  0  0  0  0  0
   -0.9810   -0.4626    2.8601 C   0  0  0  0  0  0  0  0  0  0  0  0
    0.4764   -2.6848   -1.9707 H   0  0  0  0  0  0  0  0  0  0  0  0
    0.4789   -0.8364   -1.9697 H   0  0  0  0  0  0  0  0  0  0  0  0
    0.4724   -2.7080    0.4569 H   0  0  0  0  0  0  0  0  0  0  0  0
    0.5138    0.5129   -0.0102 H   0  0  0  0  0  0  0  0  0  0  0  0
    2.6183   -0.5100    1.0690 H   0  0  0  0  0  0  0  0  0  0  0  0
    1.7302    0.3941    2.3033 H   0  0  0  0  0  0  0  0  0  0  0  0
    1.7481   -1.3734    2.3378 H   0  0  0  0  0  0  0  0  0  0  0  0
   -1.7095   -0.4271    0.9126 H   0  0  0  0  0  0  0  0  0  0  0  0
   -0.1406   -0.5020    3.5426 H   0  0  0  0  0  0  0  0  0  0  0  0
   -1.9674   -0.4195    3.3043 H   0  0  0  0  0  0  0  0  0  0  0  0
  1  2  1  0
  1  3  1  0
  1  4  1  0
  1 15  1  0
  2  5  1  0
  6  7  2  3
  6 12  1  0
  6 13  1  0
  7  8  1  0
  7 14  1  0
  8  9  1  0
  8 10  1  0
  9 16  1  0
  9 17  1  0
  9 18  1  0
 10 11  2  3
 10 19  1  0
 11 20  1  0
 11 21  1  0
M  RAD  1   8   2
M  END
>  <reaction>  (14) 
rxn_1191

>  <mol_properties>  (14) 
{"0": {"label": "*3", "atom_type": "Cs"}, "1": {"label": "*4", "atom_type": "S2s"}, "6": {"label": "*0", "atom_type": "Cd"}, "7": {"label": "*1", "atom_type": "Cs"}, "14": {"label": "*2", "atom_type": "H0"}}

>  <type>  (14) 
unop_10

>  <geom_source>  (14) 
Heuristics

$$$$

     RDKit          3D

 21 19  0  0  0  0  0  0  0  0999 V2000
   -0.0148    1.2059   -1.2913 C   0  0  0  0  0  0  0  0  0  0  0  0
    0.8336    2.6030   -0.5124 S   0  0  0  0  0  0  0  0  0  0  0  0
    0.1984    1.2740   -2.3568 H   0  0  0  0  0  0  0  0  0  0  0  0
   -1.0915    1.2654   -1.1469 H   0  0  0  0  0  0  0  0  0  0  0  0
    0.4583    2.3448    0.7463 H   0  0  0  0  0  0  0  0  0  0  0  0
   -0.0877   -2.1058   -1.8922 C   0  0  0  0  0  0  0  0  0  0  0  0
   -0.0877   -2.1058   -0.5690 C   0  0  0  0  0  0  0  0  0  0  0  0
   -0.0877   -0.8750    0.3004 C   0  0  0  0  0  3  0  0  0  0  0  0
    1.1506   -0.8452    1.1920 C   0  0  0  0  0  0  0  0  0  0  0  0
   -1.3913   -0.8065    1.0570 C   0  0  0  0  0  0  0  0  0  0  0  0
   -1.5459   -0.8062    2.3719 C   0  0  0  0  0  0  0  0  0  0  0  0
   -0.0885   -3.0284   -2.4589 H   0  0  0  0  0  0  0  0  0  0  0  0
   -0.0860   -1.1800   -2.4579 H   0  0  0  0  0  0  0  0  0  0  0  0
   -0.0925   -3.0516   -0.0313 H   0  0  0  0  0  0  0  0  0  0  0  0
   -0.0511    0.1693   -0.4984 H   0  0  0  0  0  0  0  0  0  0  0  0
    2.0534   -0.8536    0.5808 H   0  0  0  0  0  0  0  0  0  0  0  0
    1.1653    0.0505    1.8151 H   0  0  0  0  0  0  0  0  0  0  0  0
    1.1832   -1.7170    1.8497 H   0  0  0  0  0  0  0  0  0  0  0  0
   -2.2744   -0.7707    0.4244 H   0  0  0  0  0  0  0  0  0  0  0  0
   -0.7055   -0.8455    3.0544 H   0  0  0  0  0  0  0  0  0  0  0  0
   -2.5323   -0.7631    2.8161 H   0  0  0  0  0  0  0  0  0  0  0  0
  1  2  1  0
  1  3  1  0
  1  4  1  0
  1 15  1  0
  2  5  1  0
  6  7  2  3
  6 12  1  0
  6 13  1  0
  7  8  1  0
  7 14  1  0
  8  9  1  0
  8 10  1  0
  9 16  1  0
  9 17  1  0
  9 18  1  0
 10 11  2  3
 10 19  1  0
 11 20  1  0
 11 21  1  0
M  RAD  1   8   2
M  END
>  <reaction>  (15) 
rxn_1191

>  <mol_properties>  (15) 
{"0": {"label": "*3", "atom_type": "Cs"}, "1": {"label": "*4", "atom_type": "S2s"}, "6": {"label": "*0", "atom_type": "Cd"}, "7": {"label": "*1", "atom_type": "Cs"}, "14": {"label": "*2", "atom_type": "H0"}}

>  <type>  (15) 
unop_11

>  <geom_source>  (15) 
Heuristics

$$$$

     RDKit          3D

 21 19  0  0  0  0  0  0  0  0999 V2000
    0.1753    1.6856   -0.6484 C   0  0  0  0  0  0  0  0  0  0  0  0
    0.2083    1.1848   -2.3881 S   0  0  0  0  0  0  0  0  0  0  0  0
   -0.7393    2.2606   -0.5129 H   0  0  0  0  0  0  0  0  0  0  0  0
    1.0248    2.3192   -0.4020 H   0  0  0  0  0  0  0  0  0  0  0  0
    1.3669    0.5156   -2.3467 H   0  0  0  0  0  0  0  0  0  0  0  0
    0.1024   -1.6261   -1.2493 C   0  0  0  0  0  0  0  0  0  0  0  0
    0.1024   -1.6261    0.0739 C   0  0  0  0  0  0  0  0  0  0  0  0
    0.1024   -0.3953    0.9433 C   0  0  0  0  0  3  0  0  0  0  0  0
    1.3408   -0.3655    1.8349 C   0  0  0  0  0  0  0  0  0  0  0  0
   -1.2011   -0.3267    1.6998 C   0  0  0  0  0  0  0  0  0  0  0  0
   -1.3557   -0.3265    3.0148 C   0  0  0  0  0  0  0  0  0  0  0  0
    0.1017   -2.5487   -1.8160 H   0  0  0  0  0  0  0  0  0  0  0  0
    0.1042   -0.7003   -1.8150 H   0  0  0  0  0  0  0  0  0  0  0  0
    0.0977   -2.5719    0.6115 H   0  0  0  0  0  0  0  0  0  0  0  0
    0.1390    0.6490    0.1445 H   0  0  0  0  0  0  0  0  0  0  0  0
    2.2435   -0.3739    1.2237 H   0  0  0  0  0  0  0  0  0  0  0  0
    1.3555    0.5302    2.4580 H   0  0  0  0  0  0  0  0  0  0  0  0
    1.3734   -1.2373    2.4925 H   0  0  0  0  0  0  0  0  0  0  0  0
   -2.0843   -0.2910    1.0673 H   0  0  0  0  0  0  0  0  0  0  0  0
   -0.5154   -0.3658    3.6973 H   0  0  0  0  0  0  0  0  0  0  0  0
   -2.3421   -0.2834    3.4590 H   0  0  0  0  0  0  0  0  0  0  0  0
  1  2  1  0
  1  3  1  0
  1  4  1  0
  1 15  1  0
  2  5  1  0
  6  7  2  3
  6 12  1  0
  6 13  1  0
  7  8  1  0
  7 14  1  0
  8  9  1  0
  8 10  1  0
  9 16  1  0
  9 17  1  0
  9 18  1  0
 10 11  2  3
 10 19  1  0
 11 20  1  0
 11 21  1  0
M  RAD  1   8   2
M  END
>  <reaction>  (16) 
rxn_1191

>  <mol_properties>  (16) 
{"0": {"label": "*3", "atom_type": "Cs"}, "1": {"label": "*4", "atom_type": "S2s"}, "6": {"label": "*0", "atom_type": "Cd"}, "7": {"label": "*1", "atom_type": "Cs"}, "14": {"label": "*2", "atom_type": "H0"}}

>  <type>  (16) 
unop_12

>  <geom_source>  (16) 
Heuristics

$$$$

     RDKit          3D

 21 19  0  0  0  0  0  0  0  0999 V2000
    3.0904   -1.0203    0.6173 S   0  0  0  0  0  0  0  0  0  0  0  0
    0.7967    0.3340    0.4146 C   0  0  0  0  0  0  0  0  0  0  0  0
    2.0696   -0.9255   -0.8799 C   0  0  0  0  0  0  0  0  0  0  0  0
   -0.3781   -0.1861   -0.4167 C   0  0  0  0  0  3  0  0  0  0  0  0
   -1.1196    0.8812   -1.1795 C   0  0  0  0  0  0  0  0  0  0  0  0
   -1.2893   -1.1332    0.3206 C   0  0  0  0  0  0  0  0  0  0  0  0
   -1.6819    1.9408   -0.5885 C   0  0  0  0  0  0  0  0  0  0  0  0
   -1.9134   -0.8063    1.4572 C   0  0  0  0  0  0  0  0  0  0  0  0
    1.4834    0.9189   -0.2328 H   0  0  0  0  0  0  0  0  0  0  0  0
    1.3620   -0.5218    0.8400 H   0  0  0  0  0  0  0  0  0  0  0  0
    0.4448    0.9817    1.2445 H   0  0  0  0  0  0  0  0  0  0  0  0
    2.3303   -0.0105   -1.4510 H   0  0  0  0  0  0  0  0  0  0  0  0
    2.2567   -1.8186   -1.5106 H   0  0  0  0  0  0  0  0  0  0  0  0
    0.8066   -0.8868   -0.5465 H   0  0  0  0  0  0  0  0  0  0  0  0
   -1.2097    0.7696   -2.2552 H   0  0  0  0  0  0  0  0  0  0  0  0
   -1.4531   -2.1180   -0.1048 H   0  0  0  0  0  0  0  0  0  0  0  0
   -1.6173    2.0914    0.4833 H   0  0  0  0  0  0  0  0  0  0  0  0
   -2.2119    2.6751   -1.1863 H   0  0  0  0  0  0  0  0  0  0  0  0
   -1.7795    0.1668    1.9166 H   0  0  0  0  0  0  0  0  0  0  0  0
   -2.5659   -1.5252    1.9417 H   0  0  0  0  0  0  0  0  0  0  0  0
    2.5793    0.1928    1.1160 H   0  0  0  0  0  0  0  0  0  0  0  0
  1  3  1  0
  1 21  1  0
  2  4  1  0
  2  9  1  0
  2 10  1  0
  2 11  1  0
  3 12  1  0
  3 13  1  0
  3 14  1  0
  4  5  1  0
  4  6  1  0
  5  7  2  3
  5 15  1  0
  6  8  2  3
  6 16  1  0
  7 17  1  0
  7 18  1  0
  8 19  1  0
  8 20  1  0
M  RAD  1   4   2
M  END
>  <reaction>  (17) 
rxn_1191

>  <mol_properties>  (17) 
{"0": {"label": "*3", "atom_type": "Cs"}, "1": {"label": "*4", "atom_type": "S2s"}, "6": {"label": "*0", "atom_type": "Cd"}, "7": {"label": "*1", "atom_type": "Cs"}, "14": {"label": "*2", "atom_type": "H0"}}

>  <type>  (17) 
unop_13

>  <geom_source>  (17) 
AutoTST

$$$$
