
     RDKit          3D

 12 11  0  0  0  0  0  0  0  0999 V2000
    1.9877    0.1011    0.4814 C   0  0  0  0  0  0  0  0  0  0  0  0
    0.8179    0.5502    0.0525 C   0  0  0  0  0  0  0  0  0  0  0  0
   -0.2939   -0.2692   -0.5320 C   0  0  0  0  0  0  0  0  0  0  0  0
   -0.0292   -1.7631   -0.6328 C   0  0  0  0  0  0  0  0  0  0  0  0
    2.2522   -0.9490    0.4436 H   0  0  0  0  0  0  0  0  0  0  0  0
    2.7295    0.7757    0.8896 H   0  0  0  0  0  0  0  0  0  0  0  0
    0.6162    1.6164    0.1190 H   0  0  0  0  0  0  0  0  0  0  0  0
   -0.5268    0.1319   -1.5245 H   0  0  0  0  0  0  0  0  0  0  0  0
   -1.1959   -0.0938    0.0644 H   0  0  0  0  0  0  0  0  0  0  0  0
    0.1590   -2.1992    0.3502 H   0  0  0  0  0  0  0  0  0  0  0  0
    0.8382   -1.9701   -1.2626 H   0  0  0  0  0  0  0  0  0  0  0  0
   -0.8879   -2.2759   -1.0672 H   0  0  0  0  0  0  0  0  0  0  0  0
  1  2  2  3
  1  5  1  0
  1  6  1  0
  2  3  1  0
  2  7  1  0
  3  4  1  0
  3  8  1  0
  3  9  1  0
  4 10  1  0
  4 11  1  0
  4 12  1  0
M  END
>  <reaction>  (1) 
rxn_1067

>  <mol_properties>  (1) 
{"2": {"label": "donator", "atom_type": "Cs"}, "7": {"label": "d_hydrogen", "atom_type": "H0"}}

>  <type>  (1) 
r1h

$$$$

     RDKit          3D

  7  6  0  0  0  0  0  0  0  0999 V2000
   -1.3496    0.0255    0.0758 C   0  0  0  0  0  0  0  0  0  0  0  0
   -0.0636   -0.0704   -0.0033 C   0  0  0  0  0  0  0  0  0  0  0  0
    1.2597   -0.1602   -0.0839 C   0  0  0  0  0  0  0  0  0  0  0  0
    2.2616    1.2090   -0.0064 S   0  0  0  0  0  1  0  0  0  0  0  0
   -1.8547   -0.0180    1.0345 H   0  0  0  0  0  0  0  0  0  0  0  0
   -1.9552    0.1601   -0.8138 H   0  0  0  0  0  0  0  0  0  0  0  0
    1.7017   -1.1460   -0.2029 H   0  0  0  0  0  0  0  0  0  0  0  0
  1  2  2  0
  1  5  1  0
  1  6  1  0
  2  3  2  0
  3  4  1  0
  3  7  1  0
M  RAD  1   4   2
M  END
>  <reaction>  (2) 
rxn_1067

>  <mol_properties>  (2) 
{"1": {"label": "acceptor", "atom_type": "Cd"}}

>  <type>  (2) 
r2

$$$$

     RDKit          3D

  8  7  0  0  0  0  0  0  0  0999 V2000
   -1.1617    0.0338    0.5053 C   0  0  0  0  0  0  0  0  0  0  0  0
   -0.1023    0.4503   -0.1863 C   0  0  0  0  0  0  0  0  0  0  0  0
    1.0978   -0.3557   -0.3104 C   0  0  0  0  0  0  0  0  0  0  0  0
    2.4251    0.0667   -1.1256 S   0  0  0  0  0  0  0  0  0  0  0  0
   -1.1653   -0.9292    1.0039 H   0  0  0  0  0  0  0  0  0  0  0  0
   -2.0546    0.6389    0.5948 H   0  0  0  0  0  0  0  0  0  0  0  0
   -0.0991    1.4132   -0.6847 H   0  0  0  0  0  0  0  0  0  0  0  0
    1.0601   -1.3180    0.2032 H   0  0  0  0  0  0  0  0  0  0  0  0
  1  2  2  3
  1  5  1  0
  1  6  1  0
  2  3  1  0
  2  7  1  0
  3  4  2  0
  3  8  1  0
M  END
>  <reaction>  (3) 
rxn_1067

>  <mol_properties>  (3) 
{"1": {"label": "acceptor", "atom_type": "Cd"}, "7": {"label": "a_hydrogen", "atom_type": "H0"}}

>  <type>  (3) 
r2h

$$$$

     RDKit          3D

 19 17  0  0  0  0  0  0  0  0999 V2000
    1.8836   -1.0898   -0.0270 C   0  0  0  0  0  0  0  0  0  0  0  0
    0.9853   -0.4612    0.6963 C   0  0  0  0  0  0  0  0  0  0  0  0
    0.8858    0.2585    1.9078 C   0  0  0  0  0  0  0  0  0  0  0  0
    0.5236    1.8495    2.0224 S   0  0  0  0  0  1  0  0  0  0  0  0
    2.9348   -1.0919    0.2425 H   0  0  0  0  0  0  0  0  0  0  0  0
    1.5971   -1.6077   -0.9366 H   0  0  0  0  0  0  0  0  0  0  0  0
    0.9792   -0.3364    2.8178 H   0  0  0  0  0  0  0  0  0  0  0  0
   -0.9029   -1.8791   -2.7129 C   0  0  0  0  0  0  0  0  0  0  0  0
   -1.2758   -1.6361   -1.4535 C   0  0  0  0  0  0  0  0  0  0  0  0
   -1.2082   -0.3425   -0.7821 C   0  0  0  0  0  0  0  0  0  0  0  0
   -0.8988    0.8972   -1.5760 C   0  0  0  0  0  0  0  0  0  0  0  0
   -0.5390   -1.0953   -3.3658 H   0  0  0  0  0  0  0  0  0  0  0  0
   -0.9687   -2.8749   -3.1312 H   0  0  0  0  0  0  0  0  0  0  0  0
   -1.6398   -2.4634   -0.8514 H   0  0  0  0  0  0  0  0  0  0  0  0
   -0.1892   -0.4610    0.0464 H   0  0  0  0  0  0  0  0  0  0  0  0
   -1.9760   -0.2057   -0.0207 H   0  0  0  0  0  0  0  0  0  0  0  0
   -1.6995    1.1048   -2.2917 H   0  0  0  0  0  0  0  0  0  0  0  0
    0.0325    0.7886   -2.1341 H   0  0  0  0  0  0  0  0  0  0  0  0
   -0.7901    1.7553   -0.9141 H   0  0  0  0  0  0  0  0  0  0  0  0
  1  2  2  0
  1  5  1  0
  1  6  1  0
  2  3  2  0
  3  4  1  0
  3  7  1  0
  8  9  2  3
  8 12  1  0
  8 13  1  0
  9 10  1  0
  9 14  1  0
 10 11  1  0
 10 15  1  0
 10 16  1  0
 11 17  1  0
 11 18  1  0
 11 19  1  0
M  RAD  1   4   2
M  END
>  <reaction>  (4) 
rxn_1067

>  <mol_properties>  (4) 
{"1": {"label": "*3", "atom_type": "Cdd"}, "2": {"label": "*4", "atom_type": "Cd"}, "8": {"label": "*0", "atom_type": "Cd"}, "9": {"label": "*1", "atom_type": "Cs"}, "14": {"label": "*2", "atom_type": "H0"}}

>  <type>  (4) 
ts

$$$$

     RDKit          3D

 19 17  0  0  0  0  0  0  0  0999 V2000
    2.2265    1.3284    0.6502 C   0  0  0  0  0  0  0  0  0  0  0  0
    1.2832    0.3881    0.6490 C   0  0  0  0  0  0  0  0  0  0  0  0
    0.7321   -0.1470    1.8800 C   0  0  0  0  0  0  0  0  0  0  0  0
   -0.4096   -1.2839    1.9745 S   0  0  0  0  0  0  0  0  0  0  0  0
    2.6193    1.7305    1.5775 H   0  0  0  0  0  0  0  0  0  0  0  0
    2.6343    1.7241   -0.2709 H   0  0  0  0  0  0  0  0  0  0  0  0
    1.1495    0.2796    2.7939 H   0  0  0  0  0  0  0  0  0  0  0  0
   -0.7926   -0.6541   -3.1521 C   0  0  0  0  0  0  0  0  0  0  0  0
   -0.7926   -0.6541   -1.8277 C   0  0  0  0  0  0  0  0  0  0  0  0
   -0.7926    0.5504   -0.9343 C   0  0  0  0  0  3  0  0  0  0  0  0
   -0.7926    1.8961   -1.6420 C   0  0  0  0  0  0  0  0  0  0  0  0
   -0.7926    0.2628   -3.7295 H   0  0  0  0  0  0  0  0  0  0  0  0
   -0.7926   -1.5815   -3.7108 H   0  0  0  0  0  0  0  0  0  0  0  0
   -0.7926   -1.6099   -1.3095 H   0  0  0  0  0  0  0  0  0  0  0  0
    0.2507    0.4688   -0.1385 H   0  0  0  0  0  0  0  0  0  0  0  0
   -1.6620    0.4824   -0.2711 H   0  0  0  0  0  0  0  0  0  0  0  0
   -1.6751    2.0111   -2.2744 H   0  0  0  0  0  0  0  0  0  0  0  0
    0.0898    2.0111   -2.2744 H   0  0  0  0  0  0  0  0  0  0  0  0
   -0.7926    2.7105   -0.9167 H   0  0  0  0  0  0  0  0  0  0  0  0
  1  2  2  3
  1  5  1  0
  1  6  1  0
  2  3  1  0
  2 15  1  0
  3  4  2  0
  3  7  1  0
  8  9  2  3
  8 12  1  0
  8 13  1  0
  9 10  1  0
  9 14  1  0
 10 11  1  0
 10 16  1  0
 11 17  1  0
 11 18  1  0
 11 19  1  0
M  RAD  1  10   2
M  END
>  <reaction>  (5) 
rxn_1067

>  <mol_properties>  (5) 
{"1": {"label": "*3", "atom_type": "Cdd"}, "2": {"label": "*4", "atom_type": "Cd"}, "8": {"label": "*0", "atom_type": "Cd"}, "9": {"label": "*1", "atom_type": "Cs"}, "14": {"label": "*2", "atom_type": "H0"}}

>  <type>  (5) 
unop_1

>  <geom_source>  (5) 
Heuristics

$$$$

     RDKit          3D

 19 17  0  0  0  0  0  0  0  0999 V2000
    2.2293   -1.0396    0.2384 C   0  0  0  0  0  0  0  0  0  0  0  0
    1.1117   -0.4267    0.6248 C   0  0  0  0  0  0  0  0  0  0  0  0
    1.0901    0.4930    1.7469 C   0  0  0  0  0  0  0  0  0  0  0  0
   -0.2133    1.2786    2.2844 S   0  0  0  0  0  0  0  0  0  0  0  0
    3.1696   -0.8722    0.7519 H   0  0  0  0  0  0  0  0  0  0  0  0
    2.2400   -1.7248   -0.5993 H   0  0  0  0  0  0  0  0  0  0  0  0
    2.0527    0.6383    2.2405 H   0  0  0  0  0  0  0  0  0  0  0  0
   -0.9641   -1.4689   -3.1763 C   0  0  0  0  0  0  0  0  0  0  0  0
   -0.9641   -1.4689   -1.8519 C   0  0  0  0  0  0  0  0  0  0  0  0
   -0.9641   -0.2644   -0.9585 C   0  0  0  0  0  3  0  0  0  0  0  0
   -0.9641    1.0814   -1.6662 C   0  0  0  0  0  0  0  0  0  0  0  0
   -0.9641   -0.5520   -3.7537 H   0  0  0  0  0  0  0  0  0  0  0  0
   -0.9641   -2.3962   -3.7350 H   0  0  0  0  0  0  0  0  0  0  0  0
   -0.9641   -2.4246   -1.3337 H   0  0  0  0  0  0  0  0  0  0  0  0
    0.0792   -0.3459   -0.1627 H   0  0  0  0  0  0  0  0  0  0  0  0
   -1.8335   -0.3323   -0.2953 H   0  0  0  0  0  0  0  0  0  0  0  0
   -1.8465    1.1964   -2.2986 H   0  0  0  0  0  0  0  0  0  0  0  0
   -0.0816    1.1964   -2.2986 H   0  0  0  0  0  0  0  0  0  0  0  0
   -0.9641    1.8957   -0.9409 H   0  0  0  0  0  0  0  0  0  0  0  0
  1  2  2  3
  1  5  1  0
  1  6  1  0
  2  3  1  0
  2 15  1  0
  3  4  2  0
  3  7  1  0
  8  9  2  3
  8 12  1  0
  8 13  1  0
  9 10  1  0
  9 14  1  0
 10 11  1  0
 10 16  1  0
 11 17  1  0
 11 18  1  0
 11 19  1  0
M  RAD  1  10   2
M  END
>  <reaction>  (6) 
rxn_1067

>  <mol_properties>  (6) 
{"1": {"label": "*3", "atom_type": "Cdd"}, "2": {"label": "*4", "atom_type": "Cd"}, "8": {"label": "*0", "atom_type": "Cd"}, "9": {"label": "*1", "atom_type": "Cs"}, "14": {"label": "*2", "atom_type": "H0"}}

>  <type>  (6) 
unop_2

>  <geom_source>  (6) 
Heuristics

$$$$

     RDKit          3D

 19 17  0  0  0  0  0  0  0  0999 V2000
    1.6824    1.7561    1.3436 C   0  0  0  0  0  0  0  0  0  0  0  0
    1.0766    0.6624    0.8842 C   0  0  0  0  0  0  0  0  0  0  0  0
    0.9195   -0.5273    1.6998 C   0  0  0  0  0  0  0  0  0  0  0  0
    0.2016   -1.8937    1.2282 S   0  0  0  0  0  0  0  0  0  0  0  0
    2.0827    1.7968    2.3505 H   0  0  0  0  0  0  0  0  0  0  0  0
    1.7970    2.6409    0.7310 H   0  0  0  0  0  0  0  0  0  0  0  0
    1.3335   -0.4519    2.7069 H   0  0  0  0  0  0  0  0  0  0  0  0
   -0.9992   -0.3798   -2.9170 C   0  0  0  0  0  0  0  0  0  0  0  0
   -0.9992   -0.3798   -1.5926 C   0  0  0  0  0  0  0  0  0  0  0  0
   -0.9992    0.8247   -0.6992 C   0  0  0  0  0  3  0  0  0  0  0  0
   -0.9992    2.1705   -1.4069 C   0  0  0  0  0  0  0  0  0  0  0  0
   -0.9992    0.5371   -3.4944 H   0  0  0  0  0  0  0  0  0  0  0  0
   -0.9992   -1.3071   -3.4756 H   0  0  0  0  0  0  0  0  0  0  0  0
   -0.9992   -1.3355   -1.0744 H   0  0  0  0  0  0  0  0  0  0  0  0
    0.0441    0.7432    0.0966 H   0  0  0  0  0  0  0  0  0  0  0  0
   -1.8686    0.7568   -0.0360 H   0  0  0  0  0  0  0  0  0  0  0  0
   -1.8816    2.2855   -2.0393 H   0  0  0  0  0  0  0  0  0  0  0  0
   -0.1168    2.2855   -2.0393 H   0  0  0  0  0  0  0  0  0  0  0  0
   -0.9992    2.9848   -0.6816 H   0  0  0  0  0  0  0  0  0  0  0  0
  1  2  2  3
  1  5  1  0
  1  6  1  0
  2  3  1  0
  2 15  1  0
  3  4  2  0
  3  7  1  0
  8  9  2  3
  8 12  1  0
  8 13  1  0
  9 10  1  0
  9 14  1  0
 10 11  1  0
 10 16  1  0
 11 17  1  0
 11 18  1  0
 11 19  1  0
M  RAD  1  10   2
M  END
>  <reaction>  (7) 
rxn_1067

>  <mol_properties>  (7) 
{"1": {"label": "*3", "atom_type": "Cdd"}, "2": {"label": "*4", "atom_type": "Cd"}, "8": {"label": "*0", "atom_type": "Cd"}, "9": {"label": "*1", "atom_type": "Cs"}, "14": {"label": "*2", "atom_type": "H0"}}

>  <type>  (7) 
unop_3

>  <geom_source>  (7) 
Heuristics

$$$$

     RDKit          3D

 19 17  0  0  0  0  0  0  0  0999 V2000
    0.9128   -1.6788    1.9694 C   0  0  0  0  0  0  0  0  0  0  0  0
    0.7594   -0.6527    1.1340 C   0  0  0  0  0  0  0  0  0  0  0  0
    1.2364    0.6786    1.4587 C   0  0  0  0  0  0  0  0  0  0  0  0
    1.0950    1.9773    0.5110 S   0  0  0  0  0  0  0  0  0  0  0  0
    1.4030   -1.5551    2.9287 H   0  0  0  0  0  0  0  0  0  0  0  0
    0.5551   -2.6699    1.7223 H   0  0  0  0  0  0  0  0  0  0  0  0
    1.7245    0.7673    2.4310 H   0  0  0  0  0  0  0  0  0  0  0  0
   -1.3164   -1.6949   -2.6671 C   0  0  0  0  0  0  0  0  0  0  0  0
   -1.3164   -1.6949   -1.3427 C   0  0  0  0  0  0  0  0  0  0  0  0
   -1.3164   -0.4904   -0.4493 C   0  0  0  0  0  3  0  0  0  0  0  0
   -1.3164    0.8553   -1.1570 C   0  0  0  0  0  0  0  0  0  0  0  0
   -1.3164   -0.7780   -3.2445 H   0  0  0  0  0  0  0  0  0  0  0  0
   -1.3164   -2.6222   -3.2258 H   0  0  0  0  0  0  0  0  0  0  0  0
   -1.3164   -2.6506   -0.8246 H   0  0  0  0  0  0  0  0  0  0  0  0
   -0.2731   -0.5720    0.3465 H   0  0  0  0  0  0  0  0  0  0  0  0
   -2.1858   -0.5584    0.2138 H   0  0  0  0  0  0  0  0  0  0  0  0
   -2.1988    0.9704   -1.7894 H   0  0  0  0  0  0  0  0  0  0  0  0
   -0.4339    0.9704   -1.7894 H   0  0  0  0  0  0  0  0  0  0  0  0
   -1.3164    1.6697   -0.4317 H   0  0  0  0  0  0  0  0  0  0  0  0
  1  2  2  3
  1  5  1  0
  1  6  1  0
  2  3  1  0
  2 15  1  0
  3  4  2  0
  3  7  1  0
  8  9  2  3
  8 12  1  0
  8 13  1  0
  9 10  1  0
  9 14  1  0
 10 11  1  0
 10 16  1  0
 11 17  1  0
 11 18  1  0
 11 19  1  0
M  RAD  1  10   2
M  END
>  <reaction>  (8) 
rxn_1067

>  <mol_properties>  (8) 
{"1": {"label": "*3", "atom_type": "Cdd"}, "2": {"label": "*4", "atom_type": "Cd"}, "8": {"label": "*0", "atom_type": "Cd"}, "9": {"label": "*1", "atom_type": "Cs"}, "14": {"label": "*2", "atom_type": "H0"}}

>  <type>  (8) 
unop_4

>  <geom_source>  (8) 
Heuristics

$$$$

     RDKit          3D

 19 17  0  0  0  0  0  0  0  0999 V2000
    0.8854    1.5684    2.2362 C   0  0  0  0  0  0  0  0  0  0  0  0
    0.6325    0.6259    1.3296 C   0  0  0  0  0  0  0  0  0  0  0  0
    1.4883   -0.5350    1.1708 C   0  0  0  0  0  0  0  0  0  0  0  0
    1.2604   -1.7230    0.1025 S   0  0  0  0  0  0  0  0  0  0  0  0
    1.7458    1.5014    2.8927 H   0  0  0  0  0  0  0  0  0  0  0  0
    0.2438    2.4324    2.3505 H   0  0  0  0  0  0  0  0  0  0  0  0
    2.3444   -0.5706    1.8470 H   0  0  0  0  0  0  0  0  0  0  0  0
   -1.4433   -0.4163   -2.4716 C   0  0  0  0  0  0  0  0  0  0  0  0
   -1.4433   -0.4163   -1.1472 C   0  0  0  0  0  0  0  0  0  0  0  0
   -1.4433    0.7882   -0.2538 C   0  0  0  0  0  3  0  0  0  0  0  0
   -1.4433    2.1340   -0.9615 C   0  0  0  0  0  0  0  0  0  0  0  0
   -1.4433    0.5006   -3.0490 H   0  0  0  0  0  0  0  0  0  0  0  0
   -1.4433   -1.3436   -3.0302 H   0  0  0  0  0  0  0  0  0  0  0  0
   -1.4433   -1.3720   -0.6290 H   0  0  0  0  0  0  0  0  0  0  0  0
   -0.4000    0.7067    0.5420 H   0  0  0  0  0  0  0  0  0  0  0  0
   -2.3127    0.7203    0.4094 H   0  0  0  0  0  0  0  0  0  0  0  0
   -2.3257    2.2490   -1.5939 H   0  0  0  0  0  0  0  0  0  0  0  0
   -0.5608    2.2490   -1.5939 H   0  0  0  0  0  0  0  0  0  0  0  0
   -1.4433    2.9483   -0.2362 H   0  0  0  0  0  0  0  0  0  0  0  0
  1  2  2  3
  1  5  1  0
  1  6  1  0
  2  3  1  0
  2 15  1  0
  3  4  2  0
  3  7  1  0
  8  9  2  3
  8 12  1  0
  8 13  1  0
  9 10  1  0
  9 14  1  0
 10 11  1  0
 10 16  1  0
 11 17  1  0
 11 18  1  0
 11 19  1  0
M  RAD  1  10   2
M  END
>  <reaction>  (9) 
rxn_1067

>  <mol_properties>  (9) 
{"1": {"label": "*3", "atom_type": "Cdd"}, "2": {"label": "*4", "atom_type": "Cd"}, "8": {"label": "*0", "atom_type": "Cd"}, "9": {"label": "*1", "atom_type": "Cs"}, "14": {"label": "*2", "atom_type": "H0"}}

>  <type>  (9) 
unop_5

>  <geom_source>  (9) 
Heuristics

$$$$

     RDKit          3D

 19 17  0  0  0  0  0  0  0  0999 V2000
    0.5518   -1.1611    2.5630 C   0  0  0  0  0  0  0  0  0  0  0  0
    0.6302   -0.5518    1.3811 C   0  0  0  0  0  0  0  0  0  0  0  0
    1.3446    0.6993    1.2091 C   0  0  0  0  0  0  0  0  0  0  0  0
    1.4914    1.5063   -0.1808 S   0  0  0  0  0  0  0  0  0  0  0  0
    1.0223   -0.7411    3.4450 H   0  0  0  0  0  0  0  0  0  0  0  0
    0.0176   -2.0943    2.6859 H   0  0  0  0  0  0  0  0  0  0  0  0
    1.8057    1.0936    2.1164 H   0  0  0  0  0  0  0  0  0  0  0  0
   -1.4456   -1.5940   -2.4200 C   0  0  0  0  0  0  0  0  0  0  0  0
   -1.4456   -1.5940   -1.0956 C   0  0  0  0  0  0  0  0  0  0  0  0
   -1.4456   -0.3895   -0.2022 C   0  0  0  0  0  3  0  0  0  0  0  0
   -1.4456    0.9562   -0.9099 C   0  0  0  0  0  0  0  0  0  0  0  0
   -1.4456   -0.6771   -2.9974 H   0  0  0  0  0  0  0  0  0  0  0  0
   -1.4456   -2.5214   -2.9787 H   0  0  0  0  0  0  0  0  0  0  0  0
   -1.4456   -2.5497   -0.5775 H   0  0  0  0  0  0  0  0  0  0  0  0
   -0.4024   -0.4711    0.5936 H   0  0  0  0  0  0  0  0  0  0  0  0
   -2.3150   -0.4575    0.4609 H   0  0  0  0  0  0  0  0  0  0  0  0
   -2.3281    1.0712   -1.5423 H   0  0  0  0  0  0  0  0  0  0  0  0
   -0.5632    1.0712   -1.5423 H   0  0  0  0  0  0  0  0  0  0  0  0
   -1.4456    1.7706   -0.1846 H   0  0  0  0  0  0  0  0  0  0  0  0
  1  2  2  3
  1  5  1  0
  1  6  1  0
  2  3  1  0
  2 15  1  0
  3  4  2  0
  3  7  1  0
  8  9  2  3
  8 12  1  0
  8 13  1  0
  9 10  1  0
  9 14  1  0
 10 11  1  0
 10 16  1  0
 11 17  1  0
 11 18  1  0
 11 19  1  0
M  RAD  1  10   2
M  END
>  <reaction>  (10) 
rxn_1067

>  <mol_properties>  (10) 
{"1": {"label": "*3", "atom_type": "Cdd"}, "2": {"label": "*4", "atom_type": "Cd"}, "8": {"label": "*0", "atom_type": "Cd"}, "9": {"label": "*1", "atom_type": "Cs"}, "14": {"label": "*2", "atom_type": "H0"}}

>  <type>  (10) 
unop_6

>  <geom_source>  (10) 
Heuristics

$$$$

     RDKit          3D

 19 17  0  0  0  0  0  0  0  0999 V2000
    0.3748   -0.3452    2.9064 C   0  0  0  0  0  0  0  0  0  0  0  0
    0.5169   -0.3045    1.5827 C   0  0  0  0  0  0  0  0  0  0  0  0
    1.5013    0.5482    0.9428 C   0  0  0  0  0  0  0  0  0  0  0  0
    1.7434    0.6620   -0.6488 S   0  0  0  0  0  0  0  0  0  0  0  0
    0.9939    0.2615    3.5579 H   0  0  0  0  0  0  0  0  0  0  0  0
   -0.3611   -0.9830    3.3787 H   0  0  0  0  0  0  0  0  0  0  0  0
    2.1068    1.1448    1.6275 H   0  0  0  0  0  0  0  0  0  0  0  0
   -1.5589   -1.3467   -2.2185 C   0  0  0  0  0  0  0  0  0  0  0  0
   -1.5589   -1.3467   -0.8941 C   0  0  0  0  0  0  0  0  0  0  0  0
   -1.5589   -0.1422   -0.0007 C   0  0  0  0  0  3  0  0  0  0  0  0
   -1.5589    1.2036   -0.7084 C   0  0  0  0  0  0  0  0  0  0  0  0
   -1.5589   -0.4297   -2.7959 H   0  0  0  0  0  0  0  0  0  0  0  0
   -1.5589   -2.2740   -2.7772 H   0  0  0  0  0  0  0  0  0  0  0  0
   -1.5589   -2.3024   -0.3759 H   0  0  0  0  0  0  0  0  0  0  0  0
   -0.5156   -0.2237    0.7951 H   0  0  0  0  0  0  0  0  0  0  0  0
   -2.4283   -0.2101    0.6625 H   0  0  0  0  0  0  0  0  0  0  0  0
   -2.4413    1.3186   -1.3408 H   0  0  0  0  0  0  0  0  0  0  0  0
   -0.6764    1.3186   -1.3408 H   0  0  0  0  0  0  0  0  0  0  0  0
   -1.5589    2.0180    0.0169 H   0  0  0  0  0  0  0  0  0  0  0  0
  1  2  2  3
  1  5  1  0
  1  6  1  0
  2  3  1  0
  2 15  1  0
  3  4  2  0
  3  7  1  0
  8  9  2  3
  8 12  1  0
  8 13  1  0
  9 10  1  0
  9 14  1  0
 10 11  1  0
 10 16  1  0
 11 17  1  0
 11 18  1  0
 11 19  1  0
M  RAD  1  10   2
M  END
>  <reaction>  (11) 
rxn_1067

>  <mol_properties>  (11) 
{"1": {"label": "*3", "atom_type": "Cdd"}, "2": {"label": "*4", "atom_type": "Cd"}, "8": {"label": "*0", "atom_type": "Cd"}, "9": {"label": "*1", "atom_type": "Cs"}, "14": {"label": "*2", "atom_type": "H0"}}

>  <type>  (11) 
unop_7

>  <geom_source>  (11) 
Heuristics

$$$$

     RDKit          3D

 19 17  0  0  0  0  0  0  0  0999 V2000
    2.4896    0.5902    0.2020 C   0  0  0  0  0  0  0  0  0  0  0  0
    1.3145    0.0667    0.5473 C   0  0  0  0  0  0  0  0  0  0  0  0
    0.7841    0.1928    1.8920 C   0  0  0  0  0  0  0  0  0  0  0  0
   -0.6258   -0.4072    2.3988 S   0  0  0  0  0  0  0  0  0  0  0  0
    3.0962    1.1332    0.9183 H   0  0  0  0  0  0  0  0  0  0  0  0
    2.8807    0.4933   -0.8025 H   0  0  0  0  0  0  0  0  0  0  0  0
    1.4197    0.7448    2.5867 H   0  0  0  0  0  0  0  0  0  0  0  0
   -0.7613   -0.9755   -3.2538 C   0  0  0  0  0  0  0  0  0  0  0  0
   -0.7613   -0.9755   -1.9294 C   0  0  0  0  0  0  0  0  0  0  0  0
   -0.7613    0.2290   -1.0360 C   0  0  0  0  0  3  0  0  0  0  0  0
   -0.7613    1.5747   -1.7437 C   0  0  0  0  0  0  0  0  0  0  0  0
   -0.7613   -0.0586   -3.8312 H   0  0  0  0  0  0  0  0  0  0  0  0
   -0.7613   -1.9029   -3.8125 H   0  0  0  0  0  0  0  0  0  0  0  0
   -0.7613   -1.9313   -1.4113 H   0  0  0  0  0  0  0  0  0  0  0  0
    0.2820    0.1474   -0.2402 H   0  0  0  0  0  0  0  0  0  0  0  0
   -1.6307    0.1610   -0.3729 H   0  0  0  0  0  0  0  0  0  0  0  0
   -1.6437    1.6897   -2.3761 H   0  0  0  0  0  0  0  0  0  0  0  0
    0.1212    1.6897   -2.3761 H   0  0  0  0  0  0  0  0  0  0  0  0
   -0.7613    2.3891   -1.0184 H   0  0  0  0  0  0  0  0  0  0  0  0
  1  2  2  3
  1  5  1  0
  1  6  1  0
  2  3  1  0
  2 15  1  0
  3  4  2  0
  3  7  1  0
  8  9  2  3
  8 12  1  0
  8 13  1  0
  9 10  1  0
  9 14  1  0
 10 11  1  0
 10 16  1  0
 11 17  1  0
 11 18  1  0
 11 19  1  0
M  RAD  1  10   2
M  END
>  <reaction>  (12) 
rxn_1067

>  <mol_properties>  (12) 
{"1": {"label": "*3", "atom_type": "Cdd"}, "2": {"label": "*4", "atom_type": "Cd"}, "8": {"label": "*0", "atom_type": "Cd"}, "9": {"label": "*1", "atom_type": "Cs"}, "14": {"label": "*2", "atom_type": "H0"}}

>  <type>  (12) 
unop_8

>  <geom_source>  (12) 
Heuristics

$$$$

     RDKit          3D

 19 17  0  0  0  0  0  0  0  0999 V2000
    1.3684   -1.8177    1.2872 C   0  0  0  0  0  0  0  0  0  0  0  0
    0.8776   -0.6383    0.9101 C   0  0  0  0  0  0  0  0  0  0  0  0
    1.1937    0.5867    1.6206 C   0  0  0  0  0  0  0  0  0  0  0  0
    0.6465    2.0557    1.2367 S   0  0  0  0  0  0  0  0  0  0  0  0
    2.0265   -1.9053    2.1447 H   0  0  0  0  0  0  0  0  0  0  0  0
    1.1295   -2.7285    0.7537 H   0  0  0  0  0  0  0  0  0  0  0  0
    1.8580    0.4623    2.4778 H   0  0  0  0  0  0  0  0  0  0  0  0
   -1.1982   -1.6805   -2.8910 C   0  0  0  0  0  0  0  0  0  0  0  0
   -1.1982   -1.6805   -1.5666 C   0  0  0  0  0  0  0  0  0  0  0  0
   -1.1982   -0.4760   -0.6732 C   0  0  0  0  0  3  0  0  0  0  0  0
   -1.1982    0.8698   -1.3809 C   0  0  0  0  0  0  0  0  0  0  0  0
   -1.1982   -0.7636   -3.4684 H   0  0  0  0  0  0  0  0  0  0  0  0
   -1.1982   -2.6078   -3.4497 H   0  0  0  0  0  0  0  0  0  0  0  0
   -1.1982   -2.6362   -1.0485 H   0  0  0  0  0  0  0  0  0  0  0  0
   -0.1550   -0.5576    0.1226 H   0  0  0  0  0  0  0  0  0  0  0  0
   -2.0676   -0.5440   -0.0101 H   0  0  0  0  0  0  0  0  0  0  0  0
   -2.0807    0.9848   -2.0133 H   0  0  0  0  0  0  0  0  0  0  0  0
   -0.3158    0.9848   -2.0133 H   0  0  0  0  0  0  0  0  0  0  0  0
   -1.1982    1.6841   -0.6556 H   0  0  0  0  0  0  0  0  0  0  0  0
  1  2  2  3
  1  5  1  0
  1  6  1  0
  2  3  1  0
  2 15  1  0
  3  4  2  0
  3  7  1  0
  8  9  2  3
  8 12  1  0
  8 13  1  0
  9 10  1  0
  9 14  1  0
 10 11  1  0
 10 16  1  0
 11 17  1  0
 11 18  1  0
 11 19  1  0
M  RAD  1  10   2
M  END
>  <reaction>  (13) 
rxn_1067

>  <mol_properties>  (13) 
{"1": {"label": "*3", "atom_type": "Cdd"}, "2": {"label": "*4", "atom_type": "Cd"}, "8": {"label": "*0", "atom_type": "Cd"}, "9": {"label": "*1", "atom_type": "Cs"}, "14": {"label": "*2", "atom_type": "H0"}}

>  <type>  (13) 
unop_9

>  <geom_source>  (13) 
Heuristics

$$$$

     RDKit          3D

 19 17  0  0  0  0  0  0  0  0999 V2000
    2.4771   -0.2649    0.0634 C   0  0  0  0  0  0  0  0  0  0  0  0
    1.2383   -0.2199    0.5506 C   0  0  0  0  0  0  0  0  0  0  0  0
    0.9371    0.4080    1.8235 C   0  0  0  0  0  0  0  0  0  0  0  0
   -0.5293    0.5093    2.4900 S   0  0  0  0  0  0  0  0  0  0  0  0
    3.3108    0.1691    0.6042 H   0  0  0  0  0  0  0  0  0  0  0  0
    2.6965   -0.7346   -0.8867 H   0  0  0  0  0  0  0  0  0  0  0  0
    1.7985    0.8343    2.3408 H   0  0  0  0  0  0  0  0  0  0  0  0
   -0.8375   -1.2621   -3.2505 C   0  0  0  0  0  0  0  0  0  0  0  0
   -0.8375   -1.2621   -1.9262 C   0  0  0  0  0  0  0  0  0  0  0  0
   -0.8375   -0.0576   -1.0327 C   0  0  0  0  0  3  0  0  0  0  0  0
   -0.8375    1.2881   -1.7405 C   0  0  0  0  0  0  0  0  0  0  0  0
   -0.8375   -0.3452   -3.8280 H   0  0  0  0  0  0  0  0  0  0  0  0
   -0.8375   -2.1894   -3.8092 H   0  0  0  0  0  0  0  0  0  0  0  0
   -0.8375   -2.2178   -1.4080 H   0  0  0  0  0  0  0  0  0  0  0  0
    0.2058   -0.1392   -0.2370 H   0  0  0  0  0  0  0  0  0  0  0  0
   -1.7069   -0.1256   -0.3696 H   0  0  0  0  0  0  0  0  0  0  0  0
   -1.7199    1.4032   -2.3729 H   0  0  0  0  0  0  0  0  0  0  0  0
    0.0450    1.4032   -2.3729 H   0  0  0  0  0  0  0  0  0  0  0  0
   -0.8375    2.1025   -1.0151 H   0  0  0  0  0  0  0  0  0  0  0  0
  1  2  2  3
  1  5  1  0
  1  6  1  0
  2  3  1  0
  2 15  1  0
  3  4  2  0
  3  7  1  0
  8  9  2  3
  8 12  1  0
  8 13  1  0
  9 10  1  0
  9 14  1  0
 10 11  1  0
 10 16  1  0
 11 17  1  0
 11 18  1  0
 11 19  1  0
M  RAD  1  10   2
M  END
>  <reaction>  (14) 
rxn_1067

>  <mol_properties>  (14) 
{"1": {"label": "*3", "atom_type": "Cdd"}, "2": {"label": "*4", "atom_type": "Cd"}, "8": {"label": "*0", "atom_type": "Cd"}, "9": {"label": "*1", "atom_type": "Cs"}, "14": {"label": "*2", "atom_type": "H0"}}

>  <type>  (14) 
unop_10

>  <geom_source>  (14) 
Heuristics

$$$$

     RDKit          3D

 19 17  0  0  0  0  0  0  0  0999 V2000
    0.4379    0.6313    2.8598 C   0  0  0  0  0  0  0  0  0  0  0  0
    0.4588    0.1041    1.6369 C   0  0  0  0  0  0  0  0  0  0  0  0
    1.6503    0.1332    0.8093 C   0  0  0  0  0  0  0  0  0  0  0  0
    1.7674   -0.4786   -0.6795 S   0  0  0  0  0  0  0  0  0  0  0  0
    1.3167    1.1045    3.2839 H   0  0  0  0  0  0  0  0  0  0  0  0
   -0.4535    0.6070    3.4731 H   0  0  0  0  0  0  0  0  0  0  0  0
    2.5156    0.6165    1.2666 H   0  0  0  0  0  0  0  0  0  0  0  0
   -1.6170   -0.9381   -2.1643 C   0  0  0  0  0  0  0  0  0  0  0  0
   -1.6170   -0.9381   -0.8399 C   0  0  0  0  0  0  0  0  0  0  0  0
   -1.6170    0.2664    0.0535 C   0  0  0  0  0  3  0  0  0  0  0  0
   -1.6170    1.6122   -0.6542 C   0  0  0  0  0  0  0  0  0  0  0  0
   -1.6170   -0.0212   -2.7417 H   0  0  0  0  0  0  0  0  0  0  0  0
   -1.6170   -1.8654   -2.7229 H   0  0  0  0  0  0  0  0  0  0  0  0
   -1.6170   -1.8938   -0.3217 H   0  0  0  0  0  0  0  0  0  0  0  0
   -0.5737    0.1848    0.8493 H   0  0  0  0  0  0  0  0  0  0  0  0
   -2.4864    0.1984    0.7167 H   0  0  0  0  0  0  0  0  0  0  0  0
   -2.4994    1.7272   -1.2866 H   0  0  0  0  0  0  0  0  0  0  0  0
   -0.7345    1.7272   -1.2866 H   0  0  0  0  0  0  0  0  0  0  0  0
   -1.6170    2.4265    0.0711 H   0  0  0  0  0  0  0  0  0  0  0  0
  1  2  2  3
  1  5  1  0
  1  6  1  0
  2  3  1  0
  2 15  1  0
  3  4  2  0
  3  7  1  0
  8  9  2  3
  8 12  1  0
  8 13  1  0
  9 10  1  0
  9 14  1  0
 10 11  1  0
 10 16  1  0
 11 17  1  0
 11 18  1  0
 11 19  1  0
M  RAD  1  10   2
M  END
>  <reaction>  (15) 
rxn_1067

>  <mol_properties>  (15) 
{"1": {"label": "*3", "atom_type": "Cdd"}, "2": {"label": "*4", "atom_type": "Cd"}, "8": {"label": "*0", "atom_type": "Cd"}, "9": {"label": "*1", "atom_type": "Cs"}, "14": {"label": "*2", "atom_type": "H0"}}

>  <type>  (15) 
unop_11

>  <geom_source>  (15) 
Heuristics

$$$$

     RDKit          3D

 19 17  0  0  0  0  0  0  0  0999 V2000
    1.8312   -1.5857    0.6728 C   0  0  0  0  0  0  0  0  0  0  0  0
    0.9874   -0.5576    0.7429 C   0  0  0  0  0  0  0  0  0  0  0  0
    1.1713    0.5221    1.6947 C   0  0  0  0  0  0  0  0  0  0  0  0
    0.2028    1.8036    1.8505 S   0  0  0  0  0  0  0  0  0  0  0  0
    2.6918   -1.6533    1.3291 H   0  0  0  0  0  0  0  0  0  0  0  0
    1.6895   -2.3886   -0.0390 H   0  0  0  0  0  0  0  0  0  0  0  0
    2.0466    0.4223    2.3392 H   0  0  0  0  0  0  0  0  0  0  0  0
   -1.0884   -1.5998   -3.0582 C   0  0  0  0  0  0  0  0  0  0  0  0
   -1.0884   -1.5998   -1.7338 C   0  0  0  0  0  0  0  0  0  0  0  0
   -1.0884   -0.3953   -0.8404 C   0  0  0  0  0  3  0  0  0  0  0  0
   -1.0884    0.9505   -1.5481 C   0  0  0  0  0  0  0  0  0  0  0  0
   -1.0884   -0.6829   -3.6356 H   0  0  0  0  0  0  0  0  0  0  0  0
   -1.0884   -2.5271   -3.6169 H   0  0  0  0  0  0  0  0  0  0  0  0
   -1.0884   -2.5555   -1.2156 H   0  0  0  0  0  0  0  0  0  0  0  0
   -0.0451   -0.4768   -0.0446 H   0  0  0  0  0  0  0  0  0  0  0  0
   -1.9578   -0.4632   -0.1772 H   0  0  0  0  0  0  0  0  0  0  0  0
   -1.9708    1.0655   -2.1805 H   0  0  0  0  0  0  0  0  0  0  0  0
   -0.2059    1.0655   -2.1805 H   0  0  0  0  0  0  0  0  0  0  0  0
   -1.0884    1.7649   -0.8228 H   0  0  0  0  0  0  0  0  0  0  0  0
  1  2  2  3
  1  5  1  0
  1  6  1  0
  2  3  1  0
  2 15  1  0
  3  4  2  0
  3  7  1  0
  8  9  2  3
  8 12  1  0
  8 13  1  0
  9 10  1  0
  9 14  1  0
 10 11  1  0
 10 16  1  0
 11 17  1  0
 11 18  1  0
 11 19  1  0
M  RAD  1  10   2
M  END
>  <reaction>  (16) 
rxn_1067

>  <mol_properties>  (16) 
{"1": {"label": "*3", "atom_type": "Cdd"}, "2": {"label": "*4", "atom_type": "Cd"}, "8": {"label": "*0", "atom_type": "Cd"}, "9": {"label": "*1", "atom_type": "Cs"}, "14": {"label": "*2", "atom_type": "H0"}}

>  <type>  (16) 
unop_12

>  <geom_source>  (16) 
Heuristics

$$$$

     RDKit          3D

 19 17  0  0  0  0  0  0  0  0999 V2000
   -4.2778    0.4455    1.0206 S   0  0  0  0  0  0  0  0  0  0  0  0
    1.8363    1.0464    0.9854 C   0  0  0  0  0  0  0  0  0  0  0  0
    0.7704    0.2063    0.2925 C   0  0  0  0  0  3  0  0  0  0  0  0
    1.2559   -1.1832   -0.0032 C   0  0  0  0  0  0  0  0  0  0  0  0
   -1.8066    0.1199   -0.1227 C   0  0  0  0  0  0  0  0  0  0  0  0
   -2.2220    0.4717   -1.3392 C   0  0  0  0  0  0  0  0  0  0  0  0
   -2.6821    0.0706    1.0632 C   0  0  0  0  0  0  0  0  0  0  0  0
    2.1695   -1.4236   -0.9479 C   0  0  0  0  0  0  0  0  0  0  0  0
    2.7109    1.1953    0.3172 H   0  0  0  0  0  0  0  0  0  0  0  0
    1.4101    2.0384    1.2422 H   0  0  0  0  0  0  0  0  0  0  0  0
    2.1659    0.5483    1.9217 H   0  0  0  0  0  0  0  0  0  0  0  0
    0.4164    0.7049   -0.6356 H   0  0  0  0  0  0  0  0  0  0  0  0
   -0.6456   -0.1772    0.0234 H   0  0  0  0  0  0  0  0  0  0  0  0
    0.8264   -2.0134    0.5480 H   0  0  0  0  0  0  0  0  0  0  0  0
   -1.5186    0.4837   -2.1611 H   0  0  0  0  0  0  0  0  0  0  0  0
   -3.2486    0.7490   -1.5378 H   0  0  0  0  0  0  0  0  0  0  0  0
   -2.2500   -0.2279    2.0088 H   0  0  0  0  0  0  0  0  0  0  0  0
    2.6004   -0.6132   -1.5280 H   0  0  0  0  0  0  0  0  0  0  0  0
    2.4890   -2.4413   -1.1475 H   0  0  0  0  0  0  0  0  0  0  0  0
  1  7  2  0
  2  3  1  0
  2  9  1  0
  2 10  1  0
  2 11  1  0
  3  4  1  0
  3 12  1  0
  4  8  2  3
  4 14  1  0
  5  6  2  3
  5  7  1  0
  5 13  1  0
  6 15  1  0
  6 16  1  0
  7 17  1  0
  8 18  1  0
  8 19  1  0
M  RAD  1   3   2
M  END
>  <reaction>  (17) 
rxn_1067

>  <mol_properties>  (17) 
{"1": {"label": "*3", "atom_type": "Cdd"}, "2": {"label": "*4", "atom_type": "Cd"}, "8": {"label": "*0", "atom_type": "Cd"}, "9": {"label": "*1", "atom_type": "Cs"}, "14": {"label": "*2", "atom_type": "H0"}}

>  <type>  (17) 
unop_13

>  <geom_source>  (17) 
AutoTST

$$$$
