
     RDKit          3D

  2  1  0  0  0  0  0  0  0  0999 V2000
    0.0000    0.0000    0.3721 H   0  0  0  0  0  0  0  0  0  0  0  0
    0.0000    0.0000   -0.3721 H   0  0  0  0  0  0  0  0  0  0  0  0
  1  2  1  0
M  END
>  <reaction>  (1) 
rxn_787

>  <mol_properties>  (1) 
{"0": {"label": "donator", "atom_type": "H0"}, "1": {"label": "d_hydrogen", "atom_type": "H0"}}

>  <type>  (1) 
r1h

$$$$

     RDKit          3D

 10  9  0  0  0  0  0  0  0  0999 V2000
    1.2930    0.1441    0.3288 C   0  0  0  0  0  0  0  0  0  0  0  0
   -0.0374   -0.1647    0.9100 C   0  0  0  0  0  3  0  0  0  0  0  0
   -1.2664    0.4569    0.3567 C   0  0  0  0  0  0  0  0  0  0  0  0
    1.4384    1.2242    0.2174 H   0  0  0  0  0  0  0  0  0  0  0  0
    2.1077   -0.2477    0.9385 H   0  0  0  0  0  0  0  0  0  0  0  0
    1.4057   -0.2836   -0.6789 H   0  0  0  0  0  0  0  0  0  0  0  0
   -0.1309   -0.9912    1.6030 H   0  0  0  0  0  0  0  0  0  0  0  0
   -1.5005    0.0716   -0.6471 H   0  0  0  0  0  0  0  0  0  0  0  0
   -2.1382    0.2713    0.9849 H   0  0  0  0  0  0  0  0  0  0  0  0
   -1.1497    1.5406    0.2456 H   0  0  0  0  0  0  0  0  0  0  0  0
  1  2  1  0
  1  4  1  0
  1  5  1  0
  1  6  1  0
  2  3  1  0
  2  7  1  0
  3  8  1  0
  3  9  1  0
  3 10  1  0
M  RAD  1   2   2
M  END
>  <reaction>  (2) 
rxn_787

>  <mol_properties>  (2) 
{"1": {"label": "acceptor", "atom_type": "Cs"}}

>  <type>  (2) 
r2

$$$$

     RDKit          3D

 11 10  0  0  0  0  0  0  0  0999 V2000
   -1.2710    0.1907   -0.2084 C   0  0  0  0  0  0  0  0  0  0  0  0
    0.0202   -0.6130   -0.2928 C   0  0  0  0  0  0  0  0  0  0  0  0
    0.1086   -1.6953    0.7756 C   0  0  0  0  0  0  0  0  0  0  0  0
   -1.3607    0.6851    0.7620 H   0  0  0  0  0  0  0  0  0  0  0  0
   -2.1429   -0.4567   -0.3299 H   0  0  0  0  0  0  0  0  0  0  0  0
   -1.3158    0.9602   -0.9809 H   0  0  0  0  0  0  0  0  0  0  0  0
    0.8757    0.0616   -0.1992 H   0  0  0  0  0  0  0  0  0  0  0  0
    0.0997   -1.0712   -1.2825 H   0  0  0  0  0  0  0  0  0  0  0  0
   -0.7198   -2.4022    0.6850 H   0  0  0  0  0  0  0  0  0  0  0  0
    1.0395   -2.2596    0.6989 H   0  0  0  0  0  0  0  0  0  0  0  0
    0.0624   -1.2603    1.7770 H   0  0  0  0  0  0  0  0  0  0  0  0
  1  2  1  0
  1  4  1  0
  1  5  1  0
  1  6  1  0
  2  3  1  0
  2  7  1  0
  2  8  1  0
  3  9  1  0
  3 10  1  0
  3 11  1  0
M  END
>  <reaction>  (3) 
rxn_787

>  <mol_properties>  (3) 
{"0": {"label": "a_hydrogen", "atom_type": "H0"}, "2": {"label": "acceptor", "atom_type": "Cs"}}

>  <type>  (3) 
r2h

$$$$

     RDKit          3D

 12 10  0  0  0  0  0  0  0  0999 V2000
   -0.3316   -0.1767   -2.4714 H   0  0  0  0  0 15  0  0  0  0  0  0
   -0.3900   -0.2078   -1.4925 H   0  0  0  0  0  0  0  0  0  0  0  0
   -0.4086    1.2310    0.2144 C   0  0  0  0  0  0  0  0  0  0  0  0
   -0.4076   -0.2172   -0.2004 C   0  0  0  0  0  0  0  0  0  0  0  0
    0.7939   -1.0257    0.2144 C   0  0  0  0  0  0  0  0  0  0  0  0
    0.4964    1.7365   -0.1300 H   0  0  0  0  0  0  0  0  0  0  0  0
   -1.2704    1.7632   -0.1902 H   0  0  0  0  0  0  0  0  0  0  0  0
   -0.4414    1.3214    1.3050 H   0  0  0  0  0  0  0  0  0  0  0  0
   -1.3535   -0.7212    0.0015 H   0  0  0  0  0  0  0  0  0  0  0  0
    0.8505   -1.1034    1.3050 H   0  0  0  0  0  0  0  0  0  0  0  0
    0.7549   -2.0379   -0.1902 H   0  0  0  0  0  0  0  0  0  0  0  0
    1.7182   -0.5565   -0.1300 H   0  0  0  0  0  0  0  0  0  0  0  0
  2  4  1  0
  3  4  1  0
  3  6  1  0
  3  7  1  0
  3  8  1  0
  4  5  1  0
  4  9  1  0
  5 10  1  0
  5 11  1  0
  5 12  1  0
M  END
>  <reaction>  (4) 
rxn_787

>  <mol_properties>  (4) 
{"0": {"label": "*1", "atom_type": "H0"}, "1": {"label": "*2", "atom_type": "H0"}, "2": {"label": "*4", "atom_type": "Cs"}, "3": {"label": "*3", "atom_type": "Cs"}}

>  <type>  (4) 
ts

$$$$

     RDKit          3D

 12 10  0  0  0  0  0  0  0  0999 V2000
   -0.3978   -0.2119   -2.4894 H   0  0  0  0  0 15  0  0  0  0  0  0
   -0.3978   -0.2119   -1.5964 H   0  0  0  0  0  0  0  0  0  0  0  0
   -0.3978    1.2245    0.2229 C   0  0  0  0  0  0  0  0  0  0  0  0
   -0.3978   -0.2119   -0.2841 C   0  0  0  0  0  0  0  0  0  0  0  0
    0.7945   -1.0131    0.2229 C   0  0  0  0  0  0  0  0  0  0  0  0
    0.5054    1.7510   -0.0950 H   0  0  0  0  0  0  0  0  0  0  0  0
   -1.2585    1.7818   -0.1506 H   0  0  0  0  0  0  0  0  0  0  0  0
   -0.4286    1.2533    1.3148 H   0  0  0  0  0  0  0  0  0  0  0  0
   -1.3245   -0.7057    0.0211 H   0  0  0  0  0  0  0  0  0  0  0  0
    0.8012   -1.0548    1.3148 H   0  0  0  0  0  0  0  0  0  0  0  0
    0.7770   -2.0384   -0.1506 H   0  0  0  0  0  0  0  0  0  0  0  0
    1.7353   -0.5571   -0.0950 H   0  0  0  0  0  0  0  0  0  0  0  0
  2  4  1  0
  3  4  1  0
  3  6  1  0
  3  7  1  0
  3  8  1  0
  4  5  1  0
  4  9  1  0
  5 10  1  0
  5 11  1  0
  5 12  1  0
M  END
>  <reaction>  (5) 
rxn_787

>  <mol_properties>  (5) 
{"0": {"label": "*1", "atom_type": "H0"}, "1": {"label": "*2", "atom_type": "H0"}, "2": {"label": "*4", "atom_type": "Cs"}, "3": {"label": "*3", "atom_type": "Cs"}}

>  <type>  (5) 
unop_1

>  <geom_source>  (5) 
Heuristics

$$$$

     RDKit          3D

 12 10  0  0  0  0  0  0  0  0999 V2000
    0.0687    0.2614    0.4720 C   0  0  0  0  0  0  0  0  0  0  0  0
    1.2170   -0.1857   -0.4290 C   0  0  0  0  0  0  0  0  0  0  0  0
   -1.2013   -0.5360    0.1870 C   0  0  0  0  0  0  0  0  0  0  0  0
    0.3603    0.1174    1.5347 H   0  0  0  0  0  0  0  0  0  0  0  0
   -0.1072    1.2199    0.3263 H   0  0  0  0  0  0  0  0  0  0  0  0
    2.1263    0.4088   -0.1980 H   0  0  0  0  0  0  0  0  0  0  0  0
    1.4438   -1.2599   -0.2592 H   0  0  0  0  0  0  0  0  0  0  0  0
    0.9536   -0.0318   -1.4975 H   0  0  0  0  0  0  0  0  0  0  0  0
   -1.5219   -0.3903   -0.8669 H   0  0  0  0  0  0  0  0  0  0  0  0
   -1.0260   -1.6176    0.3699 H   0  0  0  0  0  0  0  0  0  0  0  0
   -2.0171   -0.1914    0.8574 H   0  0  0  0  0  0  0  0  0  0  0  0
   -0.2962    2.2051   -0.4968 H   0  0  0  0  0 15  0  0  0  0  0  0
  1  2  1  0
  1  3  1  0
  1  4  1  0
  1  5  1  0
  2  6  1  0
  2  7  1  0
  2  8  1  0
  3  9  1  0
  3 10  1  0
  3 11  1  0
M  END
>  <reaction>  (6) 
rxn_787

>  <mol_properties>  (6) 
{"0": {"label": "*1", "atom_type": "H0"}, "1": {"label": "*2", "atom_type": "H0"}, "2": {"label": "*4", "atom_type": "Cs"}, "3": {"label": "*3", "atom_type": "Cs"}}

>  <type>  (6) 
unop_2

>  <geom_source>  (6) 
AutoTST

$$$$
