
     RDKit          3D

  9  8  0  0  0  0  0  0  0  0999 V2000
    1.1303   -0.2933   -0.7510 C   0  0  0  0  0  0  0  0  0  0  0  0
    0.2866    0.4560   -0.0588 C   0  0  0  0  0  0  0  0  0  0  0  0
   -0.9719   -0.0331    0.5823 C   0  0  0  0  0  0  0  0  0  0  0  0
    2.0274    0.1230   -1.1916 H   0  0  0  0  0  0  0  0  0  0  0  0
    0.9532   -1.3530   -0.9023 H   0  0  0  0  0  0  0  0  0  0  0  0
    0.5065    1.5132    0.0659 H   0  0  0  0  0  0  0  0  0  0  0  0
   -0.9526    0.1426    1.6610 H   0  0  0  0  0  0  0  0  0  0  0  0
   -1.1182   -1.1002    0.4106 H   0  0  0  0  0  0  0  0  0  0  0  0
   -1.8412    0.5010    0.1901 H   0  0  0  0  0  0  0  0  0  0  0  0
  1  2  2  3
  1  4  1  0
  1  5  1  0
  2  3  1  0
  2  6  1  0
  3  7  1  0
  3  8  1  0
  3  9  1  0
M  END
>  <reaction>  (1) 
rxn_1614

>  <mol_properties>  (1) 
{"1": {"label": "donator", "atom_type": "Cd"}, "5": {"label": "d_hydrogen", "atom_type": "H0"}}

>  <type>  (1) 
r1h

$$$$

     RDKit          3D

  9  8  0  0  0  0  0  0  0  0999 V2000
    2.3038   -0.0269    0.1590 C   0  0  0  0  0  0  0  0  0  0  0  0
    1.1426    0.1377   -0.1648 C   0  0  0  0  0  0  0  0  0  0  0  0
   -0.1694    0.3175   -0.5203 C   0  0  0  0  0  3  0  0  0  0  0  0
   -1.3163   -0.1910    0.2856 C   0  0  0  0  0  0  0  0  0  0  0  0
    3.3199   -0.1683    0.4378 H   0  0  0  0  0  0  0  0  0  0  0  0
   -0.3786    0.8584   -1.4360 H   0  0  0  0  0  0  0  0  0  0  0  0
   -1.9694    0.6309    0.5951 H   0  0  0  0  0  0  0  0  0  0  0  0
   -1.9325   -0.8770   -0.3039 H   0  0  0  0  0  0  0  0  0  0  0  0
   -0.9753   -0.7144    1.1774 H   0  0  0  0  0  0  0  0  0  0  0  0
  1  2  3  0
  1  5  1  0
  2  3  1  0
  3  4  1  0
  3  6  1  0
  4  7  1  0
  4  8  1  0
  4  9  1  0
M  RAD  1   3   2
M  END
>  <reaction>  (2) 
rxn_1614

>  <mol_properties>  (2) 
{"2": {"label": "acceptor", "atom_type": "Cs"}}

>  <type>  (2) 
r2

$$$$

     RDKit          3D

 10  9  0  0  0  0  0  0  0  0999 V2000
    2.2738    0.0217   -0.0992 C   0  0  0  0  0  0  0  0  0  0  0  0
    1.1083    0.2960   -0.0695 C   0  0  0  0  0  0  0  0  0  0  0  0
   -0.3173    0.6046   -0.0227 C   0  0  0  0  0  0  0  0  0  0  0  0
   -1.1561   -0.5495    0.5292 C   0  0  0  0  0  0  0  0  0  0  0  0
    3.3097   -0.2166   -0.1277 H   0  0  0  0  0  0  0  0  0  0  0  0
   -0.6542    0.8617   -1.0302 H   0  0  0  0  0  0  0  0  0  0  0  0
   -0.4633    1.4978    0.5900 H   0  0  0  0  0  0  0  0  0  0  0  0
   -0.8485   -0.7997    1.5447 H   0  0  0  0  0  0  0  0  0  0  0  0
   -2.2115   -0.2752    0.5459 H   0  0  0  0  0  0  0  0  0  0  0  0
   -1.0409   -1.4407   -0.0879 H   0  0  0  0  0  0  0  0  0  0  0  0
  1  2  3  0
  1  5  1  0
  2  3  1  0
  3  4  1  0
  3  6  1  0
  3  7  1  0
  4  8  1  0
  4  9  1  0
  4 10  1  0
M  END
>  <reaction>  (3) 
rxn_1614

>  <mol_properties>  (3) 
{"2": {"label": "acceptor", "atom_type": "Cs"}, "9": {"label": "a_hydrogen", "atom_type": "H0"}}

>  <type>  (3) 
r2h

$$$$

     RDKit          3D

 18 16  0  0  0  0  0  0  0  0999 V2000
    0.9380   -0.6612    2.5276 C   0  0  0  0  0  0  0  0  0  0  0  0
    0.4523   -0.9217    1.4601 C   0  0  0  0  0  0  0  0  0  0  0  0
   -0.1395   -1.1714    0.1763 C   0  0  0  0  0  0  0  0  0  0  0  0
   -1.6240   -1.4869    0.1835 C   0  0  0  0  0  0  0  0  0  0  0  0
    1.3706   -0.4489    3.4754 H   0  0  0  0  0  0  0  0  0  0  0  0
    0.4459   -1.8826   -0.4074 H   0  0  0  0  0  0  0  0  0  0  0  0
   -1.9973   -1.5700   -0.8378 H   0  0  0  0  0  0  0  0  0  0  0  0
   -1.8251   -2.4272    0.7012 H   0  0  0  0  0  0  0  0  0  0  0  0
   -2.1823   -0.6980    0.6885 H   0  0  0  0  0  0  0  0  0  0  0  0
   -0.2646    1.0835   -2.4656 C   0  0  0  0  0  0  0  0  0  0  0  0
    0.0416    1.1494   -1.1915 C   0  0  0  0  0  3  0  0  0  0  0  0
    0.4351    2.2567   -0.2965 C   0  0  0  0  0  0  0  0  0  0  0  0
   -0.5310    0.1467   -2.9431 H   0  0  0  0  0  0  0  0  0  0  0  0
   -0.2615    1.9709   -3.0975 H   0  0  0  0  0  0  0  0  0  0  0  0
   -0.0153   -0.1013   -0.4765 H   0  0  0  0  0  0  0  0  0  0  0  0
   -0.2698    2.3533    0.5322 H   0  0  0  0  0  0  0  0  0  0  0  0
    0.4695    3.2076   -0.8379 H   0  0  0  0  0  0  0  0  0  0  0  0
    1.4175    2.0683    0.1416 H   0  0  0  0  0  0  0  0  0  0  0  0
  1  2  3  0
  1  5  1  0
  2  3  1  0
  3  4  1  0
  3  6  1  0
  3 15  1  0
  4  7  1  0
  4  8  1  0
  4  9  1  0
 10 11  2  3
 10 13  1  0
 10 14  1  0
 11 12  1  0
 12 16  1  0
 12 17  1  0
 12 18  1  0
M  RAD  1  11   2
M  END
>  <reaction>  (4) 
rxn_1614

>  <mol_properties>  (4) 
{"1": {"label": "*0", "atom_type": "Ct"}, "2": {"label": "*1", "atom_type": "Cs"}, "9": {"label": "*4", "atom_type": "Cd"}, "10": {"label": "*3", "atom_type": "Cd"}, "14": {"label": "*2", "atom_type": "H0"}}

>  <type>  (4) 
ts

$$$$

     RDKit          3D

 18 16  0  0  0  0  0  0  0  0999 V2000
    1.9045   -1.4222    1.7141 C   0  0  0  0  0  0  0  0  0  0  0  0
    0.9332   -1.3701    1.0153 C   0  0  0  0  0  0  0  0  0  0  0  0
   -0.2637   -1.2920    0.1838 C   0  0  0  0  0  3  0  0  0  0  0  0
   -1.4065   -0.5319    0.8595 C   0  0  0  0  0  0  0  0  0  0  0  0
    2.7668   -1.4685    2.3345 H   0  0  0  0  0  0  0  0  0  0  0  0
   -0.5860   -2.3066   -0.0638 H   0  0  0  0  0  0  0  0  0  0  0  0
   -2.2775   -0.4986    0.2040 H   0  0  0  0  0  0  0  0  0  0  0  0
   -1.6949   -1.0168    1.7923 H   0  0  0  0  0  0  0  0  0  0  0  0
   -1.1078    0.4911    1.0887 H   0  0  0  0  0  0  0  0  0  0  0  0
   -0.2637    1.0005   -2.3998 C   0  0  0  0  0  0  0  0  0  0  0  0
   -0.2637    1.0005   -1.0760 C   0  0  0  0  0  0  0  0  0  0  0  0
   -0.2637    2.2227   -0.2155 C   0  0  0  0  0  0  0  0  0  0  0  0
   -0.2637    0.0778   -2.9663 H   0  0  0  0  0  0  0  0  0  0  0  0
   -0.2637    1.9261   -2.9658 H   0  0  0  0  0  0  0  0  0  0  0  0
   -0.2637   -0.1427   -0.4478 H   0  0  0  0  0  0  0  0  0  0  0  0
   -1.1414    2.2398    0.4357 H   0  0  0  0  0  0  0  0  0  0  0  0
   -0.2637    3.1331   -0.8161 H   0  0  0  0  0  0  0  0  0  0  0  0
    0.6140    2.2398    0.4357 H   0  0  0  0  0  0  0  0  0  0  0  0
  1  2  3  0
  1  5  1  0
  2  3  1  0
  3  4  1  0
  3  6  1  0
  4  7  1  0
  4  8  1  0
  4  9  1  0
 10 11  2  3
 10 13  1  0
 10 14  1  0
 11 12  1  0
 11 15  1  0
 12 16  1  0
 12 17  1  0
 12 18  1  0
M  RAD  1   3   2
M  END
>  <reaction>  (5) 
rxn_1614

>  <mol_properties>  (5) 
{"1": {"label": "*0", "atom_type": "Ct"}, "2": {"label": "*1", "atom_type": "Cs"}, "9": {"label": "*4", "atom_type": "Cd"}, "10": {"label": "*3", "atom_type": "Cd"}, "14": {"label": "*2", "atom_type": "H0"}}

>  <type>  (5) 
unop_1

>  <geom_source>  (5) 
Heuristics

$$$$

     RDKit          3D

 18 16  0  0  0  0  0  0  0  0999 V2000
    0.8782   -2.7000   -0.7560 C   0  0  0  0  0  0  0  0  0  0  0  0
    0.2926   -1.8914   -0.0944 C   0  0  0  0  0  0  0  0  0  0  0  0
   -0.3984   -0.9040    0.7288 C   0  0  0  0  0  3  0  0  0  0  0  0
    0.4507   -0.4112    1.9019 C   0  0  0  0  0  0  0  0  0  0  0  0
    1.3980   -3.4179   -1.3434 H   0  0  0  0  0  0  0  0  0  0  0  0
   -1.3271   -1.3446    1.1001 H   0  0  0  0  0  0  0  0  0  0  0  0
   -0.1039    0.3228    2.4876 H   0  0  0  0  0  0  0  0  0  0  0  0
    0.7241   -1.2394    2.5559 H   0  0  0  0  0  0  0  0  0  0  0  0
    1.3693    0.0549    1.5451 H   0  0  0  0  0  0  0  0  0  0  0  0
   -0.3984    1.3885   -1.8549 C   0  0  0  0  0  0  0  0  0  0  0  0
   -0.3984    1.3885   -0.5311 C   0  0  0  0  0  0  0  0  0  0  0  0
   -0.3984    2.6107    0.3294 C   0  0  0  0  0  0  0  0  0  0  0  0
   -0.3984    0.4658   -2.4213 H   0  0  0  0  0  0  0  0  0  0  0  0
   -0.3984    2.3141   -2.4209 H   0  0  0  0  0  0  0  0  0  0  0  0
   -0.3984    0.2454    0.0971 H   0  0  0  0  0  0  0  0  0  0  0  0
   -1.2762    2.6278    0.9806 H   0  0  0  0  0  0  0  0  0  0  0  0
   -0.3984    3.5211   -0.2712 H   0  0  0  0  0  0  0  0  0  0  0  0
    0.4793    2.6278    0.9806 H   0  0  0  0  0  0  0  0  0  0  0  0
  1  2  3  0
  1  5  1  0
  2  3  1  0
  3  4  1  0
  3  6  1  0
  4  7  1  0
  4  8  1  0
  4  9  1  0
 10 11  2  3
 10 13  1  0
 10 14  1  0
 11 12  1  0
 11 15  1  0
 12 16  1  0
 12 17  1  0
 12 18  1  0
M  RAD  1   3   2
M  END
>  <reaction>  (6) 
rxn_1614

>  <mol_properties>  (6) 
{"1": {"label": "*0", "atom_type": "Ct"}, "2": {"label": "*1", "atom_type": "Cs"}, "9": {"label": "*4", "atom_type": "Cd"}, "10": {"label": "*3", "atom_type": "Cd"}, "14": {"label": "*2", "atom_type": "H0"}}

>  <type>  (6) 
unop_2

>  <geom_source>  (6) 
Heuristics

$$$$

     RDKit          3D

 18 16  0  0  0  0  0  0  0  0999 V2000
    1.2252   -0.9793    2.4396 C   0  0  0  0  0  0  0  0  0  0  0  0
    0.6785   -1.1188    1.3831 C   0  0  0  0  0  0  0  0  0  0  0  0
   -0.0125   -1.2843    0.1084 C   0  0  0  0  0  3  0  0  0  0  0  0
   -1.5292   -1.1272    0.2313 C   0  0  0  0  0  0  0  0  0  0  0  0
    1.7106   -0.8554    3.3775 H   0  0  0  0  0  0  0  0  0  0  0  0
    0.2285   -2.2706   -0.2961 H   0  0  0  0  0  0  0  0  0  0  0  0
   -2.0027   -1.2585   -0.7424 H   0  0  0  0  0  0  0  0  0  0  0  0
   -1.9402   -1.8678    0.9175 H   0  0  0  0  0  0  0  0  0  0  0  0
   -1.7859   -0.1374    0.6091 H   0  0  0  0  0  0  0  0  0  0  0  0
   -0.0125    1.0082   -2.4753 C   0  0  0  0  0  0  0  0  0  0  0  0
   -0.0125    1.0082   -1.1515 C   0  0  0  0  0  0  0  0  0  0  0  0
   -0.0125    2.2304   -0.2910 C   0  0  0  0  0  0  0  0  0  0  0  0
   -0.0125    0.0854   -3.0417 H   0  0  0  0  0  0  0  0  0  0  0  0
   -0.0125    1.9338   -3.0413 H   0  0  0  0  0  0  0  0  0  0  0  0
   -0.0125   -0.1350   -0.5233 H   0  0  0  0  0  0  0  0  0  0  0  0
   -0.8902    2.2475    0.3602 H   0  0  0  0  0  0  0  0  0  0  0  0
   -0.0125    3.1408   -0.8916 H   0  0  0  0  0  0  0  0  0  0  0  0
    0.8652    2.2475    0.3602 H   0  0  0  0  0  0  0  0  0  0  0  0
  1  2  3  0
  1  5  1  0
  2  3  1  0
  3  4  1  0
  3  6  1  0
  4  7  1  0
  4  8  1  0
  4  9  1  0
 10 11  2  3
 10 13  1  0
 10 14  1  0
 11 12  1  0
 11 15  1  0
 12 16  1  0
 12 17  1  0
 12 18  1  0
M  RAD  1   3   2
M  END
>  <reaction>  (7) 
rxn_1614

>  <mol_properties>  (7) 
{"1": {"label": "*0", "atom_type": "Ct"}, "2": {"label": "*1", "atom_type": "Cs"}, "9": {"label": "*4", "atom_type": "Cd"}, "10": {"label": "*3", "atom_type": "Cd"}, "14": {"label": "*2", "atom_type": "H0"}}

>  <type>  (7) 
unop_3

>  <geom_source>  (7) 
Heuristics

$$$$

     RDKit          3D

 18 16  0  0  0  0  0  0  0  0999 V2000
   -1.8992   -2.1473   -0.0094 C   0  0  0  0  0  0  0  0  0  0  0  0
   -0.9280   -1.5171    0.2976 C   0  0  0  0  0  0  0  0  0  0  0  0
    0.2689   -0.7734    0.6774 C   0  0  0  0  0  3  0  0  0  0  0  0
    1.4175   -1.6830    1.1172 C   0  0  0  0  0  0  0  0  0  0  0  0
   -2.7615   -2.7067   -0.2819 H   0  0  0  0  0  0  0  0  0  0  0  0
    0.0114   -0.0818    1.4836 H   0  0  0  0  0  0  0  0  0  0  0  0
    2.2884   -1.0862    1.3910 H   0  0  0  0  0  0  0  0  0  0  0  0
    1.1264   -2.2840    1.9788 H   0  0  0  0  0  0  0  0  0  0  0  0
    1.7030   -2.3614    0.3131 H   0  0  0  0  0  0  0  0  0  0  0  0
    0.2689    1.5191   -1.9062 C   0  0  0  0  0  0  0  0  0  0  0  0
    0.2689    1.5191   -0.5825 C   0  0  0  0  0  0  0  0  0  0  0  0
    0.2689    2.7413    0.2780 C   0  0  0  0  0  0  0  0  0  0  0  0
    0.2689    0.5964   -2.4727 H   0  0  0  0  0  0  0  0  0  0  0  0
    0.2689    2.4447   -2.4722 H   0  0  0  0  0  0  0  0  0  0  0  0
    0.2689    0.3759    0.0458 H   0  0  0  0  0  0  0  0  0  0  0  0
   -0.6089    2.7584    0.9293 H   0  0  0  0  0  0  0  0  0  0  0  0
    0.2689    3.6517   -0.3225 H   0  0  0  0  0  0  0  0  0  0  0  0
    1.1466    2.7584    0.9293 H   0  0  0  0  0  0  0  0  0  0  0  0
  1  2  3  0
  1  5  1  0
  2  3  1  0
  3  4  1  0
  3  6  1  0
  4  7  1  0
  4  8  1  0
  4  9  1  0
 10 11  2  3
 10 13  1  0
 10 14  1  0
 11 12  1  0
 11 15  1  0
 12 16  1  0
 12 17  1  0
 12 18  1  0
M  RAD  1   3   2
M  END
>  <reaction>  (8) 
rxn_1614

>  <mol_properties>  (8) 
{"1": {"label": "*0", "atom_type": "Ct"}, "2": {"label": "*1", "atom_type": "Cs"}, "9": {"label": "*4", "atom_type": "Cd"}, "10": {"label": "*3", "atom_type": "Cd"}, "14": {"label": "*2", "atom_type": "H0"}}

>  <type>  (8) 
unop_4

>  <geom_source>  (8) 
Heuristics

$$$$

     RDKit          3D

 18 16  0  0  0  0  0  0  0  0999 V2000
    0.1714   -0.7036    2.7598 C   0  0  0  0  0  0  0  0  0  0  0  0
    0.1909   -0.9004    1.5785 C   0  0  0  0  0  0  0  0  0  0  0  0
    0.1909   -1.1552    0.1415 C   0  0  0  0  0  3  0  0  0  0  0  0
   -1.0019   -1.9992   -0.3111 C   0  0  0  0  0  0  0  0  0  0  0  0
    0.1540   -0.5288    3.8085 H   0  0  0  0  0  0  0  0  0  0  0  0
    1.1248   -1.6558   -0.1263 H   0  0  0  0  0  0  0  0  0  0  0  0
   -0.9610   -2.1640   -1.3884 H   0  0  0  0  0  0  0  0  0  0  0  0
   -1.0002   -2.9691    0.1866 H   0  0  0  0  0  0  0  0  0  0  0  0
   -1.9412   -1.4994   -0.0739 H   0  0  0  0  0  0  0  0  0  0  0  0
    0.1909    1.1374   -2.4421 C   0  0  0  0  0  0  0  0  0  0  0  0
    0.1909    1.1374   -1.1184 C   0  0  0  0  0  0  0  0  0  0  0  0
    0.1909    2.3595   -0.2578 C   0  0  0  0  0  0  0  0  0  0  0  0
    0.1909    0.2146   -3.0086 H   0  0  0  0  0  0  0  0  0  0  0  0
    0.1909    2.0630   -3.0081 H   0  0  0  0  0  0  0  0  0  0  0  0
    0.1909   -0.0058   -0.4901 H   0  0  0  0  0  0  0  0  0  0  0  0
   -0.6868    2.3767    0.3934 H   0  0  0  0  0  0  0  0  0  0  0  0
    0.1909    3.2700   -0.8584 H   0  0  0  0  0  0  0  0  0  0  0  0
    1.0687    2.3767    0.3934 H   0  0  0  0  0  0  0  0  0  0  0  0
  1  2  3  0
  1  5  1  0
  2  3  1  0
  3  4  1  0
  3  6  1  0
  4  7  1  0
  4  8  1  0
  4  9  1  0
 10 11  2  3
 10 13  1  0
 10 14  1  0
 11 12  1  0
 11 15  1  0
 12 16  1  0
 12 17  1  0
 12 18  1  0
M  RAD  1   3   2
M  END
>  <reaction>  (9) 
rxn_1614

>  <mol_properties>  (9) 
{"1": {"label": "*0", "atom_type": "Ct"}, "2": {"label": "*1", "atom_type": "Cs"}, "9": {"label": "*4", "atom_type": "Cd"}, "10": {"label": "*3", "atom_type": "Cd"}, "14": {"label": "*2", "atom_type": "H0"}}

>  <type>  (9) 
unop_5

>  <geom_source>  (9) 
Heuristics

$$$$

     RDKit          3D

 18 16  0  0  0  0  0  0  0  0999 V2000
   -2.1478   -1.6298    0.9149 C   0  0  0  0  0  0  0  0  0  0  0  0
   -1.0209   -1.2708    0.7262 C   0  0  0  0  0  0  0  0  0  0  0  0
    0.3612   -0.8599    0.5004 C   0  0  0  0  0  3  0  0  0  0  0  0
    1.3513   -2.0204    0.6161 C   0  0  0  0  0  0  0  0  0  0  0  0
   -3.1483   -1.9484    1.0824 H   0  0  0  0  0  0  0  0  0  0  0  0
    0.6172   -0.0784    1.2202 H   0  0  0  0  0  0  0  0  0  0  0  0
    2.3684   -1.6681    0.4404 H   0  0  0  0  0  0  0  0  0  0  0  0
    1.3078   -2.4679    1.6091 H   0  0  0  0  0  0  0  0  0  0  0  0
    1.1239   -2.7967   -0.1147 H   0  0  0  0  0  0  0  0  0  0  0  0
    0.3612    1.4326   -2.0832 C   0  0  0  0  0  0  0  0  0  0  0  0
    0.3612    1.4326   -0.7595 C   0  0  0  0  0  0  0  0  0  0  0  0
    0.3612    2.6548    0.1010 C   0  0  0  0  0  0  0  0  0  0  0  0
    0.3612    0.5099   -2.6497 H   0  0  0  0  0  0  0  0  0  0  0  0
    0.3612    2.3582   -2.6492 H   0  0  0  0  0  0  0  0  0  0  0  0
    0.3612    0.2894   -0.1313 H   0  0  0  0  0  0  0  0  0  0  0  0
   -0.5165    2.6719    0.7522 H   0  0  0  0  0  0  0  0  0  0  0  0
    0.3612    3.5652   -0.4996 H   0  0  0  0  0  0  0  0  0  0  0  0
    1.2389    2.6719    0.7522 H   0  0  0  0  0  0  0  0  0  0  0  0
  1  2  3  0
  1  5  1  0
  2  3  1  0
  3  4  1  0
  3  6  1  0
  4  7  1  0
  4  8  1  0
  4  9  1  0
 10 11  2  3
 10 13  1  0
 10 14  1  0
 11 12  1  0
 11 15  1  0
 12 16  1  0
 12 17  1  0
 12 18  1  0
M  RAD  1   3   2
M  END
>  <reaction>  (10) 
rxn_1614

>  <mol_properties>  (10) 
{"1": {"label": "*0", "atom_type": "Ct"}, "2": {"label": "*1", "atom_type": "Cs"}, "9": {"label": "*4", "atom_type": "Cd"}, "10": {"label": "*3", "atom_type": "Cd"}, "14": {"label": "*2", "atom_type": "H0"}}

>  <type>  (10) 
unop_6

>  <geom_source>  (10) 
Heuristics

$$$$

     RDKit          3D

 18 16  0  0  0  0  0  0  0  0999 V2000
   -1.8304   -1.1163    1.8496 C   0  0  0  0  0  0  0  0  0  0  0  0
   -0.8506   -1.0292    1.1662 C   0  0  0  0  0  0  0  0  0  0  0  0
    0.3463   -0.9511    0.3348 C   0  0  0  0  0  3  0  0  0  0  0  0
    0.9729   -2.3208    0.0674 C   0  0  0  0  0  0  0  0  0  0  0  0
   -2.7002   -1.1936    2.4562 H   0  0  0  0  0  0  0  0  0  0  0  0
    1.0727   -0.2983    0.8255 H   0  0  0  0  0  0  0  0  0  0  0  0
    1.8617   -2.2144   -0.5558 H   0  0  0  0  0  0  0  0  0  0  0  0
    1.2621   -2.8026    1.0015 H   0  0  0  0  0  0  0  0  0  0  0  0
    0.2679   -2.9748   -0.4460 H   0  0  0  0  0  0  0  0  0  0  0  0
    0.3463    1.3414   -2.2488 C   0  0  0  0  0  0  0  0  0  0  0  0
    0.3463    1.3414   -0.9251 C   0  0  0  0  0  0  0  0  0  0  0  0
    0.3463    2.5636   -0.0645 C   0  0  0  0  0  0  0  0  0  0  0  0
    0.3463    0.4187   -2.8153 H   0  0  0  0  0  0  0  0  0  0  0  0
    0.3463    2.2670   -2.8148 H   0  0  0  0  0  0  0  0  0  0  0  0
    0.3463    0.1983   -0.2968 H   0  0  0  0  0  0  0  0  0  0  0  0
   -0.5314    2.5807    0.5867 H   0  0  0  0  0  0  0  0  0  0  0  0
    0.3463    3.4740   -0.6651 H   0  0  0  0  0  0  0  0  0  0  0  0
    1.2240    2.5807    0.5867 H   0  0  0  0  0  0  0  0  0  0  0  0
  1  2  3  0
  1  5  1  0
  2  3  1  0
  3  4  1  0
  3  6  1  0
  4  7  1  0
  4  8  1  0
  4  9  1  0
 10 11  2  3
 10 13  1  0
 10 14  1  0
 11 12  1  0
 11 15  1  0
 12 16  1  0
 12 17  1  0
 12 18  1  0
M  RAD  1   3   2
M  END
>  <reaction>  (11) 
rxn_1614

>  <mol_properties>  (11) 
{"1": {"label": "*0", "atom_type": "Ct"}, "2": {"label": "*1", "atom_type": "Cs"}, "9": {"label": "*4", "atom_type": "Cd"}, "10": {"label": "*3", "atom_type": "Cd"}, "14": {"label": "*2", "atom_type": "H0"}}

>  <type>  (11) 
unop_7

>  <geom_source>  (11) 
Heuristics

$$$$

     RDKit          3D

 18 16  0  0  0  0  0  0  0  0999 V2000
    2.0788   -1.9367    0.7790 C   0  0  0  0  0  0  0  0  0  0  0  0
    0.9439   -1.6129    0.5747 C   0  0  0  0  0  0  0  0  0  0  0  0
   -0.4381   -1.2020    0.3489 C   0  0  0  0  0  3  0  0  0  0  0  0
   -0.9476   -0.2256    1.4108 C   0  0  0  0  0  0  0  0  0  0  0  0
    3.0863   -2.2242    0.9603 H   0  0  0  0  0  0  0  0  0  0  0  0
   -1.0704   -2.0932    0.3280 H   0  0  0  0  0  0  0  0  0  0  0  0
   -1.9811    0.0533    1.2026 H   0  0  0  0  0  0  0  0  0  0  0  0
   -0.9048   -0.6763    2.4025 H   0  0  0  0  0  0  0  0  0  0  0  0
   -0.3417    0.6805    1.4250 H   0  0  0  0  0  0  0  0  0  0  0  0
   -0.4381    1.0906   -2.2347 C   0  0  0  0  0  0  0  0  0  0  0  0
   -0.4381    1.0906   -0.9109 C   0  0  0  0  0  0  0  0  0  0  0  0
   -0.4381    2.3127   -0.0504 C   0  0  0  0  0  0  0  0  0  0  0  0
   -0.4381    0.1678   -2.8012 H   0  0  0  0  0  0  0  0  0  0  0  0
   -0.4381    2.0162   -2.8007 H   0  0  0  0  0  0  0  0  0  0  0  0
   -0.4381   -0.0526   -0.2827 H   0  0  0  0  0  0  0  0  0  0  0  0
   -1.3159    2.3299    0.6008 H   0  0  0  0  0  0  0  0  0  0  0  0
   -0.4381    3.2232   -0.6510 H   0  0  0  0  0  0  0  0  0  0  0  0
    0.4396    2.3299    0.6008 H   0  0  0  0  0  0  0  0  0  0  0  0
  1  2  3  0
  1  5  1  0
  2  3  1  0
  3  4  1  0
  3  6  1  0
  4  7  1  0
  4  8  1  0
  4  9  1  0
 10 11  2  3
 10 13  1  0
 10 14  1  0
 11 12  1  0
 11 15  1  0
 12 16  1  0
 12 17  1  0
 12 18  1  0
M  RAD  1   3   2
M  END
>  <reaction>  (12) 
rxn_1614

>  <mol_properties>  (12) 
{"1": {"label": "*0", "atom_type": "Ct"}, "2": {"label": "*1", "atom_type": "Cs"}, "9": {"label": "*4", "atom_type": "Cd"}, "10": {"label": "*3", "atom_type": "Cd"}, "14": {"label": "*2", "atom_type": "H0"}}

>  <type>  (12) 
unop_8

>  <geom_source>  (12) 
Heuristics

$$$$

     RDKit          3D

 18 16  0  0  0  0  0  0  0  0999 V2000
   -1.1773   -2.5471   -0.6883 C   0  0  0  0  0  0  0  0  0  0  0  0
   -0.6259   -1.7210   -0.0189 C   0  0  0  0  0  0  0  0  0  0  0  0
    0.0651   -0.7336    0.8042 C   0  0  0  0  0  3  0  0  0  0  0  0
    1.2984   -1.3053    1.5060 C   0  0  0  0  0  0  0  0  0  0  0  0
   -1.6668   -3.2805   -1.2826 H   0  0  0  0  0  0  0  0  0  0  0  0
   -0.6364   -0.3408    1.5445 H   0  0  0  0  0  0  0  0  0  0  0  0
    1.7816   -0.5348    2.1079 H   0  0  0  0  0  0  0  0  0  0  0  0
    1.0220   -2.1319    2.1607 H   0  0  0  0  0  0  0  0  0  0  0  0
    2.0195   -1.6774    0.7781 H   0  0  0  0  0  0  0  0  0  0  0  0
    0.0651    1.5589   -1.7794 C   0  0  0  0  0  0  0  0  0  0  0  0
    0.0651    1.5589   -0.4557 C   0  0  0  0  0  0  0  0  0  0  0  0
    0.0651    2.7811    0.4049 C   0  0  0  0  0  0  0  0  0  0  0  0
    0.0651    0.6362   -2.3459 H   0  0  0  0  0  0  0  0  0  0  0  0
    0.0651    2.4845   -2.3454 H   0  0  0  0  0  0  0  0  0  0  0  0
    0.0651    0.4157    0.1726 H   0  0  0  0  0  0  0  0  0  0  0  0
   -0.8126    2.7982    1.0561 H   0  0  0  0  0  0  0  0  0  0  0  0
    0.0651    3.6915   -0.1957 H   0  0  0  0  0  0  0  0  0  0  0  0
    0.9428    2.7982    1.0561 H   0  0  0  0  0  0  0  0  0  0  0  0
  1  2  3  0
  1  5  1  0
  2  3  1  0
  3  4  1  0
  3  6  1  0
  4  7  1  0
  4  8  1  0
  4  9  1  0
 10 11  2  3
 10 13  1  0
 10 14  1  0
 11 12  1  0
 11 15  1  0
 12 16  1  0
 12 17  1  0
 12 18  1  0
M  RAD  1   3   2
M  END
>  <reaction>  (13) 
rxn_1614

>  <mol_properties>  (13) 
{"1": {"label": "*0", "atom_type": "Ct"}, "2": {"label": "*1", "atom_type": "Cs"}, "9": {"label": "*4", "atom_type": "Cd"}, "10": {"label": "*3", "atom_type": "Cd"}, "14": {"label": "*2", "atom_type": "H0"}}

>  <type>  (13) 
unop_9

>  <geom_source>  (13) 
Heuristics

$$$$

     RDKit          3D

 18 16  0  0  0  0  0  0  0  0999 V2000
    1.7034   -2.4044   -0.1232 C   0  0  0  0  0  0  0  0  0  0  0  0
    0.7098   -1.8037    0.1707 C   0  0  0  0  0  0  0  0  0  0  0  0
   -0.4871   -1.0600    0.5505 C   0  0  0  0  0  3  0  0  0  0  0  0
   -0.2721   -0.1796    1.7830 C   0  0  0  0  0  0  0  0  0  0  0  0
    2.5855   -2.9377   -0.3841 H   0  0  0  0  0  0  0  0  0  0  0  0
   -1.2973   -1.7696    0.7362 H   0  0  0  0  0  0  0  0  0  0  0  0
   -1.1897    0.3558    2.0295 H   0  0  0  0  0  0  0  0  0  0  0  0
    0.0171   -0.7832    2.6434 H   0  0  0  0  0  0  0  0  0  0  0  0
    0.5162    0.5515    1.6029 H   0  0  0  0  0  0  0  0  0  0  0  0
   -0.4871    1.2326   -2.0331 C   0  0  0  0  0  0  0  0  0  0  0  0
   -0.4871    1.2326   -0.7093 C   0  0  0  0  0  0  0  0  0  0  0  0
   -0.4871    2.4547    0.1512 C   0  0  0  0  0  0  0  0  0  0  0  0
   -0.4871    0.3098   -2.5996 H   0  0  0  0  0  0  0  0  0  0  0  0
   -0.4871    2.1582   -2.5991 H   0  0  0  0  0  0  0  0  0  0  0  0
   -0.4871    0.0894   -0.0811 H   0  0  0  0  0  0  0  0  0  0  0  0
   -1.3649    2.4719    0.8024 H   0  0  0  0  0  0  0  0  0  0  0  0
   -0.4871    3.3652   -0.4494 H   0  0  0  0  0  0  0  0  0  0  0  0
    0.3906    2.4719    0.8024 H   0  0  0  0  0  0  0  0  0  0  0  0
  1  2  3  0
  1  5  1  0
  2  3  1  0
  3  4  1  0
  3  6  1  0
  4  7  1  0
  4  8  1  0
  4  9  1  0
 10 11  2  3
 10 13  1  0
 10 14  1  0
 11 12  1  0
 11 15  1  0
 12 16  1  0
 12 17  1  0
 12 18  1  0
M  RAD  1   3   2
M  END
>  <reaction>  (14) 
rxn_1614

>  <mol_properties>  (14) 
{"1": {"label": "*0", "atom_type": "Ct"}, "2": {"label": "*1", "atom_type": "Cs"}, "9": {"label": "*4", "atom_type": "Cd"}, "10": {"label": "*3", "atom_type": "Cd"}, "14": {"label": "*2", "atom_type": "H0"}}

>  <type>  (14) 
unop_10

>  <geom_source>  (14) 
Heuristics

$$$$

     RDKit          3D

 18 16  0  0  0  0  0  0  0  0999 V2000
   -0.9871   -0.7539    2.5394 C   0  0  0  0  0  0  0  0  0  0  0  0
   -0.4132   -0.8676    1.4943 C   0  0  0  0  0  0  0  0  0  0  0  0
    0.2778   -1.0332    0.2196 C   0  0  0  0  0  3  0  0  0  0  0  0
    0.1370   -2.4451   -0.3523 C   0  0  0  0  0  0  0  0  0  0  0  0
   -1.4967   -0.6529    3.4672 H   0  0  0  0  0  0  0  0  0  0  0  0
    1.3344   -0.7912    0.3590 H   0  0  0  0  0  0  0  0  0  0  0  0
    0.6674   -2.5225   -1.3021 H   0  0  0  0  0  0  0  0  0  0  0  0
    0.5504   -3.1834    0.3350 H   0  0  0  0  0  0  0  0  0  0  0  0
   -0.9115   -2.6907   -0.5215 H   0  0  0  0  0  0  0  0  0  0  0  0
    0.2778    1.2593   -2.3640 C   0  0  0  0  0  0  0  0  0  0  0  0
    0.2778    1.2593   -1.0403 C   0  0  0  0  0  0  0  0  0  0  0  0
    0.2778    2.4815   -0.1798 C   0  0  0  0  0  0  0  0  0  0  0  0
    0.2778    0.3366   -2.9305 H   0  0  0  0  0  0  0  0  0  0  0  0
    0.2778    2.1849   -2.9301 H   0  0  0  0  0  0  0  0  0  0  0  0
    0.2778    0.1162   -0.4121 H   0  0  0  0  0  0  0  0  0  0  0  0
   -0.5999    2.4986    0.4714 H   0  0  0  0  0  0  0  0  0  0  0  0
    0.2778    3.3920   -0.7804 H   0  0  0  0  0  0  0  0  0  0  0  0
    1.1555    2.4986    0.4714 H   0  0  0  0  0  0  0  0  0  0  0  0
  1  2  3  0
  1  5  1  0
  2  3  1  0
  3  4  1  0
  3  6  1  0
  4  7  1  0
  4  8  1  0
  4  9  1  0
 10 11  2  3
 10 13  1  0
 10 14  1  0
 11 12  1  0
 11 15  1  0
 12 16  1  0
 12 17  1  0
 12 18  1  0
M  RAD  1   3   2
M  END
>  <reaction>  (15) 
rxn_1614

>  <mol_properties>  (15) 
{"1": {"label": "*0", "atom_type": "Ct"}, "2": {"label": "*1", "atom_type": "Cs"}, "9": {"label": "*4", "atom_type": "Cd"}, "10": {"label": "*3", "atom_type": "Cd"}, "14": {"label": "*2", "atom_type": "H0"}}

>  <type>  (15) 
unop_11

>  <geom_source>  (15) 
Heuristics

$$$$

     RDKit          3D

 18 16  0  0  0  0  0  0  0  0999 V2000
   -0.1713   -2.7473   -0.9592 C   0  0  0  0  0  0  0  0  0  0  0  0
   -0.1909   -1.8557   -0.1597 C   0  0  0  0  0  0  0  0  0  0  0  0
   -0.1909   -0.7792    0.8257 C   0  0  0  0  0  3  0  0  0  0  0  0
    1.0019   -0.8496    1.7808 C   0  0  0  0  0  0  0  0  0  0  0  0
   -0.1540   -3.5389   -1.6689 H   0  0  0  0  0  0  0  0  0  0  0  0
   -1.1248   -0.8215    1.3919 H   0  0  0  0  0  0  0  0  0  0  0  0
    0.9610   -0.0285    2.4975 H   0  0  0  0  0  0  0  0  0  0  0  0
    1.0002   -1.7897    2.3327 H   0  0  0  0  0  0  0  0  0  0  0  0
    1.9412   -0.7819    1.2317 H   0  0  0  0  0  0  0  0  0  0  0  0
   -0.1909    1.5134   -1.7579 C   0  0  0  0  0  0  0  0  0  0  0  0
   -0.1909    1.5134   -0.4342 C   0  0  0  0  0  0  0  0  0  0  0  0
   -0.1909    2.7355    0.4263 C   0  0  0  0  0  0  0  0  0  0  0  0
   -0.1909    0.5906   -2.3244 H   0  0  0  0  0  0  0  0  0  0  0  0
   -0.1909    2.4389   -2.3239 H   0  0  0  0  0  0  0  0  0  0  0  0
   -0.1909    0.3702    0.1941 H   0  0  0  0  0  0  0  0  0  0  0  0
   -1.0687    2.7526    1.0776 H   0  0  0  0  0  0  0  0  0  0  0  0
   -0.1909    3.6460   -0.1743 H   0  0  0  0  0  0  0  0  0  0  0  0
    0.6868    2.7526    1.0776 H   0  0  0  0  0  0  0  0  0  0  0  0
  1  2  3  0
  1  5  1  0
  2  3  1  0
  3  4  1  0
  3  6  1  0
  4  7  1  0
  4  8  1  0
  4  9  1  0
 10 11  2  3
 10 13  1  0
 10 14  1  0
 11 12  1  0
 11 15  1  0
 12 16  1  0
 12 17  1  0
 12 18  1  0
M  RAD  1   3   2
M  END
>  <reaction>  (16) 
rxn_1614

>  <mol_properties>  (16) 
{"1": {"label": "*0", "atom_type": "Ct"}, "2": {"label": "*1", "atom_type": "Cs"}, "9": {"label": "*4", "atom_type": "Cd"}, "10": {"label": "*3", "atom_type": "Cd"}, "14": {"label": "*2", "atom_type": "H0"}}

>  <type>  (16) 
unop_12

>  <geom_source>  (16) 
Heuristics

$$$$

     RDKit          3D

 18 16  0  0  0  0  0  0  0  0999 V2000
    1.0108   -0.2770   -0.4729 C   0  0  0  0  0  3  0  0  0  0  0  0
    1.6479    0.7538   -1.3943 C   0  0  0  0  0  0  0  0  0  0  0  0
   -1.7692   -1.0841    0.5051 C   0  0  0  0  0  0  0  0  0  0  0  0
   -2.2903    1.3028    0.1333 C   0  0  0  0  0  0  0  0  0  0  0  0
   -1.5217    0.2459   -0.1317 C   0  0  0  0  0  0  0  0  0  0  0  0
    1.8682   -0.5296    0.6902 C   0  0  0  0  0  0  0  0  0  0  0  0
    2.5720   -0.7377    1.6467 C   0  0  0  0  0  0  0  0  0  0  0  0
    0.8568   -1.2279   -1.0254 H   0  0  0  0  0  0  0  0  0  0  0  0
   -0.2788    0.2184   -0.0159 H   0  0  0  0  0  0  0  0  0  0  0  0
    1.7903    1.7147   -0.8552 H   0  0  0  0  0  0  0  0  0  0  0  0
    0.9811    0.9312   -2.2637 H   0  0  0  0  0  0  0  0  0  0  0  0
    2.6297    0.3887   -1.7655 H   0  0  0  0  0  0  0  0  0  0  0  0
   -1.6857   -0.9986    1.6091 H   0  0  0  0  0  0  0  0  0  0  0  0
   -2.7821   -1.4518    0.2362 H   0  0  0  0  0  0  0  0  0  0  0  0
   -1.0129   -1.8091    0.1404 H   0  0  0  0  0  0  0  0  0  0  0  0
   -3.1248    1.2283    0.8243 H   0  0  0  0  0  0  0  0  0  0  0  0
   -2.0812    2.2521   -0.3471 H   0  0  0  0  0  0  0  0  0  0  0  0
    3.1899   -0.9201    2.4863 H   0  0  0  0  0  0  0  0  0  0  0  0
  1  2  1  0
  1  6  1  0
  1  8  1  0
  2 10  1  0
  2 11  1  0
  2 12  1  0
  3  5  1  0
  3 13  1  0
  3 14  1  0
  3 15  1  0
  4  5  2  3
  4 16  1  0
  4 17  1  0
  5  9  1  0
  6  7  3  0
  7 18  1  0
M  RAD  1   1   2
M  END
>  <reaction>  (17) 
rxn_1614

>  <mol_properties>  (17) 
{"1": {"label": "*0", "atom_type": "Ct"}, "2": {"label": "*1", "atom_type": "Cs"}, "9": {"label": "*4", "atom_type": "Cd"}, "10": {"label": "*3", "atom_type": "Cd"}, "14": {"label": "*2", "atom_type": "H0"}}

>  <type>  (17) 
unop_13

>  <geom_source>  (17) 
AutoTST

$$$$
