
     RDKit          3D

  7  6  0  0  0  0  0  0  0  0999 V2000
    1.2985   -0.0065   -0.2721 C   0  0  0  0  0  0  0  0  0  0  0  0
    0.0000    0.0000   -0.2926 C   0  0  0  0  0  0  0  0  0  0  0  0
   -1.2985    0.0065   -0.3130 C   0  0  0  0  0  0  0  0  0  0  0  0
    1.8444   -0.7551    0.2895 H   0  0  0  0  0  0  0  0  0  0  0  0
    1.8693    0.7364   -0.8162 H   0  0  0  0  0  0  0  0  0  0  0  0
   -1.8658    0.5623    0.4239 H   0  0  0  0  0  0  0  0  0  0  0  0
   -1.8479   -0.5437   -1.0675 H   0  0  0  0  0  0  0  0  0  0  0  0
  1  2  2  0
  1  4  1  0
  1  5  1  0
  2  3  2  0
  3  6  1  0
  3  7  1  0
M  END
>  <reaction>  (1) 
rxn_1822

>  <mol_properties>  (1) 
{"0": {"label": "donator", "atom_type": "Cd"}, "3": {"label": "d_hydrogen", "atom_type": "H0"}}

>  <type>  (1) 
r1h

$$$$

     RDKit          3D

 10  9  0  0  0  0  0  0  0  0999 V2000
   -1.3354   -0.2069    0.0525 C   0  0  0  0  0  0  0  0  0  0  0  0
    0.0851    0.2624    0.0266 C   0  0  0  0  0  0  0  0  0  0  0  0
    0.4841    1.3876    0.7359 C   0  0  0  0  0  0  0  0  0  0  0  0
    2.0191    2.0303    0.8057 S   0  0  0  0  0  1  0  0  0  0  0  0
    1.1566   -0.6823   -0.9297 S   0  0  0  0  0  0  0  0  0  0  0  0
   -1.7589   -0.2174   -0.9545 H   0  0  0  0  0  0  0  0  0  0  0  0
   -1.4004   -1.2253    0.4427 H   0  0  0  0  0  0  0  0  0  0  0  0
   -1.9442    0.4442    0.6783 H   0  0  0  0  0  0  0  0  0  0  0  0
   -0.3073    1.8814    1.2951 H   0  0  0  0  0  0  0  0  0  0  0  0
    2.2383    0.0827   -0.6554 H   0  0  0  0  0  0  0  0  0  0  0  0
  1  2  1  0
  1  6  1  0
  1  7  1  0
  1  8  1  0
  2  3  2  3
  2  5  1  0
  3  4  1  0
  3  9  1  0
  5 10  1  0
M  RAD  1   4   2
M  END
>  <reaction>  (2) 
rxn_1822

>  <mol_properties>  (2) 
{"1": {"label": "acceptor", "atom_type": "Cs"}}

>  <type>  (2) 
r2

$$$$

     RDKit          3D

 11 10  0  0  0  0  0  0  0  0999 V2000
   -1.0997   -0.5860   -0.1182 C   0  0  0  0  0  0  0  0  0  0  0  0
    0.0827    0.2961    0.2270 C   0  0  0  0  0  0  0  0  0  0  0  0
    0.1622    1.6171   -0.4774 C   0  0  0  0  0  0  0  0  0  0  0  0
   -0.9879    2.3087   -1.3633 S   0  0  0  0  0  0  0  0  0  0  0  0
    0.2176    0.6619    2.0187 S   0  0  0  0  0  0  0  0  0  0  0  0
   -1.1052   -0.8107   -1.1861 H   0  0  0  0  0  0  0  0  0  0  0  0
   -2.0402   -0.0893    0.1198 H   0  0  0  0  0  0  0  0  0  0  0  0
   -1.0438   -1.5182    0.4423 H   0  0  0  0  0  0  0  0  0  0  0  0
    1.0207   -0.2324    0.0280 H   0  0  0  0  0  0  0  0  0  0  0  0
    1.1091    2.1333   -0.3182 H   0  0  0  0  0  0  0  0  0  0  0  0
   -0.9205    1.3661    2.0994 H   0  0  0  0  0  0  0  0  0  0  0  0
  1  2  1  0
  1  6  1  0
  1  7  1  0
  1  8  1  0
  2  3  1  0
  2  5  1  0
  2  9  1  0
  3  4  2  0
  3 10  1  0
  5 11  1  0
M  END
>  <reaction>  (3) 
rxn_1822

>  <mol_properties>  (3) 
{"1": {"label": "acceptor", "atom_type": "Cs"}, "10": {"label": "a_hydrogen", "atom_type": "H0"}}

>  <type>  (3) 
r2h

$$$$

     RDKit          3D

 17 15  0  0  0  0  0  0  0  0999 V2000
   -1.5057    0.4684    1.1001 C   0  0  0  0  0  0  0  0  0  0  0  0
   -0.2717   -0.1780    0.5172 C   0  0  0  0  0  0  0  0  0  0  0  0
    0.8598   -0.4594    1.4034 C   0  0  0  0  0  0  0  0  0  0  0  0
    1.0959    0.1543    2.8822 S   0  0  0  0  0  0  0  0  0  0  0  0
   -0.5626   -1.5537   -0.6019 S   0  0  0  0  0  0  0  0  0  0  0  0
   -2.0203   -0.2238    1.7684 H   0  0  0  0  0  0  0  0  0  0  0  0
   -1.2327    1.3542    1.6736 H   0  0  0  0  0  0  0  0  0  0  0  0
   -2.1904    0.7600    0.3034 H   0  0  0  0  0  0  0  0  0  0  0  0
    1.6217   -1.1053    0.9649 H   0  0  0  0  0  0  0  0  0  0  0  0
   -1.3326   -0.8731   -1.4625 H   0  0  0  0  0  0  0  0  0  0  0  0
    0.5694    1.7891   -1.1346 C   0  0  0  0  0  0  0  0  0  0  0  0
    0.4138    1.4765   -2.3429 C   0  0  0  0  0  0  0  0  0  0  0  0
    0.2136    1.0358   -3.5785 C   0  0  0  0  0  3  0  0  0  0  0  0
    0.2129    0.6978   -0.2399 H   0  0  0  0  0  0  0  0  0  0  0  0
    0.9098    2.6102   -0.5298 H   0  0  0  0  0  0  0  0  0  0  0  0
   -0.7265    1.2112   -4.0858 H   0  0  0  0  0  0  0  0  0  0  0  0
    0.9972    0.5153   -4.1137 H   0  0  0  0  0  0  0  0  0  0  0  0
  1  2  1  0
  1  6  1  0
  1  7  1  0
  1  8  1  0
  2  3  1  0
  2  5  1  0
  2 14  1  0
  3  4  2  0
  3  9  1  0
  5 10  1  0
 11 12  3  0
 11 15  1  0
 12 13  1  0
 13 16  1  0
 13 17  1  0
M  RAD  1  13   2
M  END
>  <reaction>  (4) 
rxn_1822

>  <mol_properties>  (4) 
{"1": {"label": "*1", "atom_type": "Cs"}, "2": {"label": "*0", "atom_type": "CS"}, "10": {"label": "*3", "atom_type": "Ct"}, "11": {"label": "*4", "atom_type": "Ct"}, "13": {"label": "*2", "atom_type": "H0"}}

>  <type>  (4) 
ts

$$$$

     RDKit          3D

 17 15  0  0  0  0  0  0  0  0999 V2000
    1.1107   -1.1232    1.2919 C   0  0  0  0  0  0  0  0  0  0  0  0
    0.1714   -0.3232    0.4125 C   0  0  0  0  0  0  0  0  0  0  0  0
   -1.1705   -0.9320    0.1365 C   0  0  0  0  0  0  0  0  0  0  0  0
   -1.8182   -2.2104    0.8657 S   0  0  0  0  0  1  0  0  0  0  0  0
   -0.1530    1.3669    1.0451 S   0  0  0  0  0  0  0  0  0  0  0  0
    0.6758   -1.2907    2.2770 H   0  0  0  0  0  0  0  0  0  0  0  0
    1.3064   -2.0999    0.8461 H   0  0  0  0  0  0  0  0  0  0  0  0
    2.0529   -0.5899    1.4105 H   0  0  0  0  0  0  0  0  0  0  0  0
   -1.7360   -0.3985   -0.6277 H   0  0  0  0  0  0  0  0  0  0  0  0
   -0.7879    0.9752    2.1592 H   0  0  0  0  0  0  0  0  0  0  0  0
    1.5057    1.4761   -0.9348 C   0  0  0  0  0  0  0  0  0  0  0  0
    1.5057    1.4761   -2.2335 C   0  0  0  0  0  0  0  0  0  0  0  0
    1.5057    1.4761   -3.5321 C   0  0  0  0  0  0  0  0  0  0  0  0
    0.8421    0.5812   -0.2647 H   0  0  0  0  0  0  0  0  0  0  0  0
    2.0587    2.2219   -0.3764 H   0  0  0  0  0  0  0  0  0  0  0  0
    0.7599    2.0291   -4.0906 H   0  0  0  0  0  0  0  0  0  0  0  0
    2.2514    0.9231   -4.0906 H   0  0  0  0  0  0  0  0  0  0  0  0
  1  2  1  0
  1  6  1  0
  1  7  1  0
  1  8  1  0
  2  3  2  3
  2  5  1  0
  3  4  1  0
  3  9  1  0
  5 10  1  0
 11 12  2  0
 11 14  1  0
 11 15  1  0
 12 13  2  0
 13 16  1  0
 13 17  1  0
M  RAD  1   4   2
M  END
>  <reaction>  (5) 
rxn_1822

>  <mol_properties>  (5) 
{"1": {"label": "*1", "atom_type": "Cs"}, "2": {"label": "*0", "atom_type": "CS"}, "10": {"label": "*3", "atom_type": "Ct"}, "11": {"label": "*4", "atom_type": "Ct"}, "13": {"label": "*2", "atom_type": "H0"}}

>  <type>  (5) 
unop_1

>  <geom_source>  (5) 
Heuristics

$$$$

     RDKit          3D

 17 15  0  0  0  0  0  0  0  0999 V2000
   -0.0718   -1.5827   -0.5455 C   0  0  0  0  0  0  0  0  0  0  0  0
    0.0029   -0.2887    0.2390 C   0  0  0  0  0  0  0  0  0  0  0  0
   -1.2326    0.1150    0.9861 C   0  0  0  0  0  0  0  0  0  0  0  0
   -2.5365   -0.7873    1.2531 S   0  0  0  0  0  1  0  0  0  0  0  0
    1.3723   -0.2563    1.4580 S   0  0  0  0  0  0  0  0  0  0  0  0
   -0.2851   -2.4259    0.1112 H   0  0  0  0  0  0  0  0  0  0  0  0
   -0.8711   -1.5301   -1.2867 H   0  0  0  0  0  0  0  0  0  0  0  0
    0.8744   -1.7642   -1.0534 H   0  0  0  0  0  0  0  0  0  0  0  0
   -1.1789    1.1251    1.3926 H   0  0  0  0  0  0  0  0  0  0  0  0
    0.8870   -1.2368    2.2332 H   0  0  0  0  0  0  0  0  0  0  0  0
    1.3372    1.5106   -1.1083 C   0  0  0  0  0  0  0  0  0  0  0  0
    1.3372    1.5106   -2.4069 C   0  0  0  0  0  0  0  0  0  0  0  0
    1.3372    1.5106   -3.7056 C   0  0  0  0  0  0  0  0  0  0  0  0
    0.6736    0.6157   -0.4382 H   0  0  0  0  0  0  0  0  0  0  0  0
    1.8902    2.2564   -0.5499 H   0  0  0  0  0  0  0  0  0  0  0  0
    0.5914    2.0636   -4.2640 H   0  0  0  0  0  0  0  0  0  0  0  0
    2.0829    0.9576   -4.2640 H   0  0  0  0  0  0  0  0  0  0  0  0
  1  2  1  0
  1  6  1  0
  1  7  1  0
  1  8  1  0
  2  3  2  3
  2  5  1  0
  3  4  1  0
  3  9  1  0
  5 10  1  0
 11 12  2  0
 11 14  1  0
 11 15  1  0
 12 13  2  0
 13 16  1  0
 13 17  1  0
M  RAD  1   4   2
M  END
>  <reaction>  (6) 
rxn_1822

>  <mol_properties>  (6) 
{"1": {"label": "*1", "atom_type": "Cs"}, "2": {"label": "*0", "atom_type": "CS"}, "10": {"label": "*3", "atom_type": "Ct"}, "11": {"label": "*4", "atom_type": "Ct"}, "13": {"label": "*2", "atom_type": "H0"}}

>  <type>  (6) 
unop_2

>  <geom_source>  (6) 
Heuristics

$$$$

     RDKit          3D

 17 15  0  0  0  0  0  0  0  0999 V2000
    0.8355   -0.4062    1.9295 C   0  0  0  0  0  0  0  0  0  0  0  0
    0.1544   -0.1315    0.6043 C   0  0  0  0  0  0  0  0  0  0  0  0
   -0.6190   -1.2648    0.0002 C   0  0  0  0  0  0  0  0  0  0  0  0
   -1.0152   -2.6506    0.7131 S   0  0  0  0  0  1  0  0  0  0  0  0
   -0.9913    1.2990    0.6592 S   0  0  0  0  0  0  0  0  0  0  0  0
    0.1081   -0.6818    2.6928 H   0  0  0  0  0  0  0  0  0  0  0  0
    1.5392   -1.2342    1.8288 H   0  0  0  0  0  0  0  0  0  0  0  0
    1.3734    0.4808    2.2615 H   0  0  0  0  0  0  0  0  0  0  0  0
   -0.9458   -1.0667   -1.0208 H   0  0  0  0  0  0  0  0  0  0  0  0
   -1.8601    0.7441    1.5165 H   0  0  0  0  0  0  0  0  0  0  0  0
    1.4887    1.6678   -0.7430 C   0  0  0  0  0  0  0  0  0  0  0  0
    1.4887    1.6678   -2.0417 C   0  0  0  0  0  0  0  0  0  0  0  0
    1.4887    1.6678   -3.3403 C   0  0  0  0  0  0  0  0  0  0  0  0
    0.8251    0.7729   -0.0729 H   0  0  0  0  0  0  0  0  0  0  0  0
    2.0417    2.4136   -0.1846 H   0  0  0  0  0  0  0  0  0  0  0  0
    0.7429    2.2208   -3.8988 H   0  0  0  0  0  0  0  0  0  0  0  0
    2.2345    1.1148   -3.8988 H   0  0  0  0  0  0  0  0  0  0  0  0
  1  2  1  0
  1  6  1  0
  1  7  1  0
  1  8  1  0
  2  3  2  3
  2  5  1  0
  3  4  1  0
  3  9  1  0
  5 10  1  0
 11 12  2  0
 11 14  1  0
 11 15  1  0
 12 13  2  0
 13 16  1  0
 13 17  1  0
M  RAD  1   4   2
M  END
>  <reaction>  (7) 
rxn_1822

>  <mol_properties>  (7) 
{"1": {"label": "*1", "atom_type": "Cs"}, "2": {"label": "*0", "atom_type": "CS"}, "10": {"label": "*3", "atom_type": "Ct"}, "11": {"label": "*4", "atom_type": "Ct"}, "13": {"label": "*2", "atom_type": "H0"}}

>  <type>  (7) 
unop_3

>  <geom_source>  (7) 
Heuristics

$$$$

     RDKit          3D

 17 15  0  0  0  0  0  0  0  0999 V2000
   -1.7580   -0.4640   -0.2506 C   0  0  0  0  0  0  0  0  0  0  0  0
   -0.2833   -0.5420    0.0881 C   0  0  0  0  0  0  0  0  0  0  0  0
    0.1843    0.2903    1.2441 C   0  0  0  0  0  0  0  0  0  0  0  0
   -0.7372    1.0568    2.3160 S   0  0  0  0  0  1  0  0  0  0  0  0
    0.2968   -2.2497    0.4185 S   0  0  0  0  0  0  0  0  0  0  0  0
   -2.3696   -0.7909    0.5901 H   0  0  0  0  0  0  0  0  0  0  0  0
   -2.0387    0.5644   -0.4839 H   0  0  0  0  0  0  0  0  0  0  0  0
   -1.9756   -1.0970   -1.1098 H   0  0  0  0  0  0  0  0  0  0  0  0
    1.2698    0.3249    1.3381 H   0  0  0  0  0  0  0  0  0  0  0  0
   -0.4392   -2.4314    1.5244 H   0  0  0  0  0  0  0  0  0  0  0  0
    1.0510    1.2573   -1.2592 C   0  0  0  0  0  0  0  0  0  0  0  0
    1.0510    1.2573   -2.5579 C   0  0  0  0  0  0  0  0  0  0  0  0
    1.0510    1.2573   -3.8565 C   0  0  0  0  0  0  0  0  0  0  0  0
    0.3874    0.3624   -0.5891 H   0  0  0  0  0  0  0  0  0  0  0  0
    1.6040    2.0031   -0.7008 H   0  0  0  0  0  0  0  0  0  0  0  0
    0.3052    1.8104   -4.4150 H   0  0  0  0  0  0  0  0  0  0  0  0
    1.7967    0.7043   -4.4150 H   0  0  0  0  0  0  0  0  0  0  0  0
  1  2  1  0
  1  6  1  0
  1  7  1  0
  1  8  1  0
  2  3  2  3
  2  5  1  0
  3  4  1  0
  3  9  1  0
  5 10  1  0
 11 12  2  0
 11 14  1  0
 11 15  1  0
 12 13  2  0
 13 16  1  0
 13 17  1  0
M  RAD  1   4   2
M  END
>  <reaction>  (8) 
rxn_1822

>  <mol_properties>  (8) 
{"1": {"label": "*1", "atom_type": "Cs"}, "2": {"label": "*0", "atom_type": "CS"}, "10": {"label": "*3", "atom_type": "Ct"}, "11": {"label": "*4", "atom_type": "Ct"}, "13": {"label": "*2", "atom_type": "H0"}}

>  <type>  (8) 
unop_4

>  <geom_source>  (8) 
Heuristics

$$$$

     RDKit          3D

 17 15  0  0  0  0  0  0  0  0999 V2000
   -0.0325    0.3565    2.1638 C   0  0  0  0  0  0  0  0  0  0  0  0
   -0.2012    0.1290    0.6754 C   0  0  0  0  0  0  0  0  0  0  0  0
    0.2134   -1.2128    0.1508 C   0  0  0  0  0  0  0  0  0  0  0  0
    0.5787   -2.5168    1.0179 S   0  0  0  0  0  1  0  0  0  0  0  0
   -1.9171    0.4005    0.0889 S   0  0  0  0  0  0  0  0  0  0  0  0
   -0.6221   -0.3584    2.7375 H   0  0  0  0  0  0  0  0  0  0  0  0
    1.0128    0.2285    2.4500 H   0  0  0  0  0  0  0  0  0  0  0  0
   -0.3529    1.3644    2.4241 H   0  0  0  0  0  0  0  0  0  0  0  0
    0.2269   -1.2636   -0.9381 H   0  0  0  0  0  0  0  0  0  0  0  0
   -2.4573   -0.6178    0.7739 H   0  0  0  0  0  0  0  0  0  0  0  0
    1.1330    1.9283   -0.6719 C   0  0  0  0  0  0  0  0  0  0  0  0
    1.1330    1.9283   -1.9706 C   0  0  0  0  0  0  0  0  0  0  0  0
    1.1330    1.9283   -3.2693 C   0  0  0  0  0  0  0  0  0  0  0  0
    0.4694    1.0334   -0.0018 H   0  0  0  0  0  0  0  0  0  0  0  0
    1.6861    2.6741   -0.1135 H   0  0  0  0  0  0  0  0  0  0  0  0
    0.3873    2.4813   -3.8277 H   0  0  0  0  0  0  0  0  0  0  0  0
    1.8788    1.3753   -3.8277 H   0  0  0  0  0  0  0  0  0  0  0  0
  1  2  1  0
  1  6  1  0
  1  7  1  0
  1  8  1  0
  2  3  2  3
  2  5  1  0
  3  4  1  0
  3  9  1  0
  5 10  1  0
 11 12  2  0
 11 14  1  0
 11 15  1  0
 12 13  2  0
 13 16  1  0
 13 17  1  0
M  RAD  1   4   2
M  END
>  <reaction>  (9) 
rxn_1822

>  <mol_properties>  (9) 
{"1": {"label": "*1", "atom_type": "Cs"}, "2": {"label": "*0", "atom_type": "CS"}, "10": {"label": "*3", "atom_type": "Ct"}, "11": {"label": "*4", "atom_type": "Ct"}, "13": {"label": "*2", "atom_type": "H0"}}

>  <type>  (9) 
unop_5

>  <geom_source>  (9) 
Heuristics

$$$$

     RDKit          3D

 17 15  0  0  0  0  0  0  0  0999 V2000
   -1.9414    0.0449    0.3749 C   0  0  0  0  0  0  0  0  0  0  0  0
   -0.5320   -0.4408    0.1045 C   0  0  0  0  0  0  0  0  0  0  0  0
    0.5321    0.0283    1.0508 C   0  0  0  0  0  0  0  0  0  0  0  0
    0.3110    0.7783    2.4559 S   0  0  0  0  0  1  0  0  0  0  0  0
   -0.3927   -2.2680    0.0419 S   0  0  0  0  0  0  0  0  0  0  0  0
   -2.2842   -0.2783    1.3576 H   0  0  0  0  0  0  0  0  0  0  0  0
   -1.9763    1.1354    0.3544 H   0  0  0  0  0  0  0  0  0  0  0  0
   -2.6208   -0.3481   -0.3803 H   0  0  0  0  0  0  0  0  0  0  0  0
    1.5415   -0.2127    0.7169 H   0  0  0  0  0  0  0  0  0  0  0  0
   -0.7108   -2.4724    1.3283 H   0  0  0  0  0  0  0  0  0  0  0  0
    0.8023    1.3585   -1.2428 C   0  0  0  0  0  0  0  0  0  0  0  0
    0.8023    1.3585   -2.5414 C   0  0  0  0  0  0  0  0  0  0  0  0
    0.8023    1.3585   -3.8401 C   0  0  0  0  0  0  0  0  0  0  0  0
    0.1387    0.4636   -0.5727 H   0  0  0  0  0  0  0  0  0  0  0  0
    1.3553    2.1043   -0.6844 H   0  0  0  0  0  0  0  0  0  0  0  0
    0.0565    1.9115   -4.3985 H   0  0  0  0  0  0  0  0  0  0  0  0
    1.5481    0.8055   -4.3985 H   0  0  0  0  0  0  0  0  0  0  0  0
  1  2  1  0
  1  6  1  0
  1  7  1  0
  1  8  1  0
  2  3  2  3
  2  5  1  0
  3  4  1  0
  3  9  1  0
  5 10  1  0
 11 12  2  0
 11 14  1  0
 11 15  1  0
 12 13  2  0
 13 16  1  0
 13 17  1  0
M  RAD  1   4   2
M  END
>  <reaction>  (10) 
rxn_1822

>  <mol_properties>  (10) 
{"1": {"label": "*1", "atom_type": "Cs"}, "2": {"label": "*0", "atom_type": "CS"}, "10": {"label": "*3", "atom_type": "Ct"}, "11": {"label": "*4", "atom_type": "Ct"}, "13": {"label": "*2", "atom_type": "H0"}}

>  <type>  (10) 
unop_6

>  <geom_source>  (10) 
Heuristics

$$$$

     RDKit          3D

 17 15  0  0  0  0  0  0  0  0999 V2000
   -1.7317    0.4438    1.1190 C   0  0  0  0  0  0  0  0  0  0  0  0
   -0.6934   -0.2227    0.2396 C   0  0  0  0  0  0  0  0  0  0  0  0
    0.7015   -0.2930    0.7845 C   0  0  0  0  0  0  0  0  0  0  0  0
    1.1668    0.0301    2.2894 S   0  0  0  0  0  1  0  0  0  0  0  0
   -1.1414   -1.9336   -0.2441 S   0  0  0  0  0  0  0  0  0  0  0  0
   -1.8327   -0.0798    2.0695 H   0  0  0  0  0  0  0  0  0  0  0  0
   -1.4389    1.4722    1.3372 H   0  0  0  0  0  0  0  0  0  0  0  0
   -2.6977    0.4469    0.6159 H   0  0  0  0  0  0  0  0  0  0  0  0
    1.4338   -0.6288    0.0501 H   0  0  0  0  0  0  0  0  0  0  0  0
   -1.0898   -2.4429    0.9951 H   0  0  0  0  0  0  0  0  0  0  0  0
    0.6408    1.5766   -1.1077 C   0  0  0  0  0  0  0  0  0  0  0  0
    0.6408    1.5766   -2.4063 C   0  0  0  0  0  0  0  0  0  0  0  0
    0.6408    1.5766   -3.7050 C   0  0  0  0  0  0  0  0  0  0  0  0
   -0.0228    0.6817   -0.4376 H   0  0  0  0  0  0  0  0  0  0  0  0
    1.1938    2.3224   -0.5492 H   0  0  0  0  0  0  0  0  0  0  0  0
   -0.1049    2.1296   -4.2634 H   0  0  0  0  0  0  0  0  0  0  0  0
    1.3866    1.0236   -4.2634 H   0  0  0  0  0  0  0  0  0  0  0  0
  1  2  1  0
  1  6  1  0
  1  7  1  0
  1  8  1  0
  2  3  2  3
  2  5  1  0
  3  4  1  0
  3  9  1  0
  5 10  1  0
 11 12  2  0
 11 14  1  0
 11 15  1  0
 12 13  2  0
 13 16  1  0
 13 17  1  0
M  RAD  1   4   2
M  END
>  <reaction>  (11) 
rxn_1822

>  <mol_properties>  (11) 
{"1": {"label": "*1", "atom_type": "Cs"}, "2": {"label": "*0", "atom_type": "CS"}, "10": {"label": "*3", "atom_type": "Ct"}, "11": {"label": "*4", "atom_type": "Ct"}, "13": {"label": "*2", "atom_type": "H0"}}

>  <type>  (11) 
unop_7

>  <geom_source>  (11) 
Heuristics

$$$$

     RDKit          3D

 17 15  0  0  0  0  0  0  0  0999 V2000
    0.9479   -1.5593    0.5469 C   0  0  0  0  0  0  0  0  0  0  0  0
    0.0738   -0.3516    0.2766 C   0  0  0  0  0  0  0  0  0  0  0  0
   -1.4062   -0.5525    0.4058 C   0  0  0  0  0  0  0  0  0  0  0  0
   -2.1551   -1.8270    1.0386 S   0  0  0  0  0  1  0  0  0  0  0  0
    0.4881    1.0942    1.3254 S   0  0  0  0  0  0  0  0  0  0  0  0
    0.8066   -1.9239    1.5642 H   0  0  0  0  0  0  0  0  0  0  0  0
    0.6914   -2.3722   -0.1345 H   0  0  0  0  0  0  0  0  0  0  0  0
    1.9962   -1.2970    0.4108 H   0  0  0  0  0  0  0  0  0  0  0  0
   -1.9887    0.2942    0.0422 H   0  0  0  0  0  0  0  0  0  0  0  0
    0.1379    0.5239    2.4872 H   0  0  0  0  0  0  0  0  0  0  0  0
    1.4081    1.4477   -1.0707 C   0  0  0  0  0  0  0  0  0  0  0  0
    1.4081    1.4477   -2.3694 C   0  0  0  0  0  0  0  0  0  0  0  0
    1.4081    1.4477   -3.6680 C   0  0  0  0  0  0  0  0  0  0  0  0
    0.7445    0.5528   -0.4006 H   0  0  0  0  0  0  0  0  0  0  0  0
    1.9611    2.1934   -0.5123 H   0  0  0  0  0  0  0  0  0  0  0  0
    0.6623    2.0007   -4.2265 H   0  0  0  0  0  0  0  0  0  0  0  0
    2.1539    0.8947   -4.2265 H   0  0  0  0  0  0  0  0  0  0  0  0
  1  2  1  0
  1  6  1  0
  1  7  1  0
  1  8  1  0
  2  3  2  3
  2  5  1  0
  3  4  1  0
  3  9  1  0
  5 10  1  0
 11 12  2  0
 11 14  1  0
 11 15  1  0
 12 13  2  0
 13 16  1  0
 13 17  1  0
M  RAD  1   4   2
M  END
>  <reaction>  (12) 
rxn_1822

>  <mol_properties>  (12) 
{"1": {"label": "*1", "atom_type": "Cs"}, "2": {"label": "*0", "atom_type": "CS"}, "10": {"label": "*3", "atom_type": "Ct"}, "11": {"label": "*4", "atom_type": "Ct"}, "13": {"label": "*2", "atom_type": "H0"}}

>  <type>  (12) 
unop_8

>  <geom_source>  (12) 
Heuristics

$$$$

     RDKit          3D

 17 15  0  0  0  0  0  0  0  0999 V2000
   -1.2845   -0.9485   -0.6302 C   0  0  0  0  0  0  0  0  0  0  0  0
   -0.0680   -0.5012    0.1543 C   0  0  0  0  0  0  0  0  0  0  0  0
   -0.3159    0.4289    1.3037 C   0  0  0  0  0  0  0  0  0  0  0  0
   -1.7392    0.8045    1.9509 S   0  0  0  0  0  1  0  0  0  0  0  0
    0.9160   -1.8950    0.8260 S   0  0  0  0  0  0  0  0  0  0  0  0
   -1.9875   -1.4817    0.0095 H   0  0  0  0  0  0  0  0  0  0  0  0
   -1.8053   -0.0843   -1.0460 H   0  0  0  0  0  0  0  0  0  0  0  0
   -0.9807   -1.6070   -1.4429 H   0  0  0  0  0  0  0  0  0  0  0  0
    0.5990    0.8460    1.7248 H   0  0  0  0  0  0  0  0  0  0  0  0
   -0.0327   -2.3399    1.6626 H   0  0  0  0  0  0  0  0  0  0  0  0
    1.2663    1.2981   -1.1930 C   0  0  0  0  0  0  0  0  0  0  0  0
    1.2663    1.2981   -2.4917 C   0  0  0  0  0  0  0  0  0  0  0  0
    1.2663    1.2981   -3.7903 C   0  0  0  0  0  0  0  0  0  0  0  0
    0.6027    0.4032   -0.5229 H   0  0  0  0  0  0  0  0  0  0  0  0
    1.8193    2.0439   -0.6346 H   0  0  0  0  0  0  0  0  0  0  0  0
    0.5205    1.8511   -4.3488 H   0  0  0  0  0  0  0  0  0  0  0  0
    2.0121    0.7451   -4.3488 H   0  0  0  0  0  0  0  0  0  0  0  0
  1  2  1  0
  1  6  1  0
  1  7  1  0
  1  8  1  0
  2  3  2  3
  2  5  1  0
  3  4  1  0
  3  9  1  0
  5 10  1  0
 11 12  2  0
 11 14  1  0
 11 15  1  0
 12 13  2  0
 13 16  1  0
 13 17  1  0
M  RAD  1   4   2
M  END
>  <reaction>  (13) 
rxn_1822

>  <mol_properties>  (13) 
{"1": {"label": "*1", "atom_type": "Cs"}, "2": {"label": "*0", "atom_type": "CS"}, "10": {"label": "*3", "atom_type": "Ct"}, "11": {"label": "*4", "atom_type": "Ct"}, "13": {"label": "*2", "atom_type": "H0"}}

>  <type>  (13) 
unop_9

>  <geom_source>  (13) 
Heuristics

$$$$

     RDKit          3D

 17 15  0  0  0  0  0  0  0  0999 V2000
    0.5043   -1.6933   -0.1073 C   0  0  0  0  0  0  0  0  0  0  0  0
    0.0014   -0.3049    0.2314 C   0  0  0  0  0  0  0  0  0  0  0  0
   -1.4167   -0.2027    0.7070 C   0  0  0  0  0  0  0  0  0  0  0  0
   -2.3801   -1.4165    1.1360 S   0  0  0  0  0  1  0  0  0  0  0  0
    1.0261    0.5526    1.4871 S   0  0  0  0  0  0  0  0  0  0  0  0
    0.4569   -2.3488    0.7621 H   0  0  0  0  0  0  0  0  0  0  0  0
   -0.1114   -2.1381   -0.8909 H   0  0  0  0  0  0  0  0  0  0  0  0
    1.5364   -1.6409   -0.4512 H   0  0  0  0  0  0  0  0  0  0  0  0
   -1.7742    0.8248    0.7764 H   0  0  0  0  0  0  0  0  0  0  0  0
    0.7491   -0.2940    2.4893 H   0  0  0  0  0  0  0  0  0  0  0  0
    1.3357    1.4944   -1.1159 C   0  0  0  0  0  0  0  0  0  0  0  0
    1.3357    1.4944   -2.4146 C   0  0  0  0  0  0  0  0  0  0  0  0
    1.3357    1.4944   -3.7133 C   0  0  0  0  0  0  0  0  0  0  0  0
    0.6721    0.5995   -0.4458 H   0  0  0  0  0  0  0  0  0  0  0  0
    1.8887    2.2402   -0.5575 H   0  0  0  0  0  0  0  0  0  0  0  0
    0.5899    2.0475   -4.2717 H   0  0  0  0  0  0  0  0  0  0  0  0
    2.0814    0.9414   -4.2717 H   0  0  0  0  0  0  0  0  0  0  0  0
  1  2  1  0
  1  6  1  0
  1  7  1  0
  1  8  1  0
  2  3  2  3
  2  5  1  0
  3  4  1  0
  3  9  1  0
  5 10  1  0
 11 12  2  0
 11 14  1  0
 11 15  1  0
 12 13  2  0
 13 16  1  0
 13 17  1  0
M  RAD  1   4   2
M  END
>  <reaction>  (14) 
rxn_1822

>  <mol_properties>  (14) 
{"1": {"label": "*1", "atom_type": "Cs"}, "2": {"label": "*0", "atom_type": "CS"}, "10": {"label": "*3", "atom_type": "Ct"}, "11": {"label": "*4", "atom_type": "Ct"}, "13": {"label": "*2", "atom_type": "H0"}}

>  <type>  (14) 
unop_10

>  <geom_source>  (14) 
Heuristics

$$$$

     RDKit          3D

 17 15  0  0  0  0  0  0  0  0999 V2000
   -1.0856    0.6147    1.8005 C   0  0  0  0  0  0  0  0  0  0  0  0
   -0.6249    0.0427    0.4753 C   0  0  0  0  0  0  0  0  0  0  0  0
    0.6722   -0.7090    0.4838 C   0  0  0  0  0  0  0  0  0  0  0  0
    1.4995   -1.1905    1.7758 S   0  0  0  0  0  1  0  0  0  0  0  0
   -1.8569   -1.0700   -0.3032 S   0  0  0  0  0  0  0  0  0  0  0  0
   -1.2290   -0.1748    2.5379 H   0  0  0  0  0  0  0  0  0  0  0  0
   -0.3377    1.3044    2.1954 H   0  0  0  0  0  0  0  0  0  0  0  0
   -2.0268    1.1465    1.6683 H   0  0  0  0  0  0  0  0  0  0  0  0
    1.0349   -0.9526   -0.5149 H   0  0  0  0  0  0  0  0  0  0  0  0
   -1.8067   -2.0142    0.6475 H   0  0  0  0  0  0  0  0  0  0  0  0
    0.7094    1.8420   -0.8720 C   0  0  0  0  0  0  0  0  0  0  0  0
    0.7094    1.8420   -2.1707 C   0  0  0  0  0  0  0  0  0  0  0  0
    0.7094    1.8420   -3.4694 C   0  0  0  0  0  0  0  0  0  0  0  0
    0.0457    0.9471   -0.2019 H   0  0  0  0  0  0  0  0  0  0  0  0
    1.2624    2.5878   -0.3136 H   0  0  0  0  0  0  0  0  0  0  0  0
   -0.0364    2.3951   -4.0278 H   0  0  0  0  0  0  0  0  0  0  0  0
    1.4551    1.2890   -4.0278 H   0  0  0  0  0  0  0  0  0  0  0  0
  1  2  1  0
  1  6  1  0
  1  7  1  0
  1  8  1  0
  2  3  2  3
  2  5  1  0
  3  4  1  0
  3  9  1  0
  5 10  1  0
 11 12  2  0
 11 14  1  0
 11 15  1  0
 12 13  2  0
 13 16  1  0
 13 17  1  0
M  RAD  1   4   2
M  END
>  <reaction>  (15) 
rxn_1822

>  <mol_properties>  (15) 
{"1": {"label": "*1", "atom_type": "Cs"}, "2": {"label": "*0", "atom_type": "CS"}, "10": {"label": "*3", "atom_type": "Ct"}, "11": {"label": "*4", "atom_type": "Ct"}, "13": {"label": "*2", "atom_type": "H0"}}

>  <type>  (15) 
unop_11

>  <geom_source>  (15) 
Heuristics

$$$$

     RDKit          3D

 17 15  0  0  0  0  0  0  0  0999 V2000
   -0.6838   -1.3225   -0.7234 C   0  0  0  0  0  0  0  0  0  0  0  0
    0.0203   -0.3730    0.2243 C   0  0  0  0  0  0  0  0  0  0  0  0
   -0.8452    0.3609    1.2041 C   0  0  0  0  0  0  0  0  0  0  0  0
   -2.3926    0.0706    1.5308 S   0  0  0  0  0  1  0  0  0  0  0  0
    1.3414   -1.1769    1.2094 S   0  0  0  0  0  0  0  0  0  0  0  0
   -1.2056   -2.1064   -0.1748 H   0  0  0  0  0  0  0  0  0  0  0  0
   -1.4250   -0.7844   -1.3168 H   0  0  0  0  0  0  0  0  0  0  0  0
    0.0409   -1.7851   -1.3920 H   0  0  0  0  0  0  0  0  0  0  0  0
   -0.3144    1.1457    1.7435 H   0  0  0  0  0  0  0  0  0  0  0  0
    0.5242   -1.9891    1.8951 H   0  0  0  0  0  0  0  0  0  0  0  0
    1.3545    1.4263   -1.1230 C   0  0  0  0  0  0  0  0  0  0  0  0
    1.3545    1.4263   -2.4217 C   0  0  0  0  0  0  0  0  0  0  0  0
    1.3545    1.4263   -3.7203 C   0  0  0  0  0  0  0  0  0  0  0  0
    0.6909    0.5314   -0.4529 H   0  0  0  0  0  0  0  0  0  0  0  0
    1.9075    2.1721   -0.5646 H   0  0  0  0  0  0  0  0  0  0  0  0
    0.6088    1.9793   -4.2788 H   0  0  0  0  0  0  0  0  0  0  0  0
    2.1003    0.8733   -4.2788 H   0  0  0  0  0  0  0  0  0  0  0  0
  1  2  1  0
  1  6  1  0
  1  7  1  0
  1  8  1  0
  2  3  2  3
  2  5  1  0
  3  4  1  0
  3  9  1  0
  5 10  1  0
 11 12  2  0
 11 14  1  0
 11 15  1  0
 12 13  2  0
 13 16  1  0
 13 17  1  0
M  RAD  1   4   2
M  END
>  <reaction>  (16) 
rxn_1822

>  <mol_properties>  (16) 
{"1": {"label": "*1", "atom_type": "Cs"}, "2": {"label": "*0", "atom_type": "CS"}, "10": {"label": "*3", "atom_type": "Ct"}, "11": {"label": "*4", "atom_type": "Ct"}, "13": {"label": "*2", "atom_type": "H0"}}

>  <type>  (16) 
unop_12

>  <geom_source>  (16) 
Heuristics

$$$$

     RDKit          3D

 17 15  0  0  0  0  0  0  0  0999 V2000
   -1.7769   -1.1830   -1.4115 S   0  0  0  0  0  0  0  0  0  0  0  0
   -2.8751    1.9545   -1.2473 S   0  0  0  0  0  1  0  0  0  0  0  0
   -1.1988    0.1954   -0.3616 C   0  0  0  0  0  0  0  0  0  0  0  0
   -1.7692    0.0723    1.0530 C   0  0  0  0  0  0  0  0  0  0  0  0
   -1.5233    1.5289   -0.9916 C   0  0  0  0  0  0  0  0  0  0  0  0
    3.6610   -0.1521    0.4140 C   0  0  0  0  0  0  0  0  0  0  0  0
    2.4512   -0.3836   -0.0094 C   0  0  0  0  0  0  0  0  0  0  0  0
    1.2413   -0.6152   -0.4328 C   0  0  0  0  0  0  0  0  0  0  0  0
    0.1864    0.0994   -0.2690 H   0  0  0  0  0  0  0  0  0  0  0  0
   -1.4160   -0.8713    1.5192 H   0  0  0  0  0  0  0  0  0  0  0  0
   -1.4202    0.9214    1.6783 H   0  0  0  0  0  0  0  0  0  0  0  0
   -2.8799    0.0664    1.0326 H   0  0  0  0  0  0  0  0  0  0  0  0
   -0.7065    2.1892   -1.2625 H   0  0  0  0  0  0  0  0  0  0  0  0
    4.1381    0.7939    0.1973 H   0  0  0  0  0  0  0  0  0  0  0  0
    4.1885   -0.9059    0.9824 H   0  0  0  0  0  0  0  0  0  0  0  0
   -1.0674   -2.1467   -0.6699 H   0  0  0  0  0  0  0  0  0  0  0  0
    0.7668   -1.5636   -0.2211 H   0  0  0  0  0  0  0  0  0  0  0  0
  1  3  1  0
  1 16  1  0
  2  5  1  0
  3  4  1  0
  3  5  2  3
  4 10  1  0
  4 11  1  0
  4 12  1  0
  5 13  1  0
  6  7  2  0
  6 14  1  0
  6 15  1  0
  7  8  2  0
  8  9  1  0
  8 17  1  0
M  RAD  1   2   2
M  END
>  <reaction>  (17) 
rxn_1822

>  <mol_properties>  (17) 
{"1": {"label": "*1", "atom_type": "Cs"}, "2": {"label": "*0", "atom_type": "CS"}, "10": {"label": "*3", "atom_type": "Ct"}, "11": {"label": "*4", "atom_type": "Ct"}, "13": {"label": "*2", "atom_type": "H0"}}

>  <type>  (17) 
unop_13

>  <geom_source>  (17) 
AutoTST

$$$$
