
     RDKit          3D

 11 10  0  0  0  0  0  0  0  0999 V2000
   -1.2710    0.1907   -0.2084 C   0  0  0  0  0  0  0  0  0  0  0  0
    0.0202   -0.6130   -0.2928 C   0  0  0  0  0  0  0  0  0  0  0  0
    0.1086   -1.6953    0.7756 C   0  0  0  0  0  0  0  0  0  0  0  0
   -1.3607    0.6851    0.7620 H   0  0  0  0  0  0  0  0  0  0  0  0
   -2.1429   -0.4567   -0.3299 H   0  0  0  0  0  0  0  0  0  0  0  0
   -1.3158    0.9602   -0.9809 H   0  0  0  0  0  0  0  0  0  0  0  0
    0.8757    0.0616   -0.1992 H   0  0  0  0  0  0  0  0  0  0  0  0
    0.0997   -1.0712   -1.2825 H   0  0  0  0  0  0  0  0  0  0  0  0
   -0.7198   -2.4022    0.6850 H   0  0  0  0  0  0  0  0  0  0  0  0
    1.0395   -2.2596    0.6989 H   0  0  0  0  0  0  0  0  0  0  0  0
    0.0624   -1.2603    1.7770 H   0  0  0  0  0  0  0  0  0  0  0  0
  1  2  1  0
  1  4  1  0
  1  5  1  0
  1  6  1  0
  2  3  1  0
  2  7  1  0
  2  8  1  0
  3  9  1  0
  3 10  1  0
  3 11  1  0
M  END
>  <reaction>  (1) 
rxn_931

>  <mol_properties>  (1) 
{"1": {"label": "donator", "atom_type": "Cs"}, "6": {"label": "d_hydrogen", "atom_type": "H0"}}

>  <type>  (1) 
r1h

$$$$

     RDKit          3D

  8  7  0  0  0  0  0  0  0  0999 V2000
   -1.0607    0.1793   -0.1423 C   0  0  0  0  0  0  0  0  0  0  0  0
    0.2796    0.0327    0.4820 C   0  0  0  0  0  3  0  0  0  0  0  0
    0.8817   -1.4663    1.0791 S   0  0  0  0  0  0  0  0  0  0  0  0
   -1.3043    1.2328   -0.2850 H   0  0  0  0  0  0  0  0  0  0  0  0
   -1.8444   -0.2641    0.4799 H   0  0  0  0  0  0  0  0  0  0  0  0
   -1.1164   -0.3100   -1.1237 H   0  0  0  0  0  0  0  0  0  0  0  0
    1.0449    0.7826    0.3391 H   0  0  0  0  0  0  0  0  0  0  0  0
   -0.2993   -2.0726    1.2718 H   0  0  0  0  0  0  0  0  0  0  0  0
  1  2  1  0
  1  4  1  0
  1  5  1  0
  1  6  1  0
  2  3  1  0
  2  7  1  0
  3  8  1  0
M  RAD  1   2   2
M  END
>  <reaction>  (2) 
rxn_931

>  <mol_properties>  (2) 
{"1": {"label": "acceptor", "atom_type": "Cs"}}

>  <type>  (2) 
r2

$$$$

     RDKit          3D

  9  8  0  0  0  0  0  0  0  0999 V2000
   -0.8818   -0.3578    0.1297 C   0  0  0  0  0  0  0  0  0  0  0  0
    0.6153   -0.3021   -0.1188 C   0  0  0  0  0  0  0  0  0  0  0  0
    1.5354   -1.7170    0.5545 S   0  0  0  0  0  0  0  0  0  0  0  0
   -1.1018   -0.3317    1.1984 H   0  0  0  0  0  0  0  0  0  0  0  0
   -1.3114   -1.2723   -0.2799 H   0  0  0  0  0  0  0  0  0  0  0  0
   -1.3767    0.4976   -0.3363 H   0  0  0  0  0  0  0  0  0  0  0  0
    1.0467    0.6194    0.2718 H   0  0  0  0  0  0  0  0  0  0  0  0
    0.8295   -0.3275   -1.1882 H   0  0  0  0  0  0  0  0  0  0  0  0
    1.2306   -1.5077    1.8423 H   0  0  0  0  0  0  0  0  0  0  0  0
  1  2  1  0
  1  4  1  0
  1  5  1  0
  1  6  1  0
  2  3  1  0
  2  7  1  0
  2  8  1  0
  3  9  1  0
M  END
>  <reaction>  (3) 
rxn_931

>  <mol_properties>  (3) 
{"1": {"label": "acceptor", "atom_type": "Cs"}, "8": {"label": "a_hydrogen", "atom_type": "H0"}}

>  <type>  (3) 
r2h

$$$$

     RDKit          3D

 19 17  0  0  0  0  0  0  0  0999 V2000
    1.8821   -0.1197   -0.4256 C   0  0  0  0  0  0  0  0  0  0  0  0
    0.6973   -0.5453    0.4038 C   0  0  0  0  0  0  0  0  0  0  0  0
    0.1282   -2.2223    0.2008 S   0  0  0  0  0  0  0  0  0  0  0  0
    2.1361    0.9215   -0.2156 H   0  0  0  0  0  0  0  0  0  0  0  0
    1.6590   -0.2014   -1.4922 H   0  0  0  0  0  0  0  0  0  0  0  0
    2.7616   -0.7358   -0.2216 H   0  0  0  0  0  0  0  0  0  0  0  0
    0.8254   -0.3750    1.4722 H   0  0  0  0  0  0  0  0  0  0  0  0
    0.0031   -2.1892   -1.1338 H   0  0  0  0  0  0  0  0  0  0  0  0
   -1.6930    0.5511   -1.6913 C   0  0  0  0  0  0  0  0  0  0  0  0
   -1.2600    1.1272   -0.3701 C   0  0  0  0  0  3  0  0  0  0  0  0
   -0.6182    2.4881   -0.4178 C   0  0  0  0  0  0  0  0  0  0  0  0
   -0.8570    0.5168   -2.3962 H   0  0  0  0  0  0  0  0  0  0  0  0
   -2.4794    1.1579   -2.1551 H   0  0  0  0  0  0  0  0  0  0  0  0
   -2.0826   -0.4616   -1.5749 H   0  0  0  0  0  0  0  0  0  0  0  0
   -0.3010    0.2731    0.0782 H   0  0  0  0  0  0  0  0  0  0  0  0
   -2.0163    1.0313    0.4095 H   0  0  0  0  0  0  0  0  0  0  0  0
   -1.3297    3.2540   -0.7476 H   0  0  0  0  0  0  0  0  0  0  0  0
   -0.2419    2.7903    0.5615 H   0  0  0  0  0  0  0  0  0  0  0  0
    0.2190    2.5020   -1.1209 H   0  0  0  0  0  0  0  0  0  0  0  0
  1  2  1  0
  1  4  1  0
  1  5  1  0
  1  6  1  0
  2  3  1  0
  2  7  1  0
  2 15  1  0
  3  8  1  0
  9 10  1  0
  9 12  1  0
  9 13  1  0
  9 14  1  0
 10 11  1  0
 10 16  1  0
 11 17  1  0
 11 18  1  0
 11 19  1  0
M  RAD  1  10   2
M  END
>  <reaction>  (4) 
rxn_931

>  <mol_properties>  (4) 
{"1": {"label": "*1", "atom_type": "Cs"}, "2": {"label": "*0", "atom_type": "S2s"}, "8": {"label": "*4", "atom_type": "Cs"}, "9": {"label": "*3", "atom_type": "Cs"}, "14": {"label": "*2", "atom_type": "H0"}}

>  <type>  (4) 
ts

$$$$

     RDKit          3D

 19 17  0  0  0  0  0  0  0  0999 V2000
    1.3803    0.4830    1.4037 C   0  0  0  0  0  0  0  0  0  0  0  0
    0.4904   -0.4063    0.5531 C   0  0  0  0  0  0  0  0  0  0  0  0
    1.2929   -1.9318   -0.0218 S   0  0  0  0  0  0  0  0  0  0  0  0
    0.8246    1.3578    1.7495 H   0  0  0  0  0  0  0  0  0  0  0  0
    2.2405    0.8361    0.8322 H   0  0  0  0  0  0  0  0  0  0  0  0
    1.7536   -0.0570    2.2742 H   0  0  0  0  0  0  0  0  0  0  0  0
   -0.3681   -0.7555    1.1287 H   0  0  0  0  0  0  0  0  0  0  0  0
    2.2553   -1.3435   -0.7448 H   0  0  0  0  0  0  0  0  0  0  0  0
   -1.6050    0.9027   -1.8423 C   0  0  0  0  0  0  0  0  0  0  0  0
   -1.6050    0.9027   -0.3190 C   0  0  0  0  0  3  0  0  0  0  0  0
   -1.6050    2.3086    0.2677 C   0  0  0  0  0  0  0  0  0  0  0  0
   -0.7235    1.4170   -2.2330 H   0  0  0  0  0  0  0  0  0  0  0  0
   -2.4864    1.4170   -2.2330 H   0  0  0  0  0  0  0  0  0  0  0  0
   -1.6050   -0.1122   -2.2435 H   0  0  0  0  0  0  0  0  0  0  0  0
   -0.5555    0.2471    0.1178 H   0  0  0  0  0  0  0  0  0  0  0  0
   -2.4795    0.3564    0.0450 H   0  0  0  0  0  0  0  0  0  0  0  0
   -2.4864    2.8671   -0.0564 H   0  0  0  0  0  0  0  0  0  0  0  0
   -1.6050    2.2879    1.3588 H   0  0  0  0  0  0  0  0  0  0  0  0
   -0.7235    2.8671   -0.0564 H   0  0  0  0  0  0  0  0  0  0  0  0
  1  2  1  0
  1  4  1  0
  1  5  1  0
  1  6  1  0
  2  3  1  0
  2  7  1  0
  2 15  1  0
  3  8  1  0
  9 10  1  0
  9 12  1  0
  9 13  1  0
  9 14  1  0
 10 11  1  0
 10 16  1  0
 11 17  1  0
 11 18  1  0
 11 19  1  0
M  RAD  1  10   2
M  END
>  <reaction>  (5) 
rxn_931

>  <mol_properties>  (5) 
{"1": {"label": "*1", "atom_type": "Cs"}, "2": {"label": "*0", "atom_type": "S2s"}, "8": {"label": "*4", "atom_type": "Cs"}, "9": {"label": "*3", "atom_type": "Cs"}, "14": {"label": "*2", "atom_type": "H0"}}

>  <type>  (5) 
unop_1

>  <geom_source>  (5) 
Heuristics

$$$$

     RDKit          3D

 19 17  0  0  0  0  0  0  0  0999 V2000
    1.9157   -0.1449   -0.5714 C   0  0  0  0  0  0  0  0  0  0  0  0
    0.7544   -0.2538    0.4012 C   0  0  0  0  0  0  0  0  0  0  0  0
    0.5917   -1.8837    1.1877 S   0  0  0  0  0  0  0  0  0  0  0  0
    1.9808    0.8688   -0.9739 H   0  0  0  0  0  0  0  0  0  0  0  0
    1.7886   -0.8316   -1.4101 H   0  0  0  0  0  0  0  0  0  0  0  0
    2.8593   -0.3844   -0.0806 H   0  0  0  0  0  0  0  0  0  0  0  0
    0.8859    0.4352    1.2368 H   0  0  0  0  0  0  0  0  0  0  0  0
    0.3755   -2.5822    0.0651 H   0  0  0  0  0  0  0  0  0  0  0  0
   -1.3410    1.0552   -1.9943 C   0  0  0  0  0  0  0  0  0  0  0  0
   -1.3410    1.0552   -0.4709 C   0  0  0  0  0  3  0  0  0  0  0  0
   -1.3410    2.4610    0.1158 C   0  0  0  0  0  0  0  0  0  0  0  0
   -0.4595    1.5695   -2.3849 H   0  0  0  0  0  0  0  0  0  0  0  0
   -2.2224    1.5695   -2.3849 H   0  0  0  0  0  0  0  0  0  0  0  0
   -1.3410    0.0403   -2.3954 H   0  0  0  0  0  0  0  0  0  0  0  0
   -0.2915    0.3996   -0.0341 H   0  0  0  0  0  0  0  0  0  0  0  0
   -2.2155    0.5089   -0.1069 H   0  0  0  0  0  0  0  0  0  0  0  0
   -2.2224    3.0196   -0.2084 H   0  0  0  0  0  0  0  0  0  0  0  0
   -1.3410    2.4404    1.2069 H   0  0  0  0  0  0  0  0  0  0  0  0
   -0.4595    3.0196   -0.2084 H   0  0  0  0  0  0  0  0  0  0  0  0
  1  2  1  0
  1  4  1  0
  1  5  1  0
  1  6  1  0
  2  3  1  0
  2  7  1  0
  2 15  1  0
  3  8  1  0
  9 10  1  0
  9 12  1  0
  9 13  1  0
  9 14  1  0
 10 11  1  0
 10 16  1  0
 11 17  1  0
 11 18  1  0
 11 19  1  0
M  RAD  1  10   2
M  END
>  <reaction>  (6) 
rxn_931

>  <mol_properties>  (6) 
{"1": {"label": "*1", "atom_type": "Cs"}, "2": {"label": "*0", "atom_type": "S2s"}, "8": {"label": "*4", "atom_type": "Cs"}, "9": {"label": "*3", "atom_type": "Cs"}, "14": {"label": "*2", "atom_type": "H0"}}

>  <type>  (6) 
unop_2

>  <geom_source>  (6) 
Heuristics

$$$$

     RDKit          3D

 19 17  0  0  0  0  0  0  0  0999 V2000
    0.8636   -0.0502    1.9486 C   0  0  0  0  0  0  0  0  0  0  0  0
    0.3944   -0.5915    0.6095 C   0  0  0  0  0  0  0  0  0  0  0  0
    1.7065   -1.3620   -0.3837 S   0  0  0  0  0  0  0  0  0  0  0  0
    0.0204    0.3591    2.5099 H   0  0  0  0  0  0  0  0  0  0  0  0
    1.5955    0.7480    1.8126 H   0  0  0  0  0  0  0  0  0  0  0  0
    1.3290   -0.8352    2.5452 H   0  0  0  0  0  0  0  0  0  0  0  0
   -0.3374   -1.3881    0.7512 H   0  0  0  0  0  0  0  0  0  0  0  0
    2.4666   -0.2673   -0.5215 H   0  0  0  0  0  0  0  0  0  0  0  0
   -1.7009    0.7175   -1.7860 C   0  0  0  0  0  0  0  0  0  0  0  0
   -1.7009    0.7175   -0.2626 C   0  0  0  0  0  3  0  0  0  0  0  0
   -1.7009    2.1233    0.3241 C   0  0  0  0  0  0  0  0  0  0  0  0
   -0.8195    1.2318   -2.1766 H   0  0  0  0  0  0  0  0  0  0  0  0
   -2.5824    1.2318   -2.1766 H   0  0  0  0  0  0  0  0  0  0  0  0
   -1.7009   -0.2974   -2.1871 H   0  0  0  0  0  0  0  0  0  0  0  0
   -0.6515    0.0619    0.1742 H   0  0  0  0  0  0  0  0  0  0  0  0
   -2.5755    0.1712    0.1014 H   0  0  0  0  0  0  0  0  0  0  0  0
   -2.5824    2.6819   -0.0001 H   0  0  0  0  0  0  0  0  0  0  0  0
   -1.7009    2.1026    1.4152 H   0  0  0  0  0  0  0  0  0  0  0  0
   -0.8195    2.6819   -0.0000 H   0  0  0  0  0  0  0  0  0  0  0  0
  1  2  1  0
  1  4  1  0
  1  5  1  0
  1  6  1  0
  2  3  1  0
  2  7  1  0
  2 15  1  0
  3  8  1  0
  9 10  1  0
  9 12  1  0
  9 13  1  0
  9 14  1  0
 10 11  1  0
 10 16  1  0
 11 17  1  0
 11 18  1  0
 11 19  1  0
M  RAD  1  10   2
M  END
>  <reaction>  (7) 
rxn_931

>  <mol_properties>  (7) 
{"1": {"label": "*1", "atom_type": "Cs"}, "2": {"label": "*0", "atom_type": "S2s"}, "8": {"label": "*4", "atom_type": "Cs"}, "9": {"label": "*3", "atom_type": "Cs"}, "14": {"label": "*2", "atom_type": "H0"}}

>  <type>  (7) 
unop_3

>  <geom_source>  (7) 
Heuristics

$$$$

     RDKit          3D

 19 17  0  0  0  0  0  0  0  0999 V2000
    1.1177   -2.0490   -0.4185 C   0  0  0  0  0  0  0  0  0  0  0  0
    1.1271   -0.6096    0.0656 C   0  0  0  0  0  0  0  0  0  0  0  0
    0.3411   -0.3631    1.6852 S   0  0  0  0  0  0  0  0  0  0  0  0
    1.6414   -2.1324   -1.3738 H   0  0  0  0  0  0  0  0  0  0  0  0
    0.0965   -2.4060   -0.5632 H   0  0  0  0  0  0  0  0  0  0  0  0
    1.6047   -2.7061    0.3024 H   0  0  0  0  0  0  0  0  0  0  0  0
    2.1499   -0.2576    0.2076 H   0  0  0  0  0  0  0  0  0  0  0  0
   -0.8861   -0.7672    1.3307 H   0  0  0  0  0  0  0  0  0  0  0  0
   -0.9682    0.6994   -2.3299 C   0  0  0  0  0  0  0  0  0  0  0  0
   -0.9682    0.6994   -0.8066 C   0  0  0  0  0  3  0  0  0  0  0  0
   -0.9682    2.1053   -0.2198 C   0  0  0  0  0  0  0  0  0  0  0  0
   -0.0868    1.2137   -2.7205 H   0  0  0  0  0  0  0  0  0  0  0  0
   -1.8497    1.2137   -2.7205 H   0  0  0  0  0  0  0  0  0  0  0  0
   -0.9682   -0.3155   -2.7311 H   0  0  0  0  0  0  0  0  0  0  0  0
    0.0812    0.0438   -0.3698 H   0  0  0  0  0  0  0  0  0  0  0  0
   -1.8428    0.1531   -0.4426 H   0  0  0  0  0  0  0  0  0  0  0  0
   -1.8497    2.6638   -0.5440 H   0  0  0  0  0  0  0  0  0  0  0  0
   -0.9682    2.0846    0.8713 H   0  0  0  0  0  0  0  0  0  0  0  0
   -0.0868    2.6638   -0.5440 H   0  0  0  0  0  0  0  0  0  0  0  0
  1  2  1  0
  1  4  1  0
  1  5  1  0
  1  6  1  0
  2  3  1  0
  2  7  1  0
  2 15  1  0
  3  8  1  0
  9 10  1  0
  9 12  1  0
  9 13  1  0
  9 14  1  0
 10 11  1  0
 10 16  1  0
 11 17  1  0
 11 18  1  0
 11 19  1  0
M  RAD  1  10   2
M  END
>  <reaction>  (8) 
rxn_931

>  <mol_properties>  (8) 
{"1": {"label": "*1", "atom_type": "Cs"}, "2": {"label": "*0", "atom_type": "S2s"}, "8": {"label": "*4", "atom_type": "Cs"}, "9": {"label": "*3", "atom_type": "Cs"}, "14": {"label": "*2", "atom_type": "H0"}}

>  <type>  (8) 
unop_4

>  <geom_source>  (8) 
Heuristics

$$$$

     RDKit          3D

 19 17  0  0  0  0  0  0  0  0999 V2000
    0.4450   -0.9895    2.0305 C   0  0  0  0  0  0  0  0  0  0  0  0
    0.4042   -0.9640    0.5126 C   0  0  0  0  0  0  0  0  0  0  0  0
    1.8963   -0.2737   -0.2613 S   0  0  0  0  0  0  0  0  0  0  0  0
   -0.4609   -1.4537    2.4275 H   0  0  0  0  0  0  0  0  0  0  0  0
    0.5098    0.0215    2.4366 H   0  0  0  0  0  0  0  0  0  0  0  0
    1.3080   -1.5516    2.3882 H   0  0  0  0  0  0  0  0  0  0  0  0
    0.3385   -1.9766    0.1120 H   0  0  0  0  0  0  0  0  0  0  0  0
    1.7965    0.9540    0.2658 H   0  0  0  0  0  0  0  0  0  0  0  0
   -1.6911    0.3450   -1.8829 C   0  0  0  0  0  0  0  0  0  0  0  0
   -1.6911    0.3450   -0.3596 C   0  0  0  0  0  3  0  0  0  0  0  0
   -1.6911    1.7508    0.2272 C   0  0  0  0  0  0  0  0  0  0  0  0
   -0.8097    0.8593   -2.2735 H   0  0  0  0  0  0  0  0  0  0  0  0
   -2.5726    0.8593   -2.2735 H   0  0  0  0  0  0  0  0  0  0  0  0
   -1.6911   -0.6699   -2.2840 H   0  0  0  0  0  0  0  0  0  0  0  0
   -0.6417   -0.3106    0.0772 H   0  0  0  0  0  0  0  0  0  0  0  0
   -2.5657   -0.2013    0.0044 H   0  0  0  0  0  0  0  0  0  0  0  0
   -2.5726    2.3094   -0.0970 H   0  0  0  0  0  0  0  0  0  0  0  0
   -1.6911    1.7302    1.3183 H   0  0  0  0  0  0  0  0  0  0  0  0
   -0.8097    2.3094   -0.0970 H   0  0  0  0  0  0  0  0  0  0  0  0
  1  2  1  0
  1  4  1  0
  1  5  1  0
  1  6  1  0
  2  3  1  0
  2  7  1  0
  2 15  1  0
  3  8  1  0
  9 10  1  0
  9 12  1  0
  9 13  1  0
  9 14  1  0
 10 11  1  0
 10 16  1  0
 11 17  1  0
 11 18  1  0
 11 19  1  0
M  RAD  1  10   2
M  END
>  <reaction>  (9) 
rxn_931

>  <mol_properties>  (9) 
{"1": {"label": "*1", "atom_type": "Cs"}, "2": {"label": "*0", "atom_type": "S2s"}, "8": {"label": "*4", "atom_type": "Cs"}, "9": {"label": "*3", "atom_type": "Cs"}, "14": {"label": "*2", "atom_type": "H0"}}

>  <type>  (9) 
unop_5

>  <geom_source>  (9) 
Heuristics

$$$$

     RDKit          3D

 19 17  0  0  0  0  0  0  0  0999 V2000
    0.7615   -2.3282    0.2117 C   0  0  0  0  0  0  0  0  0  0  0  0
    1.0711   -0.8528    0.0284 C   0  0  0  0  0  0  0  0  0  0  0  0
    0.6085    0.1870    1.4450 S   0  0  0  0  0  0  0  0  0  0  0  0
    1.1024   -2.8989   -0.6554 H   0  0  0  0  0  0  0  0  0  0  0  0
   -0.3122   -2.4917    0.3201 H   0  0  0  0  0  0  0  0  0  0  0  0
    1.2532   -2.7224    1.1014 H   0  0  0  0  0  0  0  0  0  0  0  0
    2.1451   -0.6952   -0.0804 H   0  0  0  0  0  0  0  0  0  0  0  0
   -0.7076   -0.0604    1.4020 H   0  0  0  0  0  0  0  0  0  0  0  0
   -1.0242    0.4562   -2.3670 C   0  0  0  0  0  0  0  0  0  0  0  0
   -1.0242    0.4562   -0.8437 C   0  0  0  0  0  3  0  0  0  0  0  0
   -1.0242    1.8620   -0.2570 C   0  0  0  0  0  0  0  0  0  0  0  0
   -0.1428    0.9705   -2.7577 H   0  0  0  0  0  0  0  0  0  0  0  0
   -1.9057    0.9705   -2.7577 H   0  0  0  0  0  0  0  0  0  0  0  0
   -1.0242   -0.5587   -2.7682 H   0  0  0  0  0  0  0  0  0  0  0  0
    0.0252   -0.1994   -0.4069 H   0  0  0  0  0  0  0  0  0  0  0  0
   -1.8988   -0.0901   -0.4797 H   0  0  0  0  0  0  0  0  0  0  0  0
   -1.9057    2.4206   -0.5811 H   0  0  0  0  0  0  0  0  0  0  0  0
   -1.0242    1.8414    0.8341 H   0  0  0  0  0  0  0  0  0  0  0  0
   -0.1428    2.4206   -0.5811 H   0  0  0  0  0  0  0  0  0  0  0  0
  1  2  1  0
  1  4  1  0
  1  5  1  0
  1  6  1  0
  2  3  1  0
  2  7  1  0
  2 15  1  0
  3  8  1  0
  9 10  1  0
  9 12  1  0
  9 13  1  0
  9 14  1  0
 10 11  1  0
 10 16  1  0
 11 17  1  0
 11 18  1  0
 11 19  1  0
M  RAD  1  10   2
M  END
>  <reaction>  (10) 
rxn_931

>  <mol_properties>  (10) 
{"1": {"label": "*1", "atom_type": "Cs"}, "2": {"label": "*0", "atom_type": "S2s"}, "8": {"label": "*4", "atom_type": "Cs"}, "9": {"label": "*3", "atom_type": "Cs"}, "14": {"label": "*2", "atom_type": "H0"}}

>  <type>  (10) 
unop_6

>  <geom_source>  (10) 
Heuristics

$$$$

     RDKit          3D

 19 17  0  0  0  0  0  0  0  0999 V2000
    0.5110   -2.2533    0.9383 C   0  0  0  0  0  0  0  0  0  0  0  0
    0.9199   -1.0635    0.0877 C   0  0  0  0  0  0  0  0  0  0  0  0
    0.9880    0.5108    0.9925 S   0  0  0  0  0  0  0  0  0  0  0  0
    0.5317   -3.1703    0.3446 H   0  0  0  0  0  0  0  0  0  0  0  0
   -0.5016   -2.1271    1.3257 H   0  0  0  0  0  0  0  0  0  0  0  0
    1.1834   -2.3750    1.7878 H   0  0  0  0  0  0  0  0  0  0  0  0
    1.9320   -1.1952   -0.2977 H   0  0  0  0  0  0  0  0  0  0  0  0
   -0.3072    0.5562    1.3323 H   0  0  0  0  0  0  0  0  0  0  0  0
   -1.1755    0.2455   -2.3077 C   0  0  0  0  0  0  0  0  0  0  0  0
   -1.1755    0.2455   -0.7844 C   0  0  0  0  0  3  0  0  0  0  0  0
   -1.1755    1.6513   -0.1977 C   0  0  0  0  0  0  0  0  0  0  0  0
   -0.2940    0.7598   -2.6984 H   0  0  0  0  0  0  0  0  0  0  0  0
   -2.0569    0.7598   -2.6984 H   0  0  0  0  0  0  0  0  0  0  0  0
   -1.1755   -0.7694   -2.7089 H   0  0  0  0  0  0  0  0  0  0  0  0
   -0.1260   -0.4101   -0.3476 H   0  0  0  0  0  0  0  0  0  0  0  0
   -2.0500   -0.3008   -0.4204 H   0  0  0  0  0  0  0  0  0  0  0  0
   -2.0569    2.2099   -0.5218 H   0  0  0  0  0  0  0  0  0  0  0  0
   -1.1755    1.6306    0.8934 H   0  0  0  0  0  0  0  0  0  0  0  0
   -0.2940    2.2099   -0.5218 H   0  0  0  0  0  0  0  0  0  0  0  0
  1  2  1  0
  1  4  1  0
  1  5  1  0
  1  6  1  0
  2  3  1  0
  2  7  1  0
  2 15  1  0
  3  8  1  0
  9 10  1  0
  9 12  1  0
  9 13  1  0
  9 14  1  0
 10 11  1  0
 10 16  1  0
 11 17  1  0
 11 18  1  0
 11 19  1  0
M  RAD  1  10   2
M  END
>  <reaction>  (11) 
rxn_931

>  <mol_properties>  (11) 
{"1": {"label": "*1", "atom_type": "Cs"}, "2": {"label": "*0", "atom_type": "S2s"}, "8": {"label": "*4", "atom_type": "Cs"}, "9": {"label": "*3", "atom_type": "Cs"}, "14": {"label": "*2", "atom_type": "H0"}}

>  <type>  (11) 
unop_7

>  <geom_source>  (11) 
Heuristics

$$$$

     RDKit          3D

 19 17  0  0  0  0  0  0  0  0999 V2000
    1.7529    0.5898    0.6724 C   0  0  0  0  0  0  0  0  0  0  0  0
    0.5627   -0.3355    0.4891 C   0  0  0  0  0  0  0  0  0  0  0  0
    0.9917   -2.1006    0.4410 S   0  0  0  0  0  0  0  0  0  0  0  0
    1.4208    1.6287    0.7353 H   0  0  0  0  0  0  0  0  0  0  0  0
    2.4441    0.5086   -0.1685 H   0  0  0  0  0  0  0  0  0  0  0  0
    2.3006    0.3451    1.5828 H   0  0  0  0  0  0  0  0  0  0  0  0
   -0.1252   -0.2497    1.3316 H   0  0  0  0  0  0  0  0  0  0  0  0
    1.7620   -2.0481   -0.6540 H   0  0  0  0  0  0  0  0  0  0  0  0
   -1.5326    0.9735   -1.9063 C   0  0  0  0  0  0  0  0  0  0  0  0
   -1.5326    0.9735   -0.3830 C   0  0  0  0  0  3  0  0  0  0  0  0
   -1.5326    2.3793    0.2037 C   0  0  0  0  0  0  0  0  0  0  0  0
   -0.6512    1.4878   -2.2970 H   0  0  0  0  0  0  0  0  0  0  0  0
   -2.4141    1.4878   -2.2970 H   0  0  0  0  0  0  0  0  0  0  0  0
   -1.5326   -0.0414   -2.3075 H   0  0  0  0  0  0  0  0  0  0  0  0
   -0.4832    0.3179    0.0538 H   0  0  0  0  0  0  0  0  0  0  0  0
   -2.4072    0.4272   -0.0190 H   0  0  0  0  0  0  0  0  0  0  0  0
   -2.4141    2.9379   -0.1204 H   0  0  0  0  0  0  0  0  0  0  0  0
   -1.5326    2.3586    1.2948 H   0  0  0  0  0  0  0  0  0  0  0  0
   -0.6512    2.9379   -0.1204 H   0  0  0  0  0  0  0  0  0  0  0  0
  1  2  1  0
  1  4  1  0
  1  5  1  0
  1  6  1  0
  2  3  1  0
  2  7  1  0
  2 15  1  0
  3  8  1  0
  9 10  1  0
  9 12  1  0
  9 13  1  0
  9 14  1  0
 10 11  1  0
 10 16  1  0
 11 17  1  0
 11 18  1  0
 11 19  1  0
M  RAD  1  10   2
M  END
>  <reaction>  (12) 
rxn_931

>  <mol_properties>  (12) 
{"1": {"label": "*1", "atom_type": "Cs"}, "2": {"label": "*0", "atom_type": "S2s"}, "8": {"label": "*4", "atom_type": "Cs"}, "9": {"label": "*3", "atom_type": "Cs"}, "14": {"label": "*2", "atom_type": "H0"}}

>  <type>  (12) 
unop_8

>  <geom_source>  (12) 
Heuristics

$$$$

     RDKit          3D

 19 17  0  0  0  0  0  0  0  0999 V2000
    1.4853   -1.4845   -0.7966 C   0  0  0  0  0  0  0  0  0  0  0  0
    1.0739   -0.3931    0.1759 C   0  0  0  0  0  0  0  0  0  0  0  0
    0.2552   -1.0041    1.6786 S   0  0  0  0  0  0  0  0  0  0  0  0
    2.0075   -1.0530   -1.6538 H   0  0  0  0  0  0  0  0  0  0  0  0
    0.6131   -2.0231   -1.1713 H   0  0  0  0  0  0  0  0  0  0  0  0
    2.1457   -2.2067   -0.3159 H   0  0  0  0  0  0  0  0  0  0  0  0
    1.9491    0.1426    0.5464 H   0  0  0  0  0  0  0  0  0  0  0  0
   -0.8009   -1.5607    1.0703 H   0  0  0  0  0  0  0  0  0  0  0  0
   -1.0214    0.9160   -2.2195 C   0  0  0  0  0  0  0  0  0  0  0  0
   -1.0214    0.9160   -0.6962 C   0  0  0  0  0  3  0  0  0  0  0  0
   -1.0214    2.3218   -0.1095 C   0  0  0  0  0  0  0  0  0  0  0  0
   -0.1399    1.4302   -2.6102 H   0  0  0  0  0  0  0  0  0  0  0  0
   -1.9029    1.4302   -2.6102 H   0  0  0  0  0  0  0  0  0  0  0  0
   -1.0214   -0.0989   -2.6207 H   0  0  0  0  0  0  0  0  0  0  0  0
    0.0280    0.2603   -0.2594 H   0  0  0  0  0  0  0  0  0  0  0  0
   -1.8959    0.3696   -0.3322 H   0  0  0  0  0  0  0  0  0  0  0  0
   -1.9029    2.8803   -0.4336 H   0  0  0  0  0  0  0  0  0  0  0  0
   -1.0214    2.3011    0.9816 H   0  0  0  0  0  0  0  0  0  0  0  0
   -0.1399    2.8803   -0.4336 H   0  0  0  0  0  0  0  0  0  0  0  0
  1  2  1  0
  1  4  1  0
  1  5  1  0
  1  6  1  0
  2  3  1  0
  2  7  1  0
  2 15  1  0
  3  8  1  0
  9 10  1  0
  9 12  1  0
  9 13  1  0
  9 14  1  0
 10 11  1  0
 10 16  1  0
 11 17  1  0
 11 18  1  0
 11 19  1  0
M  RAD  1  10   2
M  END
>  <reaction>  (13) 
rxn_931

>  <mol_properties>  (13) 
{"1": {"label": "*1", "atom_type": "Cs"}, "2": {"label": "*0", "atom_type": "S2s"}, "8": {"label": "*4", "atom_type": "Cs"}, "9": {"label": "*3", "atom_type": "Cs"}, "14": {"label": "*2", "atom_type": "H0"}}

>  <type>  (13) 
unop_9

>  <geom_source>  (13) 
Heuristics

$$$$

     RDKit          3D

 19 17  0  0  0  0  0  0  0  0999 V2000
    1.9256    0.3480   -0.0364 C   0  0  0  0  0  0  0  0  0  0  0  0
    0.6360   -0.2917    0.4476 C   0  0  0  0  0  0  0  0  0  0  0  0
    0.7862   -2.0567    0.8526 S   0  0  0  0  0  0  0  0  0  0  0  0
    1.7753    1.4144   -0.2205 H   0  0  0  0  0  0  0  0  0  0  0  0
    2.2627   -0.1093   -0.9684 H   0  0  0  0  0  0  0  0  0  0  0  0
    2.7196    0.2319    0.7017 H   0  0  0  0  0  0  0  0  0  0  0  0
    0.3031    0.1696    1.3785 H   0  0  0  0  0  0  0  0  0  0  0  0
    1.1256   -2.4740   -0.3745 H   0  0  0  0  0  0  0  0  0  0  0  0
   -1.4593    1.0173   -1.9478 C   0  0  0  0  0  0  0  0  0  0  0  0
   -1.4593    1.0173   -0.4245 C   0  0  0  0  0  3  0  0  0  0  0  0
   -1.4593    2.4232    0.1622 C   0  0  0  0  0  0  0  0  0  0  0  0
   -0.5778    1.5316   -2.3385 H   0  0  0  0  0  0  0  0  0  0  0  0
   -2.3408    1.5316   -2.3385 H   0  0  0  0  0  0  0  0  0  0  0  0
   -1.4593    0.0024   -2.3490 H   0  0  0  0  0  0  0  0  0  0  0  0
   -0.4099    0.3617    0.0123 H   0  0  0  0  0  0  0  0  0  0  0  0
   -2.3338    0.4710   -0.0605 H   0  0  0  0  0  0  0  0  0  0  0  0
   -2.3407    2.9817   -0.1619 H   0  0  0  0  0  0  0  0  0  0  0  0
   -1.4593    2.4025    1.2533 H   0  0  0  0  0  0  0  0  0  0  0  0
   -0.5778    2.9817   -0.1619 H   0  0  0  0  0  0  0  0  0  0  0  0
  1  2  1  0
  1  4  1  0
  1  5  1  0
  1  6  1  0
  2  3  1  0
  2  7  1  0
  2 15  1  0
  3  8  1  0
  9 10  1  0
  9 12  1  0
  9 13  1  0
  9 14  1  0
 10 11  1  0
 10 16  1  0
 11 17  1  0
 11 18  1  0
 11 19  1  0
M  RAD  1  10   2
M  END
>  <reaction>  (14) 
rxn_931

>  <mol_properties>  (14) 
{"1": {"label": "*1", "atom_type": "Cs"}, "2": {"label": "*0", "atom_type": "S2s"}, "8": {"label": "*4", "atom_type": "Cs"}, "9": {"label": "*3", "atom_type": "Cs"}, "14": {"label": "*2", "atom_type": "H0"}}

>  <type>  (14) 
unop_10

>  <geom_source>  (14) 
Heuristics

$$$$

     RDKit          3D

 19 17  0  0  0  0  0  0  0  0999 V2000
    0.3918   -1.8205    1.5973 C   0  0  0  0  0  0  0  0  0  0  0  0
    0.6724   -1.1614    0.2582 C   0  0  0  0  0  0  0  0  0  0  0  0
    1.4677    0.4677    0.3819 S   0  0  0  0  0  0  0  0  0  0  0  0
   -0.0458   -2.8107    1.4495 H   0  0  0  0  0  0  0  0  0  0  0  0
   -0.3110   -1.2273    2.1852 H   0  0  0  0  0  0  0  0  0  0  0  0
    1.3080   -1.9295    2.1781 H   0  0  0  0  0  0  0  0  0  0  0  0
    1.3743   -1.7588   -0.3255 H   0  0  0  0  0  0  0  0  0  0  0  0
    0.4777    1.0789    1.0463 H   0  0  0  0  0  0  0  0  0  0  0  0
   -1.4229    0.1476   -2.1372 C   0  0  0  0  0  0  0  0  0  0  0  0
   -1.4229    0.1476   -0.6139 C   0  0  0  0  0  3  0  0  0  0  0  0
   -1.4229    1.5534   -0.0272 C   0  0  0  0  0  0  0  0  0  0  0  0
   -0.5414    0.6618   -2.5279 H   0  0  0  0  0  0  0  0  0  0  0  0
   -2.3043    0.6618   -2.5279 H   0  0  0  0  0  0  0  0  0  0  0  0
   -1.4229   -0.8673   -2.5384 H   0  0  0  0  0  0  0  0  0  0  0  0
   -0.3735   -0.5081   -0.1771 H   0  0  0  0  0  0  0  0  0  0  0  0
   -2.2974   -0.3988   -0.2499 H   0  0  0  0  0  0  0  0  0  0  0  0
   -2.3043    2.1119   -0.3513 H   0  0  0  0  0  0  0  0  0  0  0  0
   -1.4229    1.5327    1.0639 H   0  0  0  0  0  0  0  0  0  0  0  0
   -0.5414    2.1119   -0.3513 H   0  0  0  0  0  0  0  0  0  0  0  0
  1  2  1  0
  1  4  1  0
  1  5  1  0
  1  6  1  0
  2  3  1  0
  2  7  1  0
  2 15  1  0
  3  8  1  0
  9 10  1  0
  9 12  1  0
  9 13  1  0
  9 14  1  0
 10 11  1  0
 10 16  1  0
 11 17  1  0
 11 18  1  0
 11 19  1  0
M  RAD  1  10   2
M  END
>  <reaction>  (15) 
rxn_931

>  <mol_properties>  (15) 
{"1": {"label": "*1", "atom_type": "Cs"}, "2": {"label": "*0", "atom_type": "S2s"}, "8": {"label": "*4", "atom_type": "Cs"}, "9": {"label": "*3", "atom_type": "Cs"}, "14": {"label": "*2", "atom_type": "H0"}}

>  <type>  (15) 
unop_11

>  <geom_source>  (15) 
Heuristics

$$$$

     RDKit          3D

 19 17  0  0  0  0  0  0  0  0999 V2000
    1.7639   -0.7928   -0.8430 C   0  0  0  0  0  0  0  0  0  0  0  0
    0.9240   -0.2681    0.3083 C   0  0  0  0  0  0  0  0  0  0  0  0
    0.3769   -1.5488    1.4755 S   0  0  0  0  0  0  0  0  0  0  0  0
    2.0933    0.0315   -1.4800 H   0  0  0  0  0  0  0  0  0  0  0  0
    1.1903   -1.4860   -1.4610 H   0  0  0  0  0  0  0  0  0  0  0  0
    2.6444   -1.3200   -0.4750 H   0  0  0  0  0  0  0  0  0  0  0  0
    1.5016    0.4248    0.9219 H   0  0  0  0  0  0  0  0  0  0  0  0
   -0.3515   -2.2591    0.6037 H   0  0  0  0  0  0  0  0  0  0  0  0
   -1.1713    1.0409   -2.0872 C   0  0  0  0  0  0  0  0  0  0  0  0
   -1.1713    1.0409   -0.5638 C   0  0  0  0  0  3  0  0  0  0  0  0
   -1.1713    2.4467    0.0229 C   0  0  0  0  0  0  0  0  0  0  0  0
   -0.2899    1.5552   -2.4778 H   0  0  0  0  0  0  0  0  0  0  0  0
   -2.0528    1.5552   -2.4778 H   0  0  0  0  0  0  0  0  0  0  0  0
   -1.1713    0.0260   -2.4883 H   0  0  0  0  0  0  0  0  0  0  0  0
   -0.1219    0.3853   -0.1270 H   0  0  0  0  0  0  0  0  0  0  0  0
   -2.0459    0.4946   -0.1998 H   0  0  0  0  0  0  0  0  0  0  0  0
   -2.0528    3.0053   -0.3012 H   0  0  0  0  0  0  0  0  0  0  0  0
   -1.1713    2.4260    1.1140 H   0  0  0  0  0  0  0  0  0  0  0  0
   -0.2899    3.0053   -0.3012 H   0  0  0  0  0  0  0  0  0  0  0  0
  1  2  1  0
  1  4  1  0
  1  5  1  0
  1  6  1  0
  2  3  1  0
  2  7  1  0
  2 15  1  0
  3  8  1  0
  9 10  1  0
  9 12  1  0
  9 13  1  0
  9 14  1  0
 10 11  1  0
 10 16  1  0
 11 17  1  0
 11 18  1  0
 11 19  1  0
M  RAD  1  10   2
M  END
>  <reaction>  (16) 
rxn_931

>  <mol_properties>  (16) 
{"1": {"label": "*1", "atom_type": "Cs"}, "2": {"label": "*0", "atom_type": "S2s"}, "8": {"label": "*4", "atom_type": "Cs"}, "9": {"label": "*3", "atom_type": "Cs"}, "14": {"label": "*2", "atom_type": "H0"}}

>  <type>  (16) 
unop_12

>  <geom_source>  (16) 
Heuristics

$$$$

     RDKit          3D

 19 17  0  0  0  0  0  0  0  0999 V2000
    1.8128    1.2563   -1.1732 S   0  0  0  0  0  0  0  0  0  0  0  0
    1.5191    0.0305    0.1369 C   0  0  0  0  0  3  0  0  0  0  0  0
    2.4363   -1.1673   -0.0488 C   0  0  0  0  0  0  0  0  0  0  0  0
   -1.5429    1.1282    0.9481 C   0  0  0  0  0  0  0  0  0  0  0  0
   -1.7875   -0.4961   -0.9646 C   0  0  0  0  0  0  0  0  0  0  0  0
   -1.0688   -0.1874    0.3430 C   0  0  0  0  0  0  0  0  0  0  0  0
    1.7104    0.4980    1.1261 H   0  0  0  0  0  0  0  0  0  0  0  0
    0.2011   -0.3882    0.0822 H   0  0  0  0  0  0  0  0  0  0  0  0
    3.4990   -0.8484    0.0017 H   0  0  0  0  0  0  0  0  0  0  0  0
    2.2443   -1.9082    0.7552 H   0  0  0  0  0  0  0  0  0  0  0  0
    2.2407   -1.6468   -1.0309 H   0  0  0  0  0  0  0  0  0  0  0  0
   -2.6283    1.0787    1.1793 H   0  0  0  0  0  0  0  0  0  0  0  0
   -1.3520    1.9643    0.2427 H   0  0  0  0  0  0  0  0  0  0  0  0
   -0.9842    1.3222    1.8872 H   0  0  0  0  0  0  0  0  0  0  0  0
   -2.8803   -0.5948   -0.7914 H   0  0  0  0  0  0  0  0  0  0  0  0
   -1.4018   -1.4509   -1.3785 H   0  0  0  0  0  0  0  0  0  0  0  0
   -1.6008    0.3116   -1.7035 H   0  0  0  0  0  0  0  0  0  0  0  0
   -1.2293   -1.0154    1.0666 H   0  0  0  0  0  0  0  0  0  0  0  0
    0.8123    2.1137   -0.6779 H   0  0  0  0  0  0  0  0  0  0  0  0
  1  2  1  0
  1 19  1  0
  2  3  1  0
  2  7  1  0
  3  9  1  0
  3 10  1  0
  3 11  1  0
  4  6  1  0
  4 12  1  0
  4 13  1  0
  4 14  1  0
  5  6  1  0
  5 15  1  0
  5 16  1  0
  5 17  1  0
  6  8  1  0
  6 18  1  0
M  RAD  1   2   2
M  END
>  <reaction>  (17) 
rxn_931

>  <mol_properties>  (17) 
{"1": {"label": "*1", "atom_type": "Cs"}, "2": {"label": "*0", "atom_type": "S2s"}, "8": {"label": "*4", "atom_type": "Cs"}, "9": {"label": "*3", "atom_type": "Cs"}, "14": {"label": "*2", "atom_type": "H0"}}

>  <type>  (17) 
unop_13

>  <geom_source>  (17) 
AutoTST

$$$$
