
     RDKit          3D

 18 18  0  0  0  0  0  0  0  0999 V2000
   -2.4852    0.3210   -0.3966 C   0  0  0  0  0  0  0  0  0  0  0  0
   -1.5917   -0.2708    0.6941 C   0  0  0  0  0  0  0  0  0  0  0  0
   -0.1292   -0.1692    0.3493 C   0  0  0  0  0  0  0  0  0  0  0  0
    0.6099    0.9558    0.7015 C   0  0  0  0  0  0  0  0  0  0  0  0
    1.9447    1.0728    0.3458 C   0  0  0  0  0  0  0  0  0  0  0  0
    2.5646    0.0613   -0.3720 C   0  0  0  0  0  0  0  0  0  0  0  0
    1.8399   -1.0657   -0.7287 C   0  0  0  0  0  0  0  0  0  0  0  0
    0.5055   -1.1769   -0.3700 C   0  0  0  0  0  0  0  0  0  0  0  0
   -2.3325   -0.1971   -1.3452 H   0  0  0  0  0  0  0  0  0  0  0  0
   -2.2554    1.3763   -0.5546 H   0  0  0  0  0  0  0  0  0  0  0  0
   -3.5397    0.2376   -0.1280 H   0  0  0  0  0  0  0  0  0  0  0  0
   -1.7801    0.2462    1.6380 H   0  0  0  0  0  0  0  0  0  0  0  0
   -1.8568   -1.3190    0.8516 H   0  0  0  0  0  0  0  0  0  0  0  0
    0.1327    1.7497    1.2656 H   0  0  0  0  0  0  0  0  0  0  0  0
    2.5033    1.9550    0.6330 H   0  0  0  0  0  0  0  0  0  0  0  0
    3.6077    0.1491   -0.6484 H   0  0  0  0  0  0  0  0  0  0  0  0
    2.3163   -1.8632   -1.2854 H   0  0  0  0  0  0  0  0  0  0  0  0
   -0.0540   -2.0629   -0.6500 H   0  0  0  0  0  0  0  0  0  0  0  0
  1  2  1  0
  1  9  1  0
  1 10  1  0
  1 11  1  0
  2  3  1  0
  2 12  1  0
  2 13  1  0
  3  4  2  0
  3  8  1  0
  4  5  1  0
  4 14  1  0
  5  6  2  0
  5 15  1  0
  6  7  1  0
  6 16  1  0
  7  8  2  0
  7 17  1  0
  8 18  1  0
M  END
>  <reaction>  (1) 
rxn_1498

>  <mol_properties>  (1) 
{"2": {"label": "donator", "atom_type": "Cs"}, "17": {"label": "d_hydrogen", "atom_type": "H0"}}

>  <type>  (1) 
r1h

$$$$

     RDKit          3D

  7  6  0  0  0  0  0  0  0  0999 V2000
    1.3002    0.7433    2.1279 C   0  0  0  0  0  0  0  0  0  0  0  0
    0.5758    0.3292    1.2319 C   0  0  0  0  0  0  0  0  0  0  0  0
   -0.2057   -0.1176    0.2652 C   0  0  0  0  0  3  0  0  0  0  0  0
   -0.9747   -0.5572   -0.6858 C   0  0  0  0  0  0  0  0  0  0  0  0
    1.9293    1.1030    2.9060 H   0  0  0  0  0  0  0  0  0  0  0  0
   -1.9977   -0.8727   -0.4932 H   0  0  0  0  0  0  0  0  0  0  0  0
   -0.6274   -0.6280   -1.7143 H   0  0  0  0  0  0  0  0  0  0  0  0
  1  2  3  0
  1  5  1  0
  2  3  1  0
  3  4  2  3
  4  6  1  0
  4  7  1  0
M  RAD  1   3   2
M  END
>  <reaction>  (2) 
rxn_1498

>  <mol_properties>  (2) 
{"0": {"label": "acceptor", "atom_type": "Cd"}}

>  <type>  (2) 
r2

$$$$

     RDKit          3D

  8  7  0  0  0  0  0  0  0  0999 V2000
    1.9029    0.9046   -0.2050 C   0  0  0  0  0  0  0  0  0  0  0  0
    0.8517    0.4283    0.1217 C   0  0  0  0  0  0  0  0  0  0  0  0
   -0.3908   -0.1311    0.5404 C   0  0  0  0  0  0  0  0  0  0  0  0
   -1.2847   -0.6576   -0.2899 C   0  0  0  0  0  0  0  0  0  0  0  0
    2.8335    1.3255   -0.5014 H   0  0  0  0  0  0  0  0  0  0  0  0
   -0.5867   -0.1096    1.6074 H   0  0  0  0  0  0  0  0  0  0  0  0
   -2.2126   -1.0686    0.0850 H   0  0  0  0  0  0  0  0  0  0  0  0
   -1.1134   -0.6914   -1.3582 H   0  0  0  0  0  0  0  0  0  0  0  0
  1  2  3  0
  1  5  1  0
  2  3  1  0
  3  4  2  3
  3  6  1  0
  4  7  1  0
  4  8  1  0
M  END
>  <reaction>  (3) 
rxn_1498

>  <mol_properties>  (3) 
{"0": {"label": "acceptor", "atom_type": "Cd"}, "4": {"label": "a_hydrogen", "atom_type": "H0"}}

>  <type>  (3) 
r2h

$$$$

     RDKit          3D

 25 24  0  0  0  0  0  0  0  0999 V2000
   -0.3639   -1.5920    1.7370 C   0  0  0  0  0  0  0  0  0  0  0  0
   -0.8342   -0.4055   -0.5037 C   0  0  0  0  0  0  0  0  0  0  0  0
    0.0714   -1.2117    0.3424 C   0  0  0  0  0  0  0  0  0  0  0  0
   -1.8473    0.3912    0.0324 C   0  0  0  0  0  0  0  0  0  0  0  0
   -0.6407   -0.3770   -1.8882 C   0  0  0  0  0  0  0  0  0  0  0  0
   -2.6354    1.1858   -0.7853 C   0  0  0  0  0  0  0  0  0  0  0  0
   -2.4277    1.2054   -2.1559 C   0  0  0  0  0  0  0  0  0  0  0  0
   -1.4253    0.4170   -2.7049 C   0  0  0  0  0  0  0  0  0  0  0  0
    2.1426    0.4481    0.7614 C   0  0  0  0  0  3  0  0  0  0  0  0
    1.9006    1.6044    0.1776 C   0  0  0  0  0  0  0  0  0  0  0  0
    3.1663   -0.0550    1.5536 C   0  0  0  0  0  0  0  0  0  0  0  0
    3.9924   -0.5955    2.2467 C   0  0  0  0  0  0  0  0  0  0  0  0
   -1.2804   -2.1881    1.7183 H   0  0  0  0  0  0  0  0  0  0  0  0
    0.4132   -2.1779    2.2281 H   0  0  0  0  0  0  0  0  0  0  0  0
   -0.5482   -0.7120    2.3557 H   0  0  0  0  0  0  0  0  0  0  0  0
    0.5032   -2.0477   -0.2082 H   0  0  0  0  0  0  0  0  0  0  0  0
   -2.0252    0.3917    1.0999 H   0  0  0  0  0  0  0  0  0  0  0  0
   -3.4174    1.7939   -0.3477 H   0  0  0  0  0  0  0  0  0  0  0  0
    0.1435   -0.9866   -2.3228 H   0  0  0  0  0  0  0  0  0  0  0  0
   -3.0441    1.8267   -2.7929 H   0  0  0  0  0  0  0  0  0  0  0  0
   -1.2563    0.4209   -3.7745 H   0  0  0  0  0  0  0  0  0  0  0  0
    1.0899   -0.4837    0.5210 H   0  0  0  0  0  0  0  0  0  0  0  0
    2.5897    2.4407    0.2557 H   0  0  0  0  0  0  0  0  0  0  0  0
    0.9962    1.7531   -0.4031 H   0  0  0  0  0  0  0  0  0  0  0  0
    4.7373   -1.0467    2.8567 H   0  0  0  0  0  0  0  0  0  0  0  0
  1  3  1  0
  1 13  1  0
  1 14  1  0
  1 15  1  0
  2  3  1  0
  2  4  2  0
  2  5  1  0
  3 16  1  0
  3 22  1  0
  4  6  1  0
  4 17  1  0
  5  8  2  0
  5 19  1  0
  6  7  2  0
  6 18  1  0
  7  8  1  0
  7 20  1  0
  8 21  1  0
  9 10  2  3
  9 11  1  0
 10 23  1  0
 10 24  1  0
 11 12  3  0
 12 25  1  0
M  RAD  1   9   2
M  END
>  <reaction>  (4) 
rxn_1498

>  <mol_properties>  (4) 
{"1": {"label": "*0", "atom_type": "Cd"}, "2": {"label": "*1", "atom_type": "Cs"}, "8": {"label": "*3", "atom_type": "Cd"}, "10": {"label": "*4", "atom_type": "Ct"}, "21": {"label": "*2", "atom_type": "H0"}}

>  <type>  (4) 
ts

$$$$

     RDKit          3D

 25 24  0  0  0  0  0  0  0  0999 V2000
   -0.8839   -4.1380    1.4769 C   0  0  0  0  0  0  0  0  0  0  0  0
   -1.1248   -3.1703    0.8105 C   0  0  0  0  0  0  0  0  0  0  0  0
   -1.3878   -2.0285   -0.0014 C   0  0  0  0  0  0  0  0  0  0  0  0
   -2.3389   -1.1373    0.2573 C   0  0  0  0  0  0  0  0  0  0  0  0
   -0.6703   -4.9960    2.0678 H   0  0  0  0  0  0  0  0  0  0  0  0
   -2.9832   -1.2325    1.1218 H   0  0  0  0  0  0  0  0  0  0  0  0
   -2.4934   -0.2884   -0.3955 H   0  0  0  0  0  0  0  0  0  0  0  0
    0.7089   -0.7329   -2.3990 C   0  0  0  0  0  0  0  0  0  0  0  0
    0.7089   -0.7329   -0.8699 C   0  0  0  0  0  0  0  0  0  0  0  0
    0.7089    0.6613   -0.3005 C   0  0  0  0  0  0  0  0  0  0  0  0
   -0.4856    1.3303   -0.0528 C   0  0  0  0  0  3  0  0  0  0  0  0
   -0.4889    2.6305    0.4282 C   0  0  0  0  0  0  0  0  0  0  0  0
    0.7089    3.2858    0.6700 C   0  0  0  0  0  0  0  0  0  0  0  0
    1.9067    2.6305    0.4282 C   0  0  0  0  0  0  0  0  0  0  0  0
    1.9034    1.3303   -0.0528 C   0  0  0  0  0  0  0  0  0  0  0  0
    1.5902   -0.2179   -2.7859 H   0  0  0  0  0  0  0  0  0  0  0  0
   -0.1724   -0.2179   -2.7859 H   0  0  0  0  0  0  0  0  0  0  0  0
    0.7089   -1.7514   -2.7913 H   0  0  0  0  0  0  0  0  0  0  0  0
   -0.3431   -1.3830   -0.4342 H   0  0  0  0  0  0  0  0  0  0  0  0
    1.5855   -1.2746   -0.5068 H   0  0  0  0  0  0  0  0  0  0  0  0
   -1.4265    0.8231   -0.2365 H   0  0  0  0  0  0  0  0  0  0  0  0
   -1.4297    3.1322    0.6181 H   0  0  0  0  0  0  0  0  0  0  0  0
    0.7089    4.3002    1.0483 H   0  0  0  0  0  0  0  0  0  0  0  0
    2.8475    3.1322    0.6181 H   0  0  0  0  0  0  0  0  0  0  0  0
    2.8443    0.8231   -0.2365 H   0  0  0  0  0  0  0  0  0  0  0  0
  1  2  3  0
  1  5  1  0
  2  3  1  0
  3  4  2  3
  3 19  1  0
  4  6  1  0
  4  7  1  0
  8  9  1  0
  8 16  1  0
  8 17  1  0
  8 18  1  0
  9 10  2  3
  9 20  1  0
 10 11  1  0
 10 15  1  0
 11 12  1  0
 11 21  1  0
 12 13  2  0
 12 22  1  0
 13 14  1  0
 13 23  1  0
 14 15  2  0
 14 24  1  0
 15 25  1  0
M  RAD  1  11   2
M  END
>  <reaction>  (5) 
rxn_1498

>  <mol_properties>  (5) 
{"1": {"label": "*0", "atom_type": "Cd"}, "2": {"label": "*1", "atom_type": "Cs"}, "8": {"label": "*3", "atom_type": "Cd"}, "10": {"label": "*4", "atom_type": "Ct"}, "21": {"label": "*2", "atom_type": "H0"}}

>  <type>  (5) 
unop_1

>  <geom_source>  (5) 
Heuristics

$$$$

     RDKit          3D

 25 24  0  0  0  0  0  0  0  0999 V2000
   -2.1415   -3.8997   -1.2775 C   0  0  0  0  0  0  0  0  0  0  0  0
   -1.7528   -3.0278   -0.5514 C   0  0  0  0  0  0  0  0  0  0  0  0
   -1.2743   -1.9792    0.2874 C   0  0  0  0  0  0  0  0  0  0  0  0
   -1.5883   -1.8555    1.5726 C   0  0  0  0  0  0  0  0  0  0  0  0
   -2.4863   -4.6728   -1.9213 H   0  0  0  0  0  0  0  0  0  0  0  0
   -2.2420   -2.5633    2.0660 H   0  0  0  0  0  0  0  0  0  0  0  0
   -1.1948   -1.0376    2.1616 H   0  0  0  0  0  0  0  0  0  0  0  0
    0.8223   -0.6837   -2.1102 C   0  0  0  0  0  0  0  0  0  0  0  0
    0.8223   -0.6837   -0.5811 C   0  0  0  0  0  0  0  0  0  0  0  0
    0.8223    0.7106   -0.0117 C   0  0  0  0  0  0  0  0  0  0  0  0
   -0.3722    1.3796    0.2360 C   0  0  0  0  0  3  0  0  0  0  0  0
   -0.3755    2.6798    0.7170 C   0  0  0  0  0  0  0  0  0  0  0  0
    0.8223    3.3351    0.9588 C   0  0  0  0  0  0  0  0  0  0  0  0
    2.0201    2.6798    0.7170 C   0  0  0  0  0  0  0  0  0  0  0  0
    2.0168    1.3796    0.2360 C   0  0  0  0  0  0  0  0  0  0  0  0
    1.7036   -0.1686   -2.4970 H   0  0  0  0  0  0  0  0  0  0  0  0
   -0.0590   -0.1686   -2.4970 H   0  0  0  0  0  0  0  0  0  0  0  0
    0.8223   -1.7021   -2.5025 H   0  0  0  0  0  0  0  0  0  0  0  0
   -0.2297   -1.3337   -0.1453 H   0  0  0  0  0  0  0  0  0  0  0  0
    1.6989   -1.2253   -0.2180 H   0  0  0  0  0  0  0  0  0  0  0  0
   -1.3131    0.8724    0.0523 H   0  0  0  0  0  0  0  0  0  0  0  0
   -1.3163    3.1815    0.9069 H   0  0  0  0  0  0  0  0  0  0  0  0
    0.8223    4.3495    1.3371 H   0  0  0  0  0  0  0  0  0  0  0  0
    2.9609    3.1815    0.9069 H   0  0  0  0  0  0  0  0  0  0  0  0
    2.9577    0.8724    0.0523 H   0  0  0  0  0  0  0  0  0  0  0  0
  1  2  3  0
  1  5  1  0
  2  3  1  0
  3  4  2  3
  3 19  1  0
  4  6  1  0
  4  7  1  0
  8  9  1  0
  8 16  1  0
  8 17  1  0
  8 18  1  0
  9 10  2  3
  9 20  1  0
 10 11  1  0
 10 15  1  0
 11 12  1  0
 11 21  1  0
 12 13  2  0
 12 22  1  0
 13 14  1  0
 13 23  1  0
 14 15  2  0
 14 24  1  0
 15 25  1  0
M  RAD  1  11   2
M  END
>  <reaction>  (6) 
rxn_1498

>  <mol_properties>  (6) 
{"1": {"label": "*0", "atom_type": "Cd"}, "2": {"label": "*1", "atom_type": "Cs"}, "8": {"label": "*3", "atom_type": "Cd"}, "10": {"label": "*4", "atom_type": "Ct"}, "21": {"label": "*2", "atom_type": "H0"}}

>  <type>  (6) 
unop_2

>  <geom_source>  (6) 
Heuristics

$$$$

     RDKit          3D

 25 24  0  0  0  0  0  0  0  0999 V2000
   -1.0435   -3.3279    2.2633 C   0  0  0  0  0  0  0  0  0  0  0  0
   -1.1947   -2.7675    1.2137 C   0  0  0  0  0  0  0  0  0  0  0  0
   -1.3437   -2.1065   -0.0405 C   0  0  0  0  0  0  0  0  0  0  0  0
   -2.4854   -1.5801   -0.4707 C   0  0  0  0  0  0  0  0  0  0  0  0
   -0.9095   -3.8248    3.1939 H   0  0  0  0  0  0  0  0  0  0  0  0
   -3.3888   -1.6258    0.1238 H   0  0  0  0  0  0  0  0  0  0  0  0
   -2.5398   -1.0893   -1.4334 H   0  0  0  0  0  0  0  0  0  0  0  0
    0.7530   -0.8110   -2.4382 C   0  0  0  0  0  0  0  0  0  0  0  0
    0.7530   -0.8110   -0.9091 C   0  0  0  0  0  0  0  0  0  0  0  0
    0.7530    0.5833   -0.3396 C   0  0  0  0  0  0  0  0  0  0  0  0
   -0.4415    1.2522   -0.0919 C   0  0  0  0  0  3  0  0  0  0  0  0
   -0.4448    2.5524    0.3890 C   0  0  0  0  0  0  0  0  0  0  0  0
    0.7530    3.2078    0.6308 C   0  0  0  0  0  0  0  0  0  0  0  0
    1.9508    2.5524    0.3890 C   0  0  0  0  0  0  0  0  0  0  0  0
    1.9475    1.2522   -0.0919 C   0  0  0  0  0  0  0  0  0  0  0  0
    1.6343   -0.2960   -2.8250 H   0  0  0  0  0  0  0  0  0  0  0  0
   -0.1283   -0.2960   -2.8250 H   0  0  0  0  0  0  0  0  0  0  0  0
    0.7530   -1.8294   -2.8305 H   0  0  0  0  0  0  0  0  0  0  0  0
   -0.2990   -1.4610   -0.4733 H   0  0  0  0  0  0  0  0  0  0  0  0
    1.6296   -1.3527   -0.5459 H   0  0  0  0  0  0  0  0  0  0  0  0
   -1.3824    0.7450   -0.2756 H   0  0  0  0  0  0  0  0  0  0  0  0
   -1.3856    3.0541    0.5789 H   0  0  0  0  0  0  0  0  0  0  0  0
    0.7530    4.2221    1.0092 H   0  0  0  0  0  0  0  0  0  0  0  0
    2.8916    3.0541    0.5789 H   0  0  0  0  0  0  0  0  0  0  0  0
    2.8884    0.7450   -0.2756 H   0  0  0  0  0  0  0  0  0  0  0  0
  1  2  3  0
  1  5  1  0
  2  3  1  0
  3  4  2  3
  3 19  1  0
  4  6  1  0
  4  7  1  0
  8  9  1  0
  8 16  1  0
  8 17  1  0
  8 18  1  0
  9 10  2  3
  9 20  1  0
 10 11  1  0
 10 15  1  0
 11 12  1  0
 11 21  1  0
 12 13  2  0
 12 22  1  0
 13 14  1  0
 13 23  1  0
 14 15  2  0
 14 24  1  0
 15 25  1  0
M  RAD  1  11   2
M  END
>  <reaction>  (7) 
rxn_1498

>  <mol_properties>  (7) 
{"1": {"label": "*0", "atom_type": "Cd"}, "2": {"label": "*1", "atom_type": "Cs"}, "8": {"label": "*3", "atom_type": "Cd"}, "10": {"label": "*4", "atom_type": "Ct"}, "21": {"label": "*2", "atom_type": "H0"}}

>  <type>  (7) 
unop_3

>  <geom_source>  (7) 
Heuristics

$$$$

     RDKit          3D

 25 24  0  0  0  0  0  0  0  0999 V2000
   -3.4604   -1.3059   -0.5564 C   0  0  0  0  0  0  0  0  0  0  0  0
   -2.4063   -1.7536   -0.1999 C   0  0  0  0  0  0  0  0  0  0  0  0
   -1.1405   -2.2757    0.1966 C   0  0  0  0  0  0  0  0  0  0  0  0
   -0.9221   -2.8944    1.3521 C   0  0  0  0  0  0  0  0  0  0  0  0
   -4.3950   -0.9091   -0.8725 H   0  0  0  0  0  0  0  0  0  0  0  0
   -1.7149   -3.0396    2.0747 H   0  0  0  0  0  0  0  0  0  0  0  0
    0.0613   -3.2710    1.6003 H   0  0  0  0  0  0  0  0  0  0  0  0
    0.9561   -0.9802   -2.2010 C   0  0  0  0  0  0  0  0  0  0  0  0
    0.9561   -0.9802   -0.6719 C   0  0  0  0  0  0  0  0  0  0  0  0
    0.9561    0.4141   -0.1025 C   0  0  0  0  0  0  0  0  0  0  0  0
   -0.2384    1.0830    0.1452 C   0  0  0  0  0  3  0  0  0  0  0  0
   -0.2417    2.3833    0.6262 C   0  0  0  0  0  0  0  0  0  0  0  0
    0.9561    3.0386    0.8680 C   0  0  0  0  0  0  0  0  0  0  0  0
    2.1539    2.3833    0.6262 C   0  0  0  0  0  0  0  0  0  0  0  0
    2.1507    1.0830    0.1452 C   0  0  0  0  0  0  0  0  0  0  0  0
    1.8374   -0.4651   -2.5879 H   0  0  0  0  0  0  0  0  0  0  0  0
    0.0749   -0.4651   -2.5879 H   0  0  0  0  0  0  0  0  0  0  0  0
    0.9561   -1.9986   -2.5934 H   0  0  0  0  0  0  0  0  0  0  0  0
   -0.0958   -1.6302   -0.2362 H   0  0  0  0  0  0  0  0  0  0  0  0
    1.8328   -1.5219   -0.3088 H   0  0  0  0  0  0  0  0  0  0  0  0
   -1.1793    0.5759   -0.0385 H   0  0  0  0  0  0  0  0  0  0  0  0
   -1.1825    2.8850    0.8161 H   0  0  0  0  0  0  0  0  0  0  0  0
    0.9561    4.0530    1.2463 H   0  0  0  0  0  0  0  0  0  0  0  0
    3.0947    2.8850    0.8161 H   0  0  0  0  0  0  0  0  0  0  0  0
    3.0916    0.5759   -0.0385 H   0  0  0  0  0  0  0  0  0  0  0  0
  1  2  3  0
  1  5  1  0
  2  3  1  0
  3  4  2  3
  3 19  1  0
  4  6  1  0
  4  7  1  0
  8  9  1  0
  8 16  1  0
  8 17  1  0
  8 18  1  0
  9 10  2  3
  9 20  1  0
 10 11  1  0
 10 15  1  0
 11 12  1  0
 11 21  1  0
 12 13  2  0
 12 22  1  0
 13 14  1  0
 13 23  1  0
 14 15  2  0
 14 24  1  0
 15 25  1  0
M  RAD  1  11   2
M  END
>  <reaction>  (8) 
rxn_1498

>  <mol_properties>  (8) 
{"1": {"label": "*0", "atom_type": "Cd"}, "2": {"label": "*1", "atom_type": "Cs"}, "8": {"label": "*3", "atom_type": "Cd"}, "10": {"label": "*4", "atom_type": "Ct"}, "21": {"label": "*2", "atom_type": "H0"}}

>  <type>  (8) 
unop_4

>  <geom_source>  (8) 
Heuristics

$$$$

     RDKit          3D

 25 24  0  0  0  0  0  0  0  0999 V2000
   -1.5365   -2.2869    2.5722 C   0  0  0  0  0  0  0  0  0  0  0  0
   -1.4420   -2.2285    1.3780 C   0  0  0  0  0  0  0  0  0  0  0  0
   -1.3028   -2.1425   -0.0381 C   0  0  0  0  0  0  0  0  0  0  0  0
   -2.1620   -2.6733   -0.9017 C   0  0  0  0  0  0  0  0  0  0  0  0
   -1.6203   -2.3386    3.6311 H   0  0  0  0  0  0  0  0  0  0  0  0
   -3.0379   -3.2146   -0.5679 H   0  0  0  0  0  0  0  0  0  0  0  0
   -2.0052   -2.5765   -1.9678 H   0  0  0  0  0  0  0  0  0  0  0  0
    0.7939   -0.8469   -2.4357 C   0  0  0  0  0  0  0  0  0  0  0  0
    0.7939   -0.8469   -0.9066 C   0  0  0  0  0  0  0  0  0  0  0  0
    0.7939    0.5474   -0.3372 C   0  0  0  0  0  0  0  0  0  0  0  0
   -0.4007    1.2163   -0.0895 C   0  0  0  0  0  3  0  0  0  0  0  0
   -0.4039    2.5165    0.3915 C   0  0  0  0  0  0  0  0  0  0  0  0
    0.7939    3.1719    0.6333 C   0  0  0  0  0  0  0  0  0  0  0  0
    1.9917    2.5165    0.3915 C   0  0  0  0  0  0  0  0  0  0  0  0
    1.9884    1.2163   -0.0895 C   0  0  0  0  0  0  0  0  0  0  0  0
    1.6751   -0.3319   -2.8226 H   0  0  0  0  0  0  0  0  0  0  0  0
   -0.0874   -0.3319   -2.8226 H   0  0  0  0  0  0  0  0  0  0  0  0
    0.7939   -1.8653   -2.8280 H   0  0  0  0  0  0  0  0  0  0  0  0
   -0.2581   -1.4969   -0.4709 H   0  0  0  0  0  0  0  0  0  0  0  0
    1.6705   -1.3886   -0.5435 H   0  0  0  0  0  0  0  0  0  0  0  0
   -1.3416    0.7091   -0.2732 H   0  0  0  0  0  0  0  0  0  0  0  0
   -1.3447    3.0182    0.5814 H   0  0  0  0  0  0  0  0  0  0  0  0
    0.7939    4.1862    1.0116 H   0  0  0  0  0  0  0  0  0  0  0  0
    2.9324    3.0182    0.5814 H   0  0  0  0  0  0  0  0  0  0  0  0
    2.9293    0.7091   -0.2732 H   0  0  0  0  0  0  0  0  0  0  0  0
  1  2  3  0
  1  5  1  0
  2  3  1  0
  3  4  2  3
  3 19  1  0
  4  6  1  0
  4  7  1  0
  8  9  1  0
  8 16  1  0
  8 17  1  0
  8 18  1  0
  9 10  2  3
  9 20  1  0
 10 11  1  0
 10 15  1  0
 11 12  1  0
 11 21  1  0
 12 13  2  0
 12 22  1  0
 13 14  1  0
 13 23  1  0
 14 15  2  0
 14 24  1  0
 15 25  1  0
M  RAD  1  11   2
M  END
>  <reaction>  (9) 
rxn_1498

>  <mol_properties>  (9) 
{"1": {"label": "*0", "atom_type": "Cd"}, "2": {"label": "*1", "atom_type": "Cs"}, "8": {"label": "*3", "atom_type": "Cd"}, "10": {"label": "*4", "atom_type": "Ct"}, "21": {"label": "*2", "atom_type": "H0"}}

>  <type>  (9) 
unop_5

>  <geom_source>  (9) 
Heuristics

$$$$

     RDKit          3D

 25 24  0  0  0  0  0  0  0  0999 V2000
   -3.3368   -0.8536    0.4473 C   0  0  0  0  0  0  0  0  0  0  0  0
   -2.3536   -1.5234    0.2951 C   0  0  0  0  0  0  0  0  0  0  0  0
   -1.1787   -2.3035    0.0874 C   0  0  0  0  0  0  0  0  0  0  0  0
   -0.7759   -3.2704    0.9051 C   0  0  0  0  0  0  0  0  0  0  0  0
   -4.2086   -0.2597    0.5824 H   0  0  0  0  0  0  0  0  0  0  0  0
   -1.3331   -3.5252    1.7975 H   0  0  0  0  0  0  0  0  0  0  0  0
    0.1259   -3.8306    0.6967 H   0  0  0  0  0  0  0  0  0  0  0  0
    0.9180   -1.0079   -2.3103 C   0  0  0  0  0  0  0  0  0  0  0  0
    0.9180   -1.0079   -0.7811 C   0  0  0  0  0  0  0  0  0  0  0  0
    0.9180    0.3863   -0.2117 C   0  0  0  0  0  0  0  0  0  0  0  0
   -0.2766    1.0553    0.0360 C   0  0  0  0  0  3  0  0  0  0  0  0
   -0.2798    2.3555    0.5169 C   0  0  0  0  0  0  0  0  0  0  0  0
    0.9180    3.0108    0.7587 C   0  0  0  0  0  0  0  0  0  0  0  0
    2.1158    2.3555    0.5169 C   0  0  0  0  0  0  0  0  0  0  0  0
    2.1125    1.0553    0.0360 C   0  0  0  0  0  0  0  0  0  0  0  0
    1.7992   -0.4929   -2.6971 H   0  0  0  0  0  0  0  0  0  0  0  0
    0.0367   -0.4929   -2.6971 H   0  0  0  0  0  0  0  0  0  0  0  0
    0.9180   -2.0264   -2.7026 H   0  0  0  0  0  0  0  0  0  0  0  0
   -0.1340   -1.6580   -0.3454 H   0  0  0  0  0  0  0  0  0  0  0  0
    1.7946   -1.5496   -0.4180 H   0  0  0  0  0  0  0  0  0  0  0  0
   -1.2175    0.5481   -0.1477 H   0  0  0  0  0  0  0  0  0  0  0  0
   -1.2206    2.8572    0.7068 H   0  0  0  0  0  0  0  0  0  0  0  0
    0.9180    4.0252    1.1371 H   0  0  0  0  0  0  0  0  0  0  0  0
    3.0566    2.8572    0.7068 H   0  0  0  0  0  0  0  0  0  0  0  0
    3.0534    0.5481   -0.1477 H   0  0  0  0  0  0  0  0  0  0  0  0
  1  2  3  0
  1  5  1  0
  2  3  1  0
  3  4  2  3
  3 19  1  0
  4  6  1  0
  4  7  1  0
  8  9  1  0
  8 16  1  0
  8 17  1  0
  8 18  1  0
  9 10  2  3
  9 20  1  0
 10 11  1  0
 10 15  1  0
 11 12  1  0
 11 21  1  0
 12 13  2  0
 12 22  1  0
 13 14  1  0
 13 23  1  0
 14 15  2  0
 14 24  1  0
 15 25  1  0
M  RAD  1  11   2
M  END
>  <reaction>  (10) 
rxn_1498

>  <mol_properties>  (10) 
{"1": {"label": "*0", "atom_type": "Cd"}, "2": {"label": "*1", "atom_type": "Cs"}, "8": {"label": "*3", "atom_type": "Cd"}, "10": {"label": "*4", "atom_type": "Ct"}, "21": {"label": "*2", "atom_type": "H0"}}

>  <type>  (10) 
unop_6

>  <geom_source>  (10) 
Heuristics

$$$$

     RDKit          3D

 25 24  0  0  0  0  0  0  0  0999 V2000
   -2.9001   -0.8751    1.4769 C   0  0  0  0  0  0  0  0  0  0  0  0
   -2.1424   -1.5235    0.8105 C   0  0  0  0  0  0  0  0  0  0  0  0
   -1.2389   -2.2694   -0.0014 C   0  0  0  0  0  0  0  0  0  0  0  0
   -0.8674   -3.5188    0.2573 C   0  0  0  0  0  0  0  0  0  0  0  0
   -3.5719   -0.3002    2.0678 H   0  0  0  0  0  0  0  0  0  0  0  0
   -1.2407   -4.0525    1.1218 H   0  0  0  0  0  0  0  0  0  0  0  0
   -0.1773   -4.0367   -0.3955 H   0  0  0  0  0  0  0  0  0  0  0  0
    0.8578   -0.9739   -2.3990 C   0  0  0  0  0  0  0  0  0  0  0  0
    0.8578   -0.9739   -0.8699 C   0  0  0  0  0  0  0  0  0  0  0  0
    0.8578    0.4204   -0.3005 C   0  0  0  0  0  0  0  0  0  0  0  0
   -0.3367    1.0893   -0.0528 C   0  0  0  0  0  3  0  0  0  0  0  0
   -0.3400    2.3895    0.4282 C   0  0  0  0  0  0  0  0  0  0  0  0
    0.8578    3.0449    0.6700 C   0  0  0  0  0  0  0  0  0  0  0  0
    2.0556    2.3895    0.4282 C   0  0  0  0  0  0  0  0  0  0  0  0
    2.0523    1.0893   -0.0528 C   0  0  0  0  0  0  0  0  0  0  0  0
    1.7391   -0.4589   -2.7859 H   0  0  0  0  0  0  0  0  0  0  0  0
   -0.0235   -0.4589   -2.7859 H   0  0  0  0  0  0  0  0  0  0  0  0
    0.8578   -1.9923   -2.7913 H   0  0  0  0  0  0  0  0  0  0  0  0
   -0.1942   -1.6239   -0.4342 H   0  0  0  0  0  0  0  0  0  0  0  0
    1.7344   -1.5156   -0.5068 H   0  0  0  0  0  0  0  0  0  0  0  0
   -1.2776    0.5821   -0.2365 H   0  0  0  0  0  0  0  0  0  0  0  0
   -1.2808    2.8912    0.6181 H   0  0  0  0  0  0  0  0  0  0  0  0
    0.8578    4.0592    1.0483 H   0  0  0  0  0  0  0  0  0  0  0  0
    2.9964    2.8912    0.6181 H   0  0  0  0  0  0  0  0  0  0  0  0
    2.9932    0.5821   -0.2365 H   0  0  0  0  0  0  0  0  0  0  0  0
  1  2  3  0
  1  5  1  0
  2  3  1  0
  3  4  2  3
  3 19  1  0
  4  6  1  0
  4  7  1  0
  8  9  1  0
  8 16  1  0
  8 17  1  0
  8 18  1  0
  9 10  2  3
  9 20  1  0
 10 11  1  0
 10 15  1  0
 11 12  1  0
 11 21  1  0
 12 13  2  0
 12 22  1  0
 13 14  1  0
 13 23  1  0
 14 15  2  0
 14 24  1  0
 15 25  1  0
M  RAD  1  11   2
M  END
>  <reaction>  (11) 
rxn_1498

>  <mol_properties>  (11) 
{"1": {"label": "*0", "atom_type": "Cd"}, "2": {"label": "*1", "atom_type": "Cs"}, "8": {"label": "*3", "atom_type": "Cd"}, "10": {"label": "*4", "atom_type": "Ct"}, "21": {"label": "*2", "atom_type": "H0"}}

>  <type>  (11) 
unop_7

>  <geom_source>  (11) 
Heuristics

$$$$

     RDKit          3D

 25 24  0  0  0  0  0  0  0  0999 V2000
   -1.0601   -4.5382    0.4473 C   0  0  0  0  0  0  0  0  0  0  0  0
   -1.2193   -3.3592    0.2951 C   0  0  0  0  0  0  0  0  0  0  0  0
   -1.3913   -1.9594    0.0874 C   0  0  0  0  0  0  0  0  0  0  0  0
   -2.0758   -1.1667    0.9051 C   0  0  0  0  0  0  0  0  0  0  0  0
   -0.9190   -5.5836    0.5824 H   0  0  0  0  0  0  0  0  0  0  0  0
   -2.5530   -1.5509    1.7975 H   0  0  0  0  0  0  0  0  0  0  0  0
   -2.1735   -0.1095    0.6967 H   0  0  0  0  0  0  0  0  0  0  0  0
    0.7054   -0.6639   -2.3103 C   0  0  0  0  0  0  0  0  0  0  0  0
    0.7054   -0.6639   -0.7811 C   0  0  0  0  0  0  0  0  0  0  0  0
    0.7054    0.7304   -0.2117 C   0  0  0  0  0  0  0  0  0  0  0  0
   -0.4892    1.3993    0.0360 C   0  0  0  0  0  3  0  0  0  0  0  0
   -0.4924    2.6995    0.5169 C   0  0  0  0  0  0  0  0  0  0  0  0
    0.7054    3.3549    0.7587 C   0  0  0  0  0  0  0  0  0  0  0  0
    1.9032    2.6995    0.5169 C   0  0  0  0  0  0  0  0  0  0  0  0
    1.8999    1.3993    0.0360 C   0  0  0  0  0  0  0  0  0  0  0  0
    1.5866   -0.1488   -2.6971 H   0  0  0  0  0  0  0  0  0  0  0  0
   -0.1759   -0.1488   -2.6971 H   0  0  0  0  0  0  0  0  0  0  0  0
    0.7054   -1.6823   -2.7026 H   0  0  0  0  0  0  0  0  0  0  0  0
   -0.3466   -1.3139   -0.3454 H   0  0  0  0  0  0  0  0  0  0  0  0
    1.5820   -1.2056   -0.4180 H   0  0  0  0  0  0  0  0  0  0  0  0
   -1.4301    0.8922   -0.1477 H   0  0  0  0  0  0  0  0  0  0  0  0
   -1.4332    3.2012    0.7068 H   0  0  0  0  0  0  0  0  0  0  0  0
    0.7054    4.3692    1.1371 H   0  0  0  0  0  0  0  0  0  0  0  0
    2.8440    3.2012    0.7068 H   0  0  0  0  0  0  0  0  0  0  0  0
    2.8408    0.8922   -0.1477 H   0  0  0  0  0  0  0  0  0  0  0  0
  1  2  3  0
  1  5  1  0
  2  3  1  0
  3  4  2  3
  3 19  1  0
  4  6  1  0
  4  7  1  0
  8  9  1  0
  8 16  1  0
  8 17  1  0
  8 18  1  0
  9 10  2  3
  9 20  1  0
 10 11  1  0
 10 15  1  0
 11 12  1  0
 11 21  1  0
 12 13  2  0
 12 22  1  0
 13 14  1  0
 13 23  1  0
 14 15  2  0
 14 24  1  0
 15 25  1  0
M  RAD  1  11   2
M  END
>  <reaction>  (12) 
rxn_1498

>  <mol_properties>  (12) 
{"1": {"label": "*0", "atom_type": "Cd"}, "2": {"label": "*1", "atom_type": "Cs"}, "8": {"label": "*3", "atom_type": "Cd"}, "10": {"label": "*4", "atom_type": "Ct"}, "21": {"label": "*2", "atom_type": "H0"}}

>  <type>  (12) 
unop_8

>  <geom_source>  (12) 
Heuristics

$$$$

     RDKit          3D

 25 24  0  0  0  0  0  0  0  0999 V2000
   -3.2496   -2.1064   -1.2775 C   0  0  0  0  0  0  0  0  0  0  0  0
   -2.2959   -2.1488   -0.5514 C   0  0  0  0  0  0  0  0  0  0  0  0
   -1.1440   -2.1900    0.2874 C   0  0  0  0  0  0  0  0  0  0  0  0
   -1.1738   -2.5262    1.5726 C   0  0  0  0  0  0  0  0  0  0  0  0
   -4.0952   -2.0689   -1.9213 H   0  0  0  0  0  0  0  0  0  0  0  0
   -2.0993   -2.7941    2.0660 H   0  0  0  0  0  0  0  0  0  0  0  0
   -0.2663   -2.5401    2.1616 H   0  0  0  0  0  0  0  0  0  0  0  0
    0.9526   -0.8945   -2.1102 C   0  0  0  0  0  0  0  0  0  0  0  0
    0.9526   -0.8945   -0.5811 C   0  0  0  0  0  0  0  0  0  0  0  0
    0.9526    0.4998   -0.0117 C   0  0  0  0  0  0  0  0  0  0  0  0
   -0.2419    1.1687    0.2360 C   0  0  0  0  0  3  0  0  0  0  0  0
   -0.2452    2.4689    0.7170 C   0  0  0  0  0  0  0  0  0  0  0  0
    0.9526    3.1243    0.9588 C   0  0  0  0  0  0  0  0  0  0  0  0
    2.1504    2.4689    0.7170 C   0  0  0  0  0  0  0  0  0  0  0  0
    2.1471    1.1687    0.2360 C   0  0  0  0  0  0  0  0  0  0  0  0
    1.8339   -0.3795   -2.4970 H   0  0  0  0  0  0  0  0  0  0  0  0
    0.0713   -0.3795   -2.4970 H   0  0  0  0  0  0  0  0  0  0  0  0
    0.9526   -1.9129   -2.5025 H   0  0  0  0  0  0  0  0  0  0  0  0
   -0.0994   -1.5445   -0.1453 H   0  0  0  0  0  0  0  0  0  0  0  0
    1.8292   -1.4362   -0.2180 H   0  0  0  0  0  0  0  0  0  0  0  0
   -1.1828    0.6615    0.0523 H   0  0  0  0  0  0  0  0  0  0  0  0
   -1.1860    2.9706    0.9069 H   0  0  0  0  0  0  0  0  0  0  0  0
    0.9526    4.1386    1.3371 H   0  0  0  0  0  0  0  0  0  0  0  0
    3.0912    2.9706    0.9069 H   0  0  0  0  0  0  0  0  0  0  0  0
    3.0880    0.6615    0.0523 H   0  0  0  0  0  0  0  0  0  0  0  0
  1  2  3  0
  1  5  1  0
  2  3  1  0
  3  4  2  3
  3 19  1  0
  4  6  1  0
  4  7  1  0
  8  9  1  0
  8 16  1  0
  8 17  1  0
  8 18  1  0
  9 10  2  3
  9 20  1  0
 10 11  1  0
 10 15  1  0
 11 12  1  0
 11 21  1  0
 12 13  2  0
 12 22  1  0
 13 14  1  0
 13 23  1  0
 14 15  2  0
 14 24  1  0
 15 25  1  0
M  RAD  1  11   2
M  END
>  <reaction>  (13) 
rxn_1498

>  <mol_properties>  (13) 
{"1": {"label": "*0", "atom_type": "Cd"}, "2": {"label": "*1", "atom_type": "Cs"}, "8": {"label": "*3", "atom_type": "Cd"}, "10": {"label": "*4", "atom_type": "Ct"}, "21": {"label": "*2", "atom_type": "H0"}}

>  <type>  (13) 
unop_9

>  <geom_source>  (13) 
Heuristics

$$$$

     RDKit          3D

 25 24  0  0  0  0  0  0  0  0999 V2000
   -1.5199   -4.4463   -0.5564 C   0  0  0  0  0  0  0  0  0  0  0  0
   -1.4487   -3.3034   -0.1999 C   0  0  0  0  0  0  0  0  0  0  0  0
   -1.3494   -1.9377    0.1966 C   0  0  0  0  0  0  0  0  0  0  0  0
   -1.8050   -1.4656    1.3521 C   0  0  0  0  0  0  0  0  0  0  0  0
   -1.5831   -5.4598   -0.8725 H   0  0  0  0  0  0  0  0  0  0  0  0
   -2.2895   -2.1097    2.0747 H   0  0  0  0  0  0  0  0  0  0  0  0
   -1.7018   -0.4176    1.6003 H   0  0  0  0  0  0  0  0  0  0  0  0
    0.7473   -0.6422   -2.2010 C   0  0  0  0  0  0  0  0  0  0  0  0
    0.7473   -0.6422   -0.6719 C   0  0  0  0  0  0  0  0  0  0  0  0
    0.7473    0.7521   -0.1025 C   0  0  0  0  0  0  0  0  0  0  0  0
   -0.4472    1.4210    0.1452 C   0  0  0  0  0  3  0  0  0  0  0  0
   -0.4505    2.7213    0.6262 C   0  0  0  0  0  0  0  0  0  0  0  0
    0.7473    3.3766    0.8680 C   0  0  0  0  0  0  0  0  0  0  0  0
    1.9451    2.7213    0.6262 C   0  0  0  0  0  0  0  0  0  0  0  0
    1.9418    1.4210    0.1452 C   0  0  0  0  0  0  0  0  0  0  0  0
    1.6286   -0.1271   -2.5879 H   0  0  0  0  0  0  0  0  0  0  0  0
   -0.1340   -0.1271   -2.5879 H   0  0  0  0  0  0  0  0  0  0  0  0
    0.7473   -1.6606   -2.5934 H   0  0  0  0  0  0  0  0  0  0  0  0
   -0.3047   -1.2922   -0.2362 H   0  0  0  0  0  0  0  0  0  0  0  0
    1.6239   -1.1839   -0.3088 H   0  0  0  0  0  0  0  0  0  0  0  0
   -1.3881    0.9139   -0.0385 H   0  0  0  0  0  0  0  0  0  0  0  0
   -1.3913    3.2230    0.8161 H   0  0  0  0  0  0  0  0  0  0  0  0
    0.7473    4.3910    1.2463 H   0  0  0  0  0  0  0  0  0  0  0  0
    2.8859    3.2230    0.8161 H   0  0  0  0  0  0  0  0  0  0  0  0
    2.8827    0.9139   -0.0385 H   0  0  0  0  0  0  0  0  0  0  0  0
  1  2  3  0
  1  5  1  0
  2  3  1  0
  3  4  2  3
  3 19  1  0
  4  6  1  0
  4  7  1  0
  8  9  1  0
  8 16  1  0
  8 17  1  0
  8 18  1  0
  9 10  2  3
  9 20  1  0
 10 11  1  0
 10 15  1  0
 11 12  1  0
 11 21  1  0
 12 13  2  0
 12 22  1  0
 13 14  1  0
 13 23  1  0
 14 15  2  0
 14 24  1  0
 15 25  1  0
M  RAD  1  11   2
M  END
>  <reaction>  (14) 
rxn_1498

>  <mol_properties>  (14) 
{"1": {"label": "*0", "atom_type": "Cd"}, "2": {"label": "*1", "atom_type": "Cs"}, "8": {"label": "*3", "atom_type": "Cd"}, "10": {"label": "*4", "atom_type": "Ct"}, "21": {"label": "*2", "atom_type": "H0"}}

>  <type>  (14) 
unop_10

>  <geom_source>  (14) 
Heuristics

$$$$

     RDKit          3D

 25 24  0  0  0  0  0  0  0  0999 V2000
   -2.2470   -1.3802    2.2633 C   0  0  0  0  0  0  0  0  0  0  0  0
   -1.8134   -1.7661    1.2137 C   0  0  0  0  0  0  0  0  0  0  0  0
   -1.2890   -2.1951   -0.0405 C   0  0  0  0  0  0  0  0  0  0  0  0
   -1.3290   -3.4517   -0.4707 C   0  0  0  0  0  0  0  0  0  0  0  0
   -2.6314   -1.0381    3.1939 H   0  0  0  0  0  0  0  0  0  0  0  0
   -1.7740   -4.2392    0.1238 H   0  0  0  0  0  0  0  0  0  0  0  0
   -0.9143   -3.7199   -1.4334 H   0  0  0  0  0  0  0  0  0  0  0  0
    0.8077   -0.8995   -2.4382 C   0  0  0  0  0  0  0  0  0  0  0  0
    0.8077   -0.8995   -0.9091 C   0  0  0  0  0  0  0  0  0  0  0  0
    0.8077    0.4947   -0.3396 C   0  0  0  0  0  0  0  0  0  0  0  0
   -0.3868    1.1637   -0.0919 C   0  0  0  0  0  3  0  0  0  0  0  0
   -0.3901    2.4639    0.3890 C   0  0  0  0  0  0  0  0  0  0  0  0
    0.8077    3.1192    0.6308 C   0  0  0  0  0  0  0  0  0  0  0  0
    2.0055    2.4639    0.3890 C   0  0  0  0  0  0  0  0  0  0  0  0
    2.0022    1.1637   -0.0919 C   0  0  0  0  0  0  0  0  0  0  0  0
    1.6890   -0.3845   -2.8250 H   0  0  0  0  0  0  0  0  0  0  0  0
   -0.0736   -0.3845   -2.8250 H   0  0  0  0  0  0  0  0  0  0  0  0
    0.8077   -1.9180   -2.8305 H   0  0  0  0  0  0  0  0  0  0  0  0
   -0.2443   -1.5496   -0.4733 H   0  0  0  0  0  0  0  0  0  0  0  0
    1.6843   -1.4412   -0.5459 H   0  0  0  0  0  0  0  0  0  0  0  0
   -1.3277    0.6565   -0.2756 H   0  0  0  0  0  0  0  0  0  0  0  0
   -1.3309    2.9656    0.5789 H   0  0  0  0  0  0  0  0  0  0  0  0
    0.8077    4.1336    1.0092 H   0  0  0  0  0  0  0  0  0  0  0  0
    2.9463    2.9656    0.5789 H   0  0  0  0  0  0  0  0  0  0  0  0
    2.9431    0.6565   -0.2756 H   0  0  0  0  0  0  0  0  0  0  0  0
  1  2  3  0
  1  5  1  0
  2  3  1  0
  3  4  2  3
  3 19  1  0
  4  6  1  0
  4  7  1  0
  8  9  1  0
  8 16  1  0
  8 17  1  0
  8 18  1  0
  9 10  2  3
  9 20  1  0
 10 11  1  0
 10 15  1  0
 11 12  1  0
 11 21  1  0
 12 13  2  0
 12 22  1  0
 13 14  1  0
 13 23  1  0
 14 15  2  0
 14 24  1  0
 15 25  1  0
M  RAD  1  11   2
M  END
>  <reaction>  (15) 
rxn_1498

>  <mol_properties>  (15) 
{"1": {"label": "*0", "atom_type": "Cd"}, "2": {"label": "*1", "atom_type": "Cs"}, "8": {"label": "*3", "atom_type": "Cd"}, "10": {"label": "*4", "atom_type": "Ct"}, "21": {"label": "*2", "atom_type": "H0"}}

>  <type>  (15) 
unop_11

>  <geom_source>  (15) 
Heuristics

$$$$

     RDKit          3D

 25 24  0  0  0  0  0  0  0  0999 V2000
   -2.7687   -3.0483   -1.5383 C   0  0  0  0  0  0  0  0  0  0  0  0
   -2.0582   -2.6092   -0.6775 C   0  0  0  0  0  0  0  0  0  0  0  0
   -1.1945   -2.0755    0.3231 C   0  0  0  0  0  0  0  0  0  0  0  0
   -1.4033   -2.2046    1.6291 C   0  0  0  0  0  0  0  0  0  0  0  0
   -3.3987   -3.4376   -2.3015 H   0  0  0  0  0  0  0  0  0  0  0  0
   -2.2638   -2.7363    2.0146 H   0  0  0  0  0  0  0  0  0  0  0  0
   -0.7126   -1.7778    2.3442 H   0  0  0  0  0  0  0  0  0  0  0  0
    0.9021   -0.7800   -2.0745 C   0  0  0  0  0  0  0  0  0  0  0  0
    0.9021   -0.7800   -0.5454 C   0  0  0  0  0  0  0  0  0  0  0  0
    0.9021    0.6143    0.0240 C   0  0  0  0  0  0  0  0  0  0  0  0
   -0.2924    1.2832    0.2718 C   0  0  0  0  0  3  0  0  0  0  0  0
   -0.2957    2.5834    0.7527 C   0  0  0  0  0  0  0  0  0  0  0  0
    0.9021    3.2388    0.9945 C   0  0  0  0  0  0  0  0  0  0  0  0
    2.1000    2.5834    0.7527 C   0  0  0  0  0  0  0  0  0  0  0  0
    2.0967    1.2832    0.2718 C   0  0  0  0  0  0  0  0  0  0  0  0
    1.7834   -0.2650   -2.4613 H   0  0  0  0  0  0  0  0  0  0  0  0
    0.0209   -0.2650   -2.4613 H   0  0  0  0  0  0  0  0  0  0  0  0
    0.9021   -1.7984   -2.4668 H   0  0  0  0  0  0  0  0  0  0  0  0
   -0.1498   -1.4300   -0.1096 H   0  0  0  0  0  0  0  0  0  0  0  0
    1.7788   -1.3217   -0.1822 H   0  0  0  0  0  0  0  0  0  0  0  0
   -1.2333    0.7760    0.0880 H   0  0  0  0  0  0  0  0  0  0  0  0
   -1.2364    3.0851    0.9426 H   0  0  0  0  0  0  0  0  0  0  0  0
    0.9021    4.2531    1.3729 H   0  0  0  0  0  0  0  0  0  0  0  0
    3.0407    3.0851    0.9426 H   0  0  0  0  0  0  0  0  0  0  0  0
    3.0376    0.7760    0.0880 H   0  0  0  0  0  0  0  0  0  0  0  0
  1  2  3  0
  1  5  1  0
  2  3  1  0
  3  4  2  3
  3 19  1  0
  4  6  1  0
  4  7  1  0
  8  9  1  0
  8 16  1  0
  8 17  1  0
  8 18  1  0
  9 10  2  3
  9 20  1  0
 10 11  1  0
 10 15  1  0
 11 12  1  0
 11 21  1  0
 12 13  2  0
 12 22  1  0
 13 14  1  0
 13 23  1  0
 14 15  2  0
 14 24  1  0
 15 25  1  0
M  RAD  1  11   2
M  END
>  <reaction>  (16) 
rxn_1498

>  <mol_properties>  (16) 
{"1": {"label": "*0", "atom_type": "Cd"}, "2": {"label": "*1", "atom_type": "Cs"}, "8": {"label": "*3", "atom_type": "Cd"}, "10": {"label": "*4", "atom_type": "Ct"}, "21": {"label": "*2", "atom_type": "H0"}}

>  <type>  (16) 
unop_12

>  <geom_source>  (16) 
Heuristics

$$$$

     RDKit          3D

 25 24  0  0  0  0  0  0  0  0999 V2000
    0.3667   -2.1261   -0.7934 C   0  0  0  0  0  0  0  0  0  0  0  0
   -1.0235   -0.1744   -0.0949 C   0  0  0  0  0  0  0  0  0  0  0  0
    0.3644   -0.7349   -0.1734 C   0  0  0  0  0  0  0  0  0  0  0  0
   -1.7435   -0.2701    1.1043 C   0  0  0  0  0  3  0  0  0  0  0  0
   -1.6224    0.4175   -1.2187 C   0  0  0  0  0  0  0  0  0  0  0  0
   -3.0466    0.2322    1.1828 C   0  0  0  0  0  0  0  0  0  0  0  0
   -3.6368    0.8269    0.0636 C   0  0  0  0  0  0  0  0  0  0  0  0
   -2.9255    0.9186   -1.1366 C   0  0  0  0  0  0  0  0  0  0  0  0
    2.4859    0.5160    0.7025 C   0  0  0  0  0  0  0  0  0  0  0  0
    2.8820    0.4331    1.9672 C   0  0  0  0  0  0  0  0  0  0  0  0
    3.3898    0.9547   -0.3263 C   0  0  0  0  0  0  0  0  0  0  0  0
    4.1468    1.3223   -1.1895 C   0  0  0  0  0  0  0  0  0  0  0  0
   -0.0080   -2.0849   -1.8384 H   0  0  0  0  0  0  0  0  0  0  0  0
    1.4030   -2.5232   -0.7989 H   0  0  0  0  0  0  0  0  0  0  0  0
   -0.2731   -2.8107   -0.1973 H   0  0  0  0  0  0  0  0  0  0  0  0
    1.0327   -0.0541   -0.7439 H   0  0  0  0  0  0  0  0  0  0  0  0
   -1.2963   -0.7330    1.9754 H   0  0  0  0  0  0  0  0  0  0  0  0
   -3.5993    0.1588    2.1105 H   0  0  0  0  0  0  0  0  0  0  0  0
   -1.0812    0.4890   -2.1541 H   0  0  0  0  0  0  0  0  0  0  0  0
   -4.6455    1.2145    0.1256 H   0  0  0  0  0  0  0  0  0  0  0  0
   -3.3845    1.3763   -2.0035 H   0  0  0  0  0  0  0  0  0  0  0  0
    1.3222    0.2121    0.3999 H   0  0  0  0  0  0  0  0  0  0  0  0
    3.8934    0.6931    2.2562 H   0  0  0  0  0  0  0  0  0  0  0  0
    2.1879    0.1010    2.7277 H   0  0  0  0  0  0  0  0  0  0  0  0
    4.8114    1.6450   -1.9473 H   0  0  0  0  0  0  0  0  0  0  0  0
  1  3  1  0
  1 13  1  0
  1 14  1  0
  1 15  1  0
  2  3  2  3
  2  4  1  0
  2  5  1  0
  3 16  1  0
  4  6  1  0
  4 17  1  0
  5  8  2  0
  5 19  1  0
  6  7  2  0
  6 18  1  0
  7  8  1  0
  7 20  1  0
  8 21  1  0
  9 10  2  3
  9 11  1  0
  9 22  1  0
 10 23  1  0
 10 24  1  0
 11 12  3  0
 12 25  1  0
M  RAD  1   4   2
M  END
>  <reaction>  (17) 
rxn_1498

>  <mol_properties>  (17) 
{"1": {"label": "*0", "atom_type": "Cd"}, "2": {"label": "*1", "atom_type": "Cs"}, "8": {"label": "*3", "atom_type": "Cd"}, "10": {"label": "*4", "atom_type": "Ct"}, "21": {"label": "*2", "atom_type": "H0"}}

>  <type>  (17) 
unop_13

>  <geom_source>  (17) 
AutoTST

$$$$
