
     RDKit          3D

 10  9  0  0  0  0  0  0  0  0999 V2000
    1.8334    0.0847   -0.1062 C   0  0  0  0  0  0  0  0  0  0  0  0
    0.5993   -0.4071   -0.0750 C   0  0  0  0  0  0  0  0  0  0  0  0
   -0.5993    0.4071    0.0750 C   0  0  0  0  0  0  0  0  0  0  0  0
   -1.8334   -0.0847    0.1062 C   0  0  0  0  0  0  0  0  0  0  0  0
    2.0179    1.1498   -0.0189 H   0  0  0  0  0  0  0  0  0  0  0  0
    2.6972   -0.5572   -0.2194 H   0  0  0  0  0  0  0  0  0  0  0  0
    0.4465   -1.4793   -0.1649 H   0  0  0  0  0  0  0  0  0  0  0  0
   -0.4465    1.4793    0.1649 H   0  0  0  0  0  0  0  0  0  0  0  0
   -2.0179   -1.1498    0.0189 H   0  0  0  0  0  0  0  0  0  0  0  0
   -2.6972    0.5572    0.2194 H   0  0  0  0  0  0  0  0  0  0  0  0
  1  2  2  3
  1  5  1  0
  1  6  1  0
  2  3  1  0
  2  7  1  0
  3  4  2  3
  3  8  1  0
  4  9  1  0
  4 10  1  0
M  END
>  <reaction>  (1) 
rxn_1668

>  <mol_properties>  (1) 
{"2": {"label": "donator", "atom_type": "Cd"}, "7": {"label": "d_hydrogen", "atom_type": "H0"}}

>  <type>  (1) 
r1h

$$$$

     RDKit          3D

  5  4  0  0  0  0  0  0  0  0999 V2000
   -0.5642    0.0794    0.0348 C   0  0  0  0  0  3  0  0  0  0  0  0
    1.0624    0.5420    0.2853 S   0  0  0  0  0  0  0  0  0  0  0  0
   -1.3257    0.7631    0.3741 H   0  0  0  0  0  0  0  0  0  0  0  0
   -0.8236   -0.8519   -0.4401 H   0  0  0  0  0  0  0  0  0  0  0  0
    1.6511   -0.5325   -0.2540 H   0  0  0  0  0  0  0  0  0  0  0  0
  1  2  1  0
  1  3  1  0
  1  4  1  0
  2  5  1  0
M  RAD  1   1   2
M  END
>  <reaction>  (2) 
rxn_1668

>  <mol_properties>  (2) 
{"0": {"label": "acceptor", "atom_type": "Cs"}}

>  <type>  (2) 
r2

$$$$

     RDKit          3D

  6  5  0  0  0  0  0  0  0  0999 V2000
   -0.5072   -0.0291   -0.0097 C   0  0  0  0  0  0  0  0  0  0  0  0
    1.1321   -0.1527   -0.7687 S   0  0  0  0  0  0  0  0  0  0  0  0
   -0.6174   -0.7330    0.8127 H   0  0  0  0  0  0  0  0  0  0  0  0
   -0.5863    0.9827    0.3845 H   0  0  0  0  0  0  0  0  0  0  0  0
   -1.2962   -0.1800   -0.7434 H   0  0  0  0  0  0  0  0  0  0  0  0
    1.0312   -1.4237   -1.1764 H   0  0  0  0  0  0  0  0  0  0  0  0
  1  2  1  0
  1  3  1  0
  1  4  1  0
  1  5  1  0
  2  6  1  0
M  END
>  <reaction>  (3) 
rxn_1668

>  <mol_properties>  (3) 
{"0": {"label": "acceptor", "atom_type": "Cs"}, "5": {"label": "a_hydrogen", "atom_type": "H0"}}

>  <type>  (3) 
r2h

$$$$

     RDKit          3D

 15 13  0  0  0  0  0  0  0  0999 V2000
    0.4471    1.3265   -0.5238 C   0  0  0  0  0  0  0  0  0  0  0  0
   -0.4592    2.5099    0.4430 S   0  0  0  0  0  0  0  0  0  0  0  0
    1.4935    1.6215   -0.5570 H   0  0  0  0  0  0  0  0  0  0  0  0
    0.0418    1.1703   -1.5210 H   0  0  0  0  0  0  0  0  0  0  0  0
   -1.6752    1.9793    0.2597 H   0  0  0  0  0  0  0  0  0  0  0  0
    1.2199   -2.2170   -1.2217 C   0  0  0  0  0  0  0  0  0  0  0  0
    0.7758   -2.2165    0.0313 C   0  0  0  0  0  0  0  0  0  0  0  0
    0.3740   -1.0350    0.7610 C   0  0  0  0  0  3  0  0  0  0  0  0
   -0.0591   -0.9019    1.9989 C   0  0  0  0  0  0  0  0  0  0  0  0
    1.3098   -1.2979   -1.7887 H   0  0  0  0  0  0  0  0  0  0  0  0
    1.5085   -3.1346   -1.7168 H   0  0  0  0  0  0  0  0  0  0  0  0
    0.7005   -3.1605    0.5715 H   0  0  0  0  0  0  0  0  0  0  0  0
    0.4347    0.1855    0.0498 H   0  0  0  0  0  0  0  0  0  0  0  0
   -0.1682   -1.7600    2.6605 H   0  0  0  0  0  0  0  0  0  0  0  0
   -0.3193    0.0704    2.4041 H   0  0  0  0  0  0  0  0  0  0  0  0
  1  2  1  0
  1  3  1  0
  1  4  1  0
  1 13  1  0
  2  5  1  0
  6  7  2  3
  6 10  1  0
  6 11  1  0
  7  8  1  0
  7 12  1  0
  8  9  2  3
  9 14  1  0
  9 15  1  0
M  RAD  1   8   2
M  END
>  <reaction>  (4) 
rxn_1668

>  <mol_properties>  (4) 
{"0": {"label": "*1", "atom_type": "Cs"}, "1": {"label": "*0", "atom_type": "S2s"}, "6": {"label": "*4", "atom_type": "Cd"}, "7": {"label": "*3", "atom_type": "Cd"}, "12": {"label": "*2", "atom_type": "H0"}}

>  <type>  (4) 
ts

$$$$

     RDKit          3D

 15 13  0  0  0  0  0  0  0  0999 V2000
    0.4719    1.2096   -0.5913 C   0  0  0  0  0  3  0  0  0  0  0  0
   -0.9884    2.1997   -0.1840 S   0  0  0  0  0  0  0  0  0  0  0  0
    1.1631    1.3269    0.2417 H   0  0  0  0  0  0  0  0  0  0  0  0
    0.9545    1.5691   -1.4978 H   0  0  0  0  0  0  0  0  0  0  0  0
   -1.6875    1.9290   -1.2930 H   0  0  0  0  0  0  0  0  0  0  0  0
    0.4719   -2.2670   -1.4468 C   0  0  0  0  0  0  0  0  0  0  0  0
    0.4719   -2.2670   -0.1179 C   0  0  0  0  0  0  0  0  0  0  0  0
    0.4719   -1.0596    0.6973 C   0  0  0  0  0  0  0  0  0  0  0  0
    0.4719   -1.0596    2.0262 C   0  0  0  0  0  0  0  0  0  0  0  0
    0.4719   -1.3404   -2.0103 H   0  0  0  0  0  0  0  0  0  0  0  0
    0.4719   -3.1885   -2.0140 H   0  0  0  0  0  0  0  0  0  0  0  0
    0.4719   -3.2119    0.4187 H   0  0  0  0  0  0  0  0  0  0  0  0
    0.4719    0.0743    0.0534 H   0  0  0  0  0  0  0  0  0  0  0  0
    0.4719   -1.9862    2.5897 H   0  0  0  0  0  0  0  0  0  0  0  0
    0.4719   -0.1381    2.5934 H   0  0  0  0  0  0  0  0  0  0  0  0
  1  2  1  0
  1  3  1  0
  1  4  1  0
  2  5  1  0
  6  7  2  3
  6 10  1  0
  6 11  1  0
  7  8  1  0
  7 12  1  0
  8  9  2  3
  8 13  1  0
  9 14  1  0
  9 15  1  0
M  RAD  1   1   2
M  END
>  <reaction>  (5) 
rxn_1668

>  <mol_properties>  (5) 
{"0": {"label": "*1", "atom_type": "Cs"}, "1": {"label": "*0", "atom_type": "S2s"}, "6": {"label": "*4", "atom_type": "Cd"}, "7": {"label": "*3", "atom_type": "Cd"}, "12": {"label": "*2", "atom_type": "H0"}}

>  <type>  (5) 
unop_1

>  <geom_source>  (5) 
Heuristics

$$$$

     RDKit          3D

 15 13  0  0  0  0  0  0  0  0999 V2000
    0.2635    1.5775    0.0512 C   0  0  0  0  0  3  0  0  0  0  0  0
   -0.5796    1.4302   -1.5444 S   0  0  0  0  0  0  0  0  0  0  0  0
   -0.4513    2.0341    0.7339 H   0  0  0  0  0  0  0  0  0  0  0  0
    1.1375    2.2216   -0.0201 H   0  0  0  0  0  0  0  0  0  0  0  0
    0.4326    0.8680   -2.2161 H   0  0  0  0  0  0  0  0  0  0  0  0
    0.2635   -1.8990   -0.8043 C   0  0  0  0  0  0  0  0  0  0  0  0
    0.2635   -1.8990    0.5246 C   0  0  0  0  0  0  0  0  0  0  0  0
    0.2635   -0.6917    1.3399 C   0  0  0  0  0  0  0  0  0  0  0  0
    0.2635   -0.6917    2.6688 C   0  0  0  0  0  0  0  0  0  0  0  0
    0.2635   -0.9724   -1.3677 H   0  0  0  0  0  0  0  0  0  0  0  0
    0.2635   -2.8206   -1.3715 H   0  0  0  0  0  0  0  0  0  0  0  0
    0.2635   -2.8440    1.0612 H   0  0  0  0  0  0  0  0  0  0  0  0
    0.2635    0.4422    0.6959 H   0  0  0  0  0  0  0  0  0  0  0  0
    0.2635   -1.6183    3.2322 H   0  0  0  0  0  0  0  0  0  0  0  0
    0.2635    0.2298    3.2360 H   0  0  0  0  0  0  0  0  0  0  0  0
  1  2  1  0
  1  3  1  0
  1  4  1  0
  2  5  1  0
  6  7  2  3
  6 10  1  0
  6 11  1  0
  7  8  1  0
  7 12  1  0
  8  9  2  3
  8 13  1  0
  9 14  1  0
  9 15  1  0
M  RAD  1   1   2
M  END
>  <reaction>  (6) 
rxn_1668

>  <mol_properties>  (6) 
{"0": {"label": "*1", "atom_type": "Cs"}, "1": {"label": "*0", "atom_type": "S2s"}, "6": {"label": "*4", "atom_type": "Cd"}, "7": {"label": "*3", "atom_type": "Cd"}, "12": {"label": "*2", "atom_type": "H0"}}

>  <type>  (6) 
unop_2

>  <geom_source>  (6) 
Heuristics

$$$$

     RDKit          3D

 15 13  0  0  0  0  0  0  0  0999 V2000
    0.2775    1.1119   -0.7656 C   0  0  0  0  0  3  0  0  0  0  0  0
   -0.5656    2.4068    0.1783 S   0  0  0  0  0  0  0  0  0  0  0  0
    1.3221    1.1413   -0.4598 H   0  0  0  0  0  0  0  0  0  0  0  0
    0.2222    1.3015   -1.8356 H   0  0  0  0  0  0  0  0  0  0  0  0
   -1.7897    2.2104   -0.3264 H   0  0  0  0  0  0  0  0  0  0  0  0
    0.2775   -2.3646   -1.6211 C   0  0  0  0  0  0  0  0  0  0  0  0
    0.2775   -2.3646   -0.2922 C   0  0  0  0  0  0  0  0  0  0  0  0
    0.2775   -1.1573    0.5230 C   0  0  0  0  0  0  0  0  0  0  0  0
    0.2775   -1.1573    1.8519 C   0  0  0  0  0  0  0  0  0  0  0  0
    0.2775   -1.4380   -2.1846 H   0  0  0  0  0  0  0  0  0  0  0  0
    0.2775   -3.2862   -2.1883 H   0  0  0  0  0  0  0  0  0  0  0  0
    0.2775   -3.3095    0.2444 H   0  0  0  0  0  0  0  0  0  0  0  0
    0.2775   -0.0234   -0.1209 H   0  0  0  0  0  0  0  0  0  0  0  0
    0.2775   -2.0839    2.4154 H   0  0  0  0  0  0  0  0  0  0  0  0
    0.2775   -0.2357    2.4191 H   0  0  0  0  0  0  0  0  0  0  0  0
  1  2  1  0
  1  3  1  0
  1  4  1  0
  2  5  1  0
  6  7  2  3
  6 10  1  0
  6 11  1  0
  7  8  1  0
  7 12  1  0
  8  9  2  3
  8 13  1  0
  9 14  1  0
  9 15  1  0
M  RAD  1   1   2
M  END
>  <reaction>  (7) 
rxn_1668

>  <mol_properties>  (7) 
{"0": {"label": "*1", "atom_type": "Cs"}, "1": {"label": "*0", "atom_type": "S2s"}, "6": {"label": "*4", "atom_type": "Cd"}, "7": {"label": "*3", "atom_type": "Cd"}, "12": {"label": "*2", "atom_type": "H0"}}

>  <type>  (7) 
unop_3

>  <geom_source>  (7) 
Heuristics

$$$$

     RDKit          3D

 15 13  0  0  0  0  0  0  0  0999 V2000
   -0.4787    1.4809   -0.1370 C   0  0  0  0  0  3  0  0  0  0  0  0
    0.9815    1.6383   -1.1959 S   0  0  0  0  0  0  0  0  0  0  0  0
   -1.2723    2.0450   -0.6243 H   0  0  0  0  0  0  0  0  0  0  0  0
   -0.3020    1.9078    0.8481 H   0  0  0  0  0  0  0  0  0  0  0  0
    1.8108    0.9018   -0.4464 H   0  0  0  0  0  0  0  0  0  0  0  0
   -0.4787   -1.9957   -0.9925 C   0  0  0  0  0  0  0  0  0  0  0  0
   -0.4787   -1.9957    0.3364 C   0  0  0  0  0  0  0  0  0  0  0  0
   -0.4787   -0.7883    1.1517 C   0  0  0  0  0  0  0  0  0  0  0  0
   -0.4787   -0.7883    2.4806 C   0  0  0  0  0  0  0  0  0  0  0  0
   -0.4787   -1.0691   -1.5560 H   0  0  0  0  0  0  0  0  0  0  0  0
   -0.4787   -2.9172   -1.5597 H   0  0  0  0  0  0  0  0  0  0  0  0
   -0.4787   -2.9406    0.8730 H   0  0  0  0  0  0  0  0  0  0  0  0
   -0.4787    0.3456    0.5077 H   0  0  0  0  0  0  0  0  0  0  0  0
   -0.4787   -1.7149    3.0440 H   0  0  0  0  0  0  0  0  0  0  0  0
   -0.4787    0.1332    3.0477 H   0  0  0  0  0  0  0  0  0  0  0  0
  1  2  1  0
  1  3  1  0
  1  4  1  0
  2  5  1  0
  6  7  2  3
  6 10  1  0
  6 11  1  0
  7  8  1  0
  7 12  1  0
  8  9  2  3
  8 13  1  0
  9 14  1  0
  9 15  1  0
M  RAD  1   1   2
M  END
>  <reaction>  (8) 
rxn_1668

>  <mol_properties>  (8) 
{"0": {"label": "*1", "atom_type": "Cs"}, "1": {"label": "*0", "atom_type": "S2s"}, "6": {"label": "*4", "atom_type": "Cd"}, "7": {"label": "*3", "atom_type": "Cd"}, "12": {"label": "*2", "atom_type": "H0"}}

>  <type>  (8) 
unop_4

>  <geom_source>  (8) 
Heuristics

$$$$

     RDKit          3D

 15 13  0  0  0  0  0  0  0  0999 V2000
    0.0109    1.0772   -0.8357 C   0  0  0  0  0  3  0  0  0  0  0  0
    0.0109    2.4836    0.3046 S   0  0  0  0  0  0  0  0  0  0  0  0
    0.9316    1.1508   -1.4123 H   0  0  0  0  0  0  0  0  0  0  0  0
   -0.8335    1.1220   -1.5204 H   0  0  0  0  0  0  0  0  0  0  0  0
   -1.1594    2.2173    0.8973 H   0  0  0  0  0  0  0  0  0  0  0  0
    0.0109   -2.3993   -1.6912 C   0  0  0  0  0  0  0  0  0  0  0  0
    0.0109   -2.3993   -0.3623 C   0  0  0  0  0  0  0  0  0  0  0  0
    0.0109   -1.1920    0.4529 C   0  0  0  0  0  0  0  0  0  0  0  0
    0.0109   -1.1920    1.7818 C   0  0  0  0  0  0  0  0  0  0  0  0
    0.0109   -1.4727   -2.2547 H   0  0  0  0  0  0  0  0  0  0  0  0
    0.0109   -3.3209   -2.2584 H   0  0  0  0  0  0  0  0  0  0  0  0
    0.0109   -3.3443    0.1743 H   0  0  0  0  0  0  0  0  0  0  0  0
    0.0109   -0.0581   -0.1910 H   0  0  0  0  0  0  0  0  0  0  0  0
    0.0109   -2.1186    2.3453 H   0  0  0  0  0  0  0  0  0  0  0  0
    0.0109   -0.2704    2.3490 H   0  0  0  0  0  0  0  0  0  0  0  0
  1  2  1  0
  1  3  1  0
  1  4  1  0
  2  5  1  0
  6  7  2  3
  6 10  1  0
  6 11  1  0
  7  8  1  0
  7 12  1  0
  8  9  2  3
  8 13  1  0
  9 14  1  0
  9 15  1  0
M  RAD  1   1   2
M  END
>  <reaction>  (9) 
rxn_1668

>  <mol_properties>  (9) 
{"0": {"label": "*1", "atom_type": "Cs"}, "1": {"label": "*0", "atom_type": "S2s"}, "6": {"label": "*4", "atom_type": "Cd"}, "7": {"label": "*3", "atom_type": "Cd"}, "12": {"label": "*2", "atom_type": "H0"}}

>  <type>  (9) 
unop_5

>  <geom_source>  (9) 
Heuristics

$$$$

     RDKit          3D

 15 13  0  0  0  0  0  0  0  0999 V2000
   -0.5467    1.3467   -0.3761 C   0  0  0  0  0  3  0  0  0  0  0  0
    1.1394    1.9204   -0.7020 S   0  0  0  0  0  0  0  0  0  0  0  0
   -1.1838    1.8362   -1.1109 H   0  0  0  0  0  0  0  0  0  0  0  0
   -0.8781    1.6346    0.6194 H   0  0  0  0  0  0  0  0  0  0  0  0
    1.7421    1.2277    0.2720 H   0  0  0  0  0  0  0  0  0  0  0  0
   -0.5467   -2.1299   -1.2317 C   0  0  0  0  0  0  0  0  0  0  0  0
   -0.5467   -2.1299    0.0972 C   0  0  0  0  0  0  0  0  0  0  0  0
   -0.5467   -0.9225    0.9125 C   0  0  0  0  0  0  0  0  0  0  0  0
   -0.5467   -0.9225    2.2414 C   0  0  0  0  0  0  0  0  0  0  0  0
   -0.5467   -1.2033   -1.7951 H   0  0  0  0  0  0  0  0  0  0  0  0
   -0.5467   -3.0514   -1.7988 H   0  0  0  0  0  0  0  0  0  0  0  0
   -0.5467   -3.0748    0.6338 H   0  0  0  0  0  0  0  0  0  0  0  0
   -0.5467    0.2114    0.2686 H   0  0  0  0  0  0  0  0  0  0  0  0
   -0.5467   -1.8491    2.8049 H   0  0  0  0  0  0  0  0  0  0  0  0
   -0.5467   -0.0010    2.8086 H   0  0  0  0  0  0  0  0  0  0  0  0
  1  2  1  0
  1  3  1  0
  1  4  1  0
  2  5  1  0
  6  7  2  3
  6 10  1  0
  6 11  1  0
  7  8  1  0
  7 12  1  0
  8  9  2  3
  8 13  1  0
  9 14  1  0
  9 15  1  0
M  RAD  1   1   2
M  END
>  <reaction>  (10) 
rxn_1668

>  <mol_properties>  (10) 
{"0": {"label": "*1", "atom_type": "Cs"}, "1": {"label": "*0", "atom_type": "S2s"}, "6": {"label": "*4", "atom_type": "Cd"}, "7": {"label": "*3", "atom_type": "Cd"}, "12": {"label": "*2", "atom_type": "H0"}}

>  <type>  (10) 
unop_6

>  <geom_source>  (10) 
Heuristics

$$$$

     RDKit          3D

 15 13  0  0  0  0  0  0  0  0999 V2000
   -0.4679    1.2125   -0.6126 C   0  0  0  0  0  3  0  0  0  0  0  0
    0.9923    2.2026   -0.2053 S   0  0  0  0  0  0  0  0  0  0  0  0
   -0.8266    1.5774   -1.5737 H   0  0  0  0  0  0  0  0  0  0  0  0
   -1.2555    1.3450    0.1264 H   0  0  0  0  0  0  0  0  0  0  0  0
    1.2688    1.6171    0.9663 H   0  0  0  0  0  0  0  0  0  0  0  0
   -0.4679   -2.2640   -1.4681 C   0  0  0  0  0  0  0  0  0  0  0  0
   -0.4679   -2.2640   -0.1392 C   0  0  0  0  0  0  0  0  0  0  0  0
   -0.4679   -1.0567    0.6761 C   0  0  0  0  0  0  0  0  0  0  0  0
   -0.4679   -1.0567    2.0050 C   0  0  0  0  0  0  0  0  0  0  0  0
   -0.4679   -1.3374   -2.0315 H   0  0  0  0  0  0  0  0  0  0  0  0
   -0.4679   -3.1856   -2.0353 H   0  0  0  0  0  0  0  0  0  0  0  0
   -0.4679   -3.2090    0.3974 H   0  0  0  0  0  0  0  0  0  0  0  0
   -0.4679    0.0772    0.0321 H   0  0  0  0  0  0  0  0  0  0  0  0
   -0.4679   -1.9833    2.5684 H   0  0  0  0  0  0  0  0  0  0  0  0
   -0.4679   -0.1352    2.5722 H   0  0  0  0  0  0  0  0  0  0  0  0
  1  2  1  0
  1  3  1  0
  1  4  1  0
  2  5  1  0
  6  7  2  3
  6 10  1  0
  6 11  1  0
  7  8  1  0
  7 12  1  0
  8  9  2  3
  8 13  1  0
  9 14  1  0
  9 15  1  0
M  RAD  1   1   2
M  END
>  <reaction>  (11) 
rxn_1668

>  <mol_properties>  (11) 
{"0": {"label": "*1", "atom_type": "Cs"}, "1": {"label": "*0", "atom_type": "S2s"}, "6": {"label": "*4", "atom_type": "Cd"}, "7": {"label": "*3", "atom_type": "Cd"}, "12": {"label": "*2", "atom_type": "H0"}}

>  <type>  (11) 
unop_7

>  <geom_source>  (11) 
Heuristics

$$$$

     RDKit          3D

 15 13  0  0  0  0  0  0  0  0999 V2000
    0.5416    1.3438   -0.3551 C   0  0  0  0  0  3  0  0  0  0  0  0
   -1.1445    1.9175   -0.6809 S   0  0  0  0  0  0  0  0  0  0  0  0
    0.7525    1.5884    0.6847 H   0  0  0  0  0  0  0  0  0  0  0  0
    1.2639    1.8563   -0.9871 H   0  0  0  0  0  0  0  0  0  0  0  0
   -1.2053    1.5361   -1.9626 H   0  0  0  0  0  0  0  0  0  0  0  0
    0.5416   -2.1328   -1.2106 C   0  0  0  0  0  0  0  0  0  0  0  0
    0.5416   -2.1328    0.1183 C   0  0  0  0  0  0  0  0  0  0  0  0
    0.5416   -0.9254    0.9335 C   0  0  0  0  0  0  0  0  0  0  0  0
    0.5416   -0.9254    2.2624 C   0  0  0  0  0  0  0  0  0  0  0  0
    0.5416   -1.2062   -1.7741 H   0  0  0  0  0  0  0  0  0  0  0  0
    0.5416   -3.0543   -1.7778 H   0  0  0  0  0  0  0  0  0  0  0  0
    0.5416   -3.0777    0.6549 H   0  0  0  0  0  0  0  0  0  0  0  0
    0.5416    0.2085    0.2896 H   0  0  0  0  0  0  0  0  0  0  0  0
    0.5416   -1.8520    2.8259 H   0  0  0  0  0  0  0  0  0  0  0  0
    0.5416   -0.0039    2.8296 H   0  0  0  0  0  0  0  0  0  0  0  0
  1  2  1  0
  1  3  1  0
  1  4  1  0
  2  5  1  0
  6  7  2  3
  6 10  1  0
  6 11  1  0
  7  8  1  0
  7 12  1  0
  8  9  2  3
  8 13  1  0
  9 14  1  0
  9 15  1  0
M  RAD  1   1   2
M  END
>  <reaction>  (12) 
rxn_1668

>  <mol_properties>  (12) 
{"0": {"label": "*1", "atom_type": "Cs"}, "1": {"label": "*0", "atom_type": "S2s"}, "6": {"label": "*4", "atom_type": "Cd"}, "7": {"label": "*3", "atom_type": "Cd"}, "12": {"label": "*2", "atom_type": "H0"}}

>  <type>  (12) 
unop_8

>  <geom_source>  (12) 
Heuristics

$$$$

     RDKit          3D

 15 13  0  0  0  0  0  0  0  0999 V2000
   -0.2827    1.5789    0.0409 C   0  0  0  0  0  3  0  0  0  0  0  0
    0.5604    1.4316   -1.5547 S   0  0  0  0  0  0  0  0  0  0  0  0
   -1.1879    2.1551   -0.1434 H   0  0  0  0  0  0  0  0  0  0  0  0
    0.3291    2.1133    0.7648 H   0  0  0  0  0  0  0  0  0  0  0  0
    1.6075    0.7173   -1.1243 H   0  0  0  0  0  0  0  0  0  0  0  0
   -0.2827   -1.8976   -0.8146 C   0  0  0  0  0  0  0  0  0  0  0  0
   -0.2827   -1.8976    0.5143 C   0  0  0  0  0  0  0  0  0  0  0  0
   -0.2827   -0.6903    1.3296 C   0  0  0  0  0  0  0  0  0  0  0  0
   -0.2827   -0.6903    2.6585 C   0  0  0  0  0  0  0  0  0  0  0  0
   -0.2827   -0.9710   -1.3780 H   0  0  0  0  0  0  0  0  0  0  0  0
   -0.2827   -2.8192   -1.3818 H   0  0  0  0  0  0  0  0  0  0  0  0
   -0.2827   -2.8426    1.0509 H   0  0  0  0  0  0  0  0  0  0  0  0
   -0.2827    0.4436    0.6857 H   0  0  0  0  0  0  0  0  0  0  0  0
   -0.2827   -1.6169    3.2219 H   0  0  0  0  0  0  0  0  0  0  0  0
   -0.2827    0.2313    3.2257 H   0  0  0  0  0  0  0  0  0  0  0  0
  1  2  1  0
  1  3  1  0
  1  4  1  0
  2  5  1  0
  6  7  2  3
  6 10  1  0
  6 11  1  0
  7  8  1  0
  7 12  1  0
  8  9  2  3
  8 13  1  0
  9 14  1  0
  9 15  1  0
M  RAD  1   1   2
M  END
>  <reaction>  (13) 
rxn_1668

>  <mol_properties>  (13) 
{"0": {"label": "*1", "atom_type": "Cs"}, "1": {"label": "*0", "atom_type": "S2s"}, "6": {"label": "*4", "atom_type": "Cd"}, "7": {"label": "*3", "atom_type": "Cd"}, "12": {"label": "*2", "atom_type": "H0"}}

>  <type>  (13) 
unop_9

>  <geom_source>  (13) 
Heuristics

$$$$

     RDKit          3D

 15 13  0  0  0  0  0  0  0  0999 V2000
    0.4658    1.4785   -0.1196 C   0  0  0  0  0  3  0  0  0  0  0  0
   -0.9944    1.6359   -1.1785 S   0  0  0  0  0  0  0  0  0  0  0  0
    0.1707    1.8396    0.8643 H   0  0  0  0  0  0  0  0  0  0  0  0
    1.2876    2.0916   -0.4837 H   0  0  0  0  0  0  0  0  0  0  0  0
   -0.4398    1.1575   -2.2989 H   0  0  0  0  0  0  0  0  0  0  0  0
    0.4658   -1.9981   -0.9751 C   0  0  0  0  0  0  0  0  0  0  0  0
    0.4658   -1.9981    0.3538 C   0  0  0  0  0  0  0  0  0  0  0  0
    0.4658   -0.7907    1.1691 C   0  0  0  0  0  0  0  0  0  0  0  0
    0.4658   -0.7907    2.4980 C   0  0  0  0  0  0  0  0  0  0  0  0
    0.4658   -1.0715   -1.5385 H   0  0  0  0  0  0  0  0  0  0  0  0
    0.4658   -2.9196   -1.5422 H   0  0  0  0  0  0  0  0  0  0  0  0
    0.4658   -2.9430    0.8904 H   0  0  0  0  0  0  0  0  0  0  0  0
    0.4658    0.3432    0.5252 H   0  0  0  0  0  0  0  0  0  0  0  0
    0.4658   -1.7174    3.0614 H   0  0  0  0  0  0  0  0  0  0  0  0
    0.4658    0.1308    3.0652 H   0  0  0  0  0  0  0  0  0  0  0  0
  1  2  1  0
  1  3  1  0
  1  4  1  0
  2  5  1  0
  6  7  2  3
  6 10  1  0
  6 11  1  0
  7  8  1  0
  7 12  1  0
  8  9  2  3
  8 13  1  0
  9 14  1  0
  9 15  1  0
M  RAD  1   1   2
M  END
>  <reaction>  (14) 
rxn_1668

>  <mol_properties>  (14) 
{"0": {"label": "*1", "atom_type": "Cs"}, "1": {"label": "*0", "atom_type": "S2s"}, "6": {"label": "*4", "atom_type": "Cd"}, "7": {"label": "*3", "atom_type": "Cd"}, "12": {"label": "*2", "atom_type": "H0"}}

>  <type>  (14) 
unop_10

>  <geom_source>  (14) 
Heuristics

$$$$

     RDKit          3D

 15 13  0  0  0  0  0  0  0  0999 V2000
   -0.2629    1.1142   -0.7817 C   0  0  0  0  0  3  0  0  0  0  0  0
    0.5801    2.4090    0.1622 S   0  0  0  0  0  0  0  0  0  0  0  0
   -0.0763    1.3307   -1.8323 H   0  0  0  0  0  0  0  0  0  0  0  0
   -1.3368    1.1321   -0.6077 H   0  0  0  0  0  0  0  0  0  0  0  0
    0.2393    1.9746    1.3817 H   0  0  0  0  0  0  0  0  0  0  0  0
   -0.2629   -2.3624   -1.6372 C   0  0  0  0  0  0  0  0  0  0  0  0
   -0.2629   -2.3624   -0.3083 C   0  0  0  0  0  0  0  0  0  0  0  0
   -0.2629   -1.1551    0.5070 C   0  0  0  0  0  0  0  0  0  0  0  0
   -0.2629   -1.1551    1.8358 C   0  0  0  0  0  0  0  0  0  0  0  0
   -0.2629   -1.4358   -2.2007 H   0  0  0  0  0  0  0  0  0  0  0  0
   -0.2629   -3.2839   -2.2044 H   0  0  0  0  0  0  0  0  0  0  0  0
   -0.2629   -3.3073    0.2283 H   0  0  0  0  0  0  0  0  0  0  0  0
   -0.2629   -0.0211   -0.1370 H   0  0  0  0  0  0  0  0  0  0  0  0
   -0.2629   -2.0817    2.3993 H   0  0  0  0  0  0  0  0  0  0  0  0
   -0.2629   -0.2335    2.4030 H   0  0  0  0  0  0  0  0  0  0  0  0
  1  2  1  0
  1  3  1  0
  1  4  1  0
  2  5  1  0
  6  7  2  3
  6 10  1  0
  6 11  1  0
  7  8  1  0
  7 12  1  0
  8  9  2  3
  8 13  1  0
  9 14  1  0
  9 15  1  0
M  RAD  1   1   2
M  END
>  <reaction>  (15) 
rxn_1668

>  <mol_properties>  (15) 
{"0": {"label": "*1", "atom_type": "Cs"}, "1": {"label": "*0", "atom_type": "S2s"}, "6": {"label": "*4", "atom_type": "Cd"}, "7": {"label": "*3", "atom_type": "Cd"}, "12": {"label": "*2", "atom_type": "H0"}}

>  <type>  (15) 
unop_11

>  <geom_source>  (15) 
Heuristics

$$$$

     RDKit          3D

 15 13  0  0  0  0  0  0  0  0999 V2000
   -0.0109    1.6143    0.1100 C   0  0  0  0  0  3  0  0  0  0  0  0
   -0.0109    1.3555   -1.6820 S   0  0  0  0  0  0  0  0  0  0  0  0
   -0.9316    2.1472    0.3422 H   0  0  0  0  0  0  0  0  0  0  0  0
    0.8335    2.2253    0.4224 H   0  0  0  0  0  0  0  0  0  0  0  0
    1.1594    0.7100   -1.7569 H   0  0  0  0  0  0  0  0  0  0  0  0
   -0.0109   -1.8622   -0.7455 C   0  0  0  0  0  0  0  0  0  0  0  0
   -0.0109   -1.8622    0.5834 C   0  0  0  0  0  0  0  0  0  0  0  0
   -0.0109   -0.6549    1.3987 C   0  0  0  0  0  0  0  0  0  0  0  0
   -0.0109   -0.6549    2.7276 C   0  0  0  0  0  0  0  0  0  0  0  0
   -0.0109   -0.9356   -1.3089 H   0  0  0  0  0  0  0  0  0  0  0  0
   -0.0109   -2.7838   -1.3126 H   0  0  0  0  0  0  0  0  0  0  0  0
   -0.0109   -2.8072    1.1200 H   0  0  0  0  0  0  0  0  0  0  0  0
   -0.0109    0.4790    0.7548 H   0  0  0  0  0  0  0  0  0  0  0  0
   -0.0109   -1.5815    3.2911 H   0  0  0  0  0  0  0  0  0  0  0  0
   -0.0109    0.2666    3.2948 H   0  0  0  0  0  0  0  0  0  0  0  0
  1  2  1  0
  1  3  1  0
  1  4  1  0
  2  5  1  0
  6  7  2  3
  6 10  1  0
  6 11  1  0
  7  8  1  0
  7 12  1  0
  8  9  2  3
  8 13  1  0
  9 14  1  0
  9 15  1  0
M  RAD  1   1   2
M  END
>  <reaction>  (16) 
rxn_1668

>  <mol_properties>  (16) 
{"0": {"label": "*1", "atom_type": "Cs"}, "1": {"label": "*0", "atom_type": "S2s"}, "6": {"label": "*4", "atom_type": "Cd"}, "7": {"label": "*3", "atom_type": "Cd"}, "12": {"label": "*2", "atom_type": "H0"}}

>  <type>  (16) 
unop_12

>  <geom_source>  (16) 
Heuristics

$$$$

     RDKit          3D

 15 13  0  0  0  0  0  0  0  0999 V2000
    2.4390    1.3586   -1.2059 S   0  0  0  0  0  0  0  0  0  0  0  0
    1.7674    0.4155    0.1916 C   0  0  0  0  0  3  0  0  0  0  0  0
   -1.6057    0.4850   -0.4309 C   0  0  0  0  0  0  0  0  0  0  0  0
   -2.2402   -0.5057   -1.0593 C   0  0  0  0  0  0  0  0  0  0  0  0
   -0.4862   -0.8386    1.3766 C   0  0  0  0  0  0  0  0  0  0  0  0
   -0.7492    0.3130    0.7608 C   0  0  0  0  0  0  0  0  0  0  0  0
    2.1651    0.8254    1.1430 H   0  0  0  0  0  0  0  0  0  0  0  0
    2.0598   -0.6507    0.0963 H   0  0  0  0  0  0  0  0  0  0  0  0
    0.3596    0.5161    0.1913 H   0  0  0  0  0  0  0  0  0  0  0  0
   -1.7203    1.4908   -0.8140 H   0  0  0  0  0  0  0  0  0  0  0  0
   -2.8478   -0.2846   -1.9273 H   0  0  0  0  0  0  0  0  0  0  0  0
   -2.1754   -1.5347   -0.7381 H   0  0  0  0  0  0  0  0  0  0  0  0
    0.1591   -0.8352    2.2442 H   0  0  0  0  0  0  0  0  0  0  0  0
   -0.8921   -1.7830    1.0453 H   0  0  0  0  0  0  0  0  0  0  0  0
    3.7667    1.0282   -0.8736 H   0  0  0  0  0  0  0  0  0  0  0  0
  1  2  1  0
  1 15  1  0
  2  7  1  0
  2  8  1  0
  3  4  2  3
  3  6  1  0
  3 10  1  0
  4 11  1  0
  4 12  1  0
  5  6  2  3
  5 13  1  0
  5 14  1  0
  6  9  1  0
M  RAD  1   2   2
M  END
>  <reaction>  (17) 
rxn_1668

>  <mol_properties>  (17) 
{"0": {"label": "*1", "atom_type": "Cs"}, "1": {"label": "*0", "atom_type": "S2s"}, "6": {"label": "*4", "atom_type": "Cd"}, "7": {"label": "*3", "atom_type": "Cd"}, "12": {"label": "*2", "atom_type": "H0"}}

>  <type>  (17) 
unop_13

>  <geom_source>  (17) 
AutoTST

$$$$
