
     RDKit          3D

  9  8  0  0  0  0  0  0  0  0999 V2000
    1.1303   -0.2933   -0.7510 C   0  0  0  0  0  0  0  0  0  0  0  0
    0.2866    0.4560   -0.0588 C   0  0  0  0  0  0  0  0  0  0  0  0
   -0.9719   -0.0331    0.5823 C   0  0  0  0  0  0  0  0  0  0  0  0
    2.0274    0.1230   -1.1916 H   0  0  0  0  0  0  0  0  0  0  0  0
    0.9532   -1.3530   -0.9023 H   0  0  0  0  0  0  0  0  0  0  0  0
    0.5065    1.5132    0.0659 H   0  0  0  0  0  0  0  0  0  0  0  0
   -0.9526    0.1426    1.6610 H   0  0  0  0  0  0  0  0  0  0  0  0
   -1.1182   -1.1002    0.4106 H   0  0  0  0  0  0  0  0  0  0  0  0
   -1.8412    0.5010    0.1901 H   0  0  0  0  0  0  0  0  0  0  0  0
  1  2  2  3
  1  4  1  0
  1  5  1  0
  2  3  1  0
  2  6  1  0
  3  7  1  0
  3  8  1  0
  3  9  1  0
M  END
>  <reaction>  (1) 
rxn_1011

>  <mol_properties>  (1) 
{"2": {"label": "donator", "atom_type": "Cs"}, "6": {"label": "d_hydrogen", "atom_type": "H0"}}

>  <type>  (1) 
r1h

$$$$

     RDKit          3D

 20 20  0  0  0  0  0  0  0  0999 V2000
   -2.4774    0.8083    0.1488 C   0  0  0  0  0  0  0  0  0  0  0  0
   -1.4172   -0.1696   -0.2476 C   0  0  0  0  0  3  0  0  0  0  0  0
   -0.2904    0.2932   -1.1156 C   0  0  0  0  0  0  0  0  0  0  0  0
   -1.4797   -1.5204    0.1947 C   0  0  0  0  0  0  0  0  0  0  0  0
   -0.4907   -2.4664   -0.1650 C   0  0  0  0  0  0  0  0  0  0  0  0
   -0.5559   -3.7750    0.2665 C   0  0  0  0  0  0  0  0  0  0  0  0
   -1.6038   -4.2041    1.0733 C   0  0  0  0  0  0  0  0  0  0  0  0
   -2.5899   -3.2959    1.4424 C   0  0  0  0  0  0  0  0  0  0  0  0
   -2.5339   -1.9852    1.0162 C   0  0  0  0  0  0  0  0  0  0  0  0
   -3.4697    0.4933   -0.1924 H   0  0  0  0  0  0  0  0  0  0  0  0
   -2.5434    0.9184    1.2368 H   0  0  0  0  0  0  0  0  0  0  0  0
   -2.2829    1.7944   -0.2706 H   0  0  0  0  0  0  0  0  0  0  0  0
   -0.2452   -0.2661   -2.0565 H   0  0  0  0  0  0  0  0  0  0  0  0
   -0.3905    1.3487   -1.3647 H   0  0  0  0  0  0  0  0  0  0  0  0
    0.6811    0.1589   -0.6274 H   0  0  0  0  0  0  0  0  0  0  0  0
    0.3373   -2.1635   -0.7918 H   0  0  0  0  0  0  0  0  0  0  0  0
    0.2187   -4.4725   -0.0281 H   0  0  0  0  0  0  0  0  0  0  0  0
   -1.6513   -5.2316    1.4097 H   0  0  0  0  0  0  0  0  0  0  0  0
   -3.4116   -3.6175    2.0706 H   0  0  0  0  0  0  0  0  0  0  0  0
   -3.3164   -1.3029    1.3205 H   0  0  0  0  0  0  0  0  0  0  0  0
  1  2  1  0
  1 10  1  0
  1 11  1  0
  1 12  1  0
  2  3  1  0
  2  4  1  0
  3 13  1  0
  3 14  1  0
  3 15  1  0
  4  5  2  0
  4  9  1  0
  5  6  1  0
  5 16  1  0
  6  7  2  0
  6 17  1  0
  7  8  1  0
  7 18  1  0
  8  9  2  0
  8 19  1  0
  9 20  1  0
M  RAD  1   2   2
M  END
>  <reaction>  (2) 
rxn_1011

>  <mol_properties>  (2) 
{"1": {"label": "acceptor", "atom_type": "Cs"}}

>  <type>  (2) 
r2

$$$$

     RDKit          3D

 21 21  0  0  0  0  0  0  0  0999 V2000
   -1.3695    1.3367   -1.0719 C   0  0  0  0  0  0  0  0  0  0  0  0
   -1.4091   -0.0981   -0.5428 C   0  0  0  0  0  0  0  0  0  0  0  0
   -0.1819   -0.3999    0.3191 C   0  0  0  0  0  0  0  0  0  0  0  0
   -1.5636   -1.1028   -1.6652 C   0  0  0  0  0  0  0  0  0  0  0  0
   -0.5920   -1.2314   -2.6553 C   0  0  0  0  0  0  0  0  0  0  0  0
   -0.7353   -2.1509   -3.6809 C   0  0  0  0  0  0  0  0  0  0  0  0
   -1.8582   -2.9642   -3.7377 C   0  0  0  0  0  0  0  0  0  0  0  0
   -2.8325   -2.8475   -2.7602 C   0  0  0  0  0  0  0  0  0  0  0  0
   -2.6828   -1.9241   -1.7351 C   0  0  0  0  0  0  0  0  0  0  0  0
   -0.4920    1.4974   -1.7025 H   0  0  0  0  0  0  0  0  0  0  0  0
   -2.2553    1.5607   -1.6679 H   0  0  0  0  0  0  0  0  0  0  0  0
   -1.3211    2.0496   -0.2461 H   0  0  0  0  0  0  0  0  0  0  0  0
   -2.2930   -0.1918    0.0948 H   0  0  0  0  0  0  0  0  0  0  0  0
   -0.1215    0.2955    1.1588 H   0  0  0  0  0  0  0  0  0  0  0  0
   -0.2200   -1.4155    0.7159 H   0  0  0  0  0  0  0  0  0  0  0  0
    0.7383   -0.3016   -0.2615 H   0  0  0  0  0  0  0  0  0  0  0  0
    0.2915   -0.6040   -2.6263 H   0  0  0  0  0  0  0  0  0  0  0  0
    0.0326   -2.2338   -4.4401 H   0  0  0  0  0  0  0  0  0  0  0  0
   -1.9712   -3.6833   -4.5391 H   0  0  0  0  0  0  0  0  0  0  0  0
   -3.7135   -3.4765   -2.7932 H   0  0  0  0  0  0  0  0  0  0  0  0
   -3.4509   -1.8400   -0.9743 H   0  0  0  0  0  0  0  0  0  0  0  0
  1  2  1  0
  1 10  1  0
  1 11  1  0
  1 12  1  0
  2  3  1  0
  2  4  1  0
  2 13  1  0
  3 14  1  0
  3 15  1  0
  3 16  1  0
  4  5  2  0
  4  9  1  0
  5  6  1  0
  5 17  1  0
  6  7  2  0
  6 18  1  0
  7  8  1  0
  7 19  1  0
  8  9  2  0
  8 20  1  0
  9 21  1  0
M  END
>  <reaction>  (3) 
rxn_1011

>  <mol_properties>  (3) 
{"0": {"label": "a_hydrogen", "atom_type": "H0"}, "2": {"label": "acceptor", "atom_type": "Cs"}}

>  <type>  (3) 
r2h

$$$$

     RDKit          3D

 29 28  0  0  0  0  0  0  0  0999 V2000
    1.9950   -1.6704   -2.3941 C   0  0  0  0  0  0  0  0  0  0  0  0
    2.6905   -0.8254   -1.6222 C   0  0  0  0  0  0  0  0  0  0  0  0
    2.2862    0.5261   -1.2929 C   0  0  0  0  0  3  0  0  0  0  0  0
    2.3355   -2.6816   -2.5745 H   0  0  0  0  0  0  0  0  0  0  0  0
    1.0733   -1.3621   -2.8756 H   0  0  0  0  0  0  0  0  0  0  0  0
    3.6083   -1.1837   -1.1637 H   0  0  0  0  0  0  0  0  0  0  0  0
    1.5998    0.4728   -0.1295 H   0  0  0  0  0  0  0  0  0  0  0  0
    1.5250    0.9643   -1.9349 H   0  0  0  0  0  0  0  0  0  0  0  0
    3.0838    1.2183   -1.0359 H   0  0  0  0  0  0  0  0  0  0  0  0
    1.5019   -0.8830    1.6020 C   0  0  0  0  0  0  0  0  0  0  0  0
    0.9189    0.3863    1.0211 C   0  0  0  0  0  0  0  0  0  0  0  0
    1.3380    1.6318    1.7642 C   0  0  0  0  0  0  0  0  0  0  0  0
   -0.4933    0.3094    0.5709 C   0  0  0  0  0  0  0  0  0  0  0  0
   -1.4253    1.3069    0.8659 C   0  0  0  0  0  0  0  0  0  0  0  0
   -2.7303    1.2302    0.4038 C   0  0  0  0  0  0  0  0  0  0  0  0
   -3.1370    0.1596   -0.3754 C   0  0  0  0  0  0  0  0  0  0  0  0
   -2.2222   -0.8368   -0.6871 C   0  0  0  0  0  0  0  0  0  0  0  0
   -0.9226   -0.7633   -0.2200 C   0  0  0  0  0  0  0  0  0  0  0  0
    1.3385   -1.7462    0.9574 H   0  0  0  0  0  0  0  0  0  0  0  0
    2.5794   -0.7765    1.7452 H   0  0  0  0  0  0  0  0  0  0  0  0
    1.0532   -1.1028    2.5763 H   0  0  0  0  0  0  0  0  0  0  0  0
    0.8669    1.6880    2.7517 H   0  0  0  0  0  0  0  0  0  0  0  0
    2.4184    1.6302    1.9180 H   0  0  0  0  0  0  0  0  0  0  0  0
    1.0796    2.5398    1.2171 H   0  0  0  0  0  0  0  0  0  0  0  0
   -1.1374    2.1527    1.4760 H   0  0  0  0  0  0  0  0  0  0  0  0
   -3.4331    2.0145    0.6570 H   0  0  0  0  0  0  0  0  0  0  0  0
   -4.1553    0.1013   -0.7381 H   0  0  0  0  0  0  0  0  0  0  0  0
   -2.5233   -1.6767   -1.3010 H   0  0  0  0  0  0  0  0  0  0  0  0
   -0.2206   -1.5420   -0.4904 H   0  0  0  0  0  0  0  0  0  0  0  0
  1  2  2  3
  1  4  1  0
  1  5  1  0
  2  3  1  0
  2  6  1  0
  3  8  1  0
  3  9  1  0
  7 11  1  0
 10 11  1  0
 10 19  1  0
 10 20  1  0
 10 21  1  0
 11 12  1  0
 11 13  1  0
 12 22  1  0
 12 23  1  0
 12 24  1  0
 13 14  2  0
 13 18  1  0
 14 15  1  0
 14 25  1  0
 15 16  2  0
 15 26  1  0
 16 17  1  0
 16 27  1  0
 17 18  2  0
 17 28  1  0
 18 29  1  0
M  RAD  1   3   2
M  END
>  <reaction>  (4) 
rxn_1011

>  <mol_properties>  (4) 
{"1": {"label": "*4", "atom_type": "Cd"}, "2": {"label": "*3", "atom_type": "Cs"}, "6": {"label": "*2", "atom_type": "H0"}, "10": {"label": "*1", "atom_type": "Cs"}, "12": {"label": "*0", "atom_type": "Cd"}}

>  <type>  (4) 
ts

$$$$

     RDKit          3D

 29 28  0  0  0  0  0  0  0  0999 V2000
    2.8032   -0.6478   -3.0640 C   0  0  0  0  0  0  0  0  0  0  0  0
    2.8032   -0.6478   -1.7403 C   0  0  0  0  0  0  0  0  0  0  0  0
    2.8032    0.5744   -0.8798 C   0  0  0  0  0  0  0  0  0  0  0  0
    2.8032   -1.5705   -3.6305 H   0  0  0  0  0  0  0  0  0  0  0  0
    2.8032    0.2778   -3.6300 H   0  0  0  0  0  0  0  0  0  0  0  0
    2.8032   -1.6004   -1.2168 H   0  0  0  0  0  0  0  0  0  0  0  0
    1.7499    0.5950   -0.0983 H   0  0  0  0  0  0  0  0  0  0  0  0
    2.8032    1.4849   -1.4804 H   0  0  0  0  0  0  0  0  0  0  0  0
    3.6809    0.5915   -0.2286 H   0  0  0  0  0  0  0  0  0  0  0  0
    1.1925    0.6317    2.1305 C   0  0  0  0  0  0  0  0  0  0  0  0
    0.6958    0.6155    0.6838 C   0  0  0  0  0  3  0  0  0  0  0  0
    0.7795    2.0091    0.0585 C   0  0  0  0  0  0  0  0  0  0  0  0
   -0.7009    0.0400    0.5795 C   0  0  0  0  0  0  0  0  0  0  0  0
   -1.7823    0.6566    1.2051 C   0  0  0  0  0  0  0  0  0  0  0  0
   -3.0590    0.1286    1.1085 C   0  0  0  0  0  0  0  0  0  0  0  0
   -3.2813   -1.0321    0.3812 C   0  0  0  0  0  0  0  0  0  0  0  0
   -2.2158   -1.6562   -0.2461 C   0  0  0  0  0  0  0  0  0  0  0  0
   -0.9390   -1.1219   -0.1454 C   0  0  0  0  0  0  0  0  0  0  0  0
    1.1549   -0.3660    2.5705 H   0  0  0  0  0  0  0  0  0  0  0  0
    2.2227    0.9905    2.1792 H   0  0  0  0  0  0  0  0  0  0  0  0
    0.5799    1.2930    2.7475 H   0  0  0  0  0  0  0  0  0  0  0  0
    0.1520    2.7200    0.6010 H   0  0  0  0  0  0  0  0  0  0  0  0
    1.8055    2.3818    0.0863 H   0  0  0  0  0  0  0  0  0  0  0  0
    0.4471    1.9947   -0.9805 H   0  0  0  0  0  0  0  0  0  0  0  0
   -1.6266    1.5640    1.7773 H   0  0  0  0  0  0  0  0  0  0  0  0
   -3.8850    0.6247    1.6030 H   0  0  0  0  0  0  0  0  0  0  0  0
   -4.2789   -1.4457    0.3051 H   0  0  0  0  0  0  0  0  0  0  0  0
   -2.3762   -2.5626   -0.8167 H   0  0  0  0  0  0  0  0  0  0  0  0
   -0.1110   -1.6175   -0.6399 H   0  0  0  0  0  0  0  0  0  0  0  0
  1  2  2  3
  1  4  1  0
  1  5  1  0
  2  3  1  0
  2  6  1  0
  3  7  1  0
  3  8  1  0
  3  9  1  0
 10 11  1  0
 10 19  1  0
 10 20  1  0
 10 21  1  0
 11 12  1  0
 11 13  1  0
 12 22  1  0
 12 23  1  0
 12 24  1  0
 13 14  2  0
 13 18  1  0
 14 15  1  0
 14 25  1  0
 15 16  2  0
 15 26  1  0
 16 17  1  0
 16 27  1  0
 17 18  2  0
 17 28  1  0
 18 29  1  0
M  RAD  1  11   2
M  END
>  <reaction>  (5) 
rxn_1011

>  <mol_properties>  (5) 
{"1": {"label": "*4", "atom_type": "Cd"}, "2": {"label": "*3", "atom_type": "Cs"}, "6": {"label": "*2", "atom_type": "H0"}, "10": {"label": "*1", "atom_type": "Cs"}, "12": {"label": "*0", "atom_type": "Cd"}}

>  <type>  (5) 
unop_1

>  <geom_source>  (5) 
Heuristics

$$$$

     RDKit          3D

 29 28  0  0  0  0  0  0  0  0999 V2000
    2.6477   -1.7497   -2.9087 C   0  0  0  0  0  0  0  0  0  0  0  0
    2.6477   -1.7497   -1.5849 C   0  0  0  0  0  0  0  0  0  0  0  0
    2.6477   -0.5275   -0.7244 C   0  0  0  0  0  0  0  0  0  0  0  0
    2.6477   -2.6724   -3.4752 H   0  0  0  0  0  0  0  0  0  0  0  0
    2.6477   -0.8241   -3.4747 H   0  0  0  0  0  0  0  0  0  0  0  0
    2.6477   -2.7023   -1.0614 H   0  0  0  0  0  0  0  0  0  0  0  0
    1.5945   -0.5070    0.0570 H   0  0  0  0  0  0  0  0  0  0  0  0
    2.6477    0.3829   -1.3250 H   0  0  0  0  0  0  0  0  0  0  0  0
    3.5255   -0.5104   -0.0732 H   0  0  0  0  0  0  0  0  0  0  0  0
    0.1553   -1.9368    1.1359 C   0  0  0  0  0  0  0  0  0  0  0  0
    0.5404   -0.4864    0.8391 C   0  0  0  0  0  3  0  0  0  0  0  0
    1.3425    0.1164    1.9937 C   0  0  0  0  0  0  0  0  0  0  0  0
   -0.6725    0.3555    0.5027 C   0  0  0  0  0  0  0  0  0  0  0  0
   -1.6904    0.5556    1.4326 C   0  0  0  0  0  0  0  0  0  0  0  0
   -2.7989    1.3259    1.1230 C   0  0  0  0  0  0  0  0  0  0  0  0
   -2.9126    1.9145   -0.1285 C   0  0  0  0  0  0  0  0  0  0  0  0
   -1.9084    1.7243   -1.0632 C   0  0  0  0  0  0  0  0  0  0  0  0
   -0.8002    0.9513   -0.7466 C   0  0  0  0  0  0  0  0  0  0  0  0
   -0.3972   -2.3753    0.3036 H   0  0  0  0  0  0  0  0  0  0  0  0
    1.0463   -2.5422    1.3144 H   0  0  0  0  0  0  0  0  0  0  0  0
   -0.4744   -2.0004    2.0263 H   0  0  0  0  0  0  0  0  0  0  0  0
    0.7555    0.1266    2.9150 H   0  0  0  0  0  0  0  0  0  0  0  0
    2.2456   -0.4683    2.1808 H   0  0  0  0  0  0  0  0  0  0  0  0
    1.6375    1.1434    1.7738 H   0  0  0  0  0  0  0  0  0  0  0  0
   -1.6178    0.1031    2.4150 H   0  0  0  0  0  0  0  0  0  0  0  0
   -3.5783    1.4681    1.8614 H   0  0  0  0  0  0  0  0  0  0  0  0
   -3.7787    2.5169   -0.3715 H   0  0  0  0  0  0  0  0  0  0  0  0
   -1.9852    2.1783   -2.0434 H   0  0  0  0  0  0  0  0  0  0  0  0
   -0.0191    0.8081   -1.4849 H   0  0  0  0  0  0  0  0  0  0  0  0
  1  2  2  3
  1  4  1  0
  1  5  1  0
  2  3  1  0
  2  6  1  0
  3  7  1  0
  3  8  1  0
  3  9  1  0
 10 11  1  0
 10 19  1  0
 10 20  1  0
 10 21  1  0
 11 12  1  0
 11 13  1  0
 12 22  1  0
 12 23  1  0
 12 24  1  0
 13 14  2  0
 13 18  1  0
 14 15  1  0
 14 25  1  0
 15 16  2  0
 15 26  1  0
 16 17  1  0
 16 27  1  0
 17 18  2  0
 17 28  1  0
 18 29  1  0
M  RAD  1  11   2
M  END
>  <reaction>  (6) 
rxn_1011

>  <mol_properties>  (6) 
{"1": {"label": "*4", "atom_type": "Cd"}, "2": {"label": "*3", "atom_type": "Cs"}, "6": {"label": "*2", "atom_type": "H0"}, "10": {"label": "*1", "atom_type": "Cs"}, "12": {"label": "*0", "atom_type": "Cd"}}

>  <type>  (6) 
unop_2

>  <geom_source>  (6) 
Heuristics

$$$$

     RDKit          3D

 29 28  0  0  0  0  0  0  0  0999 V2000
    2.4625   -0.1480   -3.3697 C   0  0  0  0  0  0  0  0  0  0  0  0
    2.4625   -0.1480   -2.0460 C   0  0  0  0  0  0  0  0  0  0  0  0
    2.4625    1.0741   -1.1855 C   0  0  0  0  0  0  0  0  0  0  0  0
    2.4625   -1.0708   -3.9362 H   0  0  0  0  0  0  0  0  0  0  0  0
    2.4625    0.7776   -3.9357 H   0  0  0  0  0  0  0  0  0  0  0  0
    2.4625   -1.1007   -1.5224 H   0  0  0  0  0  0  0  0  0  0  0  0
    1.4093    1.0947   -0.4040 H   0  0  0  0  0  0  0  0  0  0  0  0
    2.4625    1.9846   -1.7860 H   0  0  0  0  0  0  0  0  0  0  0  0
    3.3402    1.0913   -0.5342 H   0  0  0  0  0  0  0  0  0  0  0  0
    0.7420    1.8590    1.6576 C   0  0  0  0  0  0  0  0  0  0  0  0
    0.3552    1.1152    0.3781 C   0  0  0  0  0  3  0  0  0  0  0  0
   -0.2153    2.0772   -0.6656 C   0  0  0  0  0  0  0  0  0  0  0  0
   -0.5965   -0.0277    0.6629 C   0  0  0  0  0  0  0  0  0  0  0  0
   -1.8588    0.2045    1.2048 C   0  0  0  0  0  0  0  0  0  0  0  0
   -2.7277   -0.8422    1.4645 C   0  0  0  0  0  0  0  0  0  0  0  0
   -2.3504   -2.1483    1.1863 C   0  0  0  0  0  0  0  0  0  0  0  0
   -1.0985   -2.3943    0.6474 C   0  0  0  0  0  0  0  0  0  0  0  0
   -0.2325   -1.3410    0.3895 C   0  0  0  0  0  0  0  0  0  0  0  0
    1.1701    1.1778    2.3944 H   0  0  0  0  0  0  0  0  0  0  0  0
    1.4759    2.6383    1.4422 H   0  0  0  0  0  0  0  0  0  0  0  0
   -0.1291    2.3379    2.1108 H   0  0  0  0  0  0  0  0  0  0  0  0
   -1.1208    2.5640   -0.2960 H   0  0  0  0  0  0  0  0  0  0  0  0
    0.5090    2.8587   -0.9044 H   0  0  0  0  0  0  0  0  0  0  0  0
   -0.4704    1.5518   -1.5870 H   0  0  0  0  0  0  0  0  0  0  0  0
   -2.1698    1.2186    1.4282 H   0  0  0  0  0  0  0  0  0  0  0  0
   -3.7043   -0.6385    1.8860 H   0  0  0  0  0  0  0  0  0  0  0  0
   -3.0289   -2.9672    1.3890 H   0  0  0  0  0  0  0  0  0  0  0  0
   -0.7921   -3.4092    0.4258 H   0  0  0  0  0  0  0  0  0  0  0  0
    0.7456   -1.5434   -0.0325 H   0  0  0  0  0  0  0  0  0  0  0  0
  1  2  2  3
  1  4  1  0
  1  5  1  0
  2  3  1  0
  2  6  1  0
  3  7  1  0
  3  8  1  0
  3  9  1  0
 10 11  1  0
 10 19  1  0
 10 20  1  0
 10 21  1  0
 11 12  1  0
 11 13  1  0
 12 22  1  0
 12 23  1  0
 12 24  1  0
 13 14  2  0
 13 18  1  0
 14 15  1  0
 14 25  1  0
 15 16  2  0
 15 26  1  0
 16 17  1  0
 16 27  1  0
 17 18  2  0
 17 28  1  0
 18 29  1  0
M  RAD  1  11   2
M  END
>  <reaction>  (7) 
rxn_1011

>  <mol_properties>  (7) 
{"1": {"label": "*4", "atom_type": "Cd"}, "2": {"label": "*3", "atom_type": "Cs"}, "6": {"label": "*2", "atom_type": "H0"}, "10": {"label": "*1", "atom_type": "Cs"}, "12": {"label": "*0", "atom_type": "Cd"}}

>  <type>  (7) 
unop_3

>  <geom_source>  (7) 
Heuristics

$$$$

     RDKit          3D

 29 27  0  0  0  0  0  0  0  0999 V2000
    1.2113   -2.2844   -3.3247 C   0  0  0  0  0  0  0  0  0  0  0  0
    1.2113   -2.2844   -2.0009 C   0  0  0  0  0  3  0  0  0  0  0  0
    1.2113   -1.0622   -1.1404 C   0  0  0  0  0  3  0  0  0  0  0  0
    1.2113   -3.2071   -3.8911 H   0  0  0  0  0  0  0  0  0  0  0  0
    1.2113   -1.3588   -3.8907 H   0  0  0  0  0  0  0  0  0  0  0  0
    1.2113   -3.2370   -1.4774 H   0  0  0  0  0  0  0  0  0  0  0  0
    0.1580   -1.0417   -0.3589 H   0  0  0  0  0  0  0  0  0  0  0  0
    1.2113   -0.1518   -1.7410 H   0  0  0  0  0  0  0  0  0  0  0  0
    2.0890   -1.0451   -0.4892 H   0  0  0  0  0  0  0  0  0  0  0  0
   -2.1369   -1.0227   -0.4714 C   0  0  0  0  0  0  0  0  0  0  0  0
   -0.8960   -1.0211    0.4231 C   0  0  0  0  0  3  0  0  0  0  0  0
   -1.1744   -1.7293    1.7501 C   0  0  0  0  0  0  0  0  0  0  0  0
   -0.3656    0.3807    0.6392 C   0  0  0  0  0  0  0  0  0  0  0  0
   -1.1335    1.3503    1.2802 C   0  0  0  0  0  0  0  0  0  0  0  0
   -0.6465    2.6318    1.4768 C   0  0  0  0  0  0  0  0  0  0  0  0
    0.6241    2.9713    1.0343 C   0  0  0  0  0  0  0  0  0  0  0  0
    1.3991    2.0177    0.3953 C   0  0  0  0  0  0  0  0  0  0  0  0
    0.9051    0.7354    0.2015 C   0  0  0  0  0  0  0  0  0  0  0  0
   -1.9333   -0.5381   -1.4274 H   0  0  0  0  0  0  0  0  0  0  0  0
   -2.4680   -2.0447   -0.6675 H   0  0  0  0  0  0  0  0  0  0  0  0
   -2.9635   -0.4903    0.0045 H   0  0  0  0  0  0  0  0  0  0  0  0
   -1.9665   -1.2223    2.3060 H   0  0  0  0  0  0  0  0  0  0  0  0
   -1.4958   -2.7584    1.5765 H   0  0  0  0  0  0  0  0  0  0  0  0
   -0.2838   -1.7490    2.3799 H   0  0  0  0  0  0  0  0  0  0  0  0
   -2.1283    1.1022    1.6323 H   0  0  0  0  0  0  0  0  0  0  0  0
   -1.2610    3.3697    1.9777 H   0  0  0  0  0  0  0  0  0  0  0  0
    1.0057    3.9728    1.1875 H   0  0  0  0  0  0  0  0  0  0  0  0
    2.3924    2.2702    0.0453 H   0  0  0  0  0  0  0  0  0  0  0  0
    1.5192   -0.0045   -0.2999 H   0  0  0  0  0  0  0  0  0  0  0  0
  1  2  2  3
  1  4  1  0
  1  5  1  0
  2  6  1  0
  3  7  1  0
  3  8  1  0
  3  9  1  0
 10 11  1  0
 10 19  1  0
 10 20  1  0
 10 21  1  0
 11 12  1  0
 11 13  1  0
 12 22  1  0
 12 23  1  0
 12 24  1  0
 13 14  2  0
 13 18  1  0
 14 15  1  0
 14 25  1  0
 15 16  2  0
 15 26  1  0
 16 17  1  0
 16 27  1  0
 17 18  2  0
 17 28  1  0
 18 29  1  0
M  RAD  3   2   2   3   2  11   2
M  END
>  <reaction>  (8) 
rxn_1011

>  <mol_properties>  (8) 
{"1": {"label": "*4", "atom_type": "Cd"}, "2": {"label": "*3", "atom_type": "Cs"}, "6": {"label": "*2", "atom_type": "H0"}, "10": {"label": "*1", "atom_type": "Cs"}, "12": {"label": "*0", "atom_type": "Cd"}}

>  <type>  (8) 
unop_4

>  <geom_source>  (8) 
Heuristics

$$$$

     RDKit          3D

 29 28  0  0  0  0  0  0  0  0999 V2000
    1.6127   -0.0127   -3.8788 C   0  0  0  0  0  0  0  0  0  0  0  0
    1.6127   -0.0127   -2.5551 C   0  0  0  0  0  0  0  0  0  0  0  0
    1.6127    1.2095   -1.6945 C   0  0  0  0  0  0  0  0  0  0  0  0
    1.6127   -0.9354   -4.4453 H   0  0  0  0  0  0  0  0  0  0  0  0
    1.6127    0.9129   -4.4448 H   0  0  0  0  0  0  0  0  0  0  0  0
    1.6127   -0.9653   -2.0315 H   0  0  0  0  0  0  0  0  0  0  0  0
    0.5595    1.2301   -0.9131 H   0  0  0  0  0  0  0  0  0  0  0  0
    1.6127    2.1200   -2.2951 H   0  0  0  0  0  0  0  0  0  0  0  0
    2.4904    1.2266   -1.0433 H   0  0  0  0  0  0  0  0  0  0  0  0
   -0.4210    2.5246    0.7124 C   0  0  0  0  0  0  0  0  0  0  0  0
   -0.4946    1.2506   -0.1310 C   0  0  0  0  0  3  0  0  0  0  0  0
   -1.7354    1.2548   -1.0257 C   0  0  0  0  0  0  0  0  0  0  0  0
   -0.4317    0.0067    0.7303 C   0  0  0  0  0  0  0  0  0  0  0  0
   -1.4186   -0.2654    1.6753 C   0  0  0  0  0  0  0  0  0  0  0  0
   -1.3592   -1.4036    2.4619 C   0  0  0  0  0  0  0  0  0  0  0  0
   -0.3071   -2.2971    2.3191 C   0  0  0  0  0  0  0  0  0  0  0  0
    0.6813   -2.0397    1.3836 C   0  0  0  0  0  0  0  0  0  0  0  0
    0.6159   -0.8973    0.5984 C   0  0  0  0  0  0  0  0  0  0  0  0
    0.4753    2.5335    1.3343 H   0  0  0  0  0  0  0  0  0  0  0  0
   -0.4043    3.4090    0.0721 H   0  0  0  0  0  0  0  0  0  0  0  0
   -1.2874    2.6078    1.3727 H   0  0  0  0  0  0  0  0  0  0  0  0
   -2.6491    1.2923   -0.4280 H   0  0  0  0  0  0  0  0  0  0  0  0
   -1.7319    2.1264   -1.6835 H   0  0  0  0  0  0  0  0  0  0  0  0
   -1.7772    0.3573   -1.6445 H   0  0  0  0  0  0  0  0  0  0  0  0
   -2.2476    0.4218    1.8001 H   0  0  0  0  0  0  0  0  0  0  0  0
   -2.1375   -1.5951    3.1904 H   0  0  0  0  0  0  0  0  0  0  0  0
   -0.2598   -3.1871    2.9335 H   0  0  0  0  0  0  0  0  0  0  0  0
    1.5077   -2.7291    1.2624 H   0  0  0  0  0  0  0  0  0  0  0  0
    1.3944   -0.7042   -0.1313 H   0  0  0  0  0  0  0  0  0  0  0  0
  1  2  2  3
  1  4  1  0
  1  5  1  0
  2  3  1  0
  2  6  1  0
  3  7  1  0
  3  8  1  0
  3  9  1  0
 10 11  1  0
 10 19  1  0
 10 20  1  0
 10 21  1  0
 11 12  1  0
 11 13  1  0
 12 22  1  0
 12 23  1  0
 12 24  1  0
 13 14  2  0
 13 18  1  0
 14 15  1  0
 14 25  1  0
 15 16  2  0
 15 26  1  0
 16 17  1  0
 16 27  1  0
 17 18  2  0
 17 28  1  0
 18 29  1  0
M  RAD  1  11   2
M  END
>  <reaction>  (9) 
rxn_1011

>  <mol_properties>  (9) 
{"1": {"label": "*4", "atom_type": "Cd"}, "2": {"label": "*3", "atom_type": "Cs"}, "6": {"label": "*2", "atom_type": "H0"}, "10": {"label": "*1", "atom_type": "Cs"}, "12": {"label": "*0", "atom_type": "Cd"}}

>  <type>  (9) 
unop_5

>  <geom_source>  (9) 
Heuristics

$$$$

     RDKit          3D

 29 27  0  0  0  0  0  0  0  0999 V2000
    0.7899   -1.9313   -3.6627 C   0  0  0  0  0  0  0  0  0  0  0  0
    0.7899   -1.9313   -2.3389 C   0  0  0  0  0  3  0  0  0  0  0  0
    0.7899   -0.7091   -1.4784 C   0  0  0  0  0  2  0  0  0  0  0  0
    0.7899   -2.8540   -4.2292 H   0  0  0  0  0  0  0  0  0  0  0  0
    0.7899   -1.0057   -4.2287 H   0  0  0  0  0  0  0  0  0  0  0  0
    0.7899   -2.8839   -1.8154 H   0  0  0  0  0  0  0  0  0  0  0  0
   -0.2633   -0.6886   -0.6970 H   0  0  0  0  0  0  0  0  0  0  0  0
    0.7899    0.2013   -2.0790 H   0  0  0  0  0  0  0  0  0  0  0  0
    1.6676   -0.6920   -0.8272 H   0  0  0  0  0  0  0  0  0  0  0  0
   -2.4354    0.0603   -0.6630 C   0  0  0  0  0  0  0  0  0  0  0  0
   -1.3174   -0.6680    0.0851 C   0  0  0  0  0  0  0  0  0  0  0  0
   -1.8891   -1.6063    1.1495 C   0  0  0  0  0  0  0  0  0  0  0  0
   -0.3168    0.3028    0.6762 C   0  0  0  0  0  0  0  0  0  0  0  0
   -0.6981    1.2299    1.6436 C   0  0  0  0  0  0  0  0  0  0  0  0
    0.2186    2.1169    2.1829 C   0  0  0  0  0  0  0  0  0  0  0  0
    1.5414    2.0947    1.7639 C   0  0  0  0  0  0  0  0  0  0  0  0
    1.9350    1.1785    0.8028 C   0  0  0  0  0  0  0  0  0  0  0  0
    1.0114    0.2924    0.2664 C   0  0  0  0  0  0  0  0  0  0  0  0
   -2.0301    0.7127   -1.4379 H   0  0  0  0  0  0  0  0  0  0  0  0
   -3.1117   -0.6554   -1.1350 H   0  0  0  0  0  0  0  0  0  0  0  0
   -3.0258    0.6769    0.0187 H   0  0  0  0  0  0  0  0  0  0  0  0
   -2.4599   -1.0497    1.8964 H   0  0  0  0  0  0  0  0  0  0  0  0
   -2.5599   -2.3388    0.6958 H   0  0  0  0  0  0  0  0  0  0  0  0
   -1.0939   -2.1435    1.6684 H   0  0  0  0  0  0  0  0  0  0  0  0
   -1.7273    1.2610    1.9824 H   0  0  0  0  0  0  0  0  0  0  0  0
   -0.0999    2.8292    2.9339 H   0  0  0  0  0  0  0  0  0  0  0  0
    2.2587    2.7877    2.1849 H   0  0  0  0  0  0  0  0  0  0  0  0
    2.9643    1.1511    0.4673 H   0  0  0  0  0  0  0  0  0  0  0  0
    1.3289   -0.4214   -0.4856 H   0  0  0  0  0  0  0  0  0  0  0  0
  1  2  2  3
  1  4  1  0
  1  5  1  0
  2  6  1  0
  3  8  1  0
  3  9  1  0
  7 11  1  0
 10 11  1  0
 10 19  1  0
 10 20  1  0
 10 21  1  0
 11 12  1  0
 11 13  1  0
 12 22  1  0
 12 23  1  0
 12 24  1  0
 13 14  2  0
 13 18  1  0
 14 15  1  0
 14 25  1  0
 15 16  2  0
 15 26  1  0
 16 17  1  0
 16 27  1  0
 17 18  2  0
 17 28  1  0
 18 29  1  0
M  RAD  2   2   2   3   3
M  END
>  <reaction>  (10) 
rxn_1011

>  <mol_properties>  (10) 
{"1": {"label": "*4", "atom_type": "Cd"}, "2": {"label": "*3", "atom_type": "Cs"}, "6": {"label": "*2", "atom_type": "H0"}, "10": {"label": "*1", "atom_type": "Cs"}, "12": {"label": "*0", "atom_type": "Cd"}}

>  <type>  (10) 
unop_6

>  <geom_source>  (10) 
Heuristics

$$$$

     RDKit          3D

 29 27  0  0  0  0  0  0  0  0999 V2000
    0.6120   -1.3484   -3.9320 C   0  0  0  0  0  0  0  0  0  0  0  0
    0.6120   -1.3484   -2.6082 C   0  0  0  0  0  3  0  0  0  0  0  0
    0.6120   -0.1263   -1.7477 C   0  0  0  0  0  2  0  0  0  0  0  0
    0.6120   -2.2712   -4.4984 H   0  0  0  0  0  0  0  0  0  0  0  0
    0.6120   -0.4229   -4.4980 H   0  0  0  0  0  0  0  0  0  0  0  0
    0.6120   -2.3011   -2.0847 H   0  0  0  0  0  0  0  0  0  0  0  0
   -0.4412   -0.1057   -0.9662 H   0  0  0  0  0  0  0  0  0  0  0  0
    0.6120    0.7842   -2.3483 H   0  0  0  0  0  0  0  0  0  0  0  0
    1.4897   -0.1092   -1.0965 H   0  0  0  0  0  0  0  0  0  0  0  0
   -2.2905    1.1800   -0.5114 C   0  0  0  0  0  0  0  0  0  0  0  0
   -1.4953   -0.0852   -0.1842 C   0  0  0  0  0  0  0  0  0  0  0  0
   -2.3963   -1.1562    0.4332 C   0  0  0  0  0  0  0  0  0  0  0  0
   -0.3029    0.2178    0.6988 C   0  0  0  0  0  0  0  0  0  0  0  0
   -0.4695    0.7427    1.9785 C   0  0  0  0  0  0  0  0  0  0  0  0
    0.6223    1.0191    2.7844 C   0  0  0  0  0  0  0  0  0  0  0  0
    1.9088    0.7751    2.3250 C   0  0  0  0  0  0  0  0  0  0  0  0
    2.0898    0.2534    1.0548 C   0  0  0  0  0  0  0  0  0  0  0  0
    0.9914   -0.0214    0.2523 C   0  0  0  0  0  0  0  0  0  0  0  0
   -1.6539    1.9364   -0.9727 H   0  0  0  0  0  0  0  0  0  0  0  0
   -3.1083    0.9529   -1.1985 H   0  0  0  0  0  0  0  0  0  0  0  0
   -2.7253    1.6139    0.3920 H   0  0  0  0  0  0  0  0  0  0  0  0
   -2.8349   -0.8063    1.3706 H   0  0  0  0  0  0  0  0  0  0  0  0
   -3.2152   -1.4068   -0.2444 H   0  0  0  0  0  0  0  0  0  0  0  0
   -1.8353   -2.0673    0.6461 H   0  0  0  0  0  0  0  0  0  0  0  0
   -1.4674    0.9395    2.3533 H   0  0  0  0  0  0  0  0  0  0  0  0
    0.4694    1.4270    3.7759 H   0  0  0  0  0  0  0  0  0  0  0  0
    2.7630    0.9908    2.9542 H   0  0  0  0  0  0  0  0  0  0  0  0
    3.0887    0.0584    0.6846 H   0  0  0  0  0  0  0  0  0  0  0  0
    1.1431   -0.4297   -0.7407 H   0  0  0  0  0  0  0  0  0  0  0  0
  1  2  2  3
  1  4  1  0
  1  5  1  0
  2  6  1  0
  3  8  1  0
  3  9  1  0
  7 11  1  0
 10 11  1  0
 10 19  1  0
 10 20  1  0
 10 21  1  0
 11 12  1  0
 11 13  1  0
 12 22  1  0
 12 23  1  0
 12 24  1  0
 13 14  2  0
 13 18  1  0
 14 15  1  0
 14 25  1  0
 15 16  2  0
 15 26  1  0
 16 17  1  0
 16 27  1  0
 17 18  2  0
 17 28  1  0
 18 29  1  0
M  RAD  2   2   2   3   3
M  END
>  <reaction>  (11) 
rxn_1011

>  <mol_properties>  (11) 
{"1": {"label": "*4", "atom_type": "Cd"}, "2": {"label": "*3", "atom_type": "Cs"}, "6": {"label": "*2", "atom_type": "H0"}, "10": {"label": "*1", "atom_type": "Cs"}, "12": {"label": "*0", "atom_type": "Cd"}}

>  <type>  (11) 
unop_7

>  <geom_source>  (11) 
Heuristics

$$$$

     RDKit          3D

 29 28  0  0  0  0  0  0  0  0999 V2000
    2.8612   -1.0890   -2.9789 C   0  0  0  0  0  0  0  0  0  0  0  0
    2.8612   -1.0890   -1.6551 C   0  0  0  0  0  0  0  0  0  0  0  0
    2.8612    0.1331   -0.7946 C   0  0  0  0  0  0  0  0  0  0  0  0
    2.8612   -2.0118   -3.5454 H   0  0  0  0  0  0  0  0  0  0  0  0
    2.8612   -0.1634   -3.5449 H   0  0  0  0  0  0  0  0  0  0  0  0
    2.8612   -2.0417   -1.1316 H   0  0  0  0  0  0  0  0  0  0  0  0
    1.8080    0.1537   -0.0132 H   0  0  0  0  0  0  0  0  0  0  0  0
    2.8612    1.0436   -1.3952 H   0  0  0  0  0  0  0  0  0  0  0  0
    3.7389    0.1503   -0.1434 H   0  0  0  0  0  0  0  0  0  0  0  0
    1.1276   -0.5396    2.0692 C   0  0  0  0  0  0  0  0  0  0  0  0
    0.7539    0.1742    0.7689 C   0  0  0  0  0  3  0  0  0  0  0  0
    1.3000    1.6030    0.7499 C   0  0  0  0  0  0  0  0  0  0  0  0
   -0.7404    0.1446    0.5256 C   0  0  0  0  0  0  0  0  0  0  0  0
   -1.6260    0.7593    1.4081 C   0  0  0  0  0  0  0  0  0  0  0  0
   -2.9923    0.7310    1.1837 C   0  0  0  0  0  0  0  0  0  0  0  0
   -3.5033    0.0846    0.0672 C   0  0  0  0  0  0  0  0  0  0  0  0
   -2.6349   -0.5309   -0.8190 C   0  0  0  0  0  0  0  0  0  0  0  0
   -1.2669   -0.4989   -0.5883 C   0  0  0  0  0  0  0  0  0  0  0  0
    0.7584   -1.5662    2.0745 H   0  0  0  0  0  0  0  0  0  0  0  0
    2.2119   -0.5634    2.1966 H   0  0  0  0  0  0  0  0  0  0  0  0
    0.7017   -0.0261    2.9343 H   0  0  0  0  0  0  0  0  0  0  0  0
    0.8803    2.1936    1.5675 H   0  0  0  0  0  0  0  0  0  0  0  0
    2.3860    1.6009    0.8641 H   0  0  0  0  0  0  0  0  0  0  0  0
    1.0538    2.1058   -0.1864 H   0  0  0  0  0  0  0  0  0  0  0  0
   -1.2440    1.2687    2.2854 H   0  0  0  0  0  0  0  0  0  0  0  0
   -3.6623    1.2156    1.8832 H   0  0  0  0  0  0  0  0  0  0  0  0
   -4.5712    0.0620   -0.1091 H   0  0  0  0  0  0  0  0  0  0  0  0
   -3.0212   -1.0386   -1.6941 H   0  0  0  0  0  0  0  0  0  0  0  0
   -0.5948   -0.9836   -1.2878 H   0  0  0  0  0  0  0  0  0  0  0  0
  1  2  2  3
  1  4  1  0
  1  5  1  0
  2  3  1  0
  2  6  1  0
  3  7  1  0
  3  8  1  0
  3  9  1  0
 10 11  1  0
 10 19  1  0
 10 20  1  0
 10 21  1  0
 11 12  1  0
 11 13  1  0
 12 22  1  0
 12 23  1  0
 12 24  1  0
 13 14  2  0
 13 18  1  0
 14 15  1  0
 14 25  1  0
 15 16  2  0
 15 26  1  0
 16 17  1  0
 16 27  1  0
 17 18  2  0
 17 28  1  0
 18 29  1  0
M  RAD  1  11   2
M  END
>  <reaction>  (12) 
rxn_1011

>  <mol_properties>  (12) 
{"1": {"label": "*4", "atom_type": "Cd"}, "2": {"label": "*3", "atom_type": "Cs"}, "6": {"label": "*2", "atom_type": "H0"}, "10": {"label": "*1", "atom_type": "Cs"}, "12": {"label": "*0", "atom_type": "Cd"}}

>  <type>  (12) 
unop_8

>  <geom_source>  (12) 
Heuristics

$$$$

     RDKit          3D

 29 28  0  0  0  0  0  0  0  0999 V2000
    1.7752   -2.3355   -3.0213 C   0  0  0  0  0  0  0  0  0  0  0  0
    1.7752   -2.3355   -1.6976 C   0  0  0  0  0  0  0  0  0  0  0  0
    1.7752   -1.1133   -0.8371 C   0  0  0  0  0  0  0  0  0  0  0  0
    1.7752   -3.2582   -3.5878 H   0  0  0  0  0  0  0  0  0  0  0  0
    1.7752   -1.4099   -3.5873 H   0  0  0  0  0  0  0  0  0  0  0  0
    1.7752   -3.2881   -1.1741 H   0  0  0  0  0  0  0  0  0  0  0  0
    0.7220   -1.0928   -0.0556 H   0  0  0  0  0  0  0  0  0  0  0  0
    1.7752   -0.2028   -1.4377 H   0  0  0  0  0  0  0  0  0  0  0  0
    2.6529   -1.0962   -0.1858 H   0  0  0  0  0  0  0  0  0  0  0  0
   -1.4631   -1.8014   -0.0009 C   0  0  0  0  0  0  0  0  0  0  0  0
   -0.3321   -1.0722    0.7265 C   0  0  0  0  0  3  0  0  0  0  0  0
   -0.2598   -1.4960    2.1945 C   0  0  0  0  0  0  0  0  0  0  0  0
   -0.4550    0.4304    0.5848 C   0  0  0  0  0  0  0  0  0  0  0  0
   -1.5572    1.1139    1.0938 C   0  0  0  0  0  0  0  0  0  0  0  0
   -1.6676    2.4882    0.9631 C   0  0  0  0  0  0  0  0  0  0  0  0
   -0.6737    3.2104    0.3179 C   0  0  0  0  0  0  0  0  0  0  0  0
    0.4279    2.5443   -0.1932 C   0  0  0  0  0  0  0  0  0  0  0  0
    0.5324    1.1671   -0.0589 C   0  0  0  0  0  0  0  0  0  0  0  0
   -1.5014   -1.5173   -1.0535 H   0  0  0  0  0  0  0  0  0  0  0  0
   -1.3239   -2.8829    0.0586 H   0  0  0  0  0  0  0  0  0  0  0  0
   -2.4320   -1.5653    0.4452 H   0  0  0  0  0  0  0  0  0  0  0  0
   -1.1854   -1.2489    2.7195 H   0  0  0  0  0  0  0  0  0  0  0  0
   -0.1085   -2.5744    2.2762 H   0  0  0  0  0  0  0  0  0  0  0  0
    0.5608   -0.9938    2.7090 H   0  0  0  0  0  0  0  0  0  0  0  0
   -2.3428    0.5655    1.6007 H   0  0  0  0  0  0  0  0  0  0  0  0
   -2.5333    2.9990    1.3665 H   0  0  0  0  0  0  0  0  0  0  0  0
   -0.7591    4.2847    0.2153 H   0  0  0  0  0  0  0  0  0  0  0  0
    1.2103    3.0965   -0.6989 H   0  0  0  0  0  0  0  0  0  0  0  0
    1.3986    0.6544   -0.4623 H   0  0  0  0  0  0  0  0  0  0  0  0
  1  2  2  3
  1  4  1  0
  1  5  1  0
  2  3  1  0
  2  6  1  0
  3  7  1  0
  3  8  1  0
  3  9  1  0
 10 11  1  0
 10 19  1  0
 10 20  1  0
 10 21  1  0
 11 12  1  0
 11 13  1  0
 12 22  1  0
 12 23  1  0
 12 24  1  0
 13 14  2  0
 13 18  1  0
 14 15  1  0
 14 25  1  0
 15 16  2  0
 15 26  1  0
 16 17  1  0
 16 27  1  0
 17 18  2  0
 17 28  1  0
 18 29  1  0
M  RAD  1  11   2
M  END
>  <reaction>  (13) 
rxn_1011

>  <mol_properties>  (13) 
{"1": {"label": "*4", "atom_type": "Cd"}, "2": {"label": "*3", "atom_type": "Cs"}, "6": {"label": "*2", "atom_type": "H0"}, "10": {"label": "*1", "atom_type": "Cs"}, "12": {"label": "*0", "atom_type": "Cd"}}

>  <type>  (13) 
unop_9

>  <geom_source>  (13) 
Heuristics

$$$$

     RDKit          3D

 29 28  0  0  0  0  0  0  0  0999 V2000
    2.8028   -1.4292   -2.9572 C   0  0  0  0  0  0  0  0  0  0  0  0
    2.8028   -1.4292   -1.6335 C   0  0  0  0  0  0  0  0  0  0  0  0
    2.8028   -0.2070   -0.7730 C   0  0  0  0  0  0  0  0  0  0  0  0
    2.8028   -2.3519   -3.5237 H   0  0  0  0  0  0  0  0  0  0  0  0
    2.8028   -0.5036   -3.5232 H   0  0  0  0  0  0  0  0  0  0  0  0
    2.8028   -2.3818   -1.1100 H   0  0  0  0  0  0  0  0  0  0  0  0
    1.7495   -0.1865    0.0085 H   0  0  0  0  0  0  0  0  0  0  0  0
    2.8028    0.7034   -1.3736 H   0  0  0  0  0  0  0  0  0  0  0  0
    3.6805   -0.1899   -0.1218 H   0  0  0  0  0  0  0  0  0  0  0  0
    0.7464   -1.4166    1.6699 C   0  0  0  0  0  0  0  0  0  0  0  0
    0.6954   -0.1659    0.7906 C   0  0  0  0  0  3  0  0  0  0  0  0
    1.5058    0.9743    1.4094 C   0  0  0  0  0  0  0  0  0  0  0  0
   -0.7301    0.2553    0.5015 C   0  0  0  0  0  0  0  0  0  0  0  0
   -1.5895    0.6402    1.5283 C   0  0  0  0  0  0  0  0  0  0  0  0
   -2.8928    1.0251    1.2617 C   0  0  0  0  0  0  0  0  0  0  0  0
   -3.3655    1.0331   -0.0429 C   0  0  0  0  0  0  0  0  0  0  0  0
   -2.5225    0.6530   -1.0740 C   0  0  0  0  0  0  0  0  0  0  0  0
   -1.2176    0.2684   -0.8001 C   0  0  0  0  0  0  0  0  0  0  0  0
    0.1878   -2.2378    1.2186 H   0  0  0  0  0  0  0  0  0  0  0  0
    1.7785   -1.7419    1.8159 H   0  0  0  0  0  0  0  0  0  0  0  0
    0.3165   -1.2206    2.6549 H   0  0  0  0  0  0  0  0  0  0  0  0
    1.1032    1.2564    2.3850 H   0  0  0  0  0  0  0  0  0  0  0  0
    2.5456    0.6731    1.5528 H   0  0  0  0  0  0  0  0  0  0  0  0
    1.4892    1.8597    0.7722 H   0  0  0  0  0  0  0  0  0  0  0  0
   -1.2366    0.6398    2.5532 H   0  0  0  0  0  0  0  0  0  0  0  0
   -3.5435    1.3204    2.0756 H   0  0  0  0  0  0  0  0  0  0  0  0
   -4.3842    1.3339   -0.2523 H   0  0  0  0  0  0  0  0  0  0  0  0
   -2.8794    0.6550   -2.0965 H   0  0  0  0  0  0  0  0  0  0  0  0
   -0.5650   -0.0276   -1.6140 H   0  0  0  0  0  0  0  0  0  0  0  0
  1  2  2  3
  1  4  1  0
  1  5  1  0
  2  3  1  0
  2  6  1  0
  3  7  1  0
  3  8  1  0
  3  9  1  0
 10 11  1  0
 10 19  1  0
 10 20  1  0
 10 21  1  0
 11 12  1  0
 11 13  1  0
 12 22  1  0
 12 23  1  0
 12 24  1  0
 13 14  2  0
 13 18  1  0
 14 15  1  0
 14 25  1  0
 15 16  2  0
 15 26  1  0
 16 17  1  0
 16 27  1  0
 17 18  2  0
 17 28  1  0
 18 29  1  0
M  RAD  1  11   2
M  END
>  <reaction>  (14) 
rxn_1011

>  <mol_properties>  (14) 
{"1": {"label": "*4", "atom_type": "Cd"}, "2": {"label": "*3", "atom_type": "Cs"}, "6": {"label": "*2", "atom_type": "H0"}, "10": {"label": "*1", "atom_type": "Cs"}, "12": {"label": "*0", "atom_type": "Cd"}}

>  <type>  (14) 
unop_10

>  <geom_source>  (14) 
Heuristics

$$$$

     RDKit          3D

 29 28  0  0  0  0  0  0  0  0999 V2000
    0.8173   -0.6136   -4.0674 C   0  0  0  0  0  0  0  0  0  0  0  0
    0.8173   -0.6136   -2.7436 C   0  0  0  0  0  0  0  0  0  0  0  0
    0.8173    0.6086   -1.8831 C   0  0  0  0  0  0  0  0  0  0  0  0
    0.8173   -1.5363   -4.6339 H   0  0  0  0  0  0  0  0  0  0  0  0
    0.8173    0.3120   -4.6334 H   0  0  0  0  0  0  0  0  0  0  0  0
    0.8173   -1.5662   -2.2201 H   0  0  0  0  0  0  0  0  0  0  0  0
   -0.2360    0.6291   -1.1017 H   0  0  0  0  0  0  0  0  0  0  0  0
    0.8173    1.5190   -2.4837 H   0  0  0  0  0  0  0  0  0  0  0  0
    1.6950    0.6257   -1.2319 H   0  0  0  0  0  0  0  0  0  0  0  0
   -1.6491    2.1146   -0.0642 C   0  0  0  0  0  0  0  0  0  0  0  0
   -1.2901    0.6497   -0.3196 C   0  0  0  0  0  3  0  0  0  0  0  0
   -2.5478   -0.2159   -0.4145 C   0  0  0  0  0  0  0  0  0  0  0  0
   -0.3263    0.1215    0.7222 C   0  0  0  0  0  0  0  0  0  0  0  0
   -0.6841    0.0573    2.0672 C   0  0  0  0  0  0  0  0  0  0  0  0
    0.1988   -0.4261    3.0184 C   0  0  0  0  0  0  0  0  0  0  0  0
    1.4631   -0.8571    2.6424 C   0  0  0  0  0  0  0  0  0  0  0  0
    1.8327   -0.7992    1.3089 C   0  0  0  0  0  0  0  0  0  0  0  0
    0.9432   -0.3138    0.3607 C   0  0  0  0  0  0  0  0  0  0  0  0
   -0.7542    2.7368   -0.0191 H   0  0  0  0  0  0  0  0  0  0  0  0
   -2.2938    2.4963   -0.8586 H   0  0  0  0  0  0  0  0  0  0  0  0
   -2.1837    2.2276    0.8818 H   0  0  0  0  0  0  0  0  0  0  0  0
   -3.1146   -0.1866    0.5189 H   0  0  0  0  0  0  0  0  0  0  0  0
   -3.2015    0.1424   -1.2124 H   0  0  0  0  0  0  0  0  0  0  0  0
   -2.2943   -1.2570   -0.6193 H   0  0  0  0  0  0  0  0  0  0  0  0
   -1.6677    0.3899    2.3784 H   0  0  0  0  0  0  0  0  0  0  0  0
   -0.1005   -0.4670    4.0584 H   0  0  0  0  0  0  0  0  0  0  0  0
    2.1540   -1.2352    3.3853 H   0  0  0  0  0  0  0  0  0  0  0  0
    2.8165   -1.1326    1.0026 H   0  0  0  0  0  0  0  0  0  0  0  0
    1.2415   -0.2722   -0.6810 H   0  0  0  0  0  0  0  0  0  0  0  0
  1  2  2  3
  1  4  1  0
  1  5  1  0
  2  3  1  0
  2  6  1  0
  3  7  1  0
  3  8  1  0
  3  9  1  0
 10 11  1  0
 10 19  1  0
 10 20  1  0
 10 21  1  0
 11 12  1  0
 11 13  1  0
 12 22  1  0
 12 23  1  0
 12 24  1  0
 13 14  2  0
 13 18  1  0
 14 15  1  0
 14 25  1  0
 15 16  2  0
 15 26  1  0
 16 17  1  0
 16 27  1  0
 17 18  2  0
 17 28  1  0
 18 29  1  0
M  RAD  1  11   2
M  END
>  <reaction>  (15) 
rxn_1011

>  <mol_properties>  (15) 
{"1": {"label": "*4", "atom_type": "Cd"}, "2": {"label": "*3", "atom_type": "Cs"}, "6": {"label": "*2", "atom_type": "H0"}, "10": {"label": "*1", "atom_type": "Cs"}, "12": {"label": "*0", "atom_type": "Cd"}}

>  <type>  (15) 
unop_11

>  <geom_source>  (15) 
Heuristics

$$$$

     RDKit          3D

 29 28  0  0  0  0  0  0  0  0999 V2000
    2.3109   -2.0982   -2.8831 C   0  0  0  0  0  0  0  0  0  0  0  0
    2.3109   -2.0982   -1.5593 C   0  0  0  0  0  0  0  0  0  0  0  0
    2.3109   -0.8760   -0.6988 C   0  0  0  0  0  0  0  0  0  0  0  0
    2.3109   -3.0209   -3.4495 H   0  0  0  0  0  0  0  0  0  0  0  0
    2.3109   -1.1726   -3.4491 H   0  0  0  0  0  0  0  0  0  0  0  0
    2.3109   -3.0508   -1.0358 H   0  0  0  0  0  0  0  0  0  0  0  0
    1.2576   -0.8555    0.0827 H   0  0  0  0  0  0  0  0  0  0  0  0
    2.3109    0.0344   -1.2994 H   0  0  0  0  0  0  0  0  0  0  0  0
    3.1886   -0.8589   -0.0476 H   0  0  0  0  0  0  0  0  0  0  0  0
   -0.6142   -2.0945    0.5734 C   0  0  0  0  0  0  0  0  0  0  0  0
    0.2035   -0.8349    0.8647 C   0  0  0  0  0  3  0  0  0  0  0  0
    0.7001   -0.8246    2.3115 C   0  0  0  0  0  0  0  0  0  0  0  0
   -0.5711    0.4229    0.5315 C   0  0  0  0  0  0  0  0  0  0  0  0
   -1.7542    0.7373    1.1965 C   0  0  0  0  0  0  0  0  0  0  0  0
   -2.4611    1.8881    0.8903 C   0  0  0  0  0  0  0  0  0  0  0  0
   -1.9972    2.7520   -0.0916 C   0  0  0  0  0  0  0  0  0  0  0  0
   -0.8224    2.4524   -0.7612 C   0  0  0  0  0  0  0  0  0  0  0  0
   -0.1188    1.2976   -0.4495 C   0  0  0  0  0  0  0  0  0  0  0  0
   -0.9499   -2.1143   -0.4644 H   0  0  0  0  0  0  0  0  0  0  0  0
   -0.0190   -2.9908    0.7597 H   0  0  0  0  0  0  0  0  0  0  0  0
   -1.4990   -2.1435    1.2124 H   0  0  0  0  0  0  0  0  0  0  0  0
   -0.1373   -0.8280    3.0131 H   0  0  0  0  0  0  0  0  0  0  0  0
    1.3086   -1.7081    2.5153 H   0  0  0  0  0  0  0  0  0  0  0  0
    1.3026    0.0620    2.5143 H   0  0  0  0  0  0  0  0  0  0  0  0
   -2.1310    0.0736    1.9663 H   0  0  0  0  0  0  0  0  0  0  0  0
   -3.3786    2.1127    1.4201 H   0  0  0  0  0  0  0  0  0  0  0  0
   -2.5491    3.6519   -0.3318 H   0  0  0  0  0  0  0  0  0  0  0  0
   -0.4498    3.1185   -1.5295 H   0  0  0  0  0  0  0  0  0  0  0  0
    0.8000    1.0714   -0.9791 H   0  0  0  0  0  0  0  0  0  0  0  0
  1  2  2  3
  1  4  1  0
  1  5  1  0
  2  3  1  0
  2  6  1  0
  3  7  1  0
  3  8  1  0
  3  9  1  0
 10 11  1  0
 10 19  1  0
 10 20  1  0
 10 21  1  0
 11 12  1  0
 11 13  1  0
 12 22  1  0
 12 23  1  0
 12 24  1  0
 13 14  2  0
 13 18  1  0
 14 15  1  0
 14 25  1  0
 15 16  2  0
 15 26  1  0
 16 17  1  0
 16 27  1  0
 17 18  2  0
 17 28  1  0
 18 29  1  0
M  RAD  1  11   2
M  END
>  <reaction>  (16) 
rxn_1011

>  <mol_properties>  (16) 
{"1": {"label": "*4", "atom_type": "Cd"}, "2": {"label": "*3", "atom_type": "Cs"}, "6": {"label": "*2", "atom_type": "H0"}, "10": {"label": "*1", "atom_type": "Cs"}, "12": {"label": "*0", "atom_type": "Cd"}}

>  <type>  (16) 
unop_12

>  <geom_source>  (16) 
Heuristics

$$$$

     RDKit          3D

 29 28  0  0  0  0  0  0  0  0999 V2000
   -0.0160   -0.8737   -0.1269 C   0  0  0  0  0  0  0  0  0  0  0  0
   -0.2113   -1.9420   -1.2078 C   0  0  0  0  0  0  0  0  0  0  0  0
    0.1984   -1.5120    1.2494 C   0  0  0  0  0  0  0  0  0  0  0  0
   -1.1770    0.1004   -0.1038 C   0  0  0  0  0  0  0  0  0  0  0  0
   -0.9558    1.4616   -0.3789 C   0  0  0  0  0  0  0  0  0  0  0  0
   -2.4854   -0.3320    0.1901 C   0  0  0  0  0  0  0  0  0  0  0  0
   -2.0192    2.3696   -0.3604 C   0  0  0  0  0  0  0  0  0  0  0  0
   -3.3121    1.9295   -0.0678 C   0  0  0  0  0  0  0  0  0  0  0  0
   -3.5448    0.5802    0.2072 C   0  0  0  0  0  0  0  0  0  0  0  0
    2.7253    0.4628    0.5225 C   0  0  0  0  0  0  0  0  0  0  0  0
    2.3959   -0.1292   -0.8105 C   0  0  0  0  0  0  0  0  0  0  0  0
    3.9664    0.8551    0.8183 C   0  0  0  0  0  3  0  0  0  0  0  0
    1.0997   -0.2256   -0.4264 H   0  0  0  0  0  0  0  0  0  0  0  0
   -1.0874   -2.5865   -0.9825 H   0  0  0  0  0  0  0  0  0  0  0  0
    0.6933   -2.5830   -1.2721 H   0  0  0  0  0  0  0  0  0  0  0  0
   -0.3635   -1.4576   -2.1957 H   0  0  0  0  0  0  0  0  0  0  0  0
   -0.6670   -2.1454    1.5381 H   0  0  0  0  0  0  0  0  0  0  0  0
    0.3389   -0.7205    2.0160 H   0  0  0  0  0  0  0  0  0  0  0  0
    1.1112   -2.1445    1.2335 H   0  0  0  0  0  0  0  0  0  0  0  0
    0.0379    1.8249   -0.6082 H   0  0  0  0  0  0  0  0  0  0  0  0
   -1.8403    3.4156   -0.5733 H   0  0  0  0  0  0  0  0  0  0  0  0
   -2.6875   -1.3730    0.4060 H   0  0  0  0  0  0  0  0  0  0  0  0
   -4.1335    2.6342   -0.0540 H   0  0  0  0  0  0  0  0  0  0  0  0
   -4.5471    0.2402    0.4339 H   0  0  0  0  0  0  0  0  0  0  0  0
    1.9360    0.5729    1.2590 H   0  0  0  0  0  0  0  0  0  0  0  0
    2.6100    0.6008   -1.6195 H   0  0  0  0  0  0  0  0  0  0  0  0
    2.9807   -1.0589   -0.9741 H   0  0  0  0  0  0  0  0  0  0  0  0
    4.7707    0.7538    0.0957 H   0  0  0  0  0  0  0  0  0  0  0  0
    4.1834    1.2822    1.7920 H   0  0  0  0  0  0  0  0  0  0  0  0
  1  2  1  0
  1  3  1  0
  1  4  1  0
  1 13  1  0
  2 14  1  0
  2 15  1  0
  2 16  1  0
  3 17  1  0
  3 18  1  0
  3 19  1  0
  4  5  2  0
  4  6  1  0
  5  7  1  0
  5 20  1  0
  6  9  2  0
  6 22  1  0
  7  8  2  0
  7 21  1  0
  8  9  1  0
  8 23  1  0
  9 24  1  0
 10 11  2  3
 10 12  1  0
 10 25  1  0
 11 26  1  0
 11 27  1  0
 12 28  1  0
 12 29  1  0
M  RAD  1  12   2
M  END
>  <reaction>  (17) 
rxn_1011

>  <mol_properties>  (17) 
{"1": {"label": "*4", "atom_type": "Cd"}, "2": {"label": "*3", "atom_type": "Cs"}, "6": {"label": "*2", "atom_type": "H0"}, "10": {"label": "*1", "atom_type": "Cs"}, "12": {"label": "*0", "atom_type": "Cd"}}

>  <type>  (17) 
unop_13

>  <geom_source>  (17) 
AutoTST

$$$$

     RDKit          3D

 29 28  0  0  0  0  0  0  0  0999 V2000
    2.6477   -1.7497   -2.9087 C   0  0  0  0  0  0  0  0  0  0  0  0
    2.6477   -1.7497   -1.5849 C   0  0  0  0  0  0  0  0  0  0  0  0
    2.6477   -0.5275   -0.7244 C   0  0  0  0  0  0  0  0  0  0  0  0
    2.6477   -2.6724   -3.4752 H   0  0  0  0  0  0  0  0  0  0  0  0
    2.6477   -0.8241   -3.4747 H   0  0  0  0  0  0  0  0  0  0  0  0
    2.6477   -2.7023   -1.0614 H   0  0  0  0  0  0  0  0  0  0  0  0
    1.5945   -0.5070    0.0570 H   0  0  0  0  0  0  0  0  0  0  0  0
    2.6477    0.3829   -1.3250 H   0  0  0  0  0  0  0  0  0  0  0  0
    3.5255   -0.5104   -0.0732 H   0  0  0  0  0  0  0  0  0  0  0  0
    0.1553   -1.9368    1.1359 C   0  0  0  0  0  0  0  0  0  0  0  0
    0.5404   -0.4864    0.8391 C   0  0  0  0  0  3  0  0  0  0  0  0
    1.3425    0.1164    1.9937 C   0  0  0  0  0  0  0  0  0  0  0  0
   -0.6725    0.3555    0.5027 C   0  0  0  0  0  0  0  0  0  0  0  0
   -1.6905    0.5556    1.4326 C   0  0  0  0  0  0  0  0  0  0  0  0
   -2.7989    1.3259    1.1230 C   0  0  0  0  0  0  0  0  0  0  0  0
   -2.9126    1.9145   -0.1285 C   0  0  0  0  0  0  0  0  0  0  0  0
   -1.9084    1.7244   -1.0632 C   0  0  0  0  0  0  0  0  0  0  0  0
   -0.8002    0.9513   -0.7466 C   0  0  0  0  0  0  0  0  0  0  0  0
   -0.3972   -2.3753    0.3036 H   0  0  0  0  0  0  0  0  0  0  0  0
    1.0463   -2.5422    1.3144 H   0  0  0  0  0  0  0  0  0  0  0  0
   -0.4744   -2.0004    2.0263 H   0  0  0  0  0  0  0  0  0  0  0  0
    0.7555    0.1267    2.9150 H   0  0  0  0  0  0  0  0  0  0  0  0
    2.2456   -0.4683    2.1808 H   0  0  0  0  0  0  0  0  0  0  0  0
    1.6375    1.1435    1.7738 H   0  0  0  0  0  0  0  0  0  0  0  0
   -1.6178    0.1032    2.4150 H   0  0  0  0  0  0  0  0  0  0  0  0
   -3.5783    1.4681    1.8614 H   0  0  0  0  0  0  0  0  0  0  0  0
   -3.7787    2.5169   -0.3715 H   0  0  0  0  0  0  0  0  0  0  0  0
   -1.9852    2.1783   -2.0434 H   0  0  0  0  0  0  0  0  0  0  0  0
   -0.0191    0.8081   -1.4849 H   0  0  0  0  0  0  0  0  0  0  0  0
  1  2  2  3
  1  4  1  0
  1  5  1  0
  2  3  1  0
  2  6  1  0
  3  7  1  0
  3  8  1  0
  3  9  1  0
 10 11  1  0
 10 19  1  0
 10 20  1  0
 10 21  1  0
 11 12  1  0
 11 13  1  0
 12 22  1  0
 12 23  1  0
 12 24  1  0
 13 14  2  0
 13 18  1  0
 14 15  1  0
 14 25  1  0
 15 16  2  0
 15 26  1  0
 16 17  1  0
 16 27  1  0
 17 18  2  0
 17 28  1  0
 18 29  1  0
M  RAD  1  11   2
M  END
>  <reaction>  (18) 
rxn_1011

>  <mol_properties>  (18) 
{"1": {"label": "*4", "atom_type": "Cd"}, "2": {"label": "*3", "atom_type": "Cs"}, "6": {"label": "*2", "atom_type": "H0"}, "10": {"label": "*1", "atom_type": "Cs"}, "12": {"label": "*0", "atom_type": "Cd"}}

>  <type>  (18) 
unop_14

>  <geom_source>  (18) 
gaussian_log

$$$$
