
     RDKit          3D

  9  8  0  0  0  0  0  0  0  0999 V2000
    1.1303   -0.2933   -0.7510 C   0  0  0  0  0  0  0  0  0  0  0  0
    0.2866    0.4560   -0.0588 C   0  0  0  0  0  0  0  0  0  0  0  0
   -0.9719   -0.0331    0.5823 C   0  0  0  0  0  0  0  0  0  0  0  0
    2.0274    0.1230   -1.1916 H   0  0  0  0  0  0  0  0  0  0  0  0
    0.9532   -1.3530   -0.9023 H   0  0  0  0  0  0  0  0  0  0  0  0
    0.5065    1.5132    0.0659 H   0  0  0  0  0  0  0  0  0  0  0  0
   -0.9526    0.1426    1.6610 H   0  0  0  0  0  0  0  0  0  0  0  0
   -1.1182   -1.1002    0.4106 H   0  0  0  0  0  0  0  0  0  0  0  0
   -1.8412    0.5010    0.1901 H   0  0  0  0  0  0  0  0  0  0  0  0
  1  2  2  3
  1  4  1  0
  1  5  1  0
  2  3  1  0
  2  6  1  0
  3  7  1  0
  3  8  1  0
  3  9  1  0
M  END
>  <reaction>  (1) 
rxn_1609

>  <mol_properties>  (1) 
{"1": {"label": "donator", "atom_type": "Cd"}, "5": {"label": "d_hydrogen", "atom_type": "H0"}}

>  <type>  (1) 
r1h

$$$$

     RDKit          3D

 11 10  0  0  0  0  0  0  0  0999 V2000
    2.0591    0.2533   -0.1061 C   0  0  0  0  0  0  0  0  0  0  0  0
    0.8045   -0.3111   -0.1535 C   0  0  0  0  0  0  0  0  0  0  0  0
   -0.3816    0.3942   -0.1885 C   0  0  0  0  0  3  0  0  0  0  0  0
   -1.7316   -0.2294   -0.2396 C   0  0  0  0  0  0  0  0  0  0  0  0
    2.9505   -0.3576   -0.0805 H   0  0  0  0  0  0  0  0  0  0  0  0
    2.1872    1.3290   -0.0933 H   0  0  0  0  0  0  0  0  0  0  0  0
    0.7385   -1.3970   -0.1643 H   0  0  0  0  0  0  0  0  0  0  0  0
   -0.3340    1.4795   -0.1783 H   0  0  0  0  0  0  0  0  0  0  0  0
   -1.6704   -1.3186   -0.2461 H   0  0  0  0  0  0  0  0  0  0  0  0
   -2.3404    0.0713    0.6191 H   0  0  0  0  0  0  0  0  0  0  0  0
   -2.2805    0.0851   -1.1331 H   0  0  0  0  0  0  0  0  0  0  0  0
  1  2  2  3
  1  5  1  0
  1  6  1  0
  2  3  1  0
  2  7  1  0
  3  4  1  0
  3  8  1  0
  4  9  1  0
  4 10  1  0
  4 11  1  0
M  RAD  1   3   2
M  END
>  <reaction>  (2) 
rxn_1609

>  <mol_properties>  (2) 
{"2": {"label": "acceptor", "atom_type": "Cs"}}

>  <type>  (2) 
r2

$$$$

     RDKit          3D

 12 11  0  0  0  0  0  0  0  0999 V2000
    1.9877    0.1011    0.4814 C   0  0  0  0  0  0  0  0  0  0  0  0
    0.8179    0.5502    0.0525 C   0  0  0  0  0  0  0  0  0  0  0  0
   -0.2939   -0.2692   -0.5320 C   0  0  0  0  0  0  0  0  0  0  0  0
   -0.0292   -1.7631   -0.6328 C   0  0  0  0  0  0  0  0  0  0  0  0
    2.2522   -0.9490    0.4436 H   0  0  0  0  0  0  0  0  0  0  0  0
    2.7295    0.7757    0.8896 H   0  0  0  0  0  0  0  0  0  0  0  0
    0.6162    1.6164    0.1190 H   0  0  0  0  0  0  0  0  0  0  0  0
   -0.5268    0.1319   -1.5245 H   0  0  0  0  0  0  0  0  0  0  0  0
   -1.1959   -0.0938    0.0644 H   0  0  0  0  0  0  0  0  0  0  0  0
    0.1590   -2.1992    0.3502 H   0  0  0  0  0  0  0  0  0  0  0  0
    0.8382   -1.9701   -1.2626 H   0  0  0  0  0  0  0  0  0  0  0  0
   -0.8879   -2.2759   -1.0672 H   0  0  0  0  0  0  0  0  0  0  0  0
  1  2  2  3
  1  5  1  0
  1  6  1  0
  2  3  1  0
  2  7  1  0
  3  4  1  0
  3  8  1  0
  3  9  1  0
  4 10  1  0
  4 11  1  0
  4 12  1  0
M  END
>  <reaction>  (3) 
rxn_1609

>  <mol_properties>  (3) 
{"2": {"label": "acceptor", "atom_type": "Cs"}, "11": {"label": "a_hydrogen", "atom_type": "H0"}}

>  <type>  (3) 
r2h

$$$$

     RDKit          3D

 20 18  0  0  0  0  0  0  0  0999 V2000
   -0.4200   -2.6044   -0.5860 C   0  0  0  0  0  0  0  0  0  0  0  0
    0.5265   -1.7826   -0.1368 C   0  0  0  0  0  0  0  0  0  0  0  0
    0.3632   -0.7472    0.8977 C   0  0  0  0  0  0  0  0  0  0  0  0
   -0.9226   -0.7358    1.6913 C   0  0  0  0  0  0  0  0  0  0  0  0
   -0.2123   -3.3185   -1.3724 H   0  0  0  0  0  0  0  0  0  0  0  0
   -1.4252   -2.6005   -0.1818 H   0  0  0  0  0  0  0  0  0  0  0  0
    1.5153   -1.8412   -0.5840 H   0  0  0  0  0  0  0  0  0  0  0  0
    1.2504   -0.6671    1.5287 H   0  0  0  0  0  0  0  0  0  0  0  0
   -1.0593   -1.6691    2.2443 H   0  0  0  0  0  0  0  0  0  0  0  0
   -0.9238    0.0846    2.4101 H   0  0  0  0  0  0  0  0  0  0  0  0
   -1.7869   -0.6043    1.0372 H   0  0  0  0  0  0  0  0  0  0  0  0
   -0.0770    1.3379   -1.7341 C   0  0  0  0  0  0  0  0  0  0  0  0
    0.2383    1.5830   -0.4848 C   0  0  0  0  0  3  0  0  0  0  0  0
    0.4464    2.8281    0.2837 C   0  0  0  0  0  0  0  0  0  0  0  0
   -0.1889    0.3211   -2.0976 H   0  0  0  0  0  0  0  0  0  0  0  0
   -0.2401    2.1415   -2.4518 H   0  0  0  0  0  0  0  0  0  0  0  0
    0.3872    0.3392    0.2879 H   0  0  0  0  0  0  0  0  0  0  0  0
   -0.2592    2.8939    1.1153 H   0  0  0  0  0  0  0  0  0  0  0  0
    0.3119    3.7107   -0.3505 H   0  0  0  0  0  0  0  0  0  0  0  0
    1.4522    2.8617    0.7085 H   0  0  0  0  0  0  0  0  0  0  0  0
  1  2  2  3
  1  5  1  0
  1  6  1  0
  2  3  1  0
  2  7  1  0
  3  4  1  0
  3  8  1  0
  3 17  1  0
  4  9  1  0
  4 10  1  0
  4 11  1  0
 12 13  2  3
 12 15  1  0
 12 16  1  0
 13 14  1  0
 14 18  1  0
 14 19  1  0
 14 20  1  0
M  RAD  1  13   2
M  END
>  <reaction>  (4) 
rxn_1609

>  <mol_properties>  (4) 
{"1": {"label": "*0", "atom_type": "Cd"}, "2": {"label": "*1", "atom_type": "Cs"}, "11": {"label": "*4", "atom_type": "Cd"}, "12": {"label": "*3", "atom_type": "Cd"}, "16": {"label": "*2", "atom_type": "H0"}}

>  <type>  (4) 
ts

$$$$

     RDKit          3D

 20 18  0  0  0  0  0  0  0  0999 V2000
    1.4644   -1.9516    1.6928 C   0  0  0  0  0  0  0  0  0  0  0  0
    0.9203   -0.8614    1.1740 C   0  0  0  0  0  0  0  0  0  0  0  0
   -0.3141   -0.7962    0.3249 C   0  0  0  0  0  3  0  0  0  0  0  0
   -0.9925   -2.1277    0.0445 C   0  0  0  0  0  0  0  0  0  0  0  0
    2.3618   -1.8955    2.2959 H   0  0  0  0  0  0  0  0  0  0  0  0
    1.0414   -2.9373    1.5391 H   0  0  0  0  0  0  0  0  0  0  0  0
    1.3957    0.0971    1.3670 H   0  0  0  0  0  0  0  0  0  0  0  0
   -1.0237   -0.1151    0.8075 H   0  0  0  0  0  0  0  0  0  0  0  0
   -1.3089   -2.6137    0.9696 H   0  0  0  0  0  0  0  0  0  0  0  0
   -1.8769   -1.9838   -0.5770 H   0  0  0  0  0  0  0  0  0  0  0  0
   -0.3221   -2.8111   -0.4803 H   0  0  0  0  0  0  0  0  0  0  0  0
   -0.3141    1.4991   -2.2602 C   0  0  0  0  0  0  0  0  0  0  0  0
   -0.3141    1.4991   -0.9365 C   0  0  0  0  0  0  0  0  0  0  0  0
   -0.3141    2.7213   -0.0760 C   0  0  0  0  0  0  0  0  0  0  0  0
   -0.3141    0.5764   -2.8267 H   0  0  0  0  0  0  0  0  0  0  0  0
   -0.3141    2.4247   -2.8262 H   0  0  0  0  0  0  0  0  0  0  0  0
   -0.3141    0.3560   -0.3083 H   0  0  0  0  0  0  0  0  0  0  0  0
   -1.1918    2.7384    0.5752 H   0  0  0  0  0  0  0  0  0  0  0  0
   -0.3141    3.6318   -0.6766 H   0  0  0  0  0  0  0  0  0  0  0  0
    0.5636    2.7384    0.5752 H   0  0  0  0  0  0  0  0  0  0  0  0
  1  2  2  3
  1  5  1  0
  1  6  1  0
  2  3  1  0
  2  7  1  0
  3  4  1  0
  3  8  1  0
  4  9  1  0
  4 10  1  0
  4 11  1  0
 12 13  2  3
 12 15  1  0
 12 16  1  0
 13 14  1  0
 13 17  1  0
 14 18  1  0
 14 19  1  0
 14 20  1  0
M  RAD  1   3   2
M  END
>  <reaction>  (5) 
rxn_1609

>  <mol_properties>  (5) 
{"1": {"label": "*0", "atom_type": "Cd"}, "2": {"label": "*1", "atom_type": "Cs"}, "11": {"label": "*4", "atom_type": "Cd"}, "12": {"label": "*3", "atom_type": "Cd"}, "16": {"label": "*2", "atom_type": "H0"}}

>  <type>  (5) 
unop_1

>  <geom_source>  (5) 
Heuristics

$$$$

     RDKit          3D

 20 18  0  0  0  0  0  0  0  0999 V2000
    0.4193   -2.9067   -0.2778 C   0  0  0  0  0  0  0  0  0  0  0  0
    0.7459   -1.6335   -0.1156 C   0  0  0  0  0  0  0  0  0  0  0  0
    0.0332   -0.6305    0.7418 C   0  0  0  0  0  3  0  0  0  0  0  0
   -1.1838   -1.1499    1.4908 C   0  0  0  0  0  0  0  0  0  0  0  0
    0.9999   -3.5547   -0.9220 H   0  0  0  0  0  0  0  0  0  0  0  0
   -0.4333   -3.3522    0.2209 H   0  0  0  0  0  0  0  0  0  0  0  0
    1.6140   -1.2497   -0.6457 H   0  0  0  0  0  0  0  0  0  0  0  0
    0.7556   -0.2168    1.4538 H   0  0  0  0  0  0  0  0  0  0  0  0
   -0.9150   -1.9630    2.1680 H   0  0  0  0  0  0  0  0  0  0  0  0
   -1.6358   -0.3553    2.0854 H   0  0  0  0  0  0  0  0  0  0  0  0
   -1.9428   -1.5253    0.8017 H   0  0  0  0  0  0  0  0  0  0  0  0
    0.0332    1.6647   -1.8434 C   0  0  0  0  0  0  0  0  0  0  0  0
    0.0332    1.6647   -0.5196 C   0  0  0  0  0  0  0  0  0  0  0  0
    0.0332    2.8869    0.3409 C   0  0  0  0  0  0  0  0  0  0  0  0
    0.0332    0.7420   -2.4098 H   0  0  0  0  0  0  0  0  0  0  0  0
    0.0332    2.5903   -2.4094 H   0  0  0  0  0  0  0  0  0  0  0  0
    0.0332    0.5216    0.1086 H   0  0  0  0  0  0  0  0  0  0  0  0
   -0.8445    2.9040    0.9921 H   0  0  0  0  0  0  0  0  0  0  0  0
    0.0332    3.7974   -0.2597 H   0  0  0  0  0  0  0  0  0  0  0  0
    0.9109    2.9040    0.9921 H   0  0  0  0  0  0  0  0  0  0  0  0
  1  2  2  3
  1  5  1  0
  1  6  1  0
  2  3  1  0
  2  7  1  0
  3  4  1  0
  3  8  1  0
  4  9  1  0
  4 10  1  0
  4 11  1  0
 12 13  2  3
 12 15  1  0
 12 16  1  0
 13 14  1  0
 13 17  1  0
 14 18  1  0
 14 19  1  0
 14 20  1  0
M  RAD  1   3   2
M  END
>  <reaction>  (6) 
rxn_1609

>  <mol_properties>  (6) 
{"1": {"label": "*0", "atom_type": "Cd"}, "2": {"label": "*1", "atom_type": "Cs"}, "11": {"label": "*4", "atom_type": "Cd"}, "12": {"label": "*3", "atom_type": "Cd"}, "16": {"label": "*2", "atom_type": "H0"}}

>  <type>  (6) 
unop_2

>  <geom_source>  (6) 
Heuristics

$$$$

     RDKit          3D

 20 18  0  0  0  0  0  0  0  0999 V2000
    1.0927   -1.6116    2.1985 C   0  0  0  0  0  0  0  0  0  0  0  0
    0.4067   -0.6927    1.5361 C   0  0  0  0  0  0  0  0  0  0  0  0
   -0.3060   -0.8788    0.2298 C   0  0  0  0  0  3  0  0  0  0  0  0
   -0.2186   -2.2704   -0.3765 C   0  0  0  0  0  0  0  0  0  0  0  0
    1.5745   -1.3787    3.1396 H   0  0  0  0  0  0  0  0  0  0  0  0
    1.2016   -2.6259    1.8331 H   0  0  0  0  0  0  0  0  0  0  0  0
    0.3365    0.3064    1.9589 H   0  0  0  0  0  0  0  0  0  0  0  0
   -1.3569   -0.6043    0.3732 H   0  0  0  0  0  0  0  0  0  0  0  0
   -0.6472   -3.0208    0.2907 H   0  0  0  0  0  0  0  0  0  0  0  0
   -0.7633   -2.3121   -1.3203 H   0  0  0  0  0  0  0  0  0  0  0  0
    0.8174   -2.5516   -0.5752 H   0  0  0  0  0  0  0  0  0  0  0  0
   -0.3060    1.4165   -2.3553 C   0  0  0  0  0  0  0  0  0  0  0  0
   -0.3060    1.4165   -1.0316 C   0  0  0  0  0  0  0  0  0  0  0  0
   -0.3060    2.6387   -0.1711 C   0  0  0  0  0  0  0  0  0  0  0  0
   -0.3060    0.4938   -2.9218 H   0  0  0  0  0  0  0  0  0  0  0  0
   -0.3060    2.3421   -2.9213 H   0  0  0  0  0  0  0  0  0  0  0  0
   -0.3060    0.2734   -0.4033 H   0  0  0  0  0  0  0  0  0  0  0  0
   -1.1838    2.6558    0.4802 H   0  0  0  0  0  0  0  0  0  0  0  0
   -0.3060    3.5491   -0.7717 H   0  0  0  0  0  0  0  0  0  0  0  0
    0.5717    2.6558    0.4802 H   0  0  0  0  0  0  0  0  0  0  0  0
  1  2  2  3
  1  5  1  0
  1  6  1  0
  2  3  1  0
  2  7  1  0
  3  4  1  0
  3  8  1  0
  4  9  1  0
  4 10  1  0
  4 11  1  0
 12 13  2  3
 12 15  1  0
 12 16  1  0
 13 14  1  0
 13 17  1  0
 14 18  1  0
 14 19  1  0
 14 20  1  0
M  RAD  1   3   2
M  END
>  <reaction>  (7) 
rxn_1609

>  <mol_properties>  (7) 
{"1": {"label": "*0", "atom_type": "Cd"}, "2": {"label": "*1", "atom_type": "Cs"}, "11": {"label": "*4", "atom_type": "Cd"}, "12": {"label": "*3", "atom_type": "Cd"}, "16": {"label": "*2", "atom_type": "H0"}}

>  <type>  (7) 
unop_3

>  <geom_source>  (7) 
Heuristics

$$$$

     RDKit          3D

 20 18  0  0  0  0  0  0  0  0999 V2000
   -1.8718   -1.8312    0.6406 C   0  0  0  0  0  0  0  0  0  0  0  0
   -0.6995   -1.8547    0.0250 C   0  0  0  0  0  0  0  0  0  0  0  0
    0.5350   -1.1030    0.4251 C   0  0  0  0  0  3  0  0  0  0  0  0
    0.4041   -0.2329    1.6652 C   0  0  0  0  0  0  0  0  0  0  0  0
   -2.7079   -2.4123    0.2725 H   0  0  0  0  0  0  0  0  0  0  0  0
   -2.0453   -1.2367    1.5298 H   0  0  0  0  0  0  0  0  0  0  0  0
   -0.5927   -2.4729   -0.8629 H   0  0  0  0  0  0  0  0  0  0  0  0
    1.3440   -1.8279    0.5669 H   0  0  0  0  0  0  0  0  0  0  0  0
    0.1374   -0.8283    2.5405 H   0  0  0  0  0  0  0  0  0  0  0  0
    1.3460    0.2732    1.8794 H   0  0  0  0  0  0  0  0  0  0  0  0
   -0.3642    0.5315    1.5335 H   0  0  0  0  0  0  0  0  0  0  0  0
    0.5350    1.1923   -2.1600 C   0  0  0  0  0  0  0  0  0  0  0  0
    0.5350    1.1923   -0.8363 C   0  0  0  0  0  0  0  0  0  0  0  0
    0.5350    2.4145    0.0243 C   0  0  0  0  0  0  0  0  0  0  0  0
    0.5350    0.2696   -2.7265 H   0  0  0  0  0  0  0  0  0  0  0  0
    0.5350    2.1179   -2.7260 H   0  0  0  0  0  0  0  0  0  0  0  0
    0.5350    0.0492   -0.2080 H   0  0  0  0  0  0  0  0  0  0  0  0
   -0.3428    2.4316    0.6755 H   0  0  0  0  0  0  0  0  0  0  0  0
    0.5350    3.3249   -0.5763 H   0  0  0  0  0  0  0  0  0  0  0  0
    1.4127    2.4316    0.6755 H   0  0  0  0  0  0  0  0  0  0  0  0
  1  2  2  3
  1  5  1  0
  1  6  1  0
  2  3  1  0
  2  7  1  0
  3  4  1  0
  3  8  1  0
  4  9  1  0
  4 10  1  0
  4 11  1  0
 12 13  2  3
 12 15  1  0
 12 16  1  0
 13 14  1  0
 13 17  1  0
 14 18  1  0
 14 19  1  0
 14 20  1  0
M  RAD  1   3   2
M  END
>  <reaction>  (8) 
rxn_1609

>  <mol_properties>  (8) 
{"1": {"label": "*0", "atom_type": "Cd"}, "2": {"label": "*1", "atom_type": "Cs"}, "11": {"label": "*4", "atom_type": "Cd"}, "12": {"label": "*3", "atom_type": "Cd"}, "16": {"label": "*2", "atom_type": "H0"}}

>  <type>  (8) 
unop_4

>  <geom_source>  (8) 
Heuristics

$$$$

     RDKit          3D

 20 18  0  0  0  0  0  0  0  0999 V2000
    0.5844   -1.2047    2.4958 C   0  0  0  0  0  0  0  0  0  0  0  0
   -0.3037   -0.7757    1.6119 C   0  0  0  0  0  0  0  0  0  0  0  0
   -0.3037   -1.0538    0.1382 C   0  0  0  0  0  3  0  0  0  0  0  0
    0.8403   -1.9170   -0.3698 C   0  0  0  0  0  0  0  0  0  0  0  0
    0.4977   -0.9488    3.5441 H   0  0  0  0  0  0  0  0  0  0  0  0
    1.4277   -1.8237    2.2132 H   0  0  0  0  0  0  0  0  0  0  0  0
   -1.1266   -0.1576    1.9623 H   0  0  0  0  0  0  0  0  0  0  0  0
   -1.2607   -1.5202   -0.1202 H   0  0  0  0  0  0  0  0  0  0  0  0
    0.8359   -2.9000    0.1051 H   0  0  0  0  0  0  0  0  0  0  0  0
    0.7590   -2.0657   -1.4470 H   0  0  0  0  0  0  0  0  0  0  0  0
    1.8072   -1.4520   -0.1681 H   0  0  0  0  0  0  0  0  0  0  0  0
   -0.3037    1.2415   -2.4469 C   0  0  0  0  0  0  0  0  0  0  0  0
   -0.3037    1.2415   -1.1231 C   0  0  0  0  0  0  0  0  0  0  0  0
   -0.3037    2.4637   -0.2626 C   0  0  0  0  0  0  0  0  0  0  0  0
   -0.3037    0.3188   -3.0134 H   0  0  0  0  0  0  0  0  0  0  0  0
   -0.3037    2.1671   -3.0129 H   0  0  0  0  0  0  0  0  0  0  0  0
   -0.3037    0.0984   -0.4949 H   0  0  0  0  0  0  0  0  0  0  0  0
   -1.1814    2.4808    0.3886 H   0  0  0  0  0  0  0  0  0  0  0  0
   -0.3037    3.3742   -0.8632 H   0  0  0  0  0  0  0  0  0  0  0  0
    0.5740    2.4808    0.3886 H   0  0  0  0  0  0  0  0  0  0  0  0
  1  2  2  3
  1  5  1  0
  1  6  1  0
  2  3  1  0
  2  7  1  0
  3  4  1  0
  3  8  1  0
  4  9  1  0
  4 10  1  0
  4 11  1  0
 12 13  2  3
 12 15  1  0
 12 16  1  0
 13 14  1  0
 13 17  1  0
 14 18  1  0
 14 19  1  0
 14 20  1  0
M  RAD  1   3   2
M  END
>  <reaction>  (9) 
rxn_1609

>  <mol_properties>  (9) 
{"1": {"label": "*0", "atom_type": "Cd"}, "2": {"label": "*1", "atom_type": "Cs"}, "11": {"label": "*4", "atom_type": "Cd"}, "12": {"label": "*3", "atom_type": "Cd"}, "16": {"label": "*2", "atom_type": "H0"}}

>  <type>  (9) 
unop_5

>  <geom_source>  (9) 
Heuristics

$$$$

     RDKit          3D

 20 18  0  0  0  0  0  0  0  0999 V2000
   -1.7872   -1.2935    1.4515 C   0  0  0  0  0  0  0  0  0  0  0  0
   -1.0068   -1.6702    0.4500 C   0  0  0  0  0  0  0  0  0  0  0  0
    0.4186   -1.2618    0.2255 C   0  0  0  0  0  3  0  0  0  0  0  0
    1.0060   -0.3202    1.2648 C   0  0  0  0  0  0  0  0  0  0  0  0
   -2.8085   -1.6448    1.5266 H   0  0  0  0  0  0  0  0  0  0  0  0
   -1.4431   -0.6249    2.2317 H   0  0  0  0  0  0  0  0  0  0  0  0
   -1.4148   -2.3434   -0.2999 H   0  0  0  0  0  0  0  0  0  0  0  0
    1.0276   -2.1704    0.1649 H   0  0  0  0  0  0  0  0  0  0  0  0
    0.9923   -0.7699    2.2595 H   0  0  0  0  0  0  0  0  0  0  0  0
    2.0412   -0.0785    1.0214 H   0  0  0  0  0  0  0  0  0  0  0  0
    0.4462    0.6158    1.3128 H   0  0  0  0  0  0  0  0  0  0  0  0
    0.4186    1.0335   -2.3596 C   0  0  0  0  0  0  0  0  0  0  0  0
    0.4186    1.0335   -1.0359 C   0  0  0  0  0  0  0  0  0  0  0  0
    0.4186    2.2557   -0.1754 C   0  0  0  0  0  0  0  0  0  0  0  0
    0.4186    0.1108   -2.9261 H   0  0  0  0  0  0  0  0  0  0  0  0
    0.4186    1.9591   -2.9256 H   0  0  0  0  0  0  0  0  0  0  0  0
    0.4186   -0.1097   -0.4077 H   0  0  0  0  0  0  0  0  0  0  0  0
   -0.4591    2.2728    0.4758 H   0  0  0  0  0  0  0  0  0  0  0  0
    0.4186    3.1661   -0.7760 H   0  0  0  0  0  0  0  0  0  0  0  0
    1.2963    2.2728    0.4758 H   0  0  0  0  0  0  0  0  0  0  0  0
  1  2  2  3
  1  5  1  0
  1  6  1  0
  2  3  1  0
  2  7  1  0
  3  4  1  0
  3  8  1  0
  4  9  1  0
  4 10  1  0
  4 11  1  0
 12 13  2  3
 12 15  1  0
 12 16  1  0
 13 14  1  0
 13 17  1  0
 14 18  1  0
 14 19  1  0
 14 20  1  0
M  RAD  1   3   2
M  END
>  <reaction>  (10) 
rxn_1609

>  <mol_properties>  (10) 
{"1": {"label": "*0", "atom_type": "Cd"}, "2": {"label": "*1", "atom_type": "Cs"}, "11": {"label": "*4", "atom_type": "Cd"}, "12": {"label": "*3", "atom_type": "Cd"}, "16": {"label": "*2", "atom_type": "H0"}}

>  <type>  (10) 
unop_6

>  <geom_source>  (10) 
Heuristics

$$$$

     RDKit          3D

 20 18  0  0  0  0  0  0  0  0999 V2000
   -1.2014   -0.9109    2.1551 C   0  0  0  0  0  0  0  0  0  0  0  0
   -1.0570   -1.4022    0.9337 C   0  0  0  0  0  0  0  0  0  0  0  0
    0.1774   -1.3370    0.0847 C   0  0  0  0  0  3  0  0  0  0  0  0
    1.3706   -0.6313    0.7092 C   0  0  0  0  0  0  0  0  0  0  0  0
   -2.1378   -1.0090    2.6896 H   0  0  0  0  0  0  0  0  0  0  0  0
   -0.3989   -0.3947    2.6685 H   0  0  0  0  0  0  0  0  0  0  0  0
   -1.9027   -1.9092    0.4758 H   0  0  0  0  0  0  0  0  0  0  0  0
    0.4563   -2.3603   -0.1898 H   0  0  0  0  0  0  0  0  0  0  0  0
    1.6851   -1.1250    1.6308 H   0  0  0  0  0  0  0  0  0  0  0  0
    2.2185   -0.6322    0.0234 H   0  0  0  0  0  0  0  0  0  0  0  0
    1.1354    0.4074    0.9493 H   0  0  0  0  0  0  0  0  0  0  0  0
    0.1774    0.9583   -2.5005 C   0  0  0  0  0  0  0  0  0  0  0  0
    0.1774    0.9583   -1.1767 C   0  0  0  0  0  0  0  0  0  0  0  0
    0.1774    2.1804   -0.3162 C   0  0  0  0  0  0  0  0  0  0  0  0
    0.1774    0.0355   -3.0670 H   0  0  0  0  0  0  0  0  0  0  0  0
    0.1774    1.8839   -3.0665 H   0  0  0  0  0  0  0  0  0  0  0  0
    0.1774   -0.1849   -0.5485 H   0  0  0  0  0  0  0  0  0  0  0  0
   -0.7003    2.1976    0.3350 H   0  0  0  0  0  0  0  0  0  0  0  0
    0.1774    3.0909   -0.9168 H   0  0  0  0  0  0  0  0  0  0  0  0
    1.0551    2.1976    0.3350 H   0  0  0  0  0  0  0  0  0  0  0  0
  1  2  2  3
  1  5  1  0
  1  6  1  0
  2  3  1  0
  2  7  1  0
  3  4  1  0
  3  8  1  0
  4  9  1  0
  4 10  1  0
  4 11  1  0
 12 13  2  3
 12 15  1  0
 12 16  1  0
 13 14  1  0
 13 17  1  0
 14 18  1  0
 14 19  1  0
 14 20  1  0
M  RAD  1   3   2
M  END
>  <reaction>  (11) 
rxn_1609

>  <mol_properties>  (11) 
{"1": {"label": "*0", "atom_type": "Cd"}, "2": {"label": "*1", "atom_type": "Cs"}, "11": {"label": "*4", "atom_type": "Cd"}, "12": {"label": "*3", "atom_type": "Cd"}, "16": {"label": "*2", "atom_type": "H0"}}

>  <type>  (11) 
unop_7

>  <geom_source>  (11) 
Heuristics

$$$$

     RDKit          3D

 20 18  0  0  0  0  0  0  0  0999 V2000
    1.5602   -2.3413    0.9861 C   0  0  0  0  0  0  0  0  0  0  0  0
    1.1248   -1.1257    0.6918 C   0  0  0  0  0  0  0  0  0  0  0  0
   -0.3006   -0.7172    0.4674 C   0  0  0  0  0  3  0  0  0  0  0  0
   -1.3324   -1.8268    0.5956 C   0  0  0  0  0  0  0  0  0  0  0  0
    2.6152   -2.5372    1.1302 H   0  0  0  0  0  0  0  0  0  0  0  0
    0.8886   -3.1847    1.0946 H   0  0  0  0  0  0  0  0  0  0  0  0
    1.8524   -0.3234    0.5973 H   0  0  0  0  0  0  0  0  0  0  0  0
   -0.5380    0.0900    1.1690 H   0  0  0  0  0  0  0  0  0  0  0  0
   -1.3170   -2.2686    1.5938 H   0  0  0  0  0  0  0  0  0  0  0  0
   -2.3359   -1.4393    0.4169 H   0  0  0  0  0  0  0  0  0  0  0  0
   -1.1480   -2.6245   -0.1265 H   0  0  0  0  0  0  0  0  0  0  0  0
   -0.3006    1.5780   -2.1178 C   0  0  0  0  0  0  0  0  0  0  0  0
   -0.3006    1.5780   -0.7940 C   0  0  0  0  0  0  0  0  0  0  0  0
   -0.3006    2.8002    0.0665 C   0  0  0  0  0  0  0  0  0  0  0  0
   -0.3006    0.6553   -2.6842 H   0  0  0  0  0  0  0  0  0  0  0  0
   -0.3006    2.5036   -2.6838 H   0  0  0  0  0  0  0  0  0  0  0  0
   -0.3006    0.4349   -0.1658 H   0  0  0  0  0  0  0  0  0  0  0  0
   -1.1784    2.8173    0.7177 H   0  0  0  0  0  0  0  0  0  0  0  0
   -0.3006    3.7107   -0.5341 H   0  0  0  0  0  0  0  0  0  0  0  0
    0.5771    2.8173    0.7177 H   0  0  0  0  0  0  0  0  0  0  0  0
  1  2  2  3
  1  5  1  0
  1  6  1  0
  2  3  1  0
  2  7  1  0
  3  4  1  0
  3  8  1  0
  4  9  1  0
  4 10  1  0
  4 11  1  0
 12 13  2  3
 12 15  1  0
 12 16  1  0
 13 14  1  0
 13 17  1  0
 14 18  1  0
 14 19  1  0
 14 20  1  0
M  RAD  1   3   2
M  END
>  <reaction>  (12) 
rxn_1609

>  <mol_properties>  (12) 
{"1": {"label": "*0", "atom_type": "Cd"}, "2": {"label": "*1", "atom_type": "Cs"}, "11": {"label": "*4", "atom_type": "Cd"}, "12": {"label": "*3", "atom_type": "Cd"}, "16": {"label": "*2", "atom_type": "H0"}}

>  <type>  (12) 
unop_8

>  <geom_source>  (12) 
Heuristics

$$$$

     RDKit          3D

 20 18  0  0  0  0  0  0  0  0999 V2000
   -1.4375   -2.3823   -0.0448 C   0  0  0  0  0  0  0  0  0  0  0  0
   -0.2167   -1.9061   -0.2367 C   0  0  0  0  0  0  0  0  0  0  0  0
    0.4960   -0.9031    0.6207 C   0  0  0  0  0  3  0  0  0  0  0  0
   -0.2802   -0.3959    1.8258 C   0  0  0  0  0  0  0  0  0  0  0  0
   -1.8671   -3.1081   -0.7236 H   0  0  0  0  0  0  0  0  0  0  0  0
   -2.0542   -2.0710    0.7900 H   0  0  0  0  0  0  0  0  0  0  0  0
    0.3489   -2.2607   -1.0947 H   0  0  0  0  0  0  0  0  0  0  0  0
    1.4409   -1.3481    0.9513 H   0  0  0  0  0  0  0  0  0  0  0  0
   -0.5415   -1.2129    2.5012 H   0  0  0  0  0  0  0  0  0  0  0  0
    0.3134    0.3258    2.3879 H   0  0  0  0  0  0  0  0  0  0  0  0
   -1.2061    0.0964    1.5220 H   0  0  0  0  0  0  0  0  0  0  0  0
    0.4960    1.3922   -1.9644 C   0  0  0  0  0  0  0  0  0  0  0  0
    0.4960    1.3922   -0.6407 C   0  0  0  0  0  0  0  0  0  0  0  0
    0.4960    2.6144    0.2199 C   0  0  0  0  0  0  0  0  0  0  0  0
    0.4960    0.4695   -2.5309 H   0  0  0  0  0  0  0  0  0  0  0  0
    0.4960    2.3178   -2.5304 H   0  0  0  0  0  0  0  0  0  0  0  0
    0.4960    0.2490   -0.0124 H   0  0  0  0  0  0  0  0  0  0  0  0
   -0.3817    2.6315    0.8711 H   0  0  0  0  0  0  0  0  0  0  0  0
    0.4960    3.5248   -0.3807 H   0  0  0  0  0  0  0  0  0  0  0  0
    1.3737    2.6315    0.8711 H   0  0  0  0  0  0  0  0  0  0  0  0
  1  2  2  3
  1  5  1  0
  1  6  1  0
  2  3  1  0
  2  7  1  0
  3  4  1  0
  3  8  1  0
  4  9  1  0
  4 10  1  0
  4 11  1  0
 12 13  2  3
 12 15  1  0
 12 16  1  0
 13 14  1  0
 13 17  1  0
 14 18  1  0
 14 19  1  0
 14 20  1  0
M  RAD  1   3   2
M  END
>  <reaction>  (13) 
rxn_1609

>  <mol_properties>  (13) 
{"1": {"label": "*0", "atom_type": "Cd"}, "2": {"label": "*1", "atom_type": "Cs"}, "11": {"label": "*4", "atom_type": "Cd"}, "12": {"label": "*3", "atom_type": "Cd"}, "16": {"label": "*2", "atom_type": "H0"}}

>  <type>  (13) 
unop_9

>  <geom_source>  (13) 
Heuristics

$$$$

     RDKit          3D

 20 18  0  0  0  0  0  0  0  0999 V2000
    1.2093   -2.7112    0.2497 C   0  0  0  0  0  0  0  0  0  0  0  0
    1.0438   -1.3974    0.2281 C   0  0  0  0  0  0  0  0  0  0  0  0
   -0.1906   -0.6457    0.6283 C   0  0  0  0  0  3  0  0  0  0  0  0
   -1.3567   -1.4981    1.1032 C   0  0  0  0  0  0  0  0  0  0  0  0
    2.1436   -3.1618   -0.0604 H   0  0  0  0  0  0  0  0  0  0  0  0
    0.4268   -3.3865    0.5749 H   0  0  0  0  0  0  0  0  0  0  0  0
    1.8700   -0.7765   -0.1094 H   0  0  0  0  0  0  0  0  0  0  0  0
    0.0852    0.0704    1.4101 H   0  0  0  0  0  0  0  0  0  0  0  0
   -1.0850   -2.0870    1.9815 H   0  0  0  0  0  0  0  0  0  0  0  0
   -2.2064   -0.8696    1.3717 H   0  0  0  0  0  0  0  0  0  0  0  0
   -1.6847   -2.1898    0.3248 H   0  0  0  0  0  0  0  0  0  0  0  0
   -0.1906    1.6496   -1.9569 C   0  0  0  0  0  0  0  0  0  0  0  0
   -0.1906    1.6496   -0.6331 C   0  0  0  0  0  0  0  0  0  0  0  0
   -0.1906    2.8718    0.2274 C   0  0  0  0  0  0  0  0  0  0  0  0
   -0.1906    0.7269   -2.5234 H   0  0  0  0  0  0  0  0  0  0  0  0
   -0.1906    2.5752   -2.5229 H   0  0  0  0  0  0  0  0  0  0  0  0
   -0.1906    0.5065   -0.0049 H   0  0  0  0  0  0  0  0  0  0  0  0
   -1.0684    2.8889    0.8786 H   0  0  0  0  0  0  0  0  0  0  0  0
   -0.1906    3.7822   -0.3732 H   0  0  0  0  0  0  0  0  0  0  0  0
    0.6871    2.8889    0.8786 H   0  0  0  0  0  0  0  0  0  0  0  0
  1  2  2  3
  1  5  1  0
  1  6  1  0
  2  3  1  0
  2  7  1  0
  3  4  1  0
  3  8  1  0
  4  9  1  0
  4 10  1  0
  4 11  1  0
 12 13  2  3
 12 15  1  0
 12 16  1  0
 13 14  1  0
 13 17  1  0
 14 18  1  0
 14 19  1  0
 14 20  1  0
M  RAD  1   3   2
M  END
>  <reaction>  (14) 
rxn_1609

>  <mol_properties>  (14) 
{"1": {"label": "*0", "atom_type": "Cd"}, "2": {"label": "*1", "atom_type": "Cs"}, "11": {"label": "*4", "atom_type": "Cd"}, "12": {"label": "*3", "atom_type": "Cd"}, "16": {"label": "*2", "atom_type": "H0"}}

>  <type>  (14) 
unop_10

>  <geom_source>  (14) 
Heuristics

$$$$

     RDKit          3D

 20 18  0  0  0  0  0  0  0  0999 V2000
   -0.2735   -0.8498    2.5369 C   0  0  0  0  0  0  0  0  0  0  0  0
   -0.8324   -1.0886    1.3603 C   0  0  0  0  0  0  0  0  0  0  0  0
   -0.1197   -1.2747    0.0539 C   0  0  0  0  0  3  0  0  0  0  0  0
    1.3965   -1.1750    0.1101 C   0  0  0  0  0  0  0  0  0  0  0  0
   -0.8768   -0.7298    3.4279 H   0  0  0  0  0  0  0  0  0  0  0  0
    0.7997   -0.7647    2.6598 H   0  0  0  0  0  0  0  0  0  0  0  0
   -1.9157   -1.1623    1.3065 H   0  0  0  0  0  0  0  0  0  0  0  0
   -0.4103   -2.2478   -0.3569 H   0  0  0  0  0  0  0  0  0  0  0  0
    1.8189   -1.9311    0.7748 H   0  0  0  0  0  0  0  0  0  0  0  0
    1.8272   -1.3226   -0.8808 H   0  0  0  0  0  0  0  0  0  0  0  0
    1.7160   -0.1955    0.4714 H   0  0  0  0  0  0  0  0  0  0  0  0
   -0.1197    1.0206   -2.5312 C   0  0  0  0  0  0  0  0  0  0  0  0
   -0.1197    1.0206   -1.2074 C   0  0  0  0  0  0  0  0  0  0  0  0
   -0.1197    2.2428   -0.3469 C   0  0  0  0  0  0  0  0  0  0  0  0
   -0.1197    0.0979   -3.0977 H   0  0  0  0  0  0  0  0  0  0  0  0
   -0.1197    1.9462   -3.0972 H   0  0  0  0  0  0  0  0  0  0  0  0
   -0.1197   -0.1226   -0.5792 H   0  0  0  0  0  0  0  0  0  0  0  0
   -0.9974    2.2599    0.3043 H   0  0  0  0  0  0  0  0  0  0  0  0
   -0.1197    3.1532   -0.9475 H   0  0  0  0  0  0  0  0  0  0  0  0
    0.7580    2.2599    0.3043 H   0  0  0  0  0  0  0  0  0  0  0  0
  1  2  2  3
  1  5  1  0
  1  6  1  0
  2  3  1  0
  2  7  1  0
  3  4  1  0
  3  8  1  0
  4  9  1  0
  4 10  1  0
  4 11  1  0
 12 13  2  3
 12 15  1  0
 12 16  1  0
 13 14  1  0
 13 17  1  0
 14 18  1  0
 14 19  1  0
 14 20  1  0
M  RAD  1   3   2
M  END
>  <reaction>  (15) 
rxn_1609

>  <mol_properties>  (15) 
{"1": {"label": "*0", "atom_type": "Cd"}, "2": {"label": "*1", "atom_type": "Cs"}, "11": {"label": "*4", "atom_type": "Cd"}, "12": {"label": "*3", "atom_type": "Cd"}, "16": {"label": "*2", "atom_type": "H0"}}

>  <type>  (15) 
unop_11

>  <geom_source>  (15) 
Heuristics

$$$$

     RDKit          3D

 20 18  0  0  0  0  0  0  0  0999 V2000
   -0.5844   -2.7923   -0.3931 C   0  0  0  0  0  0  0  0  0  0  0  0
    0.3037   -1.8162   -0.2814 C   0  0  0  0  0  0  0  0  0  0  0  0
    0.3037   -0.7212    0.7434 C   0  0  0  0  0  3  0  0  0  0  0  0
   -0.8403   -0.7552    1.7444 C   0  0  0  0  0  0  0  0  0  0  0  0
   -0.4977   -3.5401   -1.1711 H   0  0  0  0  0  0  0  0  0  0  0  0
   -1.4277   -2.8856    0.2809 H   0  0  0  0  0  0  0  0  0  0  0  0
    1.1266   -1.7806   -0.9910 H   0  0  0  0  0  0  0  0  0  0  0  0
    1.2607   -0.7531    1.2757 H   0  0  0  0  0  0  0  0  0  0  0  0
   -0.8359   -1.6830    2.3197 H   0  0  0  0  0  0  0  0  0  0  0  0
   -0.7590    0.0745    2.4475 H   0  0  0  0  0  0  0  0  0  0  0  0
   -1.8072   -0.6762    1.2438 H   0  0  0  0  0  0  0  0  0  0  0  0
    0.3037    1.5741   -1.8418 C   0  0  0  0  0  0  0  0  0  0  0  0
    0.3037    1.5741   -0.5180 C   0  0  0  0  0  0  0  0  0  0  0  0
    0.3037    2.7963    0.3425 C   0  0  0  0  0  0  0  0  0  0  0  0
    0.3037    0.6514   -2.4082 H   0  0  0  0  0  0  0  0  0  0  0  0
    0.3037    2.4997   -2.4078 H   0  0  0  0  0  0  0  0  0  0  0  0
    0.3037    0.4309    0.1102 H   0  0  0  0  0  0  0  0  0  0  0  0
   -0.5740    2.8134    0.9937 H   0  0  0  0  0  0  0  0  0  0  0  0
    0.3037    3.7067   -0.2581 H   0  0  0  0  0  0  0  0  0  0  0  0
    1.1814    2.8134    0.9937 H   0  0  0  0  0  0  0  0  0  0  0  0
  1  2  2  3
  1  5  1  0
  1  6  1  0
  2  3  1  0
  2  7  1  0
  3  4  1  0
  3  8  1  0
  4  9  1  0
  4 10  1  0
  4 11  1  0
 12 13  2  3
 12 15  1  0
 12 16  1  0
 13 14  1  0
 13 17  1  0
 14 18  1  0
 14 19  1  0
 14 20  1  0
M  RAD  1   3   2
M  END
>  <reaction>  (16) 
rxn_1609

>  <mol_properties>  (16) 
{"1": {"label": "*0", "atom_type": "Cd"}, "2": {"label": "*1", "atom_type": "Cs"}, "11": {"label": "*4", "atom_type": "Cd"}, "12": {"label": "*3", "atom_type": "Cd"}, "16": {"label": "*2", "atom_type": "H0"}}

>  <type>  (16) 
unop_12

>  <geom_source>  (16) 
Heuristics

$$$$

     RDKit          3D

 20 18  0  0  0  0  0  0  0  0999 V2000
    1.0084   -0.3029    0.5077 C   0  0  0  0  0  3  0  0  0  0  0  0
    1.1899   -1.8142    0.4365 C   0  0  0  0  0  0  0  0  0  0  0  0
   -2.6758   -0.7452   -0.2165 C   0  0  0  0  0  0  0  0  0  0  0  0
    2.1091    0.4169   -0.2190 C   0  0  0  0  0  0  0  0  0  0  0  0
    2.1069    1.7481   -0.3097 C   0  0  0  0  0  0  0  0  0  0  0  0
   -1.6008    1.4798   -0.1913 C   0  0  0  0  0  0  0  0  0  0  0  0
   -1.5146    0.1662    0.0212 C   0  0  0  0  0  0  0  0  0  0  0  0
    0.9989    0.0141    1.5731 H   0  0  0  0  0  0  0  0  0  0  0  0
   -0.2899    0.0510   -0.1049 H   0  0  0  0  0  0  0  0  0  0  0  0
    2.1508   -2.1111    0.9089 H   0  0  0  0  0  0  0  0  0  0  0  0
    1.1776   -2.1513   -0.6217 H   0  0  0  0  0  0  0  0  0  0  0  0
    0.3570   -2.3107    0.9766 H   0  0  0  0  0  0  0  0  0  0  0  0
   -2.3773   -1.7861    0.0244 H   0  0  0  0  0  0  0  0  0  0  0  0
   -3.5275   -0.4533    0.4335 H   0  0  0  0  0  0  0  0  0  0  0  0
   -2.9867   -0.6952   -1.2815 H   0  0  0  0  0  0  0  0  0  0  0  0
    2.9167   -0.1415   -0.6852 H   0  0  0  0  0  0  0  0  0  0  0  0
    1.3137    2.3370    0.1412 H   0  0  0  0  0  0  0  0  0  0  0  0
    2.9049    2.2580   -0.8397 H   0  0  0  0  0  0  0  0  0  0  0  0
   -0.7380    2.1106   -0.0082 H   0  0  0  0  0  0  0  0  0  0  0  0
   -2.5234    1.9297   -0.5457 H   0  0  0  0  0  0  0  0  0  0  0  0
  1  2  1  0
  1  4  1  0
  1  8  1  0
  2 10  1  0
  2 11  1  0
  2 12  1  0
  3  7  1  0
  3 13  1  0
  3 14  1  0
  3 15  1  0
  4  5  2  3
  4 16  1  0
  5 17  1  0
  5 18  1  0
  6  7  2  3
  6 19  1  0
  6 20  1  0
  7  9  1  0
M  RAD  1   1   2
M  END
>  <reaction>  (17) 
rxn_1609

>  <mol_properties>  (17) 
{"1": {"label": "*0", "atom_type": "Cd"}, "2": {"label": "*1", "atom_type": "Cs"}, "11": {"label": "*4", "atom_type": "Cd"}, "12": {"label": "*3", "atom_type": "Cd"}, "16": {"label": "*2", "atom_type": "H0"}}

>  <type>  (17) 
unop_13

>  <geom_source>  (17) 
AutoTST

$$$$
