
     RDKit          3D

  8  7  0  0  0  0  0  0  0  0999 V2000
    1.9029    0.9046   -0.2050 C   0  0  0  0  0  0  0  0  0  0  0  0
    0.8517    0.4283    0.1217 C   0  0  0  0  0  0  0  0  0  0  0  0
   -0.3908   -0.1311    0.5404 C   0  0  0  0  0  0  0  0  0  0  0  0
   -1.2847   -0.6576   -0.2899 C   0  0  0  0  0  0  0  0  0  0  0  0
    2.8335    1.3255   -0.5014 H   0  0  0  0  0  0  0  0  0  0  0  0
   -0.5867   -0.1096    1.6074 H   0  0  0  0  0  0  0  0  0  0  0  0
   -2.2126   -1.0686    0.0850 H   0  0  0  0  0  0  0  0  0  0  0  0
   -1.1134   -0.6914   -1.3582 H   0  0  0  0  0  0  0  0  0  0  0  0
  1  2  3  0
  1  5  1  0
  2  3  1  0
  3  4  2  3
  3  6  1  0
  4  7  1  0
  4  8  1  0
M  END
>  <reaction>  (1) 
rxn_249

>  <mol_properties>  (1) 
{"2": {"label": "donator", "atom_type": "Cd"}, "5": {"label": "d_hydrogen", "atom_type": "H0"}}

>  <type>  (1) 
r1h

$$$$

     RDKit          3D

  4  3  0  0  0  0  0  0  0  0999 V2000
    0.0000    0.0000    0.0000 C   0  0  0  0  0  3  0  0  0  0  0  0
    1.0638   -0.1747    0.0540 H   0  0  0  0  0  0  0  0  0  0  0  0
   -0.6833   -0.8351   -0.0280 H   0  0  0  0  0  0  0  0  0  0  0  0
   -0.3805    1.0098   -0.0260 H   0  0  0  0  0  0  0  0  0  0  0  0
  1  2  1  0
  1  3  1  0
  1  4  1  0
M  RAD  1   1   2
M  END
>  <reaction>  (2) 
rxn_249

>  <mol_properties>  (2) 
{"0": {"label": "acceptor", "atom_type": "Cs"}}

>  <type>  (2) 
r2

$$$$

     RDKit          3D

  5  4  0  0  0  0  0  0  0  0999 V2000
    0.0000    0.0000    0.0000 C   0  0  0  0  0  0  0  0  0  0  0  0
   -0.6486   -0.7720   -0.4113 H   0  0  0  0  0  0  0  0  0  0  0  0
   -0.3482    0.9787   -0.3267 H   0  0  0  0  0  0  0  0  0  0  0  0
   -0.0223   -0.0487    1.0876 H   0  0  0  0  0  0  0  0  0  0  0  0
    1.0191   -0.1580   -0.3496 H   0  0  0  0  0  0  0  0  0  0  0  0
  1  2  1  0
  1  3  1  0
  1  4  1  0
  1  5  1  0
M  END
>  <reaction>  (3) 
rxn_249

>  <mol_properties>  (3) 
{"0": {"label": "a_hydrogen", "atom_type": "H0"}, "1": {"label": "acceptor", "atom_type": "Cs"}}

>  <type>  (3) 
r2h

$$$$

     RDKit          3D

 12 10  0  0  0  0  0  0  0  0999 V2000
    0.2187   -0.2719   -2.2952 C   0  0  0  0  0  0  0  0  0  0  0  0
    0.1041   -0.3828   -1.1023 C   0  0  0  0  0  0  0  0  0  0  0  0
   -0.0218   -0.3959    0.2926 C   0  0  0  0  0  0  0  0  0  0  0  0
   -0.1672   -1.4019    1.1367 C   0  0  0  0  0  0  0  0  0  0  0  0
    0.3185   -0.1978   -3.3513 H   0  0  0  0  0  0  0  0  0  0  0  0
    0.0110    0.7902    0.8440 H   0  0  0  0  0  0  0  0  0  0  0  0
   -0.2502   -1.2225    2.2022 H   0  0  0  0  0  0  0  0  0  0  0  0
   -0.2082   -2.4321    0.7984 H   0  0  0  0  0  0  0  0  0  0  0  0
    0.0366    1.9883    1.4844 C   0  0  0  0  0  3  0  0  0  0  0  0
   -0.8054    2.5286    1.0636 H   0  0  0  0  0  0  0  0  0  0  0  0
    1.0055    2.4032    1.2257 H   0  0  0  0  0  0  0  0  0  0  0  0
   -0.0747    1.7405    2.5355 H   0  0  0  0  0  0  0  0  0  0  0  0
  1  2  3  0
  1  5  1  0
  2  3  1  0
  3  4  2  3
  3  6  1  0
  4  7  1  0
  4  8  1  0
  9 10  1  0
  9 11  1  0
  9 12  1  0
M  RAD  1   9   2
M  END
>  <reaction>  (4) 
rxn_249

>  <mol_properties>  (4) 
{"1": {"label": "*0", "atom_type": "Ct"}, "2": {"label": "*1", "atom_type": "Cd"}, "5": {"label": "*2", "atom_type": "H0"}, "8": {"label": "*3", "atom_type": "Cs"}, "9": {"label": "*4", "atom_type": "H0"}}

>  <type>  (4) 
ts

$$$$

     RDKit          3D

 12 10  0  0  0  0  0  0  0  0999 V2000
   -0.0021   -0.3364   -2.2828 C   0  0  0  0  0  0  0  0  0  0  0  0
   -0.0021   -0.3364   -1.0834 C   0  0  0  0  0  0  0  0  0  0  0  0
   -0.0021   -0.3046    0.3417 C   0  0  0  0  0  0  0  0  0  0  0  0
   -0.0021   -1.3902    1.1080 C   0  0  0  0  0  0  0  0  0  0  0  0
   -0.0021   -0.3364   -3.3463 H   0  0  0  0  0  0  0  0  0  0  0  0
   -0.0021    0.8781    0.8863 H   0  0  0  0  0  0  0  0  0  0  0  0
   -0.0021   -1.3055    2.1866 H   0  0  0  0  0  0  0  0  0  0  0  0
   -0.0021   -2.3846    0.6803 H   0  0  0  0  0  0  0  0  0  0  0  0
   -0.0021    2.0650    1.4329 C   0  0  0  0  0  3  0  0  0  0  0  0
   -0.8913    2.1799    2.0510 H   0  0  0  0  0  0  0  0  0  0  0  0
    0.3880    3.0475    1.1719 H   0  0  0  0  0  0  0  0  0  0  0  0
    0.6370    1.5241    2.1292 H   0  0  0  0  0  0  0  0  0  0  0  0
  1  2  3  0
  1  5  1  0
  2  3  1  0
  3  4  2  3
  3  6  1  0
  4  7  1  0
  4  8  1  0
  9 10  1  0
  9 11  1  0
  9 12  1  0
M  RAD  1   9   2
M  END
>  <reaction>  (5) 
rxn_249

>  <mol_properties>  (5) 
{"1": {"label": "*0", "atom_type": "Ct"}, "2": {"label": "*1", "atom_type": "Cd"}, "5": {"label": "*2", "atom_type": "H0"}, "8": {"label": "*3", "atom_type": "Cs"}, "9": {"label": "*4", "atom_type": "H0"}}

>  <type>  (5) 
unop_1

>  <geom_source>  (5) 
Heuristics

$$$$

     RDKit          3D

 12 10  0  0  0  0  0  0  0  0999 V2000
   -0.0015   -0.3351   -2.2751 C   0  0  0  0  0  0  0  0  0  0  0  0
   -0.0015   -0.3351   -1.0757 C   0  0  0  0  0  0  0  0  0  0  0  0
   -0.0015   -0.3033    0.3495 C   0  0  0  0  0  0  0  0  0  0  0  0
   -0.0015   -1.3889    1.1158 C   0  0  0  0  0  0  0  0  0  0  0  0
   -0.0015   -0.3351   -3.3385 H   0  0  0  0  0  0  0  0  0  0  0  0
   -0.0015    0.8794    0.8941 H   0  0  0  0  0  0  0  0  0  0  0  0
   -0.0015   -1.3042    2.1944 H   0  0  0  0  0  0  0  0  0  0  0  0
   -0.0014   -2.3833    0.6880 H   0  0  0  0  0  0  0  0  0  0  0  0
   -0.0015    2.0663    1.4407 C   0  0  0  0  0  3  0  0  0  0  0  0
   -0.5149    2.7679    0.7849 H   0  0  0  0  0  0  0  0  0  0  0  0
    0.8897    2.5386    1.8510 H   0  0  0  0  0  0  0  0  0  0  0  0
   -0.2807    1.3623    2.2231 H   0  0  0  0  0  0  0  0  0  0  0  0
  1  2  3  0
  1  5  1  0
  2  3  1  0
  3  4  2  3
  3  6  1  0
  4  7  1  0
  4  8  1  0
  9 10  1  0
  9 11  1  0
  9 12  1  0
M  RAD  1   9   2
M  END
>  <reaction>  (6) 
rxn_249

>  <mol_properties>  (6) 
{"1": {"label": "*0", "atom_type": "Ct"}, "2": {"label": "*1", "atom_type": "Cd"}, "5": {"label": "*2", "atom_type": "H0"}, "8": {"label": "*3", "atom_type": "Cs"}, "9": {"label": "*4", "atom_type": "H0"}}

>  <type>  (6) 
unop_2

>  <geom_source>  (6) 
Heuristics

$$$$

     RDKit          3D

 12 10  0  0  0  0  0  0  0  0999 V2000
   -0.0043   -0.3396   -2.2821 C   0  0  0  0  0  0  0  0  0  0  0  0
   -0.0043   -0.3396   -1.0827 C   0  0  0  0  0  0  0  0  0  0  0  0
   -0.0043   -0.3078    0.3424 C   0  0  0  0  0  0  0  0  0  0  0  0
   -0.0042   -1.3934    1.1087 C   0  0  0  0  0  0  0  0  0  0  0  0
   -0.0043   -0.3396   -3.3456 H   0  0  0  0  0  0  0  0  0  0  0  0
   -0.0043    0.8749    0.8870 H   0  0  0  0  0  0  0  0  0  0  0  0
   -0.0042   -1.3087    2.1873 H   0  0  0  0  0  0  0  0  0  0  0  0
   -0.0042   -2.3878    0.6810 H   0  0  0  0  0  0  0  0  0  0  0  0
   -0.0043    2.0618    1.4336 C   0  0  0  0  0  3  0  0  0  0  0  0
   -0.5176    2.0196    2.3930 H   0  0  0  0  0  0  0  0  0  0  0  0
   -0.1604    3.0399    0.9812 H   0  0  0  0  0  0  0  0  0  0  0  0
    0.9493    1.8950    1.9323 H   0  0  0  0  0  0  0  0  0  0  0  0
  1  2  3  0
  1  5  1  0
  2  3  1  0
  3  4  2  3
  3  6  1  0
  4  7  1  0
  4  8  1  0
  9 10  1  0
  9 11  1  0
  9 12  1  0
M  RAD  1   9   2
M  END
>  <reaction>  (7) 
rxn_249

>  <mol_properties>  (7) 
{"1": {"label": "*0", "atom_type": "Ct"}, "2": {"label": "*1", "atom_type": "Cd"}, "5": {"label": "*2", "atom_type": "H0"}, "8": {"label": "*3", "atom_type": "Cs"}, "9": {"label": "*4", "atom_type": "H0"}}

>  <type>  (7) 
unop_3

>  <geom_source>  (7) 
Heuristics

$$$$

     RDKit          3D

 12 10  0  0  0  0  0  0  0  0999 V2000
   -0.0019   -0.3339   -2.2785 C   0  0  0  0  0  0  0  0  0  0  0  0
   -0.0019   -0.3339   -1.0791 C   0  0  0  0  0  0  0  0  0  0  0  0
   -0.0019   -0.3021    0.3460 C   0  0  0  0  0  0  0  0  0  0  0  0
   -0.0019   -1.3877    1.1123 C   0  0  0  0  0  0  0  0  0  0  0  0
   -0.0019   -0.3339   -3.3420 H   0  0  0  0  0  0  0  0  0  0  0  0
   -0.0020    0.8805    0.8906 H   0  0  0  0  0  0  0  0  0  0  0  0
   -0.0019   -1.3030    2.1909 H   0  0  0  0  0  0  0  0  0  0  0  0
   -0.0019   -2.3821    0.6846 H   0  0  0  0  0  0  0  0  0  0  0  0
   -0.0020    2.0675    1.4372 C   0  0  0  0  0  3  0  0  0  0  0  0
    0.8871    2.6119    1.1228 H   0  0  0  0  0  0  0  0  0  0  0  0
    0.2239    1.4894    2.3320 H   0  0  0  0  0  0  0  0  0  0  0  0
   -0.9872    2.4923    1.6232 H   0  0  0  0  0  0  0  0  0  0  0  0
  1  2  3  0
  1  5  1  0
  2  3  1  0
  3  4  2  3
  3  6  1  0
  4  7  1  0
  4  8  1  0
  9 10  1  0
  9 11  1  0
  9 12  1  0
M  RAD  1   9   2
M  END
>  <reaction>  (8) 
rxn_249

>  <mol_properties>  (8) 
{"1": {"label": "*0", "atom_type": "Ct"}, "2": {"label": "*1", "atom_type": "Cd"}, "5": {"label": "*2", "atom_type": "H0"}, "8": {"label": "*3", "atom_type": "Cs"}, "9": {"label": "*4", "atom_type": "H0"}}

>  <type>  (8) 
unop_4

>  <geom_source>  (8) 
Heuristics

$$$$

     RDKit          3D

 12 10  0  0  0  0  0  0  0  0999 V2000
   -0.0006   -0.3430   -2.2804 C   0  0  0  0  0  0  0  0  0  0  0  0
   -0.0006   -0.3430   -1.0810 C   0  0  0  0  0  0  0  0  0  0  0  0
   -0.0006   -0.3112    0.3442 C   0  0  0  0  0  0  0  0  0  0  0  0
   -0.0006   -1.3968    1.1105 C   0  0  0  0  0  0  0  0  0  0  0  0
   -0.0006   -0.3430   -3.3439 H   0  0  0  0  0  0  0  0  0  0  0  0
   -0.0007    0.8715    0.8888 H   0  0  0  0  0  0  0  0  0  0  0  0
   -0.0006   -1.3121    2.1891 H   0  0  0  0  0  0  0  0  0  0  0  0
   -0.0006   -2.3911    0.6827 H   0  0  0  0  0  0  0  0  0  0  0  0
   -0.0007    2.0584    1.4354 C   0  0  0  0  0  3  0  0  0  0  0  0
   -0.0007    1.9587    2.5197 H   0  0  0  0  0  0  0  0  0  0  0  0
   -0.8898    2.6028    1.1209 H   0  0  0  0  0  0  0  0  0  0  0  0
    0.9316    2.6081    1.5555 H   0  0  0  0  0  0  0  0  0  0  0  0
  1  2  3  0
  1  5  1  0
  2  3  1  0
  3  4  2  3
  3  6  1  0
  4  7  1  0
  4  8  1  0
  9 10  1  0
  9 11  1  0
  9 12  1  0
M  RAD  1   9   2
M  END
>  <reaction>  (9) 
rxn_249

>  <mol_properties>  (9) 
{"1": {"label": "*0", "atom_type": "Ct"}, "2": {"label": "*1", "atom_type": "Cd"}, "5": {"label": "*2", "atom_type": "H0"}, "8": {"label": "*3", "atom_type": "Cs"}, "9": {"label": "*4", "atom_type": "H0"}}

>  <type>  (9) 
unop_5

>  <geom_source>  (9) 
Heuristics

$$$$

     RDKit          3D

 12 10  0  0  0  0  0  0  0  0999 V2000
   -0.0005   -0.3353   -2.2810 C   0  0  0  0  0  0  0  0  0  0  0  0
   -0.0005   -0.3353   -1.0816 C   0  0  0  0  0  0  0  0  0  0  0  0
   -0.0005   -0.3035    0.3436 C   0  0  0  0  0  0  0  0  0  0  0  0
   -0.0005   -1.3891    1.1098 C   0  0  0  0  0  0  0  0  0  0  0  0
   -0.0005   -0.3353   -3.3445 H   0  0  0  0  0  0  0  0  0  0  0  0
   -0.0005    0.8791    0.8882 H   0  0  0  0  0  0  0  0  0  0  0  0
   -0.0005   -1.3044    2.1885 H   0  0  0  0  0  0  0  0  0  0  0  0
   -0.0004   -2.3835    0.6821 H   0  0  0  0  0  0  0  0  0  0  0  0
   -0.0005    2.0660    1.4347 C   0  0  0  0  0  3  0  0  0  0  0  0
    1.0261    2.3958    1.5866 H   0  0  0  0  0  0  0  0  0  0  0  0
   -0.2888    1.3935    2.2412 H   0  0  0  0  0  0  0  0  0  0  0  0
   -0.7068    2.8944    1.4076 H   0  0  0  0  0  0  0  0  0  0  0  0
  1  2  3  0
  1  5  1  0
  2  3  1  0
  3  4  2  3
  3  6  1  0
  4  7  1  0
  4  8  1  0
  9 10  1  0
  9 11  1  0
  9 12  1  0
M  RAD  1   9   2
M  END
>  <reaction>  (10) 
rxn_249

>  <mol_properties>  (10) 
{"1": {"label": "*0", "atom_type": "Ct"}, "2": {"label": "*1", "atom_type": "Cd"}, "5": {"label": "*2", "atom_type": "H0"}, "8": {"label": "*3", "atom_type": "Cs"}, "9": {"label": "*4", "atom_type": "H0"}}

>  <type>  (10) 
unop_6

>  <geom_source>  (10) 
Heuristics

$$$$

     RDKit          3D

 12 10  0  0  0  0  0  0  0  0999 V2000
    0.0019   -0.3371   -2.2824 C   0  0  0  0  0  0  0  0  0  0  0  0
    0.0019   -0.3371   -1.0830 C   0  0  0  0  0  0  0  0  0  0  0  0
    0.0019   -0.3054    0.3421 C   0  0  0  0  0  0  0  0  0  0  0  0
    0.0020   -1.3909    1.1084 C   0  0  0  0  0  0  0  0  0  0  0  0
    0.0019   -0.3371   -3.3459 H   0  0  0  0  0  0  0  0  0  0  0  0
    0.0019    0.8773    0.8867 H   0  0  0  0  0  0  0  0  0  0  0  0
    0.0020   -1.3063    2.1870 H   0  0  0  0  0  0  0  0  0  0  0  0
    0.0020   -2.3853    0.6807 H   0  0  0  0  0  0  0  0  0  0  0  0
    0.0019    2.0642    1.4333 C   0  0  0  0  0  3  0  0  0  0  0  0
    0.8910    2.1792    2.0514 H   0  0  0  0  0  0  0  0  0  0  0  0
   -0.7544    1.5082    1.9852 H   0  0  0  0  0  0  0  0  0  0  0  0
   -0.2593    3.1117    1.2904 H   0  0  0  0  0  0  0  0  0  0  0  0
  1  2  3  0
  1  5  1  0
  2  3  1  0
  3  4  2  3
  3  6  1  0
  4  7  1  0
  4  8  1  0
  9 10  1  0
  9 11  1  0
  9 12  1  0
M  RAD  1   9   2
M  END
>  <reaction>  (11) 
rxn_249

>  <mol_properties>  (11) 
{"1": {"label": "*0", "atom_type": "Ct"}, "2": {"label": "*1", "atom_type": "Cd"}, "5": {"label": "*2", "atom_type": "H0"}, "8": {"label": "*3", "atom_type": "Cs"}, "9": {"label": "*4", "atom_type": "H0"}}

>  <type>  (11) 
unop_7

>  <geom_source>  (11) 
Heuristics

$$$$

     RDKit          3D

 12 10  0  0  0  0  0  0  0  0999 V2000
    0.0004   -0.3356   -2.2808 C   0  0  0  0  0  0  0  0  0  0  0  0
    0.0004   -0.3356   -1.0814 C   0  0  0  0  0  0  0  0  0  0  0  0
    0.0004   -0.3039    0.3437 C   0  0  0  0  0  0  0  0  0  0  0  0
    0.0004   -1.3894    1.1100 C   0  0  0  0  0  0  0  0  0  0  0  0
    0.0004   -0.3356   -3.3443 H   0  0  0  0  0  0  0  0  0  0  0  0
    0.0004    0.8788    0.8883 H   0  0  0  0  0  0  0  0  0  0  0  0
    0.0004   -1.3048    2.1886 H   0  0  0  0  0  0  0  0  0  0  0  0
    0.0005   -2.3838    0.6823 H   0  0  0  0  0  0  0  0  0  0  0  0
    0.0004    2.0657    1.4349 C   0  0  0  0  0  3  0  0  0  0  0  0
   -1.0263    2.3954    1.5867 H   0  0  0  0  0  0  0  0  0  0  0  0
    0.6622    2.9304    1.4293 H   0  0  0  0  0  0  0  0  0  0  0  0
    0.3383    1.3781    2.2087 H   0  0  0  0  0  0  0  0  0  0  0  0
  1  2  3  0
  1  5  1  0
  2  3  1  0
  3  4  2  3
  3  6  1  0
  4  7  1  0
  4  8  1  0
  9 10  1  0
  9 11  1  0
  9 12  1  0
M  RAD  1   9   2
M  END
>  <reaction>  (12) 
rxn_249

>  <mol_properties>  (12) 
{"1": {"label": "*0", "atom_type": "Ct"}, "2": {"label": "*1", "atom_type": "Cd"}, "5": {"label": "*2", "atom_type": "H0"}, "8": {"label": "*3", "atom_type": "Cs"}, "9": {"label": "*4", "atom_type": "H0"}}

>  <type>  (12) 
unop_8

>  <geom_source>  (12) 
Heuristics

$$$$

     RDKit          3D

 12 10  0  0  0  0  0  0  0  0999 V2000
   -0.0029   -0.3329   -2.2762 C   0  0  0  0  0  0  0  0  0  0  0  0
   -0.0029   -0.3329   -1.0768 C   0  0  0  0  0  0  0  0  0  0  0  0
   -0.0029   -0.3012    0.3483 C   0  0  0  0  0  0  0  0  0  0  0  0
   -0.0029   -1.3868    1.1146 C   0  0  0  0  0  0  0  0  0  0  0  0
   -0.0029   -0.3329   -3.3397 H   0  0  0  0  0  0  0  0  0  0  0  0
   -0.0029    0.8815    0.8930 H   0  0  0  0  0  0  0  0  0  0  0  0
   -0.0029   -1.3021    2.1932 H   0  0  0  0  0  0  0  0  0  0  0  0
   -0.0028   -2.3811    0.6869 H   0  0  0  0  0  0  0  0  0  0  0  0
   -0.0029    2.0684    1.4395 C   0  0  0  0  0  3  0  0  0  0  0  0
    0.5104    2.7700    0.7838 H   0  0  0  0  0  0  0  0  0  0  0  0
    0.6613    1.7788    2.2524 H   0  0  0  0  0  0  0  0  0  0  0  0
   -0.9885    1.9839    1.8947 H   0  0  0  0  0  0  0  0  0  0  0  0
  1  2  3  0
  1  5  1  0
  2  3  1  0
  3  4  2  3
  3  6  1  0
  4  7  1  0
  4  8  1  0
  9 10  1  0
  9 11  1  0
  9 12  1  0
M  RAD  1   9   2
M  END
>  <reaction>  (13) 
rxn_249

>  <mol_properties>  (13) 
{"1": {"label": "*0", "atom_type": "Ct"}, "2": {"label": "*1", "atom_type": "Cd"}, "5": {"label": "*2", "atom_type": "H0"}, "8": {"label": "*3", "atom_type": "Cs"}, "9": {"label": "*4", "atom_type": "H0"}}

>  <type>  (13) 
unop_9

>  <geom_source>  (13) 
Heuristics

$$$$

     RDKit          3D

 12 10  0  0  0  0  0  0  0  0999 V2000
    0.0005   -0.3357   -2.2776 C   0  0  0  0  0  0  0  0  0  0  0  0
    0.0005   -0.3357   -1.0782 C   0  0  0  0  0  0  0  0  0  0  0  0
    0.0005   -0.3040    0.3470 C   0  0  0  0  0  0  0  0  0  0  0  0
    0.0005   -1.3896    1.1133 C   0  0  0  0  0  0  0  0  0  0  0  0
    0.0005   -0.3357   -3.3410 H   0  0  0  0  0  0  0  0  0  0  0  0
    0.0005    0.8787    0.8916 H   0  0  0  0  0  0  0  0  0  0  0  0
    0.0005   -1.3049    2.1919 H   0  0  0  0  0  0  0  0  0  0  0  0
    0.0005   -2.3839    0.6856 H   0  0  0  0  0  0  0  0  0  0  0  0
    0.0004    2.0656    1.4382 C   0  0  0  0  0  3  0  0  0  0  0  0
   -0.8887    2.6100    1.1237 H   0  0  0  0  0  0  0  0  0  0  0  0
    0.8008    2.7716    1.6546 H   0  0  0  0  0  0  0  0  0  0  0  0
    0.0573    1.3288    2.2380 H   0  0  0  0  0  0  0  0  0  0  0  0
  1  2  3  0
  1  5  1  0
  2  3  1  0
  3  4  2  3
  3  6  1  0
  4  7  1  0
  4  8  1  0
  9 10  1  0
  9 11  1  0
  9 12  1  0
M  RAD  1   9   2
M  END
>  <reaction>  (14) 
rxn_249

>  <mol_properties>  (14) 
{"1": {"label": "*0", "atom_type": "Ct"}, "2": {"label": "*1", "atom_type": "Cd"}, "5": {"label": "*2", "atom_type": "H0"}, "8": {"label": "*3", "atom_type": "Cs"}, "9": {"label": "*4", "atom_type": "H0"}}

>  <type>  (14) 
unop_10

>  <geom_source>  (14) 
Heuristics

$$$$

     RDKit          3D

 12 10  0  0  0  0  0  0  0  0999 V2000
    0.0034   -0.3404   -2.2817 C   0  0  0  0  0  0  0  0  0  0  0  0
    0.0034   -0.3404   -1.0823 C   0  0  0  0  0  0  0  0  0  0  0  0
    0.0034   -0.3086    0.3429 C   0  0  0  0  0  0  0  0  0  0  0  0
    0.0034   -1.3942    1.1092 C   0  0  0  0  0  0  0  0  0  0  0  0
    0.0034   -0.3404   -3.3452 H   0  0  0  0  0  0  0  0  0  0  0  0
    0.0034    0.8740    0.8875 H   0  0  0  0  0  0  0  0  0  0  0  0
    0.0034   -1.3095    2.1878 H   0  0  0  0  0  0  0  0  0  0  0  0
    0.0034   -2.3886    0.6814 H   0  0  0  0  0  0  0  0  0  0  0  0
    0.0034    2.0610    1.4340 C   0  0  0  0  0  3  0  0  0  0  0  0
    0.5167    2.0188    2.3935 H   0  0  0  0  0  0  0  0  0  0  0  0
   -1.0625    1.8967    1.5851 H   0  0  0  0  0  0  0  0  0  0  0  0
    0.3301    3.0911    1.3003 H   0  0  0  0  0  0  0  0  0  0  0  0
  1  2  3  0
  1  5  1  0
  2  3  1  0
  3  4  2  3
  3  6  1  0
  4  7  1  0
  4  8  1  0
  9 10  1  0
  9 11  1  0
  9 12  1  0
M  RAD  1   9   2
M  END
>  <reaction>  (15) 
rxn_249

>  <mol_properties>  (15) 
{"1": {"label": "*0", "atom_type": "Ct"}, "2": {"label": "*1", "atom_type": "Cd"}, "5": {"label": "*2", "atom_type": "H0"}, "8": {"label": "*3", "atom_type": "Cs"}, "9": {"label": "*4", "atom_type": "H0"}}

>  <type>  (15) 
unop_11

>  <geom_source>  (15) 
Heuristics

$$$$

     RDKit          3D

 12 10  0  0  0  0  0  0  0  0999 V2000
   -0.0031   -0.3336   -2.2748 C   0  0  0  0  0  0  0  0  0  0  0  0
   -0.0031   -0.3336   -1.0754 C   0  0  0  0  0  0  0  0  0  0  0  0
   -0.0031   -0.3018    0.3498 C   0  0  0  0  0  0  0  0  0  0  0  0
   -0.0030   -1.3874    1.1161 C   0  0  0  0  0  0  0  0  0  0  0  0
   -0.0031   -0.3336   -3.3382 H   0  0  0  0  0  0  0  0  0  0  0  0
   -0.0031    0.8809    0.8944 H   0  0  0  0  0  0  0  0  0  0  0  0
   -0.0030   -1.3027    2.1947 H   0  0  0  0  0  0  0  0  0  0  0  0
   -0.0030   -2.3817    0.6884 H   0  0  0  0  0  0  0  0  0  0  0  0
   -0.0031    2.0678    1.4410 C   0  0  0  0  0  3  0  0  0  0  0  0
   -0.0031    2.8269    0.6603 H   0  0  0  0  0  0  0  0  0  0  0  0
    0.8860    2.1828    2.0591 H   0  0  0  0  0  0  0  0  0  0  0  0
   -0.6885    1.5615    2.1190 H   0  0  0  0  0  0  0  0  0  0  0  0
  1  2  3  0
  1  5  1  0
  2  3  1  0
  3  4  2  3
  3  6  1  0
  4  7  1  0
  4  8  1  0
  9 10  1  0
  9 11  1  0
  9 12  1  0
M  RAD  1   9   2
M  END
>  <reaction>  (16) 
rxn_249

>  <mol_properties>  (16) 
{"1": {"label": "*0", "atom_type": "Ct"}, "2": {"label": "*1", "atom_type": "Cd"}, "5": {"label": "*2", "atom_type": "H0"}, "8": {"label": "*3", "atom_type": "Cs"}, "9": {"label": "*4", "atom_type": "H0"}}

>  <type>  (16) 
unop_12

>  <geom_source>  (16) 
Heuristics

$$$$

     RDKit          3D

 12 10  0  0  0  0  0  0  0  0999 V2000
    1.8268   -0.1537   -0.3532 C   0  0  0  0  0  0  0  0  0  0  0  0
   -1.1321    1.5938    0.0155 C   0  0  0  0  0  0  0  0  0  0  0  0
   -0.7204    0.4286   -0.4682 C   0  0  0  0  0  3  0  0  0  0  0  0
   -1.1475   -0.8126    0.1190 C   0  0  0  0  0  0  0  0  0  0  0  0
   -1.5050   -1.8538    0.6106 C   0  0  0  0  0  0  0  0  0  0  0  0
    2.1666   -1.0539    0.1991 H   0  0  0  0  0  0  0  0  0  0  0  0
    2.0549   -0.2739   -1.4322 H   0  0  0  0  0  0  0  0  0  0  0  0
    2.3528    0.7410    0.0386 H   0  0  0  0  0  0  0  0  0  0  0  0
    0.5198   -0.0038   -0.1919 H   0  0  0  0  0  0  0  0  0  0  0  0
   -0.7953    2.5121   -0.4455 H   0  0  0  0  0  0  0  0  0  0  0  0
   -1.8015    1.6438    0.8660 H   0  0  0  0  0  0  0  0  0  0  0  0
   -1.8190   -2.7676    1.0422 H   0  0  0  0  0  0  0  0  0  0  0  0
  1  6  1  0
  1  7  1  0
  1  8  1  0
  1  9  1  0
  2  3  2  3
  2 10  1  0
  2 11  1  0
  3  4  1  0
  4  5  3  0
  5 12  1  0
M  RAD  1   3   2
M  END
>  <reaction>  (17) 
rxn_249

>  <mol_properties>  (17) 
{"1": {"label": "*0", "atom_type": "Ct"}, "2": {"label": "*1", "atom_type": "Cd"}, "5": {"label": "*2", "atom_type": "H0"}, "8": {"label": "*3", "atom_type": "Cs"}, "9": {"label": "*4", "atom_type": "H0"}}

>  <type>  (17) 
unop_13

>  <geom_source>  (17) 
AutoTST

$$$$
