
     RDKit          3D

 15 15  0  0  0  0  0  0  0  0999 V2000
    2.2031   -0.2111   -0.1693 C   0  0  0  0  0  0  0  0  0  0  0  0
    0.7140   -0.0314   -0.0623 C   0  0  0  0  0  0  0  0  0  0  0  0
   -0.0114    0.5491   -1.0982 C   0  0  0  0  0  0  0  0  0  0  0  0
   -1.3882    0.6886   -1.0150 C   0  0  0  0  0  0  0  0  0  0  0  0
   -2.0661    0.2493    0.1118 C   0  0  0  0  0  0  0  0  0  0  0  0
   -1.3551   -0.3278    1.1528 C   0  0  0  0  0  0  0  0  0  0  0  0
    0.0216   -0.4648    1.0642 C   0  0  0  0  0  0  0  0  0  0  0  0
    2.6776   -0.1836    0.8122 H   0  0  0  0  0  0  0  0  0  0  0  0
    2.4446   -1.1749   -0.6249 H   0  0  0  0  0  0  0  0  0  0  0  0
    2.6532    0.5664   -0.7875 H   0  0  0  0  0  0  0  0  0  0  0  0
    0.5104    0.8989   -1.9819 H   0  0  0  0  0  0  0  0  0  0  0  0
   -1.9328    1.1452   -1.8322 H   0  0  0  0  0  0  0  0  0  0  0  0
   -3.1409    0.3597    0.1800 H   0  0  0  0  0  0  0  0  0  0  0  0
   -1.8736   -0.6702    2.0398 H   0  0  0  0  0  0  0  0  0  0  0  0
    0.5695   -0.9141    1.8849 H   0  0  0  0  0  0  0  0  0  0  0  0
  1  2  1  0
  1  8  1  0
  1  9  1  0
  1 10  1  0
  2  3  2  0
  2  7  1  0
  3  4  1  0
  3 11  1  0
  4  5  2  0
  4 12  1  0
  5  6  1  0
  5 13  1  0
  6  7  2  0
  6 14  1  0
  7 15  1  0
M  END
>  <reaction>  (1) 
rxn_1440

>  <mol_properties>  (1) 
{"0": {"label": "donator", "atom_type": "Cs"}, "7": {"label": "d_hydrogen", "atom_type": "H0"}}

>  <type>  (1) 
r1h

$$$$

     RDKit          3D

 14 13  0  0  0  0  0  0  0  0999 V2000
    1.0767   -1.6838    1.2931 C   0  0  0  0  0  0  0  0  0  0  0  0
    1.0020   -0.3665    0.9163 C   0  0  0  0  0  0  0  0  0  0  0  0
    1.3965    0.7260    1.6806 C   0  0  0  0  0  3  0  0  0  0  0  0
    1.2666    2.1197    1.1619 C   0  0  0  0  0  0  0  0  0  0  0  0
    1.9670    0.5479    3.0536 C   0  0  0  0  0  0  0  0  0  0  0  0
    0.7448   -2.4705    0.6300 H   0  0  0  0  0  0  0  0  0  0  0  0
    1.4663   -1.9826    2.2578 H   0  0  0  0  0  0  0  0  0  0  0  0
    0.5980   -0.1511   -0.0695 H   0  0  0  0  0  0  0  0  0  0  0  0
    0.6296    2.7241    1.8172 H   0  0  0  0  0  0  0  0  0  0  0  0
    2.2410    2.6200    1.1341 H   0  0  0  0  0  0  0  0  0  0  0  0
    0.8426    2.1448    0.1579 H   0  0  0  0  0  0  0  0  0  0  0  0
    2.8745   -0.0634    3.0328 H   0  0  0  0  0  0  0  0  0  0  0  0
    1.2599    0.0408    3.7173 H   0  0  0  0  0  0  0  0  0  0  0  0
    2.2205    1.5071    3.5054 H   0  0  0  0  0  0  0  0  0  0  0  0
  1  2  2  3
  1  6  1  0
  1  7  1  0
  2  3  1  0
  2  8  1  0
  3  4  1  0
  3  5  1  0
  4  9  1  0
  4 10  1  0
  4 11  1  0
  5 12  1  0
  5 13  1  0
  5 14  1  0
M  RAD  1   3   2
M  END
>  <reaction>  (2) 
rxn_1440

>  <mol_properties>  (2) 
{"2": {"label": "acceptor", "atom_type": "Cs"}}

>  <type>  (2) 
r2

$$$$

     RDKit          3D

 15 14  0  0  0  0  0  0  0  0999 V2000
    2.1256    0.4849   -0.6284 C   0  0  0  0  0  0  0  0  0  0  0  0
    1.1128    0.2141    0.1794 C   0  0  0  0  0  0  0  0  0  0  0  0
   -0.3017   -0.0425   -0.2513 C   0  0  0  0  0  0  0  0  0  0  0  0
   -1.2427    1.0075    0.3423 C   0  0  0  0  0  0  0  0  0  0  0  0
   -0.7381   -1.4526    0.1504 C   0  0  0  0  0  0  0  0  0  0  0  0
    3.1243    0.6602   -0.2486 H   0  0  0  0  0  0  0  0  0  0  0  0
    1.9908    0.5411   -1.7036 H   0  0  0  0  0  0  0  0  0  0  0  0
    1.2888    0.1665    1.2533 H   0  0  0  0  0  0  0  0  0  0  0  0
   -0.3426    0.0343   -1.3424 H   0  0  0  0  0  0  0  0  0  0  0  0
   -0.9570    2.0133    0.0315 H   0  0  0  0  0  0  0  0  0  0  0  0
   -1.2189    0.9728    1.4350 H   0  0  0  0  0  0  0  0  0  0  0  0
   -2.2723    0.8287    0.0254 H   0  0  0  0  0  0  0  0  0  0  0  0
   -0.6964   -1.5744    1.2363 H   0  0  0  0  0  0  0  0  0  0  0  0
   -0.0911   -2.2079   -0.2978 H   0  0  0  0  0  0  0  0  0  0  0  0
   -1.7646   -1.6461   -0.1677 H   0  0  0  0  0  0  0  0  0  0  0  0
  1  2  2  3
  1  6  1  0
  1  7  1  0
  2  3  1  0
  2  8  1  0
  3  4  1  0
  3  5  1  0
  3  9  1  0
  4 10  1  0
  4 11  1  0
  4 12  1  0
  5 13  1  0
  5 14  1  0
  5 15  1  0
M  END
>  <reaction>  (3) 
rxn_1440

>  <mol_properties>  (3) 
{"2": {"label": "acceptor", "atom_type": "Cs"}, "14": {"label": "a_hydrogen", "atom_type": "H0"}}

>  <type>  (3) 
r2h

$$$$

     RDKit          3D

 29 28  0  0  0  0  0  0  0  0999 V2000
   -2.7253    0.1094    1.2492 C   0  0  0  0  0  0  0  0  0  0  0  0
   -1.7357    0.0146    2.1379 C   0  0  0  0  0  0  0  0  0  0  0  0
   -0.5304   -0.8160    2.0261 C   0  0  0  0  0  0  0  0  0  0  0  0
   -0.5278   -1.8755    0.9502 C   0  0  0  0  0  0  0  0  0  0  0  0
    0.0507   -1.2687    3.3486 C   0  0  0  0  0  0  0  0  0  0  0  0
   -3.5562    0.7835    1.4125 H   0  0  0  0  0  0  0  0  0  0  0  0
   -2.7436   -0.4788    0.3401 H   0  0  0  0  0  0  0  0  0  0  0  0
   -1.7860    0.6387    3.0276 H   0  0  0  0  0  0  0  0  0  0  0  0
    0.4470   -2.3635    0.8971 H   0  0  0  0  0  0  0  0  0  0  0  0
   -1.2802   -2.6431    1.1581 H   0  0  0  0  0  0  0  0  0  0  0  0
   -0.7366   -1.4542   -0.0343 H   0  0  0  0  0  0  0  0  0  0  0  0
   -0.5610   -2.0598    3.7944 H   0  0  0  0  0  0  0  0  0  0  0  0
    0.1019   -0.4452    4.0638 H   0  0  0  0  0  0  0  0  0  0  0  0
    1.0591   -1.6661    3.2155 H   0  0  0  0  0  0  0  0  0  0  0  0
    1.2838    0.8931    0.9856 C   0  0  0  0  0  0  0  0  0  0  0  0
    1.0655    0.7423   -0.4438 C   0  0  0  0  0  0  0  0  0  0  0  0
    0.0131    1.4114   -1.0820 C   0  0  0  0  0  3  0  0  0  0  0  0
   -0.2530    1.2038   -2.4232 C   0  0  0  0  0  0  0  0  0  0  0  0
    0.5240    0.3232   -3.1643 C   0  0  0  0  0  0  0  0  0  0  0  0
    1.5737   -0.3454   -2.5482 C   0  0  0  0  0  0  0  0  0  0  0  0
    1.8397   -0.1406   -1.2067 C   0  0  0  0  0  0  0  0  0  0  0  0
    0.3624    0.0317    1.5796 H   0  0  0  0  0  0  0  0  0  0  0  0
    2.2350    0.5387    1.3727 H   0  0  0  0  0  0  0  0  0  0  0  0
    0.9508    1.8268    1.4304 H   0  0  0  0  0  0  0  0  0  0  0  0
   -0.6050    2.0901   -0.5062 H   0  0  0  0  0  0  0  0  0  0  0  0
   -1.0724    1.7314   -2.8956 H   0  0  0  0  0  0  0  0  0  0  0  0
    0.3155    0.1618   -4.2142 H   0  0  0  0  0  0  0  0  0  0  0  0
    2.1879   -1.0309   -3.1191 H   0  0  0  0  0  0  0  0  0  0  0  0
    2.6574   -0.6709   -0.7320 H   0  0  0  0  0  0  0  0  0  0  0  0
  1  2  2  3
  1  6  1  0
  1  7  1  0
  2  3  1  0
  2  8  1  0
  3  4  1  0
  3  5  1  0
  3 22  1  0
  4  9  1  0
  4 10  1  0
  4 11  1  0
  5 12  1  0
  5 13  1  0
  5 14  1  0
 15 16  2  3
 15 23  1  0
 15 24  1  0
 16 17  1  0
 16 21  1  0
 17 18  1  0
 17 25  1  0
 18 19  2  0
 18 26  1  0
 19 20  1  0
 19 27  1  0
 20 21  2  0
 20 28  1  0
 21 29  1  0
M  RAD  1  17   2
M  END
>  <reaction>  (4) 
rxn_1440

>  <mol_properties>  (4) 
{"1": {"label": "*0", "atom_type": "Cd"}, "2": {"label": "*1", "atom_type": "Cs"}, "14": {"label": "*3", "atom_type": "Cd"}, "15": {"label": "*4", "atom_type": "Cd"}, "21": {"label": "*2", "atom_type": "H0"}}

>  <type>  (4) 
ts

$$$$

     RDKit          3D

 29 28  0  0  0  0  0  0  0  0999 V2000
    1.1240   -1.1823    3.4135 C   0  0  0  0  0  0  0  0  0  0  0  0
   -0.1144   -1.4842    3.0574 C   0  0  0  0  0  0  0  0  0  0  0  0
   -0.7472   -1.1539    1.7372 C   0  0  0  0  0  3  0  0  0  0  0  0
   -1.9551   -0.2363    1.9352 C   0  0  0  0  0  0  0  0  0  0  0  0
   -1.1509   -2.4324    1.0004 C   0  0  0  0  0  0  0  0  0  0  0  0
    1.5175   -1.4520    4.3856 H   0  0  0  0  0  0  0  0  0  0  0  0
    1.7912   -0.6521    2.7420 H   0  0  0  0  0  0  0  0  0  0  0  0
   -0.7535   -2.0173    3.7600 H   0  0  0  0  0  0  0  0  0  0  0  0
   -2.4143    0.0124    0.9762 H   0  0  0  0  0  0  0  0  0  0  0  0
   -2.7141   -0.7256    2.5519 H   0  0  0  0  0  0  0  0  0  0  0  0
   -1.6674    0.6924    2.4299 H   0  0  0  0  0  0  0  0  0  0  0  0
   -1.8814   -2.9994    1.5839 H   0  0  0  0  0  0  0  0  0  0  0  0
   -0.2875   -3.0758    0.8258 H   0  0  0  0  0  0  0  0  0  0  0  0
   -1.6053   -2.1968    0.0358 H   0  0  0  0  0  0  0  0  0  0  0  0
    0.4347    0.9834    0.7833 C   0  0  0  0  0  0  0  0  0  0  0  0
    0.4347    0.9834   -0.7204 C   0  0  0  0  0  0  0  0  0  0  0  0
    0.4347    2.1777   -1.4344 C   0  0  0  0  0  0  0  0  0  0  0  0
    0.4651    2.1811   -2.8204 C   0  0  0  0  0  0  0  0  0  0  0  0
    0.4947    0.9841   -3.5194 C   0  0  0  0  0  0  0  0  0  0  0  0
    0.4916   -0.2133   -2.8204 C   0  0  0  0  0  0  0  0  0  0  0  0
    0.4610   -0.2106   -1.4344 C   0  0  0  0  0  0  0  0  0  0  0  0
   -0.1552   -0.0833    1.2594 H   0  0  0  0  0  0  0  0  0  0  0  0
    1.4569    0.9947    1.1701 H   0  0  0  0  0  0  0  0  0  0  0  0
   -0.0763    1.8613    1.1801 H   0  0  0  0  0  0  0  0  0  0  0  0
    0.4081    3.1188   -0.8966 H   0  0  0  0  0  0  0  0  0  0  0  0
    0.4625    3.1223   -3.3561 H   0  0  0  0  0  0  0  0  0  0  0  0
    0.5158    0.9843   -4.6018 H   0  0  0  0  0  0  0  0  0  0  0  0
    0.5097   -1.1543   -3.3561 H   0  0  0  0  0  0  0  0  0  0  0  0
    0.4552   -1.1521   -0.8966 H   0  0  0  0  0  0  0  0  0  0  0  0
  1  2  2  3
  1  6  1  0
  1  7  1  0
  2  3  1  0
  2  8  1  0
  3  4  1  0
  3  5  1  0
  4  9  1  0
  4 10  1  0
  4 11  1  0
  5 12  1  0
  5 13  1  0
  5 14  1  0
 15 16  1  0
 15 22  1  0
 15 23  1  0
 15 24  1  0
 16 17  2  0
 16 21  1  0
 17 18  1  0
 17 25  1  0
 18 19  2  0
 18 26  1  0
 19 20  1  0
 19 27  1  0
 20 21  2  0
 20 28  1  0
 21 29  1  0
M  RAD  1   3   2
M  END
>  <reaction>  (5) 
rxn_1440

>  <mol_properties>  (5) 
{"1": {"label": "*0", "atom_type": "Cd"}, "2": {"label": "*1", "atom_type": "Cs"}, "14": {"label": "*3", "atom_type": "Cd"}, "15": {"label": "*4", "atom_type": "Cd"}, "21": {"label": "*2", "atom_type": "H0"}}

>  <type>  (5) 
unop_1

>  <geom_source>  (5) 
Heuristics

$$$$

     RDKit          3D

 29 28  0  0  0  0  0  0  0  0999 V2000
    0.5895   -2.3165    0.3264 C   0  0  0  0  0  0  0  0  0  0  0  0
   -0.0423   -2.2273    1.4859 C   0  0  0  0  0  0  0  0  0  0  0  0
   -0.7890   -1.0236    1.9817 C   0  0  0  0  0  3  0  0  0  0  0  0
   -0.1614   -0.4967    3.2735 C   0  0  0  0  0  0  0  0  0  0  0  0
   -2.2670   -1.3576    2.1925 C   0  0  0  0  0  0  0  0  0  0  0  0
    1.1101   -3.2188    0.0309 H   0  0  0  0  0  0  0  0  0  0  0  0
    0.6084   -1.4861   -0.3717 H   0  0  0  0  0  0  0  0  0  0  0  0
   -0.0383   -3.0832    2.1596 H   0  0  0  0  0  0  0  0  0  0  0  0
   -0.6974    0.3838    3.6339 H   0  0  0  0  0  0  0  0  0  0  0  0
   -0.2008   -1.2563    4.0591 H   0  0  0  0  0  0  0  0  0  0  0  0
    0.8839   -0.2244    3.1211 H   0  0  0  0  0  0  0  0  0  0  0  0
   -2.3809   -2.1477    2.9398 H   0  0  0  0  0  0  0  0  0  0  0  0
   -2.7291   -1.7017    1.2661 H   0  0  0  0  0  0  0  0  0  0  0  0
   -2.8156   -0.4823    2.5464 H   0  0  0  0  0  0  0  0  0  0  0  0
    0.3929    1.1138    1.0278 C   0  0  0  0  0  0  0  0  0  0  0  0
    0.3929    1.1138   -0.4759 C   0  0  0  0  0  0  0  0  0  0  0  0
    0.3929    2.3081   -1.1899 C   0  0  0  0  0  0  0  0  0  0  0  0
    0.4233    2.3114   -2.5759 C   0  0  0  0  0  0  0  0  0  0  0  0
    0.4529    1.1144   -3.2750 C   0  0  0  0  0  0  0  0  0  0  0  0
    0.4497   -0.0830   -2.5759 C   0  0  0  0  0  0  0  0  0  0  0  0
    0.4192   -0.0803   -1.1899 C   0  0  0  0  0  0  0  0  0  0  0  0
   -0.1970    0.0470    1.5039 H   0  0  0  0  0  0  0  0  0  0  0  0
    1.4151    1.1250    1.4146 H   0  0  0  0  0  0  0  0  0  0  0  0
   -0.1181    1.9916    1.4246 H   0  0  0  0  0  0  0  0  0  0  0  0
    0.3663    3.2492   -0.6521 H   0  0  0  0  0  0  0  0  0  0  0  0
    0.4207    3.2526   -3.1117 H   0  0  0  0  0  0  0  0  0  0  0  0
    0.4740    1.1146   -4.3573 H   0  0  0  0  0  0  0  0  0  0  0  0
    0.4678   -1.0240   -3.1117 H   0  0  0  0  0  0  0  0  0  0  0  0
    0.4134   -1.0217   -0.6521 H   0  0  0  0  0  0  0  0  0  0  0  0
  1  2  2  3
  1  6  1  0
  1  7  1  0
  2  3  1  0
  2  8  1  0
  3  4  1  0
  3  5  1  0
  4  9  1  0
  4 10  1  0
  4 11  1  0
  5 12  1  0
  5 13  1  0
  5 14  1  0
 15 16  1  0
 15 22  1  0
 15 23  1  0
 15 24  1  0
 16 17  2  0
 16 21  1  0
 17 18  1  0
 17 25  1  0
 18 19  2  0
 18 26  1  0
 19 20  1  0
 19 27  1  0
 20 21  2  0
 20 28  1  0
 21 29  1  0
M  RAD  1   3   2
M  END
>  <reaction>  (6) 
rxn_1440

>  <mol_properties>  (6) 
{"1": {"label": "*0", "atom_type": "Cd"}, "2": {"label": "*1", "atom_type": "Cs"}, "14": {"label": "*3", "atom_type": "Cd"}, "15": {"label": "*4", "atom_type": "Cd"}, "21": {"label": "*2", "atom_type": "H0"}}

>  <type>  (6) 
unop_2

>  <geom_source>  (6) 
Heuristics

$$$$

     RDKit          3D

 29 28  0  0  0  0  0  0  0  0999 V2000
   -0.0915   -0.1399    3.9245 C   0  0  0  0  0  0  0  0  0  0  0  0
   -0.6334   -1.1199    3.2191 C   0  0  0  0  0  0  0  0  0  0  0  0
   -0.6754   -1.1958    1.7208 C   0  0  0  0  0  3  0  0  0  0  0  0
   -2.1222   -1.2100    1.2241 C   0  0  0  0  0  0  0  0  0  0  0  0
    0.0818   -2.4288    1.2241 C   0  0  0  0  0  0  0  0  0  0  0  0
   -0.0965   -0.1491    5.0073 H   0  0  0  0  0  0  0  0  0  0  0  0
    0.3787    0.7103    3.4415 H   0  0  0  0  0  0  0  0  0  0  0  0
   -1.0960   -1.9565    3.7412 H   0  0  0  0  0  0  0  0  0  0  0  0
   -2.1573   -1.2578    0.1337 H   0  0  0  0  0  0  0  0  0  0  0  0
   -2.6551   -2.0816    1.6139 H   0  0  0  0  0  0  0  0  0  0  0  0
   -2.6582   -0.3162    1.5465 H   0  0  0  0  0  0  0  0  0  0  0  0
   -0.3730   -3.3436    1.6139 H   0  0  0  0  0  0  0  0  0  0  0  0
    1.1238   -2.4076    1.5465 H   0  0  0  0  0  0  0  0  0  0  0  0
    0.0600   -2.4839    0.1337 H   0  0  0  0  0  0  0  0  0  0  0  0
    0.5066    0.9415    0.7669 C   0  0  0  0  0  0  0  0  0  0  0  0
    0.5066    0.9415   -0.7368 C   0  0  0  0  0  0  0  0  0  0  0  0
    0.5066    2.1358   -1.4508 C   0  0  0  0  0  0  0  0  0  0  0  0
    0.5370    2.1392   -2.8368 C   0  0  0  0  0  0  0  0  0  0  0  0
    0.5665    0.9422   -3.5359 C   0  0  0  0  0  0  0  0  0  0  0  0
    0.5634   -0.2552   -2.8368 C   0  0  0  0  0  0  0  0  0  0  0  0
    0.5329   -0.2525   -1.4508 C   0  0  0  0  0  0  0  0  0  0  0  0
   -0.0833   -0.1252    1.2430 H   0  0  0  0  0  0  0  0  0  0  0  0
    1.5288    0.9528    1.1537 H   0  0  0  0  0  0  0  0  0  0  0  0
   -0.0045    1.8194    1.1637 H   0  0  0  0  0  0  0  0  0  0  0  0
    0.4799    3.0769   -0.9130 H   0  0  0  0  0  0  0  0  0  0  0  0
    0.5344    3.0804   -3.3725 H   0  0  0  0  0  0  0  0  0  0  0  0
    0.5877    0.9424   -4.6182 H   0  0  0  0  0  0  0  0  0  0  0  0
    0.5815   -1.1962   -3.3725 H   0  0  0  0  0  0  0  0  0  0  0  0
    0.5270   -1.1940   -0.9130 H   0  0  0  0  0  0  0  0  0  0  0  0
  1  2  2  3
  1  6  1  0
  1  7  1  0
  2  3  1  0
  2  8  1  0
  3  4  1  0
  3  5  1  0
  4  9  1  0
  4 10  1  0
  4 11  1  0
  5 12  1  0
  5 13  1  0
  5 14  1  0
 15 16  1  0
 15 22  1  0
 15 23  1  0
 15 24  1  0
 16 17  2  0
 16 21  1  0
 17 18  1  0
 17 25  1  0
 18 19  2  0
 18 26  1  0
 19 20  1  0
 19 27  1  0
 20 21  2  0
 20 28  1  0
 21 29  1  0
M  RAD  1   3   2
M  END
>  <reaction>  (7) 
rxn_1440

>  <mol_properties>  (7) 
{"1": {"label": "*0", "atom_type": "Cd"}, "2": {"label": "*1", "atom_type": "Cs"}, "14": {"label": "*3", "atom_type": "Cd"}, "15": {"label": "*4", "atom_type": "Cd"}, "21": {"label": "*2", "atom_type": "H0"}}

>  <type>  (7) 
unop_3

>  <geom_source>  (7) 
Heuristics

$$$$

     RDKit          3D

 29 28  0  0  0  0  0  0  0  0999 V2000
   -1.6288   -1.1933   -0.1936 C   0  0  0  0  0  0  0  0  0  0  0  0
   -1.5678   -1.5620    1.0760 C   0  0  0  0  0  0  0  0  0  0  0  0
   -0.5165   -1.1354    2.0584 C   0  0  0  0  0  3  0  0  0  0  0  0
    0.2611   -2.3481    2.5733 C   0  0  0  0  0  0  0  0  0  0  0  0
   -1.1471   -0.3619    3.2179 C   0  0  0  0  0  0  0  0  0  0  0  0
   -2.4180   -1.5402   -0.8488 H   0  0  0  0  0  0  0  0  0  0  0  0
   -0.8878   -0.5281   -0.6246 H   0  0  0  0  0  0  0  0  0  0  0  0
   -2.3308   -2.2313    1.4714 H   0  0  0  0  0  0  0  0  0  0  0  0
    1.0322   -2.0413    3.2831 H   0  0  0  0  0  0  0  0  0  0  0  0
   -0.4071   -3.0449    3.0867 H   0  0  0  0  0  0  0  0  0  0  0  0
    0.7417   -2.8847    1.7541 H   0  0  0  0  0  0  0  0  0  0  0  0
   -1.8651   -0.9884    3.7540 H   0  0  0  0  0  0  0  0  0  0  0  0
   -1.6746    0.5234    2.8601 H   0  0  0  0  0  0  0  0  0  0  0  0
   -0.3845   -0.0432    3.9315 H   0  0  0  0  0  0  0  0  0  0  0  0
    0.6654    1.0019    1.1045 C   0  0  0  0  0  0  0  0  0  0  0  0
    0.6654    1.0019   -0.3992 C   0  0  0  0  0  0  0  0  0  0  0  0
    0.6654    2.1962   -1.1133 C   0  0  0  0  0  0  0  0  0  0  0  0
    0.6959    2.1996   -2.4993 C   0  0  0  0  0  0  0  0  0  0  0  0
    0.7254    1.0026   -3.1983 C   0  0  0  0  0  0  0  0  0  0  0  0
    0.7223   -0.1948   -2.4993 C   0  0  0  0  0  0  0  0  0  0  0  0
    0.6918   -0.1921   -1.1133 C   0  0  0  0  0  0  0  0  0  0  0  0
    0.0756   -0.0648    1.5806 H   0  0  0  0  0  0  0  0  0  0  0  0
    1.6877    1.0132    1.4913 H   0  0  0  0  0  0  0  0  0  0  0  0
    0.1544    1.8798    1.5013 H   0  0  0  0  0  0  0  0  0  0  0  0
    0.6388    3.1373   -0.5754 H   0  0  0  0  0  0  0  0  0  0  0  0
    0.6932    3.1408   -3.0350 H   0  0  0  0  0  0  0  0  0  0  0  0
    0.7466    1.0028   -4.2806 H   0  0  0  0  0  0  0  0  0  0  0  0
    0.7404   -1.1358   -3.0350 H   0  0  0  0  0  0  0  0  0  0  0  0
    0.6859   -1.1336   -0.5754 H   0  0  0  0  0  0  0  0  0  0  0  0
  1  2  2  3
  1  6  1  0
  1  7  1  0
  2  3  1  0
  2  8  1  0
  3  4  1  0
  3  5  1  0
  4  9  1  0
  4 10  1  0
  4 11  1  0
  5 12  1  0
  5 13  1  0
  5 14  1  0
 15 16  1  0
 15 22  1  0
 15 23  1  0
 15 24  1  0
 16 17  2  0
 16 21  1  0
 17 18  1  0
 17 25  1  0
 18 19  2  0
 18 26  1  0
 19 20  1  0
 19 27  1  0
 20 21  2  0
 20 28  1  0
 21 29  1  0
M  RAD  1   3   2
M  END
>  <reaction>  (8) 
rxn_1440

>  <mol_properties>  (8) 
{"1": {"label": "*0", "atom_type": "Cd"}, "2": {"label": "*1", "atom_type": "Cs"}, "14": {"label": "*3", "atom_type": "Cd"}, "15": {"label": "*4", "atom_type": "Cd"}, "21": {"label": "*2", "atom_type": "H0"}}

>  <type>  (8) 
unop_4

>  <geom_source>  (8) 
Heuristics

$$$$

     RDKit          3D

 29 28  0  0  0  0  0  0  0  0999 V2000
   -1.6205    0.3353    3.4135 C   0  0  0  0  0  0  0  0  0  0  0  0
   -1.2178   -0.8741    3.0574 C   0  0  0  0  0  0  0  0  0  0  0  0
   -0.6017   -1.2344    1.7372 C   0  0  0  0  0  3  0  0  0  0  0  0
   -1.4698   -2.2560    1.0004 C   0  0  0  0  0  0  0  0  0  0  0  0
    0.8177   -1.7696    1.9352 C   0  0  0  0  0  0  0  0  0  0  0  0
   -2.0581    0.5252    4.3856 H   0  0  0  0  0  0  0  0  0  0  0  0
   -1.5262    1.1824    2.7420 H   0  0  0  0  0  0  0  0  0  0  0  0
   -1.3296   -1.6988    3.7600 H   0  0  0  0  0  0  0  0  0  0  0  0
   -1.0287   -2.5156    0.0358 H   0  0  0  0  0  0  0  0  0  0  0  0
   -1.5617   -3.1762    1.5839 H   0  0  0  0  0  0  0  0  0  0  0  0
   -2.4738   -1.8668    0.8258 H   0  0  0  0  0  0  0  0  0  0  0  0
    0.8068   -2.6726    2.5519 H   0  0  0  0  0  0  0  0  0  0  0  0
    1.4514   -1.0322    2.4299 H   0  0  0  0  0  0  0  0  0  0  0  0
    1.2725   -2.0263    0.9762 H   0  0  0  0  0  0  0  0  0  0  0  0
    0.5802    0.9029    0.7833 C   0  0  0  0  0  0  0  0  0  0  0  0
    0.5802    0.9029   -0.7204 C   0  0  0  0  0  0  0  0  0  0  0  0
    0.5802    2.0972   -1.4344 C   0  0  0  0  0  0  0  0  0  0  0  0
    0.6107    2.1006   -2.8204 C   0  0  0  0  0  0  0  0  0  0  0  0
    0.6402    0.9036   -3.5194 C   0  0  0  0  0  0  0  0  0  0  0  0
    0.6371   -0.2938   -2.8204 C   0  0  0  0  0  0  0  0  0  0  0  0
    0.6066   -0.2911   -1.4344 C   0  0  0  0  0  0  0  0  0  0  0  0
   -0.0096   -0.1638    1.2594 H   0  0  0  0  0  0  0  0  0  0  0  0
    1.6025    0.9142    1.1701 H   0  0  0  0  0  0  0  0  0  0  0  0
    0.0692    1.7808    1.1801 H   0  0  0  0  0  0  0  0  0  0  0  0
    0.5536    3.0383   -0.8966 H   0  0  0  0  0  0  0  0  0  0  0  0
    0.6081    3.0418   -3.3561 H   0  0  0  0  0  0  0  0  0  0  0  0
    0.6614    0.9038   -4.6018 H   0  0  0  0  0  0  0  0  0  0  0  0
    0.6552   -1.2348   -3.3561 H   0  0  0  0  0  0  0  0  0  0  0  0
    0.6007   -1.2326   -0.8966 H   0  0  0  0  0  0  0  0  0  0  0  0
  1  2  2  3
  1  6  1  0
  1  7  1  0
  2  3  1  0
  2  8  1  0
  3  4  1  0
  3  5  1  0
  4  9  1  0
  4 10  1  0
  4 11  1  0
  5 12  1  0
  5 13  1  0
  5 14  1  0
 15 16  1  0
 15 22  1  0
 15 23  1  0
 15 24  1  0
 16 17  2  0
 16 21  1  0
 17 18  1  0
 17 25  1  0
 18 19  2  0
 18 26  1  0
 19 20  1  0
 19 27  1  0
 20 21  2  0
 20 28  1  0
 21 29  1  0
M  RAD  1   3   2
M  END
>  <reaction>  (9) 
rxn_1440

>  <mol_properties>  (9) 
{"1": {"label": "*0", "atom_type": "Cd"}, "2": {"label": "*1", "atom_type": "Cs"}, "14": {"label": "*3", "atom_type": "Cd"}, "15": {"label": "*4", "atom_type": "Cd"}, "21": {"label": "*2", "atom_type": "H0"}}

>  <type>  (9) 
unop_5

>  <geom_source>  (9) 
Heuristics

$$$$

     RDKit          3D

 29 28  0  0  0  0  0  0  0  0999 V2000
   -2.2970   -0.7204    0.3264 C   0  0  0  0  0  0  0  0  0  0  0  0
   -1.8855   -1.2080    1.4859 C   0  0  0  0  0  0  0  0  0  0  0  0
   -0.4690   -1.2005    1.9817 C   0  0  0  0  0  3  0  0  0  0  0  0
    0.0338   -2.6299    2.1925 C   0  0  0  0  0  0  0  0  0  0  0  0
   -0.3565   -0.3888    3.2735 C   0  0  0  0  0  0  0  0  0  0  0  0
   -3.3380   -0.7591    0.0309 H   0  0  0  0  0  0  0  0  0  0  0  0
   -1.6037   -0.2629   -0.3717 H   0  0  0  0  0  0  0  0  0  0  0  0
   -2.6126   -1.6596    2.1596 H   0  0  0  0  0  0  0  0  0  0  0  0
    1.0669   -2.6292    2.5464 H   0  0  0  0  0  0  0  0  0  0  0  0
   -0.5748   -3.1465    2.9398 H   0  0  0  0  0  0  0  0  0  0  0  0
   -0.0120   -3.2042    1.2661 H   0  0  0  0  0  0  0  0  0  0  0  0
   -0.9789   -0.8261    4.0591 H   0  0  0  0  0  0  0  0  0  0  0  0
   -0.6816    0.6413    3.1211 H   0  0  0  0  0  0  0  0  0  0  0  0
    0.6743   -0.3747    3.6339 H   0  0  0  0  0  0  0  0  0  0  0  0
    0.7129    0.9368    1.0278 C   0  0  0  0  0  0  0  0  0  0  0  0
    0.7129    0.9368   -0.4759 C   0  0  0  0  0  0  0  0  0  0  0  0
    0.7129    2.1311   -1.1899 C   0  0  0  0  0  0  0  0  0  0  0  0
    0.7433    2.1345   -2.5759 C   0  0  0  0  0  0  0  0  0  0  0  0
    0.7729    0.9375   -3.2750 C   0  0  0  0  0  0  0  0  0  0  0  0
    0.7697   -0.2599   -2.5759 C   0  0  0  0  0  0  0  0  0  0  0  0
    0.7392   -0.2572   -1.1899 C   0  0  0  0  0  0  0  0  0  0  0  0
    0.1230   -0.1299    1.5039 H   0  0  0  0  0  0  0  0  0  0  0  0
    1.7351    0.9480    1.4146 H   0  0  0  0  0  0  0  0  0  0  0  0
    0.2019    1.8147    1.4246 H   0  0  0  0  0  0  0  0  0  0  0  0
    0.6863    3.0722   -0.6521 H   0  0  0  0  0  0  0  0  0  0  0  0
    0.7407    3.0757   -3.1117 H   0  0  0  0  0  0  0  0  0  0  0  0
    0.7940    0.9377   -4.3573 H   0  0  0  0  0  0  0  0  0  0  0  0
    0.7879   -1.2010   -3.1117 H   0  0  0  0  0  0  0  0  0  0  0  0
    0.7334   -1.1987   -0.6521 H   0  0  0  0  0  0  0  0  0  0  0  0
  1  2  2  3
  1  6  1  0
  1  7  1  0
  2  3  1  0
  2  8  1  0
  3  4  1  0
  3  5  1  0
  4  9  1  0
  4 10  1  0
  4 11  1  0
  5 12  1  0
  5 13  1  0
  5 14  1  0
 15 16  1  0
 15 22  1  0
 15 23  1  0
 15 24  1  0
 16 17  2  0
 16 21  1  0
 17 18  1  0
 17 25  1  0
 18 19  2  0
 18 26  1  0
 19 20  1  0
 19 27  1  0
 20 21  2  0
 20 28  1  0
 21 29  1  0
M  RAD  1   3   2
M  END
>  <reaction>  (10) 
rxn_1440

>  <mol_properties>  (10) 
{"1": {"label": "*0", "atom_type": "Cd"}, "2": {"label": "*1", "atom_type": "Cs"}, "14": {"label": "*3", "atom_type": "Cd"}, "15": {"label": "*4", "atom_type": "Cd"}, "21": {"label": "*2", "atom_type": "H0"}}

>  <type>  (10) 
unop_6

>  <geom_source>  (10) 
Heuristics

$$$$

     RDKit          3D

 29 28  0  0  0  0  0  0  0  0999 V2000
   -2.6653   -0.2093    1.2211 C   0  0  0  0  0  0  0  0  0  0  0  0
   -1.9324   -0.9326    2.0526 C   0  0  0  0  0  0  0  0  0  0  0  0
   -0.4742   -1.2448    1.8837 C   0  0  0  0  0  3  0  0  0  0  0  0
   -0.2588   -2.7544    1.7616 C   0  0  0  0  0  0  0  0  0  0  0  0
    0.3359   -0.6726    3.0484 C   0  0  0  0  0  0  0  0  0  0  0  0
   -3.7160   -0.0227    1.4050 H   0  0  0  0  0  0  0  0  0  0  0  0
   -2.2381    0.2240    0.3228 H   0  0  0  0  0  0  0  0  0  0  0  0
   -2.3982   -1.3505    2.9441 H   0  0  0  0  0  0  0  0  0  0  0  0
    0.8004   -2.9856    1.6312 H   0  0  0  0  0  0  0  0  0  0  0  0
   -0.6039   -3.2673    2.6636 H   0  0  0  0  0  0  0  0  0  0  0  0
   -0.8071   -3.1632    0.9117 H   0  0  0  0  0  0  0  0  0  0  0  0
    0.0119   -1.1118    3.9959 H   0  0  0  0  0  0  0  0  0  0  0  0
    0.2134    0.4090    3.1197 H   0  0  0  0  0  0  0  0  0  0  0  0
    1.3987   -0.8913    2.9257 H   0  0  0  0  0  0  0  0  0  0  0  0
    0.7077    0.8926    0.9298 C   0  0  0  0  0  0  0  0  0  0  0  0
    0.7077    0.8926   -0.5739 C   0  0  0  0  0  0  0  0  0  0  0  0
    0.7077    2.0869   -1.2880 C   0  0  0  0  0  0  0  0  0  0  0  0
    0.7381    2.0902   -2.6740 C   0  0  0  0  0  0  0  0  0  0  0  0
    0.7677    0.8932   -3.3730 C   0  0  0  0  0  0  0  0  0  0  0  0
    0.7645   -0.3041   -2.6740 C   0  0  0  0  0  0  0  0  0  0  0  0
    0.7340   -0.3015   -1.2880 C   0  0  0  0  0  0  0  0  0  0  0  0
    0.1178   -0.1742    1.4059 H   0  0  0  0  0  0  0  0  0  0  0  0
    1.7299    0.9038    1.3166 H   0  0  0  0  0  0  0  0  0  0  0  0
    0.1967    1.7705    1.3265 H   0  0  0  0  0  0  0  0  0  0  0  0
    0.6811    3.0280   -0.7502 H   0  0  0  0  0  0  0  0  0  0  0  0
    0.7355    3.0315   -3.2097 H   0  0  0  0  0  0  0  0  0  0  0  0
    0.7888    0.8935   -4.4554 H   0  0  0  0  0  0  0  0  0  0  0  0
    0.7826   -1.2452   -3.2097 H   0  0  0  0  0  0  0  0  0  0  0  0
    0.7282   -1.2429   -0.7502 H   0  0  0  0  0  0  0  0  0  0  0  0
  1  2  2  3
  1  6  1  0
  1  7  1  0
  2  3  1  0
  2  8  1  0
  3  4  1  0
  3  5  1  0
  4  9  1  0
  4 10  1  0
  4 11  1  0
  5 12  1  0
  5 13  1  0
  5 14  1  0
 15 16  1  0
 15 22  1  0
 15 23  1  0
 15 24  1  0
 16 17  2  0
 16 21  1  0
 17 18  1  0
 17 25  1  0
 18 19  2  0
 18 26  1  0
 19 20  1  0
 19 27  1  0
 20 21  2  0
 20 28  1  0
 21 29  1  0
M  RAD  1   3   2
M  END
>  <reaction>  (11) 
rxn_1440

>  <mol_properties>  (11) 
{"1": {"label": "*0", "atom_type": "Cd"}, "2": {"label": "*1", "atom_type": "Cs"}, "14": {"label": "*3", "atom_type": "Cd"}, "15": {"label": "*4", "atom_type": "Cd"}, "21": {"label": "*2", "atom_type": "H0"}}

>  <type>  (11) 
unop_7

>  <geom_source>  (11) 
Heuristics

$$$$

     RDKit          3D

 29 28  0  0  0  0  0  0  0  0999 V2000
    1.4768   -1.9936    2.3449 C   0  0  0  0  0  0  0  0  0  0  0  0
    0.1918   -1.8504    2.6275 C   0  0  0  0  0  0  0  0  0  0  0  0
   -0.8061   -1.1011    1.7940 C   0  0  0  0  0  3  0  0  0  0  0  0
   -1.3956    0.0686    2.5843 C   0  0  0  0  0  0  0  0  0  0  0  0
   -1.9115   -2.0397    1.3067 C   0  0  0  0  0  0  0  0  0  0  0  0
    2.1428   -2.5494    2.9931 H   0  0  0  0  0  0  0  0  0  0  0  0
    1.9103   -1.5578    1.4508 H   0  0  0  0  0  0  0  0  0  0  0  0
   -0.2055   -2.3032    3.5350 H   0  0  0  0  0  0  0  0  0  0  0  0
   -2.1171    0.6211    1.9788 H   0  0  0  0  0  0  0  0  0  0  0  0
   -1.9150   -0.2918    3.4765 H   0  0  0  0  0  0  0  0  0  0  0  0
   -0.6154    0.7600    2.9056 H   0  0  0  0  0  0  0  0  0  0  0  0
   -2.4492   -2.4747    2.1536 H   0  0  0  0  0  0  0  0  0  0  0  0
   -1.5006   -2.8577    0.7132 H   0  0  0  0  0  0  0  0  0  0  0  0
   -2.6361   -1.4998    0.6935 H   0  0  0  0  0  0  0  0  0  0  0  0
    0.3758    1.0362    0.8401 C   0  0  0  0  0  0  0  0  0  0  0  0
    0.3758    1.0362   -0.6637 C   0  0  0  0  0  0  0  0  0  0  0  0
    0.3758    2.2306   -1.3777 C   0  0  0  0  0  0  0  0  0  0  0  0
    0.4062    2.2339   -2.7637 C   0  0  0  0  0  0  0  0  0  0  0  0
    0.4358    1.0369   -3.4627 C   0  0  0  0  0  0  0  0  0  0  0  0
    0.4326   -0.1605   -2.7637 C   0  0  0  0  0  0  0  0  0  0  0  0
    0.4021   -0.1578   -1.3777 C   0  0  0  0  0  0  0  0  0  0  0  0
   -0.2141   -0.0305    1.3161 H   0  0  0  0  0  0  0  0  0  0  0  0
    1.3980    1.0475    1.2268 H   0  0  0  0  0  0  0  0  0  0  0  0
   -0.1352    1.9141    1.2368 H   0  0  0  0  0  0  0  0  0  0  0  0
    0.3492    3.1716   -0.8399 H   0  0  0  0  0  0  0  0  0  0  0  0
    0.4036    3.1751   -3.2994 H   0  0  0  0  0  0  0  0  0  0  0  0
    0.4569    1.0371   -4.5451 H   0  0  0  0  0  0  0  0  0  0  0  0
    0.4508   -1.1015   -3.2994 H   0  0  0  0  0  0  0  0  0  0  0  0
    0.3963   -1.0993   -0.8399 H   0  0  0  0  0  0  0  0  0  0  0  0
  1  2  2  3
  1  6  1  0
  1  7  1  0
  2  3  1  0
  2  8  1  0
  3  4  1  0
  3  5  1  0
  4  9  1  0
  4 10  1  0
  4 11  1  0
  5 12  1  0
  5 13  1  0
  5 14  1  0
 15 16  1  0
 15 22  1  0
 15 23  1  0
 15 24  1  0
 16 17  2  0
 16 21  1  0
 17 18  1  0
 17 25  1  0
 18 19  2  0
 18 26  1  0
 19 20  1  0
 19 27  1  0
 20 21  2  0
 20 28  1  0
 21 29  1  0
M  RAD  1   3   2
M  END
>  <reaction>  (12) 
rxn_1440

>  <mol_properties>  (12) 
{"1": {"label": "*0", "atom_type": "Cd"}, "2": {"label": "*1", "atom_type": "Cs"}, "14": {"label": "*3", "atom_type": "Cd"}, "15": {"label": "*4", "atom_type": "Cd"}, "21": {"label": "*2", "atom_type": "H0"}}

>  <type>  (12) 
unop_8

>  <geom_source>  (12) 
Heuristics

$$$$

     RDKit          3D

 29 28  0  0  0  0  0  0  0  0999 V2000
    1.2182   -2.3568    1.2211 C   0  0  0  0  0  0  0  0  0  0  0  0
    0.2159   -2.1205    2.0526 C   0  0  0  0  0  0  0  0  0  0  0  0
   -0.8237   -1.0515    1.8837 C   0  0  0  0  0  3  0  0  0  0  0  0
   -0.7699   -0.0612    3.0484 C   0  0  0  0  0  0  0  0  0  0  0  0
   -2.2169   -1.6717    1.7616 C   0  0  0  0  0  0  0  0  0  0  0  0
    1.9348   -3.1475    1.4050 H   0  0  0  0  0  0  0  0  0  0  0  0
    1.3580   -1.7646    0.3228 H   0  0  0  0  0  0  0  0  0  0  0  0
    0.1096   -2.7373    2.9441 H   0  0  0  0  0  0  0  0  0  0  0  0
   -1.5201    0.7227    2.9257 H   0  0  0  0  0  0  0  0  0  0  0  0
   -0.9695   -0.5691    3.9959 H   0  0  0  0  0  0  0  0  0  0  0  0
    0.2114    0.4101    3.1197 H   0  0  0  0  0  0  0  0  0  0  0  0
   -2.4678   -2.2366    2.6636 H   0  0  0  0  0  0  0  0  0  0  0  0
   -2.2716   -2.3534    0.9117 H   0  0  0  0  0  0  0  0  0  0  0  0
   -2.9758   -0.8974    1.6312 H   0  0  0  0  0  0  0  0  0  0  0  0
    0.3582    1.0858    0.9298 C   0  0  0  0  0  0  0  0  0  0  0  0
    0.3582    1.0858   -0.5739 C   0  0  0  0  0  0  0  0  0  0  0  0
    0.3582    2.2802   -1.2880 C   0  0  0  0  0  0  0  0  0  0  0  0
    0.3886    2.2835   -2.6740 C   0  0  0  0  0  0  0  0  0  0  0  0
    0.4182    1.0865   -3.3730 C   0  0  0  0  0  0  0  0  0  0  0  0
    0.4150   -0.1109   -2.6740 C   0  0  0  0  0  0  0  0  0  0  0  0
    0.3845   -0.1082   -1.2880 C   0  0  0  0  0  0  0  0  0  0  0  0
   -0.2317    0.0191    1.4059 H   0  0  0  0  0  0  0  0  0  0  0  0
    1.3804    1.0971    1.3166 H   0  0  0  0  0  0  0  0  0  0  0  0
   -0.1528    1.9637    1.3265 H   0  0  0  0  0  0  0  0  0  0  0  0
    0.3316    3.2213   -0.7502 H   0  0  0  0  0  0  0  0  0  0  0  0
    0.3860    3.2247   -3.2097 H   0  0  0  0  0  0  0  0  0  0  0  0
    0.4393    1.0867   -4.4554 H   0  0  0  0  0  0  0  0  0  0  0  0
    0.4332   -1.0519   -3.2097 H   0  0  0  0  0  0  0  0  0  0  0  0
    0.3787   -1.0497   -0.7502 H   0  0  0  0  0  0  0  0  0  0  0  0
  1  2  2  3
  1  6  1  0
  1  7  1  0
  2  3  1  0
  2  8  1  0
  3  4  1  0
  3  5  1  0
  4  9  1  0
  4 10  1  0
  4 11  1  0
  5 12  1  0
  5 13  1  0
  5 14  1  0
 15 16  1  0
 15 22  1  0
 15 23  1  0
 15 24  1  0
 16 17  2  0
 16 21  1  0
 17 18  1  0
 17 25  1  0
 18 19  2  0
 18 26  1  0
 19 20  1  0
 19 27  1  0
 20 21  2  0
 20 28  1  0
 21 29  1  0
M  RAD  1   3   2
M  END
>  <reaction>  (13) 
rxn_1440

>  <mol_properties>  (13) 
{"1": {"label": "*0", "atom_type": "Cd"}, "2": {"label": "*1", "atom_type": "Cs"}, "14": {"label": "*3", "atom_type": "Cd"}, "15": {"label": "*4", "atom_type": "Cd"}, "21": {"label": "*2", "atom_type": "H0"}}

>  <type>  (13) 
unop_9

>  <geom_source>  (13) 
Heuristics

$$$$

     RDKit          3D

 29 28  0  0  0  0  0  0  0  0999 V2000
   -2.4953    0.2029    2.3449 C   0  0  0  0  0  0  0  0  0  0  0  0
   -1.6908   -0.8094    2.6275 C   0  0  0  0  0  0  0  0  0  0  0  0
   -0.5256   -1.2562    1.7940 C   0  0  0  0  0  3  0  0  0  0  0  0
   -0.7329   -2.6915    1.3066 C   0  0  0  0  0  0  0  0  0  0  0  0
    0.7785   -1.1337    2.5843 C   0  0  0  0  0  0  0  0  0  0  0  0
   -3.3200    0.4714    2.9931 H   0  0  0  0  0  0  0  0  0  0  0  0
   -2.3566    0.8016    1.4508 H   0  0  0  0  0  0  0  0  0  0  0  0
   -1.8631   -1.3866    3.5350 H   0  0  0  0  0  0  0  0  0  0  0  0
    0.1096   -3.0181    0.6935 H   0  0  0  0  0  0  0  0  0  0  0  0
   -0.8155   -3.3781    2.1536 H   0  0  0  0  0  0  0  0  0  0  0  0
   -1.6441   -2.7783    0.7132 H   0  0  0  0  0  0  0  0  0  0  0  0
    0.7494   -1.7651    3.4765 H   0  0  0  0  0  0  0  0  0  0  0  0
    0.9493   -0.1053    2.9056 H   0  0  0  0  0  0  0  0  0  0  0  0
    1.6300   -1.4510    1.9788 H   0  0  0  0  0  0  0  0  0  0  0  0
    0.6563    0.8811    0.8401 C   0  0  0  0  0  0  0  0  0  0  0  0
    0.6563    0.8811   -0.6637 C   0  0  0  0  0  0  0  0  0  0  0  0
    0.6563    2.0754   -1.3777 C   0  0  0  0  0  0  0  0  0  0  0  0
    0.6868    2.0788   -2.7637 C   0  0  0  0  0  0  0  0  0  0  0  0
    0.7163    0.8818   -3.4627 C   0  0  0  0  0  0  0  0  0  0  0  0
    0.7132   -0.3156   -2.7637 C   0  0  0  0  0  0  0  0  0  0  0  0
    0.6826   -0.3129   -1.3777 C   0  0  0  0  0  0  0  0  0  0  0  0
    0.0664   -0.1856    1.3161 H   0  0  0  0  0  0  0  0  0  0  0  0
    1.6785    0.8924    1.2268 H   0  0  0  0  0  0  0  0  0  0  0  0
    0.1453    1.7590    1.2368 H   0  0  0  0  0  0  0  0  0  0  0  0
    0.6297    3.0165   -0.8399 H   0  0  0  0  0  0  0  0  0  0  0  0
    0.6841    3.0200   -3.2994 H   0  0  0  0  0  0  0  0  0  0  0  0
    0.7375    0.8820   -4.5451 H   0  0  0  0  0  0  0  0  0  0  0  0
    0.7313   -1.2566   -3.2994 H   0  0  0  0  0  0  0  0  0  0  0  0
    0.6768   -1.2544   -0.8399 H   0  0  0  0  0  0  0  0  0  0  0  0
  1  2  2  3
  1  6  1  0
  1  7  1  0
  2  3  1  0
  2  8  1  0
  3  4  1  0
  3  5  1  0
  4  9  1  0
  4 10  1  0
  4 11  1  0
  5 12  1  0
  5 13  1  0
  5 14  1  0
 15 16  1  0
 15 22  1  0
 15 23  1  0
 15 24  1  0
 16 17  2  0
 16 21  1  0
 17 18  1  0
 17 25  1  0
 18 19  2  0
 18 26  1  0
 19 20  1  0
 19 27  1  0
 20 21  2  0
 20 28  1  0
 21 29  1  0
M  RAD  1   3   2
M  END
>  <reaction>  (14) 
rxn_1440

>  <mol_properties>  (14) 
{"1": {"label": "*0", "atom_type": "Cd"}, "2": {"label": "*1", "atom_type": "Cs"}, "14": {"label": "*3", "atom_type": "Cd"}, "15": {"label": "*4", "atom_type": "Cd"}, "21": {"label": "*2", "atom_type": "H0"}}

>  <type>  (14) 
unop_10

>  <geom_source>  (14) 
Heuristics

$$$$

     RDKit          3D

 29 28  0  0  0  0  0  0  0  0999 V2000
   -0.8994   -1.6010   -0.3504 C   0  0  0  0  0  0  0  0  0  0  0  0
   -1.0665   -1.9032    0.9272 C   0  0  0  0  0  0  0  0  0  0  0  0
   -0.6060   -1.0704    2.0877 C   0  0  0  0  0  3  0  0  0  0  0  0
    0.4054   -1.8438    2.9359 C   0  0  0  0  0  0  0  0  0  0  0  0
   -1.7987   -0.6250    2.9359 C   0  0  0  0  0  0  0  0  0  0  0  0
   -1.2583   -2.2500   -1.1395 H   0  0  0  0  0  0  0  0  0  0  0  0
   -0.3953   -0.6894   -0.6537 H   0  0  0  0  0  0  0  0  0  0  0  0
   -1.5779   -2.8280    1.1912 H   0  0  0  0  0  0  0  0  0  0  0  0
    0.7486   -1.2386    3.7775 H   0  0  0  0  0  0  0  0  0  0  0  0
   -0.0466   -2.7533    3.3410 H   0  0  0  0  0  0  0  0  0  0  0  0
    1.2746   -2.1349    2.3445 H   0  0  0  0  0  0  0  0  0  0  0  0
   -2.3287   -1.4913    3.3410 H   0  0  0  0  0  0  0  0  0  0  0  0
   -2.5074   -0.0435    2.3445 H   0  0  0  0  0  0  0  0  0  0  0  0
   -1.4686   -0.0125    3.7775 H   0  0  0  0  0  0  0  0  0  0  0  0
    0.5759    1.0669    1.1338 C   0  0  0  0  0  0  0  0  0  0  0  0
    0.5759    1.0669   -0.3699 C   0  0  0  0  0  0  0  0  0  0  0  0
    0.5759    2.2612   -1.0840 C   0  0  0  0  0  0  0  0  0  0  0  0
    0.6064    2.2646   -2.4700 C   0  0  0  0  0  0  0  0  0  0  0  0
    0.6359    1.0676   -3.1690 C   0  0  0  0  0  0  0  0  0  0  0  0
    0.6328   -0.1298   -2.4700 C   0  0  0  0  0  0  0  0  0  0  0  0
    0.6022   -0.1271   -1.0840 C   0  0  0  0  0  0  0  0  0  0  0  0
   -0.0140    0.0002    1.6099 H   0  0  0  0  0  0  0  0  0  0  0  0
    1.5981    1.0782    1.5206 H   0  0  0  0  0  0  0  0  0  0  0  0
    0.0649    1.9448    1.5305 H   0  0  0  0  0  0  0  0  0  0  0  0
    0.5493    3.2023   -0.5462 H   0  0  0  0  0  0  0  0  0  0  0  0
    0.6037    3.2058   -3.0057 H   0  0  0  0  0  0  0  0  0  0  0  0
    0.6570    1.0678   -4.2514 H   0  0  0  0  0  0  0  0  0  0  0  0
    0.6509   -1.0708   -3.0057 H   0  0  0  0  0  0  0  0  0  0  0  0
    0.5964   -1.0686   -0.5462 H   0  0  0  0  0  0  0  0  0  0  0  0
  1  2  2  3
  1  6  1  0
  1  7  1  0
  2  3  1  0
  2  8  1  0
  3  4  1  0
  3  5  1  0
  4  9  1  0
  4 10  1  0
  4 11  1  0
  5 12  1  0
  5 13  1  0
  5 14  1  0
 15 16  1  0
 15 22  1  0
 15 23  1  0
 15 24  1  0
 16 17  2  0
 16 21  1  0
 17 18  1  0
 17 25  1  0
 18 19  2  0
 18 26  1  0
 19 20  1  0
 19 27  1  0
 20 21  2  0
 20 28  1  0
 21 29  1  0
M  RAD  1   3   2
M  END
>  <reaction>  (15) 
rxn_1440

>  <mol_properties>  (15) 
{"1": {"label": "*0", "atom_type": "Cd"}, "2": {"label": "*1", "atom_type": "Cs"}, "14": {"label": "*3", "atom_type": "Cd"}, "15": {"label": "*4", "atom_type": "Cd"}, "21": {"label": "*2", "atom_type": "H0"}}

>  <type>  (15) 
unop_11

>  <geom_source>  (15) 
Heuristics

$$$$

     RDKit          3D

 29 28  0  0  0  0  0  0  0  0999 V2000
   -1.9232   -0.1171   -0.4758 C   0  0  0  0  0  3  0  0  0  0  0  0
   -1.5158   -1.2765   -1.3866 C   0  0  0  0  0  0  0  0  0  0  0  0
   -2.9616    0.7732   -1.1605 C   0  0  0  0  0  0  0  0  0  0  0  0
    1.5177    0.6413   -0.0833 C   0  0  0  0  0  0  0  0  0  0  0  0
   -2.4786   -0.6518    0.8196 C   0  0  0  0  0  0  0  0  0  0  0  0
    2.6898    1.3988    0.0615 C   0  0  0  0  0  0  0  0  0  0  0  0
    1.5085   -0.7057    0.3031 C   0  0  0  0  0  0  0  0  0  0  0  0
    3.8436    0.8102    0.5895 C   0  0  0  0  0  0  0  0  0  0  0  0
    3.8307   -0.5342    0.9740 C   0  0  0  0  0  0  0  0  0  0  0  0
    2.6640   -1.2916    0.8308 C   0  0  0  0  0  0  0  0  0  0  0  0
    0.2811    1.2606   -0.6458 C   0  0  0  0  0  0  0  0  0  0  0  0
   -1.9083   -0.3794    1.9960 C   0  0  0  0  0  0  0  0  0  0  0  0
   -0.8148    0.6387   -0.2411 H   0  0  0  0  0  0  0  0  0  0  0  0
   -1.0804   -0.8836   -2.3298 H   0  0  0  0  0  0  0  0  0  0  0  0
   -2.3929   -1.9139   -1.6321 H   0  0  0  0  0  0  0  0  0  0  0  0
   -0.7462   -1.9000   -0.8837 H   0  0  0  0  0  0  0  0  0  0  0  0
   -3.2299    1.6214   -0.4952 H   0  0  0  0  0  0  0  0  0  0  0  0
   -2.5432    1.1903   -2.1010 H   0  0  0  0  0  0  0  0  0  0  0  0
   -3.8815    0.1966   -1.3992 H   0  0  0  0  0  0  0  0  0  0  0  0
   -3.3677   -1.2764    0.7969 H   0  0  0  0  0  0  0  0  0  0  0  0
    2.7085    2.4407   -0.2337 H   0  0  0  0  0  0  0  0  0  0  0  0
    4.7471    1.3957    0.7007 H   0  0  0  0  0  0  0  0  0  0  0  0
    0.6094   -1.3002    0.1959 H   0  0  0  0  0  0  0  0  0  0  0  0
    4.7241   -0.9887    1.3824 H   0  0  0  0  0  0  0  0  0  0  0  0
    2.6550   -2.3321    1.1287 H   0  0  0  0  0  0  0  0  0  0  0  0
   -2.3345   -0.7808    2.9097 H   0  0  0  0  0  0  0  0  0  0  0  0
   -1.0196    0.2400    2.0630 H   0  0  0  0  0  0  0  0  0  0  0  0
   -0.0503    2.1043   -0.0047 H   0  0  0  0  0  0  0  0  0  0  0  0
    0.4692    1.6205   -1.6792 H   0  0  0  0  0  0  0  0  0  0  0  0
  1  2  1  0
  1  3  1  0
  1  5  1  0
  2 14  1  0
  2 15  1  0
  2 16  1  0
  3 17  1  0
  3 18  1  0
  3 19  1  0
  4 11  1  0
  4  6  2  0
  4  7  1  0
  5 12  2  3
  5 20  1  0
  6  8  1  0
  6 21  1  0
  7 10  2  0
  7 23  1  0
  8  9  2  0
  8 22  1  0
  9 10  1  0
  9 24  1  0
 10 25  1  0
 11 13  1  0
 11 28  1  0
 11 29  1  0
 12 26  1  0
 12 27  1  0
M  RAD  1   1   2
M  END
>  <reaction>  (16) 
rxn_1440

>  <mol_properties>  (16) 
{"1": {"label": "*0", "atom_type": "Cd"}, "2": {"label": "*1", "atom_type": "Cs"}, "14": {"label": "*3", "atom_type": "Cd"}, "15": {"label": "*4", "atom_type": "Cd"}, "21": {"label": "*2", "atom_type": "H0"}}

>  <type>  (16) 
unop_12

>  <geom_source>  (16) 
AutoTST

$$$$

     RDKit          3D

 29 28  0  0  0  0  0  0  0  0999 V2000
    0.5895   -2.3165    0.3264 C   0  0  0  0  0  0  0  0  0  0  0  0
   -0.0423   -2.2273    1.4859 C   0  0  0  0  0  0  0  0  0  0  0  0
   -0.7890   -1.0236    1.9817 C   0  0  0  0  0  3  0  0  0  0  0  0
   -0.1614   -0.4967    3.2735 C   0  0  0  0  0  0  0  0  0  0  0  0
   -2.2670   -1.3576    2.1925 C   0  0  0  0  0  0  0  0  0  0  0  0
    1.1101   -3.2188    0.0309 H   0  0  0  0  0  0  0  0  0  0  0  0
    0.6084   -1.4861   -0.3717 H   0  0  0  0  0  0  0  0  0  0  0  0
   -0.0383   -3.0832    2.1596 H   0  0  0  0  0  0  0  0  0  0  0  0
   -0.6974    0.3838    3.6339 H   0  0  0  0  0  0  0  0  0  0  0  0
   -0.2008   -1.2563    4.0591 H   0  0  0  0  0  0  0  0  0  0  0  0
    0.8839   -0.2244    3.1211 H   0  0  0  0  0  0  0  0  0  0  0  0
   -2.3809   -2.1477    2.9398 H   0  0  0  0  0  0  0  0  0  0  0  0
   -2.7291   -1.7017    1.2661 H   0  0  0  0  0  0  0  0  0  0  0  0
   -2.8156   -0.4823    2.5464 H   0  0  0  0  0  0  0  0  0  0  0  0
    0.3929    1.1138    1.0278 C   0  0  0  0  0  0  0  0  0  0  0  0
    0.3929    1.1138   -0.4759 C   0  0  0  0  0  0  0  0  0  0  0  0
    0.3929    2.3081   -1.1900 C   0  0  0  0  0  0  0  0  0  0  0  0
    0.4233    2.3114   -2.5759 C   0  0  0  0  0  0  0  0  0  0  0  0
    0.4529    1.1144   -3.2750 C   0  0  0  0  0  0  0  0  0  0  0  0
    0.4497   -0.0830   -2.5759 C   0  0  0  0  0  0  0  0  0  0  0  0
    0.4192   -0.0803   -1.1900 C   0  0  0  0  0  0  0  0  0  0  0  0
   -0.1970    0.0470    1.5039 H   0  0  0  0  0  0  0  0  0  0  0  0
    1.4151    1.1250    1.4146 H   0  0  0  0  0  0  0  0  0  0  0  0
   -0.1182    1.9916    1.4246 H   0  0  0  0  0  0  0  0  0  0  0  0
    0.3663    3.2492   -0.6521 H   0  0  0  0  0  0  0  0  0  0  0  0
    0.4207    3.2526   -3.1117 H   0  0  0  0  0  0  0  0  0  0  0  0
    0.4740    1.1146   -4.3573 H   0  0  0  0  0  0  0  0  0  0  0  0
    0.4678   -1.0240   -3.1117 H   0  0  0  0  0  0  0  0  0  0  0  0
    0.4134   -1.0217   -0.6521 H   0  0  0  0  0  0  0  0  0  0  0  0
  1  2  2  3
  1  6  1  0
  1  7  1  0
  2  3  1  0
  2  8  1  0
  3  4  1  0
  3  5  1  0
  4  9  1  0
  4 10  1  0
  4 11  1  0
  5 12  1  0
  5 13  1  0
  5 14  1  0
 15 16  1  0
 15 22  1  0
 15 23  1  0
 15 24  1  0
 16 17  2  0
 16 21  1  0
 17 18  1  0
 17 25  1  0
 18 19  2  0
 18 26  1  0
 19 20  1  0
 19 27  1  0
 20 21  2  0
 20 28  1  0
 21 29  1  0
M  RAD  1   3   2
M  END
>  <reaction>  (17) 
rxn_1440

>  <mol_properties>  (17) 
{"1": {"label": "*0", "atom_type": "Cd"}, "2": {"label": "*1", "atom_type": "Cs"}, "14": {"label": "*3", "atom_type": "Cd"}, "15": {"label": "*4", "atom_type": "Cd"}, "21": {"label": "*2", "atom_type": "H0"}}

>  <type>  (17) 
unop_13

>  <geom_source>  (17) 
gaussian_log

$$$$
