
     RDKit          3D

  7  6  0  0  0  0  0  0  0  0999 V2000
    1.2985   -0.0065   -0.2721 C   0  0  0  0  0  0  0  0  0  0  0  0
    0.0000    0.0000   -0.2926 C   0  0  0  0  0  0  0  0  0  0  0  0
   -1.2985    0.0065   -0.3130 C   0  0  0  0  0  0  0  0  0  0  0  0
    1.8444   -0.7551    0.2895 H   0  0  0  0  0  0  0  0  0  0  0  0
    1.8693    0.7364   -0.8162 H   0  0  0  0  0  0  0  0  0  0  0  0
   -1.8658    0.5623    0.4239 H   0  0  0  0  0  0  0  0  0  0  0  0
   -1.8479   -0.5437   -1.0675 H   0  0  0  0  0  0  0  0  0  0  0  0
  1  2  2  0
  1  4  1  0
  1  5  1  0
  2  3  2  0
  3  6  1  0
  3  7  1  0
M  END
>  <reaction>  (1) 
rxn_1806

>  <mol_properties>  (1) 
{"0": {"label": "donator", "atom_type": "Cd"}, "3": {"label": "d_hydrogen", "atom_type": "H0"}}

>  <type>  (1) 
r1h

$$$$

     RDKit          3D

  6  5  0  0  0  0  0  0  0  0999 V2000
   -0.7309   -0.0987    0.0327 C   0  0  0  0  0  0  0  0  0  0  0  0
    0.6208    0.0065   -0.0096 C   0  0  0  0  0  0  0  0  0  0  0  0
    1.6572   -1.2972    0.2837 S   0  0  0  0  0  1  0  0  0  0  0  0
   -1.3651    0.7588   -0.1608 H   0  0  0  0  0  0  0  0  0  0  0  0
   -1.2044   -1.0453    0.2616 H   0  0  0  0  0  0  0  0  0  0  0  0
    1.0609    0.9725   -0.2426 H   0  0  0  0  0  0  0  0  0  0  0  0
  1  2  2  3
  1  4  1  0
  1  5  1  0
  2  3  1  0
  2  6  1  0
M  RAD  1   3   2
M  END
>  <reaction>  (2) 
rxn_1806

>  <mol_properties>  (2) 
{"0": {"label": "acceptor", "atom_type": "Cs"}}

>  <type>  (2) 
r2

$$$$

     RDKit          3D

  7  6  0  0  0  0  0  0  0  0999 V2000
   -0.6782    0.0507    0.0301 C   0  0  0  0  0  0  0  0  0  0  0  0
    0.8092    0.0996    0.0213 C   0  0  0  0  0  0  0  0  0  0  0  0
    1.7473    0.7521    1.1507 S   0  0  0  0  0  0  0  0  0  0  0  0
   -1.0667    0.5456   -0.8653 H   0  0  0  0  0  0  0  0  0  0  0  0
   -1.0112   -0.9904   -0.0239 H   0  0  0  0  0  0  0  0  0  0  0  0
   -1.0920    0.5225    0.9188 H   0  0  0  0  0  0  0  0  0  0  0  0
    1.2740   -0.3620   -0.8520 H   0  0  0  0  0  0  0  0  0  0  0  0
  1  2  1  0
  1  4  1  0
  1  5  1  0
  1  6  1  0
  2  3  2  0
  2  7  1  0
M  END
>  <reaction>  (3) 
rxn_1806

>  <mol_properties>  (3) 
{"0": {"label": "a_hydrogen", "atom_type": "H0"}, "1": {"label": "acceptor", "atom_type": "Cs"}}

>  <type>  (3) 
r2h

$$$$

     RDKit          3D

 13 11  0  0  0  0  0  0  0  0999 V2000
    1.7092    1.7155    0.2738 C   0  0  0  0  0  0  0  0  0  0  0  0
    1.5387    1.6209   -0.9735 C   0  0  0  0  0  0  0  0  0  0  0  0
    1.2708    1.3870   -2.2464 C   0  0  0  0  0  3  0  0  0  0  0  0
    1.0253    0.6674    0.9277 H   0  0  0  0  0  0  0  0  0  0  0  0
    2.2061    2.3656    0.9713 H   0  0  0  0  0  0  0  0  0  0  0  0
    0.3949    1.8163   -2.7156 H   0  0  0  0  0  0  0  0  0  0  0  0
    1.9325    0.7803   -2.8514 H   0  0  0  0  0  0  0  0  0  0  0  0
    0.3203   -0.2497    1.4866 C   0  0  0  0  0  0  0  0  0  0  0  0
   -0.1392   -1.0305    0.3709 C   0  0  0  0  0  0  0  0  0  0  0  0
   -1.5198   -0.7688   -0.4554 S   0  0  0  0  0  0  0  0  0  0  0  0
    1.0411   -0.7308    2.1445 H   0  0  0  0  0  0  0  0  0  0  0  0
   -0.4402    0.3352    1.9966 H   0  0  0  0  0  0  0  0  0  0  0  0
    0.5375   -1.8137    0.0292 H   0  0  0  0  0  0  0  0  0  0  0  0
  1  2  3  0
  1  5  1  0
  2  3  1  0
  3  6  1  0
  3  7  1  0
  4  8  1  0
  8  9  1  0
  8 11  1  0
  8 12  1  0
  9 10  2  0
  9 13  1  0
M  RAD  1   3   2
M  END
>  <reaction>  (4) 
rxn_1806

>  <mol_properties>  (4) 
{"0": {"label": "*3", "atom_type": "Ct"}, "1": {"label": "*4", "atom_type": "Ct"}, "3": {"label": "*2", "atom_type": "H0"}, "7": {"label": "*1", "atom_type": "Cs"}, "8": {"label": "*0", "atom_type": "CS"}}

>  <type>  (4) 
ts

$$$$

     RDKit          3D

 13 11  0  0  0  0  0  0  0  0999 V2000
    0.4624    1.8819   -0.8835 C   0  0  0  0  0  0  0  0  0  0  0  0
    0.4624    1.8819   -2.1822 C   0  0  0  0  0  0  0  0  0  0  0  0
    0.4624    1.8819   -3.4809 C   0  0  0  0  0  0  0  0  0  0  0  0
   -0.2012    0.9870   -0.2134 H   0  0  0  0  0  0  0  0  0  0  0  0
    1.0154    2.6277   -0.3251 H   0  0  0  0  0  0  0  0  0  0  0  0
   -0.2833    2.4349   -4.0393 H   0  0  0  0  0  0  0  0  0  0  0  0
    1.2082    1.3289   -4.0393 H   0  0  0  0  0  0  0  0  0  0  0  0
   -0.8715    0.0830    0.4635 C   0  0  0  0  0  0  0  0  0  0  0  0
    0.0645   -0.6933    1.3213 C   0  0  0  0  0  0  0  0  0  0  0  0
   -0.2142   -2.1353    1.9726 S   0  0  0  0  0  1  0  0  0  0  0  0
   -1.0662    1.0576    0.9216 H   0  0  0  0  0  0  0  0  0  0  0  0
   -1.8106   -0.4447    0.3109 H   0  0  0  0  0  0  0  0  0  0  0  0
    1.0236   -0.2053    1.5048 H   0  0  0  0  0  0  0  0  0  0  0  0
  1  2  2  0
  1  4  1  0
  1  5  1  0
  2  3  2  0
  3  6  1  0
  3  7  1  0
  8  9  2  3
  8 11  1  0
  8 12  1  0
  9 10  1  0
  9 13  1  0
M  RAD  1  10   2
M  END
>  <reaction>  (5) 
rxn_1806

>  <mol_properties>  (5) 
{"0": {"label": "*3", "atom_type": "Ct"}, "1": {"label": "*4", "atom_type": "Ct"}, "3": {"label": "*2", "atom_type": "H0"}, "7": {"label": "*1", "atom_type": "Cs"}, "8": {"label": "*0", "atom_type": "CS"}}

>  <type>  (5) 
unop_1

>  <geom_source>  (5) 
Heuristics

$$$$

     RDKit          3D

 13 11  0  0  0  0  0  0  0  0999 V2000
    1.2269    1.9634    0.1122 C   0  0  0  0  0  0  0  0  0  0  0  0
    1.2269    1.9634   -1.1864 C   0  0  0  0  0  0  0  0  0  0  0  0
    1.2269    1.9634   -2.4851 C   0  0  0  0  0  0  0  0  0  0  0  0
    0.5633    1.0685    0.7823 H   0  0  0  0  0  0  0  0  0  0  0  0
    1.7799    2.7092    0.6707 H   0  0  0  0  0  0  0  0  0  0  0  0
    0.4811    2.5164   -3.0435 H   0  0  0  0  0  0  0  0  0  0  0  0
    1.9727    1.4104   -3.0435 H   0  0  0  0  0  0  0  0  0  0  0  0
   -0.1070    0.1645    1.4592 C   0  0  0  0  0  0  0  0  0  0  0  0
   -0.1713   -1.0991    0.6758 C   0  0  0  0  0  0  0  0  0  0  0  0
   -1.4408   -2.0750    0.5448 S   0  0  0  0  0  1  0  0  0  0  0  0
    0.6975    0.0975    2.1981 H   0  0  0  0  0  0  0  0  0  0  0  0
   -1.0489    0.3763    1.9609 H   0  0  0  0  0  0  0  0  0  0  0  0
    0.7514   -1.3567    0.1523 H   0  0  0  0  0  0  0  0  0  0  0  0
  1  2  2  0
  1  4  1  0
  1  5  1  0
  2  3  2  0
  3  6  1  0
  3  7  1  0
  8  9  2  3
  8 11  1  0
  8 12  1  0
  9 10  1  0
  9 13  1  0
M  RAD  1  10   2
M  END
>  <reaction>  (6) 
rxn_1806

>  <mol_properties>  (6) 
{"0": {"label": "*3", "atom_type": "Ct"}, "1": {"label": "*4", "atom_type": "Ct"}, "3": {"label": "*2", "atom_type": "H0"}, "7": {"label": "*1", "atom_type": "Cs"}, "8": {"label": "*0", "atom_type": "CS"}}

>  <type>  (6) 
unop_2

>  <geom_source>  (6) 
Heuristics

$$$$

     RDKit          3D

 13 11  0  0  0  0  0  0  0  0999 V2000
    0.4922    1.6294   -1.1327 C   0  0  0  0  0  0  0  0  0  0  0  0
    0.4922    1.6294   -2.4314 C   0  0  0  0  0  0  0  0  0  0  0  0
    0.4922    1.6294   -3.7301 C   0  0  0  0  0  0  0  0  0  0  0  0
   -0.1714    0.7345   -0.4626 H   0  0  0  0  0  0  0  0  0  0  0  0
    1.0452    2.3751   -0.5743 H   0  0  0  0  0  0  0  0  0  0  0  0
   -0.2536    2.1824   -4.2885 H   0  0  0  0  0  0  0  0  0  0  0  0
    1.2379    1.0764   -4.2885 H   0  0  0  0  0  0  0  0  0  0  0  0
   -0.8418   -0.1695    0.2143 C   0  0  0  0  0  0  0  0  0  0  0  0
   -0.1604   -0.4277    1.5118 C   0  0  0  0  0  0  0  0  0  0  0  0
   -0.1567   -1.8123    2.3267 S   0  0  0  0  0  1  0  0  0  0  0  0
   -1.5499    0.6569    0.3298 H   0  0  0  0  0  0  0  0  0  0  0  0
   -1.3640   -1.0518   -0.1496 H   0  0  0  0  0  0  0  0  0  0  0  0
    0.3793    0.4290    1.9201 H   0  0  0  0  0  0  0  0  0  0  0  0
  1  2  2  0
  1  4  1  0
  1  5  1  0
  2  3  2  0
  3  6  1  0
  3  7  1  0
  8  9  2  3
  8 11  1  0
  8 12  1  0
  9 10  1  0
  9 13  1  0
M  RAD  1  10   2
M  END
>  <reaction>  (7) 
rxn_1806

>  <mol_properties>  (7) 
{"0": {"label": "*3", "atom_type": "Ct"}, "1": {"label": "*4", "atom_type": "Ct"}, "3": {"label": "*2", "atom_type": "H0"}, "7": {"label": "*1", "atom_type": "Cs"}, "8": {"label": "*0", "atom_type": "CS"}}

>  <type>  (7) 
unop_3

>  <geom_source>  (7) 
Heuristics

$$$$

     RDKit          3D

 13 11  0  0  0  0  0  0  0  0999 V2000
    1.8057    0.7510   -0.3646 C   0  0  0  0  0  0  0  0  0  0  0  0
    1.8057    0.7510   -1.6633 C   0  0  0  0  0  0  0  0  0  0  0  0
    1.8057    0.7510   -2.9620 C   0  0  0  0  0  0  0  0  0  0  0  0
    1.1421   -0.1439    0.3055 H   0  0  0  0  0  0  0  0  0  0  0  0
    2.3587    1.4968    0.1938 H   0  0  0  0  0  0  0  0  0  0  0  0
    1.0599    1.3041   -3.5204 H   0  0  0  0  0  0  0  0  0  0  0  0
    2.5515    0.1980   -3.5204 H   0  0  0  0  0  0  0  0  0  0  0  0
    0.4718   -1.0478    0.9824 C   0  0  0  0  0  0  0  0  0  0  0  0
   -0.9734   -0.9581    0.6387 C   0  0  0  0  0  0  0  0  0  0  0  0
   -2.0747   -0.0542    1.3813 S   0  0  0  0  0  1  0  0  0  0  0  0
    0.7304   -2.0861    1.2120 H   0  0  0  0  0  0  0  0  0  0  0  0
    0.7257   -0.4111    1.8272 H   0  0  0  0  0  0  0  0  0  0  0  0
   -1.2794   -1.5800   -0.2047 H   0  0  0  0  0  0  0  0  0  0  0  0
  1  2  2  0
  1  4  1  0
  1  5  1  0
  2  3  2  0
  3  6  1  0
  3  7  1  0
  8  9  2  3
  8 11  1  0
  8 12  1  0
  9 10  1  0
  9 13  1  0
M  RAD  1  10   2
M  END
>  <reaction>  (8) 
rxn_1806

>  <mol_properties>  (8) 
{"0": {"label": "*3", "atom_type": "Ct"}, "1": {"label": "*4", "atom_type": "Ct"}, "3": {"label": "*2", "atom_type": "H0"}, "7": {"label": "*1", "atom_type": "Cs"}, "8": {"label": "*0", "atom_type": "CS"}}

>  <type>  (8) 
unop_4

>  <geom_source>  (8) 
Heuristics

$$$$

     RDKit          3D

 13 11  0  0  0  0  0  0  0  0999 V2000
    0.5336    1.3000   -1.2840 C   0  0  0  0  0  0  0  0  0  0  0  0
    0.5336    1.3000   -2.5827 C   0  0  0  0  0  0  0  0  0  0  0  0
    0.5336    1.3000   -3.8814 C   0  0  0  0  0  0  0  0  0  0  0  0
   -0.1300    0.4051   -0.6139 H   0  0  0  0  0  0  0  0  0  0  0  0
    1.0866    2.0458   -0.7256 H   0  0  0  0  0  0  0  0  0  0  0  0
   -0.2121    1.8531   -4.4398 H   0  0  0  0  0  0  0  0  0  0  0  0
    1.2794    0.7470   -4.4398 H   0  0  0  0  0  0  0  0  0  0  0  0
   -0.8003   -0.4988    0.0630 C   0  0  0  0  0  0  0  0  0  0  0  0
   -0.6244   -0.2617    1.5215 C   0  0  0  0  0  0  0  0  0  0  0  0
   -0.0270   -1.3018    2.5904 S   0  0  0  0  0  1  0  0  0  0  0  0
   -1.8531   -0.3675   -0.2057 H   0  0  0  0  0  0  0  0  0  0  0  0
   -0.4693   -1.4939   -0.2266 H   0  0  0  0  0  0  0  0  0  0  0  0
   -0.9427    0.7251    1.8631 H   0  0  0  0  0  0  0  0  0  0  0  0
  1  2  2  0
  1  4  1  0
  1  5  1  0
  2  3  2  0
  3  6  1  0
  3  7  1  0
  8  9  2  3
  8 11  1  0
  8 12  1  0
  9 10  1  0
  9 13  1  0
M  RAD  1  10   2
M  END
>  <reaction>  (9) 
rxn_1806

>  <mol_properties>  (9) 
{"0": {"label": "*3", "atom_type": "Ct"}, "1": {"label": "*4", "atom_type": "Ct"}, "3": {"label": "*2", "atom_type": "H0"}, "7": {"label": "*1", "atom_type": "Cs"}, "8": {"label": "*0", "atom_type": "CS"}}

>  <type>  (9) 
unop_5

>  <geom_source>  (9) 
Heuristics

$$$$

     RDKit          3D

 13 11  0  0  0  0  0  0  0  0999 V2000
    1.5704    0.5435   -0.7790 C   0  0  0  0  0  0  0  0  0  0  0  0
    1.5704    0.5435   -2.0777 C   0  0  0  0  0  0  0  0  0  0  0  0
    1.5704    0.5435   -3.3764 C   0  0  0  0  0  0  0  0  0  0  0  0
    0.9068   -0.3515   -0.1089 H   0  0  0  0  0  0  0  0  0  0  0  0
    2.1234    1.2892   -0.2206 H   0  0  0  0  0  0  0  0  0  0  0  0
    0.8247    1.0965   -3.9348 H   0  0  0  0  0  0  0  0  0  0  0  0
    2.3162   -0.0096   -3.9348 H   0  0  0  0  0  0  0  0  0  0  0  0
    0.2365   -1.2554    0.5680 C   0  0  0  0  0  0  0  0  0  0  0  0
   -1.1443   -0.7636    0.8250 C   0  0  0  0  0  0  0  0  0  0  0  0
   -1.5999    0.2189    2.0118 S   0  0  0  0  0  1  0  0  0  0  0  0
    0.2462   -2.3495    0.5904 H   0  0  0  0  0  0  0  0  0  0  0  0
    0.9450   -0.8673    1.2966 H   0  0  0  0  0  0  0  0  0  0  0  0
   -1.8945   -1.1256    0.1193 H   0  0  0  0  0  0  0  0  0  0  0  0
  1  2  2  0
  1  4  1  0
  1  5  1  0
  2  3  2  0
  3  6  1  0
  3  7  1  0
  8  9  2  3
  8 11  1  0
  8 12  1  0
  9 10  1  0
  9 13  1  0
M  RAD  1  10   2
M  END
>  <reaction>  (10) 
rxn_1806

>  <mol_properties>  (10) 
{"0": {"label": "*3", "atom_type": "Ct"}, "1": {"label": "*4", "atom_type": "Ct"}, "3": {"label": "*2", "atom_type": "H0"}, "7": {"label": "*1", "atom_type": "Cs"}, "8": {"label": "*0", "atom_type": "CS"}}

>  <type>  (10) 
unop_6

>  <geom_source>  (10) 
Heuristics

$$$$

     RDKit          3D

 13 11  0  0  0  0  0  0  0  0999 V2000
    1.1776    0.5688   -1.1336 C   0  0  0  0  0  0  0  0  0  0  0  0
    1.1776    0.5688   -2.4322 C   0  0  0  0  0  0  0  0  0  0  0  0
    1.1776    0.5688   -3.7309 C   0  0  0  0  0  0  0  0  0  0  0  0
    0.5140   -0.3261   -0.4635 H   0  0  0  0  0  0  0  0  0  0  0  0
    1.7306    1.3146   -0.5751 H   0  0  0  0  0  0  0  0  0  0  0  0
    0.4318    1.1218   -4.2893 H   0  0  0  0  0  0  0  0  0  0  0  0
    1.9233    0.0158   -4.2893 H   0  0  0  0  0  0  0  0  0  0  0  0
   -0.1564   -1.2301    0.2134 C   0  0  0  0  0  0  0  0  0  0  0  0
   -1.1711   -0.5599    1.0712 C   0  0  0  0  0  0  0  0  0  0  0  0
   -0.9152    0.0910    2.5177 S   0  0  0  0  0  1  0  0  0  0  0  0
   -0.4737   -2.2562    0.0035 H   0  0  0  0  0  0  0  0  0  0  0  0
    0.8256   -1.2384    0.6818 H   0  0  0  0  0  0  0  0  0  0  0  0
   -2.1754   -0.5254    0.6448 H   0  0  0  0  0  0  0  0  0  0  0  0
  1  2  2  0
  1  4  1  0
  1  5  1  0
  2  3  2  0
  3  6  1  0
  3  7  1  0
  8  9  2  3
  8 11  1  0
  8 12  1  0
  9 10  1  0
  9 13  1  0
M  RAD  1  10   2
M  END
>  <reaction>  (11) 
rxn_1806

>  <mol_properties>  (11) 
{"0": {"label": "*3", "atom_type": "Ct"}, "1": {"label": "*4", "atom_type": "Ct"}, "3": {"label": "*2", "atom_type": "H0"}, "7": {"label": "*1", "atom_type": "Cs"}, "8": {"label": "*0", "atom_type": "CS"}}

>  <type>  (11) 
unop_7

>  <geom_source>  (11) 
Heuristics

$$$$

     RDKit          3D

 13 11  0  0  0  0  0  0  0  0999 V2000
    0.5551    2.0783   -0.5292 C   0  0  0  0  0  0  0  0  0  0  0  0
    0.5551    2.0783   -1.8279 C   0  0  0  0  0  0  0  0  0  0  0  0
    0.5551    2.0783   -3.1266 C   0  0  0  0  0  0  0  0  0  0  0  0
   -0.1085    1.1834    0.1409 H   0  0  0  0  0  0  0  0  0  0  0  0
    1.1081    2.8241    0.0292 H   0  0  0  0  0  0  0  0  0  0  0  0
   -0.1907    2.6313   -3.6850 H   0  0  0  0  0  0  0  0  0  0  0  0
    1.3008    1.5253   -3.6850 H   0  0  0  0  0  0  0  0  0  0  0  0
   -0.7789    0.2794    0.8177 C   0  0  0  0  0  0  0  0  0  0  0  0
    0.0928   -0.8990    1.0748 C   0  0  0  0  0  0  0  0  0  0  0  0
   -0.3966   -2.3781    1.4673 S   0  0  0  0  0  1  0  0  0  0  0  0
   -0.5163    1.0874    1.5077 H   0  0  0  0  0  0  0  0  0  0  0  0
   -1.8329    0.0327    0.9261 H   0  0  0  0  0  0  0  0  0  0  0  0
    1.1624   -0.7028    0.9785 H   0  0  0  0  0  0  0  0  0  0  0  0
  1  2  2  0
  1  4  1  0
  1  5  1  0
  2  3  2  0
  3  6  1  0
  3  7  1  0
  8  9  2  3
  8 11  1  0
  8 12  1  0
  9 10  1  0
  9 13  1  0
M  RAD  1  10   2
M  END
>  <reaction>  (12) 
rxn_1806

>  <mol_properties>  (12) 
{"0": {"label": "*3", "atom_type": "Ct"}, "1": {"label": "*4", "atom_type": "Ct"}, "3": {"label": "*2", "atom_type": "H0"}, "7": {"label": "*1", "atom_type": "Cs"}, "8": {"label": "*0", "atom_type": "CS"}}

>  <type>  (12) 
unop_8

>  <geom_source>  (12) 
Heuristics

$$$$

     RDKit          3D

 13 11  0  0  0  0  0  0  0  0999 V2000
    1.8234    1.1341   -0.0114 C   0  0  0  0  0  0  0  0  0  0  0  0
    1.8234    1.1341   -1.3100 C   0  0  0  0  0  0  0  0  0  0  0  0
    1.8234    1.1341   -2.6087 C   0  0  0  0  0  0  0  0  0  0  0  0
    1.1598    0.2392    0.6587 H   0  0  0  0  0  0  0  0  0  0  0  0
    2.3764    1.8798    0.5470 H   0  0  0  0  0  0  0  0  0  0  0  0
    1.0776    1.6871   -3.1671 H   0  0  0  0  0  0  0  0  0  0  0  0
    2.5692    0.5811   -3.1671 H   0  0  0  0  0  0  0  0  0  0  0  0
    0.4895   -0.6648    1.3356 C   0  0  0  0  0  0  0  0  0  0  0  0
   -0.7010   -1.0932    0.5521 C   0  0  0  0  0  0  0  0  0  0  0  0
   -2.2232   -0.6511    0.8143 S   0  0  0  0  0  1  0  0  0  0  0  0
    0.9958   -1.5448    1.7441 H   0  0  0  0  0  0  0  0  0  0  0  0
    0.2183    0.0107    2.1442 H   0  0  0  0  0  0  0  0  0  0  0  0
   -0.4813   -1.7736   -0.2729 H   0  0  0  0  0  0  0  0  0  0  0  0
  1  2  2  0
  1  4  1  0
  1  5  1  0
  2  3  2  0
  3  6  1  0
  3  7  1  0
  8  9  2  3
  8 11  1  0
  8 12  1  0
  9 10  1  0
  9 13  1  0
M  RAD  1  10   2
M  END
>  <reaction>  (13) 
rxn_1806

>  <mol_properties>  (13) 
{"0": {"label": "*3", "atom_type": "Ct"}, "1": {"label": "*4", "atom_type": "Ct"}, "3": {"label": "*2", "atom_type": "H0"}, "7": {"label": "*1", "atom_type": "Cs"}, "8": {"label": "*0", "atom_type": "CS"}}

>  <type>  (13) 
unop_9

>  <geom_source>  (13) 
Heuristics

$$$$

     RDKit          3D

 13 11  0  0  0  0  0  0  0  0999 V2000
    0.8276    2.1292   -0.1561 C   0  0  0  0  0  0  0  0  0  0  0  0
    0.8276    2.1292   -1.4548 C   0  0  0  0  0  0  0  0  0  0  0  0
    0.8276    2.1292   -2.7535 C   0  0  0  0  0  0  0  0  0  0  0  0
    0.1640    1.2342    0.5140 H   0  0  0  0  0  0  0  0  0  0  0  0
    1.3806    2.8749    0.4023 H   0  0  0  0  0  0  0  0  0  0  0  0
    0.0818    2.6822   -3.3119 H   0  0  0  0  0  0  0  0  0  0  0  0
    1.5733    1.5761   -3.3119 H   0  0  0  0  0  0  0  0  0  0  0  0
   -0.5064    0.3303    1.1909 C   0  0  0  0  0  0  0  0  0  0  0  0
   -0.0008   -1.0265    0.8472 C   0  0  0  0  0  0  0  0  0  0  0  0
   -0.8301   -2.4003    0.9267 S   0  0  0  0  0  1  0  0  0  0  0  0
    0.1173    0.7656    1.9777 H   0  0  0  0  0  0  0  0  0  0  0  0
   -1.5437    0.3033    1.5179 H   0  0  0  0  0  0  0  0  0  0  0  0
    1.0380   -1.0532    0.5125 H   0  0  0  0  0  0  0  0  0  0  0  0
  1  2  2  0
  1  4  1  0
  1  5  1  0
  2  3  2  0
  3  6  1  0
  3  7  1  0
  8  9  2  3
  8 11  1  0
  8 12  1  0
  9 10  1  0
  9 13  1  0
M  RAD  1  10   2
M  END
>  <reaction>  (14) 
rxn_1806

>  <mol_properties>  (14) 
{"0": {"label": "*3", "atom_type": "Ct"}, "1": {"label": "*4", "atom_type": "Ct"}, "3": {"label": "*2", "atom_type": "H0"}, "7": {"label": "*1", "atom_type": "Cs"}, "8": {"label": "*0", "atom_type": "CS"}}

>  <type>  (14) 
unop_10

>  <geom_source>  (14) 
Heuristics

$$$$

     RDKit          3D

 13 11  0  0  0  0  0  0  0  0999 V2000
    0.7564    0.8526   -1.3183 C   0  0  0  0  0  0  0  0  0  0  0  0
    0.7564    0.8526   -2.6169 C   0  0  0  0  0  0  0  0  0  0  0  0
    0.7564    0.8526   -3.9156 C   0  0  0  0  0  0  0  0  0  0  0  0
    0.0928   -0.0423   -0.6482 H   0  0  0  0  0  0  0  0  0  0  0  0
    1.3094    1.5984   -0.7598 H   0  0  0  0  0  0  0  0  0  0  0  0
    0.0107    1.4056   -4.4740 H   0  0  0  0  0  0  0  0  0  0  0  0
    1.5022    0.2996   -4.4740 H   0  0  0  0  0  0  0  0  0  0  0  0
   -0.5775   -0.9462    0.0287 C   0  0  0  0  0  0  0  0  0  0  0  0
   -1.0224   -0.3693    1.3263 C   0  0  0  0  0  0  0  0  0  0  0  0
   -0.2503   -0.4767    2.7312 S   0  0  0  0  0  1  0  0  0  0  0  0
   -1.3442   -1.6284   -0.3514 H   0  0  0  0  0  0  0  0  0  0  0  0
    0.3684   -1.4749    0.1256 H   0  0  0  0  0  0  0  0  0  0  0  0
   -1.9690    0.1727    1.2820 H   0  0  0  0  0  0  0  0  0  0  0  0
  1  2  2  0
  1  4  1  0
  1  5  1  0
  2  3  2  0
  3  6  1  0
  3  7  1  0
  8  9  2  3
  8 11  1  0
  8 12  1  0
  9 10  1  0
  9 13  1  0
M  RAD  1  10   2
M  END
>  <reaction>  (15) 
rxn_1806

>  <mol_properties>  (15) 
{"0": {"label": "*3", "atom_type": "Ct"}, "1": {"label": "*4", "atom_type": "Ct"}, "3": {"label": "*2", "atom_type": "H0"}, "7": {"label": "*1", "atom_type": "Cs"}, "8": {"label": "*0", "atom_type": "CS"}}

>  <type>  (15) 
unop_11

>  <geom_source>  (15) 
Heuristics

$$$$

     RDKit          3D

 13 11  0  0  0  0  0  0  0  0999 V2000
    1.6098    1.5905    0.1696 C   0  0  0  0  0  0  0  0  0  0  0  0
    1.6098    1.5905   -1.1291 C   0  0  0  0  0  0  0  0  0  0  0  0
    1.6098    1.5905   -2.4277 C   0  0  0  0  0  0  0  0  0  0  0  0
    0.9462    0.6956    0.8397 H   0  0  0  0  0  0  0  0  0  0  0  0
    2.1628    2.3362    0.7280 H   0  0  0  0  0  0  0  0  0  0  0  0
    0.8640    2.1435   -2.9862 H   0  0  0  0  0  0  0  0  0  0  0  0
    2.3556    1.0375   -2.9862 H   0  0  0  0  0  0  0  0  0  0  0  0
    0.2759   -0.2084    1.5166 C   0  0  0  0  0  0  0  0  0  0  0  0
   -0.4091   -1.1322    0.5721 C   0  0  0  0  0  0  0  0  0  0  0  0
   -1.9886   -1.4163    0.4949 S   0  0  0  0  0  1  0  0  0  0  0  0
    1.0137   -0.7644    2.1032 H   0  0  0  0  0  0  0  0  0  0  0  0
   -0.4295    0.2818    2.1842 H   0  0  0  0  0  0  0  0  0  0  0  0
    0.2569   -1.6499   -0.1207 H   0  0  0  0  0  0  0  0  0  0  0  0
  1  2  2  0
  1  4  1  0
  1  5  1  0
  2  3  2  0
  3  6  1  0
  3  7  1  0
  8  9  2  3
  8 11  1  0
  8 12  1  0
  9 10  1  0
  9 13  1  0
M  RAD  1  10   2
M  END
>  <reaction>  (16) 
rxn_1806

>  <mol_properties>  (16) 
{"0": {"label": "*3", "atom_type": "Ct"}, "1": {"label": "*4", "atom_type": "Ct"}, "3": {"label": "*2", "atom_type": "H0"}, "7": {"label": "*1", "atom_type": "Cs"}, "8": {"label": "*0", "atom_type": "CS"}}

>  <type>  (16) 
unop_12

>  <geom_source>  (16) 
Heuristics

$$$$

     RDKit          3D

 13 11  0  0  0  0  0  0  0  0999 V2000
   -3.1944   -1.1046   -0.8771 S   0  0  0  0  0  1  0  0  0  0  0  0
   -1.2729   -0.2317    0.5445 C   0  0  0  0  0  0  0  0  0  0  0  0
   -2.7105   -0.2081    0.1337 C   0  0  0  0  0  0  0  0  0  0  0  0
    3.0240    0.1968    0.2045 C   0  0  0  0  0  0  0  0  0  0  0  0
    1.8808    0.1465   -0.4179 C   0  0  0  0  0  0  0  0  0  0  0  0
    0.7378    0.0963   -1.0404 C   0  0  0  0  0  0  0  0  0  0  0  0
   -1.0155   -1.2184    0.9855 H   0  0  0  0  0  0  0  0  0  0  0  0
   -1.0894    0.5567    1.3041 H   0  0  0  0  0  0  0  0  0  0  0  0
   -0.4749    0.0056   -0.5374 H   0  0  0  0  0  0  0  0  0  0  0  0
   -3.3915    0.5056    0.5859 H   0  0  0  0  0  0  0  0  0  0  0  0
    3.7442    0.9628   -0.0487 H   0  0  0  0  0  0  0  0  0  0  0  0
    3.2529   -0.5273    0.9744 H   0  0  0  0  0  0  0  0  0  0  0  0
    0.5096    0.8198   -1.8111 H   0  0  0  0  0  0  0  0  0  0  0  0
  1  3  1  0
  2  3  2  3
  2  7  1  0
  2  8  1  0
  3 10  1  0
  4  5  2  0
  4 11  1  0
  4 12  1  0
  5  6  2  0
  6  9  1  0
  6 13  1  0
M  RAD  1   1   2
M  END
>  <reaction>  (17) 
rxn_1806

>  <mol_properties>  (17) 
{"0": {"label": "*3", "atom_type": "Ct"}, "1": {"label": "*4", "atom_type": "Ct"}, "3": {"label": "*2", "atom_type": "H0"}, "7": {"label": "*1", "atom_type": "Cs"}, "8": {"label": "*0", "atom_type": "CS"}}

>  <type>  (17) 
unop_13

>  <geom_source>  (17) 
AutoTST

$$$$
