
     RDKit          3D

 15 15  0  0  0  0  0  0  0  0999 V2000
    2.2031   -0.2111   -0.1693 C   0  0  0  0  0  0  0  0  0  0  0  0
    0.7140   -0.0314   -0.0623 C   0  0  0  0  0  0  0  0  0  0  0  0
   -0.0114    0.5491   -1.0982 C   0  0  0  0  0  0  0  0  0  0  0  0
   -1.3882    0.6886   -1.0150 C   0  0  0  0  0  0  0  0  0  0  0  0
   -2.0661    0.2493    0.1118 C   0  0  0  0  0  0  0  0  0  0  0  0
   -1.3551   -0.3278    1.1528 C   0  0  0  0  0  0  0  0  0  0  0  0
    0.0216   -0.4648    1.0642 C   0  0  0  0  0  0  0  0  0  0  0  0
    2.6776   -0.1836    0.8122 H   0  0  0  0  0  0  0  0  0  0  0  0
    2.4446   -1.1749   -0.6249 H   0  0  0  0  0  0  0  0  0  0  0  0
    2.6532    0.5664   -0.7875 H   0  0  0  0  0  0  0  0  0  0  0  0
    0.5104    0.8989   -1.9819 H   0  0  0  0  0  0  0  0  0  0  0  0
   -1.9328    1.1452   -1.8322 H   0  0  0  0  0  0  0  0  0  0  0  0
   -3.1409    0.3597    0.1800 H   0  0  0  0  0  0  0  0  0  0  0  0
   -1.8736   -0.6702    2.0398 H   0  0  0  0  0  0  0  0  0  0  0  0
    0.5695   -0.9141    1.8849 H   0  0  0  0  0  0  0  0  0  0  0  0
  1  2  1  0
  1  8  1  0
  1  9  1  0
  1 10  1  0
  2  3  2  0
  2  7  1  0
  3  4  1  0
  3 11  1  0
  4  5  2  0
  4 12  1  0
  5  6  1  0
  5 13  1  0
  6  7  2  0
  6 14  1  0
  7 15  1  0
M  END
>  <reaction>  (1) 
rxn_1464

>  <mol_properties>  (1) 
{"0": {"label": "donator", "atom_type": "Cs"}, "7": {"label": "d_hydrogen", "atom_type": "H0"}}

>  <type>  (1) 
r1h

$$$$

     RDKit          3D

 12 11  0  0  0  0  0  0  0  0999 V2000
   -0.9951    0.1196   -0.8321 C   0  0  0  0  0  0  0  0  0  0  0  0
   -0.3760    0.2571    0.5231 C   0  0  0  0  0  3  0  0  0  0  0  0
    0.9330   -0.1537    0.7810 C   0  0  0  0  0  0  0  0  0  0  0  0
    1.5987   -0.1880    1.9734 C   0  0  0  0  0  0  0  0  0  0  0  0
   -1.4483    0.9449    1.7152 S   0  0  0  0  0  0  0  0  0  0  0  0
   -1.9164   -0.4696   -0.7936 H   0  0  0  0  0  0  0  0  0  0  0  0
   -1.2565    1.0958   -1.2506 H   0  0  0  0  0  0  0  0  0  0  0  0
   -0.3088   -0.3780   -1.5170 H   0  0  0  0  0  0  0  0  0  0  0  0
    1.4783   -0.4898   -0.0971 H   0  0  0  0  0  0  0  0  0  0  0  0
    2.6278   -0.5153    2.0142 H   0  0  0  0  0  0  0  0  0  0  0  0
    1.1316    0.0690    2.9151 H   0  0  0  0  0  0  0  0  0  0  0  0
   -0.5306    1.3052    2.6211 H   0  0  0  0  0  0  0  0  0  0  0  0
  1  2  1  0
  1  6  1  0
  1  7  1  0
  1  8  1  0
  2  3  1  0
  2  5  1  0
  3  4  2  3
  3  9  1  0
  4 10  1  0
  4 11  1  0
  5 12  1  0
M  RAD  1   2   2
M  END
>  <reaction>  (2) 
rxn_1464

>  <mol_properties>  (2) 
{"1": {"label": "acceptor", "atom_type": "Cs"}}

>  <type>  (2) 
r2

$$$$

     RDKit          3D

 13 12  0  0  0  0  0  0  0  0999 V2000
   -1.1828    0.8269   -0.1645 C   0  0  0  0  0  0  0  0  0  0  0  0
   -0.4827   -0.4584   -0.5736 C   0  0  1  0  0  0  0  0  0  0  0  0
   -0.9759   -1.7030    0.1030 C   0  0  0  0  0  0  0  0  0  0  0  0
   -2.0084   -1.7831    0.9287 C   0  0  0  0  0  0  0  0  0  0  0  0
   -0.4908   -0.7025   -2.3913 S   0  0  0  0  0  0  0  0  0  0  0  0
   -1.0941    0.9860    0.9125 H   0  0  0  0  0  0  0  0  0  0  0  0
   -0.7405    1.6784   -0.6793 H   0  0  0  0  0  0  0  0  0  0  0  0
   -2.2437    0.7943   -0.4195 H   0  0  0  0  0  0  0  0  0  0  0  0
    0.5870   -0.3637   -0.3637 H   0  0  0  0  0  0  0  0  0  0  0  0
   -0.4209   -2.6026   -0.1443 H   0  0  0  0  0  0  0  0  0  0  0  0
   -2.2982   -2.7315    1.3623 H   0  0  0  0  0  0  0  0  0  0  0  0
   -2.5999   -0.9190    1.2055 H   0  0  0  0  0  0  0  0  0  0  0  0
   -1.8040   -0.9489   -2.4971 H   0  0  0  0  0  0  0  0  0  0  0  0
  1  2  1  0
  1  6  1  0
  1  7  1  0
  1  8  1  0
  2  3  1  0
  2  5  1  0
  2  9  1  1
  3  4  2  3
  3 10  1  0
  4 11  1  0
  4 12  1  0
  5 13  1  0
M  END
>  <reaction>  (3) 
rxn_1464

>  <mol_properties>  (3) 
{"1": {"label": "acceptor", "atom_type": "Cs"}, "12": {"label": "a_hydrogen", "atom_type": "H0"}}

>  <type>  (3) 
r2h

$$$$

     RDKit          3D

 27 26  0  0  0  0  0  0  0  0999 V2000
   -0.7287   -1.8211    0.2883 C   0  0  0  0  0  0  0  0  0  0  0  0
   -0.5569   -1.0173    1.5526 C   0  0  1  0  0  0  0  0  0  0  0  0
   -1.6729   -0.1700    1.9868 C   0  0  0  0  0  0  0  0  0  0  0  0
   -2.7662    0.1035    1.2746 C   0  0  0  0  0  0  0  0  0  0  0  0
    0.2951   -1.8662    2.8948 S   0  0  0  0  0  0  0  0  0  0  0  0
   -1.5083   -2.5788    0.4116 H   0  0  0  0  0  0  0  0  0  0  0  0
   -1.0077   -1.1760   -0.5477 H   0  0  0  0  0  0  0  0  0  0  0  0
    0.2002   -2.3272    0.0291 H   0  0  0  0  0  0  0  0  0  0  0  0
   -1.5541    0.2848    2.9654 H   0  0  0  0  0  0  0  0  0  0  0  0
   -3.5274    0.7667    1.6646 H   0  0  0  0  0  0  0  0  0  0  0  0
   -2.9416   -0.3217    0.2944 H   0  0  0  0  0  0  0  0  0  0  0  0
   -0.7130   -2.6749    3.2593 H   0  0  0  0  0  0  0  0  0  0  0  0
    1.2864    0.7715    0.7272 C   0  0  0  0  0  0  0  0  0  0  0  0
    0.8928    0.9751   -0.6592 C   0  0  0  0  0  0  0  0  0  0  0  0
   -0.1627    1.8361   -0.9838 C   0  0  0  0  0  3  0  0  0  0  0  0
   -0.5961    1.9673   -2.2909 C   0  0  0  0  0  0  0  0  0  0  0  0
    0.0132    1.2426   -3.3065 C   0  0  0  0  0  0  0  0  0  0  0  0
    1.0637    0.3868   -3.0018 C   0  0  0  0  0  0  0  0  0  0  0  0
    1.4964    0.2527   -1.6953 C   0  0  0  0  0  0  0  0  0  0  0  0
    0.3897   -0.1437    1.2142 H   0  0  0  0  0  0  0  0  0  0  0  0
    2.2434    0.2853    0.8949 H   0  0  0  0  0  0  0  0  0  0  0  0
    1.0874    1.5909    1.4128 H   0  0  0  0  0  0  0  0  0  0  0  0
   -0.6483    2.3962   -0.1935 H   0  0  0  0  0  0  0  0  0  0  0  0
   -1.4139    2.6388   -2.5207 H   0  0  0  0  0  0  0  0  0  0  0  0
   -0.3257    1.3465   -4.3292 H   0  0  0  0  0  0  0  0  0  0  0  0
    1.5468   -0.1787   -3.7889 H   0  0  0  0  0  0  0  0  0  0  0  0
    2.3124   -0.4219   -1.4631 H   0  0  0  0  0  0  0  0  0  0  0  0
  1  2  1  0
  1  6  1  0
  1  7  1  0
  1  8  1  0
  2  3  1  0
  2  5  1  0
  2 20  1  6
  3  4  2  3
  3  9  1  0
  4 10  1  0
  4 11  1  0
  5 12  1  0
 13 14  2  3
 13 21  1  0
 13 22  1  0
 14 15  1  0
 14 19  1  0
 15 16  1  0
 15 23  1  0
 16 17  2  0
 16 24  1  0
 17 18  1  0
 17 25  1  0
 18 19  2  0
 18 26  1  0
 19 27  1  0
M  RAD  1  15   2
M  END
>  <reaction>  (4) 
rxn_1464

>  <mol_properties>  (4) 
{"1": {"label": "*1", "atom_type": "Cs"}, "4": {"label": "*0", "atom_type": "S2s"}, "12": {"label": "*3", "atom_type": "Cd"}, "13": {"label": "*4", "atom_type": "Cd"}, "19": {"label": "*2", "atom_type": "H0"}}

>  <type>  (4) 
ts

$$$$

     RDKit          3D

 27 26  0  0  0  0  0  0  0  0999 V2000
    0.6017   -1.8657    2.4137 C   0  0  0  0  0  0  0  0  0  0  0  0
   -0.3907   -1.0888    1.5644 C   0  0  0  0  0  3  0  0  0  0  0  0
   -1.5752   -1.8719    1.0811 C   0  0  0  0  0  0  0  0  0  0  0  0
   -1.8683   -3.1215    1.4081 C   0  0  0  0  0  0  0  0  0  0  0  0
   -0.9638    0.4421    2.3962 S   0  0  0  0  0  0  0  0  0  0  0  0
    0.1347   -2.2259    3.3322 H   0  0  0  0  0  0  0  0  0  0  0  0
    0.9851   -2.7278    1.8633 H   0  0  0  0  0  0  0  0  0  0  0  0
    1.4406   -1.2294    2.6915 H   0  0  0  0  0  0  0  0  0  0  0  0
   -2.2385   -1.3256    0.4177 H   0  0  0  0  0  0  0  0  0  0  0  0
   -2.7551   -3.6028    1.0165 H   0  0  0  0  0  0  0  0  0  0  0  0
   -1.2450   -3.7108    2.0694 H   0  0  0  0  0  0  0  0  0  0  0  0
   -1.6893   -0.1713    3.3416 H   0  0  0  0  0  0  0  0  0  0  0  0
    0.7911    1.0483    0.6107 C   0  0  0  0  0  0  0  0  0  0  0  0
    0.7911    1.0483   -0.8931 C   0  0  0  0  0  0  0  0  0  0  0  0
    0.7911    2.2426   -1.6071 C   0  0  0  0  0  0  0  0  0  0  0  0
    0.8215    2.2459   -2.9931 C   0  0  0  0  0  0  0  0  0  0  0  0
    0.8511    1.0489   -3.6921 C   0  0  0  0  0  0  0  0  0  0  0  0
    0.8480   -0.1485   -2.9931 C   0  0  0  0  0  0  0  0  0  0  0  0
    0.8174   -0.1458   -1.6071 C   0  0  0  0  0  0  0  0  0  0  0  0
    0.2012   -0.0185    1.0867 H   0  0  0  0  0  0  0  0  0  0  0  0
    1.8133    1.0595    0.9974 H   0  0  0  0  0  0  0  0  0  0  0  0
    0.2801    1.9261    1.0074 H   0  0  0  0  0  0  0  0  0  0  0  0
    0.7645    3.1837   -1.0693 H   0  0  0  0  0  0  0  0  0  0  0  0
    0.8189    3.1871   -3.5288 H   0  0  0  0  0  0  0  0  0  0  0  0
    0.8722    1.0491   -4.7745 H   0  0  0  0  0  0  0  0  0  0  0  0
    0.8661   -1.0895   -3.5288 H   0  0  0  0  0  0  0  0  0  0  0  0
    0.8116   -1.0872   -1.0693 H   0  0  0  0  0  0  0  0  0  0  0  0
  1  2  1  0
  1  6  1  0
  1  7  1  0
  1  8  1  0
  2  3  1  0
  2  5  1  0
  3  4  2  3
  3  9  1  0
  4 10  1  0
  4 11  1  0
  5 12  1  0
 13 14  1  0
 13 20  1  0
 13 21  1  0
 13 22  1  0
 14 15  2  0
 14 19  1  0
 15 16  1  0
 15 23  1  0
 16 17  2  0
 16 24  1  0
 17 18  1  0
 17 25  1  0
 18 19  2  0
 18 26  1  0
 19 27  1  0
M  RAD  1   2   2
M  END
>  <reaction>  (5) 
rxn_1464

>  <mol_properties>  (5) 
{"1": {"label": "*1", "atom_type": "Cs"}, "4": {"label": "*0", "atom_type": "S2s"}, "12": {"label": "*3", "atom_type": "Cd"}, "13": {"label": "*4", "atom_type": "Cd"}, "19": {"label": "*2", "atom_type": "H0"}}

>  <type>  (5) 
unop_1

>  <geom_source>  (5) 
Heuristics

$$$$

     RDKit          3D

 27 26  0  0  0  0  0  0  0  0999 V2000
   -0.3969   -2.0863    0.5246 C   0  0  0  0  0  0  0  0  0  0  0  0
   -0.5835   -0.9391    1.5036 C   0  0  0  0  0  3  0  0  0  0  0  0
   -1.9404   -0.8476    2.1364 C   0  0  0  0  0  0  0  0  0  0  0  0
   -2.9274   -1.7187    1.9909 C   0  0  0  0  0  0  0  0  0  0  0  0
    0.7053   -0.9264    2.8085 S   0  0  0  0  0  0  0  0  0  0  0  0
   -0.5184   -3.0504    1.0218 H   0  0  0  0  0  0  0  0  0  0  0  0
   -1.1286   -2.0233   -0.2841 H   0  0  0  0  0  0  0  0  0  0  0  0
    0.6022   -2.0556    0.0926 H   0  0  0  0  0  0  0  0  0  0  0  0
   -2.0829    0.0163    2.7782 H   0  0  0  0  0  0  0  0  0  0  0  0
   -3.8726   -1.5742    2.4982 H   0  0  0  0  0  0  0  0  0  0  0  0
   -2.8380   -2.5999    1.3675 H   0  0  0  0  0  0  0  0  0  0  0  0
    0.2770   -2.0260    3.4439 H   0  0  0  0  0  0  0  0  0  0  0  0
    0.5983    1.1980    0.5498 C   0  0  0  0  0  0  0  0  0  0  0  0
    0.5983    1.1980   -0.9539 C   0  0  0  0  0  0  0  0  0  0  0  0
    0.5983    2.3923   -1.6679 C   0  0  0  0  0  0  0  0  0  0  0  0
    0.6287    2.3957   -3.0539 C   0  0  0  0  0  0  0  0  0  0  0  0
    0.6583    1.1986   -3.7529 C   0  0  0  0  0  0  0  0  0  0  0  0
    0.6551    0.0013   -3.0539 C   0  0  0  0  0  0  0  0  0  0  0  0
    0.6246    0.0040   -1.6679 C   0  0  0  0  0  0  0  0  0  0  0  0
    0.0084    0.1313    1.0259 H   0  0  0  0  0  0  0  0  0  0  0  0
    1.6205    1.2092    0.9366 H   0  0  0  0  0  0  0  0  0  0  0  0
    0.0873    2.0759    0.9466 H   0  0  0  0  0  0  0  0  0  0  0  0
    0.5717    3.3334   -1.1301 H   0  0  0  0  0  0  0  0  0  0  0  0
    0.6261    3.3369   -3.5896 H   0  0  0  0  0  0  0  0  0  0  0  0
    0.6794    1.1989   -4.8353 H   0  0  0  0  0  0  0  0  0  0  0  0
    0.6733   -0.9398   -3.5896 H   0  0  0  0  0  0  0  0  0  0  0  0
    0.6188   -0.9375   -1.1301 H   0  0  0  0  0  0  0  0  0  0  0  0
  1  2  1  0
  1  6  1  0
  1  7  1  0
  1  8  1  0
  2  3  1  0
  2  5  1  0
  3  4  2  3
  3  9  1  0
  4 10  1  0
  4 11  1  0
  5 12  1  0
 13 14  1  0
 13 20  1  0
 13 21  1  0
 13 22  1  0
 14 15  2  0
 14 19  1  0
 15 16  1  0
 15 23  1  0
 16 17  2  0
 16 24  1  0
 17 18  1  0
 17 25  1  0
 18 19  2  0
 18 26  1  0
 19 27  1  0
M  RAD  1   2   2
M  END
>  <reaction>  (6) 
rxn_1464

>  <mol_properties>  (6) 
{"1": {"label": "*1", "atom_type": "Cs"}, "4": {"label": "*0", "atom_type": "S2s"}, "12": {"label": "*3", "atom_type": "Cd"}, "13": {"label": "*4", "atom_type": "Cd"}, "19": {"label": "*2", "atom_type": "H0"}}

>  <type>  (6) 
unop_2

>  <geom_source>  (6) 
Heuristics

$$$$

     RDKit          3D

 27 26  0  0  0  0  0  0  0  0999 V2000
    0.2811   -1.3714    3.0281 C   0  0  0  0  0  0  0  0  0  0  0  0
   -0.3436   -1.0166    1.6890 C   0  0  0  0  0  3  0  0  0  0  0  0
   -0.8594   -2.1777    0.8917 C   0  0  0  0  0  0  0  0  0  0  0  0
   -0.9034   -3.4392    1.2930 C   0  0  0  0  0  0  0  0  0  0  0  0
   -1.6606    0.2494    1.8535 S   0  0  0  0  0  0  0  0  0  0  0  0
   -0.4498   -1.8387    3.6907 H   0  0  0  0  0  0  0  0  0  0  0  0
    1.1128   -2.0662    2.8912 H   0  0  0  0  0  0  0  0  0  0  0  0
    0.6545   -0.4748    3.5202 H   0  0  0  0  0  0  0  0  0  0  0  0
   -1.2379   -1.9186   -0.0921 H   0  0  0  0  0  0  0  0  0  0  0  0
   -1.3050   -4.2112    0.6495 H   0  0  0  0  0  0  0  0  0  0  0  0
   -0.5446   -3.7527    2.2657 H   0  0  0  0  0  0  0  0  0  0  0  0
   -2.5452   -0.5437    2.4738 H   0  0  0  0  0  0  0  0  0  0  0  0
    0.8381    1.1205    0.7352 C   0  0  0  0  0  0  0  0  0  0  0  0
    0.8381    1.1205   -0.7685 C   0  0  0  0  0  0  0  0  0  0  0  0
    0.8381    2.3149   -1.4826 C   0  0  0  0  0  0  0  0  0  0  0  0
    0.8686    2.3182   -2.8686 C   0  0  0  0  0  0  0  0  0  0  0  0
    0.8981    1.1212   -3.5676 C   0  0  0  0  0  0  0  0  0  0  0  0
    0.8950   -0.0762   -2.8686 C   0  0  0  0  0  0  0  0  0  0  0  0
    0.8645   -0.0735   -1.4826 C   0  0  0  0  0  0  0  0  0  0  0  0
    0.2483    0.0538    1.2113 H   0  0  0  0  0  0  0  0  0  0  0  0
    1.8604    1.1318    1.1220 H   0  0  0  0  0  0  0  0  0  0  0  0
    0.3271    1.9984    1.1319 H   0  0  0  0  0  0  0  0  0  0  0  0
    0.8115    3.2560   -0.9448 H   0  0  0  0  0  0  0  0  0  0  0  0
    0.8659    3.2594   -3.4043 H   0  0  0  0  0  0  0  0  0  0  0  0
    0.9193    1.1214   -4.6500 H   0  0  0  0  0  0  0  0  0  0  0  0
    0.9131   -1.0172   -3.4043 H   0  0  0  0  0  0  0  0  0  0  0  0
    0.8586   -1.0149   -0.9448 H   0  0  0  0  0  0  0  0  0  0  0  0
  1  2  1  0
  1  6  1  0
  1  7  1  0
  1  8  1  0
  2  3  1  0
  2  5  1  0
  3  4  2  3
  3  9  1  0
  4 10  1  0
  4 11  1  0
  5 12  1  0
 13 14  1  0
 13 20  1  0
 13 21  1  0
 13 22  1  0
 14 15  2  0
 14 19  1  0
 15 16  1  0
 15 23  1  0
 16 17  2  0
 16 24  1  0
 17 18  1  0
 17 25  1  0
 18 19  2  0
 18 26  1  0
 19 27  1  0
M  RAD  1   2   2
M  END
>  <reaction>  (7) 
rxn_1464

>  <mol_properties>  (7) 
{"1": {"label": "*1", "atom_type": "Cs"}, "4": {"label": "*0", "atom_type": "S2s"}, "12": {"label": "*3", "atom_type": "Cd"}, "13": {"label": "*4", "atom_type": "Cd"}, "19": {"label": "*2", "atom_type": "H0"}}

>  <type>  (7) 
unop_3

>  <geom_source>  (7) 
Heuristics

$$$$

     RDKit          3D

 27 26  0  0  0  0  0  0  0  0999 V2000
   -2.0240   -0.9645    1.0172 C   0  0  0  0  0  0  0  0  0  0  0  0
   -0.5855   -0.9346    1.5063 C   0  0  0  0  0  3  0  0  0  0  0  0
   -0.3623   -0.2173    2.8047 C   0  0  0  0  0  0  0  0  0  0  0  0
   -1.3041    0.2900    3.5856 C   0  0  0  0  0  0  0  0  0  0  0  0
    0.1498   -2.6124    1.5967 S   0  0  0  0  0  0  0  0  0  0  0  0
   -2.6673   -1.4945    1.7219 H   0  0  0  0  0  0  0  0  0  0  0  0
   -2.4097    0.0505    0.8978 H   0  0  0  0  0  0  0  0  0  0  0  0
   -2.0861   -1.4751    0.0574 H   0  0  0  0  0  0  0  0  0  0  0  0
    0.6777   -0.1415    3.1066 H   0  0  0  0  0  0  0  0  0  0  0  0
   -1.0471    0.7830    4.5143 H   0  0  0  0  0  0  0  0  0  0  0  0
   -2.3567    0.2380    3.3359 H   0  0  0  0  0  0  0  0  0  0  0  0
   -0.5838   -3.0347    2.6360 H   0  0  0  0  0  0  0  0  0  0  0  0
    0.5963    1.2025    0.5526 C   0  0  0  0  0  0  0  0  0  0  0  0
    0.5963    1.2025   -0.9512 C   0  0  0  0  0  0  0  0  0  0  0  0
    0.5963    2.3969   -1.6652 C   0  0  0  0  0  0  0  0  0  0  0  0
    0.6267    2.4002   -3.0512 C   0  0  0  0  0  0  0  0  0  0  0  0
    0.6563    1.2032   -3.7502 C   0  0  0  0  0  0  0  0  0  0  0  0
    0.6531    0.0058   -3.0512 C   0  0  0  0  0  0  0  0  0  0  0  0
    0.6226    0.0085   -1.6652 C   0  0  0  0  0  0  0  0  0  0  0  0
    0.0064    0.1358    1.0286 H   0  0  0  0  0  0  0  0  0  0  0  0
    1.6185    1.2138    0.9393 H   0  0  0  0  0  0  0  0  0  0  0  0
    0.0852    2.0804    0.9493 H   0  0  0  0  0  0  0  0  0  0  0  0
    0.5697    3.3380   -1.1274 H   0  0  0  0  0  0  0  0  0  0  0  0
    0.6241    3.3414   -3.5869 H   0  0  0  0  0  0  0  0  0  0  0  0
    0.6774    1.2034   -4.8326 H   0  0  0  0  0  0  0  0  0  0  0  0
    0.6712   -0.9352   -3.5869 H   0  0  0  0  0  0  0  0  0  0  0  0
    0.6168   -0.9330   -1.1274 H   0  0  0  0  0  0  0  0  0  0  0  0
  1  2  1  0
  1  6  1  0
  1  7  1  0
  1  8  1  0
  2  3  1  0
  2  5  1  0
  3  4  2  3
  3  9  1  0
  4 10  1  0
  4 11  1  0
  5 12  1  0
 13 14  1  0
 13 20  1  0
 13 21  1  0
 13 22  1  0
 14 15  2  0
 14 19  1  0
 15 16  1  0
 15 23  1  0
 16 17  2  0
 16 24  1  0
 17 18  1  0
 17 25  1  0
 18 19  2  0
 18 26  1  0
 19 27  1  0
M  RAD  1   2   2
M  END
>  <reaction>  (8) 
rxn_1464

>  <mol_properties>  (8) 
{"1": {"label": "*1", "atom_type": "Cs"}, "4": {"label": "*0", "atom_type": "S2s"}, "12": {"label": "*3", "atom_type": "Cd"}, "13": {"label": "*4", "atom_type": "Cd"}, "19": {"label": "*2", "atom_type": "H0"}}

>  <type>  (8) 
unop_4

>  <geom_source>  (8) 
Heuristics

$$$$

     RDKit          3D

 27 26  0  0  0  0  0  0  0  0999 V2000
   -0.4176   -0.8076    3.2972 C   0  0  0  0  0  0  0  0  0  0  0  0
   -0.4475   -0.8616    1.7788 C   0  0  0  0  0  3  0  0  0  0  0  0
    0.2084   -2.0627    1.1647 C   0  0  0  0  0  0  0  0  0  0  0  0
    0.7082   -3.0981    1.8224 C   0  0  0  0  0  0  0  0  0  0  0  0
   -2.1472   -0.6820    1.1132 S   0  0  0  0  0  0  0  0  0  0  0  0
   -0.9589   -1.6506    3.7307 H   0  0  0  0  0  0  0  0  0  0  0  0
    0.6116   -0.8373    3.6618 H   0  0  0  0  0  0  0  0  0  0  0  0
   -0.8858    0.1093    3.6519 H   0  0  0  0  0  0  0  0  0  0  0  0
    0.2431   -2.0541    0.0798 H   0  0  0  0  0  0  0  0  0  0  0  0
    1.1547   -3.9285    1.2908 H   0  0  0  0  0  0  0  0  0  0  0  0
    0.6955   -3.1611    2.9036 H   0  0  0  0  0  0  0  0  0  0  0  0
   -2.5923   -1.8746    1.5329 H   0  0  0  0  0  0  0  0  0  0  0  0
    0.7342    1.2755    0.8250 C   0  0  0  0  0  0  0  0  0  0  0  0
    0.7342    1.2755   -0.6787 C   0  0  0  0  0  0  0  0  0  0  0  0
    0.7342    2.4698   -1.3928 C   0  0  0  0  0  0  0  0  0  0  0  0
    0.7647    2.4731   -2.7788 C   0  0  0  0  0  0  0  0  0  0  0  0
    0.7942    1.2761   -3.4778 C   0  0  0  0  0  0  0  0  0  0  0  0
    0.7911    0.0787   -2.7788 C   0  0  0  0  0  0  0  0  0  0  0  0
    0.7606    0.0814   -1.3928 C   0  0  0  0  0  0  0  0  0  0  0  0
    0.1444    0.2087    1.3011 H   0  0  0  0  0  0  0  0  0  0  0  0
    1.7565    1.2867    1.2118 H   0  0  0  0  0  0  0  0  0  0  0  0
    0.2232    2.1533    1.2217 H   0  0  0  0  0  0  0  0  0  0  0  0
    0.7076    3.4109   -0.8550 H   0  0  0  0  0  0  0  0  0  0  0  0
    0.7620    3.4143   -3.3145 H   0  0  0  0  0  0  0  0  0  0  0  0
    0.8154    1.2764   -4.5602 H   0  0  0  0  0  0  0  0  0  0  0  0
    0.8092   -0.8623   -3.3145 H   0  0  0  0  0  0  0  0  0  0  0  0
    0.7547   -0.8600   -0.8550 H   0  0  0  0  0  0  0  0  0  0  0  0
  1  2  1  0
  1  6  1  0
  1  7  1  0
  1  8  1  0
  2  3  1  0
  2  5  1  0
  3  4  2  3
  3  9  1  0
  4 10  1  0
  4 11  1  0
  5 12  1  0
 13 14  1  0
 13 20  1  0
 13 21  1  0
 13 22  1  0
 14 15  2  0
 14 19  1  0
 15 16  1  0
 15 23  1  0
 16 17  2  0
 16 24  1  0
 17 18  1  0
 17 25  1  0
 18 19  2  0
 18 26  1  0
 19 27  1  0
M  RAD  1   2   2
M  END
>  <reaction>  (9) 
rxn_1464

>  <mol_properties>  (9) 
{"1": {"label": "*1", "atom_type": "Cs"}, "4": {"label": "*0", "atom_type": "S2s"}, "12": {"label": "*3", "atom_type": "Cd"}, "13": {"label": "*4", "atom_type": "Cd"}, "19": {"label": "*2", "atom_type": "H0"}}

>  <type>  (9) 
unop_5

>  <geom_source>  (9) 
Heuristics

$$$$

     RDKit          3D

 27 26  0  0  0  0  0  0  0  0999 V2000
   -2.1333   -0.6165    1.7060 C   0  0  0  0  0  0  0  0  0  0  0  0
   -0.6528   -0.9085    1.5260 C   0  0  0  0  0  3  0  0  0  0  0  0
    0.2350   -0.4434    2.6420 C   0  0  0  0  0  0  0  0  0  0  0  0
   -0.1668    0.0955    3.7833 C   0  0  0  0  0  0  0  0  0  0  0  0
   -0.3337   -2.6821    1.1851 S   0  0  0  0  0  0  0  0  0  0  0  0
   -2.5300   -1.1275    2.5852 H   0  0  0  0  0  0  0  0  0  0  0  0
   -2.3006    0.4560    1.8285 H   0  0  0  0  0  0  0  0  0  0  0  0
   -2.6942   -0.9589    0.8378 H   0  0  0  0  0  0  0  0  0  0  0  0
    1.2960   -0.5940    2.4688 H   0  0  0  0  0  0  0  0  0  0  0  0
    0.5500    0.3918    4.5382 H   0  0  0  0  0  0  0  0  0  0  0  0
   -1.2124    0.2636    4.0105 H   0  0  0  0  0  0  0  0  0  0  0  0
   -0.6494   -3.1229    2.4109 H   0  0  0  0  0  0  0  0  0  0  0  0
    0.5290    1.2286    0.5722 C   0  0  0  0  0  0  0  0  0  0  0  0
    0.5290    1.2286   -0.9315 C   0  0  0  0  0  0  0  0  0  0  0  0
    0.5290    2.4230   -1.6456 C   0  0  0  0  0  0  0  0  0  0  0  0
    0.5594    2.4263   -3.0315 C   0  0  0  0  0  0  0  0  0  0  0  0
    0.5890    1.2293   -3.7306 C   0  0  0  0  0  0  0  0  0  0  0  0
    0.5858    0.0319   -3.0315 C   0  0  0  0  0  0  0  0  0  0  0  0
    0.5553    0.0346   -1.6456 C   0  0  0  0  0  0  0  0  0  0  0  0
   -0.0609    0.1619    1.0483 H   0  0  0  0  0  0  0  0  0  0  0  0
    1.5512    1.2399    0.9590 H   0  0  0  0  0  0  0  0  0  0  0  0
    0.0179    2.1065    0.9690 H   0  0  0  0  0  0  0  0  0  0  0  0
    0.5024    3.3641   -1.1077 H   0  0  0  0  0  0  0  0  0  0  0  0
    0.5568    3.3675   -3.5673 H   0  0  0  0  0  0  0  0  0  0  0  0
    0.6101    1.2295   -4.8129 H   0  0  0  0  0  0  0  0  0  0  0  0
    0.6039   -0.9091   -3.5673 H   0  0  0  0  0  0  0  0  0  0  0  0
    0.5495   -0.9069   -1.1077 H   0  0  0  0  0  0  0  0  0  0  0  0
  1  2  1  0
  1  6  1  0
  1  7  1  0
  1  8  1  0
  2  3  1  0
  2  5  1  0
  3  4  2  3
  3  9  1  0
  4 10  1  0
  4 11  1  0
  5 12  1  0
 13 14  1  0
 13 20  1  0
 13 21  1  0
 13 22  1  0
 14 15  2  0
 14 19  1  0
 15 16  1  0
 15 23  1  0
 16 17  2  0
 16 24  1  0
 17 18  1  0
 17 25  1  0
 18 19  2  0
 18 26  1  0
 19 27  1  0
M  RAD  1   2   2
M  END
>  <reaction>  (10) 
rxn_1464

>  <mol_properties>  (10) 
{"1": {"label": "*1", "atom_type": "Cs"}, "4": {"label": "*0", "atom_type": "S2s"}, "12": {"label": "*3", "atom_type": "Cd"}, "13": {"label": "*4", "atom_type": "Cd"}, "19": {"label": "*2", "atom_type": "H0"}}

>  <type>  (10) 
unop_6

>  <geom_source>  (10) 
Heuristics

$$$$

     RDKit          3D

 27 26  0  0  0  0  0  0  0  0999 V2000
   -1.8765   -0.4259    2.4507 C   0  0  0  0  0  0  0  0  0  0  0  0
   -0.6909   -0.8534    1.6015 C   0  0  0  0  0  3  0  0  0  0  0  0
    0.6396   -0.8250    2.2934 C   0  0  0  0  0  0  0  0  0  0  0  0
    0.8450   -0.5614    3.5750 C   0  0  0  0  0  0  0  0  0  0  0  0
   -0.9484   -2.4981    0.8316 S   0  0  0  0  0  0  0  0  0  0  0  0
   -2.0110   -1.0953    3.3023 H   0  0  0  0  0  0  0  0  0  0  0  0
   -1.7301    0.5875    2.8313 H   0  0  0  0  0  0  0  0  0  0  0  0
   -2.7912   -0.4468    1.8603 H   0  0  0  0  0  0  0  0  0  0  0  0
    1.4858   -1.0636    1.6566 H   0  0  0  0  0  0  0  0  0  0  0  0
    1.8447   -0.5750    3.9897 H   0  0  0  0  0  0  0  0  0  0  0  0
    0.0374   -0.3225    4.2561 H   0  0  0  0  0  0  0  0  0  0  0  0
   -0.8608   -3.2036    1.9679 H   0  0  0  0  0  0  0  0  0  0  0  0
    0.4908    1.2837    0.6477 C   0  0  0  0  0  0  0  0  0  0  0  0
    0.4908    1.2837   -0.8560 C   0  0  0  0  0  0  0  0  0  0  0  0
    0.4908    2.4780   -1.5701 C   0  0  0  0  0  0  0  0  0  0  0  0
    0.5213    2.4814   -2.9561 C   0  0  0  0  0  0  0  0  0  0  0  0
    0.5508    1.2843   -3.6551 C   0  0  0  0  0  0  0  0  0  0  0  0
    0.5477    0.0870   -2.9561 C   0  0  0  0  0  0  0  0  0  0  0  0
    0.5172    0.0897   -1.5701 C   0  0  0  0  0  0  0  0  0  0  0  0
   -0.0990    0.2170    1.1238 H   0  0  0  0  0  0  0  0  0  0  0  0
    1.5131    1.2949    1.0345 H   0  0  0  0  0  0  0  0  0  0  0  0
   -0.0202    2.1616    1.0444 H   0  0  0  0  0  0  0  0  0  0  0  0
    0.4642    3.4191   -1.0323 H   0  0  0  0  0  0  0  0  0  0  0  0
    0.5186    3.4226   -3.4918 H   0  0  0  0  0  0  0  0  0  0  0  0
    0.5720    1.2846   -4.7375 H   0  0  0  0  0  0  0  0  0  0  0  0
    0.5658   -0.8541   -3.4918 H   0  0  0  0  0  0  0  0  0  0  0  0
    0.5113   -0.8518   -1.0323 H   0  0  0  0  0  0  0  0  0  0  0  0
  1  2  1  0
  1  6  1  0
  1  7  1  0
  1  8  1  0
  2  3  1  0
  2  5  1  0
  3  4  2  3
  3  9  1  0
  4 10  1  0
  4 11  1  0
  5 12  1  0
 13 14  1  0
 13 20  1  0
 13 21  1  0
 13 22  1  0
 14 15  2  0
 14 19  1  0
 15 16  1  0
 15 23  1  0
 16 17  2  0
 16 24  1  0
 17 18  1  0
 17 25  1  0
 18 19  2  0
 18 26  1  0
 19 27  1  0
M  RAD  1   2   2
M  END
>  <reaction>  (11) 
rxn_1464

>  <mol_properties>  (11) 
{"1": {"label": "*1", "atom_type": "Cs"}, "4": {"label": "*0", "atom_type": "S2s"}, "12": {"label": "*3", "atom_type": "Cd"}, "13": {"label": "*4", "atom_type": "Cd"}, "19": {"label": "*2", "atom_type": "H0"}}

>  <type>  (11) 
unop_7

>  <geom_source>  (11) 
Heuristics

$$$$

     RDKit          3D

 27 26  0  0  0  0  0  0  0  0999 V2000
    0.5501   -2.1699    1.6689 C   0  0  0  0  0  0  0  0  0  0  0  0
   -0.4842   -1.0712    1.4889 C   0  0  0  0  0  3  0  0  0  0  0  0
   -1.9099   -1.5335    1.4273 C   0  0  0  0  0  0  0  0  0  0  0  0
   -2.3344   -2.7745    1.6120 C   0  0  0  0  0  0  0  0  0  0  0  0
   -0.3199    0.2478    2.7527 S   0  0  0  0  0  0  0  0  0  0  0  0
    0.4049   -2.6945    2.6151 H   0  0  0  0  0  0  0  0  0  0  0  0
    0.4801   -2.8991    0.8586 H   0  0  0  0  0  0  0  0  0  0  0  0
    1.5537   -1.7474    1.6706 H   0  0  0  0  0  0  0  0  0  0  0  0
   -2.6320   -0.7481    1.2274 H   0  0  0  0  0  0  0  0  0  0  0  0
   -3.3889   -3.0126    1.5590 H   0  0  0  0  0  0  0  0  0  0  0  0
   -1.6587   -3.5952    1.8195 H   0  0  0  0  0  0  0  0  0  0  0  0
   -0.7441   -0.4912    3.7873 H   0  0  0  0  0  0  0  0  0  0  0  0
    0.6975    1.0659    0.5351 C   0  0  0  0  0  0  0  0  0  0  0  0
    0.6975    1.0659   -0.9686 C   0  0  0  0  0  0  0  0  0  0  0  0
    0.6975    2.2602   -1.6827 C   0  0  0  0  0  0  0  0  0  0  0  0
    0.7280    2.2636   -3.0687 C   0  0  0  0  0  0  0  0  0  0  0  0
    0.7575    1.0666   -3.7677 C   0  0  0  0  0  0  0  0  0  0  0  0
    0.7544   -0.1308   -3.0687 C   0  0  0  0  0  0  0  0  0  0  0  0
    0.7239   -0.1281   -1.6827 C   0  0  0  0  0  0  0  0  0  0  0  0
    0.1077   -0.0008    1.0112 H   0  0  0  0  0  0  0  0  0  0  0  0
    1.7198    1.0771    0.9219 H   0  0  0  0  0  0  0  0  0  0  0  0
    0.1865    1.9438    0.9318 H   0  0  0  0  0  0  0  0  0  0  0  0
    0.6709    3.2013   -1.1448 H   0  0  0  0  0  0  0  0  0  0  0  0
    0.7253    3.2048   -3.6044 H   0  0  0  0  0  0  0  0  0  0  0  0
    0.7787    1.0668   -4.8500 H   0  0  0  0  0  0  0  0  0  0  0  0
    0.7725   -1.0719   -3.6044 H   0  0  0  0  0  0  0  0  0  0  0  0
    0.7180   -1.0696   -1.1448 H   0  0  0  0  0  0  0  0  0  0  0  0
  1  2  1  0
  1  6  1  0
  1  7  1  0
  1  8  1  0
  2  3  1  0
  2  5  1  0
  3  4  2  3
  3  9  1  0
  4 10  1  0
  4 11  1  0
  5 12  1  0
 13 14  1  0
 13 20  1  0
 13 21  1  0
 13 22  1  0
 14 15  2  0
 14 19  1  0
 15 16  1  0
 15 23  1  0
 16 17  2  0
 16 24  1  0
 17 18  1  0
 17 25  1  0
 18 19  2  0
 18 26  1  0
 19 27  1  0
M  RAD  1   2   2
M  END
>  <reaction>  (12) 
rxn_1464

>  <mol_properties>  (12) 
{"1": {"label": "*1", "atom_type": "Cs"}, "4": {"label": "*0", "atom_type": "S2s"}, "12": {"label": "*3", "atom_type": "Cd"}, "13": {"label": "*4", "atom_type": "Cd"}, "19": {"label": "*2", "atom_type": "H0"}}

>  <type>  (12) 
unop_8

>  <geom_source>  (12) 
Heuristics

$$$$

     RDKit          3D

 27 26  0  0  0  0  0  0  0  0999 V2000
   -1.6164   -1.3774    0.5430 C   0  0  0  0  0  0  0  0  0  0  0  0
   -0.5456   -0.9255    1.5221 C   0  0  0  0  0  3  0  0  0  0  0  0
   -1.0486   -0.2092    2.7402 C   0  0  0  0  0  0  0  0  0  0  0  0
   -2.3191   -0.0326    3.0702 C   0  0  0  0  0  0  0  0  0  0  0  0
    0.5541   -2.3030    2.0292 S   0  0  0  0  0  0  0  0  0  0  0  0
   -2.2943   -2.0962    1.0070 H   0  0  0  0  0  0  0  0  0  0  0  0
   -2.2053   -0.5244    0.1981 H   0  0  0  0  0  0  0  0  0  0  0  0
   -1.1599   -1.8570   -0.3214 H   0  0  0  0  0  0  0  0  0  0  0  0
   -0.2707    0.1705    3.3953 H   0  0  0  0  0  0  0  0  0  0  0  0
   -2.5875    0.4902    3.9792 H   0  0  0  0  0  0  0  0  0  0  0  0
   -3.1349   -0.3948    2.4567 H   0  0  0  0  0  0  0  0  0  0  0  0
   -0.3609   -2.9554    2.7597 H   0  0  0  0  0  0  0  0  0  0  0  0
    0.6362    1.2116    0.5683 C   0  0  0  0  0  0  0  0  0  0  0  0
    0.6362    1.2116   -0.9354 C   0  0  0  0  0  0  0  0  0  0  0  0
    0.6362    2.4059   -1.6495 C   0  0  0  0  0  0  0  0  0  0  0  0
    0.6666    2.4093   -3.0355 C   0  0  0  0  0  0  0  0  0  0  0  0
    0.6962    1.2123   -3.7345 C   0  0  0  0  0  0  0  0  0  0  0  0
    0.6930    0.0149   -3.0355 C   0  0  0  0  0  0  0  0  0  0  0  0
    0.6625    0.0176   -1.6495 C   0  0  0  0  0  0  0  0  0  0  0  0
    0.0463    0.1449    1.0444 H   0  0  0  0  0  0  0  0  0  0  0  0
    1.6584    1.2229    0.9551 H   0  0  0  0  0  0  0  0  0  0  0  0
    0.1251    2.0895    0.9650 H   0  0  0  0  0  0  0  0  0  0  0  0
    0.6095    3.3470   -1.1117 H   0  0  0  0  0  0  0  0  0  0  0  0
    0.6640    3.3505   -3.5712 H   0  0  0  0  0  0  0  0  0  0  0  0
    0.7173    1.2125   -4.8169 H   0  0  0  0  0  0  0  0  0  0  0  0
    0.7111   -0.9261   -3.5712 H   0  0  0  0  0  0  0  0  0  0  0  0
    0.6566   -0.9239   -1.1117 H   0  0  0  0  0  0  0  0  0  0  0  0
  1  2  1  0
  1  6  1  0
  1  7  1  0
  1  8  1  0
  2  3  1  0
  2  5  1  0
  3  4  2  3
  3  9  1  0
  4 10  1  0
  4 11  1  0
  5 12  1  0
 13 14  1  0
 13 20  1  0
 13 21  1  0
 13 22  1  0
 14 15  2  0
 14 19  1  0
 15 16  1  0
 15 23  1  0
 16 17  2  0
 16 24  1  0
 17 18  1  0
 17 25  1  0
 18 19  2  0
 18 26  1  0
 19 27  1  0
M  RAD  1   2   2
M  END
>  <reaction>  (13) 
rxn_1464

>  <mol_properties>  (13) 
{"1": {"label": "*1", "atom_type": "Cs"}, "4": {"label": "*0", "atom_type": "S2s"}, "12": {"label": "*3", "atom_type": "Cd"}, "13": {"label": "*4", "atom_type": "Cd"}, "19": {"label": "*2", "atom_type": "H0"}}

>  <type>  (13) 
unop_9

>  <geom_source>  (13) 
Heuristics

$$$$

     RDKit          3D

 27 26  0  0  0  0  0  0  0  0999 V2000
    0.1786   -2.2406    0.9861 C   0  0  0  0  0  0  0  0  0  0  0  0
   -0.5609   -1.0064    1.4753 C   0  0  0  0  0  3  0  0  0  0  0  0
   -2.0138   -1.2087    1.7882 C   0  0  0  0  0  0  0  0  0  0  0  0
   -2.6606   -2.3643    1.7688 C   0  0  0  0  0  0  0  0  0  0  0  0
    0.2732   -0.2226    2.9085 S   0  0  0  0  0  0  0  0  0  0  0  0
    0.1821   -3.0233    1.7470 H   0  0  0  0  0  0  0  0  0  0  0  0
   -0.2948   -2.6398    0.0862 H   0  0  0  0  0  0  0  0  0  0  0  0
    1.2135   -1.9939    0.7543 H   0  0  0  0  0  0  0  0  0  0  0  0
   -2.5465   -0.3051    2.0679 H   0  0  0  0  0  0  0  0  0  0  0  0
   -3.7119   -2.4147    2.0214 H   0  0  0  0  0  0  0  0  0  0  0  0
   -2.1776   -3.2965    1.5025 H   0  0  0  0  0  0  0  0  0  0  0  0
   -0.0096   -1.1939    3.7878 H   0  0  0  0  0  0  0  0  0  0  0  0
    0.6209    1.1307    0.5215 C   0  0  0  0  0  0  0  0  0  0  0  0
    0.6209    1.1307   -0.9822 C   0  0  0  0  0  0  0  0  0  0  0  0
    0.6209    2.3250   -1.6963 C   0  0  0  0  0  0  0  0  0  0  0  0
    0.6514    2.3284   -3.0823 C   0  0  0  0  0  0  0  0  0  0  0  0
    0.6809    1.1314   -3.7813 C   0  0  0  0  0  0  0  0  0  0  0  0
    0.6778   -0.0660   -3.0823 C   0  0  0  0  0  0  0  0  0  0  0  0
    0.6473   -0.0633   -1.6963 C   0  0  0  0  0  0  0  0  0  0  0  0
    0.0310    0.0640    0.9976 H   0  0  0  0  0  0  0  0  0  0  0  0
    1.6431    1.1420    0.9083 H   0  0  0  0  0  0  0  0  0  0  0  0
    0.1099    2.0086    0.9182 H   0  0  0  0  0  0  0  0  0  0  0  0
    0.5943    3.2661   -1.1585 H   0  0  0  0  0  0  0  0  0  0  0  0
    0.6487    3.2696   -3.6180 H   0  0  0  0  0  0  0  0  0  0  0  0
    0.7021    1.1316   -4.8637 H   0  0  0  0  0  0  0  0  0  0  0  0
    0.6959   -1.0070   -3.6180 H   0  0  0  0  0  0  0  0  0  0  0  0
    0.6414   -1.0048   -1.1585 H   0  0  0  0  0  0  0  0  0  0  0  0
  1  2  1  0
  1  6  1  0
  1  7  1  0
  1  8  1  0
  2  3  1  0
  2  5  1  0
  3  4  2  3
  3  9  1  0
  4 10  1  0
  4 11  1  0
  5 12  1  0
 13 14  1  0
 13 20  1  0
 13 21  1  0
 13 22  1  0
 14 15  2  0
 14 19  1  0
 15 16  1  0
 15 23  1  0
 16 17  2  0
 16 24  1  0
 17 18  1  0
 17 25  1  0
 18 19  2  0
 18 26  1  0
 19 27  1  0
M  RAD  1   2   2
M  END
>  <reaction>  (14) 
rxn_1464

>  <mol_properties>  (14) 
{"1": {"label": "*1", "atom_type": "Cs"}, "4": {"label": "*0", "atom_type": "S2s"}, "12": {"label": "*3", "atom_type": "Cd"}, "13": {"label": "*4", "atom_type": "Cd"}, "19": {"label": "*2", "atom_type": "H0"}}

>  <type>  (14) 
unop_10

>  <geom_source>  (14) 
Heuristics

$$$$

     RDKit          3D

 27 26  0  0  0  0  0  0  0  0999 V2000
   -1.2646   -0.4655    3.0554 C   0  0  0  0  0  0  0  0  0  0  0  0
   -0.6319   -0.8059    1.7163 C   0  0  0  0  0  3  0  0  0  0  0  0
    0.7480   -1.3898    1.7866 C   0  0  0  0  0  0  0  0  0  0  0  0
    1.4000   -1.7156    2.8925 C   0  0  0  0  0  0  0  0  0  0  0  0
   -1.7065   -1.8892    0.6986 S   0  0  0  0  0  0  0  0  0  0  0  0
   -1.3906   -1.3597    3.6686 H   0  0  0  0  0  0  0  0  0  0  0  0
   -0.6403    0.2421    3.6057 H   0  0  0  0  0  0  0  0  0  0  0  0
   -2.2469   -0.0200    2.9067 H   0  0  0  0  0  0  0  0  0  0  0  0
    1.2161   -1.5619    0.8224 H   0  0  0  0  0  0  0  0  0  0  0  0
    2.3929   -2.1436    2.8442 H   0  0  0  0  0  0  0  0  0  0  0  0
    0.9788   -1.5705    3.8798 H   0  0  0  0  0  0  0  0  0  0  0  0
   -1.5687   -2.9838    1.4598 H   0  0  0  0  0  0  0  0  0  0  0  0
    0.5499    1.3312    0.7625 C   0  0  0  0  0  0  0  0  0  0  0  0
    0.5499    1.3312   -0.7412 C   0  0  0  0  0  0  0  0  0  0  0  0
    0.5499    2.5255   -1.4553 C   0  0  0  0  0  0  0  0  0  0  0  0
    0.5804    2.5288   -2.8412 C   0  0  0  0  0  0  0  0  0  0  0  0
    0.6099    1.3318   -3.5403 C   0  0  0  0  0  0  0  0  0  0  0  0
    0.6068    0.1344   -2.8412 C   0  0  0  0  0  0  0  0  0  0  0  0
    0.5762    0.1371   -1.4553 C   0  0  0  0  0  0  0  0  0  0  0  0
   -0.0400    0.2644    1.2386 H   0  0  0  0  0  0  0  0  0  0  0  0
    1.5721    1.3424    1.1493 H   0  0  0  0  0  0  0  0  0  0  0  0
    0.0389    2.2090    1.1593 H   0  0  0  0  0  0  0  0  0  0  0  0
    0.5233    3.4666   -0.9174 H   0  0  0  0  0  0  0  0  0  0  0  0
    0.5777    3.4700   -3.3770 H   0  0  0  0  0  0  0  0  0  0  0  0
    0.6311    1.3320   -4.6226 H   0  0  0  0  0  0  0  0  0  0  0  0
    0.6249   -0.8066   -3.3770 H   0  0  0  0  0  0  0  0  0  0  0  0
    0.5704   -0.8043   -0.9174 H   0  0  0  0  0  0  0  0  0  0  0  0
  1  2  1  0
  1  6  1  0
  1  7  1  0
  1  8  1  0
  2  3  1  0
  2  5  1  0
  3  4  2  3
  3  9  1  0
  4 10  1  0
  4 11  1  0
  5 12  1  0
 13 14  1  0
 13 20  1  0
 13 21  1  0
 13 22  1  0
 14 15  2  0
 14 19  1  0
 15 16  1  0
 15 23  1  0
 16 17  2  0
 16 24  1  0
 17 18  1  0
 17 25  1  0
 18 19  2  0
 18 26  1  0
 19 27  1  0
M  RAD  1   2   2
M  END
>  <reaction>  (15) 
rxn_1464

>  <mol_properties>  (15) 
{"1": {"label": "*1", "atom_type": "Cs"}, "4": {"label": "*0", "atom_type": "S2s"}, "12": {"label": "*3", "atom_type": "Cd"}, "13": {"label": "*4", "atom_type": "Cd"}, "19": {"label": "*2", "atom_type": "H0"}}

>  <type>  (15) 
unop_11

>  <geom_source>  (15) 
Heuristics

$$$$

     RDKit          3D

 27 26  0  0  0  0  0  0  0  0999 V2000
   -1.0344   -1.7725    0.3709 C   0  0  0  0  0  0  0  0  0  0  0  0
   -0.5584   -0.9117    1.5293 C   0  0  0  0  0  3  0  0  0  0  0  0
   -1.6291   -0.4605    2.4780 C   0  0  0  0  0  0  0  0  0  0  0  0
   -2.9023   -0.8239    2.4446 C   0  0  0  0  0  0  0  0  0  0  0  0
    0.8008   -1.7069    2.4696 S   0  0  0  0  0  0  0  0  0  0  0  0
   -1.4748   -2.7046    0.7296 H   0  0  0  0  0  0  0  0  0  0  0  0
   -1.7869   -1.2422   -0.2171 H   0  0  0  0  0  0  0  0  0  0  0  0
   -0.1990   -2.0253   -0.2801 H   0  0  0  0  0  0  0  0  0  0  0  0
   -1.2875    0.2113    3.2593 H   0  0  0  0  0  0  0  0  0  0  0  0
   -3.6032   -0.4536    3.1815 H   0  0  0  0  0  0  0  0  0  0  0  0
   -3.2957   -1.4952    1.6911 H   0  0  0  0  0  0  0  0  0  0  0  0
    0.0510   -2.6752    3.0143 H   0  0  0  0  0  0  0  0  0  0  0  0
    0.6234    1.2254    0.5755 C   0  0  0  0  0  0  0  0  0  0  0  0
    0.6234    1.2254   -0.9282 C   0  0  0  0  0  0  0  0  0  0  0  0
    0.6234    2.4197   -1.6423 C   0  0  0  0  0  0  0  0  0  0  0  0
    0.6538    2.4231   -3.0283 C   0  0  0  0  0  0  0  0  0  0  0  0
    0.6834    1.2261   -3.7273 C   0  0  0  0  0  0  0  0  0  0  0  0
    0.6802    0.0287   -3.0283 C   0  0  0  0  0  0  0  0  0  0  0  0
    0.6497    0.0314   -1.6423 C   0  0  0  0  0  0  0  0  0  0  0  0
    0.0335    0.1587    1.0516 H   0  0  0  0  0  0  0  0  0  0  0  0
    1.6456    1.2367    0.9623 H   0  0  0  0  0  0  0  0  0  0  0  0
    0.1124    2.1033    0.9722 H   0  0  0  0  0  0  0  0  0  0  0  0
    0.5968    3.3608   -1.1044 H   0  0  0  0  0  0  0  0  0  0  0  0
    0.6512    3.3643   -3.5640 H   0  0  0  0  0  0  0  0  0  0  0  0
    0.7045    1.2263   -4.8096 H   0  0  0  0  0  0  0  0  0  0  0  0
    0.6983   -0.9123   -3.5640 H   0  0  0  0  0  0  0  0  0  0  0  0
    0.6439   -0.9101   -1.1044 H   0  0  0  0  0  0  0  0  0  0  0  0
  1  2  1  0
  1  6  1  0
  1  7  1  0
  1  8  1  0
  2  3  1  0
  2  5  1  0
  3  4  2  3
  3  9  1  0
  4 10  1  0
  4 11  1  0
  5 12  1  0
 13 14  1  0
 13 20  1  0
 13 21  1  0
 13 22  1  0
 14 15  2  0
 14 19  1  0
 15 16  1  0
 15 23  1  0
 16 17  2  0
 16 24  1  0
 17 18  1  0
 17 25  1  0
 18 19  2  0
 18 26  1  0
 19 27  1  0
M  RAD  1   2   2
M  END
>  <reaction>  (16) 
rxn_1464

>  <mol_properties>  (16) 
{"1": {"label": "*1", "atom_type": "Cs"}, "4": {"label": "*0", "atom_type": "S2s"}, "12": {"label": "*3", "atom_type": "Cd"}, "13": {"label": "*4", "atom_type": "Cd"}, "19": {"label": "*2", "atom_type": "H0"}}

>  <type>  (16) 
unop_12

>  <geom_source>  (16) 
Heuristics

$$$$

     RDKit          3D

 27 26  0  0  0  0  0  0  0  0999 V2000
   -2.7935   -1.7434    0.9557 S   0  0  0  0  0  0  0  0  0  0  0  0
   -1.9959   -0.2304    0.3203 C   0  0  0  0  0  3  0  0  0  0  0  0
   -1.7552    0.7684    1.4524 C   0  0  0  0  0  0  0  0  0  0  0  0
    1.5231   -0.6183   -0.2963 C   0  0  0  0  0  0  0  0  0  0  0  0
   -2.8188    0.3750   -0.7881 C   0  0  0  0  0  0  0  0  0  0  0  0
    2.6538   -1.1536   -0.9313 C   0  0  0  0  0  0  0  0  0  0  0  0
    1.5873    0.6587    0.2773 C   0  0  0  0  0  0  0  0  0  0  0  0
    3.8397   -0.4143   -0.9908 C   0  0  0  0  0  0  0  0  0  0  0  0
    3.9002    0.8596   -0.4174 C   0  0  0  0  0  0  0  0  0  0  0  0
    2.7747    1.3957    0.2161 C   0  0  0  0  0  0  0  0  0  0  0  0
    0.2527   -1.3997   -0.2276 C   0  0  0  0  0  0  0  0  0  0  0  0
   -4.0787    0.7896   -0.6113 C   0  0  0  0  0  0  0  0  0  0  0  0
   -0.7851   -0.5810   -0.1976 H   0  0  0  0  0  0  0  0  0  0  0  0
   -2.7082    1.0355    1.9562 H   0  0  0  0  0  0  0  0  0  0  0  0
   -1.2843    1.6909    1.0514 H   0  0  0  0  0  0  0  0  0  0  0  0
   -1.0675    0.3255    2.2031 H   0  0  0  0  0  0  0  0  0  0  0  0
   -2.3674    0.4742   -1.7704 H   0  0  0  0  0  0  0  0  0  0  0  0
    2.6157   -2.1396   -1.3781 H   0  0  0  0  0  0  0  0  0  0  0  0
    4.7113   -0.8285   -1.4810 H   0  0  0  0  0  0  0  0  0  0  0  0
    0.7206    1.0820    0.7701 H   0  0  0  0  0  0  0  0  0  0  0  0
    4.8183    1.4309   -0.4640 H   0  0  0  0  0  0  0  0  0  0  0  0
    2.8225    2.3819    0.6597 H   0  0  0  0  0  0  0  0  0  0  0  0
   -4.5691    0.7024    0.3531 H   0  0  0  0  0  0  0  0  0  0  0  0
   -4.6297    1.2183   -1.4420 H   0  0  0  0  0  0  0  0  0  0  0  0
    0.4167   -2.3493    0.3239 H   0  0  0  0  0  0  0  0  0  0  0  0
   -0.1202   -1.6150   -1.2510 H   0  0  0  0  0  0  0  0  0  0  0  0
   -1.6631   -2.1155    1.7080 H   0  0  0  0  0  0  0  0  0  0  0  0
  1  2  1  0
  1 27  1  0
  2  3  1  0
  2  5  1  0
  3 14  1  0
  3 15  1  0
  3 16  1  0
  4 11  1  0
  4  6  2  0
  4  7  1  0
  5 12  2  3
  5 17  1  0
  6  8  1  0
  6 18  1  0
  7 10  2  0
  7 20  1  0
  8  9  2  0
  8 19  1  0
  9 10  1  0
  9 21  1  0
 10 22  1  0
 11 13  1  0
 11 25  1  0
 11 26  1  0
 12 23  1  0
 12 24  1  0
M  RAD  1   2   2
M  END
>  <reaction>  (17) 
rxn_1464

>  <mol_properties>  (17) 
{"1": {"label": "*1", "atom_type": "Cs"}, "4": {"label": "*0", "atom_type": "S2s"}, "12": {"label": "*3", "atom_type": "Cd"}, "13": {"label": "*4", "atom_type": "Cd"}, "19": {"label": "*2", "atom_type": "H0"}}

>  <type>  (17) 
unop_13

>  <geom_source>  (17) 
AutoTST

$$$$

     RDKit          3D

 27 26  0  0  0  0  0  0  0  0999 V2000
   -0.3969   -2.0863    0.5246 C   0  0  0  0  0  0  0  0  0  0  0  0
   -0.5835   -0.9391    1.5036 C   0  0  0  0  0  3  0  0  0  0  0  0
   -1.9404   -0.8476    2.1364 C   0  0  0  0  0  0  0  0  0  0  0  0
   -2.9274   -1.7187    1.9909 C   0  0  0  0  0  0  0  0  0  0  0  0
    0.7054   -0.9264    2.8085 S   0  0  0  0  0  0  0  0  0  0  0  0
   -0.5184   -3.0504    1.0218 H   0  0  0  0  0  0  0  0  0  0  0  0
   -1.1286   -2.0233   -0.2841 H   0  0  0  0  0  0  0  0  0  0  0  0
    0.6021   -2.0556    0.0926 H   0  0  0  0  0  0  0  0  0  0  0  0
   -2.0829    0.0163    2.7782 H   0  0  0  0  0  0  0  0  0  0  0  0
   -3.8726   -1.5742    2.4982 H   0  0  0  0  0  0  0  0  0  0  0  0
   -2.8380   -2.5999    1.3675 H   0  0  0  0  0  0  0  0  0  0  0  0
    0.2770   -2.0260    3.4439 H   0  0  0  0  0  0  0  0  0  0  0  0
    0.5983    1.1980    0.5498 C   0  0  0  0  0  0  0  0  0  0  0  0
    0.5983    1.1980   -0.9539 C   0  0  0  0  0  0  0  0  0  0  0  0
    0.5983    2.3923   -1.6679 C   0  0  0  0  0  0  0  0  0  0  0  0
    0.6287    2.3957   -3.0539 C   0  0  0  0  0  0  0  0  0  0  0  0
    0.6583    1.1986   -3.7529 C   0  0  0  0  0  0  0  0  0  0  0  0
    0.6552    0.0013   -3.0539 C   0  0  0  0  0  0  0  0  0  0  0  0
    0.6246    0.0040   -1.6679 C   0  0  0  0  0  0  0  0  0  0  0  0
    0.0084    0.1313    1.0259 H   0  0  0  0  0  0  0  0  0  0  0  0
    1.6205    1.2092    0.9366 H   0  0  0  0  0  0  0  0  0  0  0  0
    0.0873    2.0759    0.9466 H   0  0  0  0  0  0  0  0  0  0  0  0
    0.5717    3.3334   -1.1301 H   0  0  0  0  0  0  0  0  0  0  0  0
    0.6261    3.3369   -3.5896 H   0  0  0  0  0  0  0  0  0  0  0  0
    0.6794    1.1989   -4.8353 H   0  0  0  0  0  0  0  0  0  0  0  0
    0.6733   -0.9398   -3.5896 H   0  0  0  0  0  0  0  0  0  0  0  0
    0.6188   -0.9375   -1.1301 H   0  0  0  0  0  0  0  0  0  0  0  0
  1  2  1  0
  1  6  1  0
  1  7  1  0
  1  8  1  0
  2  3  1  0
  2  5  1  0
  3  4  2  3
  3  9  1  0
  4 10  1  0
  4 11  1  0
  5 12  1  0
 13 14  1  0
 13 20  1  0
 13 21  1  0
 13 22  1  0
 14 15  2  0
 14 19  1  0
 15 16  1  0
 15 23  1  0
 16 17  2  0
 16 24  1  0
 17 18  1  0
 17 25  1  0
 18 19  2  0
 18 26  1  0
 19 27  1  0
M  RAD  1   2   2
M  END
>  <reaction>  (18) 
rxn_1464

>  <mol_properties>  (18) 
{"1": {"label": "*1", "atom_type": "Cs"}, "4": {"label": "*0", "atom_type": "S2s"}, "12": {"label": "*3", "atom_type": "Cd"}, "13": {"label": "*4", "atom_type": "Cd"}, "19": {"label": "*2", "atom_type": "H0"}}

>  <type>  (18) 
unop_14

>  <geom_source>  (18) 
gaussian_log

$$$$
