
     RDKit          3D

  9  8  0  0  0  0  0  0  0  0999 V2000
   -2.1022   -0.6873    0.3932 C   0  0  0  0  0  0  0  0  0  0  0  0
   -1.2072   -0.1086   -0.1482 C   0  0  0  0  0  0  0  0  0  0  0  0
   -0.1242    0.6105   -0.8193 C   0  0  0  0  0  0  0  0  0  0  0  0
    1.2067    0.1106   -0.4741 C   0  0  0  0  0  0  0  0  0  0  0  0
    2.3005   -0.2875   -0.2012 C   0  0  0  0  0  0  0  0  0  0  0  0
   -2.8942   -1.2059    0.8778 H   0  0  0  0  0  0  0  0  0  0  0  0
   -0.1862    1.6723   -0.5649 H   0  0  0  0  0  0  0  0  0  0  0  0
   -0.2641    0.5418   -1.9017 H   0  0  0  0  0  0  0  0  0  0  0  0
    3.2709   -0.6459    0.0455 H   0  0  0  0  0  0  0  0  0  0  0  0
  1  2  3  0
  1  6  1  0
  2  3  1  0
  3  4  1  0
  3  7  1  0
  3  8  1  0
  4  5  3  0
  5  9  1  0
M  END
>  <reaction>  (1) 
rxn_1363

>  <mol_properties>  (1) 
{"2": {"label": "donator", "atom_type": "Cs"}, "6": {"label": "d_hydrogen", "atom_type": "H0"}}

>  <type>  (1) 
r1h

$$$$

     RDKit          3D

  8  7  0  0  0  0  0  0  0  0999 V2000
    1.4097   -0.3618   -0.1144 C   0  0  0  0  0  0  0  0  0  0  0  0
    0.1804   -0.1811   -0.5085 C   0  0  0  0  0  3  0  0  0  0  0  0
   -1.1132    0.2655    0.0162 C   0  0  0  0  0  0  0  0  0  0  0  0
    2.1849   -0.7256   -0.7809 H   0  0  0  0  0  0  0  0  0  0  0  0
    1.7118   -0.1519    0.9143 H   0  0  0  0  0  0  0  0  0  0  0  0
   -1.8662   -0.5198   -0.0756 H   0  0  0  0  0  0  0  0  0  0  0  0
   -1.0300    0.5356    1.0772 H   0  0  0  0  0  0  0  0  0  0  0  0
   -1.4772    1.1391   -0.5284 H   0  0  0  0  0  0  0  0  0  0  0  0
  1  2  2  3
  1  4  1  0
  1  5  1  0
  2  3  1  0
  3  6  1  0
  3  7  1  0
  3  8  1  0
M  RAD  1   2   2
M  END
>  <reaction>  (2) 
rxn_1363

>  <mol_properties>  (2) 
{"1": {"label": "acceptor", "atom_type": "Cd"}}

>  <type>  (2) 
r2

$$$$

     RDKit          3D

  9  8  0  0  0  0  0  0  0  0999 V2000
    1.1303   -0.2933   -0.7510 C   0  0  0  0  0  0  0  0  0  0  0  0
    0.2866    0.4560   -0.0588 C   0  0  0  0  0  0  0  0  0  0  0  0
   -0.9719   -0.0331    0.5823 C   0  0  0  0  0  0  0  0  0  0  0  0
    2.0274    0.1230   -1.1916 H   0  0  0  0  0  0  0  0  0  0  0  0
    0.9532   -1.3530   -0.9023 H   0  0  0  0  0  0  0  0  0  0  0  0
    0.5065    1.5132    0.0659 H   0  0  0  0  0  0  0  0  0  0  0  0
   -0.9526    0.1426    1.6610 H   0  0  0  0  0  0  0  0  0  0  0  0
   -1.1182   -1.1002    0.4106 H   0  0  0  0  0  0  0  0  0  0  0  0
   -1.8412    0.5010    0.1901 H   0  0  0  0  0  0  0  0  0  0  0  0
  1  2  2  3
  1  4  1  0
  1  5  1  0
  2  3  1  0
  2  6  1  0
  3  7  1  0
  3  8  1  0
  3  9  1  0
M  END
>  <reaction>  (3) 
rxn_1363

>  <mol_properties>  (3) 
{"0": {"label": "a_hydrogen", "atom_type": "H0"}, "2": {"label": "acceptor", "atom_type": "Cd"}}

>  <type>  (3) 
r2h

$$$$

     RDKit          3D

 17 15  0  0  0  0  0  0  0  0999 V2000
   -0.3268   -0.6612   -2.8005 C   0  0  0  0  0  0  0  0  0  0  0  0
   -0.3552   -0.8200   -1.6128 C   0  0  0  0  0  0  0  0  0  0  0  0
   -0.3355   -0.9810   -0.1793 C   0  0  0  0  0  0  0  0  0  0  0  0
   -1.5765   -0.7156    0.5086 C   0  0  0  0  0  0  0  0  0  0  0  0
   -2.5765   -0.4637    1.1192 C   0  0  0  0  0  0  0  0  0  0  0  0
   -0.3180   -0.5286   -3.8555 H   0  0  0  0  0  0  0  0  0  0  0  0
    0.4852   -0.1557    0.2559 H   0  0  0  0  0  0  0  0  0  0  0  0
    0.0971   -1.9381    0.1160 H   0  0  0  0  0  0  0  0  0  0  0  0
   -3.4754   -0.2516    1.6460 H   0  0  0  0  0  0  0  0  0  0  0  0
    2.1627    1.3682   -0.2285 C   0  0  0  0  0  0  0  0  0  0  0  0
    1.4379    0.8694    0.7407 C   0  0  0  0  0  3  0  0  0  0  0  0
    1.3050    1.1086    2.1899 C   0  0  0  0  0  0  0  0  0  0  0  0
    2.0582    1.0219   -1.2514 H   0  0  0  0  0  0  0  0  0  0  0  0
    2.8929    2.1553   -0.0428 H   0  0  0  0  0  0  0  0  0  0  0  0
    1.5503    0.2095    2.7593 H   0  0  0  0  0  0  0  0  0  0  0  0
    1.9722    1.9146    2.5127 H   0  0  0  0  0  0  0  0  0  0  0  0
    0.2790    1.3850    2.4415 H   0  0  0  0  0  0  0  0  0  0  0  0
  1  2  3  0
  1  6  1  0
  2  3  1  0
  3  4  1  0
  3  7  1  0
  3  8  1  0
  4  5  3  0
  5  9  1  0
 10 11  2  3
 10 13  1  0
 10 14  1  0
 11 12  1  0
 12 15  1  0
 12 16  1  0
 12 17  1  0
M  RAD  1  11   2
M  END
>  <reaction>  (4) 
rxn_1363

>  <mol_properties>  (4) 
{"1": {"label": "*0", "atom_type": "Ct"}, "2": {"label": "*1", "atom_type": "Cs"}, "6": {"label": "*2", "atom_type": "H0"}, "9": {"label": "*4", "atom_type": "Cd"}, "10": {"label": "*3", "atom_type": "Cd"}}

>  <type>  (4) 
ts

$$$$

     RDKit          3D

 17 15  0  0  0  0  0  0  0  0999 V2000
   -0.3500   -0.8128   -2.8417 C   0  0  0  0  0  0  0  0  0  0  0  0
   -0.3500   -0.8128   -1.6462 C   0  0  0  0  0  0  0  0  0  0  0  0
   -0.3500   -0.8128   -0.1832 C   0  0  0  0  0  3  0  0  0  0  0  0
   -1.6640   -0.5372    0.3980 C   0  0  0  0  0  0  0  0  0  0  0  0
   -2.7378   -0.3120    0.8729 C   0  0  0  0  0  0  0  0  0  0  0  0
   -0.3500   -0.8128   -3.9051 H   0  0  0  0  0  0  0  0  0  0  0  0
    0.5081    0.0816    0.2479 H   0  0  0  0  0  0  0  0  0  0  0  0
    0.0053   -1.7826    0.1760 H   0  0  0  0  0  0  0  0  0  0  0  0
   -3.6930   -0.1116    1.2954 H   0  0  0  0  0  0  0  0  0  0  0  0
    0.9211    1.9632    1.4336 C   0  0  0  0  0  0  0  0  0  0  0  0
    1.3611    0.9706    0.6763 C   0  0  0  0  0  0  0  0  0  0  0  0
    2.6048    0.1811    0.9295 C   0  0  0  0  0  0  0  0  0  0  0  0
    0.0098    2.4969    1.1948 H   0  0  0  0  0  0  0  0  0  0  0  0
    1.4583    2.2784    2.3220 H   0  0  0  0  0  0  0  0  0  0  0  0
    3.2953    0.2622    0.0862 H   0  0  0  0  0  0  0  0  0  0  0  0
    3.1185    0.5240    1.8285 H   0  0  0  0  0  0  0  0  0  0  0  0
    2.3739   -0.8806    1.0487 H   0  0  0  0  0  0  0  0  0  0  0  0
  1  2  3  0
  1  6  1  0
  2  3  1  0
  3  4  1  0
  3  8  1  0
  4  5  3  0
  5  9  1  0
  7 11  1  0
 10 11  2  3
 10 13  1  0
 10 14  1  0
 11 12  1  0
 12 15  1  0
 12 16  1  0
 12 17  1  0
M  RAD  1   3   2
M  END
>  <reaction>  (5) 
rxn_1363

>  <mol_properties>  (5) 
{"1": {"label": "*0", "atom_type": "Ct"}, "2": {"label": "*1", "atom_type": "Cs"}, "6": {"label": "*2", "atom_type": "H0"}, "9": {"label": "*4", "atom_type": "Cd"}, "10": {"label": "*3", "atom_type": "Cd"}}

>  <type>  (5) 
unop_1

>  <geom_source>  (5) 
Heuristics

$$$$

     RDKit          3D

 17 15  0  0  0  0  0  0  0  0999 V2000
   -0.3077   -0.9231   -2.8102 C   0  0  0  0  0  0  0  0  0  0  0  0
   -0.3077   -0.9231   -1.6147 C   0  0  0  0  0  0  0  0  0  0  0  0
   -0.3077   -0.9231   -0.1517 C   0  0  0  0  0  3  0  0  0  0  0  0
   -1.6217   -0.6475    0.4295 C   0  0  0  0  0  0  0  0  0  0  0  0
   -2.6955   -0.4223    0.9044 C   0  0  0  0  0  0  0  0  0  0  0  0
   -0.3077   -0.9231   -3.8737 H   0  0  0  0  0  0  0  0  0  0  0  0
    0.5504   -0.0287    0.2794 H   0  0  0  0  0  0  0  0  0  0  0  0
    0.0476   -1.8930    0.2075 H   0  0  0  0  0  0  0  0  0  0  0  0
   -3.6507   -0.2220    1.3268 H   0  0  0  0  0  0  0  0  0  0  0  0
    1.6302    1.9345   -0.0317 C   0  0  0  0  0  0  0  0  0  0  0  0
    1.4034    0.8603    0.7078 C   0  0  0  0  0  0  0  0  0  0  0  0
    1.7393    0.7275    2.1582 C   0  0  0  0  0  0  0  0  0  0  0  0
    1.3623    1.9673   -1.0803 H   0  0  0  0  0  0  0  0  0  0  0  0
    2.0932    2.8221    0.3864 H   0  0  0  0  0  0  0  0  0  0  0  0
    2.4265   -0.1063    2.3235 H   0  0  0  0  0  0  0  0  0  0  0  0
    2.2023    1.6362    2.5450 H   0  0  0  0  0  0  0  0  0  0  0  0
    0.8425    0.5202    2.7477 H   0  0  0  0  0  0  0  0  0  0  0  0
  1  2  3  0
  1  6  1  0
  2  3  1  0
  3  4  1  0
  3  8  1  0
  4  5  3  0
  5  9  1  0
  7 11  1  0
 10 11  2  3
 10 13  1  0
 10 14  1  0
 11 12  1  0
 12 15  1  0
 12 16  1  0
 12 17  1  0
M  RAD  1   3   2
M  END
>  <reaction>  (6) 
rxn_1363

>  <mol_properties>  (6) 
{"1": {"label": "*0", "atom_type": "Ct"}, "2": {"label": "*1", "atom_type": "Cs"}, "6": {"label": "*2", "atom_type": "H0"}, "9": {"label": "*4", "atom_type": "Cd"}, "10": {"label": "*3", "atom_type": "Cd"}}

>  <type>  (6) 
unop_2

>  <geom_source>  (6) 
Heuristics

$$$$

     RDKit          3D

 17 15  0  0  0  0  0  0  0  0999 V2000
   -0.3958   -0.8226   -2.7802 C   0  0  0  0  0  0  0  0  0  0  0  0
   -0.3958   -0.8226   -1.5847 C   0  0  0  0  0  0  0  0  0  0  0  0
   -0.3958   -0.8226   -0.1217 C   0  0  0  0  0  3  0  0  0  0  0  0
   -1.7099   -0.5470    0.4595 C   0  0  0  0  0  0  0  0  0  0  0  0
   -2.7836   -0.3218    0.9344 C   0  0  0  0  0  0  0  0  0  0  0  0
   -0.3958   -0.8226   -3.8437 H   0  0  0  0  0  0  0  0  0  0  0  0
    0.4623    0.0718    0.3094 H   0  0  0  0  0  0  0  0  0  0  0  0
   -0.0405   -1.7924    0.2375 H   0  0  0  0  0  0  0  0  0  0  0  0
   -3.7388   -0.1214    1.3568 H   0  0  0  0  0  0  0  0  0  0  0  0
    1.0851    1.5588    1.8962 C   0  0  0  0  0  0  0  0  0  0  0  0
    1.3152    0.9608    0.7378 C   0  0  0  0  0  0  0  0  0  0  0  0
    2.6664    0.6073    0.2054 C   0  0  0  0  0  0  0  0  0  0  0  0
    0.0795    1.7881    2.2253 H   0  0  0  0  0  0  0  0  0  0  0  0
    1.8967    1.8411    2.5585 H   0  0  0  0  0  0  0  0  0  0  0  0
    2.8459    1.0962   -0.7556 H   0  0  0  0  0  0  0  0  0  0  0  0
    3.4571    0.9048    0.8952 H   0  0  0  0  0  0  0  0  0  0  0  0
    2.7470   -0.4691    0.0328 H   0  0  0  0  0  0  0  0  0  0  0  0
  1  2  3  0
  1  6  1  0
  2  3  1  0
  3  4  1  0
  3  8  1  0
  4  5  3  0
  5  9  1  0
  7 11  1  0
 10 11  2  3
 10 13  1  0
 10 14  1  0
 11 12  1  0
 12 15  1  0
 12 16  1  0
 12 17  1  0
M  RAD  1   3   2
M  END
>  <reaction>  (7) 
rxn_1363

>  <mol_properties>  (7) 
{"1": {"label": "*0", "atom_type": "Ct"}, "2": {"label": "*1", "atom_type": "Cs"}, "6": {"label": "*2", "atom_type": "H0"}, "9": {"label": "*4", "atom_type": "Cd"}, "10": {"label": "*3", "atom_type": "Cd"}}

>  <type>  (7) 
unop_3

>  <geom_source>  (7) 
Heuristics

$$$$

     RDKit          3D

 17 15  0  0  0  0  0  0  0  0999 V2000
   -0.3305   -0.8613   -2.8419 C   0  0  0  0  0  0  0  0  0  0  0  0
   -0.3305   -0.8613   -1.6464 C   0  0  0  0  0  0  0  0  0  0  0  0
   -0.3305   -0.8613   -0.1834 C   0  0  0  0  0  3  0  0  0  0  0  0
   -1.6445   -0.5857    0.3978 C   0  0  0  0  0  0  0  0  0  0  0  0
   -2.7183   -0.3605    0.8727 C   0  0  0  0  0  0  0  0  0  0  0  0
   -0.3305   -0.8613   -3.9053 H   0  0  0  0  0  0  0  0  0  0  0  0
    0.5277    0.0331    0.2477 H   0  0  0  0  0  0  0  0  0  0  0  0
    0.0249   -1.8311    0.1758 H   0  0  0  0  0  0  0  0  0  0  0  0
   -3.6734   -0.1601    1.2952 H   0  0  0  0  0  0  0  0  0  0  0  0
    2.6544    0.7986    0.3376 C   0  0  0  0  0  0  0  0  0  0  0  0
    1.3806    0.9221    0.6761 C   0  0  0  0  0  0  0  0  0  0  0  0
    0.8840    1.5038    1.9603 C   0  0  0  0  0  0  0  0  0  0  0  0
    2.9493    0.3671   -0.6107 H   0  0  0  0  0  0  0  0  0  0  0  0
    3.4500    1.1254    0.9989 H   0  0  0  0  0  0  0  0  0  0  0  0
    0.2828    0.7754    2.5104 H   0  0  0  0  0  0  0  0  0  0  0  0
    1.7088    1.8213    2.5995 H   0  0  0  0  0  0  0  0  0  0  0  0
    0.2413    2.3679    1.7730 H   0  0  0  0  0  0  0  0  0  0  0  0
  1  2  3  0
  1  6  1  0
  2  3  1  0
  3  4  1  0
  3  8  1  0
  4  5  3  0
  5  9  1  0
  7 11  1  0
 10 11  2  3
 10 13  1  0
 10 14  1  0
 11 12  1  0
 12 15  1  0
 12 16  1  0
 12 17  1  0
M  RAD  1   3   2
M  END
>  <reaction>  (8) 
rxn_1363

>  <mol_properties>  (8) 
{"1": {"label": "*0", "atom_type": "Ct"}, "2": {"label": "*1", "atom_type": "Cs"}, "6": {"label": "*2", "atom_type": "H0"}, "9": {"label": "*4", "atom_type": "Cd"}, "10": {"label": "*3", "atom_type": "Cd"}}

>  <type>  (8) 
unop_4

>  <geom_source>  (8) 
Heuristics

$$$$

     RDKit          3D

 17 15  0  0  0  0  0  0  0  0999 V2000
   -0.3573   -0.9290   -2.7227 C   0  0  0  0  0  0  0  0  0  0  0  0
   -0.3573   -0.9290   -1.5272 C   0  0  0  0  0  0  0  0  0  0  0  0
   -0.3573   -0.9290   -0.0642 C   0  0  0  0  0  3  0  0  0  0  0  0
   -1.6713   -0.6534    0.5170 C   0  0  0  0  0  0  0  0  0  0  0  0
   -2.7451   -0.4282    0.9919 C   0  0  0  0  0  0  0  0  0  0  0  0
   -0.3573   -0.9290   -3.7862 H   0  0  0  0  0  0  0  0  0  0  0  0
    0.5008   -0.0346    0.3668 H   0  0  0  0  0  0  0  0  0  0  0  0
   -0.0019   -1.8988    0.2950 H   0  0  0  0  0  0  0  0  0  0  0  0
   -3.7003   -0.2278    1.4143 H   0  0  0  0  0  0  0  0  0  0  0  0
    1.5069    1.0140    2.1004 C   0  0  0  0  0  0  0  0  0  0  0  0
    1.3538    0.8544    0.7953 C   0  0  0  0  0  0  0  0  0  0  0  0
    2.0885    1.6202   -0.2573 C   0  0  0  0  0  0  0  0  0  0  0  0
    0.9426    0.4258    2.8131 H   0  0  0  0  0  0  0  0  0  0  0  0
    2.2042    1.7407    2.5039 H   0  0  0  0  0  0  0  0  0  0  0  0
    1.3916    2.1616   -0.9022 H   0  0  0  0  0  0  0  0  0  0  0  0
    2.7795    2.3403    0.1828 H   0  0  0  0  0  0  0  0  0  0  0  0
    2.6583    0.9462   -0.9022 H   0  0  0  0  0  0  0  0  0  0  0  0
  1  2  3  0
  1  6  1  0
  2  3  1  0
  3  4  1  0
  3  8  1  0
  4  5  3  0
  5  9  1  0
  7 11  1  0
 10 11  2  3
 10 13  1  0
 10 14  1  0
 11 12  1  0
 12 15  1  0
 12 16  1  0
 12 17  1  0
M  RAD  1   3   2
M  END
>  <reaction>  (9) 
rxn_1363

>  <mol_properties>  (9) 
{"1": {"label": "*0", "atom_type": "Ct"}, "2": {"label": "*1", "atom_type": "Cs"}, "6": {"label": "*2", "atom_type": "H0"}, "9": {"label": "*4", "atom_type": "Cd"}, "10": {"label": "*3", "atom_type": "Cd"}}

>  <type>  (9) 
unop_5

>  <geom_source>  (9) 
Heuristics

$$$$

     RDKit          3D

 17 15  0  0  0  0  0  0  0  0999 V2000
   -0.2834   -0.8753   -2.8598 C   0  0  0  0  0  0  0  0  0  0  0  0
   -0.2834   -0.8753   -1.6643 C   0  0  0  0  0  0  0  0  0  0  0  0
   -0.2834   -0.8753   -0.2013 C   0  0  0  0  0  3  0  0  0  0  0  0
   -1.5975   -0.5997    0.3798 C   0  0  0  0  0  0  0  0  0  0  0  0
   -2.6712   -0.3745    0.8547 C   0  0  0  0  0  0  0  0  0  0  0  0
   -0.2834   -0.8753   -3.9233 H   0  0  0  0  0  0  0  0  0  0  0  0
    0.5747    0.0191    0.2297 H   0  0  0  0  0  0  0  0  0  0  0  0
    0.0719   -1.8451    0.1579 H   0  0  0  0  0  0  0  0  0  0  0  0
   -3.6264   -0.1741    1.2772 H   0  0  0  0  0  0  0  0  0  0  0  0
    2.6817    0.5395    0.8676 C   0  0  0  0  0  0  0  0  0  0  0  0
    1.4277    0.9081    0.6582 C   0  0  0  0  0  0  0  0  0  0  0  0
    0.6370    1.8132    1.5469 C   0  0  0  0  0  0  0  0  0  0  0  0
    3.1998   -0.1207    0.1834 H   0  0  0  0  0  0  0  0  0  0  0  0
    3.2364    0.8858    1.7332 H   0  0  0  0  0  0  0  0  0  0  0  0
   -0.2602    1.3095    1.9158 H   0  0  0  0  0  0  0  0  0  0  0  0
    1.2242    2.1417    2.4053 H   0  0  0  0  0  0  0  0  0  0  0  0
    0.3010    2.6983    1.0006 H   0  0  0  0  0  0  0  0  0  0  0  0
  1  2  3  0
  1  6  1  0
  2  3  1  0
  3  4  1  0
  3  8  1  0
  4  5  3  0
  5  9  1  0
  7 11  1  0
 10 11  2  3
 10 13  1  0
 10 14  1  0
 11 12  1  0
 12 15  1  0
 12 16  1  0
 12 17  1  0
M  RAD  1   3   2
M  END
>  <reaction>  (10) 
rxn_1363

>  <mol_properties>  (10) 
{"1": {"label": "*0", "atom_type": "Ct"}, "2": {"label": "*1", "atom_type": "Cs"}, "6": {"label": "*2", "atom_type": "H0"}, "9": {"label": "*4", "atom_type": "Cd"}, "10": {"label": "*3", "atom_type": "Cd"}}

>  <type>  (10) 
unop_6

>  <geom_source>  (10) 
Heuristics

$$$$

     RDKit          3D

 17 15  0  0  0  0  0  0  0  0999 V2000
   -0.2415   -0.9169   -2.8417 C   0  0  0  0  0  0  0  0  0  0  0  0
   -0.2415   -0.9169   -1.6462 C   0  0  0  0  0  0  0  0  0  0  0  0
   -0.2415   -0.9169   -0.1832 C   0  0  0  0  0  3  0  0  0  0  0  0
   -1.5555   -0.6413    0.3980 C   0  0  0  0  0  0  0  0  0  0  0  0
   -2.6293   -0.4161    0.8729 C   0  0  0  0  0  0  0  0  0  0  0  0
   -0.2415   -0.9169   -3.9051 H   0  0  0  0  0  0  0  0  0  0  0  0
    0.6166   -0.0225    0.2479 H   0  0  0  0  0  0  0  0  0  0  0  0
    0.1139   -1.8868    0.1760 H   0  0  0  0  0  0  0  0  0  0  0  0
   -3.5845   -0.2158    1.2954 H   0  0  0  0  0  0  0  0  0  0  0  0
    2.4796    0.4680    1.4336 C   0  0  0  0  0  0  0  0  0  0  0  0
    1.4696    0.8665    0.6763 C   0  0  0  0  0  0  0  0  0  0  0  0
    0.6293    2.0764    0.9295 C   0  0  0  0  0  0  0  0  0  0  0  0
    3.0505   -0.4205    1.1948 H   0  0  0  0  0  0  0  0  0  0  0  0
    2.7722    1.0177    2.3220 H   0  0  0  0  0  0  0  0  0  0  0  0
   -0.4219    1.8018    1.0487 H   0  0  0  0  0  0  0  0  0  0  0  0
    0.9506    2.6040    1.8285 H   0  0  0  0  0  0  0  0  0  0  0  0
    0.6817    2.7698    0.0862 H   0  0  0  0  0  0  0  0  0  0  0  0
  1  2  3  0
  1  6  1  0
  2  3  1  0
  3  4  1  0
  3  8  1  0
  4  5  3  0
  5  9  1  0
  7 11  1  0
 10 11  2  3
 10 13  1  0
 10 14  1  0
 11 12  1  0
 12 15  1  0
 12 16  1  0
 12 17  1  0
M  RAD  1   3   2
M  END
>  <reaction>  (11) 
rxn_1363

>  <mol_properties>  (11) 
{"1": {"label": "*0", "atom_type": "Ct"}, "2": {"label": "*1", "atom_type": "Cs"}, "6": {"label": "*2", "atom_type": "H0"}, "9": {"label": "*4", "atom_type": "Cd"}, "10": {"label": "*3", "atom_type": "Cd"}}

>  <type>  (11) 
unop_7

>  <geom_source>  (11) 
Heuristics

$$$$

     RDKit          3D

 17 15  0  0  0  0  0  0  0  0999 V2000
   -0.3067   -0.8530   -2.8598 C   0  0  0  0  0  0  0  0  0  0  0  0
   -0.3067   -0.8530   -1.6643 C   0  0  0  0  0  0  0  0  0  0  0  0
   -0.3067   -0.8530   -0.2013 C   0  0  0  0  0  3  0  0  0  0  0  0
   -1.6207   -0.5774    0.3798 C   0  0  0  0  0  0  0  0  0  0  0  0
   -2.6945   -0.3522    0.8547 C   0  0  0  0  0  0  0  0  0  0  0  0
   -0.3067   -0.8530   -3.9233 H   0  0  0  0  0  0  0  0  0  0  0  0
    0.5514    0.0414    0.2297 H   0  0  0  0  0  0  0  0  0  0  0  0
    0.0487   -1.8228    0.1579 H   0  0  0  0  0  0  0  0  0  0  0  0
   -3.6497   -0.1518    1.2772 H   0  0  0  0  0  0  0  0  0  0  0  0
    0.9842    2.1681    0.8676 C   0  0  0  0  0  0  0  0  0  0  0  0
    1.4044    0.9304    0.6582 C   0  0  0  0  0  0  0  0  0  0  0  0
    2.3415    0.1779    1.5469 C   0  0  0  0  0  0  0  0  0  0  0  0
    0.3032    2.6585    0.1834 H   0  0  0  0  0  0  0  0  0  0  0  0
    1.3073    2.7367    1.7332 H   0  0  0  0  0  0  0  0  0  0  0  0
    3.2397   -0.1212    1.0006 H   0  0  0  0  0  0  0  0  0  0  0  0
    2.6453    0.7781    2.4053 H   0  0  0  0  0  0  0  0  0  0  0  0
    1.8752   -0.7394    1.9158 H   0  0  0  0  0  0  0  0  0  0  0  0
  1  2  3  0
  1  6  1  0
  2  3  1  0
  3  4  1  0
  3  8  1  0
  4  5  3  0
  5  9  1  0
  7 11  1  0
 10 11  2  3
 10 13  1  0
 10 14  1  0
 11 12  1  0
 12 15  1  0
 12 16  1  0
 12 17  1  0
M  RAD  1   3   2
M  END
>  <reaction>  (12) 
rxn_1363

>  <mol_properties>  (12) 
{"1": {"label": "*0", "atom_type": "Ct"}, "2": {"label": "*1", "atom_type": "Cs"}, "6": {"label": "*2", "atom_type": "H0"}, "9": {"label": "*4", "atom_type": "Cd"}, "10": {"label": "*3", "atom_type": "Cd"}}

>  <type>  (12) 
unop_8

>  <geom_source>  (12) 
Heuristics

$$$$

     RDKit          3D

 17 15  0  0  0  0  0  0  0  0999 V2000
   -0.3535   -0.8792   -2.8102 C   0  0  0  0  0  0  0  0  0  0  0  0
   -0.3535   -0.8792   -1.6147 C   0  0  0  0  0  0  0  0  0  0  0  0
   -0.3535   -0.8792   -0.1517 C   0  0  0  0  0  3  0  0  0  0  0  0
   -1.6675   -0.6036    0.4295 C   0  0  0  0  0  0  0  0  0  0  0  0
   -2.7412   -0.3784    0.9044 C   0  0  0  0  0  0  0  0  0  0  0  0
   -0.3535   -0.8792   -3.8737 H   0  0  0  0  0  0  0  0  0  0  0  0
    0.5047    0.0152    0.2794 H   0  0  0  0  0  0  0  0  0  0  0  0
    0.0019   -1.8491    0.2075 H   0  0  0  0  0  0  0  0  0  0  0  0
   -3.6964   -0.1781    1.3268 H   0  0  0  0  0  0  0  0  0  0  0  0
    2.4216    1.1752   -0.0317 C   0  0  0  0  0  0  0  0  0  0  0  0
    1.3576    0.9042    0.7078 C   0  0  0  0  0  0  0  0  0  0  0  0
    1.2111    1.2343    2.1582 C   0  0  0  0  0  0  0  0  0  0  0  0
    2.4654    0.9090   -1.0803 H   0  0  0  0  0  0  0  0  0  0  0  0
    3.2892    1.6746    0.3864 H   0  0  0  0  0  0  0  0  0  0  0  0
    1.0410    0.3297    2.7477 H   0  0  0  0  0  0  0  0  0  0  0  0
    2.0998    1.7345    2.5450 H   0  0  0  0  0  0  0  0  0  0  0  0
    0.3496    1.8864    2.3235 H   0  0  0  0  0  0  0  0  0  0  0  0
  1  2  3  0
  1  6  1  0
  2  3  1  0
  3  4  1  0
  3  8  1  0
  4  5  3  0
  5  9  1  0
  7 11  1  0
 10 11  2  3
 10 13  1  0
 10 14  1  0
 11 12  1  0
 12 15  1  0
 12 16  1  0
 12 17  1  0
M  RAD  1   3   2
M  END
>  <reaction>  (13) 
rxn_1363

>  <mol_properties>  (13) 
{"1": {"label": "*0", "atom_type": "Ct"}, "2": {"label": "*1", "atom_type": "Cs"}, "6": {"label": "*2", "atom_type": "H0"}, "9": {"label": "*4", "atom_type": "Cd"}, "10": {"label": "*3", "atom_type": "Cd"}}

>  <type>  (13) 
unop_9

>  <geom_source>  (13) 
Heuristics

$$$$

     RDKit          3D

 17 15  0  0  0  0  0  0  0  0999 V2000
   -0.2907   -0.8994   -2.8419 C   0  0  0  0  0  0  0  0  0  0  0  0
   -0.2907   -0.8994   -1.6464 C   0  0  0  0  0  0  0  0  0  0  0  0
   -0.2907   -0.8994   -0.1834 C   0  0  0  0  0  3  0  0  0  0  0  0
   -1.6048   -0.6238    0.3978 C   0  0  0  0  0  0  0  0  0  0  0  0
   -2.6785   -0.3986    0.8727 C   0  0  0  0  0  0  0  0  0  0  0  0
   -0.2907   -0.8994   -3.9053 H   0  0  0  0  0  0  0  0  0  0  0  0
    0.5674   -0.0050    0.2477 H   0  0  0  0  0  0  0  0  0  0  0  0
    0.0646   -1.8693    0.1758 H   0  0  0  0  0  0  0  0  0  0  0  0
   -3.6337   -0.1982    1.2952 H   0  0  0  0  0  0  0  0  0  0  0  0
    1.2442    2.1516    0.3376 C   0  0  0  0  0  0  0  0  0  0  0  0
    1.4204    0.8840    0.6761 C   0  0  0  0  0  0  0  0  0  0  0  0
    2.0221    0.4119    1.9603 C   0  0  0  0  0  0  0  0  0  0  0  0
    0.8009    2.4283   -0.6107 H   0  0  0  0  0  0  0  0  0  0  0  0
    1.5379    2.9600    0.9989 H   0  0  0  0  0  0  0  0  0  0  0  0
    2.9120   -0.1945    1.7730 H   0  0  0  0  0  0  0  0  0  0  0  0
    2.3052    1.2491    2.5995 H   0  0  0  0  0  0  0  0  0  0  0  0
    1.3192   -0.2190    2.5104 H   0  0  0  0  0  0  0  0  0  0  0  0
  1  2  3  0
  1  6  1  0
  2  3  1  0
  3  4  1  0
  3  8  1  0
  4  5  3  0
  5  9  1  0
  7 11  1  0
 10 11  2  3
 10 13  1  0
 10 14  1  0
 11 12  1  0
 12 15  1  0
 12 16  1  0
 12 17  1  0
M  RAD  1   3   2
M  END
>  <reaction>  (14) 
rxn_1363

>  <mol_properties>  (14) 
{"1": {"label": "*0", "atom_type": "Ct"}, "2": {"label": "*1", "atom_type": "Cs"}, "6": {"label": "*2", "atom_type": "H0"}, "9": {"label": "*4", "atom_type": "Cd"}, "10": {"label": "*3", "atom_type": "Cd"}}

>  <type>  (14) 
unop_10

>  <geom_source>  (14) 
Heuristics

$$$$

     RDKit          3D

 17 15  0  0  0  0  0  0  0  0999 V2000
   -0.2494   -0.9631   -2.7802 C   0  0  0  0  0  0  0  0  0  0  0  0
   -0.2494   -0.9631   -1.5847 C   0  0  0  0  0  0  0  0  0  0  0  0
   -0.2494   -0.9631   -0.1217 C   0  0  0  0  0  3  0  0  0  0  0  0
   -1.5634   -0.6875    0.4595 C   0  0  0  0  0  0  0  0  0  0  0  0
   -2.6372   -0.4623    0.9344 C   0  0  0  0  0  0  0  0  0  0  0  0
   -0.2494   -0.9631   -3.8437 H   0  0  0  0  0  0  0  0  0  0  0  0
    0.6087   -0.0687    0.3094 H   0  0  0  0  0  0  0  0  0  0  0  0
    0.1060   -1.9330    0.2375 H   0  0  0  0  0  0  0  0  0  0  0  0
   -3.5924   -0.2620    1.3568 H   0  0  0  0  0  0  0  0  0  0  0  0
    2.0687    0.6151    1.8962 C   0  0  0  0  0  0  0  0  0  0  0  0
    1.4617    0.8203    0.7378 C   0  0  0  0  0  0  0  0  0  0  0  0
    1.0526    2.1557    0.2054 C   0  0  0  0  0  0  0  0  0  0  0  0
    2.3395   -0.3802    2.2253 H   0  0  0  0  0  0  0  0  0  0  0  0
    2.3172    1.4377    2.5585 H   0  0  0  0  0  0  0  0  0  0  0  0
   -0.0262    2.1917    0.0328 H   0  0  0  0  0  0  0  0  0  0  0  0
    1.3171    2.9580    0.8952 H   0  0  0  0  0  0  0  0  0  0  0  0
    1.5337    2.3553   -0.7556 H   0  0  0  0  0  0  0  0  0  0  0  0
  1  2  3  0
  1  6  1  0
  2  3  1  0
  3  4  1  0
  3  8  1  0
  4  5  3  0
  5  9  1  0
  7 11  1  0
 10 11  2  3
 10 13  1  0
 10 14  1  0
 11 12  1  0
 12 15  1  0
 12 16  1  0
 12 17  1  0
M  RAD  1   3   2
M  END
>  <reaction>  (15) 
rxn_1363

>  <mol_properties>  (15) 
{"1": {"label": "*0", "atom_type": "Ct"}, "2": {"label": "*1", "atom_type": "Cs"}, "6": {"label": "*2", "atom_type": "H0"}, "9": {"label": "*4", "atom_type": "Cd"}, "10": {"label": "*3", "atom_type": "Cd"}}

>  <type>  (15) 
unop_11

>  <geom_source>  (15) 
Heuristics

$$$$

     RDKit          3D

 17 15  0  0  0  0  0  0  0  0999 V2000
   -0.3400   -0.9110   -2.7945 C   0  0  0  0  0  0  0  0  0  0  0  0
   -0.3400   -0.9110   -1.5990 C   0  0  0  0  0  0  0  0  0  0  0  0
   -0.3400   -0.9110   -0.1360 C   0  0  0  0  0  3  0  0  0  0  0  0
   -1.6540   -0.6354    0.4452 C   0  0  0  0  0  0  0  0  0  0  0  0
   -2.7278   -0.4102    0.9201 C   0  0  0  0  0  0  0  0  0  0  0  0
   -0.3400   -0.9110   -3.8579 H   0  0  0  0  0  0  0  0  0  0  0  0
    0.5181   -0.0166    0.2951 H   0  0  0  0  0  0  0  0  0  0  0  0
    0.0154   -1.8808    0.2232 H   0  0  0  0  0  0  0  0  0  0  0  0
   -3.6830   -0.2098    1.3425 H   0  0  0  0  0  0  0  0  0  0  0  0
    2.0518    1.5819   -0.1628 C   0  0  0  0  0  0  0  0  0  0  0  0
    1.3711    0.8724    0.7235 C   0  0  0  0  0  0  0  0  0  0  0  0
    1.4951    1.0017    2.2075 C   0  0  0  0  0  0  0  0  0  0  0  0
    1.9154    1.4397   -1.2275 H   0  0  0  0  0  0  0  0  0  0  0  0
    2.7719    2.3325    0.1457 H   0  0  0  0  0  0  0  0  0  0  0  0
    1.8016    0.0533    2.6562 H   0  0  0  0  0  0  0  0  0  0  0  0
    2.2260    1.7635    2.4815 H   0  0  0  0  0  0  0  0  0  0  0  0
    0.5349    1.2686    2.6562 H   0  0  0  0  0  0  0  0  0  0  0  0
  1  2  3  0
  1  6  1  0
  2  3  1  0
  3  4  1  0
  3  8  1  0
  4  5  3  0
  5  9  1  0
  7 11  1  0
 10 11  2  3
 10 13  1  0
 10 14  1  0
 11 12  1  0
 12 15  1  0
 12 16  1  0
 12 17  1  0
M  RAD  1   3   2
M  END
>  <reaction>  (16) 
rxn_1363

>  <mol_properties>  (16) 
{"1": {"label": "*0", "atom_type": "Ct"}, "2": {"label": "*1", "atom_type": "Cs"}, "6": {"label": "*2", "atom_type": "H0"}, "9": {"label": "*4", "atom_type": "Cd"}, "10": {"label": "*3", "atom_type": "Cd"}}

>  <type>  (16) 
unop_12

>  <geom_source>  (16) 
Heuristics

$$$$

     RDKit          3D

 17 15  0  0  0  0  0  0  0  0999 V2000
   -2.1504    0.5616    0.9506 C   0  0  0  0  0  0  0  0  0  0  0  0
   -1.3870   -0.0478   -0.1832 C   0  0  0  0  0  0  0  0  0  0  0  0
   -1.9147   -0.1320   -1.4059 C   0  0  0  0  0  0  0  0  0  0  0  0
    1.1351   -0.2376    0.4628 C   0  0  0  0  0  3  0  0  0  0  0  0
    1.9316   -1.4187    0.1244 C   0  0  0  0  0  0  0  0  0  0  0  0
    1.8427    0.9735    0.0426 C   0  0  0  0  0  0  0  0  0  0  0  0
    2.5860   -2.3925   -0.1537 C   0  0  0  0  0  0  0  0  0  0  0  0
    2.4237    1.9719   -0.3029 C   0  0  0  0  0  0  0  0  0  0  0  0
   -1.5327    0.5317    1.8721 H   0  0  0  0  0  0  0  0  0  0  0  0
   -2.3974    1.6188    0.7170 H   0  0  0  0  0  0  0  0  0  0  0  0
   -3.0874   -0.0078    1.1267 H   0  0  0  0  0  0  0  0  0  0  0  0
   -0.2537   -0.4783    0.0164 H   0  0  0  0  0  0  0  0  0  0  0  0
   -2.9142    0.2406   -1.6098 H   0  0  0  0  0  0  0  0  0  0  0  0
   -1.3423   -0.5780   -2.2123 H   0  0  0  0  0  0  0  0  0  0  0  0
    0.9664   -0.2064    1.5590 H   0  0  0  0  0  0  0  0  0  0  0  0
    3.1605   -3.2471   -0.3978 H   0  0  0  0  0  0  0  0  0  0  0  0
    2.9338    2.8481   -0.6062 H   0  0  0  0  0  0  0  0  0  0  0  0
  1  2  1  0
  1  9  1  0
  1 10  1  0
  1 11  1  0
  2  3  2  3
  2 12  1  0
  3 13  1  0
  3 14  1  0
  4  5  1  0
  4  6  1  0
  4 15  1  0
  5  7  3  0
  6  8  3  0
  7 16  1  0
  8 17  1  0
M  RAD  1   4   2
M  END
>  <reaction>  (17) 
rxn_1363

>  <mol_properties>  (17) 
{"1": {"label": "*0", "atom_type": "Ct"}, "2": {"label": "*1", "atom_type": "Cs"}, "6": {"label": "*2", "atom_type": "H0"}, "9": {"label": "*4", "atom_type": "Cd"}, "10": {"label": "*3", "atom_type": "Cd"}}

>  <type>  (17) 
unop_13

>  <geom_source>  (17) 
AutoTST

$$$$
