
     RDKit          3D

 12 11  0  0  0  0  0  0  0  0999 V2000
    2.1696    0.6854    1.1310 C   0  0  0  0  0  0  0  0  0  0  0  0
    1.2518    0.4145    0.4134 C   0  0  0  0  0  0  0  0  0  0  0  0
    0.1391    0.0443   -0.4683 C   0  0  0  0  0  0  0  0  0  0  0  0
   -0.2054   -1.4492   -0.3339 C   0  0  0  0  0  0  0  0  0  0  0  0
   -1.0375    0.8853   -0.2222 C   0  0  0  0  0  0  0  0  0  0  0  0
   -2.0160    1.5463   -0.0311 C   0  0  0  0  0  0  0  0  0  0  0  0
    2.9819    0.9356    1.7702 H   0  0  0  0  0  0  0  0  0  0  0  0
    0.4629    0.2285   -1.4981 H   0  0  0  0  0  0  0  0  0  0  0  0
   -0.5327   -1.6703    0.6812 H   0  0  0  0  0  0  0  0  0  0  0  0
    0.6727   -2.0535   -0.5593 H   0  0  0  0  0  0  0  0  0  0  0  0
   -1.0064   -1.7081   -1.0256 H   0  0  0  0  0  0  0  0  0  0  0  0
   -2.8802    2.1413    0.1426 H   0  0  0  0  0  0  0  0  0  0  0  0
  1  2  3  0
  1  7  1  0
  2  3  1  0
  3  4  1  0
  3  5  1  0
  3  8  1  0
  4  9  1  0
  4 10  1  0
  4 11  1  0
  5  6  3  0
  6 12  1  0
M  END
>  <reaction>  (1) 
rxn_1431

>  <mol_properties>  (1) 
{"2": {"label": "donator", "atom_type": "Cs"}, "7": {"label": "d_hydrogen", "atom_type": "H0"}}

>  <type>  (1) 
r1h

$$$$

     RDKit          3D

  7  6  0  0  0  0  0  0  0  0999 V2000
   -0.6904   -0.9066   -0.0346 C   0  0  0  0  0  0  0  0  0  0  0  0
    0.1413    0.0254   -0.6161 C   0  0  0  0  0  0  0  0  0  0  0  0
    0.4603    0.1105   -1.9267 C   0  0  0  0  0  3  0  0  0  0  0  0
    0.8318    0.2180   -3.4201 S   0  0  0  0  0  0  0  0  0  0  0  0
   -0.8731   -0.8770    1.0287 H   0  0  0  0  0  0  0  0  0  0  0  0
   -1.1718   -1.6767   -0.6199 H   0  0  0  0  0  0  0  0  0  0  0  0
    0.6090    0.7866    0.0044 H   0  0  0  0  0  0  0  0  0  0  0  0
  1  2  2  3
  1  5  1  0
  1  6  1  0
  2  3  1  0
  2  7  1  0
  3  4  2  0
M  RAD  1   3   2
M  END
>  <reaction>  (2) 
rxn_1431

>  <mol_properties>  (2) 
{"2": {"label": "acceptor", "atom_type": "CS"}}

>  <type>  (2) 
r2

$$$$

     RDKit          3D

  8  7  0  0  0  0  0  0  0  0999 V2000
   -1.1617    0.0338    0.5053 C   0  0  0  0  0  0  0  0  0  0  0  0
   -0.1023    0.4503   -0.1863 C   0  0  0  0  0  0  0  0  0  0  0  0
    1.0978   -0.3557   -0.3104 C   0  0  0  0  0  0  0  0  0  0  0  0
    2.4251    0.0667   -1.1256 S   0  0  0  0  0  0  0  0  0  0  0  0
   -1.1653   -0.9292    1.0039 H   0  0  0  0  0  0  0  0  0  0  0  0
   -2.0546    0.6389    0.5948 H   0  0  0  0  0  0  0  0  0  0  0  0
   -0.0991    1.4132   -0.6847 H   0  0  0  0  0  0  0  0  0  0  0  0
    1.0601   -1.3180    0.2032 H   0  0  0  0  0  0  0  0  0  0  0  0
  1  2  2  3
  1  5  1  0
  1  6  1  0
  2  3  1  0
  2  7  1  0
  3  4  2  0
  3  8  1  0
M  END
>  <reaction>  (3) 
rxn_1431

>  <mol_properties>  (3) 
{"0": {"label": "a_hydrogen", "atom_type": "H0"}, "3": {"label": "acceptor", "atom_type": "CS"}}

>  <type>  (3) 
r2h

$$$$

     RDKit          3D

 19 17  0  0  0  0  0  0  0  0999 V2000
   -1.4099    0.9281   -2.9453 C   0  0  0  0  0  0  0  0  0  0  0  0
   -1.3943    0.6523   -1.7776 C   0  0  0  0  0  0  0  0  0  0  0  0
   -1.3055    0.3603   -0.3696 C   0  0  0  0  0  0  0  0  0  0  0  0
   -1.9627    1.3869    0.5430 C   0  0  0  0  0  0  0  0  0  0  0  0
   -1.5670   -1.0144   -0.0272 C   0  0  0  0  0  0  0  0  0  0  0  0
   -1.7299   -2.1584    0.2962 C   0  0  0  0  0  0  0  0  0  0  0  0
   -1.4449    1.1680   -3.9807 H   0  0  0  0  0  0  0  0  0  0  0  0
   -0.0346    0.5223   -0.0900 H   0  0  0  0  0  0  0  0  0  0  0  0
   -3.0473    1.3716    0.4214 H   0  0  0  0  0  0  0  0  0  0  0  0
   -1.5973    2.3853    0.3037 H   0  0  0  0  0  0  0  0  0  0  0  0
   -1.7236    1.1670    1.5832 H   0  0  0  0  0  0  0  0  0  0  0  0
   -1.8947   -3.1709    0.5760 H   0  0  0  0  0  0  0  0  0  0  0  0
    1.8146   -0.9762   -1.3342 C   0  0  0  0  0  0  0  0  0  0  0  0
    2.2275   -0.0790   -0.4392 C   0  0  0  0  0  0  0  0  0  0  0  0
    1.3119    0.7725    0.2813 C   0  0  0  0  0  3  0  0  0  0  0  0
    1.5648    1.8926    1.3727 S   0  0  0  0  0  0  0  0  0  0  0  0
    2.5253   -1.6016   -1.8596 H   0  0  0  0  0  0  0  0  0  0  0  0
    0.7664   -1.1128   -1.5678 H   0  0  0  0  0  0  0  0  0  0  0  0
    3.2855    0.0399   -0.2215 H   0  0  0  0  0  0  0  0  0  0  0  0
  1  2  3  0
  1  7  1  0
  2  3  1  0
  3  4  1  0
  3  5  1  0
  3  8  1  0
  4  9  1  0
  4 10  1  0
  4 11  1  0
  5  6  3  0
  6 12  1  0
 13 14  2  3
 13 17  1  0
 13 18  1  0
 14 15  1  0
 14 19  1  0
 15 16  2  0
M  RAD  1  15   2
M  END
>  <reaction>  (4) 
rxn_1431

>  <mol_properties>  (4) 
{"1": {"label": "*0", "atom_type": "Ct"}, "2": {"label": "*1", "atom_type": "Cs"}, "7": {"label": "*2", "atom_type": "H0"}, "14": {"label": "*3", "atom_type": "CS"}, "15": {"label": "*4", "atom_type": "S2d"}}

>  <type>  (4) 
ts

$$$$

     RDKit          3D

 19 17  0  0  0  0  0  0  0  0999 V2000
   -1.0998    0.1400   -3.0590 C   0  0  0  0  0  0  0  0  0  0  0  0
   -1.0998    0.1400   -1.8628 C   0  0  0  0  0  0  0  0  0  0  0  0
   -1.0998    0.1801   -0.3963 C   0  0  0  0  0  3  0  0  0  0  0  0
   -1.7378    1.4793    0.1257 C   0  0  0  0  0  0  0  0  0  0  0  0
   -1.7616   -1.0012    0.1685 C   0  0  0  0  0  0  0  0  0  0  0  0
   -2.3099   -1.9464    0.6550 C   0  0  0  0  0  0  0  0  0  0  0  0
   -1.0998    0.1400   -4.1225 H   0  0  0  0  0  0  0  0  0  0  0  0
    0.1538    0.1528   -0.0032 H   0  0  0  0  0  0  0  0  0  0  0  0
   -2.7811    1.5366   -0.1821 H   0  0  0  0  0  0  0  0  0  0  0  0
   -1.2052    2.3407   -0.2759 H   0  0  0  0  0  0  0  0  0  0  0  0
   -1.6906    1.5037    1.2139 H   0  0  0  0  0  0  0  0  0  0  0  0
   -2.7973   -2.7869    1.0875 H   0  0  0  0  0  0  0  0  0  0  0  0
    1.4573    2.5149    0.8484 C   0  0  0  0  0  0  0  0  0  0  0  0
    1.8242    1.2750    1.1680 C   0  0  0  0  0  0  0  0  0  0  0  0
    1.4033    0.1257    0.3887 C   0  0  0  0  0  0  0  0  0  0  0  0
    1.7979   -1.4079    0.7003 S   0  0  0  0  0  0  0  0  0  0  0  0
    1.7740    3.3688    1.4331 H   0  0  0  0  0  0  0  0  0  0  0  0
    0.8266    2.7113   -0.0115 H   0  0  0  0  0  0  0  0  0  0  0  0
    2.4548    1.0790    2.0279 H   0  0  0  0  0  0  0  0  0  0  0  0
  1  2  3  0
  1  7  1  0
  2  3  1  0
  3  4  1  0
  3  5  1  0
  4  9  1  0
  4 10  1  0
  4 11  1  0
  5  6  3  0
  6 12  1  0
  8 15  1  0
 13 14  2  3
 13 17  1  0
 13 18  1  0
 14 15  1  0
 14 19  1  0
 15 16  2  0
M  RAD  1   3   2
M  END
>  <reaction>  (5) 
rxn_1431

>  <mol_properties>  (5) 
{"1": {"label": "*0", "atom_type": "Ct"}, "2": {"label": "*1", "atom_type": "Cs"}, "7": {"label": "*2", "atom_type": "H0"}, "14": {"label": "*3", "atom_type": "CS"}, "15": {"label": "*4", "atom_type": "S2d"}}

>  <type>  (5) 
unop_1

>  <geom_source>  (5) 
Heuristics

$$$$

     RDKit          3D

 19 17  0  0  0  0  0  0  0  0999 V2000
   -1.1790    0.0735   -2.9195 C   0  0  0  0  0  0  0  0  0  0  0  0
   -1.1790    0.0735   -1.7233 C   0  0  0  0  0  0  0  0  0  0  0  0
   -1.1790    0.1136   -0.2568 C   0  0  0  0  0  3  0  0  0  0  0  0
   -1.8171    1.4128    0.2652 C   0  0  0  0  0  0  0  0  0  0  0  0
   -1.8409   -1.0677    0.3080 C   0  0  0  0  0  0  0  0  0  0  0  0
   -2.3891   -2.0130    0.7945 C   0  0  0  0  0  0  0  0  0  0  0  0
   -1.1790    0.0735   -3.9830 H   0  0  0  0  0  0  0  0  0  0  0  0
    0.0746    0.0863    0.1364 H   0  0  0  0  0  0  0  0  0  0  0  0
   -2.8603    1.4700   -0.0425 H   0  0  0  0  0  0  0  0  0  0  0  0
   -1.2844    2.2742   -0.1364 H   0  0  0  0  0  0  0  0  0  0  0  0
   -1.7699    1.4372    1.3534 H   0  0  0  0  0  0  0  0  0  0  0  0
   -2.8765   -2.8534    1.2270 H   0  0  0  0  0  0  0  0  0  0  0  0
    1.9594    0.8843   -1.6713 C   0  0  0  0  0  0  0  0  0  0  0  0
    2.2668    0.6640   -0.3942 C   0  0  0  0  0  0  0  0  0  0  0  0
    1.3241    0.0592    0.5282 C   0  0  0  0  0  0  0  0  0  0  0  0
    1.6087   -0.2445    2.0875 S   0  0  0  0  0  0  0  0  0  0  0  0
    2.6663    1.3359   -2.3553 H   0  0  0  0  0  0  0  0  0  0  0  0
    0.9870    0.6178   -2.0703 H   0  0  0  0  0  0  0  0  0  0  0  0
    3.2392    0.9307    0.0044 H   0  0  0  0  0  0  0  0  0  0  0  0
  1  2  3  0
  1  7  1  0
  2  3  1  0
  3  4  1  0
  3  5  1  0
  4  9  1  0
  4 10  1  0
  4 11  1  0
  5  6  3  0
  6 12  1  0
  8 15  1  0
 13 14  2  3
 13 17  1  0
 13 18  1  0
 14 15  1  0
 14 19  1  0
 15 16  2  0
M  RAD  1   3   2
M  END
>  <reaction>  (6) 
rxn_1431

>  <mol_properties>  (6) 
{"1": {"label": "*0", "atom_type": "Ct"}, "2": {"label": "*1", "atom_type": "Cs"}, "7": {"label": "*2", "atom_type": "H0"}, "14": {"label": "*3", "atom_type": "CS"}, "15": {"label": "*4", "atom_type": "S2d"}}

>  <type>  (6) 
unop_2

>  <geom_source>  (6) 
Heuristics

$$$$

     RDKit          3D

 19 17  0  0  0  0  0  0  0  0999 V2000
   -1.1256    0.1913   -3.0299 C   0  0  0  0  0  0  0  0  0  0  0  0
   -1.1256    0.1913   -1.8337 C   0  0  0  0  0  0  0  0  0  0  0  0
   -1.1256    0.2314   -0.3672 C   0  0  0  0  0  3  0  0  0  0  0  0
   -1.7636    1.5306    0.1548 C   0  0  0  0  0  0  0  0  0  0  0  0
   -1.7874   -0.9498    0.1976 C   0  0  0  0  0  0  0  0  0  0  0  0
   -2.3357   -1.8951    0.6841 C   0  0  0  0  0  0  0  0  0  0  0  0
   -1.1256    0.1913   -4.0933 H   0  0  0  0  0  0  0  0  0  0  0  0
    0.1280    0.2042    0.0260 H   0  0  0  0  0  0  0  0  0  0  0  0
   -2.8069    1.5879   -0.1529 H   0  0  0  0  0  0  0  0  0  0  0  0
   -1.2310    2.3921   -0.2468 H   0  0  0  0  0  0  0  0  0  0  0  0
   -1.7164    1.5551    1.2431 H   0  0  0  0  0  0  0  0  0  0  0  0
   -2.8231   -2.7355    1.1166 H   0  0  0  0  0  0  0  0  0  0  0  0
    0.9351    1.9254    2.0518 C   0  0  0  0  0  0  0  0  0  0  0  0
    1.6400    0.8619    1.6698 C   0  0  0  0  0  0  0  0  0  0  0  0
    1.3775    0.1770    0.4179 C   0  0  0  0  0  0  0  0  0  0  0  0
    2.1782   -1.1151   -0.1245 S   0  0  0  0  0  0  0  0  0  0  0  0
    1.1349    2.4327    2.9867 H   0  0  0  0  0  0  0  0  0  0  0  0
    0.1341    2.3204    1.4367 H   0  0  0  0  0  0  0  0  0  0  0  0
    2.4408    0.4673    2.2851 H   0  0  0  0  0  0  0  0  0  0  0  0
  1  2  3  0
  1  7  1  0
  2  3  1  0
  3  4  1  0
  3  5  1  0
  4  9  1  0
  4 10  1  0
  4 11  1  0
  5  6  3  0
  6 12  1  0
  8 15  1  0
 13 14  2  3
 13 17  1  0
 13 18  1  0
 14 15  1  0
 14 19  1  0
 15 16  2  0
M  RAD  1   3   2
M  END
>  <reaction>  (7) 
rxn_1431

>  <mol_properties>  (7) 
{"1": {"label": "*0", "atom_type": "Ct"}, "2": {"label": "*1", "atom_type": "Cs"}, "7": {"label": "*2", "atom_type": "H0"}, "14": {"label": "*3", "atom_type": "CS"}, "15": {"label": "*4", "atom_type": "S2d"}}

>  <type>  (7) 
unop_3

>  <geom_source>  (7) 
Heuristics

$$$$

     RDKit          3D

 19 17  0  0  0  0  0  0  0  0999 V2000
   -1.1377    0.2429   -2.9852 C   0  0  0  0  0  0  0  0  0  0  0  0
   -1.1377    0.2429   -1.7890 C   0  0  0  0  0  0  0  0  0  0  0  0
   -1.1377    0.2830   -0.3225 C   0  0  0  0  0  3  0  0  0  0  0  0
   -1.7757    1.5822    0.1995 C   0  0  0  0  0  0  0  0  0  0  0  0
   -1.7996   -0.8982    0.2423 C   0  0  0  0  0  0  0  0  0  0  0  0
   -2.3478   -1.8435    0.7288 C   0  0  0  0  0  0  0  0  0  0  0  0
   -1.1377    0.2429   -4.0486 H   0  0  0  0  0  0  0  0  0  0  0  0
    0.1159    0.2558    0.0707 H   0  0  0  0  0  0  0  0  0  0  0  0
   -2.8190    1.6395   -0.1082 H   0  0  0  0  0  0  0  0  0  0  0  0
   -1.2431    2.4437   -0.2021 H   0  0  0  0  0  0  0  0  0  0  0  0
   -1.7286    1.6067    1.2878 H   0  0  0  0  0  0  0  0  0  0  0  0
   -2.8352   -2.6839    1.1613 H   0  0  0  0  0  0  0  0  0  0  0  0
    1.8519   -1.5759   -1.0962 C   0  0  0  0  0  0  0  0  0  0  0  0
    2.1099   -0.9460    0.0487 C   0  0  0  0  0  0  0  0  0  0  0  0
    1.3654    0.2286    0.4625 C   0  0  0  0  0  0  0  0  0  0  0  0
    1.6080    1.0537    1.8282 S   0  0  0  0  0  0  0  0  0  0  0  0
    2.4103   -2.4518   -1.4003 H   0  0  0  0  0  0  0  0  0  0  0  0
    1.0708   -1.2311   -1.7647 H   0  0  0  0  0  0  0  0  0  0  0  0
    2.8910   -1.2911    0.7169 H   0  0  0  0  0  0  0  0  0  0  0  0
  1  2  3  0
  1  7  1  0
  2  3  1  0
  3  4  1  0
  3  5  1  0
  4  9  1  0
  4 10  1  0
  4 11  1  0
  5  6  3  0
  6 12  1  0
  8 15  1  0
 13 14  2  3
 13 17  1  0
 13 18  1  0
 14 15  1  0
 14 19  1  0
 15 16  2  0
M  RAD  1   3   2
M  END
>  <reaction>  (8) 
rxn_1431

>  <mol_properties>  (8) 
{"1": {"label": "*0", "atom_type": "Ct"}, "2": {"label": "*1", "atom_type": "Cs"}, "7": {"label": "*2", "atom_type": "H0"}, "14": {"label": "*3", "atom_type": "CS"}, "15": {"label": "*4", "atom_type": "S2d"}}

>  <type>  (8) 
unop_4

>  <geom_source>  (8) 
Heuristics

$$$$

     RDKit          3D

 19 17  0  0  0  0  0  0  0  0999 V2000
   -1.1637    0.1446   -2.9893 C   0  0  0  0  0  0  0  0  0  0  0  0
   -1.1637    0.1446   -1.7931 C   0  0  0  0  0  0  0  0  0  0  0  0
   -1.1637    0.1846   -0.3266 C   0  0  0  0  0  3  0  0  0  0  0  0
   -1.8017    1.4839    0.1954 C   0  0  0  0  0  0  0  0  0  0  0  0
   -1.8255   -0.9966    0.2382 C   0  0  0  0  0  0  0  0  0  0  0  0
   -2.3738   -1.9419    0.7247 C   0  0  0  0  0  0  0  0  0  0  0  0
   -1.1637    0.1446   -4.0528 H   0  0  0  0  0  0  0  0  0  0  0  0
    0.0899    0.1574    0.0666 H   0  0  0  0  0  0  0  0  0  0  0  0
   -2.8450    1.5411   -0.1123 H   0  0  0  0  0  0  0  0  0  0  0  0
   -1.2691    2.3453   -0.2062 H   0  0  0  0  0  0  0  0  0  0  0  0
   -1.7545    1.5083    1.2836 H   0  0  0  0  0  0  0  0  0  0  0  0
   -2.8612   -2.7823    1.1572 H   0  0  0  0  0  0  0  0  0  0  0  0
    0.5012    0.2180    2.7414 C   0  0  0  0  0  0  0  0  0  0  0  0
    1.5294    0.1638    1.8965 C   0  0  0  0  0  0  0  0  0  0  0  0
    1.3395    0.1302    0.4584 C   0  0  0  0  0  0  0  0  0  0  0  0
    2.5223    0.0644   -0.6376 S   0  0  0  0  0  0  0  0  0  0  0  0
    0.6484    0.2428    3.8134 H   0  0  0  0  0  0  0  0  0  0  0  0
   -0.5218    0.2392    2.3825 H   0  0  0  0  0  0  0  0  0  0  0  0
    2.5522    0.1426    2.2558 H   0  0  0  0  0  0  0  0  0  0  0  0
  1  2  3  0
  1  7  1  0
  2  3  1  0
  3  4  1  0
  3  5  1  0
  4  9  1  0
  4 10  1  0
  4 11  1  0
  5  6  3  0
  6 12  1  0
  8 15  1  0
 13 14  2  3
 13 17  1  0
 13 18  1  0
 14 15  1  0
 14 19  1  0
 15 16  2  0
M  RAD  1   3   2
M  END
>  <reaction>  (9) 
rxn_1431

>  <mol_properties>  (9) 
{"1": {"label": "*0", "atom_type": "Ct"}, "2": {"label": "*1", "atom_type": "Cs"}, "7": {"label": "*2", "atom_type": "H0"}, "14": {"label": "*3", "atom_type": "CS"}, "15": {"label": "*4", "atom_type": "S2d"}}

>  <type>  (9) 
unop_5

>  <geom_source>  (9) 
Heuristics

$$$$

     RDKit          3D

 19 17  0  0  0  0  0  0  0  0999 V2000
   -1.1068    0.2085   -3.0408 C   0  0  0  0  0  0  0  0  0  0  0  0
   -1.1068    0.2085   -1.8446 C   0  0  0  0  0  0  0  0  0  0  0  0
   -1.1068    0.2486   -0.3781 C   0  0  0  0  0  3  0  0  0  0  0  0
   -1.7448    1.5478    0.1439 C   0  0  0  0  0  0  0  0  0  0  0  0
   -1.7686   -0.9326    0.1867 C   0  0  0  0  0  0  0  0  0  0  0  0
   -2.3168   -1.8779    0.6732 C   0  0  0  0  0  0  0  0  0  0  0  0
   -1.1068    0.2085   -4.1043 H   0  0  0  0  0  0  0  0  0  0  0  0
    0.1468    0.2213    0.0150 H   0  0  0  0  0  0  0  0  0  0  0  0
   -2.7881    1.6051   -0.1638 H   0  0  0  0  0  0  0  0  0  0  0  0
   -1.2122    2.4092   -0.2577 H   0  0  0  0  0  0  0  0  0  0  0  0
   -1.6976    1.5722    1.2321 H   0  0  0  0  0  0  0  0  0  0  0  0
   -2.8043   -2.7183    1.1057 H   0  0  0  0  0  0  0  0  0  0  0  0
    1.6602   -2.1509   -0.1876 C   0  0  0  0  0  0  0  0  0  0  0  0
    1.9392   -1.1335    0.6256 C   0  0  0  0  0  0  0  0  0  0  0  0
    1.3964    0.1942    0.4069 C   0  0  0  0  0  0  0  0  0  0  0  0
    1.6790    1.4825    1.3370 S   0  0  0  0  0  0  0  0  0  0  0  0
    2.0678   -3.1394   -0.0200 H   0  0  0  0  0  0  0  0  0  0  0  0
    1.0130   -2.0226   -1.0481 H   0  0  0  0  0  0  0  0  0  0  0  0
    2.5864   -1.2622    1.4859 H   0  0  0  0  0  0  0  0  0  0  0  0
  1  2  3  0
  1  7  1  0
  2  3  1  0
  3  4  1  0
  3  5  1  0
  4  9  1  0
  4 10  1  0
  4 11  1  0
  5  6  3  0
  6 12  1  0
  8 15  1  0
 13 14  2  3
 13 17  1  0
 13 18  1  0
 14 15  1  0
 14 19  1  0
 15 16  2  0
M  RAD  1   3   2
M  END
>  <reaction>  (10) 
rxn_1431

>  <mol_properties>  (10) 
{"1": {"label": "*0", "atom_type": "Ct"}, "2": {"label": "*1", "atom_type": "Cs"}, "7": {"label": "*2", "atom_type": "H0"}, "14": {"label": "*3", "atom_type": "CS"}, "15": {"label": "*4", "atom_type": "S2d"}}

>  <type>  (10) 
unop_6

>  <geom_source>  (10) 
Heuristics

$$$$

     RDKit          3D

 19 17  0  0  0  0  0  0  0  0999 V2000
   -1.0997    0.1414   -3.0590 C   0  0  0  0  0  0  0  0  0  0  0  0
   -1.0997    0.1414   -1.8629 C   0  0  0  0  0  0  0  0  0  0  0  0
   -1.0997    0.1815   -0.3963 C   0  0  0  0  0  3  0  0  0  0  0  0
   -1.7378    1.4807    0.1257 C   0  0  0  0  0  0  0  0  0  0  0  0
   -1.7616   -0.9998    0.1685 C   0  0  0  0  0  0  0  0  0  0  0  0
   -2.3098   -1.9450    0.6549 C   0  0  0  0  0  0  0  0  0  0  0  0
   -1.0997    0.1414   -4.1225 H   0  0  0  0  0  0  0  0  0  0  0  0
    0.1539    0.1542   -0.0032 H   0  0  0  0  0  0  0  0  0  0  0  0
   -2.7810    1.5380   -0.1821 H   0  0  0  0  0  0  0  0  0  0  0  0
   -1.2051    2.3421   -0.2760 H   0  0  0  0  0  0  0  0  0  0  0  0
   -1.6906    1.5051    1.2139 H   0  0  0  0  0  0  0  0  0  0  0  0
   -2.7972   -2.7855    1.0875 H   0  0  0  0  0  0  0  0  0  0  0  0
    1.3134   -2.2324    0.9781 C   0  0  0  0  0  0  0  0  0  0  0  0
    1.7552   -1.0013    1.2302 C   0  0  0  0  0  0  0  0  0  0  0  0
    1.4034    0.1271    0.3887 C   0  0  0  0  0  0  0  0  0  0  0  0
    1.8906    1.6487    0.6168 S   0  0  0  0  0  0  0  0  0  0  0  0
    1.5788   -3.0707    1.6091 H   0  0  0  0  0  0  0  0  0  0  0  0
    0.6706   -2.4368    0.1291 H   0  0  0  0  0  0  0  0  0  0  0  0
    2.3980   -0.7973    2.0792 H   0  0  0  0  0  0  0  0  0  0  0  0
  1  2  3  0
  1  7  1  0
  2  3  1  0
  3  4  1  0
  3  5  1  0
  4  9  1  0
  4 10  1  0
  4 11  1  0
  5  6  3  0
  6 12  1  0
  8 15  1  0
 13 14  2  3
 13 17  1  0
 13 18  1  0
 14 15  1  0
 14 19  1  0
 15 16  2  0
M  RAD  1   3   2
M  END
>  <reaction>  (11) 
rxn_1431

>  <mol_properties>  (11) 
{"1": {"label": "*0", "atom_type": "Ct"}, "2": {"label": "*1", "atom_type": "Cs"}, "7": {"label": "*2", "atom_type": "H0"}, "14": {"label": "*3", "atom_type": "CS"}, "15": {"label": "*4", "atom_type": "S2d"}}

>  <type>  (11) 
unop_7

>  <geom_source>  (11) 
Heuristics

$$$$

     RDKit          3D

 19 17  0  0  0  0  0  0  0  0999 V2000
   -1.1108    0.0746   -3.0371 C   0  0  0  0  0  0  0  0  0  0  0  0
   -1.1108    0.0746   -1.8410 C   0  0  0  0  0  0  0  0  0  0  0  0
   -1.1108    0.1146   -0.3744 C   0  0  0  0  0  3  0  0  0  0  0  0
   -1.7489    1.4138    0.1476 C   0  0  0  0  0  0  0  0  0  0  0  0
   -1.7727   -1.0666    0.1904 C   0  0  0  0  0  0  0  0  0  0  0  0
   -2.3209   -2.0119    0.6768 C   0  0  0  0  0  0  0  0  0  0  0  0
   -1.1108    0.0746   -4.1006 H   0  0  0  0  0  0  0  0  0  0  0  0
    0.1428    0.0874    0.0187 H   0  0  0  0  0  0  0  0  0  0  0  0
   -2.7921    1.4711   -0.1602 H   0  0  0  0  0  0  0  0  0  0  0  0
   -1.2162    2.2753   -0.2541 H   0  0  0  0  0  0  0  0  0  0  0  0
   -1.7017    1.4383    1.2358 H   0  0  0  0  0  0  0  0  0  0  0  0
   -2.8083   -2.8523    1.1094 H   0  0  0  0  0  0  0  0  0  0  0  0
    1.7966    2.3491   -0.3105 C   0  0  0  0  0  0  0  0  0  0  0  0
    2.0148    1.3626    0.5574 C   0  0  0  0  0  0  0  0  0  0  0  0
    1.3923    0.0602    0.4106 C   0  0  0  0  0  0  0  0  0  0  0  0
    1.5980   -1.1902    1.4100 S   0  0  0  0  0  0  0  0  0  0  0  0
    2.2635    3.3189   -0.1965 H   0  0  0  0  0  0  0  0  0  0  0  0
    1.1414    2.2134   -1.1638 H   0  0  0  0  0  0  0  0  0  0  0  0
    2.6700    1.4986    1.4105 H   0  0  0  0  0  0  0  0  0  0  0  0
  1  2  3  0
  1  7  1  0
  2  3  1  0
  3  4  1  0
  3  5  1  0
  4  9  1  0
  4 10  1  0
  4 11  1  0
  5  6  3  0
  6 12  1  0
  8 15  1  0
 13 14  2  3
 13 17  1  0
 13 18  1  0
 14 15  1  0
 14 19  1  0
 15 16  2  0
M  RAD  1   3   2
M  END
>  <reaction>  (12) 
rxn_1431

>  <mol_properties>  (12) 
{"1": {"label": "*0", "atom_type": "Ct"}, "2": {"label": "*1", "atom_type": "Cs"}, "7": {"label": "*2", "atom_type": "H0"}, "14": {"label": "*3", "atom_type": "CS"}, "15": {"label": "*4", "atom_type": "S2d"}}

>  <type>  (12) 
unop_8

>  <geom_source>  (12) 
Heuristics

$$$$

     RDKit          3D

 19 17  0  0  0  0  0  0  0  0999 V2000
   -1.1746    0.2201   -2.9235 C   0  0  0  0  0  0  0  0  0  0  0  0
   -1.1746    0.2201   -1.7273 C   0  0  0  0  0  0  0  0  0  0  0  0
   -1.1746    0.2602   -0.2608 C   0  0  0  0  0  3  0  0  0  0  0  0
   -1.8126    1.5594    0.2612 C   0  0  0  0  0  0  0  0  0  0  0  0
   -1.8364   -0.9211    0.3040 C   0  0  0  0  0  0  0  0  0  0  0  0
   -2.3847   -1.8663    0.7905 C   0  0  0  0  0  0  0  0  0  0  0  0
   -1.1746    0.2201   -3.9870 H   0  0  0  0  0  0  0  0  0  0  0  0
    0.0790    0.2329    0.1323 H   0  0  0  0  0  0  0  0  0  0  0  0
   -2.8559    1.6167   -0.0466 H   0  0  0  0  0  0  0  0  0  0  0  0
   -1.2800    2.4208   -0.1404 H   0  0  0  0  0  0  0  0  0  0  0  0
   -1.7654    1.5838    1.3494 H   0  0  0  0  0  0  0  0  0  0  0  0
   -2.8721   -2.7068    1.2230 H   0  0  0  0  0  0  0  0  0  0  0  0
    1.9091   -0.7751   -1.6260 C   0  0  0  0  0  0  0  0  0  0  0  0
    2.2314   -0.5044   -0.3623 C   0  0  0  0  0  0  0  0  0  0  0  0
    1.3285    0.2058    0.5242 C   0  0  0  0  0  0  0  0  0  0  0  0
    1.6336    0.5763    2.0651 S   0  0  0  0  0  0  0  0  0  0  0  0
    2.5863   -1.3052   -2.2831 H   0  0  0  0  0  0  0  0  0  0  0  0
    0.9540   -0.4723   -2.0405 H   0  0  0  0  0  0  0  0  0  0  0  0
    3.1865   -0.8073    0.0519 H   0  0  0  0  0  0  0  0  0  0  0  0
  1  2  3  0
  1  7  1  0
  2  3  1  0
  3  4  1  0
  3  5  1  0
  4  9  1  0
  4 10  1  0
  4 11  1  0
  5  6  3  0
  6 12  1  0
  8 15  1  0
 13 14  2  3
 13 17  1  0
 13 18  1  0
 14 15  1  0
 14 19  1  0
 15 16  2  0
M  RAD  1   3   2
M  END
>  <reaction>  (13) 
rxn_1431

>  <mol_properties>  (13) 
{"1": {"label": "*0", "atom_type": "Ct"}, "2": {"label": "*1", "atom_type": "Cs"}, "7": {"label": "*2", "atom_type": "H0"}, "14": {"label": "*3", "atom_type": "CS"}, "15": {"label": "*4", "atom_type": "S2d"}}

>  <type>  (13) 
unop_9

>  <geom_source>  (13) 
Heuristics

$$$$

     RDKit          3D

 19 17  0  0  0  0  0  0  0  0999 V2000
   -1.1437    0.0452   -2.9798 C   0  0  0  0  0  0  0  0  0  0  0  0
   -1.1437    0.0452   -1.7836 C   0  0  0  0  0  0  0  0  0  0  0  0
   -1.1437    0.0852   -0.3171 C   0  0  0  0  0  3  0  0  0  0  0  0
   -1.7817    1.3845    0.2049 C   0  0  0  0  0  0  0  0  0  0  0  0
   -1.8056   -1.0960    0.2477 C   0  0  0  0  0  0  0  0  0  0  0  0
   -2.3538   -2.0413    0.7342 C   0  0  0  0  0  0  0  0  0  0  0  0
   -1.1437    0.0452   -4.0432 H   0  0  0  0  0  0  0  0  0  0  0  0
    0.1099    0.0580    0.0761 H   0  0  0  0  0  0  0  0  0  0  0  0
   -2.8250    1.4417   -0.1028 H   0  0  0  0  0  0  0  0  0  0  0  0
   -1.2491    2.2459   -0.1967 H   0  0  0  0  0  0  0  0  0  0  0  0
   -1.7346    1.4089    1.2932 H   0  0  0  0  0  0  0  0  0  0  0  0
   -2.8412   -2.8817    1.1667 H   0  0  0  0  0  0  0  0  0  0  0  0
    1.9516    1.7149   -1.1861 C   0  0  0  0  0  0  0  0  0  0  0  0
    2.1729    1.1339   -0.0081 C   0  0  0  0  0  0  0  0  0  0  0  0
    1.3594    0.0308    0.4679 C   0  0  0  0  0  0  0  0  0  0  0  0
    1.5539   -0.7316    1.8770 S   0  0  0  0  0  0  0  0  0  0  0  0
    2.5614    2.5374   -1.5366 H   0  0  0  0  0  0  0  0  0  0  0  0
    1.1500    1.3820   -1.8361 H   0  0  0  0  0  0  0  0  0  0  0  0
    2.9745    1.4670    0.6415 H   0  0  0  0  0  0  0  0  0  0  0  0
  1  2  3  0
  1  7  1  0
  2  3  1  0
  3  4  1  0
  3  5  1  0
  4  9  1  0
  4 10  1  0
  4 11  1  0
  5  6  3  0
  6 12  1  0
  8 15  1  0
 13 14  2  3
 13 17  1  0
 13 18  1  0
 14 15  1  0
 14 19  1  0
 15 16  2  0
M  RAD  1   3   2
M  END
>  <reaction>  (14) 
rxn_1431

>  <mol_properties>  (14) 
{"1": {"label": "*0", "atom_type": "Ct"}, "2": {"label": "*1", "atom_type": "Cs"}, "7": {"label": "*2", "atom_type": "H0"}, "14": {"label": "*3", "atom_type": "CS"}, "15": {"label": "*4", "atom_type": "S2d"}}

>  <type>  (14) 
unop_10

>  <geom_source>  (14) 
Heuristics

$$$$

     RDKit          3D

 19 17  0  0  0  0  0  0  0  0999 V2000
   -1.1286    0.0934   -3.0272 C   0  0  0  0  0  0  0  0  0  0  0  0
   -1.1286    0.0934   -1.8310 C   0  0  0  0  0  0  0  0  0  0  0  0
   -1.1286    0.1335   -0.3645 C   0  0  0  0  0  3  0  0  0  0  0  0
   -1.7666    1.4327    0.1575 C   0  0  0  0  0  0  0  0  0  0  0  0
   -1.7904   -1.0478    0.2003 C   0  0  0  0  0  0  0  0  0  0  0  0
   -2.3387   -1.9930    0.6868 C   0  0  0  0  0  0  0  0  0  0  0  0
   -1.1286    0.0934   -4.0906 H   0  0  0  0  0  0  0  0  0  0  0  0
    0.1250    0.1062    0.0287 H   0  0  0  0  0  0  0  0  0  0  0  0
   -2.8099    1.4900   -0.1502 H   0  0  0  0  0  0  0  0  0  0  0  0
   -1.2340    2.2941   -0.2441 H   0  0  0  0  0  0  0  0  0  0  0  0
   -1.7194    1.4571    1.2458 H   0  0  0  0  0  0  0  0  0  0  0  0
   -2.8261   -2.8335    1.1193 H   0  0  0  0  0  0  0  0  0  0  0  0
    0.8298   -1.5476    2.1467 C   0  0  0  0  0  0  0  0  0  0  0  0
    1.5972   -0.5511    1.7084 C   0  0  0  0  0  0  0  0  0  0  0  0
    1.3746    0.0791    0.4205 C   0  0  0  0  0  0  0  0  0  0  0  0
    2.2511    1.2888   -0.1902 S   0  0  0  0  0  0  0  0  0  0  0  0
    1.0002   -2.0143    3.1082 H   0  0  0  0  0  0  0  0  0  0  0  0
    0.0054   -1.9263    1.5527 H   0  0  0  0  0  0  0  0  0  0  0  0
    2.4214   -0.1727    2.3026 H   0  0  0  0  0  0  0  0  0  0  0  0
  1  2  3  0
  1  7  1  0
  2  3  1  0
  3  4  1  0
  3  5  1  0
  4  9  1  0
  4 10  1  0
  4 11  1  0
  5  6  3  0
  6 12  1  0
  8 15  1  0
 13 14  2  3
 13 17  1  0
 13 18  1  0
 14 15  1  0
 14 19  1  0
 15 16  2  0
M  RAD  1   3   2
M  END
>  <reaction>  (15) 
rxn_1431

>  <mol_properties>  (15) 
{"1": {"label": "*0", "atom_type": "Ct"}, "2": {"label": "*1", "atom_type": "Cs"}, "7": {"label": "*2", "atom_type": "H0"}, "14": {"label": "*3", "atom_type": "CS"}, "15": {"label": "*4", "atom_type": "S2d"}}

>  <type>  (15) 
unop_11

>  <geom_source>  (15) 
Heuristics

$$$$

     RDKit          3D

 19 17  0  0  0  0  0  0  0  0999 V2000
   -1.1933    0.1480   -2.8947 C   0  0  0  0  0  0  0  0  0  0  0  0
   -1.1933    0.1480   -1.6985 C   0  0  0  0  0  0  0  0  0  0  0  0
   -1.1933    0.1881   -0.2319 C   0  0  0  0  0  3  0  0  0  0  0  0
   -1.8313    1.4873    0.2901 C   0  0  0  0  0  0  0  0  0  0  0  0
   -1.8551   -0.9931    0.3328 C   0  0  0  0  0  0  0  0  0  0  0  0
   -2.4034   -1.9384    0.8193 C   0  0  0  0  0  0  0  0  0  0  0  0
   -1.1933    0.1480   -3.9581 H   0  0  0  0  0  0  0  0  0  0  0  0
    0.0603    0.1609    0.1612 H   0  0  0  0  0  0  0  0  0  0  0  0
   -2.8746    1.5446   -0.0177 H   0  0  0  0  0  0  0  0  0  0  0  0
   -1.2987    2.3488   -0.1116 H   0  0  0  0  0  0  0  0  0  0  0  0
   -1.7841    1.5118    1.3783 H   0  0  0  0  0  0  0  0  0  0  0  0
   -2.8908   -2.7788    1.2518 H   0  0  0  0  0  0  0  0  0  0  0  0
    1.9221    0.0508   -1.8008 C   0  0  0  0  0  0  0  0  0  0  0  0
    2.2852    0.0748   -0.5196 C   0  0  0  0  0  0  0  0  0  0  0  0
    1.3098    0.1337    0.5531 C   0  0  0  0  0  0  0  0  0  0  0  0
    1.6569    0.1663    2.1289 S   0  0  0  0  0  0  0  0  0  0  0  0
    2.6537    0.0069   -2.5972 H   0  0  0  0  0  0  0  0  0  0  0  0
    0.8773    0.0746   -2.0903 H   0  0  0  0  0  0  0  0  0  0  0  0
    3.3299    0.0511   -0.2305 H   0  0  0  0  0  0  0  0  0  0  0  0
  1  2  3  0
  1  7  1  0
  2  3  1  0
  3  4  1  0
  3  5  1  0
  4  9  1  0
  4 10  1  0
  4 11  1  0
  5  6  3  0
  6 12  1  0
  8 15  1  0
 13 14  2  3
 13 17  1  0
 13 18  1  0
 14 15  1  0
 14 19  1  0
 15 16  2  0
M  RAD  1   3   2
M  END
>  <reaction>  (16) 
rxn_1431

>  <mol_properties>  (16) 
{"1": {"label": "*0", "atom_type": "Ct"}, "2": {"label": "*1", "atom_type": "Cs"}, "7": {"label": "*2", "atom_type": "H0"}, "14": {"label": "*3", "atom_type": "CS"}, "15": {"label": "*4", "atom_type": "S2d"}}

>  <type>  (16) 
unop_12

>  <geom_source>  (16) 
Heuristics

$$$$

     RDKit          3D

 19 17  0  0  0  0  0  0  0  0999 V2000
    1.8124    0.5456   -2.1400 S   0  0  0  0  0  0  0  0  0  0  0  0
   -1.5791   -1.3537   -0.5274 C   0  0  0  0  0  0  0  0  0  0  0  0
   -1.1224   -0.0058    0.0235 C   0  0  0  0  0  3  0  0  0  0  0  0
    2.3441   -0.1395    0.4616 C   0  0  0  0  0  0  0  0  0  0  0  0
    3.6352   -0.3783    0.2307 C   0  0  0  0  0  0  0  0  0  0  0  0
    1.3910    0.2993   -0.5746 C   0  0  0  0  0  0  0  0  0  0  0  0
   -1.6098    1.0921   -0.8202 C   0  0  0  0  0  0  0  0  0  0  0  0
   -1.5972    0.1804    1.4000 C   0  0  0  0  0  0  0  0  0  0  0  0
   -2.0087    1.9939   -1.5143 C   0  0  0  0  0  0  0  0  0  0  0  0
   -1.9857    0.3326    2.5313 C   0  0  0  0  0  0  0  0  0  0  0  0
   -1.1799   -2.1750    0.1051 H   0  0  0  0  0  0  0  0  0  0  0  0
   -1.1893   -1.4919   -1.5584 H   0  0  0  0  0  0  0  0  0  0  0  0
   -2.6891   -1.4187   -0.5478 H   0  0  0  0  0  0  0  0  0  0  0  0
    1.9657   -0.2735    1.4668 H   0  0  0  0  0  0  0  0  0  0  0  0
    4.0735   -0.2626   -0.7515 H   0  0  0  0  0  0  0  0  0  0  0  0
    4.2754   -0.6982    1.0426 H   0  0  0  0  0  0  0  0  0  0  0  0
    0.1499    0.5017   -0.2280 H   0  0  0  0  0  0  0  0  0  0  0  0
   -2.3589    2.7852   -2.1235 H   0  0  0  0  0  0  0  0  0  0  0  0
   -2.3269    0.4662    3.5242 H   0  0  0  0  0  0  0  0  0  0  0  0
  1  6  2  0
  2  3  1  0
  2 11  1  0
  2 12  1  0
  2 13  1  0
  3  7  1  0
  3  8  1  0
  4  5  2  3
  4  6  1  0
  4 14  1  0
  5 15  1  0
  5 16  1  0
  6 17  1  0
  7  9  3  0
  8 10  3  0
  9 18  1  0
 10 19  1  0
M  RAD  1   3   2
M  END
>  <reaction>  (17) 
rxn_1431

>  <mol_properties>  (17) 
{"1": {"label": "*0", "atom_type": "Ct"}, "2": {"label": "*1", "atom_type": "Cs"}, "7": {"label": "*2", "atom_type": "H0"}, "14": {"label": "*3", "atom_type": "CS"}, "15": {"label": "*4", "atom_type": "S2d"}}

>  <type>  (17) 
unop_13

>  <geom_source>  (17) 
AutoTST

$$$$
