
     RDKit          3D

 15 15  0  0  0  0  0  0  0  0999 V2000
    2.2031   -0.2111   -0.1693 C   0  0  0  0  0  0  0  0  0  0  0  0
    0.7140   -0.0314   -0.0623 C   0  0  0  0  0  0  0  0  0  0  0  0
   -0.0114    0.5491   -1.0982 C   0  0  0  0  0  0  0  0  0  0  0  0
   -1.3882    0.6886   -1.0150 C   0  0  0  0  0  0  0  0  0  0  0  0
   -2.0661    0.2493    0.1118 C   0  0  0  0  0  0  0  0  0  0  0  0
   -1.3551   -0.3278    1.1528 C   0  0  0  0  0  0  0  0  0  0  0  0
    0.0216   -0.4648    1.0642 C   0  0  0  0  0  0  0  0  0  0  0  0
    2.6776   -0.1836    0.8122 H   0  0  0  0  0  0  0  0  0  0  0  0
    2.4446   -1.1749   -0.6249 H   0  0  0  0  0  0  0  0  0  0  0  0
    2.6532    0.5664   -0.7875 H   0  0  0  0  0  0  0  0  0  0  0  0
    0.5104    0.8989   -1.9819 H   0  0  0  0  0  0  0  0  0  0  0  0
   -1.9328    1.1452   -1.8322 H   0  0  0  0  0  0  0  0  0  0  0  0
   -3.1409    0.3597    0.1800 H   0  0  0  0  0  0  0  0  0  0  0  0
   -1.8736   -0.6702    2.0398 H   0  0  0  0  0  0  0  0  0  0  0  0
    0.5695   -0.9141    1.8849 H   0  0  0  0  0  0  0  0  0  0  0  0
  1  2  1  0
  1  8  1  0
  1  9  1  0
  1 10  1  0
  2  3  2  0
  2  7  1  0
  3  4  1  0
  3 11  1  0
  4  5  2  0
  4 12  1  0
  5  6  1  0
  5 13  1  0
  6  7  2  0
  6 14  1  0
  7 15  1  0
M  END
>  <reaction>  (1) 
rxn_263

>  <mol_properties>  (1) 
{"0": {"label": "donator", "atom_type": "Cs"}, "7": {"label": "d_hydrogen", "atom_type": "H0"}}

>  <type>  (1) 
r1h

$$$$

     RDKit          3D

  1  0  0  0  0  0  0  0  0  0999 V2000
    0.0000    0.0000    0.0000 O   0  0  0  0  0 15  0  0  0  0  0  0
M  END
>  <reaction>  (2) 
rxn_263

>  <mol_properties>  (2) 
{"0": {"label": "acceptor", "atom_type": "O2s"}}

>  <type>  (2) 
r2

$$$$

     RDKit          3D

  2  1  0  0  0  0  0  0  0  0999 V2000
    0.0000    0.0000    0.4855 O   0  0  0  0  0  1  0  0  0  0  0  0
    0.0000    0.0000   -0.4855 H   0  0  0  0  0  0  0  0  0  0  0  0
  1  2  1  0
M  RAD  1   1   2
M  END
>  <reaction>  (3) 
rxn_263

>  <mol_properties>  (3) 
{"0": {"label": "acceptor", "atom_type": "O2s"}, "1": {"label": "a_hydrogen", "atom_type": "H0"}}

>  <type>  (3) 
r2h

$$$$

     RDKit          3D

 16 15  0  0  0  0  0  0  0  0999 V2000
    3.0177    1.0419    1.7218 O   0  0  0  0  0 15  0  0  0  0  0  0
    1.8776    0.4954   -0.4932 C   0  0  0  0  0  0  0  0  0  0  0  0
    0.4747    0.1110   -0.2705 C   0  0  0  0  0  0  0  0  0  0  0  0
   -0.5359    1.0744   -0.2575 C   0  0  0  0  0  0  0  0  0  0  0  0
    0.1285   -1.2207   -0.0331 C   0  0  0  0  0  0  0  0  0  0  0  0
   -1.8519    0.7169   -0.0234 C   0  0  0  0  0  0  0  0  0  0  0  0
   -2.1817   -0.6114    0.2068 C   0  0  0  0  0  0  0  0  0  0  0  0
   -1.1871   -1.5793    0.2011 C   0  0  0  0  0  0  0  0  0  0  0  0
    2.3803    0.7467    0.5889 H   0  0  0  0  0  0  0  0  0  0  0  0
    2.0161    1.4236   -1.0443 H   0  0  0  0  0  0  0  0  0  0  0  0
    2.5150   -0.2995   -0.8759 H   0  0  0  0  0  0  0  0  0  0  0  0
   -0.2817    2.1128   -0.4348 H   0  0  0  0  0  0  0  0  0  0  0  0
   -2.6240    1.4757   -0.0205 H   0  0  0  0  0  0  0  0  0  0  0  0
   -3.2112   -0.8915    0.3900 H   0  0  0  0  0  0  0  0  0  0  0  0
   -1.4392   -2.6169    0.3796 H   0  0  0  0  0  0  0  0  0  0  0  0
    0.9029   -1.9789   -0.0348 H   0  0  0  0  0  0  0  0  0  0  0  0
  2  3  1  0
  2  9  1  0
  2 10  1  0
  2 11  1  0
  3  4  2  0
  3  5  1  0
  4  6  1  0
  4 12  1  0
  5  8  2  0
  5 16  1  0
  6  7  2  0
  6 13  1  0
  7  8  1  0
  7 14  1  0
  8 15  1  0
M  END
>  <reaction>  (4) 
rxn_263

>  <mol_properties>  (4) 
{"0": {"label": "*3", "atom_type": "O2s"}, "1": {"label": "*1", "atom_type": "Cs"}, "2": {"label": "*0", "atom_type": "Cd"}, "8": {"label": "*2", "atom_type": "H0"}}

>  <type>  (4) 
ts

$$$$

     RDKit          3D

 16 15  0  0  0  0  0  0  0  0999 V2000
    0.1448    0.2999    1.9516 C   0  0  0  0  0  0  0  0  0  0  0  0
    0.1448    0.2999    0.4479 C   0  0  0  0  0  0  0  0  0  0  0  0
    0.1448    1.4942   -0.2661 C   0  0  0  0  0  3  0  0  0  0  0  0
    0.1753    1.4976   -1.6521 C   0  0  0  0  0  0  0  0  0  0  0  0
    0.2048    0.3006   -2.3512 C   0  0  0  0  0  0  0  0  0  0  0  0
    0.2017   -0.8968   -1.6521 C   0  0  0  0  0  0  0  0  0  0  0  0
    0.1712   -0.8941   -0.2661 C   0  0  0  0  0  0  0  0  0  0  0  0
   -0.4450   -0.7668    2.4277 H   0  0  0  0  0  0  0  0  0  0  0  0
    1.1671    0.3112    2.3384 H   0  0  0  0  0  0  0  0  0  0  0  0
   -0.3662    1.1778    2.3484 H   0  0  0  0  0  0  0  0  0  0  0  0
    0.1182    2.4353    0.2717 H   0  0  0  0  0  0  0  0  0  0  0  0
    0.1727    2.4388   -2.1879 H   0  0  0  0  0  0  0  0  0  0  0  0
    0.2260    0.3008   -3.4335 H   0  0  0  0  0  0  0  0  0  0  0  0
    0.2198   -1.8378   -2.1879 H   0  0  0  0  0  0  0  0  0  0  0  0
    0.1653   -1.8356    0.2717 H   0  0  0  0  0  0  0  0  0  0  0  0
   -0.9702   -1.7166    2.8516 O   0  0  0  0  0  1  0  0  0  0  0  0
  1  2  2  3
  1  9  1  0
  1 10  1  0
  2  3  1  0
  2  7  1  0
  3  4  1  0
  3 11  1  0
  4  5  2  0
  4 12  1  0
  5  6  1  0
  5 13  1  0
  6  7  2  0
  6 14  1  0
  7 15  1  0
  8 16  1  0
M  RAD  2   3   2  16   2
M  END
>  <reaction>  (5) 
rxn_263

>  <mol_properties>  (5) 
{"0": {"label": "*3", "atom_type": "O2s"}, "1": {"label": "*1", "atom_type": "Cs"}, "2": {"label": "*0", "atom_type": "Cd"}, "8": {"label": "*2", "atom_type": "H0"}}

>  <type>  (5) 
unop_1

>  <geom_source>  (5) 
Heuristics

$$$$

     RDKit          3D

 16 15  0  0  0  0  0  0  0  0999 V2000
    3.2925    0.9534   -1.3641 O   0  0  0  0  0  1  0  0  0  0  0  0
    0.4941   -0.1155    0.1728 C   0  0  0  0  0  0  0  0  0  0  0  0
   -0.0579    1.1184   -0.1968 C   0  0  0  0  0  3  0  0  0  0  0  0
   -0.3515   -1.1899    0.4876 C   0  0  0  0  0  0  0  0  0  0  0  0
   -1.4467    1.2768   -0.2514 C   0  0  0  0  0  0  0  0  0  0  0  0
   -2.2871    0.2043    0.0629 C   0  0  0  0  0  0  0  0  0  0  0  0
   -1.7398   -1.0284    0.4322 C   0  0  0  0  0  0  0  0  0  0  0  0
    1.9772   -0.2781    0.2291 C   0  0  0  0  0  0  0  0  0  0  0  0
    0.5852    1.9547   -0.4420 H   0  0  0  0  0  0  0  0  0  0  0  0
   -1.8713    2.2305   -0.5371 H   0  0  0  0  0  0  0  0  0  0  0  0
   -3.3615    0.3282    0.0203 H   0  0  0  0  0  0  0  0  0  0  0  0
   -2.3910   -1.8580    0.6753 H   0  0  0  0  0  0  0  0  0  0  0  0
    0.0640   -2.1481    0.7746 H   0  0  0  0  0  0  0  0  0  0  0  0
    2.3036   -1.0638   -0.4843 H   0  0  0  0  0  0  0  0  0  0  0  0
    2.2942   -0.5456    1.2590 H   0  0  0  0  0  0  0  0  0  0  0  0
    2.4961    0.1611   -0.8382 H   0  0  0  0  0  0  0  0  0  0  0  0
  1 16  1  0
  2  8  2  3
  2  3  1  0
  2  4  1  0
  3  5  1  0
  3  9  1  0
  4  7  2  0
  4 13  1  0
  5  6  2  0
  5 10  1  0
  6  7  1  0
  6 11  1  0
  7 12  1  0
  8 14  1  0
  8 15  1  0
M  RAD  2   1   2   3   2
M  END
>  <reaction>  (6) 
rxn_263

>  <mol_properties>  (6) 
{"0": {"label": "*3", "atom_type": "O2s"}, "1": {"label": "*1", "atom_type": "Cs"}, "2": {"label": "*0", "atom_type": "Cd"}, "8": {"label": "*2", "atom_type": "H0"}}

>  <type>  (6) 
unop_2

>  <geom_source>  (6) 
AutoTST

$$$$
