
     RDKit          3D

 11 10  0  0  0  0  0  0  0  0999 V2000
   -1.2710    0.1907   -0.2084 C   0  0  0  0  0  0  0  0  0  0  0  0
    0.0202   -0.6130   -0.2928 C   0  0  0  0  0  0  0  0  0  0  0  0
    0.1086   -1.6953    0.7756 C   0  0  0  0  0  0  0  0  0  0  0  0
   -1.3607    0.6851    0.7620 H   0  0  0  0  0  0  0  0  0  0  0  0
   -2.1429   -0.4567   -0.3299 H   0  0  0  0  0  0  0  0  0  0  0  0
   -1.3158    0.9602   -0.9809 H   0  0  0  0  0  0  0  0  0  0  0  0
    0.8757    0.0616   -0.1992 H   0  0  0  0  0  0  0  0  0  0  0  0
    0.0997   -1.0712   -1.2825 H   0  0  0  0  0  0  0  0  0  0  0  0
   -0.7198   -2.4022    0.6850 H   0  0  0  0  0  0  0  0  0  0  0  0
    1.0395   -2.2596    0.6989 H   0  0  0  0  0  0  0  0  0  0  0  0
    0.0624   -1.2603    1.7770 H   0  0  0  0  0  0  0  0  0  0  0  0
  1  2  1  0
  1  4  1  0
  1  5  1  0
  1  6  1  0
  2  3  1  0
  2  7  1  0
  2  8  1  0
  3  9  1  0
  3 10  1  0
  3 11  1  0
M  END
>  <reaction>  (1) 
rxn_406

>  <mol_properties>  (1) 
{"1": {"label": "donator", "atom_type": "Cs"}, "6": {"label": "d_hydrogen", "atom_type": "H0"}}

>  <type>  (1) 
r1h

$$$$

     RDKit          3D

 14 13  0  0  0  0  0  0  0  0999 V2000
   -0.0263    1.3824   -0.7006 C   0  0  0  0  0  0  0  0  0  0  0  0
   -0.2039   -0.0453   -0.3213 C   0  0  0  0  0  3  0  0  0  0  0  0
   -1.1121   -0.3782    0.8104 C   0  0  0  0  0  0  0  0  0  0  0  0
    0.8313   -1.0381   -0.7322 C   0  0  0  0  0  0  0  0  0  0  0  0
    0.3307   -2.3541   -0.9005 O   0  0  0  0  0  0  0  0  0  0  0  0
    0.6071    1.9181    0.0231 H   0  0  0  0  0  0  0  0  0  0  0  0
   -0.9831    1.9109   -0.7211 H   0  0  0  0  0  0  0  0  0  0  0  0
    0.4475    1.4899   -1.6787 H   0  0  0  0  0  0  0  0  0  0  0  0
   -2.0864    0.1051    0.6984 H   0  0  0  0  0  0  0  0  0  0  0  0
   -1.2623   -1.4541    0.9003 H   0  0  0  0  0  0  0  0  0  0  0  0
   -0.6968   -0.0235    1.7662 H   0  0  0  0  0  0  0  0  0  0  0  0
    1.6088   -1.1338    0.0391 H   0  0  0  0  0  0  0  0  0  0  0  0
    1.3350   -0.6925   -1.6447 H   0  0  0  0  0  0  0  0  0  0  0  0
   -0.3997   -2.3102   -1.5208 H   0  0  0  0  0  0  0  0  0  0  0  0
  1  2  1  0
  1  6  1  0
  1  7  1  0
  1  8  1  0
  2  3  1  0
  2  4  1  0
  3  9  1  0
  3 10  1  0
  3 11  1  0
  4  5  1  0
  4 12  1  0
  4 13  1  0
  5 14  1  0
M  RAD  1   2   2
M  END
>  <reaction>  (2) 
rxn_406

>  <mol_properties>  (2) 
{"1": {"label": "acceptor", "atom_type": "Cs"}}

>  <type>  (2) 
r2

$$$$

     RDKit          3D

 15 14  0  0  0  0  0  0  0  0999 V2000
   -0.6986    1.3249   -0.1641 C   0  0  0  0  0  0  0  0  0  0  0  0
   -0.2590   -0.0344    0.3671 C   0  0  0  0  0  0  0  0  0  0  0  0
   -0.4734   -0.1429    1.8733 C   0  0  0  0  0  0  0  0  0  0  0  0
   -0.9841   -1.1722   -0.3462 C   0  0  0  0  0  0  0  0  0  0  0  0
   -0.7805   -1.1911   -1.7444 O   0  0  0  0  0  0  0  0  0  0  0  0
   -0.1246    2.1306    0.2976 H   0  0  0  0  0  0  0  0  0  0  0  0
   -1.7557    1.4964    0.0581 H   0  0  0  0  0  0  0  0  0  0  0  0
   -0.5709    1.3852   -1.2449 H   0  0  0  0  0  0  0  0  0  0  0  0
    0.8141   -0.1541    0.1667 H   0  0  0  0  0  0  0  0  0  0  0  0
   -1.5346   -0.0466    2.1192 H   0  0  0  0  0  0  0  0  0  0  0  0
    0.0611    0.6480    2.4019 H   0  0  0  0  0  0  0  0  0  0  0  0
   -0.1249   -1.1023    2.2618 H   0  0  0  0  0  0  0  0  0  0  0  0
   -0.6918   -2.1316    0.1011 H   0  0  0  0  0  0  0  0  0  0  0  0
   -2.0629   -1.0627   -0.2056 H   0  0  0  0  0  0  0  0  0  0  0  0
    0.1528   -1.3298   -1.9125 H   0  0  0  0  0  0  0  0  0  0  0  0
  1  2  1  0
  1  6  1  0
  1  7  1  0
  1  8  1  0
  2  3  1  0
  2  4  1  0
  2  9  1  0
  3 10  1  0
  3 11  1  0
  3 12  1  0
  4  5  1  0
  4 13  1  0
  4 14  1  0
  5 15  1  0
M  END
>  <reaction>  (3) 
rxn_406

>  <mol_properties>  (3) 
{"1": {"label": "acceptor", "atom_type": "Cs"}, "14": {"label": "a_hydrogen", "atom_type": "H0"}}

>  <type>  (3) 
r2h

$$$$

     RDKit          3D

 25 23  0  0  0  0  0  0  0  0999 V2000
    1.3660   -0.9924   -0.8731 C   0  0  0  0  0  0  0  0  0  0  0  0
    0.5410   -0.8327    0.3797 C   0  0  0  0  0  0  0  0  0  0  0  0
   -0.0724   -2.1158    0.8858 C   0  0  0  0  0  0  0  0  0  0  0  0
    1.2146   -0.0389    1.4764 C   0  0  0  0  0  0  0  0  0  0  0  0
    1.7286    1.2087    1.0580 O   0  0  0  0  0  0  0  0  0  0  0  0
    2.2402   -1.6277   -0.6834 H   0  0  0  0  0  0  0  0  0  0  0  0
    1.7334   -0.0310   -1.2325 H   0  0  0  0  0  0  0  0  0  0  0  0
    0.7836   -1.4624   -1.6682 H   0  0  0  0  0  0  0  0  0  0  0  0
    0.7001   -2.8259    1.2039 H   0  0  0  0  0  0  0  0  0  0  0  0
   -0.7298   -1.9368    1.7400 H   0  0  0  0  0  0  0  0  0  0  0  0
   -0.6602   -2.6026    0.1047 H   0  0  0  0  0  0  0  0  0  0  0  0
    2.0777   -0.5960    1.8605 H   0  0  0  0  0  0  0  0  0  0  0  0
    0.5164    0.0876    2.3155 H   0  0  0  0  0  0  0  0  0  0  0  0
    0.9986    1.7423    0.7383 H   0  0  0  0  0  0  0  0  0  0  0  0
   -1.9147    0.0189   -1.7690 C   0  0  0  0  0  0  0  0  0  0  0  0
   -1.6471    0.5522   -0.3866 C   0  0  0  0  0  3  0  0  0  0  0  0
   -1.3522    2.0267   -0.3012 C   0  0  0  0  0  0  0  0  0  0  0  0
   -1.0928    0.2620   -2.4475 H   0  0  0  0  0  0  0  0  0  0  0  0
   -2.8279    0.4491   -2.1961 H   0  0  0  0  0  0  0  0  0  0  0  0
   -2.0346   -1.0661   -1.7628 H   0  0  0  0  0  0  0  0  0  0  0  0
   -0.5185   -0.1035    0.0252 H   0  0  0  0  0  0  0  0  0  0  0  0
   -2.3786    0.2193    0.3505 H   0  0  0  0  0  0  0  0  0  0  0  0
   -2.1977    2.6286   -0.6529 H   0  0  0  0  0  0  0  0  0  0  0  0
   -1.1463    2.3404    0.7257 H   0  0  0  0  0  0  0  0  0  0  0  0
   -0.4950    2.2933   -0.9279 H   0  0  0  0  0  0  0  0  0  0  0  0
  1  2  1  0
  1  6  1  0
  1  7  1  0
  1  8  1  0
  2  3  1  0
  2  4  1  0
  2 21  1  0
  3  9  1  0
  3 10  1  0
  3 11  1  0
  4  5  1  0
  4 12  1  0
  4 13  1  0
  5 14  1  0
 15 16  1  0
 15 18  1  0
 15 19  1  0
 15 20  1  0
 16 17  1  0
 16 22  1  0
 17 23  1  0
 17 24  1  0
 17 25  1  0
M  RAD  1  16   2
M  END
>  <reaction>  (4) 
rxn_406

>  <mol_properties>  (4) 
{"1": {"label": "*1", "atom_type": "Cs"}, "3": {"label": "*0", "atom_type": "Cs"}, "14": {"label": "*4", "atom_type": "Cs"}, "15": {"label": "*3", "atom_type": "Cs"}, "20": {"label": "*2", "atom_type": "H0"}}

>  <type>  (4) 
ts

$$$$

     RDKit          3D

 25 23  0  0  0  0  0  0  0  0999 V2000
    1.8539    0.3065    0.9755 C   0  0  0  0  0  0  0  0  0  0  0  0
    1.0099   -0.6431    0.1335 C   0  0  0  0  0  3  0  0  0  0  0  0
    1.8411   -1.8026   -0.4056 C   0  0  0  0  0  0  0  0  0  0  0  0
   -0.1814   -1.1783    0.9232 C   0  0  0  0  0  0  0  0  0  0  0  0
   -1.0488   -0.1704    1.4013 O   0  0  0  0  0  0  0  0  0  0  0  0
    2.3050   -0.2289    1.8159 H   0  0  0  0  0  0  0  0  0  0  0  0
    1.2481    1.1161    1.3824 H   0  0  0  0  0  0  0  0  0  0  0  0
    2.6616    0.7422    0.3841 H   0  0  0  0  0  0  0  0  0  0  0  0
    2.2471   -2.4001    0.4155 H   0  0  0  0  0  0  0  0  0  0  0  0
    1.2466   -2.4641   -1.0395 H   0  0  0  0  0  0  0  0  0  0  0  0
    2.6830   -1.4381   -0.9964 H   0  0  0  0  0  0  0  0  0  0  0  0
    0.1766   -1.7065    1.8111 H   0  0  0  0  0  0  0  0  0  0  0  0
   -0.7318   -1.9047    0.3105 H   0  0  0  0  0  0  0  0  0  0  0  0
   -1.4205    0.2913    0.6481 H   0  0  0  0  0  0  0  0  0  0  0  0
   -1.0934    0.6709   -2.2653 C   0  0  0  0  0  0  0  0  0  0  0  0
   -1.0934    0.6709   -0.7419 C   0  0  0  0  0  0  0  0  0  0  0  0
   -1.0934    2.0768   -0.1552 C   0  0  0  0  0  0  0  0  0  0  0  0
   -0.2120    1.1852   -2.6559 H   0  0  0  0  0  0  0  0  0  0  0  0
   -1.9749    1.1852   -2.6559 H   0  0  0  0  0  0  0  0  0  0  0  0
   -1.0934   -0.3440   -2.6664 H   0  0  0  0  0  0  0  0  0  0  0  0
   -0.0440    0.0153   -0.3051 H   0  0  0  0  0  0  0  0  0  0  0  0
   -1.9680    0.1246   -0.3779 H   0  0  0  0  0  0  0  0  0  0  0  0
   -1.9749    2.6353   -0.4794 H   0  0  0  0  0  0  0  0  0  0  0  0
   -1.0934    2.0561    0.9359 H   0  0  0  0  0  0  0  0  0  0  0  0
   -0.2120    2.6353   -0.4794 H   0  0  0  0  0  0  0  0  0  0  0  0
  1  2  1  0
  1  6  1  0
  1  7  1  0
  1  8  1  0
  2  3  1  0
  2  4  1  0
  3  9  1  0
  3 10  1  0
  3 11  1  0
  4  5  1  0
  4 12  1  0
  4 13  1  0
  5 14  1  0
 15 16  1  0
 15 18  1  0
 15 19  1  0
 15 20  1  0
 16 17  1  0
 16 21  1  0
 16 22  1  0
 17 23  1  0
 17 24  1  0
 17 25  1  0
M  RAD  1   2   2
M  END
>  <reaction>  (5) 
rxn_406

>  <mol_properties>  (5) 
{"1": {"label": "*1", "atom_type": "Cs"}, "3": {"label": "*0", "atom_type": "Cs"}, "14": {"label": "*4", "atom_type": "Cs"}, "15": {"label": "*3", "atom_type": "Cs"}, "20": {"label": "*2", "atom_type": "H0"}}

>  <type>  (5) 
unop_1

>  <geom_source>  (5) 
Heuristics

$$$$

     RDKit          3D

 25 23  0  0  0  0  0  0  0  0999 V2000
    1.7272   -0.8001   -0.7659 C   0  0  0  0  0  0  0  0  0  0  0  0
    0.6059   -0.9522    0.2551 C   0  0  0  0  0  3  0  0  0  0  0  0
    0.5072   -2.3849    0.7690 C   0  0  0  0  0  0  0  0  0  0  0  0
    0.7842    0.0106    1.4257 C   0  0  0  0  0  0  0  0  0  0  0  0
    0.8136    1.3715    1.0462 O   0  0  0  0  0  0  0  0  0  0  0  0
    2.6858   -1.0864   -0.3238 H   0  0  0  0  0  0  0  0  0  0  0  0
    1.8120    0.2318   -1.1067 H   0  0  0  0  0  0  0  0  0  0  0  0
    1.5556   -1.4385   -1.6348 H   0  0  0  0  0  0  0  0  0  0  0  0
    1.4290   -2.6749    1.2810 H   0  0  0  0  0  0  0  0  0  0  0  0
   -0.3192   -2.5044    1.4730 H   0  0  0  0  0  0  0  0  0  0  0  0
    0.3521   -3.0850   -0.0535 H   0  0  0  0  0  0  0  0  0  0  0  0
    1.7436   -0.1815    1.9138 H   0  0  0  0  0  0  0  0  0  0  0  0
   -0.0029   -0.1671    2.1706 H   0  0  0  0  0  0  0  0  0  0  0  0
   -0.0308    1.5938    0.6510 H   0  0  0  0  0  0  0  0  0  0  0  0
   -1.4974    0.3618   -2.1437 C   0  0  0  0  0  0  0  0  0  0  0  0
   -1.4974    0.3618   -0.6204 C   0  0  0  0  0  0  0  0  0  0  0  0
   -1.4974    1.7676   -0.0337 C   0  0  0  0  0  0  0  0  0  0  0  0
   -0.6160    0.8760   -2.5344 H   0  0  0  0  0  0  0  0  0  0  0  0
   -2.3789    0.8760   -2.5344 H   0  0  0  0  0  0  0  0  0  0  0  0
   -1.4974   -0.6531   -2.5449 H   0  0  0  0  0  0  0  0  0  0  0  0
   -0.4480   -0.2939   -0.1836 H   0  0  0  0  0  0  0  0  0  0  0  0
   -2.3720   -0.1846   -0.2564 H   0  0  0  0  0  0  0  0  0  0  0  0
   -2.3789    2.3261   -0.3578 H   0  0  0  0  0  0  0  0  0  0  0  0
   -1.4974    1.7469    1.0574 H   0  0  0  0  0  0  0  0  0  0  0  0
   -0.6160    2.3261   -0.3578 H   0  0  0  0  0  0  0  0  0  0  0  0
  1  2  1  0
  1  6  1  0
  1  7  1  0
  1  8  1  0
  2  3  1  0
  2  4  1  0
  3  9  1  0
  3 10  1  0
  3 11  1  0
  4  5  1  0
  4 12  1  0
  4 13  1  0
  5 14  1  0
 15 16  1  0
 15 18  1  0
 15 19  1  0
 15 20  1  0
 16 17  1  0
 16 21  1  0
 16 22  1  0
 17 23  1  0
 17 24  1  0
 17 25  1  0
M  RAD  1   2   2
M  END
>  <reaction>  (6) 
rxn_406

>  <mol_properties>  (6) 
{"1": {"label": "*1", "atom_type": "Cs"}, "3": {"label": "*0", "atom_type": "Cs"}, "14": {"label": "*4", "atom_type": "Cs"}, "15": {"label": "*3", "atom_type": "Cs"}, "20": {"label": "*2", "atom_type": "H0"}}

>  <type>  (6) 
unop_2

>  <geom_source>  (6) 
Heuristics

$$$$

     RDKit          3D

 25 23  0  0  0  0  0  0  0  0999 V2000
    1.4212    0.1594    1.5793 C   0  0  0  0  0  0  0  0  0  0  0  0
    1.0070   -0.4346    0.2382 C   0  0  0  0  0  3  0  0  0  0  0  0
    2.2161   -0.9101   -0.5609 C   0  0  0  0  0  0  0  0  0  0  0  0
    0.0174   -1.5822    0.4191 C   0  0  0  0  0  0  0  0  0  0  0  0
   -1.1701   -1.2117    1.0896 O   0  0  0  0  0  0  0  0  0  0  0  0
    1.9695   -0.5801    2.1699 H   0  0  0  0  0  0  0  0  0  0  0  0
    0.5511    0.4696    2.1580 H   0  0  0  0  0  0  0  0  0  0  0  0
    2.0712    1.0254    1.4406 H   0  0  0  0  0  0  0  0  0  0  0  0
    2.7444   -1.7034   -0.0247 H   0  0  0  0  0  0  0  0  0  0  0  0
    1.9246   -1.3022   -1.5376 H   0  0  0  0  0  0  0  0  0  0  0  0
    2.9223   -0.0943   -0.7232 H   0  0  0  0  0  0  0  0  0  0  0  0
    0.4727   -2.3637    1.0334 H   0  0  0  0  0  0  0  0  0  0  0  0
   -0.2121   -2.0269   -0.5584 H   0  0  0  0  0  0  0  0  0  0  0  0
   -1.6248   -0.5554    0.5594 H   0  0  0  0  0  0  0  0  0  0  0  0
   -1.0963    0.8794   -2.1606 C   0  0  0  0  0  0  0  0  0  0  0  0
   -1.0963    0.8794   -0.6373 C   0  0  0  0  0  0  0  0  0  0  0  0
   -1.0963    2.2853   -0.0506 C   0  0  0  0  0  0  0  0  0  0  0  0
   -0.2148    1.3937   -2.5512 H   0  0  0  0  0  0  0  0  0  0  0  0
   -1.9777    1.3937   -2.5512 H   0  0  0  0  0  0  0  0  0  0  0  0
   -1.0963   -0.1354   -2.5618 H   0  0  0  0  0  0  0  0  0  0  0  0
   -0.0468    0.2238   -0.2005 H   0  0  0  0  0  0  0  0  0  0  0  0
   -1.9708    0.3331   -0.2733 H   0  0  0  0  0  0  0  0  0  0  0  0
   -1.9777    2.8438   -0.3747 H   0  0  0  0  0  0  0  0  0  0  0  0
   -1.0963    2.2646    1.0405 H   0  0  0  0  0  0  0  0  0  0  0  0
   -0.2148    2.8438   -0.3747 H   0  0  0  0  0  0  0  0  0  0  0  0
  1  2  1  0
  1  6  1  0
  1  7  1  0
  1  8  1  0
  2  3  1  0
  2  4  1  0
  3  9  1  0
  3 10  1  0
  3 11  1  0
  4  5  1  0
  4 12  1  0
  4 13  1  0
  5 14  1  0
 15 16  1  0
 15 18  1  0
 15 19  1  0
 15 20  1  0
 16 17  1  0
 16 21  1  0
 16 22  1  0
 17 23  1  0
 17 24  1  0
 17 25  1  0
M  RAD  1   2   2
M  END
>  <reaction>  (7) 
rxn_406

>  <mol_properties>  (7) 
{"1": {"label": "*1", "atom_type": "Cs"}, "3": {"label": "*0", "atom_type": "Cs"}, "14": {"label": "*4", "atom_type": "Cs"}, "15": {"label": "*3", "atom_type": "Cs"}, "20": {"label": "*2", "atom_type": "H0"}}

>  <type>  (7) 
unop_3

>  <geom_source>  (7) 
Heuristics

$$$$

     RDKit          3D

 25 23  0  0  0  0  0  0  0  0999 V2000
    0.3325   -2.0545   -0.0564 C   0  0  0  0  0  0  0  0  0  0  0  0
    0.4074   -0.6245    0.4654 C   0  0  0  0  0  3  0  0  0  0  0  0
   -0.3457   -0.4690    1.7826 C   0  0  0  0  0  0  0  0  0  0  0  0
    1.8540   -0.1685    0.6348 C   0  0  0  0  0  0  0  0  0  0  0  0
    2.6096   -0.2114   -0.5585 O   0  0  0  0  0  0  0  0  0  0  0  0
    0.7512   -2.7496    0.6771 H   0  0  0  0  0  0  0  0  0  0  0  0
    0.8974   -2.1660   -0.9818 H   0  0  0  0  0  0  0  0  0  0  0  0
   -0.7016   -2.3495   -0.2446 H   0  0  0  0  0  0  0  0  0  0  0  0
    0.0979   -1.1011    2.5570 H   0  0  0  0  0  0  0  0  0  0  0  0
   -0.3245    0.5630    2.1395 H   0  0  0  0  0  0  0  0  0  0  0  0
   -1.3901   -0.7653    1.6728 H   0  0  0  0  0  0  0  0  0  0  0  0
    2.3672   -0.8340    1.3343 H   0  0  0  0  0  0  0  0  0  0  0  0
    1.8728    0.8399    1.0694 H   0  0  0  0  0  0  0  0  0  0  0  0
    2.2161    0.3951   -1.1878 H   0  0  0  0  0  0  0  0  0  0  0  0
   -1.6959    0.6895   -1.9333 C   0  0  0  0  0  0  0  0  0  0  0  0
   -1.6959    0.6895   -0.4100 C   0  0  0  0  0  0  0  0  0  0  0  0
   -1.6959    2.0953    0.1767 C   0  0  0  0  0  0  0  0  0  0  0  0
   -0.8145    1.2038   -2.3240 H   0  0  0  0  0  0  0  0  0  0  0  0
   -2.5774    1.2038   -2.3240 H   0  0  0  0  0  0  0  0  0  0  0  0
   -1.6959   -0.3254   -2.3345 H   0  0  0  0  0  0  0  0  0  0  0  0
   -0.6465    0.0339    0.0268 H   0  0  0  0  0  0  0  0  0  0  0  0
   -2.5704    0.1432   -0.0460 H   0  0  0  0  0  0  0  0  0  0  0  0
   -2.5774    2.6539   -0.1474 H   0  0  0  0  0  0  0  0  0  0  0  0
   -1.6959    2.0747    1.2678 H   0  0  0  0  0  0  0  0  0  0  0  0
   -0.8145    2.6539   -0.1474 H   0  0  0  0  0  0  0  0  0  0  0  0
  1  2  1  0
  1  6  1  0
  1  7  1  0
  1  8  1  0
  2  3  1  0
  2  4  1  0
  3  9  1  0
  3 10  1  0
  3 11  1  0
  4  5  1  0
  4 12  1  0
  4 13  1  0
  5 14  1  0
 15 16  1  0
 15 18  1  0
 15 19  1  0
 15 20  1  0
 16 17  1  0
 16 21  1  0
 16 22  1  0
 17 23  1  0
 17 24  1  0
 17 25  1  0
M  RAD  1   2   2
M  END
>  <reaction>  (8) 
rxn_406

>  <mol_properties>  (8) 
{"1": {"label": "*1", "atom_type": "Cs"}, "3": {"label": "*0", "atom_type": "Cs"}, "14": {"label": "*4", "atom_type": "Cs"}, "15": {"label": "*3", "atom_type": "Cs"}, "20": {"label": "*2", "atom_type": "H0"}}

>  <type>  (8) 
unop_4

>  <geom_source>  (8) 
Heuristics

$$$$

     RDKit          3D

 25 23  0  0  0  0  0  0  0  0999 V2000
    0.7936   -0.2759    1.9363 C   0  0  0  0  0  0  0  0  0  0  0  0
    0.8174   -0.2907    0.4125 C   0  0  0  0  0  3  0  0  0  0  0  0
    2.0647    0.3955   -0.1348 C   0  0  0  0  0  0  0  0  0  0  0  0
    0.7234   -1.7133   -0.1322 C   0  0  0  0  0  0  0  0  0  0  0  0
   -0.4438   -2.4019    0.2681 O   0  0  0  0  0  0  0  0  0  0  0  0
    1.6798   -0.7775    2.3356 H   0  0  0  0  0  0  0  0  0  0  0  0
   -0.0847   -0.7939    2.3214 H   0  0  0  0  0  0  0  0  0  0  0  0
    0.7875    0.7468    2.3184 H   0  0  0  0  0  0  0  0  0  0  0  0
    2.9673   -0.1293    0.1906 H   0  0  0  0  0  0  0  0  0  0  0  0
    2.0657    0.4187   -1.2267 H   0  0  0  0  0  0  0  0  0  0  0  0
    2.1336    1.4240    0.2233 H   0  0  0  0  0  0  0  0  0  0  0  0
    1.5610   -2.3054    0.2464 H   0  0  0  0  0  0  0  0  0  0  0  0
    0.8055   -1.6936   -1.2271 H   0  0  0  0  0  0  0  0  0  0  0  0
   -1.2049   -1.9368   -0.0826 H   0  0  0  0  0  0  0  0  0  0  0  0
   -1.2859    1.0233   -1.9863 C   0  0  0  0  0  0  0  0  0  0  0  0
   -1.2859    1.0233   -0.4630 C   0  0  0  0  0  0  0  0  0  0  0  0
   -1.2859    2.4291    0.1237 C   0  0  0  0  0  0  0  0  0  0  0  0
   -0.4045    1.5376   -2.3769 H   0  0  0  0  0  0  0  0  0  0  0  0
   -2.1674    1.5376   -2.3769 H   0  0  0  0  0  0  0  0  0  0  0  0
   -1.2859    0.0084   -2.3875 H   0  0  0  0  0  0  0  0  0  0  0  0
   -0.2365    0.3677   -0.0262 H   0  0  0  0  0  0  0  0  0  0  0  0
   -2.1605    0.4770   -0.0990 H   0  0  0  0  0  0  0  0  0  0  0  0
   -2.1674    2.9877   -0.2004 H   0  0  0  0  0  0  0  0  0  0  0  0
   -1.2859    2.4084    1.2148 H   0  0  0  0  0  0  0  0  0  0  0  0
   -0.4045    2.9877   -0.2004 H   0  0  0  0  0  0  0  0  0  0  0  0
  1  2  1  0
  1  6  1  0
  1  7  1  0
  1  8  1  0
  2  3  1  0
  2  4  1  0
  3  9  1  0
  3 10  1  0
  3 11  1  0
  4  5  1  0
  4 12  1  0
  4 13  1  0
  5 14  1  0
 15 16  1  0
 15 18  1  0
 15 19  1  0
 15 20  1  0
 16 17  1  0
 16 21  1  0
 16 22  1  0
 17 23  1  0
 17 24  1  0
 17 25  1  0
M  RAD  1   2   2
M  END
>  <reaction>  (9) 
rxn_406

>  <mol_properties>  (9) 
{"1": {"label": "*1", "atom_type": "Cs"}, "3": {"label": "*0", "atom_type": "Cs"}, "14": {"label": "*4", "atom_type": "Cs"}, "15": {"label": "*3", "atom_type": "Cs"}, "20": {"label": "*2", "atom_type": "H0"}}

>  <type>  (9) 
unop_5

>  <geom_source>  (9) 
Heuristics

$$$$

     RDKit          3D

 25 23  0  0  0  0  0  0  0  0999 V2000
    0.0465   -2.0090    0.6380 C   0  0  0  0  0  0  0  0  0  0  0  0
    0.4282   -0.5421    0.4779 C   0  0  0  0  0  3  0  0  0  0  0  0
   -0.0503    0.2932    1.6610 C   0  0  0  0  0  0  0  0  0  0  0  0
    1.9344   -0.3751    0.2970 C   0  0  0  0  0  0  0  0  0  0  0  0
    2.4541   -1.0605   -0.8242 O   0  0  0  0  0  0  0  0  0  0  0  0
    0.4763   -2.4158    1.5579 H   0  0  0  0  0  0  0  0  0  0  0  0
    0.4172   -2.6055   -0.1955 H   0  0  0  0  0  0  0  0  0  0  0  0
   -1.0373   -2.1282    0.6938 H   0  0  0  0  0  0  0  0  0  0  0  0
    0.4204   -0.0463    2.5878 H   0  0  0  0  0  0  0  0  0  0  0  0
    0.1898    1.3507    1.5308 H   0  0  0  0  0  0  0  0  0  0  0  0
   -1.1306    0.2070    1.7885 H   0  0  0  0  0  0  0  0  0  0  0  0
    2.4547   -0.7896    1.1647 H   0  0  0  0  0  0  0  0  0  0  0  0
    2.1821    0.6936    0.2469 H   0  0  0  0  0  0  0  0  0  0  0  0
    2.0536   -0.6952   -1.6147 H   0  0  0  0  0  0  0  0  0  0  0  0
   -1.6751    0.7719   -1.9208 C   0  0  0  0  0  0  0  0  0  0  0  0
   -1.6751    0.7719   -0.3975 C   0  0  0  0  0  0  0  0  0  0  0  0
   -1.6751    2.1777    0.1892 C   0  0  0  0  0  0  0  0  0  0  0  0
   -0.7936    1.2861   -2.3115 H   0  0  0  0  0  0  0  0  0  0  0  0
   -2.5566    1.2861   -2.3115 H   0  0  0  0  0  0  0  0  0  0  0  0
   -1.6751   -0.2430   -2.3220 H   0  0  0  0  0  0  0  0  0  0  0  0
   -0.6257    0.1163    0.0393 H   0  0  0  0  0  0  0  0  0  0  0  0
   -2.5496    0.2255   -0.0335 H   0  0  0  0  0  0  0  0  0  0  0  0
   -2.5566    2.7363   -0.1349 H   0  0  0  0  0  0  0  0  0  0  0  0
   -1.6751    2.1570    1.2803 H   0  0  0  0  0  0  0  0  0  0  0  0
   -0.7936    2.7363   -0.1349 H   0  0  0  0  0  0  0  0  0  0  0  0
  1  2  1  0
  1  6  1  0
  1  7  1  0
  1  8  1  0
  2  3  1  0
  2  4  1  0
  3  9  1  0
  3 10  1  0
  3 11  1  0
  4  5  1  0
  4 12  1  0
  4 13  1  0
  5 14  1  0
 15 16  1  0
 15 18  1  0
 15 19  1  0
 15 20  1  0
 16 17  1  0
 16 21  1  0
 16 22  1  0
 17 23  1  0
 17 24  1  0
 17 25  1  0
M  RAD  1   2   2
M  END
>  <reaction>  (10) 
rxn_406

>  <mol_properties>  (10) 
{"1": {"label": "*1", "atom_type": "Cs"}, "3": {"label": "*0", "atom_type": "Cs"}, "14": {"label": "*4", "atom_type": "Cs"}, "15": {"label": "*3", "atom_type": "Cs"}, "20": {"label": "*2", "atom_type": "H0"}}

>  <type>  (10) 
unop_6

>  <geom_source>  (10) 
Heuristics

$$$$

     RDKit          3D

 25 23  0  0  0  0  0  0  0  0999 V2000
   -0.0137   -1.6391    1.3396 C   0  0  0  0  0  0  0  0  0  0  0  0
    0.4695   -0.4642    0.4977 C   0  0  0  0  0  3  0  0  0  0  0  0
    0.4520    0.8381    1.2915 C   0  0  0  0  0  0  0  0  0  0  0  0
    1.8677   -0.7163   -0.0599 C   0  0  0  0  0  0  0  0  0  0  0  0
    1.9593   -1.8695   -0.8713 O   0  0  0  0  0  0  0  0  0  0  0  0
    0.6147   -1.7550    2.2274 H   0  0  0  0  0  0  0  0  0  0  0  0
    0.0297   -2.5713    0.7764 H   0  0  0  0  0  0  0  0  0  0  0  0
   -1.0412   -1.4849    1.6749 H   0  0  0  0  0  0  0  0  0  0  0  0
    1.1290    0.7763    2.1481 H   0  0  0  0  0  0  0  0  0  0  0  0
    0.7627    1.6874    0.6792 H   0  0  0  0  0  0  0  0  0  0  0  0
   -0.5477    1.0482    1.6752 H   0  0  0  0  0  0  0  0  0  0  0  0
    2.5662   -0.8787    0.7655 H   0  0  0  0  0  0  0  0  0  0  0  0
    2.2101    0.1716   -0.6080 H   0  0  0  0  0  0  0  0  0  0  0  0
    1.3914   -1.7488   -1.6340 H   0  0  0  0  0  0  0  0  0  0  0  0
   -1.6338    0.8498   -1.9011 C   0  0  0  0  0  0  0  0  0  0  0  0
   -1.6338    0.8498   -0.3778 C   0  0  0  0  0  0  0  0  0  0  0  0
   -1.6338    2.2556    0.2089 C   0  0  0  0  0  0  0  0  0  0  0  0
   -0.7524    1.3641   -2.2917 H   0  0  0  0  0  0  0  0  0  0  0  0
   -2.5153    1.3641   -2.2917 H   0  0  0  0  0  0  0  0  0  0  0  0
   -1.6338   -0.1651   -2.3023 H   0  0  0  0  0  0  0  0  0  0  0  0
   -0.5844    0.1942    0.0590 H   0  0  0  0  0  0  0  0  0  0  0  0
   -2.5084    0.3035   -0.0138 H   0  0  0  0  0  0  0  0  0  0  0  0
   -2.5153    2.8142   -0.1152 H   0  0  0  0  0  0  0  0  0  0  0  0
   -1.6338    2.2350    1.3001 H   0  0  0  0  0  0  0  0  0  0  0  0
   -0.7524    2.8142   -0.1152 H   0  0  0  0  0  0  0  0  0  0  0  0
  1  2  1  0
  1  6  1  0
  1  7  1  0
  1  8  1  0
  2  3  1  0
  2  4  1  0
  3  9  1  0
  3 10  1  0
  3 11  1  0
  4  5  1  0
  4 12  1  0
  4 13  1  0
  5 14  1  0
 15 16  1  0
 15 18  1  0
 15 19  1  0
 15 20  1  0
 16 17  1  0
 16 21  1  0
 16 22  1  0
 17 23  1  0
 17 24  1  0
 17 25  1  0
M  RAD  1   2   2
M  END
>  <reaction>  (11) 
rxn_406

>  <mol_properties>  (11) 
{"1": {"label": "*1", "atom_type": "Cs"}, "3": {"label": "*0", "atom_type": "Cs"}, "14": {"label": "*4", "atom_type": "Cs"}, "15": {"label": "*3", "atom_type": "Cs"}, "20": {"label": "*2", "atom_type": "H0"}}

>  <type>  (11) 
unop_7

>  <geom_source>  (11) 
Heuristics

$$$$

     RDKit          3D

 25 23  0  0  0  0  0  0  0  0999 V2000
    2.0644    0.1715    0.2718 C   0  0  0  0  0  0  0  0  0  0  0  0
    0.9135   -0.8148    0.1118 C   0  0  0  0  0  3  0  0  0  0  0  0
    1.4196   -2.2450   -0.0455 C   0  0  0  0  0  0  0  0  0  0  0  0
   -0.0585   -0.7317    1.2855 C   0  0  0  0  0  0  0  0  0  0  0  0
   -0.6336    0.5470    1.4609 O   0  0  0  0  0  0  0  0  0  0  0  0
    2.6706   -0.0894    1.1441 H   0  0  0  0  0  0  0  0  0  0  0  0
    1.6955    1.1872    0.4138 H   0  0  0  0  0  0  0  0  0  0  0  0
    2.7159    0.1592   -0.6041 H   0  0  0  0  0  0  0  0  0  0  0  0
    1.9703   -2.5590    0.8457 H   0  0  0  0  0  0  0  0  0  0  0  0
    0.5983   -2.9487   -0.1973 H   0  0  0  0  0  0  0  0  0  0  0  0
    2.0958   -2.3286   -0.8978 H   0  0  0  0  0  0  0  0  0  0  0  0
    0.4733   -0.9474    2.2161 H   0  0  0  0  0  0  0  0  0  0  0  0
   -0.8393   -1.4954    1.1705 H   0  0  0  0  0  0  0  0  0  0  0  0
   -1.1480    0.7573    0.6800 H   0  0  0  0  0  0  0  0  0  0  0  0
   -1.1898    0.4991   -2.2870 C   0  0  0  0  0  0  0  0  0  0  0  0
   -1.1898    0.4991   -0.7637 C   0  0  0  0  0  0  0  0  0  0  0  0
   -1.1898    1.9050   -0.1770 C   0  0  0  0  0  0  0  0  0  0  0  0
   -0.3083    1.0134   -2.6777 H   0  0  0  0  0  0  0  0  0  0  0  0
   -2.0712    1.0134   -2.6777 H   0  0  0  0  0  0  0  0  0  0  0  0
   -1.1898   -0.5157   -2.6882 H   0  0  0  0  0  0  0  0  0  0  0  0
   -0.1403   -0.1565   -0.3269 H   0  0  0  0  0  0  0  0  0  0  0  0
   -2.0643   -0.0472   -0.3997 H   0  0  0  0  0  0  0  0  0  0  0  0
   -2.0712    2.4635   -0.5011 H   0  0  0  0  0  0  0  0  0  0  0  0
   -1.1898    1.8843    0.9141 H   0  0  0  0  0  0  0  0  0  0  0  0
   -0.3083    2.4635   -0.5011 H   0  0  0  0  0  0  0  0  0  0  0  0
  1  2  1  0
  1  6  1  0
  1  7  1  0
  1  8  1  0
  2  3  1  0
  2  4  1  0
  3  9  1  0
  3 10  1  0
  3 11  1  0
  4  5  1  0
  4 12  1  0
  4 13  1  0
  5 14  1  0
 15 16  1  0
 15 18  1  0
 15 19  1  0
 15 20  1  0
 16 17  1  0
 16 21  1  0
 16 22  1  0
 17 23  1  0
 17 24  1  0
 17 25  1  0
M  RAD  1   2   2
M  END
>  <reaction>  (12) 
rxn_406

>  <mol_properties>  (12) 
{"1": {"label": "*1", "atom_type": "Cs"}, "3": {"label": "*0", "atom_type": "Cs"}, "14": {"label": "*4", "atom_type": "Cs"}, "15": {"label": "*3", "atom_type": "Cs"}, "20": {"label": "*2", "atom_type": "H0"}}

>  <type>  (12) 
unop_8

>  <geom_source>  (12) 
Heuristics

$$$$

     RDKit          3D

 25 23  0  0  0  0  0  0  0  0999 V2000
    0.7651   -1.8162   -0.5831 C   0  0  0  0  0  0  0  0  0  0  0  0
    0.4100   -0.7417    0.4379 C   0  0  0  0  0  3  0  0  0  0  0  0
   -0.3560   -1.3248    1.6209 C   0  0  0  0  0  0  0  0  0  0  0  0
    1.6549   -0.0101    0.9323 C   0  0  0  0  0  0  0  0  0  0  0  0
    2.3897    0.6244   -0.0946 O   0  0  0  0  0  0  0  0  0  0  0  0
    1.3714   -2.5983   -0.1172 H   0  0  0  0  0  0  0  0  0  0  0  0
    1.3382   -1.3986   -1.4109 H   0  0  0  0  0  0  0  0  0  0  0  0
   -0.1340   -2.2858   -0.9869 H   0  0  0  0  0  0  0  0  0  0  0  0
    0.2553   -2.0607    2.1507 H   0  0  0  0  0  0  0  0  0  0  0  0
   -0.6436   -0.5507    2.3357 H   0  0  0  0  0  0  0  0  0  0  0  0
   -1.2646   -1.8289    1.2876 H   0  0  0  0  0  0  0  0  0  0  0  0
    2.3427   -0.7271    1.3889 H   0  0  0  0  0  0  0  0  0  0  0  0
    1.3720    0.7122    1.7096 H   0  0  0  0  0  0  0  0  0  0  0  0
    1.8338    1.2950   -0.4945 H   0  0  0  0  0  0  0  0  0  0  0  0
   -1.6933    0.5723   -1.9609 C   0  0  0  0  0  0  0  0  0  0  0  0
   -1.6933    0.5723   -0.4376 C   0  0  0  0  0  0  0  0  0  0  0  0
   -1.6933    1.9781    0.1491 C   0  0  0  0  0  0  0  0  0  0  0  0
   -0.8118    1.0866   -2.3515 H   0  0  0  0  0  0  0  0  0  0  0  0
   -2.5747    1.0865   -2.3515 H   0  0  0  0  0  0  0  0  0  0  0  0
   -1.6933   -0.4426   -2.3621 H   0  0  0  0  0  0  0  0  0  0  0  0
   -0.6438   -0.0833   -0.0008 H   0  0  0  0  0  0  0  0  0  0  0  0
   -2.5678    0.0259   -0.0736 H   0  0  0  0  0  0  0  0  0  0  0  0
   -2.5747    2.5367   -0.1750 H   0  0  0  0  0  0  0  0  0  0  0  0
   -1.6933    1.9574    1.2402 H   0  0  0  0  0  0  0  0  0  0  0  0
   -0.8118    2.5367   -0.1750 H   0  0  0  0  0  0  0  0  0  0  0  0
  1  2  1  0
  1  6  1  0
  1  7  1  0
  1  8  1  0
  2  3  1  0
  2  4  1  0
  3  9  1  0
  3 10  1  0
  3 11  1  0
  4  5  1  0
  4 12  1  0
  4 13  1  0
  5 14  1  0
 15 16  1  0
 15 18  1  0
 15 19  1  0
 15 20  1  0
 16 17  1  0
 16 21  1  0
 16 22  1  0
 17 23  1  0
 17 24  1  0
 17 25  1  0
M  RAD  1   2   2
M  END
>  <reaction>  (13) 
rxn_406

>  <mol_properties>  (13) 
{"1": {"label": "*1", "atom_type": "Cs"}, "3": {"label": "*0", "atom_type": "Cs"}, "14": {"label": "*4", "atom_type": "Cs"}, "15": {"label": "*3", "atom_type": "Cs"}, "20": {"label": "*2", "atom_type": "H0"}}

>  <type>  (13) 
unop_9

>  <geom_source>  (13) 
Heuristics

$$$$

     RDKit          3D

 25 23  0  0  0  0  0  0  0  0999 V2000
    2.0209   -0.2323   -0.3635 C   0  0  0  0  0  0  0  0  0  0  0  0
    0.7685   -0.9268    0.1583 C   0  0  0  0  0  3  0  0  0  0  0  0
    0.9969   -2.4224    0.3514 C   0  0  0  0  0  0  0  0  0  0  0  0
    0.2872   -0.3000    1.4640 C   0  0  0  0  0  0  0  0  0  0  0  0
   -0.0186    1.0756    1.3581 O   0  0  0  0  0  0  0  0  0  0  0  0
    2.8539   -0.3784    0.3300 H   0  0  0  0  0  0  0  0  0  0  0  0
    1.8604    0.8404   -0.4707 H   0  0  0  0  0  0  0  0  0  0  0  0
    2.3180   -0.6364   -1.3332 H   0  0  0  0  0  0  0  0  0  0  0  0
    1.7782   -2.5999    1.0957 H   0  0  0  0  0  0  0  0  0  0  0  0
    0.0901   -2.9281    0.6901 H   0  0  0  0  0  0  0  0  0  0  0  0
    1.3158   -2.8923   -0.5804 H   0  0  0  0  0  0  0  0  0  0  0  0
    1.0775   -0.3705    2.2162 H   0  0  0  0  0  0  0  0  0  0  0  0
   -0.5770   -0.8610    1.8440 H   0  0  0  0  0  0  0  0  0  0  0  0
   -0.7412    1.1781    0.7368 H   0  0  0  0  0  0  0  0  0  0  0  0
   -1.3348    0.3872   -2.2405 C   0  0  0  0  0  0  0  0  0  0  0  0
   -1.3348    0.3872   -0.7171 C   0  0  0  0  0  0  0  0  0  0  0  0
   -1.3348    1.7930   -0.1304 C   0  0  0  0  0  0  0  0  0  0  0  0
   -0.4533    0.9015   -2.6311 H   0  0  0  0  0  0  0  0  0  0  0  0
   -2.2162    0.9015   -2.6311 H   0  0  0  0  0  0  0  0  0  0  0  0
   -1.3348   -0.6277   -2.6416 H   0  0  0  0  0  0  0  0  0  0  0  0
   -0.2853   -0.2684   -0.2803 H   0  0  0  0  0  0  0  0  0  0  0  0
   -2.2093   -0.1591   -0.3531 H   0  0  0  0  0  0  0  0  0  0  0  0
   -2.2162    2.3516   -0.4546 H   0  0  0  0  0  0  0  0  0  0  0  0
   -1.3348    1.7723    0.9607 H   0  0  0  0  0  0  0  0  0  0  0  0
   -0.4533    2.3516   -0.4546 H   0  0  0  0  0  0  0  0  0  0  0  0
  1  2  1  0
  1  6  1  0
  1  7  1  0
  1  8  1  0
  2  3  1  0
  2  4  1  0
  3  9  1  0
  3 10  1  0
  3 11  1  0
  4  5  1  0
  4 12  1  0
  4 13  1  0
  5 14  1  0
 15 16  1  0
 15 18  1  0
 15 19  1  0
 15 20  1  0
 16 17  1  0
 16 21  1  0
 16 22  1  0
 17 23  1  0
 17 24  1  0
 17 25  1  0
M  RAD  1   2   2
M  END
>  <reaction>  (14) 
rxn_406

>  <mol_properties>  (14) 
{"1": {"label": "*1", "atom_type": "Cs"}, "3": {"label": "*0", "atom_type": "Cs"}, "14": {"label": "*4", "atom_type": "Cs"}, "15": {"label": "*3", "atom_type": "Cs"}, "20": {"label": "*2", "atom_type": "H0"}}

>  <type>  (14) 
unop_10

>  <geom_source>  (14) 
Heuristics

$$$$

     RDKit          3D

 25 23  0  0  0  0  0  0  0  0999 V2000
    0.2254   -0.9891    1.8464 C   0  0  0  0  0  0  0  0  0  0  0  0
    0.5776   -0.3565    0.5052 C   0  0  0  0  0  3  0  0  0  0  0  0
    1.1969    1.0259    0.6837 C   0  0  0  0  0  0  0  0  0  0  0  0
    1.5169   -1.2485   -0.3018 C   0  0  0  0  0  0  0  0  0  0  0  0
    0.9904   -2.5307   -0.5770 O   0  0  0  0  0  0  0  0  0  0  0  0
    1.1185   -1.0774    2.4717 H   0  0  0  0  0  0  0  0  0  0  0  0
   -0.1888   -1.9886    1.7136 H   0  0  0  0  0  0  0  0  0  0  0  0
   -0.5029   -0.3818    2.3872 H   0  0  0  0  0  0  0  0  0  0  0  0
    2.1326    0.9592    1.2459 H   0  0  0  0  0  0  0  0  0  0  0  0
    1.4160    1.4963   -0.2773 H   0  0  0  0  0  0  0  0  0  0  0  0
    0.5262    1.6860    1.2360 H   0  0  0  0  0  0  0  0  0  0  0  0
    2.4348   -1.4211    0.2666 H   0  0  0  0  0  0  0  0  0  0  0  0
    1.7995   -0.7378   -1.2320 H   0  0  0  0  0  0  0  0  0  0  0  0
    0.2034   -2.4258   -1.1141 H   0  0  0  0  0  0  0  0  0  0  0  0
   -1.5257    0.9575   -1.8935 C   0  0  0  0  0  0  0  0  0  0  0  0
   -1.5257    0.9575   -0.3702 C   0  0  0  0  0  0  0  0  0  0  0  0
   -1.5257    2.3633    0.2165 C   0  0  0  0  0  0  0  0  0  0  0  0
   -0.6443    1.4718   -2.2842 H   0  0  0  0  0  0  0  0  0  0  0  0
   -2.4072    1.4718   -2.2842 H   0  0  0  0  0  0  0  0  0  0  0  0
   -1.5257   -0.0574   -2.2947 H   0  0  0  0  0  0  0  0  0  0  0  0
   -0.4763    0.3019    0.0666 H   0  0  0  0  0  0  0  0  0  0  0  0
   -2.4003    0.4112   -0.0062 H   0  0  0  0  0  0  0  0  0  0  0  0
   -2.4072    2.9219   -0.1076 H   0  0  0  0  0  0  0  0  0  0  0  0
   -1.5257    2.3427    1.3076 H   0  0  0  0  0  0  0  0  0  0  0  0
   -0.6443    2.9219   -0.1076 H   0  0  0  0  0  0  0  0  0  0  0  0
  1  2  1  0
  1  6  1  0
  1  7  1  0
  1  8  1  0
  2  3  1  0
  2  4  1  0
  3  9  1  0
  3 10  1  0
  3 11  1  0
  4  5  1  0
  4 12  1  0
  4 13  1  0
  5 14  1  0
 15 16  1  0
 15 18  1  0
 15 19  1  0
 15 20  1  0
 16 17  1  0
 16 21  1  0
 16 22  1  0
 17 23  1  0
 17 24  1  0
 17 25  1  0
M  RAD  1   2   2
M  END
>  <reaction>  (15) 
rxn_406

>  <mol_properties>  (15) 
{"1": {"label": "*1", "atom_type": "Cs"}, "3": {"label": "*0", "atom_type": "Cs"}, "14": {"label": "*4", "atom_type": "Cs"}, "15": {"label": "*3", "atom_type": "Cs"}, "20": {"label": "*2", "atom_type": "H0"}}

>  <type>  (15) 
unop_11

>  <geom_source>  (15) 
Heuristics

$$$$

     RDKit          3D

 25 23  0  0  0  0  0  0  0  0999 V2000
    1.2647   -1.3710   -0.8391 C   0  0  0  0  0  0  0  0  0  0  0  0
    0.4718   -0.8756    0.3646 C   0  0  0  0  0  3  0  0  0  0  0  0
   -0.0197   -2.0341    1.2264 C   0  0  0  0  0  0  0  0  0  0  0  0
    1.2925    0.0930    1.2117 C   0  0  0  0  0  0  0  0  0  0  0  0
    1.7301    1.2374    0.5077 O   0  0  0  0  0  0  0  0  0  0  0  0
    2.1255   -1.9608   -0.5112 H   0  0  0  0  0  0  0  0  0  0  0  0
    1.6385   -0.5378   -1.4342 H   0  0  0  0  0  0  0  0  0  0  0  0
    0.6492   -2.0052   -1.4800 H   0  0  0  0  0  0  0  0  0  0  0  0
    0.8249   -2.6008    1.6282 H   0  0  0  0  0  0  0  0  0  0  0  0
   -0.6193   -1.6832    2.0692 H   0  0  0  0  0  0  0  0  0  0  0  0
   -0.6317   -2.7232    0.6423 H   0  0  0  0  0  0  0  0  0  0  0  0
    2.2010   -0.4058    1.5599 H   0  0  0  0  0  0  0  0  0  0  0  0
    0.7167    0.3817    2.1011 H   0  0  0  0  0  0  0  0  0  0  0  0
    0.9592    1.7294    0.2208 H   0  0  0  0  0  0  0  0  0  0  0  0
   -1.6315    0.4384   -2.0342 C   0  0  0  0  0  0  0  0  0  0  0  0
   -1.6315    0.4384   -0.5108 C   0  0  0  0  0  0  0  0  0  0  0  0
   -1.6315    1.8442    0.0759 C   0  0  0  0  0  0  0  0  0  0  0  0
   -0.7500    0.9526   -2.4248 H   0  0  0  0  0  0  0  0  0  0  0  0
   -2.5129    0.9526   -2.4248 H   0  0  0  0  0  0  0  0  0  0  0  0
   -1.6315   -0.5765   -2.4353 H   0  0  0  0  0  0  0  0  0  0  0  0
   -0.5820   -0.2173   -0.0740 H   0  0  0  0  0  0  0  0  0  0  0  0
   -2.5060   -0.1080   -0.1468 H   0  0  0  0  0  0  0  0  0  0  0  0
   -2.5129    2.4027   -0.2483 H   0  0  0  0  0  0  0  0  0  0  0  0
   -1.6315    1.8235    1.1670 H   0  0  0  0  0  0  0  0  0  0  0  0
   -0.7500    2.4027   -0.2483 H   0  0  0  0  0  0  0  0  0  0  0  0
  1  2  1  0
  1  6  1  0
  1  7  1  0
  1  8  1  0
  2  3  1  0
  2  4  1  0
  3  9  1  0
  3 10  1  0
  3 11  1  0
  4  5  1  0
  4 12  1  0
  4 13  1  0
  5 14  1  0
 15 16  1  0
 15 18  1  0
 15 19  1  0
 15 20  1  0
 16 17  1  0
 16 21  1  0
 16 22  1  0
 17 23  1  0
 17 24  1  0
 17 25  1  0
M  RAD  1   2   2
M  END
>  <reaction>  (16) 
rxn_406

>  <mol_properties>  (16) 
{"1": {"label": "*1", "atom_type": "Cs"}, "3": {"label": "*0", "atom_type": "Cs"}, "14": {"label": "*4", "atom_type": "Cs"}, "15": {"label": "*3", "atom_type": "Cs"}, "20": {"label": "*2", "atom_type": "H0"}}

>  <type>  (16) 
unop_12

>  <geom_source>  (16) 
Heuristics

$$$$

     RDKit          3D

 25 23  0  0  0  0  0  0  0  0999 V2000
   -2.1254    1.7829    0.2568 O   0  0  0  0  0  0  0  0  0  0  0  0
   -0.9930   -0.3225   -0.0173 C   0  0  0  0  0  3  0  0  0  0  0  0
   -2.1767    0.5638   -0.4315 C   0  0  0  0  0  0  0  0  0  0  0  0
   -0.9424   -1.5890   -0.8782 C   0  0  0  0  0  0  0  0  0  0  0  0
   -1.0693   -0.6909    1.4694 C   0  0  0  0  0  0  0  0  0  0  0  0
    2.1319    0.4450   -1.3321 C   0  0  0  0  0  0  0  0  0  0  0  0
    2.2962    0.2839    1.1787 C   0  0  0  0  0  0  0  0  0  0  0  0
    1.4077    0.6424   -0.0061 C   0  0  0  0  0  0  0  0  0  0  0  0
    0.1495    0.3683   -0.2245 H   0  0  0  0  0  0  0  0  0  0  0  0
   -2.1229    0.7626   -1.5255 H   0  0  0  0  0  0  0  0  0  0  0  0
   -3.1371    0.0443   -0.2117 H   0  0  0  0  0  0  0  0  0  0  0  0
   -1.8669   -2.1915   -0.7462 H   0  0  0  0  0  0  0  0  0  0  0  0
   -0.8386   -1.3175   -1.9501 H   0  0  0  0  0  0  0  0  0  0  0  0
   -0.0647   -2.2078   -0.5947 H   0  0  0  0  0  0  0  0  0  0  0  0
   -1.0477    0.2265    2.0945 H   0  0  0  0  0  0  0  0  0  0  0  0
   -0.1959   -1.3162    1.7517 H   0  0  0  0  0  0  0  0  0  0  0  0
   -2.0016   -1.2550    1.6877 H   0  0  0  0  0  0  0  0  0  0  0  0
    2.4451   -0.6146   -1.4427 H   0  0  0  0  0  0  0  0  0  0  0  0
    3.0251    1.1033   -1.3866 H   0  0  0  0  0  0  0  0  0  0  0  0
    1.4459    0.7007   -2.1662 H   0  0  0  0  0  0  0  0  0  0  0  0
    2.6123   -0.7785    1.1119 H   0  0  0  0  0  0  0  0  0  0  0  0
    3.1943    0.9373    1.2002 H   0  0  0  0  0  0  0  0  0  0  0  0
    1.7264    0.4256    2.1205 H   0  0  0  0  0  0  0  0  0  0  0  0
    1.0650    1.6957    0.0839 H   0  0  0  0  0  0  0  0  0  0  0  0
   -2.9173    2.3014   -0.0417 H   0  0  0  0  0  0  0  0  0  0  0  0
  1  3  1  0
  1 25  1  0
  2  4  1  0
  2  5  1  0
  2  3  1  0
  3 10  1  0
  3 11  1  0
  4 12  1  0
  4 13  1  0
  4 14  1  0
  5 15  1  0
  5 16  1  0
  5 17  1  0
  6  8  1  0
  6 18  1  0
  6 19  1  0
  6 20  1  0
  7  8  1  0
  7 21  1  0
  7 22  1  0
  7 23  1  0
  8  9  1  0
  8 24  1  0
M  RAD  1   2   2
M  END
>  <reaction>  (17) 
rxn_406

>  <mol_properties>  (17) 
{"1": {"label": "*1", "atom_type": "Cs"}, "3": {"label": "*0", "atom_type": "Cs"}, "14": {"label": "*4", "atom_type": "Cs"}, "15": {"label": "*3", "atom_type": "Cs"}, "20": {"label": "*2", "atom_type": "H0"}}

>  <type>  (17) 
unop_13

>  <geom_source>  (17) 
AutoTST

$$$$
