
     RDKit          3D

 21 21  0  0  0  0  0  0  0  0999 V2000
   -1.3695    1.3367   -1.0719 C   0  0  0  0  0  0  0  0  0  0  0  0
   -1.4091   -0.0981   -0.5428 C   0  0  0  0  0  0  0  0  0  0  0  0
   -0.1819   -0.3999    0.3191 C   0  0  0  0  0  0  0  0  0  0  0  0
   -1.5636   -1.1028   -1.6652 C   0  0  0  0  0  0  0  0  0  0  0  0
   -0.5920   -1.2314   -2.6553 C   0  0  0  0  0  0  0  0  0  0  0  0
   -0.7353   -2.1509   -3.6809 C   0  0  0  0  0  0  0  0  0  0  0  0
   -1.8582   -2.9642   -3.7377 C   0  0  0  0  0  0  0  0  0  0  0  0
   -2.8325   -2.8475   -2.7602 C   0  0  0  0  0  0  0  0  0  0  0  0
   -2.6828   -1.9241   -1.7351 C   0  0  0  0  0  0  0  0  0  0  0  0
   -0.4920    1.4974   -1.7025 H   0  0  0  0  0  0  0  0  0  0  0  0
   -2.2553    1.5607   -1.6679 H   0  0  0  0  0  0  0  0  0  0  0  0
   -1.3211    2.0496   -0.2461 H   0  0  0  0  0  0  0  0  0  0  0  0
   -2.2930   -0.1918    0.0948 H   0  0  0  0  0  0  0  0  0  0  0  0
   -0.1215    0.2955    1.1588 H   0  0  0  0  0  0  0  0  0  0  0  0
   -0.2200   -1.4155    0.7159 H   0  0  0  0  0  0  0  0  0  0  0  0
    0.7383   -0.3016   -0.2615 H   0  0  0  0  0  0  0  0  0  0  0  0
    0.2915   -0.6040   -2.6263 H   0  0  0  0  0  0  0  0  0  0  0  0
    0.0326   -2.2338   -4.4401 H   0  0  0  0  0  0  0  0  0  0  0  0
   -1.9712   -3.6833   -4.5391 H   0  0  0  0  0  0  0  0  0  0  0  0
   -3.7135   -3.4765   -2.7932 H   0  0  0  0  0  0  0  0  0  0  0  0
   -3.4509   -1.8400   -0.9743 H   0  0  0  0  0  0  0  0  0  0  0  0
  1  2  1  0
  1 10  1  0
  1 11  1  0
  1 12  1  0
  2  3  1  0
  2  4  1  0
  2 13  1  0
  3 14  1  0
  3 15  1  0
  3 16  1  0
  4  5  2  0
  4  9  1  0
  5  6  1  0
  5 17  1  0
  6  7  2  0
  6 18  1  0
  7  8  1  0
  7 19  1  0
  8  9  2  0
  8 20  1  0
  9 21  1  0
M  END
>  <reaction>  (1) 
rxn_1547

>  <mol_properties>  (1) 
{"1": {"label": "donator", "atom_type": "Cs"}, "12": {"label": "d_hydrogen", "atom_type": "H0"}}

>  <type>  (1) 
r1h

$$$$

     RDKit          3D

  9  8  0  0  0  0  0  0  0  0999 V2000
   -1.2704   -0.1236    0.1096 C   0  0  0  0  0  0  0  0  0  0  0  0
    0.0713   -0.5323    0.5887 C   0  0  0  0  0  0  0  0  0  0  0  0
    0.9521   -1.3639   -0.0464 C   0  0  0  0  0  0  0  0  0  0  0  0
    0.6900   -2.1109   -1.5335 S   0  0  0  0  0  1  0  0  0  0  0  0
   -1.3201    0.9657    0.0241 H   0  0  0  0  0  0  0  0  0  0  0  0
   -1.5103   -0.5706   -0.8526 H   0  0  0  0  0  0  0  0  0  0  0  0
   -2.0312   -0.4112    0.8411 H   0  0  0  0  0  0  0  0  0  0  0  0
    0.3863   -0.1265    1.5468 H   0  0  0  0  0  0  0  0  0  0  0  0
    1.8971   -1.5543    0.4552 H   0  0  0  0  0  0  0  0  0  0  0  0
  1  2  1  0
  1  5  1  0
  1  6  1  0
  1  7  1  0
  2  3  2  3
  2  8  1  0
  3  4  1  0
  3  9  1  0
M  RAD  1   4   2
M  END
>  <reaction>  (2) 
rxn_1547

>  <mol_properties>  (2) 
{"1": {"label": "acceptor", "atom_type": "Cs"}}

>  <type>  (2) 
r2

$$$$

     RDKit          3D

 10  9  0  0  0  0  0  0  0  0999 V2000
   -1.1508    0.0666    0.2839 C   0  0  0  0  0  0  0  0  0  0  0  0
    0.1022   -0.3749   -0.4771 C   0  0  0  0  0  0  0  0  0  0  0  0
    1.3428    0.1620    0.1542 C   0  0  0  0  0  0  0  0  0  0  0  0
    2.5613   -0.6971    0.7526 S   0  0  0  0  0  0  0  0  0  0  0  0
   -1.2137    1.1546    0.3481 H   0  0  0  0  0  0  0  0  0  0  0  0
   -2.0472   -0.2935   -0.2212 H   0  0  0  0  0  0  0  0  0  0  0  0
   -1.1467   -0.3334    1.2987 H   0  0  0  0  0  0  0  0  0  0  0  0
    0.1602   -1.4616   -0.5369 H   0  0  0  0  0  0  0  0  0  0  0  0
    0.0536    0.0174   -1.4997 H   0  0  0  0  0  0  0  0  0  0  0  0
    1.3824    1.2528    0.2110 H   0  0  0  0  0  0  0  0  0  0  0  0
  1  2  1  0
  1  5  1  0
  1  6  1  0
  1  7  1  0
  2  3  1  0
  2  8  1  0
  2  9  1  0
  3  4  2  0
  3 10  1  0
M  END
>  <reaction>  (3) 
rxn_1547

>  <mol_properties>  (3) 
{"1": {"label": "acceptor", "atom_type": "Cs"}, "9": {"label": "a_hydrogen", "atom_type": "H0"}}

>  <type>  (3) 
r2h

$$$$

     RDKit          3D

 30 29  0  0  0  0  0  0  0  0999 V2000
   -1.4807   -0.7173    1.6844 C   0  0  0  0  0  0  0  0  0  0  0  0
   -1.9437    0.2411    0.6180 C   0  0  0  0  0  0  0  0  0  0  0  0
   -2.2698    1.6030    0.9472 C   0  0  0  0  0  0  0  0  0  0  0  0
   -1.8366    2.4223    2.2959 S   0  0  0  0  0  0  0  0  0  0  0  0
   -0.6920   -0.2747    2.2915 H   0  0  0  0  0  0  0  0  0  0  0  0
   -2.3073   -0.9767    2.3498 H   0  0  0  0  0  0  0  0  0  0  0  0
   -1.0990   -1.6353    1.2351 H   0  0  0  0  0  0  0  0  0  0  0  0
   -2.6282   -0.1923   -0.1131 H   0  0  0  0  0  0  0  0  0  0  0  0
   -2.8251    2.1366    0.1751 H   0  0  0  0  0  0  0  0  0  0  0  0
   -0.0614   -0.6134   -1.9918 C   0  0  0  0  0  0  0  0  0  0  0  0
    0.2559    0.4140   -0.9364 C   0  0  0  0  0  3  0  0  0  0  0  0
    0.1396    1.8432   -1.4036 C   0  0  0  0  0  0  0  0  0  0  0  0
    1.3109    0.0985    0.0430 C   0  0  0  0  0  0  0  0  0  0  0  0
    1.6340    1.0042    1.0627 C   0  0  0  0  0  0  0  0  0  0  0  0
    2.5806    0.6947    2.0212 C   0  0  0  0  0  0  0  0  0  0  0  0
    3.2408   -0.5253    1.9878 C   0  0  0  0  0  0  0  0  0  0  0  0
    2.9381   -1.4333    0.9850 C   0  0  0  0  0  0  0  0  0  0  0  0
    1.9834   -1.1289    0.0300 C   0  0  0  0  0  0  0  0  0  0  0  0
    0.7635   -0.7132   -2.7055 H   0  0  0  0  0  0  0  0  0  0  0  0
   -0.2516   -1.5980   -1.5626 H   0  0  0  0  0  0  0  0  0  0  0  0
   -0.9473   -0.3161   -2.5540 H   0  0  0  0  0  0  0  0  0  0  0  0
   -0.9028    0.3659   -0.1358 H   0  0  0  0  0  0  0  0  0  0  0  0
   -0.7537    1.9733   -2.0169 H   0  0  0  0  0  0  0  0  0  0  0  0
    0.0773    2.5502   -0.5767 H   0  0  0  0  0  0  0  0  0  0  0  0
    1.0082    2.1173   -2.0105 H   0  0  0  0  0  0  0  0  0  0  0  0
    1.1147    1.9505    1.1303 H   0  0  0  0  0  0  0  0  0  0  0  0
    2.7990    1.4096    2.8043 H   0  0  0  0  0  0  0  0  0  0  0  0
    3.9829   -0.7662    2.7380 H   0  0  0  0  0  0  0  0  0  0  0  0
    3.4484   -2.3876    0.9449 H   0  0  0  0  0  0  0  0  0  0  0  0
    1.7703   -1.8551   -0.7427 H   0  0  0  0  0  0  0  0  0  0  0  0
  1  2  1  0
  1  5  1  0
  1  6  1  0
  1  7  1  0
  2  3  1  0
  2  8  1  0
  2 22  1  0
  3  4  2  0
  3  9  1  0
 10 11  1  0
 10 19  1  0
 10 20  1  0
 10 21  1  0
 11 12  1  0
 11 13  1  0
 12 23  1  0
 12 24  1  0
 12 25  1  0
 13 14  2  0
 13 18  1  0
 14 15  1  0
 14 26  1  0
 15 16  2  0
 15 27  1  0
 16 17  1  0
 16 28  1  0
 17 18  2  0
 17 29  1  0
 18 30  1  0
M  RAD  1  11   2
M  END
>  <reaction>  (4) 
rxn_1547

>  <mol_properties>  (4) 
{"1": {"label": "*1", "atom_type": "Cs"}, "2": {"label": "*0", "atom_type": "CS"}, "10": {"label": "*3", "atom_type": "Cs"}, "12": {"label": "*4", "atom_type": "Cd"}, "21": {"label": "*2", "atom_type": "H0"}}

>  <type>  (4) 
ts

$$$$

     RDKit          3D

 30 29  0  0  0  0  0  0  0  0999 V2000
   -2.1550   -1.8345    0.7616 C   0  0  0  0  0  0  0  0  0  0  0  0
   -2.4565   -0.5954   -0.0857 C   0  0  0  0  0  0  0  0  0  0  0  0
   -2.3956    0.6526    0.7297 C   0  0  0  0  0  3  0  0  0  0  0  0
   -1.4134    1.9022    0.4954 S   0  0  0  0  0  0  0  0  0  0  0  0
   -1.1381   -1.7951    1.1541 H   0  0  0  0  0  0  0  0  0  0  0  0
   -2.8420   -1.9148    1.6062 H   0  0  0  0  0  0  0  0  0  0  0  0
   -2.2538   -2.7379    0.1598 H   0  0  0  0  0  0  0  0  0  0  0  0
   -3.4724   -0.6792   -0.4890 H   0  0  0  0  0  0  0  0  0  0  0  0
   -3.0933    0.6744    1.5707 H   0  0  0  0  0  0  0  0  0  0  0  0
   -0.2428    0.5608   -2.4093 C   0  0  0  0  0  0  0  0  0  0  0  0
   -0.2428    0.5608   -0.8796 C   0  0  0  0  0  3  0  0  0  0  0  0
   -0.2428    1.9884   -0.3301 C   0  0  0  0  0  0  0  0  0  0  0  0
    0.9065   -0.2521   -0.3214 C   0  0  0  0  0  0  0  0  0  0  0  0
    2.2296    0.1077   -0.5684 C   0  0  0  0  0  0  0  0  0  0  0  0
    3.2792   -0.6371   -0.0571 C   0  0  0  0  0  0  0  0  0  0  0  0
    3.0261   -1.7619    0.7152 C   0  0  0  0  0  0  0  0  0  0  0  0
    1.7158   -2.1316    0.9691 C   0  0  0  0  0  0  0  0  0  0  0  0
    0.6685   -1.3810    0.4537 C   0  0  0  0  0  3  0  0  0  0  0  0
    0.6515    1.0510   -2.8009 H   0  0  0  0  0  0  0  0  0  0  0  0
   -0.2659   -0.4565   -2.8026 H   0  0  0  0  0  0  0  0  0  0  0  0
   -1.1123    1.0980   -2.7936 H   0  0  0  0  0  0  0  0  0  0  0  0
   -1.3517   -0.0184   -0.4819 H   0  0  0  0  0  0  0  0  0  0  0  0
   -1.1123    2.5400   -0.6934 H   0  0  0  0  0  0  0  0  0  0  0  0
   -0.2659    1.9901    0.7606 H   0  0  0  0  0  0  0  0  0  0  0  0
    0.6515    2.5300   -0.6469 H   0  0  0  0  0  0  0  0  0  0  0  0
    2.4454    0.9834   -1.1698 H   0  0  0  0  0  0  0  0  0  0  0  0
    4.3001   -0.3389   -0.2618 H   0  0  0  0  0  0  0  0  0  0  0  0
    3.8460   -2.3447    1.1154 H   0  0  0  0  0  0  0  0  0  0  0  0
    1.5050   -3.0074    1.5704 H   0  0  0  0  0  0  0  0  0  0  0  0
   -0.3541   -1.6783    0.6578 H   0  0  0  0  0  0  0  0  0  0  0  0
  1  2  1  0
  1  5  1  0
  1  6  1  0
  1  7  1  0
  2  3  1  0
  2  8  1  0
  2 22  1  0
  3  4  1  0
  3  9  1  0
  4 12  1  0
 10 11  1  0
 10 19  1  0
 10 20  1  0
 10 21  1  0
 11 13  2  3
 12 23  1  0
 12 24  1  0
 12 25  1  0
 13 14  1  0
 13 18  1  0
 14 15  2  0
 14 26  1  0
 15 16  1  0
 15 27  1  0
 16 17  2  0
 16 28  1  0
 17 18  1  0
 17 29  1  0
 18 30  1  0
M  CHG  2  11   1  18  -1
M  RAD  1   3   2
M  END
>  <reaction>  (5) 
rxn_1547

>  <mol_properties>  (5) 
{"1": {"label": "*1", "atom_type": "Cs"}, "2": {"label": "*0", "atom_type": "CS"}, "10": {"label": "*3", "atom_type": "Cs"}, "12": {"label": "*4", "atom_type": "Cd"}, "21": {"label": "*2", "atom_type": "H0"}}

>  <type>  (5) 
unop_1

>  <geom_source>  (5) 
Heuristics

$$$$

     RDKit          3D

 30 29  0  0  0  0  0  0  0  0999 V2000
   -3.0735   -1.0478   -1.1670 C   0  0  0  0  0  0  0  0  0  0  0  0
   -2.6085    0.0014   -0.1535 C   0  0  0  0  0  0  0  0  0  0  0  0
   -1.9994   -0.6343    1.0510 C   0  0  0  0  0  0  0  0  0  0  0  0
   -0.4973   -0.4321    1.5839 S   0  0  0  0  0  0  0  0  0  0  0  0
   -2.2266   -1.6240   -1.5416 H   0  0  0  0  0  0  0  0  0  0  0  0
   -3.7862   -1.7433   -0.7199 H   0  0  0  0  0  0  0  0  0  0  0  0
   -3.5600   -0.5656   -2.0150 H   0  0  0  0  0  0  0  0  0  0  0  0
   -3.4763    0.5819    0.1806 H   0  0  0  0  0  0  0  0  0  0  0  0
   -2.6685   -1.3105    1.5891 H   0  0  0  0  0  0  0  0  0  0  0  0
   -0.3948    1.1575   -2.4770 C   0  0  0  0  0  0  0  0  0  0  0  0
   -0.3948    1.1575   -0.9473 C   0  0  0  0  0  3  0  0  0  0  0  0
   -0.3948    2.5852   -0.3979 C   0  0  0  0  0  0  0  0  0  0  0  0
    0.7545    0.3447   -0.3892 C   0  0  0  0  0  0  0  0  0  0  0  0
    2.0776    0.7044   -0.6362 C   0  0  0  0  0  0  0  0  0  0  0  0
    3.1272   -0.0403   -0.1249 C   0  0  0  0  0  0  0  0  0  0  0  0
    2.8741   -1.1651    0.6475 C   0  0  0  0  0  0  0  0  0  0  0  0
    1.5637   -1.5349    0.9013 C   0  0  0  0  0  0  0  0  0  0  0  0
    0.5165   -0.7842    0.3859 C   0  0  0  0  0  0  0  0  0  0  0  0
    0.4995    1.6478   -2.8687 H   0  0  0  0  0  0  0  0  0  0  0  0
   -0.4179    0.1402   -2.8704 H   0  0  0  0  0  0  0  0  0  0  0  0
   -1.2644    1.6948   -2.8613 H   0  0  0  0  0  0  0  0  0  0  0  0
   -1.5037    0.5784   -0.5497 H   0  0  0  0  0  0  0  0  0  0  0  0
   -1.2644    3.1368   -0.7612 H   0  0  0  0  0  0  0  0  0  0  0  0
   -0.4179    2.5868    0.6929 H   0  0  0  0  0  0  0  0  0  0  0  0
    0.4995    3.1268   -0.7147 H   0  0  0  0  0  0  0  0  0  0  0  0
    2.2934    1.5802   -1.2375 H   0  0  0  0  0  0  0  0  0  0  0  0
    4.1481    0.2578   -0.3296 H   0  0  0  0  0  0  0  0  0  0  0  0
    3.6940   -1.7480    1.0476 H   0  0  0  0  0  0  0  0  0  0  0  0
    1.3530   -2.4106    1.5026 H   0  0  0  0  0  0  0  0  0  0  0  0
   -0.5061   -1.0815    0.5901 H   0  0  0  0  0  0  0  0  0  0  0  0
  1  2  1  0
  1  5  1  0
  1  6  1  0
  1  7  1  0
  2  3  1  0
  2  8  1  0
  2 22  1  0
  3  4  2  0
  3  9  1  0
 10 11  1  0
 10 19  1  0
 10 20  1  0
 10 21  1  0
 11 12  1  0
 11 13  1  0
 12 23  1  0
 12 24  1  0
 12 25  1  0
 13 14  2  0
 13 18  1  0
 14 15  1  0
 14 26  1  0
 15 16  2  0
 15 27  1  0
 16 17  1  0
 16 28  1  0
 17 18  2  0
 17 29  1  0
 18 30  1  0
M  RAD  1  11   2
M  END
>  <reaction>  (6) 
rxn_1547

>  <mol_properties>  (6) 
{"1": {"label": "*1", "atom_type": "Cs"}, "2": {"label": "*0", "atom_type": "CS"}, "10": {"label": "*3", "atom_type": "Cs"}, "12": {"label": "*4", "atom_type": "Cd"}, "21": {"label": "*2", "atom_type": "H0"}}

>  <type>  (6) 
unop_2

>  <geom_source>  (6) 
Heuristics

$$$$

     RDKit          3D

 30 29  0  0  0  0  0  0  0  0999 V2000
   -2.0648   -1.3893    1.4097 C   0  0  0  0  0  0  0  0  0  0  0  0
   -2.2646   -0.6873    0.0638 C   0  0  0  0  0  0  0  0  0  0  0  0
   -2.7957    0.6954    0.2419 C   0  0  0  0  0  0  0  0  0  0  0  0
   -2.0904    2.0599   -0.2290 S   0  0  0  0  0  0  0  0  0  0  0  0
   -1.3177   -0.8679    2.0094 H   0  0  0  0  0  0  0  0  0  0  0  0
   -2.9944   -1.4247    1.9810 H   0  0  0  0  0  0  0  0  0  0  0  0
   -1.7247   -2.4135    1.2558 H   0  0  0  0  0  0  0  0  0  0  0  0
   -2.9971   -1.2509   -0.5258 H   0  0  0  0  0  0  0  0  0  0  0  0
   -3.7551    0.7447    0.7630 H   0  0  0  0  0  0  0  0  0  0  0  0
   -0.0509    0.4688   -2.2598 C   0  0  0  0  0  0  0  0  0  0  0  0
   -0.0509    0.4688   -0.7301 C   0  0  0  0  0  3  0  0  0  0  0  0
   -0.0509    1.8964   -0.1806 C   0  0  0  0  0  0  0  0  0  0  0  0
    1.0984   -0.3440   -0.1720 C   0  0  0  0  0  0  0  0  0  0  0  0
    2.4215    0.0157   -0.4190 C   0  0  0  0  0  0  0  0  0  0  0  0
    3.4712   -0.7291    0.0924 C   0  0  0  0  0  0  0  0  0  0  0  0
    3.2181   -1.8539    0.8647 C   0  0  0  0  0  0  0  0  0  0  0  0
    1.9077   -2.2236    1.1186 C   0  0  0  0  0  0  0  0  0  0  0  0
    0.8604   -1.4730    0.6032 C   0  0  0  0  0  0  0  0  0  0  0  0
    0.8434    0.9590   -2.6514 H   0  0  0  0  0  0  0  0  0  0  0  0
   -0.0739   -0.5485   -2.6531 H   0  0  0  0  0  0  0  0  0  0  0  0
   -0.9204    1.0060   -2.6441 H   0  0  0  0  0  0  0  0  0  0  0  0
   -1.1598   -0.1103   -0.3324 H   0  0  0  0  0  0  0  0  0  0  0  0
   -0.9204    2.4480   -0.5439 H   0  0  0  0  0  0  0  0  0  0  0  0
   -0.0739    1.8981    0.9101 H   0  0  0  0  0  0  0  0  0  0  0  0
    0.8434    2.4380   -0.4974 H   0  0  0  0  0  0  0  0  0  0  0  0
    2.6373    0.8914   -1.0203 H   0  0  0  0  0  0  0  0  0  0  0  0
    4.4920   -0.4309   -0.1123 H   0  0  0  0  0  0  0  0  0  0  0  0
    4.0379   -2.4367    1.2649 H   0  0  0  0  0  0  0  0  0  0  0  0
    1.6969   -3.0993    1.7199 H   0  0  0  0  0  0  0  0  0  0  0  0
   -0.1622   -1.7703    0.8073 H   0  0  0  0  0  0  0  0  0  0  0  0
  1  2  1  0
  1  5  1  0
  1  6  1  0
  1  7  1  0
  2  3  1  0
  2  8  1  0
  2 22  1  0
  3  4  2  0
  3  9  1  0
 10 11  1  0
 10 19  1  0
 10 20  1  0
 10 21  1  0
 11 12  1  0
 11 13  1  0
 12 23  1  0
 12 24  1  0
 12 25  1  0
 13 14  2  0
 13 18  1  0
 14 15  1  0
 14 26  1  0
 15 16  2  0
 15 27  1  0
 16 17  1  0
 16 28  1  0
 17 18  2  0
 17 29  1  0
 18 30  1  0
M  RAD  1  11   2
M  END
>  <reaction>  (7) 
rxn_1547

>  <mol_properties>  (7) 
{"1": {"label": "*1", "atom_type": "Cs"}, "2": {"label": "*0", "atom_type": "CS"}, "10": {"label": "*3", "atom_type": "Cs"}, "12": {"label": "*4", "atom_type": "Cd"}, "21": {"label": "*2", "atom_type": "H0"}}

>  <type>  (7) 
unop_3

>  <geom_source>  (7) 
Heuristics

$$$$

     RDKit          3D

 30 29  0  0  0  0  0  0  0  0999 V2000
   -3.4324    1.0370   -0.2887 C   0  0  0  0  0  0  0  0  0  0  0  0
   -2.2040    0.2820    0.2262 C   0  0  0  0  0  0  0  0  0  0  0  0
   -2.5134   -1.1546    0.4833 C   0  0  0  0  0  0  0  0  0  0  0  0
   -1.8190   -2.4234   -0.2161 S   0  0  0  0  0  0  0  0  0  0  0  0
   -3.7575    0.6351   -1.2492 H   0  0  0  0  0  0  0  0  0  0  0  0
   -4.2670    0.9615    0.4109 H   0  0  0  0  0  0  0  0  0  0  0  0
   -3.1992    2.0934   -0.4222 H   0  0  0  0  0  0  0  0  0  0  0  0
   -1.8849    0.7279    1.1755 H   0  0  0  0  0  0  0  0  0  0  0  0
   -3.3081   -1.3192    1.2153 H   0  0  0  0  0  0  0  0  0  0  0  0
    0.0097    1.4382   -2.0973 C   0  0  0  0  0  0  0  0  0  0  0  0
    0.0097    1.4382   -0.5676 C   0  0  0  0  0  3  0  0  0  0  0  0
    0.0097    2.8658   -0.0182 C   0  0  0  0  0  0  0  0  0  0  0  0
    1.1590    0.6253   -0.0095 C   0  0  0  0  0  0  0  0  0  0  0  0
    2.4821    0.9851   -0.2565 C   0  0  0  0  0  0  0  0  0  0  0  0
    3.5317    0.2403    0.2548 C   0  0  0  0  0  0  0  0  0  0  0  0
    3.2786   -0.8845    1.0271 C   0  0  0  0  0  0  0  0  0  0  0  0
    1.9683   -1.2542    1.2810 C   0  0  0  0  0  0  0  0  0  0  0  0
    0.9210   -0.5036    0.7656 C   0  0  0  0  0  0  0  0  0  0  0  0
    0.9040    1.9284   -2.4890 H   0  0  0  0  0  0  0  0  0  0  0  0
   -0.0134    0.4209   -2.4907 H   0  0  0  0  0  0  0  0  0  0  0  0
   -0.8598    1.9754   -2.4816 H   0  0  0  0  0  0  0  0  0  0  0  0
   -1.0992    0.8591   -0.1700 H   0  0  0  0  0  0  0  0  0  0  0  0
   -0.8598    3.4174   -0.3815 H   0  0  0  0  0  0  0  0  0  0  0  0
   -0.0134    2.8675    1.0725 H   0  0  0  0  0  0  0  0  0  0  0  0
    0.9040    3.4074   -0.3350 H   0  0  0  0  0  0  0  0  0  0  0  0
    2.6979    1.8608   -0.8578 H   0  0  0  0  0  0  0  0  0  0  0  0
    4.5526    0.5385    0.0501 H   0  0  0  0  0  0  0  0  0  0  0  0
    4.0985   -1.4673    1.4273 H   0  0  0  0  0  0  0  0  0  0  0  0
    1.7575   -2.1299    1.8823 H   0  0  0  0  0  0  0  0  0  0  0  0
   -0.1016   -0.8009    0.9698 H   0  0  0  0  0  0  0  0  0  0  0  0
  1  2  1  0
  1  5  1  0
  1  6  1  0
  1  7  1  0
  2  3  1  0
  2  8  1  0
  2 22  1  0
  3  4  2  0
  3  9  1  0
 10 11  1  0
 10 19  1  0
 10 20  1  0
 10 21  1  0
 11 12  1  0
 11 13  1  0
 12 23  1  0
 12 24  1  0
 12 25  1  0
 13 14  2  0
 13 18  1  0
 14 15  1  0
 14 26  1  0
 15 16  2  0
 15 27  1  0
 16 17  1  0
 16 28  1  0
 17 18  2  0
 17 29  1  0
 18 30  1  0
M  RAD  1  11   2
M  END
>  <reaction>  (8) 
rxn_1547

>  <mol_properties>  (8) 
{"1": {"label": "*1", "atom_type": "Cs"}, "2": {"label": "*0", "atom_type": "CS"}, "10": {"label": "*3", "atom_type": "Cs"}, "12": {"label": "*4", "atom_type": "Cd"}, "21": {"label": "*2", "atom_type": "H0"}}

>  <type>  (8) 
unop_4

>  <geom_source>  (8) 
Heuristics

$$$$

     RDKit          3D

 30 29  0  0  0  0  0  0  0  0999 V2000
   -2.0639   -0.6129    1.8294 C   0  0  0  0  0  0  0  0  0  0  0  0
   -1.9843   -0.5713    0.3010 C   0  0  0  0  0  0  0  0  0  0  0  0
   -3.1601    0.1327   -0.2888 C   0  0  0  0  0  0  0  0  0  0  0  0
   -3.1257    1.4554   -1.2002 S   0  0  0  0  0  0  0  0  0  0  0  0
   -2.0351    0.3953    2.2446 H   0  0  0  0  0  0  0  0  0  0  0  0
   -2.9850   -1.0926    2.1661 H   0  0  0  0  0  0  0  0  0  0  0  0
   -1.2232   -1.1741    2.2372 H   0  0  0  0  0  0  0  0  0  0  0  0
   -1.9853   -1.5981   -0.0831 H   0  0  0  0  0  0  0  0  0  0  0  0
   -4.1245   -0.3174   -0.0404 H   0  0  0  0  0  0  0  0  0  0  0  0
    0.2294    0.5848   -2.0226 C   0  0  0  0  0  0  0  0  0  0  0  0
    0.2294    0.5848   -0.4929 C   0  0  0  0  0  3  0  0  0  0  0  0
    0.2294    2.0124    0.0566 C   0  0  0  0  0  0  0  0  0  0  0  0
    1.3787   -0.2280    0.0652 C   0  0  0  0  0  0  0  0  0  0  0  0
    2.7018    0.1317   -0.1818 C   0  0  0  0  0  0  0  0  0  0  0  0
    3.7514   -0.6130    0.3296 C   0  0  0  0  0  0  0  0  0  0  0  0
    3.4983   -1.7378    1.1019 C   0  0  0  0  0  0  0  0  0  0  0  0
    2.1880   -2.1076    1.3558 C   0  0  0  0  0  0  0  0  0  0  0  0
    1.1407   -1.3569    0.8404 C   0  0  0  0  0  0  0  0  0  0  0  0
    1.1237    1.0751   -2.4142 H   0  0  0  0  0  0  0  0  0  0  0  0
    0.2063   -0.4325   -2.4160 H   0  0  0  0  0  0  0  0  0  0  0  0
   -0.6401    1.1221   -2.4069 H   0  0  0  0  0  0  0  0  0  0  0  0
   -0.8795    0.0057   -0.0952 H   0  0  0  0  0  0  0  0  0  0  0  0
   -0.6401    2.5641   -0.3068 H   0  0  0  0  0  0  0  0  0  0  0  0
    0.2063    2.0141    1.1473 H   0  0  0  0  0  0  0  0  0  0  0  0
    1.1237    2.5540   -0.2603 H   0  0  0  0  0  0  0  0  0  0  0  0
    2.9176    1.0075   -0.7831 H   0  0  0  0  0  0  0  0  0  0  0  0
    4.7723   -0.3149    0.1249 H   0  0  0  0  0  0  0  0  0  0  0  0
    4.3182   -2.3207    1.5021 H   0  0  0  0  0  0  0  0  0  0  0  0
    1.9772   -2.9833    1.9571 H   0  0  0  0  0  0  0  0  0  0  0  0
    0.1181   -1.6543    1.0445 H   0  0  0  0  0  0  0  0  0  0  0  0
  1  2  1  0
  1  5  1  0
  1  6  1  0
  1  7  1  0
  2  3  1  0
  2  8  1  0
  2 22  1  0
  3  4  2  0
  3  9  1  0
 10 11  1  0
 10 19  1  0
 10 20  1  0
 10 21  1  0
 11 12  1  0
 11 13  1  0
 12 23  1  0
 12 24  1  0
 12 25  1  0
 13 14  2  0
 13 18  1  0
 14 15  1  0
 14 26  1  0
 15 16  2  0
 15 27  1  0
 16 17  1  0
 16 28  1  0
 17 18  2  0
 17 29  1  0
 18 30  1  0
M  RAD  1  11   2
M  END
>  <reaction>  (9) 
rxn_1547

>  <mol_properties>  (9) 
{"1": {"label": "*1", "atom_type": "Cs"}, "2": {"label": "*0", "atom_type": "CS"}, "10": {"label": "*3", "atom_type": "Cs"}, "12": {"label": "*4", "atom_type": "Cd"}, "21": {"label": "*2", "atom_type": "H0"}}

>  <type>  (9) 
unop_5

>  <geom_source>  (9) 
Heuristics

$$$$

     RDKit          3D

 30 29  0  0  0  0  0  0  0  0999 V2000
   -3.2031    1.2347    0.5065 C   0  0  0  0  0  0  0  0  0  0  0  0
   -2.0779    0.2097    0.3403 C   0  0  0  0  0  0  0  0  0  0  0  0
   -2.6135   -1.1795    0.2456 C   0  0  0  0  0  0  0  0  0  0  0  0
   -2.4304   -2.1942   -0.9865 S   0  0  0  0  0  0  0  0  0  0  0  0
   -3.8560    1.2357   -0.3672 H   0  0  0  0  0  0  0  0  0  0  0  0
   -3.8126    1.0163    1.3855 H   0  0  0  0  0  0  0  0  0  0  0  0
   -2.7888    2.2361    0.6242 H   0  0  0  0  0  0  0  0  0  0  0  0
   -1.4240    0.2542    1.2191 H   0  0  0  0  0  0  0  0  0  0  0  0
   -3.1964   -1.4967    1.1140 H   0  0  0  0  0  0  0  0  0  0  0  0
    0.1358    1.3659   -1.9832 C   0  0  0  0  0  0  0  0  0  0  0  0
    0.1358    1.3659   -0.4535 C   0  0  0  0  0  3  0  0  0  0  0  0
    0.1358    2.7935    0.0960 C   0  0  0  0  0  0  0  0  0  0  0  0
    1.2851    0.5530    0.1046 C   0  0  0  0  0  0  0  0  0  0  0  0
    2.6081    0.9128   -0.1424 C   0  0  0  0  0  0  0  0  0  0  0  0
    3.6578    0.1680    0.3690 C   0  0  0  0  0  0  0  0  0  0  0  0
    3.4047   -0.9568    1.1413 C   0  0  0  0  0  0  0  0  0  0  0  0
    2.0943   -1.3265    1.3952 C   0  0  0  0  0  0  0  0  0  0  0  0
    1.0471   -0.5759    0.8798 C   0  0  0  0  0  0  0  0  0  0  0  0
    1.0300    1.8561   -2.3749 H   0  0  0  0  0  0  0  0  0  0  0  0
    0.1127    0.3486   -2.3766 H   0  0  0  0  0  0  0  0  0  0  0  0
   -0.7338    1.9031   -2.3675 H   0  0  0  0  0  0  0  0  0  0  0  0
   -0.9731    0.7867   -0.0559 H   0  0  0  0  0  0  0  0  0  0  0  0
   -0.7338    3.3451   -0.2674 H   0  0  0  0  0  0  0  0  0  0  0  0
    0.1127    2.7952    1.1867 H   0  0  0  0  0  0  0  0  0  0  0  0
    1.0300    3.3351   -0.2209 H   0  0  0  0  0  0  0  0  0  0  0  0
    2.8239    1.7885   -0.7437 H   0  0  0  0  0  0  0  0  0  0  0  0
    4.6786    0.4662    0.1643 H   0  0  0  0  0  0  0  0  0  0  0  0
    4.2245   -1.5396    1.5415 H   0  0  0  0  0  0  0  0  0  0  0  0
    1.8835   -2.2023    1.9964 H   0  0  0  0  0  0  0  0  0  0  0  0
    0.0244   -0.8732    1.0839 H   0  0  0  0  0  0  0  0  0  0  0  0
  1  2  1  0
  1  5  1  0
  1  6  1  0
  1  7  1  0
  2  3  1  0
  2  8  1  0
  2 22  1  0
  3  4  2  0
  3  9  1  0
 10 11  1  0
 10 19  1  0
 10 20  1  0
 10 21  1  0
 11 12  1  0
 11 13  1  0
 12 23  1  0
 12 24  1  0
 12 25  1  0
 13 14  2  0
 13 18  1  0
 14 15  1  0
 14 26  1  0
 15 16  2  0
 15 27  1  0
 16 17  1  0
 16 28  1  0
 17 18  2  0
 17 29  1  0
 18 30  1  0
M  RAD  1  11   2
M  END
>  <reaction>  (10) 
rxn_1547

>  <mol_properties>  (10) 
{"1": {"label": "*1", "atom_type": "Cs"}, "2": {"label": "*0", "atom_type": "CS"}, "10": {"label": "*3", "atom_type": "Cs"}, "12": {"label": "*4", "atom_type": "Cd"}, "21": {"label": "*2", "atom_type": "H0"}}

>  <type>  (10) 
unop_6

>  <geom_source>  (10) 
Heuristics

$$$$

     RDKit          3D

 30 29  0  0  0  0  0  0  0  0999 V2000
   -2.8091    1.0150    1.2786 C   0  0  0  0  0  0  0  0  0  0  0  0
   -1.9645    0.0596    0.4313 C   0  0  0  0  0  0  0  0  0  0  0  0
   -2.7746   -1.0890   -0.0690 C   0  0  0  0  0  0  0  0  0  0  0  0
   -3.0379   -1.4775   -1.6056 S   0  0  0  0  0  0  0  0  0  0  0  0
   -3.6041    1.4613    0.6798 H   0  0  0  0  0  0  0  0  0  0  0  0
   -3.2695    0.4965    2.1218 H   0  0  0  0  0  0  0  0  0  0  0  0
   -2.1885    1.8186    1.6753 H   0  0  0  0  0  0  0  0  0  0  0  0
   -1.1585   -0.3484    1.0524 H   0  0  0  0  0  0  0  0  0  0  0  0
   -3.2312   -1.6938    0.7185 H   0  0  0  0  0  0  0  0  0  0  0  0
    0.2492    1.2157   -1.8923 C   0  0  0  0  0  0  0  0  0  0  0  0
    0.2492    1.2157   -0.3626 C   0  0  0  0  0  3  0  0  0  0  0  0
    0.2492    2.6433    0.1869 C   0  0  0  0  0  0  0  0  0  0  0  0
    1.3985    0.4029    0.1955 C   0  0  0  0  0  0  0  0  0  0  0  0
    2.7216    0.7626   -0.0515 C   0  0  0  0  0  0  0  0  0  0  0  0
    3.7712    0.0178    0.4599 C   0  0  0  0  0  0  0  0  0  0  0  0
    3.5181   -1.1070    1.2322 C   0  0  0  0  0  0  0  0  0  0  0  0
    2.2078   -1.4767    1.4861 C   0  0  0  0  0  0  0  0  0  0  0  0
    1.1605   -0.7261    0.9707 C   0  0  0  0  0  0  0  0  0  0  0  0
    1.1435    1.7059   -2.2839 H   0  0  0  0  0  0  0  0  0  0  0  0
    0.2262    0.1984   -2.2856 H   0  0  0  0  0  0  0  0  0  0  0  0
   -0.6203    1.7529   -2.2766 H   0  0  0  0  0  0  0  0  0  0  0  0
   -0.8597    0.6366    0.0351 H   0  0  0  0  0  0  0  0  0  0  0  0
   -0.6203    3.1949   -0.1764 H   0  0  0  0  0  0  0  0  0  0  0  0
    0.2262    2.6450    1.2776 H   0  0  0  0  0  0  0  0  0  0  0  0
    1.1435    3.1849   -0.1300 H   0  0  0  0  0  0  0  0  0  0  0  0
    2.9374    1.6383   -0.6528 H   0  0  0  0  0  0  0  0  0  0  0  0
    4.7921    0.3160    0.2552 H   0  0  0  0  0  0  0  0  0  0  0  0
    4.3380   -1.6898    1.6324 H   0  0  0  0  0  0  0  0  0  0  0  0
    1.9970   -2.3524    2.0874 H   0  0  0  0  0  0  0  0  0  0  0  0
    0.1379   -1.0234    1.1748 H   0  0  0  0  0  0  0  0  0  0  0  0
  1  2  1  0
  1  5  1  0
  1  6  1  0
  1  7  1  0
  2  3  1  0
  2  8  1  0
  2 22  1  0
  3  4  2  0
  3  9  1  0
 10 11  1  0
 10 19  1  0
 10 20  1  0
 10 21  1  0
 11 12  1  0
 11 13  1  0
 12 23  1  0
 12 24  1  0
 12 25  1  0
 13 14  2  0
 13 18  1  0
 14 15  1  0
 14 26  1  0
 15 16  2  0
 15 27  1  0
 16 17  1  0
 16 28  1  0
 17 18  2  0
 17 29  1  0
 18 30  1  0
M  RAD  1  11   2
M  END
>  <reaction>  (11) 
rxn_1547

>  <mol_properties>  (11) 
{"1": {"label": "*1", "atom_type": "Cs"}, "2": {"label": "*0", "atom_type": "CS"}, "10": {"label": "*3", "atom_type": "Cs"}, "12": {"label": "*4", "atom_type": "Cd"}, "21": {"label": "*2", "atom_type": "H0"}}

>  <type>  (11) 
unop_7

>  <geom_source>  (11) 
Heuristics

$$$$

     RDKit          3D

 30 29  0  0  0  0  0  0  0  0999 V2000
   -2.3697   -1.9441   -0.0059 C   0  0  0  0  0  0  0  0  0  0  0  0
   -2.5679   -0.4350   -0.1721 C   0  0  0  0  0  0  0  0  0  0  0  0
   -2.1154    0.3123    1.0373 C   0  0  0  0  0  3  0  0  0  0  0  0
   -0.9642    1.4314    1.0960 S   0  0  0  0  0  0  0  0  0  0  0  0
   -1.3113   -2.1843    0.1029 H   0  0  0  0  0  0  0  0  0  0  0  0
   -2.8952   -2.3191    0.8744 H   0  0  0  0  0  0  0  0  0  0  0  0
   -2.7521   -2.4746   -0.8780 H   0  0  0  0  0  0  0  0  0  0  0  0
   -3.6361   -0.2298   -0.3087 H   0  0  0  0  0  0  0  0  0  0  0  0
   -2.6316    0.0311    1.9586 H   0  0  0  0  0  0  0  0  0  0  0  0
   -0.3542    0.7211   -2.4957 C   0  0  0  0  0  0  0  0  0  0  0  0
   -0.3542    0.7211   -0.9660 C   0  0  0  0  0  0  0  0  0  0  0  0
   -0.3542    2.1487   -0.4165 C   0  0  0  0  0  0  0  0  0  0  0  0
    0.7951   -0.0917   -0.4078 C   0  0  0  0  0  0  0  0  0  0  0  0
    2.1181    0.2680   -0.6548 C   0  0  0  0  0  0  0  0  0  0  0  0
    3.1678   -0.4767   -0.1435 C   0  0  0  0  0  0  0  0  0  0  0  0
    2.9147   -1.6015    0.6288 C   0  0  0  0  0  0  0  0  0  0  0  0
    1.6043   -1.9713    0.8827 C   0  0  0  0  0  0  0  0  0  0  0  0
    0.5571   -1.2207    0.3673 C   0  0  0  0  0  0  0  0  0  0  0  0
    0.5400    1.2114   -2.8873 H   0  0  0  0  0  0  0  0  0  0  0  0
   -0.3773   -0.2962   -2.8890 H   0  0  0  0  0  0  0  0  0  0  0  0
   -1.2238    1.2584   -2.8800 H   0  0  0  0  0  0  0  0  0  0  0  0
   -1.4631    0.1420   -0.5683 H   0  0  0  0  0  0  0  0  0  0  0  0
   -1.2238    2.7004   -0.7798 H   0  0  0  0  0  0  0  0  0  0  0  0
   -0.3773    2.1504    0.6742 H   0  0  0  0  0  0  0  0  0  0  0  0
    0.5400    2.6903   -0.7333 H   0  0  0  0  0  0  0  0  0  0  0  0
    2.3340    1.1438   -1.2561 H   0  0  0  0  0  0  0  0  0  0  0  0
    4.1887   -0.1786   -0.3482 H   0  0  0  0  0  0  0  0  0  0  0  0
    3.7346   -2.1844    1.0290 H   0  0  0  0  0  0  0  0  0  0  0  0
    1.3936   -2.8470    1.4840 H   0  0  0  0  0  0  0  0  0  0  0  0
   -0.4656   -1.5180    0.5715 H   0  0  0  0  0  0  0  0  0  0  0  0
  1  2  1  0
  1  5  1  0
  1  6  1  0
  1  7  1  0
  2  3  1  0
  2  8  1  0
  2 22  1  0
  3  4  1  0
  3  9  1  0
  4 24  1  0
 10 11  1  0
 10 19  1  0
 10 20  1  0
 10 21  1  0
 11 12  2  3
 11 13  1  0
 12 23  1  0
 12 25  1  0
 13 14  2  0
 13 18  1  0
 14 15  1  0
 14 26  1  0
 15 16  2  0
 15 27  1  0
 16 17  1  0
 16 28  1  0
 17 18  2  0
 17 29  1  0
 18 30  1  0
M  RAD  1   3   2
M  END
>  <reaction>  (12) 
rxn_1547

>  <mol_properties>  (12) 
{"1": {"label": "*1", "atom_type": "Cs"}, "2": {"label": "*0", "atom_type": "CS"}, "10": {"label": "*3", "atom_type": "Cs"}, "12": {"label": "*4", "atom_type": "Cd"}, "21": {"label": "*2", "atom_type": "H0"}}

>  <type>  (12) 
unop_8

>  <geom_source>  (12) 
Heuristics

$$$$

     RDKit          3D

 30 29  0  0  0  0  0  0  0  0999 V2000
   -3.4781    0.5024   -0.9160 C   0  0  0  0  0  0  0  0  0  0  0  0
   -2.3514    0.2845    0.0975 C   0  0  0  0  0  0  0  0  0  0  0  0
   -2.3842   -1.0957    0.6632 C   0  0  0  0  0  0  0  0  0  0  0  0
   -1.2205   -2.1989    0.5637 S   0  0  0  0  0  0  0  0  0  0  0  0
   -3.3609   -0.1635   -1.7719 H   0  0  0  0  0  0  0  0  0  0  0  0
   -4.4560    0.3125   -0.4695 H   0  0  0  0  0  0  0  0  0  0  0  0
   -3.4673    1.5301   -1.2791 H   0  0  0  0  0  0  0  0  0  0  0  0
   -2.4805    0.9871    0.9290 H   0  0  0  0  0  0  0  0  0  0  0  0
   -3.3157   -1.3495    1.1753 H   0  0  0  0  0  0  0  0  0  0  0  0
   -0.1377    1.4407   -2.2260 C   0  0  0  0  0  0  0  0  0  0  0  0
   -0.1377    1.4407   -0.6963 C   0  0  0  0  0  3  0  0  0  0  0  0
   -0.1377    2.8683   -0.1468 C   0  0  0  0  0  0  0  0  0  0  0  0
    1.0116    0.6278   -0.1382 C   0  0  0  0  0  0  0  0  0  0  0  0
    2.3347    0.9875   -0.3852 C   0  0  0  0  0  0  0  0  0  0  0  0
    3.3843    0.2428    0.1262 C   0  0  0  0  0  0  0  0  0  0  0  0
    3.1312   -0.8820    0.8985 C   0  0  0  0  0  0  0  0  0  0  0  0
    1.8209   -1.2518    1.1524 C   0  0  0  0  0  0  0  0  0  0  0  0
    0.7736   -0.5011    0.6370 C   0  0  0  0  0  0  0  0  0  0  0  0
    0.7566    1.9309   -2.6177 H   0  0  0  0  0  0  0  0  0  0  0  0
   -0.1607    0.4233   -2.6194 H   0  0  0  0  0  0  0  0  0  0  0  0
   -1.0072    1.9779   -2.6103 H   0  0  0  0  0  0  0  0  0  0  0  0
   -1.2466    0.8615   -0.2987 H   0  0  0  0  0  0  0  0  0  0  0  0
   -1.0072    3.4199   -0.5102 H   0  0  0  0  0  0  0  0  0  0  0  0
   -0.1607    2.8699    0.9439 H   0  0  0  0  0  0  0  0  0  0  0  0
    0.7566    3.4099   -0.4637 H   0  0  0  0  0  0  0  0  0  0  0  0
    2.5505    1.8633   -0.9865 H   0  0  0  0  0  0  0  0  0  0  0  0
    4.4052    0.5409   -0.0785 H   0  0  0  0  0  0  0  0  0  0  0  0
    3.9511   -1.4649    1.2987 H   0  0  0  0  0  0  0  0  0  0  0  0
    1.6101   -2.1275    1.7536 H   0  0  0  0  0  0  0  0  0  0  0  0
   -0.2490   -0.7984    0.8411 H   0  0  0  0  0  0  0  0  0  0  0  0
  1  2  1  0
  1  5  1  0
  1  6  1  0
  1  7  1  0
  2  3  1  0
  2  8  1  0
  2 22  1  0
  3  4  2  0
  3  9  1  0
 10 11  1  0
 10 19  1  0
 10 20  1  0
 10 21  1  0
 11 12  1  0
 11 13  1  0
 12 23  1  0
 12 24  1  0
 12 25  1  0
 13 14  2  0
 13 18  1  0
 14 15  1  0
 14 26  1  0
 15 16  2  0
 15 27  1  0
 16 17  1  0
 16 28  1  0
 17 18  2  0
 17 29  1  0
 18 30  1  0
M  RAD  1  11   2
M  END
>  <reaction>  (13) 
rxn_1547

>  <mol_properties>  (13) 
{"1": {"label": "*1", "atom_type": "Cs"}, "2": {"label": "*0", "atom_type": "CS"}, "10": {"label": "*3", "atom_type": "Cs"}, "12": {"label": "*4", "atom_type": "Cd"}, "21": {"label": "*2", "atom_type": "H0"}}

>  <type>  (13) 
unop_9

>  <geom_source>  (13) 
Heuristics

$$$$

     RDKit          3D

 30 29  0  0  0  0  0  0  0  0999 V2000
   -2.7062   -1.6676   -0.7142 C   0  0  0  0  0  0  0  0  0  0  0  0
   -2.6239   -0.2280   -0.1992 C   0  0  0  0  0  0  0  0  0  0  0  0
   -1.9708   -0.1632    1.1406 C   0  0  0  0  0  0  0  0  0  0  0  0
   -0.6269    0.6346    1.5128 S   0  0  0  0  0  0  0  0  0  0  0  0
   -1.7082   -2.0830   -0.8589 H   0  0  0  0  0  0  0  0  0  0  0  0
   -3.2430   -2.3099   -0.0134 H   0  0  0  0  0  0  0  0  0  0  0  0
   -3.2306   -1.6987   -1.6693 H   0  0  0  0  0  0  0  0  0  0  0  0
   -3.6398    0.1700   -0.0929 H   0  0  0  0  0  0  0  0  0  0  0  0
   -2.4784   -0.7418    1.9165 H   0  0  0  0  0  0  0  0  0  0  0  0
   -0.4102    0.9281   -2.5228 C   0  0  0  0  0  0  0  0  0  0  0  0
   -0.4102    0.9281   -0.9931 C   0  0  0  0  0  3  0  0  0  0  0  0
   -0.4102    2.3557   -0.4436 C   0  0  0  0  0  0  0  0  0  0  0  0
    0.7391    0.1153   -0.4350 C   0  0  0  0  0  0  0  0  0  0  0  0
    2.0621    0.4750   -0.6820 C   0  0  0  0  0  0  0  0  0  0  0  0
    3.1118   -0.2697   -0.1706 C   0  0  0  0  0  0  0  0  0  0  0  0
    2.8587   -1.3945    0.6017 C   0  0  0  0  0  0  0  0  0  0  0  0
    1.5483   -1.7643    0.8556 C   0  0  0  0  0  0  0  0  0  0  0  0
    0.5011   -1.0137    0.3402 C   0  0  0  0  0  0  0  0  0  0  0  0
    0.4840    1.4184   -2.9144 H   0  0  0  0  0  0  0  0  0  0  0  0
   -0.4333   -0.0892   -2.9161 H   0  0  0  0  0  0  0  0  0  0  0  0
   -1.2798    1.4654   -2.9071 H   0  0  0  0  0  0  0  0  0  0  0  0
   -1.5191    0.3490   -0.5954 H   0  0  0  0  0  0  0  0  0  0  0  0
   -1.2798    2.9074   -0.8069 H   0  0  0  0  0  0  0  0  0  0  0  0
   -0.4333    2.3574    0.6471 H   0  0  0  0  0  0  0  0  0  0  0  0
    0.4840    2.8973   -0.7604 H   0  0  0  0  0  0  0  0  0  0  0  0
    2.2779    1.3508   -1.2833 H   0  0  0  0  0  0  0  0  0  0  0  0
    4.1326    0.0284   -0.3753 H   0  0  0  0  0  0  0  0  0  0  0  0
    3.6786   -1.9774    1.0019 H   0  0  0  0  0  0  0  0  0  0  0  0
    1.3376   -2.6400    1.4569 H   0  0  0  0  0  0  0  0  0  0  0  0
   -0.5216   -1.3110    0.5443 H   0  0  0  0  0  0  0  0  0  0  0  0
  1  2  1  0
  1  5  1  0
  1  6  1  0
  1  7  1  0
  2  3  1  0
  2  8  1  0
  2 22  1  0
  3  4  2  0
  3  9  1  0
 10 11  1  0
 10 19  1  0
 10 20  1  0
 10 21  1  0
 11 12  1  0
 11 13  1  0
 12 23  1  0
 12 24  1  0
 12 25  1  0
 13 14  2  0
 13 18  1  0
 14 15  1  0
 14 26  1  0
 15 16  2  0
 15 27  1  0
 16 17  1  0
 16 28  1  0
 17 18  2  0
 17 29  1  0
 18 30  1  0
M  RAD  1  11   2
M  END
>  <reaction>  (14) 
rxn_1547

>  <mol_properties>  (14) 
{"1": {"label": "*1", "atom_type": "Cs"}, "2": {"label": "*0", "atom_type": "CS"}, "10": {"label": "*3", "atom_type": "Cs"}, "12": {"label": "*4", "atom_type": "Cd"}, "21": {"label": "*2", "atom_type": "H0"}}

>  <type>  (14) 
unop_10

>  <geom_source>  (14) 
Heuristics

$$$$

     RDKit          3D

 30 29  0  0  0  0  0  0  0  0999 V2000
   -2.3472    0.3539    1.7989 C   0  0  0  0  0  0  0  0  0  0  0  0
   -1.8853   -0.2111    0.4530 C   0  0  0  0  0  0  0  0  0  0  0  0
   -3.0376   -0.6992   -0.3595 C   0  0  0  0  0  0  0  0  0  0  0  0
   -3.4780   -0.1695   -1.8109 S   0  0  0  0  0  0  0  0  0  0  0  0
   -2.9870    1.2251    1.6523 H   0  0  0  0  0  0  0  0  0  0  0  0
   -2.9095   -0.3880    2.3692 H   0  0  0  0  0  0  0  0  0  0  0  0
   -1.4881    0.6581    2.3968 H   0  0  0  0  0  0  0  0  0  0  0  0
   -1.2221   -1.0649    0.6347 H   0  0  0  0  0  0  0  0  0  0  0  0
   -3.6259   -1.4847    0.1214 H   0  0  0  0  0  0  0  0  0  0  0  0
    0.3284    0.9450   -1.8705 C   0  0  0  0  0  0  0  0  0  0  0  0
    0.3284    0.9450   -0.3408 C   0  0  0  0  0  3  0  0  0  0  0  0
    0.3284    2.3726    0.2086 C   0  0  0  0  0  0  0  0  0  0  0  0
    1.4777    0.1322    0.2173 C   0  0  0  0  0  0  0  0  0  0  0  0
    2.8007    0.4919   -0.0297 C   0  0  0  0  0  0  0  0  0  0  0  0
    3.8504   -0.2529    0.4816 C   0  0  0  0  0  0  0  0  0  0  0  0
    3.5973   -1.3776    1.2539 C   0  0  0  0  0  0  0  0  0  0  0  0
    2.2869   -1.7474    1.5078 C   0  0  0  0  0  0  0  0  0  0  0  0
    1.2397   -0.9968    0.9924 C   0  0  0  0  0  0  0  0  0  0  0  0
    1.2226    1.4353   -2.2622 H   0  0  0  0  0  0  0  0  0  0  0  0
    0.3053   -0.0723   -2.2639 H   0  0  0  0  0  0  0  0  0  0  0  0
   -0.5412    1.4823   -2.2548 H   0  0  0  0  0  0  0  0  0  0  0  0
   -0.7805    0.3659    0.0568 H   0  0  0  0  0  0  0  0  0  0  0  0
   -0.5412    2.9243   -0.1547 H   0  0  0  0  0  0  0  0  0  0  0  0
    0.3053    2.3743    1.2993 H   0  0  0  0  0  0  0  0  0  0  0  0
    1.2226    2.9142   -0.1082 H   0  0  0  0  0  0  0  0  0  0  0  0
    3.0166    1.3677   -0.6310 H   0  0  0  0  0  0  0  0  0  0  0  0
    4.8713    0.0453    0.2769 H   0  0  0  0  0  0  0  0  0  0  0  0
    4.4172   -1.9605    1.6541 H   0  0  0  0  0  0  0  0  0  0  0  0
    2.0762   -2.6231    2.1091 H   0  0  0  0  0  0  0  0  0  0  0  0
    0.2170   -1.2941    1.1966 H   0  0  0  0  0  0  0  0  0  0  0  0
  1  2  1  0
  1  5  1  0
  1  6  1  0
  1  7  1  0
  2  3  1  0
  2  8  1  0
  2 22  1  0
  3  4  2  0
  3  9  1  0
 10 11  1  0
 10 19  1  0
 10 20  1  0
 10 21  1  0
 11 12  1  0
 11 13  1  0
 12 23  1  0
 12 24  1  0
 12 25  1  0
 13 14  2  0
 13 18  1  0
 14 15  1  0
 14 26  1  0
 15 16  2  0
 15 27  1  0
 16 17  1  0
 16 28  1  0
 17 18  2  0
 17 29  1  0
 18 30  1  0
M  RAD  1  11   2
M  END
>  <reaction>  (15) 
rxn_1547

>  <mol_properties>  (15) 
{"1": {"label": "*1", "atom_type": "Cs"}, "2": {"label": "*0", "atom_type": "CS"}, "10": {"label": "*3", "atom_type": "Cs"}, "12": {"label": "*4", "atom_type": "Cd"}, "21": {"label": "*2", "atom_type": "H0"}}

>  <type>  (15) 
unop_11

>  <geom_source>  (15) 
Heuristics

$$$$

     RDKit          3D

 30 29  0  0  0  0  0  0  0  0999 V2000
   -3.3529   -0.2502   -1.2367 C   0  0  0  0  0  0  0  0  0  0  0  0
   -2.5056    0.1923   -0.0407 C   0  0  0  0  0  0  0  0  0  0  0  0
   -2.1813   -0.9564    0.8544 C   0  0  0  0  0  3  0  0  0  0  0  0
   -0.7143   -1.4949    1.2273 S   0  0  0  0  0  0  0  0  0  0  0  0
   -2.8016   -0.9555   -1.8600 H   0  0  0  0  0  0  0  0  0  0  0  0
   -4.2762   -0.7338   -0.9121 H   0  0  0  0  0  0  0  0  0  0  0  0
   -3.6208    0.6102   -1.8500 H   0  0  0  0  0  0  0  0  0  0  0  0
   -3.0748    0.9212    0.5478 H   0  0  0  0  0  0  0  0  0  0  0  0
   -3.0559   -1.4668    1.2655 H   0  0  0  0  0  0  0  0  0  0  0  0
   -0.2919    1.3484   -2.3642 C   0  0  0  0  0  0  0  0  0  0  0  0
   -0.2919    1.3484   -0.8345 C   0  0  0  0  0  3  0  0  0  0  0  0
   -0.2919    2.7760   -0.2851 C   0  0  0  0  0  0  0  0  0  0  0  0
    0.8574    0.5356   -0.2764 C   0  0  0  0  0  0  0  0  0  0  0  0
    2.1805    0.8953   -0.5234 C   0  0  0  0  0  0  0  0  0  0  0  0
    3.2301    0.1506   -0.0121 C   0  0  0  0  0  0  0  0  0  0  0  0
    2.9770   -0.9742    0.7602 C   0  0  0  0  0  0  0  0  0  0  0  0
    1.6666   -1.3440    1.0141 C   0  0  0  0  0  0  0  0  0  0  0  0
    0.6194   -0.5934    0.4987 C   0  0  0  0  0  3  0  0  0  0  0  0
    0.6023    1.8387   -2.7559 H   0  0  0  0  0  0  0  0  0  0  0  0
   -0.3150    0.3311   -2.7576 H   0  0  0  0  0  0  0  0  0  0  0  0
   -1.1615    1.8857   -2.7485 H   0  0  0  0  0  0  0  0  0  0  0  0
   -1.4008    0.7693   -0.4369 H   0  0  0  0  0  0  0  0  0  0  0  0
   -1.1615    3.3277   -0.6484 H   0  0  0  0  0  0  0  0  0  0  0  0
   -0.3150    2.7777    0.8057 H   0  0  0  0  0  0  0  0  0  0  0  0
    0.6023    3.3176   -0.6019 H   0  0  0  0  0  0  0  0  0  0  0  0
    2.3963    1.7711   -1.1247 H   0  0  0  0  0  0  0  0  0  0  0  0
    4.2510    0.4487   -0.2168 H   0  0  0  0  0  0  0  0  0  0  0  0
    3.7969   -1.5571    1.1604 H   0  0  0  0  0  0  0  0  0  0  0  0
    1.4559   -2.2197    1.6154 H   0  0  0  0  0  0  0  0  0  0  0  0
   -0.4032   -0.8907    0.7029 H   0  0  0  0  0  0  0  0  0  0  0  0
  1  2  1  0
  1  5  1  0
  1  6  1  0
  1  7  1  0
  2  3  1  0
  2  8  1  0
  2 22  1  0
  3  4  1  0
  3  9  1  0
  4 30  1  0
 10 11  1  0
 10 19  1  0
 10 20  1  0
 10 21  1  0
 11 12  1  0
 11 13  1  0
 12 23  1  0
 12 24  1  0
 12 25  1  0
 13 14  2  0
 13 18  1  0
 14 15  1  0
 14 26  1  0
 15 16  2  0
 15 27  1  0
 16 17  1  0
 16 28  1  0
 17 18  2  0
 17 29  1  0
M  CHG  2  11   1  18  -1
M  RAD  1   3   2
M  END
>  <reaction>  (16) 
rxn_1547

>  <mol_properties>  (16) 
{"1": {"label": "*1", "atom_type": "Cs"}, "2": {"label": "*0", "atom_type": "CS"}, "10": {"label": "*3", "atom_type": "Cs"}, "12": {"label": "*4", "atom_type": "Cd"}, "21": {"label": "*2", "atom_type": "H0"}}

>  <type>  (16) 
unop_12

>  <geom_source>  (16) 
Heuristics

$$$$

     RDKit          3D

 30 29  0  0  0  0  0  0  0  0999 V2000
    1.8215    2.8015   -0.9876 S   0  0  0  0  0  1  0  0  0  0  0  0
    2.4120    0.4750   -0.1007 C   0  0  0  0  0  0  0  0  0  0  0  0
    2.8930    0.7754    1.3161 C   0  0  0  0  0  0  0  0  0  0  0  0
    0.3446   -0.9608   -1.7877 C   0  0  0  0  0  0  0  0  0  0  0  0
    0.4713   -1.9866    0.5339 C   0  0  0  0  0  0  0  0  0  0  0  0
    0.1251   -0.7451   -0.2896 C   0  0  0  0  0  0  0  0  0  0  0  0
   -1.2541   -0.2237    0.0161 C   0  0  0  0  0  0  0  0  0  0  0  0
   -2.4063   -0.9835   -0.2567 C   0  0  0  0  0  0  0  0  0  0  0  0
   -1.3883    1.0501    0.5863 C   0  0  0  0  0  0  0  0  0  0  0  0
   -3.6728   -0.4699    0.0394 C   0  0  0  0  0  0  0  0  0  0  0  0
   -3.7980    0.8008    0.6077 C   0  0  0  0  0  0  0  0  0  0  0  0
   -2.6568    1.5601    0.8809 C   0  0  0  0  0  0  0  0  0  0  0  0
    2.6578    1.6336   -1.0253 C   0  0  0  0  0  0  0  0  0  0  0  0
    2.9629   -0.4114   -0.4823 H   0  0  0  0  0  0  0  0  0  0  0  0
    1.0827    0.1665   -0.0773 H   0  0  0  0  0  0  0  0  0  0  0  0
    3.9758    1.0241    1.3116 H   0  0  0  0  0  0  0  0  0  0  0  0
    2.3211    1.6243    1.7468 H   0  0  0  0  0  0  0  0  0  0  0  0
    2.7339   -0.1174    1.9563 H   0  0  0  0  0  0  0  0  0  0  0  0
    1.4068   -1.2220   -1.9774 H   0  0  0  0  0  0  0  0  0  0  0  0
    0.1122   -0.0268   -2.3417 H   0  0  0  0  0  0  0  0  0  0  0  0
   -0.3012   -1.7803   -2.1686 H   0  0  0  0  0  0  0  0  0  0  0  0
    0.3282   -1.7748    1.6146 H   0  0  0  0  0  0  0  0  0  0  0  0
    1.5351   -2.2597    0.3714 H   0  0  0  0  0  0  0  0  0  0  0  0
   -0.1695   -2.8459    0.2432 H   0  0  0  0  0  0  0  0  0  0  0  0
   -2.3248   -1.9692   -0.6966 H   0  0  0  0  0  0  0  0  0  0  0  0
   -4.5572   -1.0571   -0.1717 H   0  0  0  0  0  0  0  0  0  0  0  0
   -0.5108    1.6473    0.8022 H   0  0  0  0  0  0  0  0  0  0  0  0
   -4.7790    1.1970    0.8363 H   0  0  0  0  0  0  0  0  0  0  0  0
   -2.7549    2.5441    1.3210 H   0  0  0  0  0  0  0  0  0  0  0  0
    3.3897    1.5344   -1.8204 H   0  0  0  0  0  0  0  0  0  0  0  0
  1 13  1  0
  2  3  1  0
  2 13  2  3
  2 14  1  0
  3 16  1  0
  3 17  1  0
  3 18  1  0
  4  6  1  0
  4 19  1  0
  4 20  1  0
  4 21  1  0
  5  6  1  0
  5 22  1  0
  5 23  1  0
  5 24  1  0
  6  7  1  0
  6 15  1  0
  7  8  2  0
  7  9  1  0
  8 10  1  0
  8 25  1  0
  9 12  2  0
  9 27  1  0
 10 11  2  0
 10 26  1  0
 11 12  1  0
 11 28  1  0
 12 29  1  0
 13 30  1  0
M  RAD  1   1   2
M  END
>  <reaction>  (17) 
rxn_1547

>  <mol_properties>  (17) 
{"1": {"label": "*1", "atom_type": "Cs"}, "2": {"label": "*0", "atom_type": "CS"}, "10": {"label": "*3", "atom_type": "Cs"}, "12": {"label": "*4", "atom_type": "Cd"}, "21": {"label": "*2", "atom_type": "H0"}}

>  <type>  (17) 
unop_13

>  <geom_source>  (17) 
AutoTST

$$$$

     RDKit          3D

 30 29  0  0  0  0  0  0  0  0999 V2000
   -3.0735   -1.0478   -1.1670 C   0  0  0  0  0  0  0  0  0  0  0  0
   -2.6085    0.0014   -0.1535 C   0  0  0  0  0  0  0  0  0  0  0  0
   -1.9994   -0.6343    1.0510 C   0  0  0  0  0  0  0  0  0  0  0  0
   -0.4973   -0.4321    1.5839 S   0  0  0  0  0  0  0  0  0  0  0  0
   -2.2266   -1.6240   -1.5416 H   0  0  0  0  0  0  0  0  0  0  0  0
   -3.7862   -1.7433   -0.7199 H   0  0  0  0  0  0  0  0  0  0  0  0
   -3.5600   -0.5656   -2.0150 H   0  0  0  0  0  0  0  0  0  0  0  0
   -3.4763    0.5819    0.1806 H   0  0  0  0  0  0  0  0  0  0  0  0
   -2.6684   -1.3106    1.5891 H   0  0  0  0  0  0  0  0  0  0  0  0
   -0.3948    1.1576   -2.4770 C   0  0  0  0  0  0  0  0  0  0  0  0
   -0.3948    1.1576   -0.9473 C   0  0  0  0  0  3  0  0  0  0  0  0
   -0.3948    2.5852   -0.3979 C   0  0  0  0  0  0  0  0  0  0  0  0
    0.7545    0.3447   -0.3892 C   0  0  0  0  0  0  0  0  0  0  0  0
    2.0776    0.7044   -0.6362 C   0  0  0  0  0  0  0  0  0  0  0  0
    3.1272   -0.0403   -0.1249 C   0  0  0  0  0  0  0  0  0  0  0  0
    2.8741   -1.1651    0.6474 C   0  0  0  0  0  0  0  0  0  0  0  0
    1.5637   -1.5349    0.9013 C   0  0  0  0  0  0  0  0  0  0  0  0
    0.5165   -0.7842    0.3859 C   0  0  0  0  0  0  0  0  0  0  0  0
    0.4995    1.6478   -2.8687 H   0  0  0  0  0  0  0  0  0  0  0  0
   -0.4179    0.1402   -2.8704 H   0  0  0  0  0  0  0  0  0  0  0  0
   -1.2644    1.6948   -2.8613 H   0  0  0  0  0  0  0  0  0  0  0  0
   -1.5037    0.5784   -0.5497 H   0  0  0  0  0  0  0  0  0  0  0  0
   -1.2644    3.1368   -0.7612 H   0  0  0  0  0  0  0  0  0  0  0  0
   -0.4179    2.5868    0.6928 H   0  0  0  0  0  0  0  0  0  0  0  0
    0.4995    3.1267   -0.7147 H   0  0  0  0  0  0  0  0  0  0  0  0
    2.2934    1.5802   -1.2375 H   0  0  0  0  0  0  0  0  0  0  0  0
    4.1481    0.2578   -0.3296 H   0  0  0  0  0  0  0  0  0  0  0  0
    3.6940   -1.7480    1.0476 H   0  0  0  0  0  0  0  0  0  0  0  0
    1.3530   -2.4106    1.5026 H   0  0  0  0  0  0  0  0  0  0  0  0
   -0.5061   -1.0816    0.5901 H   0  0  0  0  0  0  0  0  0  0  0  0
  1  2  1  0
  1  5  1  0
  1  6  1  0
  1  7  1  0
  2  3  1  0
  2  8  1  0
  2 22  1  0
  3  4  2  0
  3  9  1  0
 10 11  1  0
 10 19  1  0
 10 20  1  0
 10 21  1  0
 11 12  1  0
 11 13  1  0
 12 23  1  0
 12 24  1  0
 12 25  1  0
 13 14  2  0
 13 18  1  0
 14 15  1  0
 14 26  1  0
 15 16  2  0
 15 27  1  0
 16 17  1  0
 16 28  1  0
 17 18  2  0
 17 29  1  0
 18 30  1  0
M  RAD  1  11   2
M  END
>  <reaction>  (18) 
rxn_1547

>  <mol_properties>  (18) 
{"1": {"label": "*1", "atom_type": "Cs"}, "2": {"label": "*0", "atom_type": "CS"}, "10": {"label": "*3", "atom_type": "Cs"}, "12": {"label": "*4", "atom_type": "Cd"}, "21": {"label": "*2", "atom_type": "H0"}}

>  <type>  (18) 
unop_14

>  <geom_source>  (18) 
gaussian_log

$$$$
