
     RDKit          3D

  5  4  0  0  0  0  0  0  0  0999 V2000
    0.0000    0.0000    0.0000 C   0  0  0  0  0  0  0  0  0  0  0  0
   -0.6486   -0.7720   -0.4113 H   0  0  0  0  0  0  0  0  0  0  0  0
   -0.3482    0.9787   -0.3267 H   0  0  0  0  0  0  0  0  0  0  0  0
   -0.0223   -0.0487    1.0876 H   0  0  0  0  0  0  0  0  0  0  0  0
    1.0191   -0.1580   -0.3496 H   0  0  0  0  0  0  0  0  0  0  0  0
  1  2  1  0
  1  3  1  0
  1  4  1  0
  1  5  1  0
M  END
>  <reaction>  (1) 
rxn_852

>  <mol_properties>  (1) 
{"0": {"label": "donator", "atom_type": "Cs"}, "1": {"label": "d_hydrogen", "atom_type": "H0"}}

>  <type>  (1) 
r1h

$$$$

     RDKit          3D

 12 11  0  0  0  0  0  0  0  0999 V2000
    2.7049    0.9350   -0.4404 S   0  0  0  0  0  1  0  0  0  0  0  0
    1.0313    1.0813   -0.4080 C   0  0  0  0  0  0  0  0  0  0  0  0
    0.1364    0.1019   -0.0473 C   0  0  0  0  0  0  0  0  0  0  0  0
    0.5360   -1.2679    0.3784 C   0  0  0  0  0  0  0  0  0  0  0  0
   -1.3304    0.3842   -0.0689 C   0  0  0  0  0  0  0  0  0  0  0  0
    0.6069    2.0398   -0.6990 H   0  0  0  0  0  0  0  0  0  0  0  0
    0.1578   -1.4699    1.3849 H   0  0  0  0  0  0  0  0  0  0  0  0
    0.0783   -2.0109   -0.2814 H   0  0  0  0  0  0  0  0  0  0  0  0
    1.6154   -1.3973    0.3689 H   0  0  0  0  0  0  0  0  0  0  0  0
   -1.8406   -0.3126   -0.7406 H   0  0  0  0  0  0  0  0  0  0  0  0
   -1.5514    1.4016   -0.3887 H   0  0  0  0  0  0  0  0  0  0  0  0
   -1.7610    0.2281    0.9247 H   0  0  0  0  0  0  0  0  0  0  0  0
  1  2  1  0
  2  3  2  3
  2  6  1  0
  3  4  1  0
  3  5  1  0
  4  7  1  0
  4  8  1  0
  4  9  1  0
  5 10  1  0
  5 11  1  0
  5 12  1  0
M  RAD  1   1   2
M  END
>  <reaction>  (2) 
rxn_852

>  <mol_properties>  (2) 
{"2": {"label": "acceptor", "atom_type": "Cs"}}

>  <type>  (2) 
r2

$$$$

     RDKit          3D

 13 12  0  0  0  0  0  0  0  0999 V2000
    2.7452   -1.1134   -0.3601 S   0  0  0  0  0  0  0  0  0  0  0  0
    1.4120   -0.4899    0.2856 C   0  0  0  0  0  0  0  0  0  0  0  0
    0.1714   -0.0257   -0.4180 C   0  0  0  0  0  0  0  0  0  0  0  0
   -0.0717    1.4493   -0.0658 C   0  0  0  0  0  0  0  0  0  0  0  0
    0.1609   -0.2576   -1.9191 C   0  0  0  0  0  0  0  0  0  0  0  0
    1.3665   -0.3550    1.3690 H   0  0  0  0  0  0  0  0  0  0  0  0
   -0.6453   -0.6023    0.0382 H   0  0  0  0  0  0  0  0  0  0  0  0
    0.7161    2.0755   -0.4895 H   0  0  0  0  0  0  0  0  0  0  0  0
   -0.0915    1.6095    1.0136 H   0  0  0  0  0  0  0  0  0  0  0  0
   -1.0268    1.7797   -0.4755 H   0  0  0  0  0  0  0  0  0  0  0  0
    0.3131   -1.3093   -2.1616 H   0  0  0  0  0  0  0  0  0  0  0  0
    0.9567    0.3095   -2.4051 H   0  0  0  0  0  0  0  0  0  0  0  0
   -0.7945    0.0619   -2.3384 H   0  0  0  0  0  0  0  0  0  0  0  0
  1  2  2  0
  2  3  1  0
  2  6  1  0
  3  4  1  0
  3  5  1  0
  3  7  1  0
  4  8  1  0
  4  9  1  0
  4 10  1  0
  5 11  1  0
  5 12  1  0
  5 13  1  0
M  END
>  <reaction>  (3) 
rxn_852

>  <mol_properties>  (3) 
{"2": {"label": "acceptor", "atom_type": "Cs"}, "12": {"label": "a_hydrogen", "atom_type": "H0"}}

>  <type>  (3) 
r2h

$$$$

     RDKit          3D

 17 15  0  0  0  0  0  0  0  0999 V2000
   -2.0549    0.5251    0.1058 S   0  0  0  0  0  0  0  0  0  0  0  0
   -0.5336    0.5981   -0.4416 C   0  0  0  0  0  0  0  0  0  0  0  0
    0.6671   -0.0018    0.1550 C   0  0  0  0  0  0  0  0  0  0  0  0
    1.9399    0.7837   -0.1246 C   0  0  0  0  0  0  0  0  0  0  0  0
    0.5502   -0.4896    1.5828 C   0  0  0  0  0  0  0  0  0  0  0  0
   -0.3452    1.1105   -1.3878 H   0  0  0  0  0  0  0  0  0  0  0  0
    1.9719    1.6940    0.4794 H   0  0  0  0  0  0  0  0  0  0  0  0
    2.8188    0.1867    0.1240 H   0  0  0  0  0  0  0  0  0  0  0  0
    2.0109    1.0717   -1.1751 H   0  0  0  0  0  0  0  0  0  0  0  0
    1.4485   -1.0408    1.8662 H   0  0  0  0  0  0  0  0  0  0  0  0
   -0.3168   -1.1360    1.7118 H   0  0  0  0  0  0  0  0  0  0  0  0
    0.4362    0.3545    2.2676 H   0  0  0  0  0  0  0  0  0  0  0  0
    1.0959   -2.3868   -1.1678 C   0  0  0  0  0  3  0  0  0  0  0  0
    0.7945   -1.0134   -0.5071 H   0  0  0  0  0  0  0  0  0  0  0  0
    1.9189   -2.7534   -0.5667 H   0  0  0  0  0  0  0  0  0  0  0  0
    0.1381   -2.8711   -1.0222 H   0  0  0  0  0  0  0  0  0  0  0  0
    1.3355   -2.0854   -2.1804 H   0  0  0  0  0  0  0  0  0  0  0  0
  1  2  2  0
  2  3  1  0
  2  6  1  0
  3  4  1  0
  3  5  1  0
  3 14  1  0
  4  7  1  0
  4  8  1  0
  4  9  1  0
  5 10  1  0
  5 11  1  0
  5 12  1  0
 13 15  1  0
 13 16  1  0
 13 17  1  0
M  RAD  1  13   2
M  END
>  <reaction>  (4) 
rxn_852

>  <mol_properties>  (4) 
{"1": {"label": "*0", "atom_type": "CS"}, "2": {"label": "*1", "atom_type": "Cs"}, "12": {"label": "*3", "atom_type": "Cs"}, "13": {"label": "*2", "atom_type": "H0"}, "14": {"label": "*4", "atom_type": "H0"}}

>  <type>  (4) 
ts

$$$$

     RDKit          3D

 17 15  0  0  0  0  0  0  0  0999 V2000
   -1.0828    0.0860    1.6463 S   0  0  0  0  0  1  0  0  0  0  0  0
   -0.8657    0.4422    0.0941 C   0  0  0  0  0  0  0  0  0  0  0  0
    0.3893    0.3193   -0.7178 C   0  0  0  0  0  0  0  0  0  0  0  0
    0.7353    1.6974   -1.3011 C   0  0  0  0  0  0  0  0  0  0  0  0
    1.5690   -0.2969    0.0144 C   0  0  0  0  0  0  0  0  0  0  0  0
   -1.7079    0.8416   -0.4760 H   0  0  0  0  0  0  0  0  0  0  0  0
    1.0101    2.3894   -0.5025 H   0  0  0  0  0  0  0  0  0  0  0  0
    1.5807    1.6132   -1.9848 H   0  0  0  0  0  0  0  0  0  0  0  0
   -0.1044    2.1265   -1.8506 H   0  0  0  0  0  0  0  0  0  0  0  0
    2.4185   -0.3937   -0.6636 H   0  0  0  0  0  0  0  0  0  0  0  0
    1.3234   -1.2833    0.4077 H   0  0  0  0  0  0  0  0  0  0  0  0
    1.8711    0.3266    0.8576 H   0  0  0  0  0  0  0  0  0  0  0  0
    0.3893   -2.1560   -1.5930 C   0  0  0  0  0  0  0  0  0  0  0  0
    0.3893   -0.9240   -1.1574 H   0  0  0  0  0  0  0  0  0  0  0  0
    1.2784   -2.6693   -1.2300 H   0  0  0  0  0  0  0  0  0  0  0  0
   -0.4998   -2.6693   -1.2300 H   0  0  0  0  0  0  0  0  0  0  0  0
    0.3893   -2.1560   -2.6819 H   0  0  0  0  0  0  0  0  0  0  0  0
  1  2  1  0
  2  3  2  3
  2  6  1  0
  3  4  1  0
  3  5  1  0
  4  7  1  0
  4  8  1  0
  4  9  1  0
  5 10  1  0
  5 11  1  0
  5 12  1  0
 13 14  1  0
 13 15  1  0
 13 16  1  0
 13 17  1  0
M  RAD  1   1   2
M  END
>  <reaction>  (5) 
rxn_852

>  <mol_properties>  (5) 
{"1": {"label": "*0", "atom_type": "CS"}, "2": {"label": "*1", "atom_type": "Cs"}, "12": {"label": "*3", "atom_type": "Cs"}, "13": {"label": "*2", "atom_type": "H0"}, "14": {"label": "*4", "atom_type": "H0"}}

>  <type>  (5) 
unop_1

>  <geom_source>  (5) 
Heuristics

$$$$

     RDKit          3D

 17 15  0  0  0  0  0  0  0  0999 V2000
   -1.5160    1.1673   -0.6582 S   0  0  0  0  0  1  0  0  0  0  0  0
   -0.0223    0.5764   -0.7112 C   0  0  0  0  0  0  0  0  0  0  0  0
    0.7022   -0.2064    0.3432 C   0  0  0  0  0  0  0  0  0  0  0  0
    1.9948    0.5385    0.7082 C   0  0  0  0  0  0  0  0  0  0  0  0
   -0.1233   -0.5420    1.5734 C   0  0  0  0  0  0  0  0  0  0  0  0
    0.5828    0.7572   -1.6028 H   0  0  0  0  0  0  0  0  0  0  0  0
    1.7615    1.4840    1.2020 H   0  0  0  0  0  0  0  0  0  0  0  0
    2.5940   -0.0640    1.3919 H   0  0  0  0  0  0  0  0  0  0  0  0
    2.6002    0.7544   -0.1739 H   0  0  0  0  0  0  0  0  0  0  0  0
    0.4644   -1.1525    2.2608 H   0  0  0  0  0  0  0  0  0  0  0  0
   -1.0286   -1.0887    1.3095 H   0  0  0  0  0  0  0  0  0  0  0  0
   -0.4290    0.3663    2.0954 H   0  0  0  0  0  0  0  0  0  0  0  0
    0.7022   -2.6816   -0.5319 C   0  0  0  0  0  0  0  0  0  0  0  0
    0.7022   -1.4497   -0.0963 H   0  0  0  0  0  0  0  0  0  0  0  0
    1.5913   -3.1950   -0.1689 H   0  0  0  0  0  0  0  0  0  0  0  0
   -0.1869   -3.1950   -0.1689 H   0  0  0  0  0  0  0  0  0  0  0  0
    0.7022   -2.6816   -1.6208 H   0  0  0  0  0  0  0  0  0  0  0  0
  1  2  1  0
  2  3  2  3
  2  6  1  0
  3  4  1  0
  3  5  1  0
  4  7  1  0
  4  8  1  0
  4  9  1  0
  5 10  1  0
  5 11  1  0
  5 12  1  0
 13 14  1  0
 13 15  1  0
 13 16  1  0
 13 17  1  0
M  RAD  1   1   2
M  END
>  <reaction>  (6) 
rxn_852

>  <mol_properties>  (6) 
{"1": {"label": "*0", "atom_type": "CS"}, "2": {"label": "*1", "atom_type": "Cs"}, "12": {"label": "*3", "atom_type": "Cs"}, "13": {"label": "*2", "atom_type": "H0"}, "14": {"label": "*4", "atom_type": "H0"}}

>  <type>  (6) 
unop_2

>  <geom_source>  (6) 
Heuristics

$$$$

     RDKit          3D

 17 15  0  0  0  0  0  0  0  0999 V2000
   -0.1302    0.1281    1.9959 S   0  0  0  0  0  1  0  0  0  0  0  0
   -0.7572    0.1954    0.5176 C   0  0  0  0  0  0  0  0  0  0  0  0
   -0.0326    0.2494   -0.7945 C   0  0  0  0  0  0  0  0  0  0  0  0
   -0.4698    1.5151   -1.5467 C   0  0  0  0  0  0  0  0  0  0  0  0
    1.4796    0.1438   -0.6966 C   0  0  0  0  0  0  0  0  0  0  0  0
   -1.8441    0.2227    0.4086 H   0  0  0  0  0  0  0  0  0  0  0  0
   -0.1223    2.4074   -1.0220 H   0  0  0  0  0  0  0  0  0  0  0  0
   -0.0416    1.5214   -2.5497 H   0  0  0  0  0  0  0  0  0  0  0  0
   -1.5555    1.5754   -1.6404 H   0  0  0  0  0  0  0  0  0  0  0  0
    1.9179    0.1406   -1.6959 H   0  0  0  0  0  0  0  0  0  0  0  0
    1.7835   -0.7666   -0.1804 H   0  0  0  0  0  0  0  0  0  0  0  0
    1.8926    0.9885   -0.1426 H   0  0  0  0  0  0  0  0  0  0  0  0
   -0.0326   -2.2259   -1.6697 C   0  0  0  0  0  0  0  0  0  0  0  0
   -0.0326   -0.9939   -1.2341 H   0  0  0  0  0  0  0  0  0  0  0  0
    0.8565   -2.7392   -1.3067 H   0  0  0  0  0  0  0  0  0  0  0  0
   -0.9217   -2.7392   -1.3067 H   0  0  0  0  0  0  0  0  0  0  0  0
   -0.0326   -2.2259   -2.7586 H   0  0  0  0  0  0  0  0  0  0  0  0
  1  2  1  0
  2  3  2  3
  2  6  1  0
  3  4  1  0
  3  5  1  0
  4  7  1  0
  4  8  1  0
  4  9  1  0
  5 10  1  0
  5 11  1  0
  5 12  1  0
 13 14  1  0
 13 15  1  0
 13 16  1  0
 13 17  1  0
M  RAD  1   1   2
M  END
>  <reaction>  (7) 
rxn_852

>  <mol_properties>  (7) 
{"1": {"label": "*0", "atom_type": "CS"}, "2": {"label": "*1", "atom_type": "Cs"}, "12": {"label": "*3", "atom_type": "Cs"}, "13": {"label": "*2", "atom_type": "H0"}, "14": {"label": "*4", "atom_type": "H0"}}

>  <type>  (7) 
unop_3

>  <geom_source>  (7) 
Heuristics

$$$$

     RDKit          3D

 17 15  0  0  0  0  0  0  0  0999 V2000
    1.0340    1.7705   -0.6056 S   0  0  0  0  0  1  0  0  0  0  0  0
    0.7237    0.2202   -0.3165 C   0  0  0  0  0  0  0  0  0  0  0  0
   -0.5313   -0.3857    0.2378 C   0  0  0  0  0  0  0  0  0  0  0  0
   -0.1794   -1.1677    1.5119 C   0  0  0  0  0  0  0  0  0  0  0  0
   -1.6675    0.5949    0.4720 C   0  0  0  0  0  0  0  0  0  0  0  0
    1.5026   -0.5184   -0.5207 H   0  0  0  0  0  0  0  0  0  0  0  0
    0.1477   -0.4844    2.2984 H   0  0  0  0  0  0  0  0  0  0  0  0
   -1.0547   -1.7087    1.8732 H   0  0  0  0  0  0  0  0  0  0  0  0
    0.6182   -1.8914    1.3352 H   0  0  0  0  0  0  0  0  0  0  0  0
   -2.5518    0.0624    0.8257 H   0  0  0  0  0  0  0  0  0  0  0  0
   -1.9262    1.1313   -0.4408 H   0  0  0  0  0  0  0  0  0  0  0  0
   -1.3906    1.3379    1.2219 H   0  0  0  0  0  0  0  0  0  0  0  0
   -0.5313   -2.8610   -0.6374 C   0  0  0  0  0  0  0  0  0  0  0  0
   -0.5313   -1.6290   -0.2018 H   0  0  0  0  0  0  0  0  0  0  0  0
    0.3578   -3.3743   -0.2744 H   0  0  0  0  0  0  0  0  0  0  0  0
   -1.4204   -3.3743   -0.2744 H   0  0  0  0  0  0  0  0  0  0  0  0
   -0.5313   -2.8610   -1.7263 H   0  0  0  0  0  0  0  0  0  0  0  0
  1  2  1  0
  2  3  2  3
  2  6  1  0
  3  4  1  0
  3  5  1  0
  4  7  1  0
  4  8  1  0
  4  9  1  0
  5 10  1  0
  5 11  1  0
  5 12  1  0
 13 14  1  0
 13 15  1  0
 13 16  1  0
 13 17  1  0
M  RAD  1   1   2
M  END
>  <reaction>  (8) 
rxn_852

>  <mol_properties>  (8) 
{"1": {"label": "*0", "atom_type": "CS"}, "2": {"label": "*1", "atom_type": "Cs"}, "12": {"label": "*3", "atom_type": "Cs"}, "13": {"label": "*2", "atom_type": "H0"}, "14": {"label": "*4", "atom_type": "H0"}}

>  <type>  (8) 
unop_4

>  <geom_source>  (8) 
Heuristics

$$$$

     RDKit          3D

 17 15  0  0  0  0  0  0  0  0999 V2000
    0.7544    0.5398    1.8528 S   0  0  0  0  0  1  0  0  0  0  0  0
   -0.2983   -0.0790    0.8078 C   0  0  0  0  0  0  0  0  0  0  0  0
   -0.2983    0.0397   -0.6873 C   0  0  0  0  0  0  0  0  0  0  0  0
   -1.6263    0.6707   -1.1311 C   0  0  0  0  0  0  0  0  0  0  0  0
    0.8981    0.7701   -1.2725 C   0  0  0  0  0  0  0  0  0  0  0  0
   -1.1449   -0.6528    1.1925 H   0  0  0  0  0  0  0  0  0  0  0  0
   -1.6876    1.7058   -0.7891 H   0  0  0  0  0  0  0  0  0  0  0  0
   -1.6977    0.6668   -2.2193 H   0  0  0  0  0  0  0  0  0  0  0  0
   -2.4853    0.1281   -0.7324 H   0  0  0  0  0  0  0  0  0  0  0  0
    0.8411    0.7646   -2.3621 H   0  0  0  0  0  0  0  0  0  0  0  0
    1.8364    0.3049   -0.9707 H   0  0  0  0  0  0  0  0  0  0  0  0
    0.9228    1.8076   -0.9346 H   0  0  0  0  0  0  0  0  0  0  0  0
   -0.2983   -2.4356   -1.5624 C   0  0  0  0  0  0  0  0  0  0  0  0
   -0.2983   -1.2036   -1.1268 H   0  0  0  0  0  0  0  0  0  0  0  0
    0.5908   -2.9489   -1.1994 H   0  0  0  0  0  0  0  0  0  0  0  0
   -1.1874   -2.9489   -1.1994 H   0  0  0  0  0  0  0  0  0  0  0  0
   -0.2983   -2.4356   -2.6513 H   0  0  0  0  0  0  0  0  0  0  0  0
  1  2  1  0
  2  3  2  3
  2  6  1  0
  3  4  1  0
  3  5  1  0
  4  7  1  0
  4  8  1  0
  4  9  1  0
  5 10  1  0
  5 11  1  0
  5 12  1  0
 13 14  1  0
 13 15  1  0
 13 16  1  0
 13 17  1  0
M  RAD  1   1   2
M  END
>  <reaction>  (9) 
rxn_852

>  <mol_properties>  (9) 
{"1": {"label": "*0", "atom_type": "CS"}, "2": {"label": "*1", "atom_type": "Cs"}, "12": {"label": "*3", "atom_type": "Cs"}, "13": {"label": "*2", "atom_type": "H0"}, "14": {"label": "*4", "atom_type": "H0"}}

>  <type>  (9) 
unop_5

>  <geom_source>  (9) 
Heuristics

$$$$

     RDKit          3D

 17 15  0  0  0  0  0  0  0  0999 V2000
    1.4630    1.5673    0.1160 S   0  0  0  0  0  1  0  0  0  0  0  0
    0.8130    0.1007    0.0177 C   0  0  0  0  0  0  0  0  0  0  0  0
   -0.6361   -0.2637   -0.1111 C   0  0  0  0  0  0  0  0  0  0  0  0
   -1.0210   -1.1750    1.0637 C   0  0  0  0  0  0  0  0  0  0  0  0
   -1.5842    0.9155   -0.2460 C   0  0  0  0  0  0  0  0  0  0  0  0
    1.4719   -0.7699    0.0617 H   0  0  0  0  0  0  0  0  0  0  0  0
   -0.9756   -0.6217    2.0039 H   0  0  0  0  0  0  0  0  0  0  0  0
   -2.0393   -1.5433    0.9341 H   0  0  0  0  0  0  0  0  0  0  0  0
   -0.3556   -2.0366    1.1422 H   0  0  0  0  0  0  0  0  0  0  0  0
   -2.6057    0.5578   -0.3849 H   0  0  0  0  0  0  0  0  0  0  0  0
   -1.3181    1.5465   -1.0938 H   0  0  0  0  0  0  0  0  0  0  0  0
   -1.5571    1.5397    0.6488 H   0  0  0  0  0  0  0  0  0  0  0  0
   -0.6361   -2.7390   -0.9863 C   0  0  0  0  0  0  0  0  0  0  0  0
   -0.6361   -1.5070   -0.5507 H   0  0  0  0  0  0  0  0  0  0  0  0
    0.2530   -3.2523   -0.6233 H   0  0  0  0  0  0  0  0  0  0  0  0
   -1.5252   -3.2523   -0.6233 H   0  0  0  0  0  0  0  0  0  0  0  0
   -0.6361   -2.7390   -2.0752 H   0  0  0  0  0  0  0  0  0  0  0  0
  1  2  1  0
  2  3  2  3
  2  6  1  0
  3  4  1  0
  3  5  1  0
  4  7  1  0
  4  8  1  0
  4  9  1  0
  5 10  1  0
  5 11  1  0
  5 12  1  0
 13 14  1  0
 13 15  1  0
 13 16  1  0
 13 17  1  0
M  RAD  1   1   2
M  END
>  <reaction>  (10) 
rxn_852

>  <mol_properties>  (10) 
{"1": {"label": "*0", "atom_type": "CS"}, "2": {"label": "*1", "atom_type": "Cs"}, "12": {"label": "*3", "atom_type": "Cs"}, "13": {"label": "*2", "atom_type": "H0"}, "14": {"label": "*4", "atom_type": "H0"}}

>  <type>  (10) 
unop_6

>  <geom_source>  (10) 
Heuristics

$$$$

     RDKit          3D

 17 15  0  0  0  0  0  0  0  0999 V2000
    1.4814    1.3015    0.8461 S   0  0  0  0  0  1  0  0  0  0  0  0
    0.7080   -0.0384    0.4105 C   0  0  0  0  0  0  0  0  0  0  0  0
   -0.5470   -0.1613   -0.4015 C   0  0  0  0  0  0  0  0  0  0  0  0
   -1.5947   -0.9229    0.4237 C   0  0  0  0  0  0  0  0  0  0  0  0
   -1.0943    1.1502   -0.9382 C   0  0  0  0  0  0  0  0  0  0  0  0
    1.1029   -1.0031    0.7382 H   0  0  0  0  0  0  0  0  0  0  0  0
   -1.9020   -0.3297    1.2874 H   0  0  0  0  0  0  0  0  0  0  0  0
   -2.4779   -1.1220   -0.1843 H   0  0  0  0  0  0  0  0  0  0  0  0
   -1.2089   -1.8777    0.7853 H   0  0  0  0  0  0  0  0  0  0  0  0
   -1.9740    0.9614   -1.5556 H   0  0  0  0  0  0  0  0  0  0  0  0
   -0.3530    1.6756   -1.5400 H   0  0  0  0  0  0  0  0  0  0  0  0
   -1.3834    1.8135   -0.1212 H   0  0  0  0  0  0  0  0  0  0  0  0
   -0.5470   -2.6365   -1.2766 C   0  0  0  0  0  0  0  0  0  0  0  0
   -0.5470   -1.4046   -0.8411 H   0  0  0  0  0  0  0  0  0  0  0  0
    0.3421   -3.1499   -0.9137 H   0  0  0  0  0  0  0  0  0  0  0  0
   -1.4361   -3.1499   -0.9137 H   0  0  0  0  0  0  0  0  0  0  0  0
   -0.5470   -2.6365   -2.3656 H   0  0  0  0  0  0  0  0  0  0  0  0
  1  2  1  0
  2  3  2  3
  2  6  1  0
  3  4  1  0
  3  5  1  0
  4  7  1  0
  4  8  1  0
  4  9  1  0
  5 10  1  0
  5 11  1  0
  5 12  1  0
 13 14  1  0
 13 15  1  0
 13 16  1  0
 13 17  1  0
M  RAD  1   1   2
M  END
>  <reaction>  (11) 
rxn_852

>  <mol_properties>  (11) 
{"1": {"label": "*0", "atom_type": "CS"}, "2": {"label": "*1", "atom_type": "Cs"}, "12": {"label": "*3", "atom_type": "Cs"}, "13": {"label": "*2", "atom_type": "H0"}, "14": {"label": "*4", "atom_type": "H0"}}

>  <type>  (11) 
unop_7

>  <geom_source>  (11) 
Heuristics

$$$$

     RDKit          3D

 17 15  0  0  0  0  0  0  0  0999 V2000
   -1.7030    0.3231    0.9350 S   0  0  0  0  0  1  0  0  0  0  0  0
   -0.7181    0.5926   -0.3061 C   0  0  0  0  0  0  0  0  0  0  0  0
    0.7310    0.2283   -0.4349 C   0  0  0  0  0  0  0  0  0  0  0  0
    1.5384    1.5072   -0.7019 C   0  0  0  0  0  0  0  0  0  0  0  0
    1.2984   -0.5658    0.7291 C   0  0  0  0  0  0  0  0  0  0  0  0
   -1.1076    1.1183   -1.1813 H   0  0  0  0  0  0  0  0  0  0  0  0
    1.5126    2.1616    0.1717 H   0  0  0  0  0  0  0  0  0  0  0  0
    2.5794    1.2566   -0.9090 H   0  0  0  0  0  0  0  0  0  0  0  0
    1.1464    2.0623   -1.5559 H   0  0  0  0  0  0  0  0  0  0  0  0
    2.3381   -0.8294    0.5282 H   0  0  0  0  0  0  0  0  0  0  0  0
    0.7338   -1.4823    0.8999 H   0  0  0  0  0  0  0  0  0  0  0  0
    1.2634    0.0177    1.6507 H   0  0  0  0  0  0  0  0  0  0  0  0
    0.7310   -2.2470   -1.3101 C   0  0  0  0  0  0  0  0  0  0  0  0
    0.7310   -1.0150   -0.8745 H   0  0  0  0  0  0  0  0  0  0  0  0
    1.6201   -2.7604   -0.9471 H   0  0  0  0  0  0  0  0  0  0  0  0
   -0.1581   -2.7604   -0.9471 H   0  0  0  0  0  0  0  0  0  0  0  0
    0.7310   -2.2470   -2.3990 H   0  0  0  0  0  0  0  0  0  0  0  0
  1  2  1  0
  2  3  2  3
  2  6  1  0
  3  4  1  0
  3  5  1  0
  4  7  1  0
  4  8  1  0
  4  9  1  0
  5 10  1  0
  5 11  1  0
  5 12  1  0
 13 14  1  0
 13 15  1  0
 13 16  1  0
 13 17  1  0
M  RAD  1   1   2
M  END
>  <reaction>  (12) 
rxn_852

>  <mol_properties>  (12) 
{"1": {"label": "*0", "atom_type": "CS"}, "2": {"label": "*1", "atom_type": "Cs"}, "12": {"label": "*3", "atom_type": "Cs"}, "13": {"label": "*2", "atom_type": "H0"}, "14": {"label": "*4", "atom_type": "H0"}}

>  <type>  (12) 
unop_8

>  <geom_source>  (12) 
Heuristics

$$$$

     RDKit          3D

 17 15  0  0  0  0  0  0  0  0999 V2000
    0.2151    1.8056   -1.0784 S   0  0  0  0  0  1  0  0  0  0  0  0
    0.5367    0.3240   -0.5450 C   0  0  0  0  0  0  0  0  0  0  0  0
   -0.1878   -0.4587    0.5094 C   0  0  0  0  0  0  0  0  0  0  0  0
    0.8097   -0.8376    1.6140 C   0  0  0  0  0  0  0  0  0  0  0  0
   -1.4255    0.2179    1.0731 C   0  0  0  0  0  0  0  0  0  0  0  0
    1.3915   -0.2115   -0.9651 H   0  0  0  0  0  0  0  0  0  0  0  0
    1.1488    0.0561    2.1419 H   0  0  0  0  0  0  0  0  0  0  0  0
    0.3336   -1.5004    2.3374 H   0  0  0  0  0  0  0  0  0  0  0  0
    1.6856   -1.3484    1.2103 H   0  0  0  0  0  0  0  0  0  0  0  0
   -1.9148   -0.4409    1.7924 H   0  0  0  0  0  0  0  0  0  0  0  0
   -2.1384    0.4652    0.2866 H   0  0  0  0  0  0  0  0  0  0  0  0
   -1.1624    1.1471    1.5814 H   0  0  0  0  0  0  0  0  0  0  0  0
   -0.1878   -2.9340   -0.3658 C   0  0  0  0  0  0  0  0  0  0  0  0
   -0.1878   -1.7020    0.0698 H   0  0  0  0  0  0  0  0  0  0  0  0
    0.7013   -3.4474   -0.0028 H   0  0  0  0  0  0  0  0  0  0  0  0
   -1.0770   -3.4474   -0.0028 H   0  0  0  0  0  0  0  0  0  0  0  0
   -0.1878   -2.9340   -1.4547 H   0  0  0  0  0  0  0  0  0  0  0  0
  1  2  1  0
  2  3  2  3
  2  6  1  0
  3  4  1  0
  3  5  1  0
  4  7  1  0
  4  8  1  0
  4  9  1  0
  5 10  1  0
  5 11  1  0
  5 12  1  0
 13 14  1  0
 13 15  1  0
 13 16  1  0
 13 17  1  0
M  RAD  1   1   2
M  END
>  <reaction>  (13) 
rxn_852

>  <mol_properties>  (13) 
{"1": {"label": "*0", "atom_type": "CS"}, "2": {"label": "*1", "atom_type": "Cs"}, "12": {"label": "*3", "atom_type": "Cs"}, "13": {"label": "*2", "atom_type": "H0"}, "14": {"label": "*4", "atom_type": "H0"}}

>  <type>  (13) 
unop_9

>  <geom_source>  (13) 
Heuristics

$$$$

     RDKit          3D

 17 15  0  0  0  0  0  0  0  0999 V2000
   -1.8529    0.7119    0.0913 S   0  0  0  0  0  1  0  0  0  0  0  0
   -0.4000    0.6387   -0.5921 C   0  0  0  0  0  0  0  0  0  0  0  0
    0.8550    0.0328   -0.0377 C   0  0  0  0  0  0  0  0  0  0  0  0
    1.9445    1.1143    0.0098 C   0  0  0  0  0  0  0  0  0  0  0  0
    0.6926   -0.6653    1.3015 C   0  0  0  0  0  0  0  0  0  0  0  0
   -0.2600    1.0880   -1.5782 H   0  0  0  0  0  0  0  0  0  0  0  0
    1.6840    1.8836    0.7396 H   0  0  0  0  0  0  0  0  0  0  0  0
    2.8973    0.6734    0.3051 H   0  0  0  0  0  0  0  0  0  0  0  0
    2.0793    1.5958   -0.9603 H   0  0  0  0  0  0  0  0  0  0  0  0
    1.6389   -1.1178    1.6026 H   0  0  0  0  0  0  0  0  0  0  0  0
   -0.0671   -1.4455    1.2554 H   0  0  0  0  0  0  0  0  0  0  0  0
    0.3889    0.0430    2.0742 H   0  0  0  0  0  0  0  0  0  0  0  0
    0.8550   -2.4425   -0.9129 C   0  0  0  0  0  0  0  0  0  0  0  0
    0.8550   -1.2105   -0.4773 H   0  0  0  0  0  0  0  0  0  0  0  0
    1.7441   -2.9558   -0.5499 H   0  0  0  0  0  0  0  0  0  0  0  0
   -0.0341   -2.9558   -0.5499 H   0  0  0  0  0  0  0  0  0  0  0  0
    0.8550   -2.4425   -2.0018 H   0  0  0  0  0  0  0  0  0  0  0  0
  1  2  1  0
  2  3  2  3
  2  6  1  0
  3  4  1  0
  3  5  1  0
  4  7  1  0
  4  8  1  0
  4  9  1  0
  5 10  1  0
  5 11  1  0
  5 12  1  0
 13 14  1  0
 13 15  1  0
 13 16  1  0
 13 17  1  0
M  RAD  1   1   2
M  END
>  <reaction>  (14) 
rxn_852

>  <mol_properties>  (14) 
{"1": {"label": "*0", "atom_type": "CS"}, "2": {"label": "*1", "atom_type": "Cs"}, "12": {"label": "*3", "atom_type": "Cs"}, "13": {"label": "*2", "atom_type": "H0"}, "14": {"label": "*4", "atom_type": "H0"}}

>  <type>  (14) 
unop_10

>  <geom_source>  (14) 
Heuristics

$$$$

     RDKit          3D

 17 15  0  0  0  0  0  0  0  0999 V2000
    1.2266    0.9938    1.4260 S   0  0  0  0  0  1  0  0  0  0  0  0
    0.3237   -0.1469    0.7429 C   0  0  0  0  0  0  0  0  0  0  0  0
   -0.4009   -0.0929   -0.5692 C   0  0  0  0  0  0  0  0  0  0  0  0
   -1.8939   -0.3513   -0.3181 C   0  0  0  0  0  0  0  0  0  0  0  0
   -0.1742    1.1746   -1.3751 C   0  0  0  0  0  0  0  0  0  0  0  0
    0.1802   -1.0912    1.2735 H   0  0  0  0  0  0  0  0  0  0  0  0
   -2.3305    0.4706    0.2529 H   0  0  0  0  0  0  0  0  0  0  0  0
   -2.4257   -0.4268   -1.2672 H   0  0  0  0  0  0  0  0  0  0  0  0
   -2.0566   -1.2768    0.2370 H   0  0  0  0  0  0  0  0  0  0  0  0
   -0.6955    1.1058   -2.3313 H   0  0  0  0  0  0  0  0  0  0  0  0
    0.8856    1.3409   -1.5677 H   0  0  0  0  0  0  0  0  0  0  0  0
   -0.5513    2.0476   -0.8398 H   0  0  0  0  0  0  0  0  0  0  0  0
   -0.4009   -2.5682   -1.4443 C   0  0  0  0  0  0  0  0  0  0  0  0
   -0.4009   -1.3362   -1.0088 H   0  0  0  0  0  0  0  0  0  0  0  0
    0.4882   -3.0815   -1.0813 H   0  0  0  0  0  0  0  0  0  0  0  0
   -1.2900   -3.0815   -1.0813 H   0  0  0  0  0  0  0  0  0  0  0  0
   -0.4009   -2.5682   -2.5333 H   0  0  0  0  0  0  0  0  0  0  0  0
  1  2  1  0
  2  3  2  3
  2  6  1  0
  3  4  1  0
  3  5  1  0
  4  7  1  0
  4  8  1  0
  4  9  1  0
  5 10  1  0
  5 11  1  0
  5 12  1  0
 13 14  1  0
 13 15  1  0
 13 16  1  0
 13 17  1  0
M  RAD  1   1   2
M  END
>  <reaction>  (15) 
rxn_852

>  <mol_properties>  (15) 
{"1": {"label": "*0", "atom_type": "CS"}, "2": {"label": "*1", "atom_type": "Cs"}, "12": {"label": "*3", "atom_type": "Cs"}, "13": {"label": "*2", "atom_type": "H0"}, "14": {"label": "*4", "atom_type": "H0"}}

>  <type>  (15) 
unop_11

>  <geom_source>  (15) 
Heuristics

$$$$

     RDKit          3D

 17 15  0  0  0  0  0  0  0  0999 V2000
   -0.7544    1.5844   -1.1018 S   0  0  0  0  0  1  0  0  0  0  0  0
    0.2983    0.4463   -0.6780 C   0  0  0  0  0  0  0  0  0  0  0  0
    0.2983   -0.4011    0.5595 C   0  0  0  0  0  0  0  0  0  0  0  0
    1.6263   -0.1893    1.3013 C   0  0  0  0  0  0  0  0  0  0  0  0
   -0.8981   -0.2008    1.4737 C   0  0  0  0  0  0  0  0  0  0  0  0
    1.1449    0.2418   -1.3378 H   0  0  0  0  0  0  0  0  0  0  0  0
    1.6876    0.8308    1.6859 H   0  0  0  0  0  0  0  0  0  0  0  0
    1.6977   -0.8763    2.1452 H   0  0  0  0  0  0  0  0  0  0  0  0
    2.4853   -0.3607    0.6502 H   0  0  0  0  0  0  0  0  0  0  0  0
   -0.8411   -0.8900    2.3178 H   0  0  0  0  0  0  0  0  0  0  0  0
   -1.8364   -0.3730    0.9467 H   0  0  0  0  0  0  0  0  0  0  0  0
   -0.9228    0.8185    1.8630 H   0  0  0  0  0  0  0  0  0  0  0  0
    0.2983   -2.8764   -0.3157 C   0  0  0  0  0  0  0  0  0  0  0  0
    0.2983   -1.6444    0.1199 H   0  0  0  0  0  0  0  0  0  0  0  0
    1.1874   -3.3897    0.0473 H   0  0  0  0  0  0  0  0  0  0  0  0
   -0.5908   -3.3897    0.0473 H   0  0  0  0  0  0  0  0  0  0  0  0
    0.2983   -2.8764   -1.4046 H   0  0  0  0  0  0  0  0  0  0  0  0
  1  2  1  0
  2  3  2  3
  2  6  1  0
  3  4  1  0
  3  5  1  0
  4  7  1  0
  4  8  1  0
  4  9  1  0
  5 10  1  0
  5 11  1  0
  5 12  1  0
 13 14  1  0
 13 15  1  0
 13 16  1  0
 13 17  1  0
M  RAD  1   1   2
M  END
>  <reaction>  (16) 
rxn_852

>  <mol_properties>  (16) 
{"1": {"label": "*0", "atom_type": "CS"}, "2": {"label": "*1", "atom_type": "Cs"}, "12": {"label": "*3", "atom_type": "Cs"}, "13": {"label": "*2", "atom_type": "H0"}, "14": {"label": "*4", "atom_type": "H0"}}

>  <type>  (16) 
unop_12

>  <geom_source>  (16) 
Heuristics

$$$$

     RDKit          3D

 17 15  0  0  0  0  0  0  0  0999 V2000
    0.0197    0.2748    2.4993 S   0  0  0  0  0  1  0  0  0  0  0  0
   -0.3827   -0.0883   -0.0055 C   0  0  0  0  0  0  0  0  0  0  0  0
   -1.2507    1.1216   -0.3694 C   0  0  0  0  0  0  0  0  0  0  0  0
   -0.6988   -1.2676   -0.9297 C   0  0  0  0  0  0  0  0  0  0  0  0
   -0.5865   -0.4811    1.4381 C   0  0  0  0  0  0  0  0  0  0  0  0
    2.1588    0.4520    0.1665 C   0  0  0  0  0  0  0  0  0  0  0  0
    0.9772    0.2571   -0.2051 H   0  0  0  0  0  0  0  0  0  0  0  0
   -1.0882    1.4010   -1.4319 H   0  0  0  0  0  0  0  0  0  0  0  0
   -2.3275    0.8926   -0.2162 H   0  0  0  0  0  0  0  0  0  0  0  0
   -0.9744    1.9945    0.2591 H   0  0  0  0  0  0  0  0  0  0  0  0
   -0.0492   -2.1322   -0.6756 H   0  0  0  0  0  0  0  0  0  0  0  0
   -0.5008   -0.9867   -1.9857 H   0  0  0  0  0  0  0  0  0  0  0  0
   -1.7630   -1.5731   -0.8307 H   0  0  0  0  0  0  0  0  0  0  0  0
   -1.0996   -1.4056    1.6863 H   0  0  0  0  0  0  0  0  0  0  0  0
    2.3881    0.7499    1.2103 H   0  0  0  0  0  0  0  0  0  0  0  0
    2.7161   -0.4738   -0.0847 H   0  0  0  0  0  0  0  0  0  0  0  0
    2.4615    1.2649   -0.5250 H   0  0  0  0  0  0  0  0  0  0  0  0
  1  5  1  0
  2  3  1  0
  2  4  1  0
  2  5  2  3
  3  8  1  0
  3  9  1  0
  3 10  1  0
  4 11  1  0
  4 12  1  0
  4 13  1  0
  5 14  1  0
  6  7  1  0
  6 15  1  0
  6 16  1  0
  6 17  1  0
M  RAD  1   1   2
M  END
>  <reaction>  (17) 
rxn_852

>  <mol_properties>  (17) 
{"1": {"label": "*0", "atom_type": "CS"}, "2": {"label": "*1", "atom_type": "Cs"}, "12": {"label": "*3", "atom_type": "Cs"}, "13": {"label": "*2", "atom_type": "H0"}, "14": {"label": "*4", "atom_type": "H0"}}

>  <type>  (17) 
unop_13

>  <geom_source>  (17) 
AutoTST

$$$$
