
     RDKit          3D

  8  7  0  0  0  0  0  0  0  0999 V2000
    1.9029    0.9046   -0.2050 C   0  0  0  0  0  0  0  0  0  0  0  0
    0.8517    0.4283    0.1217 C   0  0  0  0  0  0  0  0  0  0  0  0
   -0.3908   -0.1311    0.5404 C   0  0  0  0  0  0  0  0  0  0  0  0
   -1.2847   -0.6576   -0.2899 C   0  0  0  0  0  0  0  0  0  0  0  0
    2.8335    1.3255   -0.5014 H   0  0  0  0  0  0  0  0  0  0  0  0
   -0.5867   -0.1096    1.6074 H   0  0  0  0  0  0  0  0  0  0  0  0
   -2.2126   -1.0686    0.0850 H   0  0  0  0  0  0  0  0  0  0  0  0
   -1.1134   -0.6914   -1.3582 H   0  0  0  0  0  0  0  0  0  0  0  0
  1  2  3  0
  1  5  1  0
  2  3  1  0
  3  4  2  3
  3  6  1  0
  4  7  1  0
  4  8  1  0
M  END
>  <reaction>  (1) 
rxn_1792

>  <mol_properties>  (1) 
{"2": {"label": "donator", "atom_type": "Cd"}, "5": {"label": "d_hydrogen", "atom_type": "H0"}}

>  <type>  (1) 
r1h

$$$$

     RDKit          3D

  4  3  0  0  0  0  0  0  0  0999 V2000
   -0.7528   -0.8706   -0.3839 S   0  0  0  0  0  0  0  0  0  0  0  0
    0.7502   -0.2564   -0.0649 C   0  0  0  0  0  3  0  0  0  0  0  0
    1.5655    0.9691    0.4633 S   0  0  0  0  0  0  0  0  0  0  0  0
   -1.5629    0.1579   -0.0146 H   0  0  0  0  0  0  0  0  0  0  0  0
  1  2  1  0
  1  4  1  0
  2  3  2  0
M  RAD  1   2   2
M  END
>  <reaction>  (2) 
rxn_1792

>  <mol_properties>  (2) 
{"1": {"label": "acceptor", "atom_type": "CS"}}

>  <type>  (2) 
r2

$$$$

     RDKit          3D

  5  4  0  0  0  0  0  0  0  0999 V2000
    1.2280   -0.4626    0.1225 S   0  0  0  0  0  0  0  0  0  0  0  0
   -0.4732   -0.2566   -0.0746 C   0  0  0  0  0  0  0  0  0  0  0  0
   -1.3314    1.1074   -0.0947 S   0  0  0  0  0  0  0  0  0  0  0  0
    1.5289    0.8405    0.2416 H   0  0  0  0  0  0  0  0  0  0  0  0
   -0.9523   -1.2286   -0.1949 H   0  0  0  0  0  0  0  0  0  0  0  0
  1  2  1  0
  1  4  1  0
  2  3  2  0
  2  5  1  0
M  END
>  <reaction>  (3) 
rxn_1792

>  <mol_properties>  (3) 
{"1": {"label": "acceptor", "atom_type": "CS"}, "4": {"label": "a_hydrogen", "atom_type": "H0"}}

>  <type>  (3) 
r2h

$$$$

     RDKit          3D

 12 10  0  0  0  0  0  0  0  0999 V2000
    0.0003    1.9043   -0.5114 S   0  0  0  0  0  0  0  0  0  0  0  0
   -0.0002    0.6613    0.6571 C   0  0  0  0  0  0  0  0  0  0  0  0
   -0.0006    0.6615    2.2516 S   0  0  0  0  0  0  0  0  0  0  0  0
    0.0001    2.9564    0.3286 H   0  0  0  0  0  0  0  0  0  0  0  0
    0.0008   -1.6696   -3.1363 C   0  0  0  0  0  0  0  0  0  0  0  0
    0.0004   -1.7674   -1.9348 C   0  0  0  0  0  0  0  0  0  0  0  0
   -0.0000   -1.7438   -0.5453 C   0  0  0  0  0  3  0  0  0  0  0  0
   -0.0004   -2.6550    0.4054 C   0  0  0  0  0  0  0  0  0  0  0  0
    0.0011   -1.6111   -4.1982 H   0  0  0  0  0  0  0  0  0  0  0  0
   -0.0001   -0.4609    0.0133 H   0  0  0  0  0  0  0  0  0  0  0  0
   -0.0007   -2.3605    1.4503 H   0  0  0  0  0  0  0  0  0  0  0  0
   -0.0004   -3.7181    0.1823 H   0  0  0  0  0  0  0  0  0  0  0  0
  1  2  1  0
  1  4  1  0
  2  3  2  0
  2 10  1  0
  5  6  3  0
  5  9  1  0
  6  7  1  0
  7  8  2  3
  8 11  1  0
  8 12  1  0
M  RAD  1   7   2
M  END
>  <reaction>  (4) 
rxn_1792

>  <mol_properties>  (4) 
{"0": {"label": "*0", "atom_type": "S2s"}, "1": {"label": "*1", "atom_type": "CS"}, "5": {"label": "*4", "atom_type": "Ct"}, "6": {"label": "*3", "atom_type": "Cd"}, "9": {"label": "*2", "atom_type": "H0"}}

>  <type>  (4) 
ts

$$$$

     RDKit          3D

 12 10  0  0  0  0  0  0  0  0999 V2000
   -1.4239    1.0930    1.4068 S   0  0  0  0  0  0  0  0  0  0  0  0
   -0.0189    0.9003    0.4250 C   0  0  0  0  0  3  0  0  0  0  0  0
    1.4876    1.3993    0.7058 S   0  0  0  0  0  0  0  0  0  0  0  0
   -0.8245    1.7608    2.4055 H   0  0  0  0  0  0  0  0  0  0  0  0
   -0.0188   -1.5026   -3.2915 C   0  0  0  0  0  0  0  0  0  0  0  0
   -0.0188   -1.5026   -2.0921 C   0  0  0  0  0  0  0  0  0  0  0  0
   -0.0188   -1.4708   -0.6669 C   0  0  0  0  0  0  0  0  0  0  0  0
   -0.0188   -2.5564    0.0994 C   0  0  0  0  0  0  0  0  0  0  0  0
   -0.0188   -1.5026   -4.3549 H   0  0  0  0  0  0  0  0  0  0  0  0
   -0.0189   -0.2881   -0.1223 H   0  0  0  0  0  0  0  0  0  0  0  0
   -0.0188   -2.4717    1.1780 H   0  0  0  0  0  0  0  0  0  0  0  0
   -0.0188   -3.5507   -0.3283 H   0  0  0  0  0  0  0  0  0  0  0  0
  1  2  1  0
  1  4  1  0
  2  3  2  0
  5  6  3  0
  5  9  1  0
  6  7  1  0
  7  8  2  3
  7 10  1  0
  8 11  1  0
  8 12  1  0
M  RAD  1   2   2
M  END
>  <reaction>  (5) 
rxn_1792

>  <mol_properties>  (5) 
{"0": {"label": "*0", "atom_type": "S2s"}, "1": {"label": "*1", "atom_type": "CS"}, "5": {"label": "*4", "atom_type": "Ct"}, "6": {"label": "*3", "atom_type": "Cd"}, "9": {"label": "*2", "atom_type": "H0"}}

>  <type>  (5) 
unop_1

>  <geom_source>  (5) 
Heuristics

$$$$

     RDKit          3D

 12 10  0  0  0  0  0  0  0  0999 V2000
   -0.6863    1.8714   -0.4106 S   0  0  0  0  0  0  0  0  0  0  0  0
    0.1249    0.7517    0.6207 C   0  0  0  0  0  3  0  0  0  0  0  0
    0.4645    0.8853    2.1905 S   0  0  0  0  0  0  0  0  0  0  0  0
   -0.9038    2.8118    0.5228 H   0  0  0  0  0  0  0  0  0  0  0  0
    0.1250   -1.6511   -3.0957 C   0  0  0  0  0  0  0  0  0  0  0  0
    0.1250   -1.6511   -1.8963 C   0  0  0  0  0  0  0  0  0  0  0  0
    0.1250   -1.6193   -0.4712 C   0  0  0  0  0  0  0  0  0  0  0  0
    0.1250   -2.7049    0.2951 C   0  0  0  0  0  0  0  0  0  0  0  0
    0.1250   -1.6511   -4.1592 H   0  0  0  0  0  0  0  0  0  0  0  0
    0.1250   -0.4367    0.0734 H   0  0  0  0  0  0  0  0  0  0  0  0
    0.1250   -2.6202    1.3737 H   0  0  0  0  0  0  0  0  0  0  0  0
    0.1250   -3.6993   -0.1326 H   0  0  0  0  0  0  0  0  0  0  0  0
  1  2  1  0
  1  4  1  0
  2  3  2  0
  5  6  3  0
  5  9  1  0
  6  7  1  0
  7  8  2  3
  7 10  1  0
  8 11  1  0
  8 12  1  0
M  RAD  1   2   2
M  END
>  <reaction>  (6) 
rxn_1792

>  <mol_properties>  (6) 
{"0": {"label": "*0", "atom_type": "S2s"}, "1": {"label": "*1", "atom_type": "CS"}, "5": {"label": "*4", "atom_type": "Ct"}, "6": {"label": "*3", "atom_type": "Cd"}, "9": {"label": "*2", "atom_type": "H0"}}

>  <type>  (6) 
unop_2

>  <geom_source>  (6) 
Heuristics

$$$$

     RDKit          3D

 12 10  0  0  0  0  0  0  0  0999 V2000
   -0.9004    0.7835    2.0012 S   0  0  0  0  0  0  0  0  0  0  0  0
   -0.0892    0.8392    0.4800 C   0  0  0  0  0  3  0  0  0  0  0  0
    1.0862    1.8301   -0.0040 S   0  0  0  0  0  0  0  0  0  0  0  0
   -0.2295    1.7970    2.5716 H   0  0  0  0  0  0  0  0  0  0  0  0
   -0.0891   -1.5637   -3.2365 C   0  0  0  0  0  0  0  0  0  0  0  0
   -0.0891   -1.5637   -2.0371 C   0  0  0  0  0  0  0  0  0  0  0  0
   -0.0891   -1.5319   -0.6119 C   0  0  0  0  0  0  0  0  0  0  0  0
   -0.0891   -2.6175    0.1544 C   0  0  0  0  0  0  0  0  0  0  0  0
   -0.0891   -1.5637   -4.2999 H   0  0  0  0  0  0  0  0  0  0  0  0
   -0.0892   -0.3492   -0.0673 H   0  0  0  0  0  0  0  0  0  0  0  0
   -0.0891   -2.5328    1.2330 H   0  0  0  0  0  0  0  0  0  0  0  0
   -0.0891   -3.6119   -0.2733 H   0  0  0  0  0  0  0  0  0  0  0  0
  1  2  1  0
  1  4  1  0
  2  3  2  0
  5  6  3  0
  5  9  1  0
  6  7  1  0
  7  8  2  3
  7 10  1  0
  8 11  1  0
  8 12  1  0
M  RAD  1   2   2
M  END
>  <reaction>  (7) 
rxn_1792

>  <mol_properties>  (7) 
{"0": {"label": "*0", "atom_type": "S2s"}, "1": {"label": "*1", "atom_type": "CS"}, "5": {"label": "*4", "atom_type": "Ct"}, "6": {"label": "*3", "atom_type": "Cd"}, "9": {"label": "*2", "atom_type": "H0"}}

>  <type>  (7) 
unop_3

>  <geom_source>  (7) 
Heuristics

$$$$

     RDKit          3D

 12 10  0  0  0  0  0  0  0  0999 V2000
    1.2449    1.7002    0.0335 S   0  0  0  0  0  0  0  0  0  0  0  0
   -0.1601    0.8288    0.5253 C   0  0  0  0  0  3  0  0  0  0  0  0
   -0.9680    0.9147    1.9173 S   0  0  0  0  0  0  0  0  0  0  0  0
    1.3881    2.4128    1.1624 H   0  0  0  0  0  0  0  0  0  0  0  0
   -0.1601   -1.5740   -3.1911 C   0  0  0  0  0  0  0  0  0  0  0  0
   -0.1601   -1.5740   -1.9917 C   0  0  0  0  0  0  0  0  0  0  0  0
   -0.1601   -1.5423   -0.5665 C   0  0  0  0  0  0  0  0  0  0  0  0
   -0.1601   -2.6278    0.1998 C   0  0  0  0  0  0  0  0  0  0  0  0
   -0.1601   -1.5740   -4.2546 H   0  0  0  0  0  0  0  0  0  0  0  0
   -0.1601   -0.3596   -0.0219 H   0  0  0  0  0  0  0  0  0  0  0  0
   -0.1601   -2.5432    1.2784 H   0  0  0  0  0  0  0  0  0  0  0  0
   -0.1601   -3.6222   -0.2280 H   0  0  0  0  0  0  0  0  0  0  0  0
  1  2  1  0
  1  4  1  0
  2  3  2  0
  5  6  3  0
  5  9  1  0
  6  7  1  0
  7  8  2  3
  7 10  1  0
  8 11  1  0
  8 12  1  0
M  RAD  1   2   2
M  END
>  <reaction>  (8) 
rxn_1792

>  <mol_properties>  (8) 
{"0": {"label": "*0", "atom_type": "S2s"}, "1": {"label": "*1", "atom_type": "CS"}, "5": {"label": "*4", "atom_type": "Ct"}, "6": {"label": "*3", "atom_type": "Cd"}, "9": {"label": "*2", "atom_type": "H0"}}

>  <type>  (8) 
unop_4

>  <geom_source>  (8) 
Heuristics

$$$$

     RDKit          3D

 12 10  0  0  0  0  0  0  0  0999 V2000
   -0.0000    0.6279    2.2540 S   0  0  0  0  0  0  0  0  0  0  0  0
   -0.0000    0.7745    0.5353 C   0  0  0  0  0  3  0  0  0  0  0  0
   -0.0000    2.1106   -0.3660 S   0  0  0  0  0  0  0  0  0  0  0  0
   -0.0000    1.9436    2.5215 H   0  0  0  0  0  0  0  0  0  0  0  0
    0.0000   -1.6284   -3.1811 C   0  0  0  0  0  0  0  0  0  0  0  0
    0.0000   -1.6284   -1.9817 C   0  0  0  0  0  0  0  0  0  0  0  0
    0.0000   -1.5966   -0.5566 C   0  0  0  0  0  0  0  0  0  0  0  0
    0.0001   -2.6822    0.2097 C   0  0  0  0  0  0  0  0  0  0  0  0
    0.0000   -1.6284   -4.2446 H   0  0  0  0  0  0  0  0  0  0  0  0
    0.0000   -0.4139   -0.0120 H   0  0  0  0  0  0  0  0  0  0  0  0
    0.0001   -2.5975    1.2883 H   0  0  0  0  0  0  0  0  0  0  0  0
    0.0001   -3.6766   -0.2180 H   0  0  0  0  0  0  0  0  0  0  0  0
  1  2  1  0
  1  4  1  0
  2  3  2  0
  5  6  3  0
  5  9  1  0
  6  7  1  0
  7  8  2  3
  7 10  1  0
  8 11  1  0
  8 12  1  0
M  RAD  1   2   2
M  END
>  <reaction>  (9) 
rxn_1792

>  <mol_properties>  (9) 
{"0": {"label": "*0", "atom_type": "S2s"}, "1": {"label": "*1", "atom_type": "CS"}, "5": {"label": "*4", "atom_type": "Ct"}, "6": {"label": "*3", "atom_type": "Cd"}, "9": {"label": "*2", "atom_type": "H0"}}

>  <type>  (9) 
unop_5

>  <geom_source>  (9) 
Heuristics

$$$$

     RDKit          3D

 12 10  0  0  0  0  0  0  0  0999 V2000
    1.5270    1.4231    0.6890 S   0  0  0  0  0  0  0  0  0  0  0  0
   -0.0954    0.8911    0.4440 C   0  0  0  0  0  3  0  0  0  0  0  0
   -1.3776    1.0800    1.4021 S   0  0  0  0  0  0  0  0  0  0  0  0
    1.3210    2.0033    1.8821 H   0  0  0  0  0  0  0  0  0  0  0  0
   -0.0954   -1.5118   -3.2725 C   0  0  0  0  0  0  0  0  0  0  0  0
   -0.0954   -1.5118   -2.0731 C   0  0  0  0  0  0  0  0  0  0  0  0
   -0.0954   -1.4800   -0.6479 C   0  0  0  0  0  0  0  0  0  0  0  0
   -0.0954   -2.5656    0.1184 C   0  0  0  0  0  0  0  0  0  0  0  0
   -0.0954   -1.5118   -4.3359 H   0  0  0  0  0  0  0  0  0  0  0  0
   -0.0954   -0.2973   -0.1033 H   0  0  0  0  0  0  0  0  0  0  0  0
   -0.0954   -2.4809    1.1970 H   0  0  0  0  0  0  0  0  0  0  0  0
   -0.0954   -3.5600   -0.3093 H   0  0  0  0  0  0  0  0  0  0  0  0
  1  2  1  0
  1  4  1  0
  2  3  2  0
  5  6  3  0
  5  9  1  0
  6  7  1  0
  7  8  2  3
  7 10  1  0
  8 11  1  0
  8 12  1  0
M  RAD  1   2   2
M  END
>  <reaction>  (10) 
rxn_1792

>  <mol_properties>  (10) 
{"0": {"label": "*0", "atom_type": "S2s"}, "1": {"label": "*1", "atom_type": "CS"}, "5": {"label": "*4", "atom_type": "Ct"}, "6": {"label": "*3", "atom_type": "Cd"}, "9": {"label": "*2", "atom_type": "H0"}}

>  <type>  (10) 
unop_6

>  <geom_source>  (10) 
Heuristics

$$$$

     RDKit          3D

 12 10  0  0  0  0  0  0  0  0999 V2000
    1.4239    1.0930    1.4068 S   0  0  0  0  0  0  0  0  0  0  0  0
    0.0188    0.9003    0.4250 C   0  0  0  0  0  3  0  0  0  0  0  0
   -1.4877    1.3993    0.7058 S   0  0  0  0  0  0  0  0  0  0  0  0
    0.8244    1.7608    2.4055 H   0  0  0  0  0  0  0  0  0  0  0  0
    0.0189   -1.5026   -3.2915 C   0  0  0  0  0  0  0  0  0  0  0  0
    0.0189   -1.5026   -2.0921 C   0  0  0  0  0  0  0  0  0  0  0  0
    0.0189   -1.4708   -0.6669 C   0  0  0  0  0  0  0  0  0  0  0  0
    0.0189   -2.5564    0.0994 C   0  0  0  0  0  0  0  0  0  0  0  0
    0.0189   -1.5026   -4.3549 H   0  0  0  0  0  0  0  0  0  0  0  0
    0.0189   -0.2881   -0.1223 H   0  0  0  0  0  0  0  0  0  0  0  0
    0.0189   -2.4717    1.1780 H   0  0  0  0  0  0  0  0  0  0  0  0
    0.0189   -3.5507   -0.3283 H   0  0  0  0  0  0  0  0  0  0  0  0
  1  2  1  0
  1  4  1  0
  2  3  2  0
  5  6  3  0
  5  9  1  0
  6  7  1  0
  7  8  2  3
  7 10  1  0
  8 11  1  0
  8 12  1  0
M  RAD  1   2   2
M  END
>  <reaction>  (11) 
rxn_1792

>  <mol_properties>  (11) 
{"0": {"label": "*0", "atom_type": "S2s"}, "1": {"label": "*1", "atom_type": "CS"}, "5": {"label": "*4", "atom_type": "Ct"}, "6": {"label": "*3", "atom_type": "Cd"}, "9": {"label": "*2", "atom_type": "H0"}}

>  <type>  (11) 
unop_7

>  <geom_source>  (11) 
Heuristics

$$$$

     RDKit          3D

 12 10  0  0  0  0  0  0  0  0999 V2000
   -1.5270    1.4230    0.6890 S   0  0  0  0  0  0  0  0  0  0  0  0
    0.0954    0.8911    0.4440 C   0  0  0  0  0  3  0  0  0  0  0  0
    1.3775    1.0801    1.4021 S   0  0  0  0  0  0  0  0  0  0  0  0
   -1.3211    2.0033    1.8821 H   0  0  0  0  0  0  0  0  0  0  0  0
    0.0955   -1.5118   -3.2725 C   0  0  0  0  0  0  0  0  0  0  0  0
    0.0955   -1.5118   -2.0731 C   0  0  0  0  0  0  0  0  0  0  0  0
    0.0955   -1.4800   -0.6479 C   0  0  0  0  0  0  0  0  0  0  0  0
    0.0955   -2.5656    0.1184 C   0  0  0  0  0  0  0  0  0  0  0  0
    0.0955   -1.5118   -4.3359 H   0  0  0  0  0  0  0  0  0  0  0  0
    0.0954   -0.2973   -0.1033 H   0  0  0  0  0  0  0  0  0  0  0  0
    0.0955   -2.4809    1.1970 H   0  0  0  0  0  0  0  0  0  0  0  0
    0.0955   -3.5600   -0.3093 H   0  0  0  0  0  0  0  0  0  0  0  0
  1  2  1  0
  1  4  1  0
  2  3  2  0
  5  6  3  0
  5  9  1  0
  6  7  1  0
  7  8  2  3
  7 10  1  0
  8 11  1  0
  8 12  1  0
M  RAD  1   2   2
M  END
>  <reaction>  (12) 
rxn_1792

>  <mol_properties>  (12) 
{"0": {"label": "*0", "atom_type": "S2s"}, "1": {"label": "*1", "atom_type": "CS"}, "5": {"label": "*4", "atom_type": "Ct"}, "6": {"label": "*3", "atom_type": "Cd"}, "9": {"label": "*2", "atom_type": "H0"}}

>  <type>  (12) 
unop_8

>  <geom_source>  (12) 
Heuristics

$$$$

     RDKit          3D

 12 10  0  0  0  0  0  0  0  0999 V2000
    0.6862    1.8715   -0.4106 S   0  0  0  0  0  0  0  0  0  0  0  0
   -0.1250    0.7517    0.6207 C   0  0  0  0  0  3  0  0  0  0  0  0
   -0.4645    0.8852    2.1905 S   0  0  0  0  0  0  0  0  0  0  0  0
    0.9037    2.8118    0.5228 H   0  0  0  0  0  0  0  0  0  0  0  0
   -0.1249   -1.6511   -3.0957 C   0  0  0  0  0  0  0  0  0  0  0  0
   -0.1249   -1.6511   -1.8963 C   0  0  0  0  0  0  0  0  0  0  0  0
   -0.1249   -1.6193   -0.4712 C   0  0  0  0  0  0  0  0  0  0  0  0
   -0.1249   -2.7049    0.2951 C   0  0  0  0  0  0  0  0  0  0  0  0
   -0.1249   -1.6511   -4.1592 H   0  0  0  0  0  0  0  0  0  0  0  0
   -0.1249   -0.4367    0.0734 H   0  0  0  0  0  0  0  0  0  0  0  0
   -0.1249   -2.6203    1.3737 H   0  0  0  0  0  0  0  0  0  0  0  0
   -0.1249   -3.6993   -0.1326 H   0  0  0  0  0  0  0  0  0  0  0  0
  1  2  1  0
  1  4  1  0
  2  3  2  0
  5  6  3  0
  5  9  1  0
  6  7  1  0
  7  8  2  3
  7 10  1  0
  8 11  1  0
  8 12  1  0
M  RAD  1   2   2
M  END
>  <reaction>  (13) 
rxn_1792

>  <mol_properties>  (13) 
{"0": {"label": "*0", "atom_type": "S2s"}, "1": {"label": "*1", "atom_type": "CS"}, "5": {"label": "*4", "atom_type": "Ct"}, "6": {"label": "*3", "atom_type": "Cd"}, "9": {"label": "*2", "atom_type": "H0"}}

>  <type>  (13) 
unop_9

>  <geom_source>  (13) 
Heuristics

$$$$

     RDKit          3D

 12 10  0  0  0  0  0  0  0  0999 V2000
   -1.2450    1.7001    0.0335 S   0  0  0  0  0  0  0  0  0  0  0  0
    0.1601    0.8288    0.5253 C   0  0  0  0  0  3  0  0  0  0  0  0
    0.9680    0.9147    1.9173 S   0  0  0  0  0  0  0  0  0  0  0  0
   -1.3882    2.4128    1.1624 H   0  0  0  0  0  0  0  0  0  0  0  0
    0.1602   -1.5740   -3.1911 C   0  0  0  0  0  0  0  0  0  0  0  0
    0.1602   -1.5740   -1.9917 C   0  0  0  0  0  0  0  0  0  0  0  0
    0.1602   -1.5422   -0.5665 C   0  0  0  0  0  0  0  0  0  0  0  0
    0.1602   -2.6278    0.1998 C   0  0  0  0  0  0  0  0  0  0  0  0
    0.1602   -1.5740   -4.2546 H   0  0  0  0  0  0  0  0  0  0  0  0
    0.1601   -0.3596   -0.0219 H   0  0  0  0  0  0  0  0  0  0  0  0
    0.1602   -2.5432    1.2784 H   0  0  0  0  0  0  0  0  0  0  0  0
    0.1602   -3.6222   -0.2280 H   0  0  0  0  0  0  0  0  0  0  0  0
  1  2  1  0
  1  4  1  0
  2  3  2  0
  5  6  3  0
  5  9  1  0
  6  7  1  0
  7  8  2  3
  7 10  1  0
  8 11  1  0
  8 12  1  0
M  RAD  1   2   2
M  END
>  <reaction>  (14) 
rxn_1792

>  <mol_properties>  (14) 
{"0": {"label": "*0", "atom_type": "S2s"}, "1": {"label": "*1", "atom_type": "CS"}, "5": {"label": "*4", "atom_type": "Ct"}, "6": {"label": "*3", "atom_type": "Cd"}, "9": {"label": "*2", "atom_type": "H0"}}

>  <type>  (14) 
unop_10

>  <geom_source>  (14) 
Heuristics

$$$$

     RDKit          3D

 12 10  0  0  0  0  0  0  0  0999 V2000
    0.9004    0.7835    2.0012 S   0  0  0  0  0  0  0  0  0  0  0  0
    0.0892    0.8392    0.4800 C   0  0  0  0  0  3  0  0  0  0  0  0
   -1.0862    1.8300   -0.0040 S   0  0  0  0  0  0  0  0  0  0  0  0
    0.2294    1.7970    2.5716 H   0  0  0  0  0  0  0  0  0  0  0  0
    0.0892   -1.5637   -3.2365 C   0  0  0  0  0  0  0  0  0  0  0  0
    0.0892   -1.5637   -2.0371 C   0  0  0  0  0  0  0  0  0  0  0  0
    0.0892   -1.5319   -0.6119 C   0  0  0  0  0  0  0  0  0  0  0  0
    0.0892   -2.6175    0.1544 C   0  0  0  0  0  0  0  0  0  0  0  0
    0.0892   -1.5637   -4.2999 H   0  0  0  0  0  0  0  0  0  0  0  0
    0.0892   -0.3492   -0.0673 H   0  0  0  0  0  0  0  0  0  0  0  0
    0.0892   -2.5328    1.2330 H   0  0  0  0  0  0  0  0  0  0  0  0
    0.0892   -3.6119   -0.2733 H   0  0  0  0  0  0  0  0  0  0  0  0
  1  2  1  0
  1  4  1  0
  2  3  2  0
  5  6  3  0
  5  9  1  0
  6  7  1  0
  7  8  2  3
  7 10  1  0
  8 11  1  0
  8 12  1  0
M  RAD  1   2   2
M  END
>  <reaction>  (15) 
rxn_1792

>  <mol_properties>  (15) 
{"0": {"label": "*0", "atom_type": "S2s"}, "1": {"label": "*1", "atom_type": "CS"}, "5": {"label": "*4", "atom_type": "Ct"}, "6": {"label": "*3", "atom_type": "Cd"}, "9": {"label": "*2", "atom_type": "H0"}}

>  <type>  (15) 
unop_11

>  <geom_source>  (15) 
Heuristics

$$$$

     RDKit          3D

 12 10  0  0  0  0  0  0  0  0999 V2000
   -0.0000    1.9257   -0.5644 S   0  0  0  0  0  0  0  0  0  0  0  0
   -0.0000    0.7151    0.6643 C   0  0  0  0  0  3  0  0  0  0  0  0
   -0.0000    0.8989    2.2654 S   0  0  0  0  0  0  0  0  0  0  0  0
   -0.0001    2.9844    0.2614 H   0  0  0  0  0  0  0  0  0  0  0  0
    0.0000   -1.6878   -3.0522 C   0  0  0  0  0  0  0  0  0  0  0  0
    0.0000   -1.6878   -1.8528 C   0  0  0  0  0  0  0  0  0  0  0  0
    0.0000   -1.6560   -0.4276 C   0  0  0  0  0  0  0  0  0  0  0  0
    0.0001   -2.7416    0.3387 C   0  0  0  0  0  0  0  0  0  0  0  0
    0.0000   -1.6878   -4.1156 H   0  0  0  0  0  0  0  0  0  0  0  0
    0.0000   -0.4733    0.1170 H   0  0  0  0  0  0  0  0  0  0  0  0
    0.0001   -2.6569    1.4173 H   0  0  0  0  0  0  0  0  0  0  0  0
    0.0001   -3.7359   -0.0890 H   0  0  0  0  0  0  0  0  0  0  0  0
  1  2  1  0
  1  4  1  0
  2  3  2  0
  5  6  3  0
  5  9  1  0
  6  7  1  0
  7  8  2  3
  7 10  1  0
  8 11  1  0
  8 12  1  0
M  RAD  1   2   2
M  END
>  <reaction>  (16) 
rxn_1792

>  <mol_properties>  (16) 
{"0": {"label": "*0", "atom_type": "S2s"}, "1": {"label": "*1", "atom_type": "CS"}, "5": {"label": "*4", "atom_type": "Ct"}, "6": {"label": "*3", "atom_type": "Cd"}, "9": {"label": "*2", "atom_type": "H0"}}

>  <type>  (16) 
unop_12

>  <geom_source>  (16) 
Heuristics

$$$$

     RDKit          3D

 12 10  0  0  0  0  0  0  0  0999 V2000
   -2.9269    0.2148    0.7028 S   0  0  0  0  0  0  0  0  0  0  0  0
   -2.3593   -0.4650   -1.9504 S   0  0  0  0  0  0  0  0  0  0  0  0
    0.9956    1.5002    0.5470 C   0  0  0  0  0  0  0  0  0  0  0  0
   -1.8556    0.0794   -0.7240 C   0  0  0  0  0  3  0  0  0  0  0  0
    0.6749    0.4601   -0.2124 C   0  0  0  0  0  0  0  0  0  0  0  0
    1.4700   -0.7380   -0.2061 C   0  0  0  0  0  0  0  0  0  0  0  0
    2.1360   -1.7430   -0.2016 C   0  0  0  0  0  0  0  0  0  0  0  0
   -0.5450    0.5100   -0.6462 H   0  0  0  0  0  0  0  0  0  0  0  0
    1.8650    1.4769    1.1932 H   0  0  0  0  0  0  0  0  0  0  0  0
    0.3799    2.3888    0.5227 H   0  0  0  0  0  0  0  0  0  0  0  0
   -2.5554   -1.0591    1.1725 H   0  0  0  0  0  0  0  0  0  0  0  0
    2.7207   -2.6251   -0.1975 H   0  0  0  0  0  0  0  0  0  0  0  0
  1  4  1  0
  1 11  1  0
  2  4  2  0
  3  5  2  3
  3  9  1  0
  3 10  1  0
  5  6  1  0
  5  8  1  0
  6  7  3  0
  7 12  1  0
M  RAD  1   4   2
M  END
>  <reaction>  (17) 
rxn_1792

>  <mol_properties>  (17) 
{"0": {"label": "*0", "atom_type": "S2s"}, "1": {"label": "*1", "atom_type": "CS"}, "5": {"label": "*4", "atom_type": "Ct"}, "6": {"label": "*3", "atom_type": "Cd"}, "9": {"label": "*2", "atom_type": "H0"}}

>  <type>  (17) 
unop_13

>  <geom_source>  (17) 
AutoTST

$$$$
