
     RDKit          3D

  7  6  0  0  0  0  0  0  0  0999 V2000
    1.6964   -0.0938    0.0583 C   0  0  0  0  0  0  0  0  0  0  0  0
    0.5019   -0.0278    0.0173 C   0  0  0  0  0  0  0  0  0  0  0  0
   -0.9505    0.0525   -0.0327 C   0  0  0  0  0  0  0  0  0  0  0  0
    2.7574   -0.1524    0.0947 H   0  0  0  0  0  0  0  0  0  0  0  0
   -1.2692    0.9972   -0.4754 H   0  0  0  0  0  0  0  0  0  0  0  0
   -1.3749   -0.0147    0.9700 H   0  0  0  0  0  0  0  0  0  0  0  0
   -1.3610   -0.7611   -0.6323 H   0  0  0  0  0  0  0  0  0  0  0  0
  1  2  3  0
  1  4  1  0
  2  3  1  0
  3  5  1  0
  3  6  1  0
  3  7  1  0
M  END
>  <reaction>  (1) 
rxn_1225

>  <mol_properties>  (1) 
{"2": {"label": "donator", "atom_type": "Cs"}, "4": {"label": "d_hydrogen", "atom_type": "H0"}}

>  <type>  (1) 
r1h

$$$$

     RDKit          3D

  8  7  0  0  0  0  0  0  0  0999 V2000
   -2.2129    0.4855    0.7390 C   0  0  0  0  0  0  0  0  0  0  0  0
   -1.2226    0.0526    0.1974 C   0  0  0  0  0  0  0  0  0  0  0  0
   -0.1006   -0.4575   -0.4419 C   0  0  0  0  0  3  0  0  0  0  0  0
    1.1960   -0.1737   -0.0342 C   0  0  0  0  0  0  0  0  0  0  0  0
    2.3329    0.0603    0.3036 C   0  0  0  0  0  0  0  0  0  0  0  0
   -3.0803    0.8696    1.2198 H   0  0  0  0  0  0  0  0  0  0  0  0
   -0.2433   -1.1067   -1.2980 H   0  0  0  0  0  0  0  0  0  0  0  0
    3.3308    0.2700    0.6058 H   0  0  0  0  0  0  0  0  0  0  0  0
  1  2  3  0
  1  6  1  0
  2  3  1  0
  3  4  1  0
  3  7  1  0
  4  5  3  0
  5  8  1  0
M  RAD  1   3   2
M  END
>  <reaction>  (2) 
rxn_1225

>  <mol_properties>  (2) 
{"2": {"label": "acceptor", "atom_type": "Cs"}}

>  <type>  (2) 
r2

$$$$

     RDKit          3D

  9  8  0  0  0  0  0  0  0  0999 V2000
   -2.1022   -0.6873    0.3932 C   0  0  0  0  0  0  0  0  0  0  0  0
   -1.2072   -0.1086   -0.1482 C   0  0  0  0  0  0  0  0  0  0  0  0
   -0.1242    0.6105   -0.8193 C   0  0  0  0  0  0  0  0  0  0  0  0
    1.2067    0.1106   -0.4741 C   0  0  0  0  0  0  0  0  0  0  0  0
    2.3005   -0.2875   -0.2012 C   0  0  0  0  0  0  0  0  0  0  0  0
   -2.8942   -1.2059    0.8778 H   0  0  0  0  0  0  0  0  0  0  0  0
   -0.1862    1.6723   -0.5649 H   0  0  0  0  0  0  0  0  0  0  0  0
   -0.2641    0.5418   -1.9017 H   0  0  0  0  0  0  0  0  0  0  0  0
    3.2709   -0.6459    0.0455 H   0  0  0  0  0  0  0  0  0  0  0  0
  1  2  3  0
  1  6  1  0
  2  3  1  0
  3  4  1  0
  3  7  1  0
  3  8  1  0
  4  5  3  0
  5  9  1  0
M  END
>  <reaction>  (3) 
rxn_1225

>  <mol_properties>  (3) 
{"0": {"label": "a_hydrogen", "atom_type": "H0"}, "3": {"label": "acceptor", "atom_type": "Cs"}}

>  <type>  (3) 
r2h

$$$$

     RDKit          3D

 15 13  0  0  0  0  0  0  0  0999 V2000
   -1.2181   -3.2142   -1.0616 C   0  0  0  0  0  0  0  0  0  0  0  0
   -0.3866   -2.3431   -1.0760 C   0  0  0  0  0  0  0  0  0  0  0  0
    0.5459   -1.2842   -1.0401 C   0  0  0  0  0  3  0  0  0  0  0  0
   -1.9396   -3.9954   -1.0653 H   0  0  0  0  0  0  0  0  0  0  0  0
    0.0659   -0.3545   -0.1224 H   0  0  0  0  0  0  0  0  0  0  0  0
    0.5985   -0.6608   -1.9285 H   0  0  0  0  0  0  0  0  0  0  0  0
    1.5101   -1.5090   -0.5924 H   0  0  0  0  0  0  0  0  0  0  0  0
   -0.7838    2.6912   -0.7072 C   0  0  0  0  0  0  0  0  0  0  0  0
   -0.6014    1.7249   -0.0206 C   0  0  0  0  0  0  0  0  0  0  0  0
   -0.3735    0.5291    0.7383 C   0  0  0  0  0  0  0  0  0  0  0  0
    0.6207    0.5878    1.7707 C   0  0  0  0  0  0  0  0  0  0  0  0
    1.4786    0.5862    2.6088 C   0  0  0  0  0  0  0  0  0  0  0  0
   -0.9502    3.5597   -1.2979 H   0  0  0  0  0  0  0  0  0  0  0  0
   -1.2928    0.0331    1.0507 H   0  0  0  0  0  0  0  0  0  0  0  0
    2.2291    0.6015    3.3621 H   0  0  0  0  0  0  0  0  0  0  0  0
  1  2  3  0
  1  4  1  0
  2  3  1  0
  3  6  1  0
  3  7  1  0
  5 10  1  0
  8  9  3  0
  8 13  1  0
  9 10  1  0
 10 11  1  0
 10 14  1  0
 11 12  3  0
 12 15  1  0
M  RAD  1   3   2
M  END
>  <reaction>  (4) 
rxn_1225

>  <mol_properties>  (4) 
{"1": {"label": "*4", "atom_type": "Ct"}, "2": {"label": "*3", "atom_type": "Cs"}, "4": {"label": "*2", "atom_type": "H0"}, "8": {"label": "*0", "atom_type": "Ct"}, "9": {"label": "*1", "atom_type": "Cs"}}

>  <type>  (4) 
ts

$$$$

     RDKit          3D

 15 13  0  0  0  0  0  0  0  0999 V2000
    0.0143   -2.0185   -2.8498 C   0  0  0  0  0  0  0  0  0  0  0  0
    0.0143   -2.0185   -1.6528 C   0  0  0  0  0  0  0  0  0  0  0  0
    0.0143   -2.0185   -0.1973 C   0  0  0  0  0  0  0  0  0  0  0  0
    0.0143   -2.0185   -3.9131 H   0  0  0  0  0  0  0  0  0  0  0  0
    0.1258   -0.7990    0.2651 H   0  0  0  0  0  0  0  0  0  0  0  0
    0.8480   -2.6071    0.1880 H   0  0  0  0  0  0  0  0  0  0  0  0
   -0.9123   -2.4462    0.1880 H   0  0  0  0  0  0  0  0  0  0  0  0
   -1.8941    0.9934    2.2117 C   0  0  0  0  0  0  0  0  0  0  0  0
   -0.9355    0.7372    1.5448 C   0  0  0  0  0  0  0  0  0  0  0  0
    0.2375    0.4236    0.7287 C   0  0  0  0  0  3  0  0  0  0  0  0
    0.9640    1.6098    0.2753 C   0  0  0  0  0  0  0  0  0  0  0  0
    1.5576    2.5791   -0.0951 C   0  0  0  0  0  0  0  0  0  0  0  0
   -2.7468    1.2213    2.8049 H   0  0  0  0  0  0  0  0  0  0  0  0
    0.9147   -0.2145    1.3032 H   0  0  0  0  0  0  0  0  0  0  0  0
    2.0857    3.4414   -0.4247 H   0  0  0  0  0  0  0  0  0  0  0  0
  1  2  3  0
  1  4  1  0
  2  3  1  0
  3  5  1  0
  3  6  1  0
  3  7  1  0
  8  9  3  0
  8 13  1  0
  9 10  1  0
 10 11  1  0
 10 14  1  0
 11 12  3  0
 12 15  1  0
M  RAD  1  10   2
M  END
>  <reaction>  (5) 
rxn_1225

>  <mol_properties>  (5) 
{"1": {"label": "*4", "atom_type": "Ct"}, "2": {"label": "*3", "atom_type": "Cs"}, "4": {"label": "*2", "atom_type": "H0"}, "8": {"label": "*0", "atom_type": "Ct"}, "9": {"label": "*1", "atom_type": "Cs"}}

>  <type>  (5) 
unop_1

>  <geom_source>  (5) 
Heuristics

$$$$

     RDKit          3D

 15 13  0  0  0  0  0  0  0  0999 V2000
   -0.3524   -1.9992   -2.5979 C   0  0  0  0  0  0  0  0  0  0  0  0
   -0.3524   -1.9992   -1.4009 C   0  0  0  0  0  0  0  0  0  0  0  0
   -0.3524   -1.9992    0.0545 C   0  0  0  0  0  0  0  0  0  0  0  0
   -0.3524   -1.9992   -3.6612 H   0  0  0  0  0  0  0  0  0  0  0  0
   -0.2410   -0.7796    0.5169 H   0  0  0  0  0  0  0  0  0  0  0  0
    0.4813   -2.5878    0.4399 H   0  0  0  0  0  0  0  0  0  0  0  0
   -1.2790   -2.4269    0.4399 H   0  0  0  0  0  0  0  0  0  0  0  0
   -1.2353    2.1357   -0.7454 C   0  0  0  0  0  0  0  0  0  0  0  0
   -0.7379    1.3745    0.0307 C   0  0  0  0  0  0  0  0  0  0  0  0
   -0.1292    0.4430    0.9805 C   0  0  0  0  0  3  0  0  0  0  0  0
    1.1106    0.9447    1.5733 C   0  0  0  0  0  0  0  0  0  0  0  0
    2.1237    1.3548    2.0577 C   0  0  0  0  0  0  0  0  0  0  0  0
   -1.6777    2.8129   -1.4358 H   0  0  0  0  0  0  0  0  0  0  0  0
   -0.8453    0.2235    1.7774 H   0  0  0  0  0  0  0  0  0  0  0  0
    3.0250    1.7195    2.4886 H   0  0  0  0  0  0  0  0  0  0  0  0
  1  2  3  0
  1  4  1  0
  2  3  1  0
  3  5  1  0
  3  6  1  0
  3  7  1  0
  8  9  3  0
  8 13  1  0
  9 10  1  0
 10 11  1  0
 10 14  1  0
 11 12  3  0
 12 15  1  0
M  RAD  1  10   2
M  END
>  <reaction>  (6) 
rxn_1225

>  <mol_properties>  (6) 
{"1": {"label": "*4", "atom_type": "Ct"}, "2": {"label": "*3", "atom_type": "Cs"}, "4": {"label": "*2", "atom_type": "H0"}, "8": {"label": "*0", "atom_type": "Ct"}, "9": {"label": "*1", "atom_type": "Cs"}}

>  <type>  (6) 
unop_2

>  <geom_source>  (6) 
Heuristics

$$$$

     RDKit          3D

 15 13  0  0  0  0  0  0  0  0999 V2000
    0.0985   -1.9670   -2.9075 C   0  0  0  0  0  0  0  0  0  0  0  0
    0.0985   -1.9670   -1.7104 C   0  0  0  0  0  0  0  0  0  0  0  0
    0.0985   -1.9670   -0.2550 C   0  0  0  0  0  0  0  0  0  0  0  0
    0.0985   -1.9670   -3.9708 H   0  0  0  0  0  0  0  0  0  0  0  0
    0.2100   -0.7474    0.2074 H   0  0  0  0  0  0  0  0  0  0  0  0
    0.9322   -2.5556    0.1304 H   0  0  0  0  0  0  0  0  0  0  0  0
   -0.8281   -2.3947    0.1304 H   0  0  0  0  0  0  0  0  0  0  0  0
   -0.9241    0.6379    3.0138 C   0  0  0  0  0  0  0  0  0  0  0  0
   -0.3639    0.5647    1.9603 C   0  0  0  0  0  0  0  0  0  0  0  0
    0.3217    0.4752    0.6710 C   0  0  0  0  0  3  0  0  0  0  0  0
    0.3122    1.7302   -0.0807 C   0  0  0  0  0  0  0  0  0  0  0  0
    0.3044    2.7558   -0.6950 C   0  0  0  0  0  0  0  0  0  0  0  0
   -1.4225    0.7031    3.9511 H   0  0  0  0  0  0  0  0  0  0  0  0
    1.3567    0.1628    0.8355 H   0  0  0  0  0  0  0  0  0  0  0  0
    0.2975    3.6682   -1.2414 H   0  0  0  0  0  0  0  0  0  0  0  0
  1  2  3  0
  1  4  1  0
  2  3  1  0
  3  5  1  0
  3  6  1  0
  3  7  1  0
  8  9  3  0
  8 13  1  0
  9 10  1  0
 10 11  1  0
 10 14  1  0
 11 12  3  0
 12 15  1  0
M  RAD  1  10   2
M  END
>  <reaction>  (7) 
rxn_1225

>  <mol_properties>  (7) 
{"1": {"label": "*4", "atom_type": "Ct"}, "2": {"label": "*3", "atom_type": "Cs"}, "4": {"label": "*2", "atom_type": "H0"}, "8": {"label": "*0", "atom_type": "Ct"}, "9": {"label": "*1", "atom_type": "Cs"}}

>  <type>  (7) 
unop_3

>  <geom_source>  (7) 
Heuristics

$$$$

     RDKit          3D

 15 13  0  0  0  0  0  0  0  0999 V2000
   -0.6185   -1.4632   -3.0008 C   0  0  0  0  0  0  0  0  0  0  0  0
   -0.6185   -1.4632   -1.8037 C   0  0  0  0  0  0  0  0  0  0  0  0
   -0.6185   -1.4632   -0.3483 C   0  0  0  0  0  0  0  0  0  0  0  0
   -0.6185   -1.4632   -4.0641 H   0  0  0  0  0  0  0  0  0  0  0  0
   -0.5071   -0.2436    0.1141 H   0  0  0  0  0  0  0  0  0  0  0  0
    0.2152   -2.0517    0.0371 H   0  0  0  0  0  0  0  0  0  0  0  0
   -1.5451   -1.8909    0.0371 H   0  0  0  0  0  0  0  0  0  0  0  0
    1.8850    2.0363   -0.2884 C   0  0  0  0  0  0  0  0  0  0  0  0
    0.8595    1.5608    0.1011 C   0  0  0  0  0  0  0  0  0  0  0  0
   -0.3953    0.9790    0.5777 C   0  0  0  0  0  3  0  0  0  0  0  0
   -0.2641    0.2836    1.8582 C   0  0  0  0  0  0  0  0  0  0  0  0
   -0.1569   -0.2846    2.9045 C   0  0  0  0  0  0  0  0  0  0  0  0
    2.7971    2.4592   -0.6349 H   0  0  0  0  0  0  0  0  0  0  0  0
   -1.1444    1.7699    0.6736 H   0  0  0  0  0  0  0  0  0  0  0  0
   -0.0615   -0.7901    3.8353 H   0  0  0  0  0  0  0  0  0  0  0  0
  1  2  3  0
  1  4  1  0
  2  3  1  0
  3  5  1  0
  3  6  1  0
  3  7  1  0
  8  9  3  0
  8 13  1  0
  9 10  1  0
 10 11  1  0
 10 14  1  0
 11 12  3  0
 12 15  1  0
M  RAD  1  10   2
M  END
>  <reaction>  (8) 
rxn_1225

>  <mol_properties>  (8) 
{"1": {"label": "*4", "atom_type": "Ct"}, "2": {"label": "*3", "atom_type": "Cs"}, "4": {"label": "*2", "atom_type": "H0"}, "8": {"label": "*0", "atom_type": "Ct"}, "9": {"label": "*1", "atom_type": "Cs"}}

>  <type>  (8) 
unop_4

>  <geom_source>  (8) 
Heuristics

$$$$

     RDKit          3D

 15 13  0  0  0  0  0  0  0  0999 V2000
    0.2321   -1.7773   -3.0305 C   0  0  0  0  0  0  0  0  0  0  0  0
    0.2321   -1.7773   -1.8334 C   0  0  0  0  0  0  0  0  0  0  0  0
    0.2321   -1.7773   -0.3780 C   0  0  0  0  0  0  0  0  0  0  0  0
    0.2321   -1.7773   -4.0938 H   0  0  0  0  0  0  0  0  0  0  0  0
    0.3436   -0.5578    0.0844 H   0  0  0  0  0  0  0  0  0  0  0  0
    1.0658   -2.3659    0.0074 H   0  0  0  0  0  0  0  0  0  0  0  0
   -0.6945   -2.2050    0.0074 H   0  0  0  0  0  0  0  0  0  0  0  0
    0.4489    0.5950    3.2056 C   0  0  0  0  0  0  0  0  0  0  0  0
    0.4518    0.6264    2.0105 C   0  0  0  0  0  0  0  0  0  0  0  0
    0.4553    0.6648    0.5480 C   0  0  0  0  0  3  0  0  0  0  0  0
   -0.6129    1.4914   -0.0142 C   0  0  0  0  0  0  0  0  0  0  0  0
   -1.4858    2.1669   -0.4736 C   0  0  0  0  0  0  0  0  0  0  0  0
    0.4464    0.5671    4.2687 H   0  0  0  0  0  0  0  0  0  0  0  0
    1.4215    1.0416    0.2009 H   0  0  0  0  0  0  0  0  0  0  0  0
   -2.2623    2.7677   -0.8823 H   0  0  0  0  0  0  0  0  0  0  0  0
  1  2  3  0
  1  4  1  0
  2  3  1  0
  3  5  1  0
  3  6  1  0
  3  7  1  0
  8  9  3  0
  8 13  1  0
  9 10  1  0
 10 11  1  0
 10 14  1  0
 11 12  3  0
 12 15  1  0
M  RAD  1  10   2
M  END
>  <reaction>  (9) 
rxn_1225

>  <mol_properties>  (9) 
{"1": {"label": "*4", "atom_type": "Ct"}, "2": {"label": "*3", "atom_type": "Cs"}, "4": {"label": "*2", "atom_type": "H0"}, "8": {"label": "*0", "atom_type": "Ct"}, "9": {"label": "*1", "atom_type": "Cs"}}

>  <type>  (9) 
unop_5

>  <geom_source>  (9) 
Heuristics

$$$$

     RDKit          3D

 15 13  0  0  0  0  0  0  0  0999 V2000
   -0.4316   -1.3556   -3.1719 C   0  0  0  0  0  0  0  0  0  0  0  0
   -0.4316   -1.3556   -1.9748 C   0  0  0  0  0  0  0  0  0  0  0  0
   -0.4316   -1.3556   -0.5194 C   0  0  0  0  0  0  0  0  0  0  0  0
   -0.4316   -1.3556   -4.2352 H   0  0  0  0  0  0  0  0  0  0  0  0
   -0.3201   -0.1360   -0.0570 H   0  0  0  0  0  0  0  0  0  0  0  0
    0.4021   -1.9441   -0.1340 H   0  0  0  0  0  0  0  0  0  0  0  0
   -1.3582   -1.7833   -0.1341 H   0  0  0  0  0  0  0  0  0  0  0  0
    2.3666    1.6716    0.7150 C   0  0  0  0  0  0  0  0  0  0  0  0
    1.2086    1.4085    0.5763 C   0  0  0  0  0  0  0  0  0  0  0  0
   -0.2084    1.0866    0.4066 C   0  0  0  0  0  3  0  0  0  0  0  0
   -0.7742    0.3425    1.5320 C   0  0  0  0  0  0  0  0  0  0  0  0
   -1.2365   -0.2655    2.4516 C   0  0  0  0  0  0  0  0  0  0  0  0
    3.3966    1.9056    0.8384 H   0  0  0  0  0  0  0  0  0  0  0  0
   -0.7731    2.0128    0.2681 H   0  0  0  0  0  0  0  0  0  0  0  0
   -1.6478   -0.8064    3.2697 H   0  0  0  0  0  0  0  0  0  0  0  0
  1  2  3  0
  1  4  1  0
  2  3  1  0
  3  5  1  0
  3  6  1  0
  3  7  1  0
  8  9  3  0
  8 13  1  0
  9 10  1  0
 10 11  1  0
 10 14  1  0
 11 12  3  0
 12 15  1  0
M  RAD  1  10   2
M  END
>  <reaction>  (10) 
rxn_1225

>  <mol_properties>  (10) 
{"1": {"label": "*4", "atom_type": "Ct"}, "2": {"label": "*3", "atom_type": "Cs"}, "4": {"label": "*2", "atom_type": "H0"}, "8": {"label": "*0", "atom_type": "Ct"}, "9": {"label": "*1", "atom_type": "Cs"}}

>  <type>  (10) 
unop_6

>  <geom_source>  (10) 
Heuristics

$$$$

     RDKit          3D

 15 13  0  0  0  0  0  0  0  0999 V2000
   -0.1556   -1.3489   -3.2569 C   0  0  0  0  0  0  0  0  0  0  0  0
   -0.1556   -1.3489   -2.0598 C   0  0  0  0  0  0  0  0  0  0  0  0
   -0.1556   -1.3489   -0.6044 C   0  0  0  0  0  0  0  0  0  0  0  0
   -0.1556   -1.3489   -4.3202 H   0  0  0  0  0  0  0  0  0  0  0  0
   -0.0441   -0.1294   -0.1420 H   0  0  0  0  0  0  0  0  0  0  0  0
    0.6781   -1.9375   -0.2191 H   0  0  0  0  0  0  0  0  0  0  0  0
   -1.0822   -1.7767   -0.2191 H   0  0  0  0  0  0  0  0  0  0  0  0
    2.2672    1.2671    1.8046 C   0  0  0  0  0  0  0  0  0  0  0  0
    1.2780    1.1889    1.1377 C   0  0  0  0  0  0  0  0  0  0  0  0
    0.0676    1.0932    0.3216 C   0  0  0  0  0  3  0  0  0  0  0  0
   -1.0823    0.5548    1.0484 C   0  0  0  0  0  0  0  0  0  0  0  0
   -2.0219    0.1148    1.6423 C   0  0  0  0  0  0  0  0  0  0  0  0
    3.1470    1.3367    2.3978 H   0  0  0  0  0  0  0  0  0  0  0  0
   -0.1841    2.0846   -0.0652 H   0  0  0  0  0  0  0  0  0  0  0  0
   -2.8578   -0.2766    2.1706 H   0  0  0  0  0  0  0  0  0  0  0  0
  1  2  3  0
  1  4  1  0
  2  3  1  0
  3  5  1  0
  3  6  1  0
  3  7  1  0
  8  9  3  0
  8 13  1  0
  9 10  1  0
 10 11  1  0
 10 14  1  0
 11 12  3  0
 12 15  1  0
M  RAD  1  10   2
M  END
>  <reaction>  (11) 
rxn_1225

>  <mol_properties>  (11) 
{"1": {"label": "*4", "atom_type": "Ct"}, "2": {"label": "*3", "atom_type": "Cs"}, "4": {"label": "*2", "atom_type": "H0"}, "8": {"label": "*0", "atom_type": "Ct"}, "9": {"label": "*1", "atom_type": "Cs"}}

>  <type>  (11) 
unop_7

>  <geom_source>  (11) 
Heuristics

$$$$

     RDKit          3D

 15 13  0  0  0  0  0  0  0  0999 V2000
   -0.0420   -2.0459   -2.7644 C   0  0  0  0  0  0  0  0  0  0  0  0
   -0.0420   -2.0459   -1.5673 C   0  0  0  0  0  0  0  0  0  0  0  0
   -0.0420   -2.0459   -0.1119 C   0  0  0  0  0  0  0  0  0  0  0  0
   -0.0420   -2.0459   -3.8276 H   0  0  0  0  0  0  0  0  0  0  0  0
    0.0694   -0.8263    0.3505 H   0  0  0  0  0  0  0  0  0  0  0  0
    0.7917   -2.6345    0.2735 H   0  0  0  0  0  0  0  0  0  0  0  0
   -0.9686   -2.4736    0.2735 H   0  0  0  0  0  0  0  0  0  0  0  0
   -2.2451    1.4383    1.1226 C   0  0  0  0  0  0  0  0  0  0  0  0
   -1.1540    0.9697    0.9838 C   0  0  0  0  0  0  0  0  0  0  0  0
    0.1811    0.3962    0.8141 C   0  0  0  0  0  3  0  0  0  0  0  0
    1.2426    1.4015    0.7582 C   0  0  0  0  0  0  0  0  0  0  0  0
    2.1100    2.2230    0.7124 C   0  0  0  0  0  0  0  0  0  0  0  0
   -3.2157    1.8551    1.2459 H   0  0  0  0  0  0  0  0  0  0  0  0
    0.3831   -0.2939    1.6380 H   0  0  0  0  0  0  0  0  0  0  0  0
    2.8815    2.9537    0.6718 H   0  0  0  0  0  0  0  0  0  0  0  0
  1  2  3  0
  1  4  1  0
  2  3  1  0
  3  5  1  0
  3  6  1  0
  3  7  1  0
  8  9  3  0
  8 13  1  0
  9 10  1  0
 10 11  1  0
 10 14  1  0
 11 12  3  0
 12 15  1  0
M  RAD  1  10   2
M  END
>  <reaction>  (12) 
rxn_1225

>  <mol_properties>  (12) 
{"1": {"label": "*4", "atom_type": "Ct"}, "2": {"label": "*3", "atom_type": "Cs"}, "4": {"label": "*2", "atom_type": "H0"}, "8": {"label": "*0", "atom_type": "Ct"}, "9": {"label": "*1", "atom_type": "Cs"}}

>  <type>  (12) 
unop_8

>  <geom_source>  (12) 
Heuristics

$$$$

     RDKit          3D

 15 13  0  0  0  0  0  0  0  0999 V2000
   -0.6703   -1.6451   -2.8003 C   0  0  0  0  0  0  0  0  0  0  0  0
   -0.6703   -1.6451   -1.6032 C   0  0  0  0  0  0  0  0  0  0  0  0
   -0.6703   -1.6451   -0.1478 C   0  0  0  0  0  0  0  0  0  0  0  0
   -0.6703   -1.6451   -3.8635 H   0  0  0  0  0  0  0  0  0  0  0  0
   -0.5589   -0.4255    0.3146 H   0  0  0  0  0  0  0  0  0  0  0  0
    0.1634   -2.2337    0.2376 H   0  0  0  0  0  0  0  0  0  0  0  0
   -1.5969   -2.0728    0.2376 H   0  0  0  0  0  0  0  0  0  0  0  0
    0.9474    2.2613   -0.9477 C   0  0  0  0  0  0  0  0  0  0  0  0
    0.3203    1.6029   -0.1716 C   0  0  0  0  0  0  0  0  0  0  0  0
   -0.4471    0.7971    0.7782 C   0  0  0  0  0  3  0  0  0  0  0  0
    0.3220    0.3995    1.9575 C   0  0  0  0  0  0  0  0  0  0  0  0
    0.9504    0.0746    2.9212 C   0  0  0  0  0  0  0  0  0  0  0  0
    1.5053    2.8471   -1.6382 H   0  0  0  0  0  0  0  0  0  0  0  0
   -1.3285    1.3604    1.0973 H   0  0  0  0  0  0  0  0  0  0  0  0
    1.5095   -0.2144    3.7785 H   0  0  0  0  0  0  0  0  0  0  0  0
  1  2  3  0
  1  4  1  0
  2  3  1  0
  3  5  1  0
  3  6  1  0
  3  7  1  0
  8  9  3  0
  8 13  1  0
  9 10  1  0
 10 11  1  0
 10 14  1  0
 11 12  3  0
 12 15  1  0
M  RAD  1  10   2
M  END
>  <reaction>  (13) 
rxn_1225

>  <mol_properties>  (13) 
{"1": {"label": "*4", "atom_type": "Ct"}, "2": {"label": "*3", "atom_type": "Cs"}, "4": {"label": "*2", "atom_type": "H0"}, "8": {"label": "*0", "atom_type": "Ct"}, "9": {"label": "*1", "atom_type": "Cs"}}

>  <type>  (13) 
unop_9

>  <geom_source>  (13) 
Heuristics

$$$$

     RDKit          3D

 15 13  0  0  0  0  0  0  0  0999 V2000
   -0.1564   -2.0529   -2.6600 C   0  0  0  0  0  0  0  0  0  0  0  0
   -0.1564   -2.0529   -1.4630 C   0  0  0  0  0  0  0  0  0  0  0  0
   -0.1564   -2.0529   -0.0076 C   0  0  0  0  0  0  0  0  0  0  0  0
   -0.1564   -2.0529   -3.7233 H   0  0  0  0  0  0  0  0  0  0  0  0
   -0.0450   -0.8333    0.4549 H   0  0  0  0  0  0  0  0  0  0  0  0
    0.6773   -2.6415    0.3778 H   0  0  0  0  0  0  0  0  0  0  0  0
   -1.0830   -2.4806    0.3778 H   0  0  0  0  0  0  0  0  0  0  0  0
   -1.9841    1.8424    0.0524 C   0  0  0  0  0  0  0  0  0  0  0  0
   -1.0619    1.1889    0.4418 C   0  0  0  0  0  0  0  0  0  0  0  0
    0.0667    0.3893    0.9184 C   0  0  0  0  0  3  0  0  0  0  0  0
    1.2597    1.1841    1.2111 C   0  0  0  0  0  0  0  0  0  0  0  0
    2.2345    1.8335    1.4502 C   0  0  0  0  0  0  0  0  0  0  0  0
   -2.8045    2.4237   -0.2941 H   0  0  0  0  0  0  0  0  0  0  0  0
   -0.2328   -0.1539    1.8191 H   0  0  0  0  0  0  0  0  0  0  0  0
    3.1016    2.4113    1.6629 H   0  0  0  0  0  0  0  0  0  0  0  0
  1  2  3  0
  1  4  1  0
  2  3  1  0
  3  5  1  0
  3  6  1  0
  3  7  1  0
  8  9  3  0
  8 13  1  0
  9 10  1  0
 10 11  1  0
 10 14  1  0
 11 12  3  0
 12 15  1  0
M  RAD  1  10   2
M  END
>  <reaction>  (14) 
rxn_1225

>  <mol_properties>  (14) 
{"1": {"label": "*4", "atom_type": "Ct"}, "2": {"label": "*3", "atom_type": "Cs"}, "4": {"label": "*2", "atom_type": "H0"}, "8": {"label": "*0", "atom_type": "Ct"}, "9": {"label": "*1", "atom_type": "Cs"}}

>  <type>  (14) 
unop_10

>  <geom_source>  (14) 
Heuristics

$$$$

     RDKit          3D

 15 13  0  0  0  0  0  0  0  0999 V2000
    0.1312   -1.4863   -3.2085 C   0  0  0  0  0  0  0  0  0  0  0  0
    0.1312   -1.4863   -2.0115 C   0  0  0  0  0  0  0  0  0  0  0  0
    0.1312   -1.4863   -0.5560 C   0  0  0  0  0  0  0  0  0  0  0  0
    0.1312   -1.4863   -4.2718 H   0  0  0  0  0  0  0  0  0  0  0  0
    0.2426   -0.2668   -0.0936 H   0  0  0  0  0  0  0  0  0  0  0  0
    0.9649   -2.0749   -0.1707 H   0  0  0  0  0  0  0  0  0  0  0  0
   -0.7954   -1.9140   -0.1707 H   0  0  0  0  0  0  0  0  0  0  0  0
    1.6091    0.8901    2.7128 C   0  0  0  0  0  0  0  0  0  0  0  0
    1.0448    0.9196    1.6593 C   0  0  0  0  0  0  0  0  0  0  0  0
    0.3544    0.9558    0.3700 C   0  0  0  0  0  3  0  0  0  0  0  0
   -1.1036    0.9412    0.4909 C   0  0  0  0  0  0  0  0  0  0  0  0
   -2.2949    0.9293    0.5897 C   0  0  0  0  0  0  0  0  0  0  0  0
    2.1110    0.8638    3.6500 H   0  0  0  0  0  0  0  0  0  0  0  0
    0.6605    1.8523   -0.1764 H   0  0  0  0  0  0  0  0  0  0  0  0
   -3.3547    0.9186    0.6776 H   0  0  0  0  0  0  0  0  0  0  0  0
  1  2  3  0
  1  4  1  0
  2  3  1  0
  3  5  1  0
  3  6  1  0
  3  7  1  0
  8  9  3  0
  8 13  1  0
  9 10  1  0
 10 11  1  0
 10 14  1  0
 11 12  3  0
 12 15  1  0
M  RAD  1  10   2
M  END
>  <reaction>  (15) 
rxn_1225

>  <mol_properties>  (15) 
{"1": {"label": "*4", "atom_type": "Ct"}, "2": {"label": "*3", "atom_type": "Cs"}, "4": {"label": "*2", "atom_type": "H0"}, "8": {"label": "*0", "atom_type": "Ct"}, "9": {"label": "*1", "atom_type": "Cs"}}

>  <type>  (15) 
unop_11

>  <geom_source>  (15) 
Heuristics

$$$$

     RDKit          3D

 15 13  0  0  0  0  0  0  0  0999 V2000
   -0.5637   -1.8513   -2.6436 C   0  0  0  0  0  0  0  0  0  0  0  0
   -0.5637   -1.8513   -1.4466 C   0  0  0  0  0  0  0  0  0  0  0  0
   -0.5637   -1.8513    0.0089 C   0  0  0  0  0  0  0  0  0  0  0  0
   -0.5637   -1.8513   -3.7069 H   0  0  0  0  0  0  0  0  0  0  0  0
   -0.4523   -0.6317    0.4713 H   0  0  0  0  0  0  0  0  0  0  0  0
    0.2700   -2.4399    0.3942 H   0  0  0  0  0  0  0  0  0  0  0  0
   -1.4903   -2.2790    0.3942 H   0  0  0  0  0  0  0  0  0  0  0  0
   -0.1855    2.2877   -1.1058 C   0  0  0  0  0  0  0  0  0  0  0  0
   -0.2552    1.5247   -0.1881 C   0  0  0  0  0  0  0  0  0  0  0  0
   -0.3405    0.5909    0.9349 C   0  0  0  0  0  3  0  0  0  0  0  0
    0.8095    0.6596    1.8366 C   0  0  0  0  0  0  0  0  0  0  0  0
    1.7492    0.7158    2.5734 C   0  0  0  0  0  0  0  0  0  0  0  0
   -0.1234    2.9665   -1.9221 H   0  0  0  0  0  0  0  0  0  0  0  0
   -1.2538    0.7929    1.5014 H   0  0  0  0  0  0  0  0  0  0  0  0
    2.5852    0.7658    3.2289 H   0  0  0  0  0  0  0  0  0  0  0  0
  1  2  3  0
  1  4  1  0
  2  3  1  0
  3  5  1  0
  3  6  1  0
  3  7  1  0
  8  9  3  0
  8 13  1  0
  9 10  1  0
 10 11  1  0
 10 14  1  0
 11 12  3  0
 12 15  1  0
M  RAD  1  10   2
M  END
>  <reaction>  (16) 
rxn_1225

>  <mol_properties>  (16) 
{"1": {"label": "*4", "atom_type": "Ct"}, "2": {"label": "*3", "atom_type": "Cs"}, "4": {"label": "*2", "atom_type": "H0"}, "8": {"label": "*0", "atom_type": "Ct"}, "9": {"label": "*1", "atom_type": "Cs"}}

>  <type>  (16) 
unop_12

>  <geom_source>  (16) 
Heuristics

$$$$

     RDKit          3D

 15 13  0  0  0  0  0  0  0  0999 V2000
   -0.7307    0.3294    0.1172 C   0  0  0  0  0  3  0  0  0  0  0  0
    1.3023   -1.3054   -0.0092 C   0  0  0  0  0  0  0  0  0  0  0  0
   -1.9881   -0.2831    0.5502 C   0  0  0  0  0  0  0  0  0  0  0  0
   -0.9715    1.1804   -1.0496 C   0  0  0  0  0  0  0  0  0  0  0  0
    2.2697   -0.3454    0.5230 C   0  0  0  0  0  0  0  0  0  0  0  0
   -3.0225   -0.7888    0.9081 C   0  0  0  0  0  0  0  0  0  0  0  0
   -1.1676    1.8814   -2.0108 C   0  0  0  0  0  0  0  0  0  0  0  0
    3.0665    0.4456    0.9615 C   0  0  0  0  0  0  0  0  0  0  0  0
   -0.3153    0.9433    0.9428 H   0  0  0  0  0  0  0  0  0  0  0  0
    0.1789   -0.6696   -0.2186 H   0  0  0  0  0  0  0  0  0  0  0  0
    1.5802   -1.5731   -1.0494 H   0  0  0  0  0  0  0  0  0  0  0  0
    1.3025   -2.2189    0.6204 H   0  0  0  0  0  0  0  0  0  0  0  0
   -3.9305   -1.2325    1.2222 H   0  0  0  0  0  0  0  0  0  0  0  0
   -1.3400    2.4967   -2.8544 H   0  0  0  0  0  0  0  0  0  0  0  0
    3.7662    1.1401    1.3465 H   0  0  0  0  0  0  0  0  0  0  0  0
  1  3  1  0
  1  4  1  0
  1  9  1  0
  2  5  1  0
  2 10  1  0
  2 11  1  0
  2 12  1  0
  3  6  3  0
  4  7  3  0
  5  8  3  0
  6 13  1  0
  7 14  1  0
  8 15  1  0
M  RAD  1   1   2
M  END
>  <reaction>  (17) 
rxn_1225

>  <mol_properties>  (17) 
{"1": {"label": "*4", "atom_type": "Ct"}, "2": {"label": "*3", "atom_type": "Cs"}, "4": {"label": "*2", "atom_type": "H0"}, "8": {"label": "*0", "atom_type": "Ct"}, "9": {"label": "*1", "atom_type": "Cs"}}

>  <type>  (17) 
unop_13

>  <geom_source>  (17) 
AutoTST

$$$$
