
     RDKit          3D

 11 10  0  0  0  0  0  0  0  0999 V2000
   -1.2710    0.1907   -0.2084 C   0  0  0  0  0  0  0  0  0  0  0  0
    0.0202   -0.6130   -0.2928 C   0  0  0  0  0  0  0  0  0  0  0  0
    0.1086   -1.6953    0.7756 C   0  0  0  0  0  0  0  0  0  0  0  0
   -1.3607    0.6851    0.7620 H   0  0  0  0  0  0  0  0  0  0  0  0
   -2.1429   -0.4567   -0.3299 H   0  0  0  0  0  0  0  0  0  0  0  0
   -1.3158    0.9602   -0.9809 H   0  0  0  0  0  0  0  0  0  0  0  0
    0.8757    0.0616   -0.1992 H   0  0  0  0  0  0  0  0  0  0  0  0
    0.0997   -1.0712   -1.2825 H   0  0  0  0  0  0  0  0  0  0  0  0
   -0.7198   -2.4022    0.6850 H   0  0  0  0  0  0  0  0  0  0  0  0
    1.0395   -2.2596    0.6989 H   0  0  0  0  0  0  0  0  0  0  0  0
    0.0624   -1.2603    1.7770 H   0  0  0  0  0  0  0  0  0  0  0  0
  1  2  1  0
  1  4  1  0
  1  5  1  0
  1  6  1  0
  2  3  1  0
  2  7  1  0
  2  8  1  0
  3  9  1  0
  3 10  1  0
  3 11  1  0
M  END
>  <reaction>  (1) 
rxn_949

>  <mol_properties>  (1) 
{"1": {"label": "donator", "atom_type": "Cs"}, "6": {"label": "d_hydrogen", "atom_type": "H0"}}

>  <type>  (1) 
r1h

$$$$

     RDKit          3D

  4  3  0  0  0  0  0  0  0  0999 V2000
   -0.7528   -0.8706   -0.3839 S   0  0  0  0  0  0  0  0  0  0  0  0
    0.7502   -0.2564   -0.0649 C   0  0  0  0  0  3  0  0  0  0  0  0
    1.5655    0.9691    0.4633 S   0  0  0  0  0  0  0  0  0  0  0  0
   -1.5629    0.1579   -0.0146 H   0  0  0  0  0  0  0  0  0  0  0  0
  1  2  1  0
  1  4  1  0
  2  3  2  0
M  RAD  1   2   2
M  END
>  <reaction>  (2) 
rxn_949

>  <mol_properties>  (2) 
{"1": {"label": "acceptor", "atom_type": "CS"}}

>  <type>  (2) 
r2

$$$$

     RDKit          3D

  5  4  0  0  0  0  0  0  0  0999 V2000
    1.2280   -0.4626    0.1225 S   0  0  0  0  0  0  0  0  0  0  0  0
   -0.4732   -0.2566   -0.0746 C   0  0  0  0  0  0  0  0  0  0  0  0
   -1.3314    1.1074   -0.0947 S   0  0  0  0  0  0  0  0  0  0  0  0
    1.5289    0.8405    0.2416 H   0  0  0  0  0  0  0  0  0  0  0  0
   -0.9523   -1.2286   -0.1949 H   0  0  0  0  0  0  0  0  0  0  0  0
  1  2  1  0
  1  4  1  0
  2  3  2  0
  2  5  1  0
M  END
>  <reaction>  (3) 
rxn_949

>  <mol_properties>  (3) 
{"1": {"label": "acceptor", "atom_type": "CS"}, "4": {"label": "a_hydrogen", "atom_type": "H0"}}

>  <type>  (3) 
r2h

$$$$

     RDKit          3D

 15 13  0  0  0  0  0  0  0  0999 V2000
    0.5671   -1.8714    0.3968 S   0  0  0  0  0  0  0  0  0  0  0  0
    0.6593   -0.2213   -0.0294 C   0  0  0  0  0  0  0  0  0  0  0  0
    1.8839    0.8024   -0.1100 S   0  0  0  0  0  0  0  0  0  0  0  0
    1.8694   -2.0936    0.6613 H   0  0  0  0  0  0  0  0  0  0  0  0
   -1.5116    1.2403   -2.1000 C   0  0  0  0  0  0  0  0  0  0  0  0
   -1.7479    0.8022   -0.6819 C   0  0  0  0  0  3  0  0  0  0  0  0
   -1.8961    1.8925    0.3417 C   0  0  0  0  0  0  0  0  0  0  0  0
   -0.6366    1.8924   -2.1617 H   0  0  0  0  0  0  0  0  0  0  0  0
   -2.3693    1.8049   -2.4832 H   0  0  0  0  0  0  0  0  0  0  0  0
   -1.3504    0.3900   -2.7642 H   0  0  0  0  0  0  0  0  0  0  0  0
   -0.5692    0.1992   -0.3352 H   0  0  0  0  0  0  0  0  0  0  0  0
   -2.4697   -0.0088   -0.5790 H   0  0  0  0  0  0  0  0  0  0  0  0
   -2.7818    2.5045    0.1360 H   0  0  0  0  0  0  0  0  0  0  0  0
   -1.9985    1.4891    1.3501 H   0  0  0  0  0  0  0  0  0  0  0  0
   -1.0284    2.5570    0.3262 H   0  0  0  0  0  0  0  0  0  0  0  0
  1  2  1  0
  1  4  1  0
  2  3  2  0
  2 11  1  0
  5  6  1  0
  5  8  1  0
  5  9  1  0
  5 10  1  0
  6  7  1  0
  6 12  1  0
  7 13  1  0
  7 14  1  0
  7 15  1  0
M  RAD  1   6   2
M  END
>  <reaction>  (4) 
rxn_949

>  <mol_properties>  (4) 
{"0": {"label": "*0", "atom_type": "S2s"}, "1": {"label": "*1", "atom_type": "CS"}, "4": {"label": "*4", "atom_type": "Cs"}, "5": {"label": "*3", "atom_type": "Cs"}, "10": {"label": "*2", "atom_type": "H0"}}

>  <type>  (4) 
ts

$$$$

     RDKit          3D

 15 13  0  0  0  0  0  0  0  0999 V2000
    1.5684    0.5259    1.0622 S   0  0  0  0  0  0  0  0  0  0  0  0
    0.5846   -0.5162    0.1023 C   0  0  0  0  0  0  0  0  0  0  0  0
    0.2297   -2.0708    0.3360 S   0  0  0  0  0  0  0  0  0  0  0  0
    1.8928   -0.3836    1.9951 H   0  0  0  0  0  0  0  0  0  0  0  0
   -1.5112    0.7931   -2.2934 C   0  0  0  0  0  0  0  0  0  0  0  0
   -1.5112    0.7931   -0.7701 C   0  0  0  0  0  3  0  0  0  0  0  0
   -1.5112    2.1989   -0.1833 C   0  0  0  0  0  0  0  0  0  0  0  0
   -0.6298    1.3074   -2.6840 H   0  0  0  0  0  0  0  0  0  0  0  0
   -2.3927    1.3074   -2.6840 H   0  0  0  0  0  0  0  0  0  0  0  0
   -1.5112   -0.2218   -2.6945 H   0  0  0  0  0  0  0  0  0  0  0  0
   -0.4618    0.1375   -0.3332 H   0  0  0  0  0  0  0  0  0  0  0  0
   -2.3857    0.2468   -0.4061 H   0  0  0  0  0  0  0  0  0  0  0  0
   -2.3927    2.7575   -0.5075 H   0  0  0  0  0  0  0  0  0  0  0  0
   -1.5112    2.1783    0.9078 H   0  0  0  0  0  0  0  0  0  0  0  0
   -0.6298    2.7575   -0.5075 H   0  0  0  0  0  0  0  0  0  0  0  0
  1  2  1  0
  1  4  1  0
  2  3  2  0
  2 11  1  0
  5  6  1  0
  5  8  1  0
  5  9  1  0
  5 10  1  0
  6  7  1  0
  6 12  1  0
  7 13  1  0
  7 14  1  0
  7 15  1  0
M  RAD  1   6   2
M  END
>  <reaction>  (5) 
rxn_949

>  <mol_properties>  (5) 
{"0": {"label": "*0", "atom_type": "S2s"}, "1": {"label": "*1", "atom_type": "CS"}, "4": {"label": "*4", "atom_type": "Cs"}, "5": {"label": "*3", "atom_type": "Cs"}, "10": {"label": "*2", "atom_type": "H0"}}

>  <type>  (5) 
unop_1

>  <geom_source>  (5) 
Heuristics

$$$$

     RDKit          3D

 15 13  0  0  0  0  0  0  0  0999 V2000
    1.6808   -0.4252   -0.8054 S   0  0  0  0  0  0  0  0  0  0  0  0
    0.3859   -0.5728    0.3246 C   0  0  0  0  0  0  0  0  0  0  0  0
    0.4413   -1.0078    1.8755 S   0  0  0  0  0  0  0  0  0  0  0  0
    2.6631   -0.7824    0.0374 H   0  0  0  0  0  0  0  0  0  0  0  0
   -1.7099    0.7365   -2.0711 C   0  0  0  0  0  0  0  0  0  0  0  0
   -1.7099    0.7365   -0.5477 C   0  0  0  0  0  3  0  0  0  0  0  0
   -1.7099    2.1423    0.0390 C   0  0  0  0  0  0  0  0  0  0  0  0
   -0.8284    1.2508   -2.4617 H   0  0  0  0  0  0  0  0  0  0  0  0
   -2.5913    1.2508   -2.4617 H   0  0  0  0  0  0  0  0  0  0  0  0
   -1.7099   -0.2784   -2.4722 H   0  0  0  0  0  0  0  0  0  0  0  0
   -0.6604    0.0809   -0.1109 H   0  0  0  0  0  0  0  0  0  0  0  0
   -2.5844    0.1902   -0.1837 H   0  0  0  0  0  0  0  0  0  0  0  0
   -2.5913    2.7009   -0.2852 H   0  0  0  0  0  0  0  0  0  0  0  0
   -1.7099    2.1216    1.1301 H   0  0  0  0  0  0  0  0  0  0  0  0
   -0.8284    2.7009   -0.2852 H   0  0  0  0  0  0  0  0  0  0  0  0
  1  2  1  0
  1  4  1  0
  2  3  2  0
  2 11  1  0
  5  6  1  0
  5  8  1  0
  5  9  1  0
  5 10  1  0
  6  7  1  0
  6 12  1  0
  7 13  1  0
  7 14  1  0
  7 15  1  0
M  RAD  1   6   2
M  END
>  <reaction>  (6) 
rxn_949

>  <mol_properties>  (6) 
{"0": {"label": "*0", "atom_type": "S2s"}, "1": {"label": "*1", "atom_type": "CS"}, "4": {"label": "*4", "atom_type": "Cs"}, "5": {"label": "*3", "atom_type": "Cs"}, "10": {"label": "*2", "atom_type": "H0"}}

>  <type>  (6) 
unop_2

>  <geom_source>  (6) 
Heuristics

$$$$

     RDKit          3D

 15 13  0  0  0  0  0  0  0  0999 V2000
    1.0754    0.2221    1.6865 S   0  0  0  0  0  0  0  0  0  0  0  0
    0.5739   -0.4211    0.1666 C   0  0  0  0  0  0  0  0  0  0  0  0
    0.7501   -1.9171   -0.4065 S   0  0  0  0  0  0  0  0  0  0  0  0
    1.6204   -0.9095    2.1612 H   0  0  0  0  0  0  0  0  0  0  0  0
   -1.5219    0.8882   -2.2290 C   0  0  0  0  0  0  0  0  0  0  0  0
   -1.5219    0.8882   -0.7057 C   0  0  0  0  0  3  0  0  0  0  0  0
   -1.5219    2.2940   -0.1190 C   0  0  0  0  0  0  0  0  0  0  0  0
   -0.6405    1.4025   -2.6196 H   0  0  0  0  0  0  0  0  0  0  0  0
   -2.4034    1.4025   -2.6196 H   0  0  0  0  0  0  0  0  0  0  0  0
   -1.5219   -0.1267   -2.6302 H   0  0  0  0  0  0  0  0  0  0  0  0
   -0.4725    0.2326   -0.2689 H   0  0  0  0  0  0  0  0  0  0  0  0
   -2.3965    0.3418   -0.3417 H   0  0  0  0  0  0  0  0  0  0  0  0
   -2.4034    2.8526   -0.4431 H   0  0  0  0  0  0  0  0  0  0  0  0
   -1.5219    2.2733    0.9721 H   0  0  0  0  0  0  0  0  0  0  0  0
   -0.6405    2.8526   -0.4431 H   0  0  0  0  0  0  0  0  0  0  0  0
  1  2  1  0
  1  4  1  0
  2  3  2  0
  2 11  1  0
  5  6  1  0
  5  8  1  0
  5  9  1  0
  5 10  1  0
  6  7  1  0
  6 12  1  0
  7 13  1  0
  7 14  1  0
  7 15  1  0
M  RAD  1   6   2
M  END
>  <reaction>  (7) 
rxn_949

>  <mol_properties>  (7) 
{"0": {"label": "*0", "atom_type": "S2s"}, "1": {"label": "*1", "atom_type": "CS"}, "4": {"label": "*4", "atom_type": "Cs"}, "5": {"label": "*3", "atom_type": "Cs"}, "10": {"label": "*2", "atom_type": "H0"}}

>  <type>  (7) 
unop_3

>  <geom_source>  (7) 
Heuristics

$$$$

     RDKit          3D

 15 13  0  0  0  0  0  0  0  0999 V2000
    0.5613   -1.9808   -0.3542 S   0  0  0  0  0  0  0  0  0  0  0  0
    0.6084   -0.3535    0.2158 C   0  0  0  0  0  0  0  0  0  0  0  0
    1.2176    0.2184    1.5939 S   0  0  0  0  0  0  0  0  0  0  0  0
    1.1754   -2.5333    0.7043 H   0  0  0  0  0  0  0  0  0  0  0  0
   -1.4874    0.9558   -2.1798 C   0  0  0  0  0  0  0  0  0  0  0  0
   -1.4874    0.9558   -0.6565 C   0  0  0  0  0  3  0  0  0  0  0  0
   -1.4874    2.3616   -0.0698 C   0  0  0  0  0  0  0  0  0  0  0  0
   -0.6060    1.4701   -2.5705 H   0  0  0  0  0  0  0  0  0  0  0  0
   -2.3689    1.4701   -2.5705 H   0  0  0  0  0  0  0  0  0  0  0  0
   -1.4874   -0.0591   -2.5810 H   0  0  0  0  0  0  0  0  0  0  0  0
   -0.4380    0.3002   -0.2197 H   0  0  0  0  0  0  0  0  0  0  0  0
   -2.3619    0.4095   -0.2925 H   0  0  0  0  0  0  0  0  0  0  0  0
   -2.3689    2.9202   -0.3939 H   0  0  0  0  0  0  0  0  0  0  0  0
   -1.4874    2.3409    1.0213 H   0  0  0  0  0  0  0  0  0  0  0  0
   -0.6060    2.9202   -0.3939 H   0  0  0  0  0  0  0  0  0  0  0  0
  1  2  1  0
  1  4  1  0
  2  3  2  0
  2 11  1  0
  5  6  1  0
  5  8  1  0
  5  9  1  0
  5 10  1  0
  6  7  1  0
  6 12  1  0
  7 13  1  0
  7 14  1  0
  7 15  1  0
M  RAD  1   6   2
M  END
>  <reaction>  (8) 
rxn_949

>  <mol_properties>  (8) 
{"0": {"label": "*0", "atom_type": "S2s"}, "1": {"label": "*1", "atom_type": "CS"}, "4": {"label": "*4", "atom_type": "Cs"}, "5": {"label": "*3", "atom_type": "Cs"}, "10": {"label": "*2", "atom_type": "H0"}}

>  <type>  (8) 
unop_4

>  <geom_source>  (8) 
Heuristics

$$$$

     RDKit          3D

 15 13  0  0  0  0  0  0  0  0999 V2000
    0.4802   -0.4747    1.9566 S   0  0  0  0  0  0  0  0  0  0  0  0
    0.4699   -0.4682    0.2317 C   0  0  0  0  0  0  0  0  0  0  0  0
    1.5278   -1.1292   -0.7887 S   0  0  0  0  0  0  0  0  0  0  0  0
    1.6123   -1.1819    2.1018 H   0  0  0  0  0  0  0  0  0  0  0  0
   -1.6259    0.8411   -2.1639 C   0  0  0  0  0  0  0  0  0  0  0  0
   -1.6259    0.8411   -0.6406 C   0  0  0  0  0  3  0  0  0  0  0  0
   -1.6259    2.2469   -0.0539 C   0  0  0  0  0  0  0  0  0  0  0  0
   -0.7445    1.3554   -2.5546 H   0  0  0  0  0  0  0  0  0  0  0  0
   -2.5074    1.3554   -2.5546 H   0  0  0  0  0  0  0  0  0  0  0  0
   -1.6259   -0.1738   -2.5651 H   0  0  0  0  0  0  0  0  0  0  0  0
   -0.5765    0.1855   -0.2038 H   0  0  0  0  0  0  0  0  0  0  0  0
   -2.5005    0.2947   -0.2766 H   0  0  0  0  0  0  0  0  0  0  0  0
   -2.5074    2.8055   -0.3780 H   0  0  0  0  0  0  0  0  0  0  0  0
   -1.6259    2.2262    1.0372 H   0  0  0  0  0  0  0  0  0  0  0  0
   -0.7445    2.8055   -0.3780 H   0  0  0  0  0  0  0  0  0  0  0  0
  1  2  1  0
  1  4  1  0
  2  3  2  0
  2 11  1  0
  5  6  1  0
  5  8  1  0
  5  9  1  0
  5 10  1  0
  6  7  1  0
  6 12  1  0
  7 13  1  0
  7 14  1  0
  7 15  1  0
M  RAD  1   6   2
M  END
>  <reaction>  (9) 
rxn_949

>  <mol_properties>  (9) 
{"0": {"label": "*0", "atom_type": "S2s"}, "1": {"label": "*1", "atom_type": "CS"}, "4": {"label": "*4", "atom_type": "Cs"}, "5": {"label": "*3", "atom_type": "Cs"}, "10": {"label": "*2", "atom_type": "H0"}}

>  <type>  (9) 
unop_5

>  <geom_source>  (9) 
Heuristics

$$$$

     RDKit          3D

 15 13  0  0  0  0  0  0  0  0999 V2000
    0.2299   -2.1114    0.3183 S   0  0  0  0  0  0  0  0  0  0  0  0
    0.6211   -0.4428    0.1233 C   0  0  0  0  0  0  0  0  0  0  0  0
    1.5348    0.4982    1.0600 S   0  0  0  0  0  0  0  0  0  0  0  0
    0.9222   -2.3011    1.4530 H   0  0  0  0  0  0  0  0  0  0  0  0
   -1.4747    0.8665   -2.2723 C   0  0  0  0  0  0  0  0  0  0  0  0
   -1.4747    0.8665   -0.7490 C   0  0  0  0  0  3  0  0  0  0  0  0
   -1.4747    2.2724   -0.1623 C   0  0  0  0  0  0  0  0  0  0  0  0
   -0.5932    1.3808   -2.6629 H   0  0  0  0  0  0  0  0  0  0  0  0
   -2.3561    1.3808   -2.6629 H   0  0  0  0  0  0  0  0  0  0  0  0
   -1.4747   -0.1484   -2.6735 H   0  0  0  0  0  0  0  0  0  0  0  0
   -0.4253    0.2109   -0.3122 H   0  0  0  0  0  0  0  0  0  0  0  0
   -2.3492    0.3202   -0.3850 H   0  0  0  0  0  0  0  0  0  0  0  0
   -2.3561    2.8309   -0.4864 H   0  0  0  0  0  0  0  0  0  0  0  0
   -1.4747    2.2517    0.9288 H   0  0  0  0  0  0  0  0  0  0  0  0
   -0.5932    2.8309   -0.4864 H   0  0  0  0  0  0  0  0  0  0  0  0
  1  2  1  0
  1  4  1  0
  2  3  2  0
  2 11  1  0
  5  6  1  0
  5  8  1  0
  5  9  1  0
  5 10  1  0
  6  7  1  0
  6 12  1  0
  7 13  1  0
  7 14  1  0
  7 15  1  0
M  RAD  1   6   2
M  END
>  <reaction>  (10) 
rxn_949

>  <mol_properties>  (10) 
{"0": {"label": "*0", "atom_type": "S2s"}, "1": {"label": "*1", "atom_type": "CS"}, "4": {"label": "*4", "atom_type": "Cs"}, "5": {"label": "*3", "atom_type": "Cs"}, "10": {"label": "*2", "atom_type": "H0"}}

>  <type>  (10) 
unop_6

>  <geom_source>  (10) 
Heuristics

$$$$

     RDKit          3D

 15 13  0  0  0  0  0  0  0  0999 V2000
    0.0582   -1.8915    1.0622 S   0  0  0  0  0  0  0  0  0  0  0  0
    0.5633   -0.5503    0.1023 C   0  0  0  0  0  0  0  0  0  0  0  0
    1.8048    0.4505    0.3360 S   0  0  0  0  0  0  0  0  0  0  0  0
    1.0178   -1.7841    1.9951 H   0  0  0  0  0  0  0  0  0  0  0  0
   -1.5325    0.7590   -2.2934 C   0  0  0  0  0  0  0  0  0  0  0  0
   -1.5325    0.7590   -0.7701 C   0  0  0  0  0  3  0  0  0  0  0  0
   -1.5325    2.1648   -0.1833 C   0  0  0  0  0  0  0  0  0  0  0  0
   -0.6511    1.2733   -2.6840 H   0  0  0  0  0  0  0  0  0  0  0  0
   -2.4140    1.2733   -2.6840 H   0  0  0  0  0  0  0  0  0  0  0  0
   -1.5325   -0.2559   -2.6945 H   0  0  0  0  0  0  0  0  0  0  0  0
   -0.4831    0.1034   -0.3332 H   0  0  0  0  0  0  0  0  0  0  0  0
   -2.4070    0.2127   -0.4060 H   0  0  0  0  0  0  0  0  0  0  0  0
   -2.4140    2.7234   -0.5075 H   0  0  0  0  0  0  0  0  0  0  0  0
   -1.5325    2.1442    0.9078 H   0  0  0  0  0  0  0  0  0  0  0  0
   -0.6511    2.7234   -0.5075 H   0  0  0  0  0  0  0  0  0  0  0  0
  1  2  1  0
  1  4  1  0
  2  3  2  0
  2 11  1  0
  5  6  1  0
  5  8  1  0
  5  9  1  0
  5 10  1  0
  6  7  1  0
  6 12  1  0
  7 13  1  0
  7 14  1  0
  7 15  1  0
M  RAD  1   6   2
M  END
>  <reaction>  (11) 
rxn_949

>  <mol_properties>  (11) 
{"0": {"label": "*0", "atom_type": "S2s"}, "1": {"label": "*1", "atom_type": "CS"}, "4": {"label": "*4", "atom_type": "Cs"}, "5": {"label": "*3", "atom_type": "Cs"}, "10": {"label": "*2", "atom_type": "H0"}}

>  <type>  (11) 
unop_7

>  <geom_source>  (11) 
Heuristics

$$$$

     RDKit          3D

 15 13  0  0  0  0  0  0  0  0999 V2000
    1.8413    0.4681    0.3183 S   0  0  0  0  0  0  0  0  0  0  0  0
    0.5133   -0.6153    0.1233 C   0  0  0  0  0  0  0  0  0  0  0  0
    0.0684   -1.8491    1.0600 S   0  0  0  0  0  0  0  0  0  0  0  0
    2.3154   -0.0709    1.4530 H   0  0  0  0  0  0  0  0  0  0  0  0
   -1.5825    0.6940   -2.2723 C   0  0  0  0  0  0  0  0  0  0  0  0
   -1.5825    0.6940   -0.7490 C   0  0  0  0  0  3  0  0  0  0  0  0
   -1.5825    2.0998   -0.1623 C   0  0  0  0  0  0  0  0  0  0  0  0
   -0.7010    1.2083   -2.6629 H   0  0  0  0  0  0  0  0  0  0  0  0
   -2.4639    1.2083   -2.6629 H   0  0  0  0  0  0  0  0  0  0  0  0
   -1.5825   -0.3209   -2.6735 H   0  0  0  0  0  0  0  0  0  0  0  0
   -0.5330    0.0384   -0.3122 H   0  0  0  0  0  0  0  0  0  0  0  0
   -2.4570    0.1477   -0.3850 H   0  0  0  0  0  0  0  0  0  0  0  0
   -2.4639    2.6584   -0.4864 H   0  0  0  0  0  0  0  0  0  0  0  0
   -1.5825    2.0792    0.9288 H   0  0  0  0  0  0  0  0  0  0  0  0
   -0.7010    2.6584   -0.4864 H   0  0  0  0  0  0  0  0  0  0  0  0
  1  2  1  0
  1  4  1  0
  2  3  2  0
  2 11  1  0
  5  6  1  0
  5  8  1  0
  5  9  1  0
  5 10  1  0
  6  7  1  0
  6 12  1  0
  7 13  1  0
  7 14  1  0
  7 15  1  0
M  RAD  1   6   2
M  END
>  <reaction>  (12) 
rxn_949

>  <mol_properties>  (12) 
{"0": {"label": "*0", "atom_type": "S2s"}, "1": {"label": "*1", "atom_type": "CS"}, "4": {"label": "*4", "atom_type": "Cs"}, "5": {"label": "*3", "atom_type": "Cs"}, "10": {"label": "*2", "atom_type": "H0"}}

>  <type>  (12) 
unop_8

>  <geom_source>  (12) 
Heuristics

$$$$

     RDKit          3D

 15 13  0  0  0  0  0  0  0  0999 V2000
    0.9623   -1.5753   -0.8054 S   0  0  0  0  0  0  0  0  0  0  0  0
    0.5271   -0.3469    0.3246 C   0  0  0  0  0  0  0  0  0  0  0  0
    0.9423   -0.2059    1.8755 S   0  0  0  0  0  0  0  0  0  0  0  0
    1.7141   -2.3015    0.0374 H   0  0  0  0  0  0  0  0  0  0  0  0
   -1.5687    0.9624   -2.0711 C   0  0  0  0  0  0  0  0  0  0  0  0
   -1.5687    0.9624   -0.5477 C   0  0  0  0  0  3  0  0  0  0  0  0
   -1.5687    2.3682    0.0390 C   0  0  0  0  0  0  0  0  0  0  0  0
   -0.6873    1.4767   -2.4617 H   0  0  0  0  0  0  0  0  0  0  0  0
   -2.4502    1.4767   -2.4617 H   0  0  0  0  0  0  0  0  0  0  0  0
   -1.5687   -0.0525   -2.4722 H   0  0  0  0  0  0  0  0  0  0  0  0
   -0.5193    0.3068   -0.1109 H   0  0  0  0  0  0  0  0  0  0  0  0
   -2.4433    0.4160   -0.1837 H   0  0  0  0  0  0  0  0  0  0  0  0
   -2.4502    2.9268   -0.2852 H   0  0  0  0  0  0  0  0  0  0  0  0
   -1.5687    2.3475    1.1301 H   0  0  0  0  0  0  0  0  0  0  0  0
   -0.6873    2.9268   -0.2852 H   0  0  0  0  0  0  0  0  0  0  0  0
  1  2  1  0
  1  4  1  0
  2  3  2  0
  2 11  1  0
  5  6  1  0
  5  8  1  0
  5  9  1  0
  5 10  1  0
  6  7  1  0
  6 12  1  0
  7 13  1  0
  7 14  1  0
  7 15  1  0
M  RAD  1   6   2
M  END
>  <reaction>  (13) 
rxn_949

>  <mol_properties>  (13) 
{"0": {"label": "*0", "atom_type": "S2s"}, "1": {"label": "*1", "atom_type": "CS"}, "4": {"label": "*4", "atom_type": "Cs"}, "5": {"label": "*3", "atom_type": "Cs"}, "10": {"label": "*2", "atom_type": "H0"}}

>  <type>  (13) 
unop_9

>  <geom_source>  (13) 
Heuristics

$$$$

     RDKit          3D

 15 13  0  0  0  0  0  0  0  0999 V2000
    1.8694    0.1129   -0.3542 S   0  0  0  0  0  0  0  0  0  0  0  0
    0.4275   -0.6430    0.2158 C   0  0  0  0  0  0  0  0  0  0  0  0
    0.1807   -1.4413    1.5939 S   0  0  0  0  0  0  0  0  0  0  0  0
    2.6352   -0.1966    0.7043 H   0  0  0  0  0  0  0  0  0  0  0  0
   -1.6683    0.6663   -2.1798 C   0  0  0  0  0  0  0  0  0  0  0  0
   -1.6683    0.6663   -0.6565 C   0  0  0  0  0  3  0  0  0  0  0  0
   -1.6683    2.0721   -0.0698 C   0  0  0  0  0  0  0  0  0  0  0  0
   -0.7868    1.1806   -2.5705 H   0  0  0  0  0  0  0  0  0  0  0  0
   -2.5497    1.1806   -2.5705 H   0  0  0  0  0  0  0  0  0  0  0  0
   -1.6683   -0.3486   -2.5810 H   0  0  0  0  0  0  0  0  0  0  0  0
   -0.6188    0.0107   -0.2197 H   0  0  0  0  0  0  0  0  0  0  0  0
   -2.5428    0.1200   -0.2925 H   0  0  0  0  0  0  0  0  0  0  0  0
   -2.5497    2.6307   -0.3939 H   0  0  0  0  0  0  0  0  0  0  0  0
   -1.6683    2.0514    1.0213 H   0  0  0  0  0  0  0  0  0  0  0  0
   -0.7868    2.6307   -0.3939 H   0  0  0  0  0  0  0  0  0  0  0  0
  1  2  1  0
  1  4  1  0
  2  3  2  0
  2 11  1  0
  5  6  1  0
  5  8  1  0
  5  9  1  0
  5 10  1  0
  6  7  1  0
  6 12  1  0
  7 13  1  0
  7 14  1  0
  7 15  1  0
M  RAD  1   6   2
M  END
>  <reaction>  (14) 
rxn_949

>  <mol_properties>  (14) 
{"0": {"label": "*0", "atom_type": "S2s"}, "1": {"label": "*1", "atom_type": "CS"}, "4": {"label": "*4", "atom_type": "Cs"}, "5": {"label": "*3", "atom_type": "Cs"}, "10": {"label": "*2", "atom_type": "H0"}}

>  <type>  (14) 
unop_10

>  <geom_source>  (14) 
Heuristics

$$$$

     RDKit          3D

 15 13  0  0  0  0  0  0  0  0999 V2000
    0.1151   -1.3151    1.6865 S   0  0  0  0  0  0  0  0  0  0  0  0
    0.4731   -0.5823    0.1666 C   0  0  0  0  0  0  0  0  0  0  0  0
    1.8949   -0.0846   -0.4065 S   0  0  0  0  0  0  0  0  0  0  0  0
    1.3710   -1.3087    2.1612 H   0  0  0  0  0  0  0  0  0  0  0  0
   -1.6226    0.7270   -2.2290 C   0  0  0  0  0  0  0  0  0  0  0  0
   -1.6226    0.7270   -0.7057 C   0  0  0  0  0  3  0  0  0  0  0  0
   -1.6226    2.1328   -0.1190 C   0  0  0  0  0  0  0  0  0  0  0  0
   -0.7412    1.2412   -2.6196 H   0  0  0  0  0  0  0  0  0  0  0  0
   -2.5041    1.2412   -2.6196 H   0  0  0  0  0  0  0  0  0  0  0  0
   -1.6226   -0.2879   -2.6302 H   0  0  0  0  0  0  0  0  0  0  0  0
   -0.5732    0.0714   -0.2689 H   0  0  0  0  0  0  0  0  0  0  0  0
   -2.4972    0.1806   -0.3417 H   0  0  0  0  0  0  0  0  0  0  0  0
   -2.5041    2.6914   -0.4431 H   0  0  0  0  0  0  0  0  0  0  0  0
   -1.6227    2.1121    0.9721 H   0  0  0  0  0  0  0  0  0  0  0  0
   -0.7412    2.6914   -0.4431 H   0  0  0  0  0  0  0  0  0  0  0  0
  1  2  1  0
  1  4  1  0
  2  3  2  0
  2 11  1  0
  5  6  1  0
  5  8  1  0
  5  9  1  0
  5 10  1  0
  6  7  1  0
  6 12  1  0
  7 13  1  0
  7 14  1  0
  7 15  1  0
M  RAD  1   6   2
M  END
>  <reaction>  (15) 
rxn_949

>  <mol_properties>  (15) 
{"0": {"label": "*0", "atom_type": "S2s"}, "1": {"label": "*1", "atom_type": "CS"}, "4": {"label": "*4", "atom_type": "Cs"}, "5": {"label": "*3", "atom_type": "Cs"}, "10": {"label": "*2", "atom_type": "H0"}}

>  <type>  (15) 
unop_11

>  <geom_source>  (15) 
Heuristics

$$$$

     RDKit          3D

 15 13  0  0  0  0  0  0  0  0999 V2000
    1.3536   -1.0203   -0.9605 S   0  0  0  0  0  0  0  0  0  0  0  0
    0.4271   -0.4415    0.3744 C   0  0  0  0  0  0  0  0  0  0  0  0
    0.7074   -0.6166    1.9518 S   0  0  0  0  0  0  0  0  0  0  0  0
    2.3121   -1.6191   -0.2357 H   0  0  0  0  0  0  0  0  0  0  0  0
   -1.6686    0.8678   -2.0213 C   0  0  0  0  0  0  0  0  0  0  0  0
   -1.6686    0.8678   -0.4979 C   0  0  0  0  0  3  0  0  0  0  0  0
   -1.6686    2.2736    0.0888 C   0  0  0  0  0  0  0  0  0  0  0  0
   -0.7872    1.3820   -2.4119 H   0  0  0  0  0  0  0  0  0  0  0  0
   -2.5501    1.3820   -2.4119 H   0  0  0  0  0  0  0  0  0  0  0  0
   -1.6686   -0.1471   -2.4224 H   0  0  0  0  0  0  0  0  0  0  0  0
   -0.6192    0.2122   -0.0611 H   0  0  0  0  0  0  0  0  0  0  0  0
   -2.5432    0.3214   -0.1339 H   0  0  0  0  0  0  0  0  0  0  0  0
   -2.5501    2.8322   -0.2353 H   0  0  0  0  0  0  0  0  0  0  0  0
   -1.6686    2.2529    1.1799 H   0  0  0  0  0  0  0  0  0  0  0  0
   -0.7872    2.8322   -0.2353 H   0  0  0  0  0  0  0  0  0  0  0  0
  1  2  1  0
  1  4  1  0
  2  3  2  0
  2 11  1  0
  5  6  1  0
  5  8  1  0
  5  9  1  0
  5 10  1  0
  6  7  1  0
  6 12  1  0
  7 13  1  0
  7 14  1  0
  7 15  1  0
M  RAD  1   6   2
M  END
>  <reaction>  (16) 
rxn_949

>  <mol_properties>  (16) 
{"0": {"label": "*0", "atom_type": "S2s"}, "1": {"label": "*1", "atom_type": "CS"}, "4": {"label": "*4", "atom_type": "Cs"}, "5": {"label": "*3", "atom_type": "Cs"}, "10": {"label": "*2", "atom_type": "H0"}}

>  <type>  (16) 
unop_12

>  <geom_source>  (16) 
Heuristics

$$$$

     RDKit          3D

 15 13  0  0  0  0  0  0  0  0999 V2000
    3.3656   -0.2583   -0.2624 S   0  0  0  0  0  0  0  0  0  0  0  0
    1.7023   -2.5018   -0.1084 S   0  0  0  0  0  0  0  0  0  0  0  0
   -1.2504   -0.5149    0.8374 C   0  0  0  0  0  0  0  0  0  0  0  0
   -1.1180    1.2294   -0.9782 C   0  0  0  0  0  0  0  0  0  0  0  0
   -0.3344    0.3921    0.0251 C   0  0  0  0  0  3  0  0  0  0  0  0
    1.7774   -1.0820   -0.2890 C   0  0  0  0  0  0  0  0  0  0  0  0
   -1.9774    0.0908    1.4194 H   0  0  0  0  0  0  0  0  0  0  0  0
   -1.7993   -1.2063    0.1638 H   0  0  0  0  0  0  0  0  0  0  0  0
   -0.6395   -1.1170    1.5418 H   0  0  0  0  0  0  0  0  0  0  0  0
   -1.6646    0.5685   -1.6835 H   0  0  0  0  0  0  0  0  0  0  0  0
   -0.4135    1.8611   -1.5581 H   0  0  0  0  0  0  0  0  0  0  0  0
   -1.8410    1.8879   -0.4513 H   0  0  0  0  0  0  0  0  0  0  0  0
    0.2389    1.0573    0.7060 H   0  0  0  0  0  0  0  0  0  0  0  0
    0.6676   -0.3779   -0.4867 H   0  0  0  0  0  0  0  0  0  0  0  0
    3.2861   -0.0287    1.1241 H   0  0  0  0  0  0  0  0  0  0  0  0
  1  6  1  0
  1 15  1  0
  2  6  2  0
  3  5  1  0
  3  7  1  0
  3  8  1  0
  3  9  1  0
  4  5  1  0
  4 10  1  0
  4 11  1  0
  4 12  1  0
  5 13  1  0
  6 14  1  0
M  RAD  1   5   2
M  END
>  <reaction>  (17) 
rxn_949

>  <mol_properties>  (17) 
{"0": {"label": "*0", "atom_type": "S2s"}, "1": {"label": "*1", "atom_type": "CS"}, "4": {"label": "*4", "atom_type": "Cs"}, "5": {"label": "*3", "atom_type": "Cs"}, "10": {"label": "*2", "atom_type": "H0"}}

>  <type>  (17) 
unop_13

>  <geom_source>  (17) 
AutoTST

$$$$

     RDKit          3D

 15 13  0  0  0  0  0  0  0  0999 V2000
    1.6808   -0.4253   -0.8054 S   0  0  0  0  0  0  0  0  0  0  0  0
    0.3859   -0.5728    0.3246 C   0  0  0  0  0  0  0  0  0  0  0  0
    0.4414   -1.0078    1.8755 S   0  0  0  0  0  0  0  0  0  0  0  0
    2.6631   -0.7824    0.0374 H   0  0  0  0  0  0  0  0  0  0  0  0
   -1.7099    0.7365   -2.0711 C   0  0  0  0  0  0  0  0  0  0  0  0
   -1.7099    0.7365   -0.5477 C   0  0  0  0  0  3  0  0  0  0  0  0
   -1.7099    2.1423    0.0390 C   0  0  0  0  0  0  0  0  0  0  0  0
   -0.8284    1.2508   -2.4617 H   0  0  0  0  0  0  0  0  0  0  0  0
   -2.5913    1.2508   -2.4617 H   0  0  0  0  0  0  0  0  0  0  0  0
   -1.7099   -0.2784   -2.4722 H   0  0  0  0  0  0  0  0  0  0  0  0
   -0.6604    0.0809   -0.1109 H   0  0  0  0  0  0  0  0  0  0  0  0
   -2.5844    0.1902   -0.1837 H   0  0  0  0  0  0  0  0  0  0  0  0
   -2.5913    2.7009   -0.2852 H   0  0  0  0  0  0  0  0  0  0  0  0
   -1.7099    2.1216    1.1301 H   0  0  0  0  0  0  0  0  0  0  0  0
   -0.8284    2.7009   -0.2852 H   0  0  0  0  0  0  0  0  0  0  0  0
  1  2  1  0
  1  4  1  0
  2  3  2  0
  2 11  1  0
  5  6  1  0
  5  8  1  0
  5  9  1  0
  5 10  1  0
  6  7  1  0
  6 12  1  0
  7 13  1  0
  7 14  1  0
  7 15  1  0
M  RAD  1   6   2
M  END
>  <reaction>  (18) 
rxn_949

>  <mol_properties>  (18) 
{"0": {"label": "*0", "atom_type": "S2s"}, "1": {"label": "*1", "atom_type": "CS"}, "4": {"label": "*4", "atom_type": "Cs"}, "5": {"label": "*3", "atom_type": "Cs"}, "10": {"label": "*2", "atom_type": "H0"}}

>  <type>  (18) 
unop_14

>  <geom_source>  (18) 
gaussian_log

$$$$
