
     RDKit          3D

 11 10  0  0  0  0  0  0  0  0999 V2000
   -1.2710    0.1907   -0.2084 C   0  0  0  0  0  0  0  0  0  0  0  0
    0.0202   -0.6130   -0.2928 C   0  0  0  0  0  0  0  0  0  0  0  0
    0.1086   -1.6953    0.7756 C   0  0  0  0  0  0  0  0  0  0  0  0
   -1.3607    0.6851    0.7620 H   0  0  0  0  0  0  0  0  0  0  0  0
   -2.1429   -0.4567   -0.3299 H   0  0  0  0  0  0  0  0  0  0  0  0
   -1.3158    0.9602   -0.9809 H   0  0  0  0  0  0  0  0  0  0  0  0
    0.8757    0.0616   -0.1992 H   0  0  0  0  0  0  0  0  0  0  0  0
    0.0997   -1.0712   -1.2825 H   0  0  0  0  0  0  0  0  0  0  0  0
   -0.7198   -2.4022    0.6850 H   0  0  0  0  0  0  0  0  0  0  0  0
    1.0395   -2.2596    0.6989 H   0  0  0  0  0  0  0  0  0  0  0  0
    0.0624   -1.2603    1.7770 H   0  0  0  0  0  0  0  0  0  0  0  0
  1  2  1  0
  1  4  1  0
  1  5  1  0
  1  6  1  0
  2  3  1  0
  2  7  1  0
  2  8  1  0
  3  9  1  0
  3 10  1  0
  3 11  1  0
M  END
>  <reaction>  (1) 
rxn_330

>  <mol_properties>  (1) 
{"1": {"label": "donator", "atom_type": "Cs"}, "6": {"label": "d_hydrogen", "atom_type": "H0"}}

>  <type>  (1) 
r1h

$$$$

     RDKit          3D

  3  2  0  0  0  0  0  0  0  0999 V2000
    0.0000    0.0000    0.1037 C   0  0  0  0  0  2  0  0  0  0  0  0
    0.0000    0.9954   -0.3147 H   0  0  0  0  0  0  0  0  0  0  0  0
    0.0000   -0.9954   -0.3147 H   0  0  0  0  0  0  0  0  0  0  0  0
  1  2  1  0
  1  3  1  0
M  RAD  1   1   3
M  END
>  <reaction>  (2) 
rxn_330

>  <mol_properties>  (2) 
{"0": {"label": "acceptor", "atom_type": "Cs"}}

>  <type>  (2) 
r2

$$$$

     RDKit          3D

  4  3  0  0  0  0  0  0  0  0999 V2000
    0.0000    0.0000    0.0000 C   0  0  0  0  0  3  0  0  0  0  0  0
    1.0638   -0.1747    0.0540 H   0  0  0  0  0  0  0  0  0  0  0  0
   -0.6833   -0.8351   -0.0280 H   0  0  0  0  0  0  0  0  0  0  0  0
   -0.3805    1.0098   -0.0260 H   0  0  0  0  0  0  0  0  0  0  0  0
  1  2  1  0
  1  3  1  0
  1  4  1  0
M  RAD  1   1   2
M  END
>  <reaction>  (3) 
rxn_330

>  <mol_properties>  (3) 
{"0": {"label": "acceptor", "atom_type": "Cs"}, "3": {"label": "a_hydrogen", "atom_type": "H0"}}

>  <type>  (3) 
r2h

$$$$

     RDKit          3D

 14 12  0  0  0  0  0  0  0  0999 V2000
    1.5232   -1.2645    1.0334 C   0  0  0  0  0  2  0  0  0  0  0  0
    1.7646   -2.2086    0.5612 H   0  0  0  0  0  0  0  0  0  0  0  0
    2.1079   -0.8145    1.8261 H   0  0  0  0  0  0  0  0  0  0  0  0
   -0.7461   -0.3113   -1.3308 C   0  0  0  0  0  0  0  0  0  0  0  0
   -0.6030    0.0896    0.1181 C   0  0  0  0  0  0  0  0  0  0  0  0
   -0.2884    1.5473    0.3556 C   0  0  0  0  0  0  0  0  0  0  0  0
    0.1536   -0.0560   -1.8958 H   0  0  0  0  0  0  0  0  0  0  0  0
   -1.5881    0.2084   -1.7992 H   0  0  0  0  0  0  0  0  0  0  0  0
   -0.9180   -1.3837   -1.4345 H   0  0  0  0  0  0  0  0  0  0  0  0
    0.3675   -0.5591    0.5696 H   0  0  0  0  0  0  0  0  0  0  0  0
   -1.4368   -0.2600    0.7296 H   0  0  0  0  0  0  0  0  0  0  0  0
   -1.1010    2.1866   -0.0043 H   0  0  0  0  0  0  0  0  0  0  0  0
   -0.1444    1.7582    1.4163 H   0  0  0  0  0  0  0  0  0  0  0  0
    0.6206    1.8406   -0.1749 H   0  0  0  0  0  0  0  0  0  0  0  0
  1  2  1  0
  1  3  1  0
  4  5  1  0
  4  7  1  0
  4  8  1  0
  4  9  1  0
  5  6  1  0
  5 10  1  0
  5 11  1  0
  6 12  1  0
  6 13  1  0
  6 14  1  0
M  RAD  1   1   3
M  END
>  <reaction>  (4) 
rxn_330

>  <mol_properties>  (4) 
{"0": {"label": "*3", "atom_type": "Cs"}, "1": {"label": "*4", "atom_type": "H0"}, "3": {"label": "*0", "atom_type": "Cs"}, "4": {"label": "*1", "atom_type": "Cs"}, "9": {"label": "*2", "atom_type": "H0"}}

>  <type>  (4) 
ts

$$$$

     RDKit          3D

 14 12  0  0  0  0  0  0  0  0999 V2000
    1.5701   -1.3423    0.8815 C   0  0  0  0  0  3  0  0  0  0  0  0
    2.2987   -0.8429    1.5019 H   0  0  0  0  0  0  0  0  0  0  0  0
    1.3570   -2.3100    1.3096 H   0  0  0  0  0  0  0  0  0  0  0  0
   -0.5152   -0.0395   -1.5098 C   0  0  0  0  0  0  0  0  0  0  0  0
   -0.5152   -0.0395    0.0136 C   0  0  0  0  0  3  0  0  0  0  0  0
   -0.5152    1.3663    0.6003 C   0  0  0  0  0  0  0  0  0  0  0  0
    0.3662    0.4747   -1.9004 H   0  0  0  0  0  0  0  0  0  0  0  0
   -1.3967    0.4747   -1.9004 H   0  0  0  0  0  0  0  0  0  0  0  0
   -0.5152   -1.0544   -1.9109 H   0  0  0  0  0  0  0  0  0  0  0  0
    0.5342   -0.6952    0.4504 H   0  0  0  0  0  0  0  0  0  0  0  0
   -1.3898   -0.5859    0.3776 H   0  0  0  0  0  0  0  0  0  0  0  0
   -1.3967    1.9248    0.2761 H   0  0  0  0  0  0  0  0  0  0  0  0
   -0.5152    1.3456    1.6914 H   0  0  0  0  0  0  0  0  0  0  0  0
    0.3662    1.9248    0.2761 H   0  0  0  0  0  0  0  0  0  0  0  0
  1  2  1  0
  1  3  1  0
  1 10  1  0
  4  5  1  0
  4  7  1  0
  4  8  1  0
  4  9  1  0
  5  6  1  0
  5 11  1  0
  6 12  1  0
  6 13  1  0
  6 14  1  0
M  RAD  2   1   2   5   2
M  END
>  <reaction>  (5) 
rxn_330

>  <mol_properties>  (5) 
{"0": {"label": "*3", "atom_type": "Cs"}, "1": {"label": "*4", "atom_type": "H0"}, "3": {"label": "*0", "atom_type": "Cs"}, "4": {"label": "*1", "atom_type": "Cs"}, "9": {"label": "*2", "atom_type": "H0"}}

>  <type>  (5) 
unop_1

>  <geom_source>  (5) 
Heuristics

$$$$

     RDKit          3D

 14 12  0  0  0  0  0  0  0  0999 V2000
    1.5731   -1.3480    0.8941 C   0  0  0  0  0  3  0  0  0  0  0  0
    2.4810   -1.3640    0.3103 H   0  0  0  0  0  0  0  0  0  0  0  0
    1.0070   -1.4725    1.8046 H   0  0  0  0  0  0  0  0  0  0  0  0
   -0.5122   -0.0452   -1.4972 C   0  0  0  0  0  0  0  0  0  0  0  0
   -0.5122   -0.0452    0.0261 C   0  0  0  0  0  3  0  0  0  0  0  0
   -0.5122    1.3606    0.6128 C   0  0  0  0  0  0  0  0  0  0  0  0
    0.3692    0.4690   -1.8879 H   0  0  0  0  0  0  0  0  0  0  0  0
   -1.3937    0.4690   -1.8879 H   0  0  0  0  0  0  0  0  0  0  0  0
   -0.5122   -1.0601   -1.8984 H   0  0  0  0  0  0  0  0  0  0  0  0
    0.5372   -0.7008    0.4629 H   0  0  0  0  0  0  0  0  0  0  0  0
   -1.3867   -0.5916    0.3901 H   0  0  0  0  0  0  0  0  0  0  0  0
   -1.3937    1.9192    0.2887 H   0  0  0  0  0  0  0  0  0  0  0  0
   -0.5122    1.3399    1.7039 H   0  0  0  0  0  0  0  0  0  0  0  0
    0.3692    1.9192    0.2887 H   0  0  0  0  0  0  0  0  0  0  0  0
  1  2  1  0
  1  3  1  0
  1 10  1  0
  4  5  1  0
  4  7  1  0
  4  8  1  0
  4  9  1  0
  5  6  1  0
  5 11  1  0
  6 12  1  0
  6 13  1  0
  6 14  1  0
M  RAD  2   1   2   5   2
M  END
>  <reaction>  (6) 
rxn_330

>  <mol_properties>  (6) 
{"0": {"label": "*3", "atom_type": "Cs"}, "1": {"label": "*4", "atom_type": "H0"}, "3": {"label": "*0", "atom_type": "Cs"}, "4": {"label": "*1", "atom_type": "Cs"}, "9": {"label": "*2", "atom_type": "H0"}}

>  <type>  (6) 
unop_2

>  <geom_source>  (6) 
Heuristics

$$$$

     RDKit          3D

 14 12  0  0  0  0  0  0  0  0999 V2000
    1.5677   -1.3370    0.8804 C   0  0  0  0  0  3  0  0  0  0  0  0
    2.0184   -1.0674    1.8234 H   0  0  0  0  0  0  0  0  0  0  0  0
    1.7727   -2.3827    1.0524 H   0  0  0  0  0  0  0  0  0  0  0  0
   -0.5177   -0.0342   -1.5109 C   0  0  0  0  0  0  0  0  0  0  0  0
   -0.5177   -0.0342    0.0124 C   0  0  0  0  0  3  0  0  0  0  0  0
   -0.5177    1.3716    0.5991 C   0  0  0  0  0  0  0  0  0  0  0  0
    0.3638    0.4801   -1.9016 H   0  0  0  0  0  0  0  0  0  0  0  0
   -1.3991    0.4801   -1.9016 H   0  0  0  0  0  0  0  0  0  0  0  0
   -0.5177   -1.0491   -1.9121 H   0  0  0  0  0  0  0  0  0  0  0  0
    0.5318   -0.6898    0.4492 H   0  0  0  0  0  0  0  0  0  0  0  0
   -1.3922   -0.5805    0.3764 H   0  0  0  0  0  0  0  0  0  0  0  0
   -1.3991    1.9302    0.2750 H   0  0  0  0  0  0  0  0  0  0  0  0
   -0.5177    1.3509    1.6902 H   0  0  0  0  0  0  0  0  0  0  0  0
    0.3638    1.9302    0.2750 H   0  0  0  0  0  0  0  0  0  0  0  0
  1  2  1  0
  1  3  1  0
  1 10  1  0
  4  5  1  0
  4  7  1  0
  4  8  1  0
  4  9  1  0
  5  6  1  0
  5 11  1  0
  6 12  1  0
  6 13  1  0
  6 14  1  0
M  RAD  2   1   2   5   2
M  END
>  <reaction>  (7) 
rxn_330

>  <mol_properties>  (7) 
{"0": {"label": "*3", "atom_type": "Cs"}, "1": {"label": "*4", "atom_type": "H0"}, "3": {"label": "*0", "atom_type": "Cs"}, "4": {"label": "*1", "atom_type": "Cs"}, "9": {"label": "*2", "atom_type": "H0"}}

>  <type>  (7) 
unop_3

>  <geom_source>  (7) 
Heuristics

$$$$

     RDKit          3D

 14 12  0  0  0  0  0  0  0  0999 V2000
    1.5735   -1.3449    0.8906 C   0  0  0  0  0  3  0  0  0  0  0  0
    1.7081   -2.3835    0.6295 H   0  0  0  0  0  0  0  0  0  0  0  0
    1.7614   -0.6284    1.6758 H   0  0  0  0  0  0  0  0  0  0  0  0
   -0.5119   -0.0421   -1.5007 C   0  0  0  0  0  0  0  0  0  0  0  0
   -0.5119   -0.0421    0.0227 C   0  0  0  0  0  3  0  0  0  0  0  0
   -0.5119    1.3637    0.6094 C   0  0  0  0  0  0  0  0  0  0  0  0
    0.3696    0.4722   -1.8913 H   0  0  0  0  0  0  0  0  0  0  0  0
   -1.3933    0.4722   -1.8913 H   0  0  0  0  0  0  0  0  0  0  0  0
   -0.5119   -1.0570   -1.9018 H   0  0  0  0  0  0  0  0  0  0  0  0
    0.5376   -0.6977    0.4595 H   0  0  0  0  0  0  0  0  0  0  0  0
   -1.3864   -0.5884    0.3867 H   0  0  0  0  0  0  0  0  0  0  0  0
   -1.3933    1.9223    0.2852 H   0  0  0  0  0  0  0  0  0  0  0  0
   -0.5119    1.3431    1.7005 H   0  0  0  0  0  0  0  0  0  0  0  0
    0.3696    1.9223    0.2852 H   0  0  0  0  0  0  0  0  0  0  0  0
  1  2  1  0
  1  3  1  0
  1 10  1  0
  4  5  1  0
  4  7  1  0
  4  8  1  0
  4  9  1  0
  5  6  1  0
  5 11  1  0
  6 12  1  0
  6 13  1  0
  6 14  1  0
M  RAD  2   1   2   5   2
M  END
>  <reaction>  (8) 
rxn_330

>  <mol_properties>  (8) 
{"0": {"label": "*3", "atom_type": "Cs"}, "1": {"label": "*4", "atom_type": "H0"}, "3": {"label": "*0", "atom_type": "Cs"}, "4": {"label": "*1", "atom_type": "Cs"}, "9": {"label": "*2", "atom_type": "H0"}}

>  <type>  (8) 
unop_4

>  <geom_source>  (8) 
Heuristics

$$$$

     RDKit          3D

 14 12  0  0  0  0  0  0  0  0999 V2000
    1.5603   -1.3387    0.8823 C   0  0  0  0  0  3  0  0  0  0  0  0
    1.7280   -1.4435    1.9434 H   0  0  0  0  0  0  0  0  0  0  0  0
    2.4746   -1.9099    0.8279 H   0  0  0  0  0  0  0  0  0  0  0  0
   -0.5251   -0.0359   -1.5090 C   0  0  0  0  0  0  0  0  0  0  0  0
   -0.5251   -0.0359    0.0143 C   0  0  0  0  0  3  0  0  0  0  0  0
   -0.5251    1.3699    0.6010 C   0  0  0  0  0  0  0  0  0  0  0  0
    0.3564    0.4783   -1.8997 H   0  0  0  0  0  0  0  0  0  0  0  0
   -1.4065    0.4783   -1.8997 H   0  0  0  0  0  0  0  0  0  0  0  0
   -0.5251   -1.0508   -1.9102 H   0  0  0  0  0  0  0  0  0  0  0  0
    0.5244   -0.6916    0.4511 H   0  0  0  0  0  0  0  0  0  0  0  0
   -1.3996   -0.5823    0.3783 H   0  0  0  0  0  0  0  0  0  0  0  0
   -1.4065    1.9284    0.2769 H   0  0  0  0  0  0  0  0  0  0  0  0
   -0.5251    1.3492    1.6921 H   0  0  0  0  0  0  0  0  0  0  0  0
    0.3564    1.9284    0.2769 H   0  0  0  0  0  0  0  0  0  0  0  0
  1  2  1  0
  1  3  1  0
  1 10  1  0
  4  5  1  0
  4  7  1  0
  4  8  1  0
  4  9  1  0
  5  6  1  0
  5 11  1  0
  6 12  1  0
  6 13  1  0
  6 14  1  0
M  RAD  2   1   2   5   2
M  END
>  <reaction>  (9) 
rxn_330

>  <mol_properties>  (9) 
{"0": {"label": "*3", "atom_type": "Cs"}, "1": {"label": "*4", "atom_type": "H0"}, "3": {"label": "*0", "atom_type": "Cs"}, "4": {"label": "*1", "atom_type": "Cs"}, "9": {"label": "*2", "atom_type": "H0"}}

>  <type>  (9) 
unop_5

>  <geom_source>  (9) 
Heuristics

$$$$

     RDKit          3D

 14 12  0  0  0  0  0  0  0  0999 V2000
    1.5716   -1.3447    0.8858 C   0  0  0  0  0  3  0  0  0  0  0  0
    1.5079   -2.4072    1.0655 H   0  0  0  0  0  0  0  0  0  0  0  0
    2.0657   -0.6139    1.5079 H   0  0  0  0  0  0  0  0  0  0  0  0
   -0.5137   -0.0419   -1.5055 C   0  0  0  0  0  0  0  0  0  0  0  0
   -0.5137   -0.0419    0.0178 C   0  0  0  0  0  3  0  0  0  0  0  0
   -0.5137    1.3639    0.6046 C   0  0  0  0  0  0  0  0  0  0  0  0
    0.3677    0.4724   -1.8961 H   0  0  0  0  0  0  0  0  0  0  0  0
   -1.3952    0.4724   -1.8961 H   0  0  0  0  0  0  0  0  0  0  0  0
   -0.5137   -1.0568   -1.9066 H   0  0  0  0  0  0  0  0  0  0  0  0
    0.5357   -0.6975    0.4546 H   0  0  0  0  0  0  0  0  0  0  0  0
   -1.3883   -0.5883    0.3818 H   0  0  0  0  0  0  0  0  0  0  0  0
   -1.3952    1.9225    0.2804 H   0  0  0  0  0  0  0  0  0  0  0  0
   -0.5137    1.3432    1.6957 H   0  0  0  0  0  0  0  0  0  0  0  0
    0.3677    1.9225    0.2804 H   0  0  0  0  0  0  0  0  0  0  0  0
  1  2  1  0
  1  3  1  0
  1 10  1  0
  4  5  1  0
  4  7  1  0
  4  8  1  0
  4  9  1  0
  5  6  1  0
  5 11  1  0
  6 12  1  0
  6 13  1  0
  6 14  1  0
M  RAD  2   1   2   5   2
M  END
>  <reaction>  (10) 
rxn_330

>  <mol_properties>  (10) 
{"0": {"label": "*3", "atom_type": "Cs"}, "1": {"label": "*4", "atom_type": "H0"}, "3": {"label": "*0", "atom_type": "Cs"}, "4": {"label": "*1", "atom_type": "Cs"}, "9": {"label": "*2", "atom_type": "H0"}}

>  <type>  (10) 
unop_6

>  <geom_source>  (10) 
Heuristics

$$$$

     RDKit          3D

 14 12  0  0  0  0  0  0  0  0999 V2000
    1.5678   -1.3460    0.8815 C   0  0  0  0  0  3  0  0  0  0  0  0
    1.4386   -2.2198    1.5019 H   0  0  0  0  0  0  0  0  0  0  0  0
    2.3441   -0.7300    1.3096 H   0  0  0  0  0  0  0  0  0  0  0  0
   -0.5175   -0.0432   -1.5098 C   0  0  0  0  0  0  0  0  0  0  0  0
   -0.5175   -0.0432    0.0136 C   0  0  0  0  0  3  0  0  0  0  0  0
   -0.5175    1.3626    0.6003 C   0  0  0  0  0  0  0  0  0  0  0  0
    0.3639    0.4711   -1.9004 H   0  0  0  0  0  0  0  0  0  0  0  0
   -1.3990    0.4711   -1.9004 H   0  0  0  0  0  0  0  0  0  0  0  0
   -0.5175   -1.0581   -1.9109 H   0  0  0  0  0  0  0  0  0  0  0  0
    0.5319   -0.6988    0.4504 H   0  0  0  0  0  0  0  0  0  0  0  0
   -1.3920   -0.5895    0.3776 H   0  0  0  0  0  0  0  0  0  0  0  0
   -1.3990    1.9212    0.2761 H   0  0  0  0  0  0  0  0  0  0  0  0
   -0.5175    1.3419    1.6914 H   0  0  0  0  0  0  0  0  0  0  0  0
    0.3640    1.9212    0.2761 H   0  0  0  0  0  0  0  0  0  0  0  0
  1  2  1  0
  1  3  1  0
  1 10  1  0
  4  5  1  0
  4  7  1  0
  4  8  1  0
  4  9  1  0
  5  6  1  0
  5 11  1  0
  6 12  1  0
  6 13  1  0
  6 14  1  0
M  RAD  2   1   2   5   2
M  END
>  <reaction>  (11) 
rxn_330

>  <mol_properties>  (11) 
{"0": {"label": "*3", "atom_type": "Cs"}, "1": {"label": "*4", "atom_type": "H0"}, "3": {"label": "*0", "atom_type": "Cs"}, "4": {"label": "*1", "atom_type": "Cs"}, "9": {"label": "*2", "atom_type": "H0"}}

>  <type>  (11) 
unop_7

>  <geom_source>  (11) 
Heuristics

$$$$

     RDKit          3D

 14 12  0  0  0  0  0  0  0  0999 V2000
    1.5706   -1.3463    0.8858 C   0  0  0  0  0  3  0  0  0  0  0  0
    2.4975   -0.8231    1.0655 H   0  0  0  0  0  0  0  0  0  0  0  0
    1.1306   -2.1108    1.5079 H   0  0  0  0  0  0  0  0  0  0  0  0
   -0.5147   -0.0435   -1.5055 C   0  0  0  0  0  0  0  0  0  0  0  0
   -0.5147   -0.0435    0.0178 C   0  0  0  0  0  3  0  0  0  0  0  0
   -0.5147    1.3623    0.6046 C   0  0  0  0  0  0  0  0  0  0  0  0
    0.3667    0.4708   -1.8961 H   0  0  0  0  0  0  0  0  0  0  0  0
   -1.3962    0.4708   -1.8961 H   0  0  0  0  0  0  0  0  0  0  0  0
   -0.5147   -1.0584   -1.9066 H   0  0  0  0  0  0  0  0  0  0  0  0
    0.5347   -0.6991    0.4546 H   0  0  0  0  0  0  0  0  0  0  0  0
   -1.3893   -0.5898    0.3818 H   0  0  0  0  0  0  0  0  0  0  0  0
   -1.3962    1.9209    0.2804 H   0  0  0  0  0  0  0  0  0  0  0  0
   -0.5147    1.3417    1.6957 H   0  0  0  0  0  0  0  0  0  0  0  0
    0.3667    1.9209    0.2804 H   0  0  0  0  0  0  0  0  0  0  0  0
  1  2  1  0
  1  3  1  0
  1 10  1  0
  4  5  1  0
  4  7  1  0
  4  8  1  0
  4  9  1  0
  5  6  1  0
  5 11  1  0
  6 12  1  0
  6 13  1  0
  6 14  1  0
M  RAD  2   1   2   5   2
M  END
>  <reaction>  (12) 
rxn_330

>  <mol_properties>  (12) 
{"0": {"label": "*3", "atom_type": "Cs"}, "1": {"label": "*4", "atom_type": "H0"}, "3": {"label": "*0", "atom_type": "Cs"}, "4": {"label": "*1", "atom_type": "Cs"}, "9": {"label": "*2", "atom_type": "H0"}}

>  <type>  (12) 
unop_8

>  <geom_source>  (12) 
Heuristics

$$$$

     RDKit          3D

 14 12  0  0  0  0  0  0  0  0999 V2000
    1.5743   -1.3462    0.8941 C   0  0  0  0  0  3  0  0  0  0  0  0
    1.9868   -2.1550    0.3103 H   0  0  0  0  0  0  0  0  0  0  0  0
    1.4379   -0.7828    1.8046 H   0  0  0  0  0  0  0  0  0  0  0  0
   -0.5111   -0.0434   -1.4972 C   0  0  0  0  0  0  0  0  0  0  0  0
   -0.5111   -0.0434    0.0261 C   0  0  0  0  0  3  0  0  0  0  0  0
   -0.5111    1.3624    0.6128 C   0  0  0  0  0  0  0  0  0  0  0  0
    0.3704    0.4709   -1.8879 H   0  0  0  0  0  0  0  0  0  0  0  0
   -1.3925    0.4709   -1.8879 H   0  0  0  0  0  0  0  0  0  0  0  0
   -0.5111   -1.0583   -1.8984 H   0  0  0  0  0  0  0  0  0  0  0  0
    0.5384   -0.6990    0.4629 H   0  0  0  0  0  0  0  0  0  0  0  0
   -1.3856   -0.5898    0.3901 H   0  0  0  0  0  0  0  0  0  0  0  0
   -1.3925    1.9210    0.2887 H   0  0  0  0  0  0  0  0  0  0  0  0
   -0.5111    1.3417    1.7039 H   0  0  0  0  0  0  0  0  0  0  0  0
    0.3704    1.9210    0.2887 H   0  0  0  0  0  0  0  0  0  0  0  0
  1  2  1  0
  1  3  1  0
  1 10  1  0
  4  5  1  0
  4  7  1  0
  4  8  1  0
  4  9  1  0
  5  6  1  0
  5 11  1  0
  6 12  1  0
  6 13  1  0
  6 14  1  0
M  RAD  2   1   2   5   2
M  END
>  <reaction>  (13) 
rxn_330

>  <mol_properties>  (13) 
{"0": {"label": "*3", "atom_type": "Cs"}, "1": {"label": "*4", "atom_type": "H0"}, "3": {"label": "*0", "atom_type": "Cs"}, "4": {"label": "*1", "atom_type": "Cs"}, "9": {"label": "*2", "atom_type": "H0"}}

>  <type>  (13) 
unop_9

>  <geom_source>  (13) 
Heuristics

$$$$

     RDKit          3D

 14 12  0  0  0  0  0  0  0  0999 V2000
    1.5716   -1.3479    0.8906 C   0  0  0  0  0  3  0  0  0  0  0  0
    2.5641   -1.0134    0.6295 H   0  0  0  0  0  0  0  0  0  0  0  0
    1.0101   -1.8309    1.6758 H   0  0  0  0  0  0  0  0  0  0  0  0
   -0.5138   -0.0451   -1.5007 C   0  0  0  0  0  0  0  0  0  0  0  0
   -0.5138   -0.0451    0.0227 C   0  0  0  0  0  3  0  0  0  0  0  0
   -0.5138    1.3607    0.6094 C   0  0  0  0  0  0  0  0  0  0  0  0
    0.3677    0.4692   -1.8913 H   0  0  0  0  0  0  0  0  0  0  0  0
   -1.3952    0.4692   -1.8913 H   0  0  0  0  0  0  0  0  0  0  0  0
   -0.5138   -1.0600   -1.9018 H   0  0  0  0  0  0  0  0  0  0  0  0
    0.5357   -0.7007    0.4595 H   0  0  0  0  0  0  0  0  0  0  0  0
   -1.3883   -0.5914    0.3867 H   0  0  0  0  0  0  0  0  0  0  0  0
   -1.3952    1.9193    0.2852 H   0  0  0  0  0  0  0  0  0  0  0  0
   -0.5138    1.3400    1.7005 H   0  0  0  0  0  0  0  0  0  0  0  0
    0.3677    1.9193    0.2852 H   0  0  0  0  0  0  0  0  0  0  0  0
  1  2  1  0
  1  3  1  0
  1 10  1  0
  4  5  1  0
  4  7  1  0
  4  8  1  0
  4  9  1  0
  5  6  1  0
  5 11  1  0
  6 12  1  0
  6 13  1  0
  6 14  1  0
M  RAD  2   1   2   5   2
M  END
>  <reaction>  (14) 
rxn_330

>  <mol_properties>  (14) 
{"0": {"label": "*3", "atom_type": "Cs"}, "1": {"label": "*4", "atom_type": "H0"}, "3": {"label": "*0", "atom_type": "Cs"}, "4": {"label": "*1", "atom_type": "Cs"}, "9": {"label": "*2", "atom_type": "H0"}}

>  <type>  (14) 
unop_10

>  <geom_source>  (14) 
Heuristics

$$$$

     RDKit          3D

 14 12  0  0  0  0  0  0  0  0999 V2000
    1.5620   -1.3461    0.8804 C   0  0  0  0  0  3  0  0  0  0  0  0
    1.5174   -1.8694    1.8234 H   0  0  0  0  0  0  0  0  0  0  0  0
    2.5917   -1.0718    1.0524 H   0  0  0  0  0  0  0  0  0  0  0  0
   -0.5234   -0.0433   -1.5109 C   0  0  0  0  0  0  0  0  0  0  0  0
   -0.5234   -0.0433    0.0124 C   0  0  0  0  0  3  0  0  0  0  0  0
   -0.5234    1.3625    0.5991 C   0  0  0  0  0  0  0  0  0  0  0  0
    0.3581    0.4709   -1.9016 H   0  0  0  0  0  0  0  0  0  0  0  0
   -1.4048    0.4709   -1.9016 H   0  0  0  0  0  0  0  0  0  0  0  0
   -0.5234   -1.0582   -1.9121 H   0  0  0  0  0  0  0  0  0  0  0  0
    0.5261   -0.6990    0.4492 H   0  0  0  0  0  0  0  0  0  0  0  0
   -1.3979   -0.5897    0.3764 H   0  0  0  0  0  0  0  0  0  0  0  0
   -1.4048    1.9210    0.2750 H   0  0  0  0  0  0  0  0  0  0  0  0
   -0.5234    1.3418    1.6902 H   0  0  0  0  0  0  0  0  0  0  0  0
    0.3581    1.9210    0.2750 H   0  0  0  0  0  0  0  0  0  0  0  0
  1  2  1  0
  1  3  1  0
  1 10  1  0
  4  5  1  0
  4  7  1  0
  4  8  1  0
  4  9  1  0
  5  6  1  0
  5 11  1  0
  6 12  1  0
  6 13  1  0
  6 14  1  0
M  RAD  2   1   2   5   2
M  END
>  <reaction>  (15) 
rxn_330

>  <mol_properties>  (15) 
{"0": {"label": "*3", "atom_type": "Cs"}, "1": {"label": "*4", "atom_type": "H0"}, "3": {"label": "*0", "atom_type": "Cs"}, "4": {"label": "*1", "atom_type": "Cs"}, "9": {"label": "*2", "atom_type": "H0"}}

>  <type>  (15) 
unop_11

>  <geom_source>  (15) 
Heuristics

$$$$

     RDKit          3D

 14 12  0  0  0  0  0  0  0  0999 V2000
    1.5742   -1.3474    0.8952 C   0  0  0  0  0  3  0  0  0  0  0  0
    2.2698   -1.7820    0.1934 H   0  0  0  0  0  0  0  0  0  0  0  0
    1.1570   -1.0868    1.8561 H   0  0  0  0  0  0  0  0  0  0  0  0
   -0.5111   -0.0446   -1.4961 C   0  0  0  0  0  0  0  0  0  0  0  0
   -0.5111   -0.0446    0.0273 C   0  0  0  0  0  3  0  0  0  0  0  0
   -0.5111    1.3612    0.6140 C   0  0  0  0  0  0  0  0  0  0  0  0
    0.3703    0.4696   -1.8867 H   0  0  0  0  0  0  0  0  0  0  0  0
   -1.3926    0.4696   -1.8867 H   0  0  0  0  0  0  0  0  0  0  0  0
   -0.5111   -1.0595   -1.8972 H   0  0  0  0  0  0  0  0  0  0  0  0
    0.5383   -0.7003    0.4641 H   0  0  0  0  0  0  0  0  0  0  0  0
   -1.3856   -0.5910    0.3913 H   0  0  0  0  0  0  0  0  0  0  0  0
   -1.3926    1.9197    0.2898 H   0  0  0  0  0  0  0  0  0  0  0  0
   -0.5111    1.3405    1.7051 H   0  0  0  0  0  0  0  0  0  0  0  0
    0.3703    1.9197    0.2898 H   0  0  0  0  0  0  0  0  0  0  0  0
  1  2  1  0
  1  3  1  0
  1 10  1  0
  4  5  1  0
  4  7  1  0
  4  8  1  0
  4  9  1  0
  5  6  1  0
  5 11  1  0
  6 12  1  0
  6 13  1  0
  6 14  1  0
M  RAD  2   1   2   5   2
M  END
>  <reaction>  (16) 
rxn_330

>  <mol_properties>  (16) 
{"0": {"label": "*3", "atom_type": "Cs"}, "1": {"label": "*4", "atom_type": "H0"}, "3": {"label": "*0", "atom_type": "Cs"}, "4": {"label": "*1", "atom_type": "Cs"}, "9": {"label": "*2", "atom_type": "H0"}}

>  <type>  (16) 
unop_12

>  <geom_source>  (16) 
Heuristics

$$$$

     RDKit          3D

 14 12  0  0  0  0  0  0  0  0999 V2000
   -0.5920   -1.1055    0.3521 C   0  0  0  0  0  0  0  0  0  0  0  0
   -1.1728    1.2933   -0.1627 C   0  0  0  0  0  0  0  0  0  0  0  0
   -0.2744    0.1119   -0.5073 C   0  0  0  0  0  3  0  0  0  0  0  0
    2.1788   -0.4192   -0.0417 C   0  0  0  0  0  3  0  0  0  0  0  0
    0.0938   -1.9349    0.0810 H   0  0  0  0  0  0  0  0  0  0  0  0
   -0.4482   -0.8633    1.4262 H   0  0  0  0  0  0  0  0  0  0  0  0
   -1.6393   -1.4354    0.1835 H   0  0  0  0  0  0  0  0  0  0  0  0
   -1.0391    1.5775    0.9024 H   0  0  0  0  0  0  0  0  0  0  0  0
   -0.8978    2.1607   -0.7980 H   0  0  0  0  0  0  0  0  0  0  0  0
   -2.2377    1.0361   -0.3469 H   0  0  0  0  0  0  0  0  0  0  0  0
   -0.3853   -0.1457   -1.5827 H   0  0  0  0  0  0  0  0  0  0  0  0
    2.2856   -0.7151    1.0221 H   0  0  0  0  0  0  0  0  0  0  0  0
    3.0293    0.2313   -0.3318 H   0  0  0  0  0  0  0  0  0  0  0  0
    1.0991    0.2083   -0.1961 H   0  0  0  0  0  0  0  0  0  0  0  0
  1  3  1  0
  1  5  1  0
  1  6  1  0
  1  7  1  0
  2  3  1  0
  2  8  1  0
  2  9  1  0
  2 10  1  0
  3 11  1  0
  4 12  1  0
  4 13  1  0
  4 14  1  0
M  RAD  2   3   2   4   2
M  END
>  <reaction>  (17) 
rxn_330

>  <mol_properties>  (17) 
{"0": {"label": "*3", "atom_type": "Cs"}, "1": {"label": "*4", "atom_type": "H0"}, "3": {"label": "*0", "atom_type": "Cs"}, "4": {"label": "*1", "atom_type": "Cs"}, "9": {"label": "*2", "atom_type": "H0"}}

>  <type>  (17) 
unop_13

>  <geom_source>  (17) 
AutoTST

$$$$
