
     RDKit          3D

  5  4  0  0  0  0  0  0  0  0999 V2000
    0.0000    0.0000    0.0000 C   0  0  0  0  0  0  0  0  0  0  0  0
   -0.6486   -0.7720   -0.4113 H   0  0  0  0  0  0  0  0  0  0  0  0
   -0.3482    0.9787   -0.3267 H   0  0  0  0  0  0  0  0  0  0  0  0
   -0.0223   -0.0487    1.0876 H   0  0  0  0  0  0  0  0  0  0  0  0
    1.0191   -0.1580   -0.3496 H   0  0  0  0  0  0  0  0  0  0  0  0
  1  2  1  0
  1  3  1  0
  1  4  1  0
  1  5  1  0
M  END
>  <reaction>  (1) 
rxn_315

>  <mol_properties>  (1) 
{"0": {"label": "donator", "atom_type": "Cs"}, "1": {"label": "d_hydrogen", "atom_type": "H0"}}

>  <type>  (1) 
r1h

$$$$

     RDKit          3D

 10  9  0  0  0  0  0  0  0  0999 V2000
    1.2930    0.1441    0.3288 C   0  0  0  0  0  0  0  0  0  0  0  0
   -0.0374   -0.1647    0.9100 C   0  0  0  0  0  3  0  0  0  0  0  0
   -1.2664    0.4569    0.3567 C   0  0  0  0  0  0  0  0  0  0  0  0
    1.4384    1.2242    0.2174 H   0  0  0  0  0  0  0  0  0  0  0  0
    2.1077   -0.2477    0.9385 H   0  0  0  0  0  0  0  0  0  0  0  0
    1.4057   -0.2836   -0.6789 H   0  0  0  0  0  0  0  0  0  0  0  0
   -0.1309   -0.9912    1.6030 H   0  0  0  0  0  0  0  0  0  0  0  0
   -1.5005    0.0716   -0.6471 H   0  0  0  0  0  0  0  0  0  0  0  0
   -2.1382    0.2713    0.9849 H   0  0  0  0  0  0  0  0  0  0  0  0
   -1.1497    1.5406    0.2456 H   0  0  0  0  0  0  0  0  0  0  0  0
  1  2  1  0
  1  4  1  0
  1  5  1  0
  1  6  1  0
  2  3  1  0
  2  7  1  0
  3  8  1  0
  3  9  1  0
  3 10  1  0
M  RAD  1   2   2
M  END
>  <reaction>  (2) 
rxn_315

>  <mol_properties>  (2) 
{"1": {"label": "acceptor", "atom_type": "Cs"}}

>  <type>  (2) 
r2

$$$$

     RDKit          3D

 11 10  0  0  0  0  0  0  0  0999 V2000
   -1.2710    0.1907   -0.2084 C   0  0  0  0  0  0  0  0  0  0  0  0
    0.0202   -0.6130   -0.2928 C   0  0  0  0  0  0  0  0  0  0  0  0
    0.1086   -1.6953    0.7756 C   0  0  0  0  0  0  0  0  0  0  0  0
   -1.3607    0.6851    0.7620 H   0  0  0  0  0  0  0  0  0  0  0  0
   -2.1429   -0.4567   -0.3299 H   0  0  0  0  0  0  0  0  0  0  0  0
   -1.3158    0.9602   -0.9809 H   0  0  0  0  0  0  0  0  0  0  0  0
    0.8757    0.0616   -0.1992 H   0  0  0  0  0  0  0  0  0  0  0  0
    0.0997   -1.0712   -1.2825 H   0  0  0  0  0  0  0  0  0  0  0  0
   -0.7198   -2.4022    0.6850 H   0  0  0  0  0  0  0  0  0  0  0  0
    1.0395   -2.2596    0.6989 H   0  0  0  0  0  0  0  0  0  0  0  0
    0.0624   -1.2603    1.7770 H   0  0  0  0  0  0  0  0  0  0  0  0
  1  2  1  0
  1  4  1  0
  1  5  1  0
  1  6  1  0
  2  3  1  0
  2  7  1  0
  2  8  1  0
  3  9  1  0
  3 10  1  0
  3 11  1  0
M  END
>  <reaction>  (3) 
rxn_315

>  <mol_properties>  (3) 
{"1": {"label": "acceptor", "atom_type": "Cs"}, "10": {"label": "a_hydrogen", "atom_type": "H0"}}

>  <type>  (3) 
r2h

$$$$

     RDKit          3D

 15 13  0  0  0  0  0  0  0  0999 V2000
   -1.3824    0.6922    0.4352 C   0  0  0  0  0  0  0  0  0  0  0  0
    0.0267    0.1933    0.6363 C   0  0  0  0  0  0  0  0  0  0  0  0
    1.1167    1.0959    0.1147 C   0  0  0  0  0  0  0  0  0  0  0  0
   -1.5765    0.8945   -0.6214 H   0  0  0  0  0  0  0  0  0  0  0  0
   -2.1183   -0.0366    0.7791 H   0  0  0  0  0  0  0  0  0  0  0  0
   -1.5557    1.6243    0.9835 H   0  0  0  0  0  0  0  0  0  0  0  0
    0.2121   -0.1438    1.6575 H   0  0  0  0  0  0  0  0  0  0  0  0
    1.1220    2.0568    0.6400 H   0  0  0  0  0  0  0  0  0  0  0  0
    2.1030    0.6452    0.2376 H   0  0  0  0  0  0  0  0  0  0  0  0
    0.9723    1.3061   -0.9483 H   0  0  0  0  0  0  0  0  0  0  0  0
    0.1940   -2.0330   -0.8626 C   0  0  0  0  0  3  0  0  0  0  0  0
    0.1154   -0.8999   -0.0485 H   0  0  0  0  0  0  0  0  0  0  0  0
    1.2025   -2.4085   -0.7173 H   0  0  0  0  0  0  0  0  0  0  0  0
   -0.5800   -2.6964   -0.4886 H   0  0  0  0  0  0  0  0  0  0  0  0
    0.0053   -1.6614   -1.8656 H   0  0  0  0  0  0  0  0  0  0  0  0
  1  2  1  0
  1  4  1  0
  1  5  1  0
  1  6  1  0
  2  3  1  0
  2  7  1  0
  2 12  1  0
  3  8  1  0
  3  9  1  0
  3 10  1  0
 11 13  1  0
 11 14  1  0
 11 15  1  0
M  RAD  1  11   2
M  END
>  <reaction>  (4) 
rxn_315

>  <mol_properties>  (4) 
{"0": {"label": "*0", "atom_type": "Cs"}, "1": {"label": "*1", "atom_type": "Cs"}, "10": {"label": "*3", "atom_type": "Cs"}, "11": {"label": "*2", "atom_type": "H0"}, "12": {"label": "*4", "atom_type": "H0"}}

>  <type>  (4) 
ts

$$$$

     RDKit          3D

 15 13  0  0  0  0  0  0  0  0999 V2000
   -1.0929    0.5040    0.9769 C   0  0  0  0  0  0  0  0  0  0  0  0
    0.1511    0.2653    0.1307 C   0  0  0  0  0  3  0  0  0  0  0  0
    0.7840    1.5609   -0.3606 C   0  0  0  0  0  0  0  0  0  0  0  0
   -1.8552    1.0416    0.4078 H   0  0  0  0  0  0  0  0  0  0  0  0
   -1.5315   -0.4349    1.3191 H   0  0  0  0  0  0  0  0  0  0  0  0
   -0.8561    1.1039    1.8589 H   0  0  0  0  0  0  0  0  0  0  0  0
    0.8842   -0.3001    0.7126 H   0  0  0  0  0  0  0  0  0  0  0  0
    1.0799    2.1942    0.4793 H   0  0  0  0  0  0  0  0  0  0  0  0
    1.6727    1.3696   -0.9643 H   0  0  0  0  0  0  0  0  0  0  0  0
    0.0808    2.1319   -0.9719 H   0  0  0  0  0  0  0  0  0  0  0  0
    0.1511   -2.2039   -0.7423 C   0  0  0  0  0  0  0  0  0  0  0  0
    0.1511   -0.9719   -0.3067 H   0  0  0  0  0  0  0  0  0  0  0  0
    1.0402   -2.7172   -0.3793 H   0  0  0  0  0  0  0  0  0  0  0  0
   -0.7380   -2.7172   -0.3793 H   0  0  0  0  0  0  0  0  0  0  0  0
    0.1511   -2.2039   -1.8312 H   0  0  0  0  0  0  0  0  0  0  0  0
  1  2  1  0
  1  4  1  0
  1  5  1  0
  1  6  1  0
  2  3  1  0
  2  7  1  0
  3  8  1  0
  3  9  1  0
  3 10  1  0
 11 12  1  0
 11 13  1  0
 11 14  1  0
 11 15  1  0
M  RAD  1   2   2
M  END
>  <reaction>  (5) 
rxn_315

>  <mol_properties>  (5) 
{"0": {"label": "*0", "atom_type": "Cs"}, "1": {"label": "*1", "atom_type": "Cs"}, "10": {"label": "*3", "atom_type": "Cs"}, "11": {"label": "*2", "atom_type": "H0"}, "12": {"label": "*4", "atom_type": "H0"}}

>  <type>  (5) 
unop_1

>  <geom_source>  (5) 
Heuristics

$$$$

     RDKit          3D

 15 13  0  0  0  0  0  0  0  0999 V2000
   -0.8452    1.1476   -0.6723 C   0  0  0  0  0  0  0  0  0  0  0  0
   -0.1270    0.2548    0.3315 C   0  0  0  0  0  3  0  0  0  0  0  0
    1.1095    0.9168    0.9259 C   0  0  0  0  0  0  0  0  0  0  0  0
   -0.1863    1.4092   -1.5038 H   0  0  0  0  0  0  0  0  0  0  0  0
   -1.7274    0.6565   -1.0866 H   0  0  0  0  0  0  0  0  0  0  0  0
   -1.1702    2.0796   -0.2037 H   0  0  0  0  0  0  0  0  0  0  0  0
   -0.8165   -0.0169    1.1356 H   0  0  0  0  0  0  0  0  0  0  0  0
    0.8462    1.8416    1.4449 H   0  0  0  0  0  0  0  0  0  0  0  0
    1.6098    0.2626    1.6419 H   0  0  0  0  0  0  0  0  0  0  0  0
    1.8300    1.1712    0.1448 H   0  0  0  0  0  0  0  0  0  0  0  0
   -0.1270   -2.2144   -0.5414 C   0  0  0  0  0  0  0  0  0  0  0  0
   -0.1270   -0.9824   -0.1059 H   0  0  0  0  0  0  0  0  0  0  0  0
    0.7621   -2.7277   -0.1785 H   0  0  0  0  0  0  0  0  0  0  0  0
   -1.0161   -2.7277   -0.1785 H   0  0  0  0  0  0  0  0  0  0  0  0
   -0.1270   -2.2144   -1.6304 H   0  0  0  0  0  0  0  0  0  0  0  0
  1  2  1  0
  1  4  1  0
  1  5  1  0
  1  6  1  0
  2  3  1  0
  2  7  1  0
  3  8  1  0
  3  9  1  0
  3 10  1  0
 11 12  1  0
 11 13  1  0
 11 14  1  0
 11 15  1  0
M  RAD  1   2   2
M  END
>  <reaction>  (6) 
rxn_315

>  <mol_properties>  (6) 
{"0": {"label": "*0", "atom_type": "Cs"}, "1": {"label": "*1", "atom_type": "Cs"}, "10": {"label": "*3", "atom_type": "Cs"}, "11": {"label": "*2", "atom_type": "H0"}, "12": {"label": "*4", "atom_type": "H0"}}

>  <type>  (6) 
unop_2

>  <geom_source>  (6) 
Heuristics

$$$$

     RDKit          3D

 15 13  0  0  0  0  0  0  0  0999 V2000
   -0.5081    0.3712    1.4293 C   0  0  0  0  0  0  0  0  0  0  0  0
    0.2101    0.3078    0.0874 C   0  0  0  0  0  3  0  0  0  0  0  0
    0.0760    1.5979   -0.7114 C   0  0  0  0  0  0  0  0  0  0  0  0
   -1.5760    0.5581    1.2924 H   0  0  0  0  0  0  0  0  0  0  0  0
   -0.4007   -0.5612    1.9862 H   0  0  0  0  0  0  0  0  0  0  0  0
   -0.1091    1.1785    2.0482 H   0  0  0  0  0  0  0  0  0  0  0  0
    1.2690    0.0895    0.2513 H   0  0  0  0  0  0  0  0  0  0  0  0
    0.4935    2.4439   -0.1599 H   0  0  0  0  0  0  0  0  0  0  0  0
    0.5965    1.5332   -1.6684 H   0  0  0  0  0  0  0  0  0  0  0  0
   -0.9734    1.8235   -0.9158 H   0  0  0  0  0  0  0  0  0  0  0  0
    0.2101   -2.1614   -0.7856 C   0  0  0  0  0  0  0  0  0  0  0  0
    0.2101   -0.9294   -0.3500 H   0  0  0  0  0  0  0  0  0  0  0  0
    1.0992   -2.6747   -0.4226 H   0  0  0  0  0  0  0  0  0  0  0  0
   -0.6790   -2.6747   -0.4226 H   0  0  0  0  0  0  0  0  0  0  0  0
    0.2101   -2.1614   -1.8745 H   0  0  0  0  0  0  0  0  0  0  0  0
  1  2  1  0
  1  4  1  0
  1  5  1  0
  1  6  1  0
  2  3  1  0
  2  7  1  0
  3  8  1  0
  3  9  1  0
  3 10  1  0
 11 12  1  0
 11 13  1  0
 11 14  1  0
 11 15  1  0
M  RAD  1   2   2
M  END
>  <reaction>  (7) 
rxn_315

>  <mol_properties>  (7) 
{"0": {"label": "*0", "atom_type": "Cs"}, "1": {"label": "*1", "atom_type": "Cs"}, "10": {"label": "*3", "atom_type": "Cs"}, "11": {"label": "*2", "atom_type": "H0"}, "12": {"label": "*4", "atom_type": "H0"}}

>  <type>  (7) 
unop_3

>  <geom_source>  (7) 
Heuristics

$$$$

     RDKit          3D

 15 13  0  0  0  0  0  0  0  0999 V2000
    0.8657    1.3605   -0.4986 C   0  0  0  0  0  0  0  0  0  0  0  0
   -0.3783    0.6430    0.0096 C   0  0  0  0  0  3  0  0  0  0  0  0
   -0.1568   -0.0325    1.3568 C   0  0  0  0  0  0  0  0  0  0  0  0
    1.6976    0.6623   -0.6189 H   0  0  0  0  0  0  0  0  0  0  0  0
    0.6875    1.8376   -1.4637 H   0  0  0  0  0  0  0  0  0  0  0  0
    1.1844    2.1346    0.2037 H   0  0  0  0  0  0  0  0  0  0  0  0
   -1.2024    1.3571    0.0915 H   0  0  0  0  0  0  0  0  0  0  0  0
    0.1297    0.6977    2.1176 H   0  0  0  0  0  0  0  0  0  0  0  0
   -1.0582   -0.5405    1.7038 H   0  0  0  0  0  0  0  0  0  0  0  0
    0.6428   -0.7746    1.2950 H   0  0  0  0  0  0  0  0  0  0  0  0
   -0.3783   -1.8261   -0.8634 C   0  0  0  0  0  0  0  0  0  0  0  0
   -0.3783   -0.5942   -0.4279 H   0  0  0  0  0  0  0  0  0  0  0  0
    0.5108   -2.3395   -0.5004 H   0  0  0  0  0  0  0  0  0  0  0  0
   -1.2674   -2.3395   -0.5004 H   0  0  0  0  0  0  0  0  0  0  0  0
   -0.3783   -1.8261   -1.9524 H   0  0  0  0  0  0  0  0  0  0  0  0
  1  2  1  0
  1  4  1  0
  1  5  1  0
  1  6  1  0
  2  3  1  0
  2  7  1  0
  3  8  1  0
  3  9  1  0
  3 10  1  0
 11 12  1  0
 11 13  1  0
 11 14  1  0
 11 15  1  0
M  RAD  1   2   2
M  END
>  <reaction>  (8) 
rxn_315

>  <mol_properties>  (8) 
{"0": {"label": "*0", "atom_type": "Cs"}, "1": {"label": "*1", "atom_type": "Cs"}, "10": {"label": "*3", "atom_type": "Cs"}, "11": {"label": "*2", "atom_type": "H0"}, "12": {"label": "*4", "atom_type": "H0"}}

>  <type>  (8) 
unop_4

>  <geom_source>  (8) 
Heuristics

$$$$

     RDKit          3D

 15 13  0  0  0  0  0  0  0  0999 V2000
    0.3034    0.4587    1.5143 C   0  0  0  0  0  0  0  0  0  0  0  0
    0.3034    0.4594   -0.0090 C   0  0  0  0  0  3  0  0  0  0  0  0
   -0.8889    1.2046   -0.5954 C   0  0  0  0  0  0  0  0  0  0  0  0
   -0.5998   -0.0166    1.9047 H   0  0  0  0  0  0  0  0  0  0  0  0
    1.1641   -0.0793    1.9152 H   0  0  0  0  0  0  0  0  0  0  0  0
    0.3343    1.4785    1.9054 H   0  0  0  0  0  0  0  0  0  0  0  0
    1.2301    0.9118   -0.3728 H   0  0  0  0  0  0  0  0  0  0  0  0
   -0.8956    2.2479   -0.2707 H   0  0  0  0  0  0  0  0  0  0  0  0
   -0.8713    1.1941   -1.6865 H   0  0  0  0  0  0  0  0  0  0  0  0
   -1.8296    0.7528   -0.2715 H   0  0  0  0  0  0  0  0  0  0  0  0
    0.3034   -2.0098   -0.8820 C   0  0  0  0  0  0  0  0  0  0  0  0
    0.3034   -0.7778   -0.4464 H   0  0  0  0  0  0  0  0  0  0  0  0
    1.1925   -2.5231   -0.5190 H   0  0  0  0  0  0  0  0  0  0  0  0
   -0.5857   -2.5231   -0.5190 H   0  0  0  0  0  0  0  0  0  0  0  0
    0.3034   -2.0098   -1.9709 H   0  0  0  0  0  0  0  0  0  0  0  0
  1  2  1  0
  1  4  1  0
  1  5  1  0
  1  6  1  0
  2  3  1  0
  2  7  1  0
  3  8  1  0
  3  9  1  0
  3 10  1  0
 11 12  1  0
 11 13  1  0
 11 14  1  0
 11 15  1  0
M  RAD  1   2   2
M  END
>  <reaction>  (9) 
rxn_315

>  <mol_properties>  (9) 
{"0": {"label": "*0", "atom_type": "Cs"}, "1": {"label": "*1", "atom_type": "Cs"}, "10": {"label": "*3", "atom_type": "Cs"}, "11": {"label": "*2", "atom_type": "H0"}, "12": {"label": "*4", "atom_type": "H0"}}

>  <type>  (9) 
unop_5

>  <geom_source>  (9) 
Heuristics

$$$$

     RDKit          3D

 15 13  0  0  0  0  0  0  0  0999 V2000
    1.1960    1.2161    0.0416 C   0  0  0  0  0  0  0  0  0  0  0  0
   -0.2405    0.7381   -0.1274 C   0  0  0  0  0  3  0  0  0  0  0  0
   -0.7371   -0.0624    1.0697 C   0  0  0  0  0  0  0  0  0  0  0  0
    1.8763    0.3709    0.1711 H   0  0  0  0  0  0  0  0  0  0  0  0
    1.5334    1.7870   -0.8251 H   0  0  0  0  0  0  0  0  0  0  0  0
    1.2938    1.8556    0.9222 H   0  0  0  0  0  0  0  0  0  0  0  0
   -0.8947    1.5999   -0.2858 H   0  0  0  0  0  0  0  0  0  0  0  0
   -0.7002    0.5367    1.9827 H   0  0  0  0  0  0  0  0  0  0  0  0
   -1.7668   -0.3958    0.9300 H   0  0  0  0  0  0  0  0  0  0  0  0
   -0.1177   -0.9480    1.2316 H   0  0  0  0  0  0  0  0  0  0  0  0
   -0.2405   -1.7311   -1.0004 C   0  0  0  0  0  0  0  0  0  0  0  0
   -0.2405   -0.4991   -0.5649 H   0  0  0  0  0  0  0  0  0  0  0  0
    0.6486   -2.2444   -0.6374 H   0  0  0  0  0  0  0  0  0  0  0  0
   -1.1296   -2.2444   -0.6374 H   0  0  0  0  0  0  0  0  0  0  0  0
   -0.2405   -1.7311   -2.0894 H   0  0  0  0  0  0  0  0  0  0  0  0
  1  2  1  0
  1  4  1  0
  1  5  1  0
  1  6  1  0
  2  3  1  0
  2  7  1  0
  3  8  1  0
  3  9  1  0
  3 10  1  0
 11 12  1  0
 11 13  1  0
 11 14  1  0
 11 15  1  0
M  RAD  1   2   2
M  END
>  <reaction>  (10) 
rxn_315

>  <mol_properties>  (10) 
{"0": {"label": "*0", "atom_type": "Cs"}, "1": {"label": "*1", "atom_type": "Cs"}, "10": {"label": "*3", "atom_type": "Cs"}, "11": {"label": "*2", "atom_type": "H0"}, "12": {"label": "*4", "atom_type": "H0"}}

>  <type>  (10) 
unop_6

>  <geom_source>  (10) 
Heuristics

$$$$

     RDKit          3D

 15 13  0  0  0  0  0  0  0  0999 V2000
    1.2188    1.0005    0.6517 C   0  0  0  0  0  0  0  0  0  0  0  0
   -0.0252    0.7619   -0.1945 C   0  0  0  0  0  3  0  0  0  0  0  0
   -1.1529    0.1061    0.5921 C   0  0  0  0  0  0  0  0  0  0  0  0
    1.6062    0.0599    1.0506 H   0  0  0  0  0  0  0  0  0  0  0  0
    2.0146    1.4705    0.0713 H   0  0  0  0  0  0  0  0  0  0  0  0
    0.9949    1.6510    1.5006 H   0  0  0  0  0  0  0  0  0  0  0  0
   -0.3737    1.7133   -0.6058 H   0  0  0  0  0  0  0  0  0  0  0  0
   -1.4516    0.7284    1.4392 H   0  0  0  0  0  0  0  0  0  0  0  0
   -2.0344   -0.0566   -0.0303 H   0  0  0  0  0  0  0  0  0  0  0  0
   -0.8402   -0.8627    0.9892 H   0  0  0  0  0  0  0  0  0  0  0  0
   -0.0252   -1.7073   -1.0675 C   0  0  0  0  0  0  0  0  0  0  0  0
   -0.0252   -0.4753   -0.6319 H   0  0  0  0  0  0  0  0  0  0  0  0
    0.8639   -2.2206   -0.7045 H   0  0  0  0  0  0  0  0  0  0  0  0
   -0.9143   -2.2206   -0.7045 H   0  0  0  0  0  0  0  0  0  0  0  0
   -0.0252   -1.7073   -2.1564 H   0  0  0  0  0  0  0  0  0  0  0  0
  1  2  1  0
  1  4  1  0
  1  5  1  0
  1  6  1  0
  2  3  1  0
  2  7  1  0
  3  8  1  0
  3  9  1  0
  3 10  1  0
 11 12  1  0
 11 13  1  0
 11 14  1  0
 11 15  1  0
M  RAD  1   2   2
M  END
>  <reaction>  (11) 
rxn_315

>  <mol_properties>  (11) 
{"0": {"label": "*0", "atom_type": "Cs"}, "1": {"label": "*1", "atom_type": "Cs"}, "10": {"label": "*3", "atom_type": "Cs"}, "11": {"label": "*2", "atom_type": "H0"}, "12": {"label": "*4", "atom_type": "H0"}}

>  <type>  (11) 
unop_7

>  <geom_source>  (11) 
Heuristics

$$$$

     RDKit          3D

 15 13  0  0  0  0  0  0  0  0999 V2000
   -1.3230    0.7197    0.3667 C   0  0  0  0  0  0  0  0  0  0  0  0
    0.1135    0.2417    0.1976 C   0  0  0  0  0  3  0  0  0  0  0  0
    1.1091    1.3919    0.1173 C   0  0  0  0  0  0  0  0  0  0  0  0
   -1.6253    1.3522   -0.4715 H   0  0  0  0  0  0  0  0  0  0  0  0
   -2.0205   -0.1177    0.4222 H   0  0  0  0  0  0  0  0  0  0  0  0
   -1.4337    1.3087    1.2804 H   0  0  0  0  0  0  0  0  0  0  0  0
    0.3799   -0.4127    1.0322 H   0  0  0  0  0  0  0  0  0  0  0  0
    1.0750    2.0020    1.0232 H   0  0  0  0  0  0  0  0  0  0  0  0
    2.1314    1.0298   -0.0035 H   0  0  0  0  0  0  0  0  0  0  0  0
    0.8833    2.0455   -0.7287 H   0  0  0  0  0  0  0  0  0  0  0  0
    0.1135   -2.2275   -0.6753 C   0  0  0  0  0  0  0  0  0  0  0  0
    0.1135   -0.9955   -0.2398 H   0  0  0  0  0  0  0  0  0  0  0  0
    1.0026   -2.7408   -0.3124 H   0  0  0  0  0  0  0  0  0  0  0  0
   -0.7756   -2.7408   -0.3124 H   0  0  0  0  0  0  0  0  0  0  0  0
    0.1135   -2.2275   -1.7643 H   0  0  0  0  0  0  0  0  0  0  0  0
  1  2  1  0
  1  4  1  0
  1  5  1  0
  1  6  1  0
  2  3  1  0
  2  7  1  0
  3  8  1  0
  3  9  1  0
  3 10  1  0
 11 12  1  0
 11 13  1  0
 11 14  1  0
 11 15  1  0
M  RAD  1   2   2
M  END
>  <reaction>  (12) 
rxn_315

>  <mol_properties>  (12) 
{"0": {"label": "*0", "atom_type": "Cs"}, "1": {"label": "*1", "atom_type": "Cs"}, "10": {"label": "*3", "atom_type": "Cs"}, "11": {"label": "*2", "atom_type": "H0"}, "12": {"label": "*4", "atom_type": "H0"}}

>  <type>  (12) 
unop_8

>  <geom_source>  (12) 
Heuristics

$$$$

     RDKit          3D

 15 13  0  0  0  0  0  0  0  0999 V2000
    0.3144    1.3935   -0.8334 C   0  0  0  0  0  0  0  0  0  0  0  0
   -0.4038    0.5008    0.1705 C   0  0  0  0  0  3  0  0  0  0  0  0
    0.4456    0.1963    1.3978 C   0  0  0  0  0  0  0  0  0  0  0  0
    1.2357    0.9230   -1.1854 H   0  0  0  0  0  0  0  0  0  0  0  0
   -0.3094    1.6002   -1.7046 H   0  0  0  0  0  0  0  0  0  0  0  0
    0.5854    2.3506   -0.3811 H   0  0  0  0  0  0  0  0  0  0  0  0
   -1.3357    0.9803    0.4826 H   0  0  0  0  0  0  0  0  0  0  0  0
    0.7207    1.1157    1.9203 H   0  0  0  0  0  0  0  0  0  0  0  0
   -0.0854   -0.4438    2.1044 H   0  0  0  0  0  0  0  0  0  0  0  0
    1.3710   -0.3119    1.1160 H   0  0  0  0  0  0  0  0  0  0  0  0
   -0.4038   -1.9684   -0.7025 C   0  0  0  0  0  0  0  0  0  0  0  0
   -0.4038   -0.7364   -0.2669 H   0  0  0  0  0  0  0  0  0  0  0  0
    0.4853   -2.4817   -0.3395 H   0  0  0  0  0  0  0  0  0  0  0  0
   -1.2929   -2.4817   -0.3395 H   0  0  0  0  0  0  0  0  0  0  0  0
   -0.4038   -1.9684   -1.7914 H   0  0  0  0  0  0  0  0  0  0  0  0
  1  2  1  0
  1  4  1  0
  1  5  1  0
  1  6  1  0
  2  3  1  0
  2  7  1  0
  3  8  1  0
  3  9  1  0
  3 10  1  0
 11 12  1  0
 11 13  1  0
 11 14  1  0
 11 15  1  0
M  RAD  1   2   2
M  END
>  <reaction>  (13) 
rxn_315

>  <mol_properties>  (13) 
{"0": {"label": "*0", "atom_type": "Cs"}, "1": {"label": "*1", "atom_type": "Cs"}, "10": {"label": "*3", "atom_type": "Cs"}, "11": {"label": "*2", "atom_type": "H0"}, "12": {"label": "*4", "atom_type": "H0"}}

>  <type>  (13) 
unop_9

>  <geom_source>  (13) 
Heuristics

$$$$

     RDKit          3D

 15 13  0  0  0  0  0  0  0  0999 V2000
   -1.2158    0.9459   -0.2270 C   0  0  0  0  0  0  0  0  0  0  0  0
    0.0282    0.2284    0.2811 C   0  0  0  0  0  3  0  0  0  0  0  0
    1.1824    1.1823    0.5613 C   0  0  0  0  0  0  0  0  0  0  0  0
   -1.0056    1.4820   -1.1557 H   0  0  0  0  0  0  0  0  0  0  0  0
   -2.0307    0.2466   -0.4219 H   0  0  0  0  0  0  0  0  0  0  0  0
   -1.5701    1.6778    0.5029 H   0  0  0  0  0  0  0  0  0  0  0  0
   -0.2169   -0.3241    1.1924 H   0  0  0  0  0  0  0  0  0  0  0  0
    0.9036    1.9217    1.3160 H   0  0  0  0  0  0  0  0  0  0  0  0
    2.0635    0.6503    0.9240 H   0  0  0  0  0  0  0  0  0  0  0  0
    1.4682    1.7259   -0.3425 H   0  0  0  0  0  0  0  0  0  0  0  0
    0.0282   -2.2408   -0.5919 C   0  0  0  0  0  0  0  0  0  0  0  0
    0.0282   -1.0088   -0.1563 H   0  0  0  0  0  0  0  0  0  0  0  0
    0.9173   -2.7541   -0.2289 H   0  0  0  0  0  0  0  0  0  0  0  0
   -0.8609   -2.7541   -0.2289 H   0  0  0  0  0  0  0  0  0  0  0  0
    0.0282   -2.2408   -1.6808 H   0  0  0  0  0  0  0  0  0  0  0  0
  1  2  1  0
  1  4  1  0
  1  5  1  0
  1  6  1  0
  2  3  1  0
  2  7  1  0
  3  8  1  0
  3  9  1  0
  3 10  1  0
 11 12  1  0
 11 13  1  0
 11 14  1  0
 11 15  1  0
M  RAD  1   2   2
M  END
>  <reaction>  (14) 
rxn_315

>  <mol_properties>  (14) 
{"0": {"label": "*0", "atom_type": "Cs"}, "1": {"label": "*1", "atom_type": "Cs"}, "10": {"label": "*3", "atom_type": "Cs"}, "11": {"label": "*2", "atom_type": "H0"}, "12": {"label": "*4", "atom_type": "H0"}}

>  <type>  (14) 
unop_10

>  <geom_source>  (14) 
Heuristics

$$$$

     RDKit          3D

 15 13  0  0  0  0  0  0  0  0999 V2000
    0.9260    0.7393    1.1883 C   0  0  0  0  0  0  0  0  0  0  0  0
    0.2077    0.6759   -0.1536 C   0  0  0  0  0  3  0  0  0  0  0  0
   -1.3003    0.5195   -0.0052 C   0  0  0  0  0  0  0  0  0  0  0  0
    0.7499   -0.1695    1.7689 H   0  0  0  0  0  0  0  0  0  0  0  0
    2.0041    0.8512    1.0613 H   0  0  0  0  0  0  0  0  0  0  0  0
    0.5695    1.5841    1.7826 H   0  0  0  0  0  0  0  0  0  0  0  0
    0.4252    1.5819   -0.7260 H   0  0  0  0  0  0  0  0  0  0  0  0
   -1.7269    1.3574    0.5516 H   0  0  0  0  0  0  0  0  0  0  0  0
   -1.7966    0.4761   -0.9761 H   0  0  0  0  0  0  0  0  0  0  0  0
   -1.5465   -0.3962    0.5379 H   0  0  0  0  0  0  0  0  0  0  0  0
    0.2077   -1.7933   -1.0266 C   0  0  0  0  0  0  0  0  0  0  0  0
    0.2077   -0.5613   -0.5910 H   0  0  0  0  0  0  0  0  0  0  0  0
    1.0968   -2.3066   -0.6636 H   0  0  0  0  0  0  0  0  0  0  0  0
   -0.6814   -2.3066   -0.6636 H   0  0  0  0  0  0  0  0  0  0  0  0
    0.2077   -1.7933   -2.1156 H   0  0  0  0  0  0  0  0  0  0  0  0
  1  2  1  0
  1  4  1  0
  1  5  1  0
  1  6  1  0
  2  3  1  0
  2  7  1  0
  3  8  1  0
  3  9  1  0
  3 10  1  0
 11 12  1  0
 11 13  1  0
 11 14  1  0
 11 15  1  0
M  RAD  1   2   2
M  END
>  <reaction>  (15) 
rxn_315

>  <mol_properties>  (15) 
{"0": {"label": "*0", "atom_type": "Cs"}, "1": {"label": "*1", "atom_type": "Cs"}, "10": {"label": "*3", "atom_type": "Cs"}, "11": {"label": "*2", "atom_type": "H0"}, "12": {"label": "*4", "atom_type": "H0"}}

>  <type>  (15) 
unop_11

>  <geom_source>  (15) 
Heuristics

$$$$

     RDKit          3D

 15 13  0  0  0  0  0  0  0  0999 V2000
   -0.3034    1.3085   -0.8895 C   0  0  0  0  0  0  0  0  0  0  0  0
   -0.3034    0.3516    0.2958 C   0  0  0  0  0  3  0  0  0  0  0  0
    0.8889    0.5627    1.2202 C   0  0  0  0  0  0  0  0  0  0  0  0
    0.5998    1.1843   -1.4919 H   0  0  0  0  0  0  0  0  0  0  0  0
   -1.1641    1.1421   -1.5394 H   0  0  0  0  0  0  0  0  0  0  0  0
   -0.3343    2.3476   -0.5527 H   0  0  0  0  0  0  0  0  0  0  0  0
   -1.2301    0.4749    0.8631 H   0  0  0  0  0  0  0  0  0  0  0  0
    0.8956    1.5782    1.6235 H   0  0  0  0  0  0  0  0  0  0  0  0
    0.8713   -0.1313    2.0623 H   0  0  0  0  0  0  0  0  0  0  0  0
    1.8296    0.4149    0.6843 H   0  0  0  0  0  0  0  0  0  0  0  0
   -0.3034   -2.1175   -0.5772 C   0  0  0  0  0  0  0  0  0  0  0  0
   -0.3034   -0.8855   -0.1416 H   0  0  0  0  0  0  0  0  0  0  0  0
    0.5857   -2.6309   -0.2142 H   0  0  0  0  0  0  0  0  0  0  0  0
   -1.1925   -2.6308   -0.2142 H   0  0  0  0  0  0  0  0  0  0  0  0
   -0.3034   -2.1175   -1.6661 H   0  0  0  0  0  0  0  0  0  0  0  0
  1  2  1  0
  1  4  1  0
  1  5  1  0
  1  6  1  0
  2  3  1  0
  2  7  1  0
  3  8  1  0
  3  9  1  0
  3 10  1  0
 11 12  1  0
 11 13  1  0
 11 14  1  0
 11 15  1  0
M  RAD  1   2   2
M  END
>  <reaction>  (16) 
rxn_315

>  <mol_properties>  (16) 
{"0": {"label": "*0", "atom_type": "Cs"}, "1": {"label": "*1", "atom_type": "Cs"}, "10": {"label": "*3", "atom_type": "Cs"}, "11": {"label": "*2", "atom_type": "H0"}, "12": {"label": "*4", "atom_type": "H0"}}

>  <type>  (16) 
unop_12

>  <geom_source>  (16) 
Heuristics

$$$$

     RDKit          3D

 15 13  0  0  0  0  0  0  0  0999 V2000
   -0.3977    0.0141    0.3538 C   0  0  0  0  0  3  0  0  0  0  0  0
   -1.0446    1.3305   -0.0617 C   0  0  0  0  0  0  0  0  0  0  0  0
   -1.1697   -1.1814   -0.1928 C   0  0  0  0  0  0  0  0  0  0  0  0
    2.1687   -0.1839    0.0805 C   0  0  0  0  0  0  0  0  0  0  0  0
   -0.3632   -0.0455    1.4630 H   0  0  0  0  0  0  0  0  0  0  0  0
    0.9036   -0.0254   -0.1322 H   0  0  0  0  0  0  0  0  0  0  0  0
   -1.0635    1.4158   -1.1689 H   0  0  0  0  0  0  0  0  0  0  0  0
   -2.0817    1.3931    0.3313 H   0  0  0  0  0  0  0  0  0  0  0  0
   -0.4550    2.1765    0.3491 H   0  0  0  0  0  0  0  0  0  0  0  0
   -1.1913   -1.1490   -1.3027 H   0  0  0  0  0  0  0  0  0  0  0  0
   -0.6691   -2.1197    0.1250 H   0  0  0  0  0  0  0  0  0  0  0  0
   -2.2100   -1.1814    0.1970 H   0  0  0  0  0  0  0  0  0  0  0  0
    2.3355    0.8225   -0.3555 H   0  0  0  0  0  0  0  0  0  0  0  0
    2.8042   -0.3065    0.9815 H   0  0  0  0  0  0  0  0  0  0  0  0
    2.4338   -0.9594   -0.6673 H   0  0  0  0  0  0  0  0  0  0  0  0
  1  2  1  0
  1  3  1  0
  1  5  1  0
  2  7  1  0
  2  8  1  0
  2  9  1  0
  3 10  1  0
  3 11  1  0
  3 12  1  0
  4  6  1  0
  4 13  1  0
  4 14  1  0
  4 15  1  0
M  RAD  1   1   2
M  END
>  <reaction>  (17) 
rxn_315

>  <mol_properties>  (17) 
{"0": {"label": "*0", "atom_type": "Cs"}, "1": {"label": "*1", "atom_type": "Cs"}, "10": {"label": "*3", "atom_type": "Cs"}, "11": {"label": "*2", "atom_type": "H0"}, "12": {"label": "*4", "atom_type": "H0"}}

>  <type>  (17) 
unop_13

>  <geom_source>  (17) 
AutoTST

$$$$

     RDKit          3D

 15 13  0  0  0  0  0  0  0  0999 V2000
   -0.8452    1.1476   -0.6723 C   0  0  0  0  0  0  0  0  0  0  0  0
   -0.1270    0.2548    0.3315 C   0  0  0  0  0  3  0  0  0  0  0  0
    1.1095    0.9168    0.9259 C   0  0  0  0  0  0  0  0  0  0  0  0
   -0.1863    1.4092   -1.5038 H   0  0  0  0  0  0  0  0  0  0  0  0
   -1.7274    0.6565   -1.0866 H   0  0  0  0  0  0  0  0  0  0  0  0
   -1.1702    2.0796   -0.2037 H   0  0  0  0  0  0  0  0  0  0  0  0
   -0.8165   -0.0169    1.1356 H   0  0  0  0  0  0  0  0  0  0  0  0
    0.8462    1.8416    1.4449 H   0  0  0  0  0  0  0  0  0  0  0  0
    1.6099    0.2626    1.6419 H   0  0  0  0  0  0  0  0  0  0  0  0
    1.8300    1.1712    0.1448 H   0  0  0  0  0  0  0  0  0  0  0  0
   -0.1270   -2.2144   -0.5414 C   0  0  0  0  0  0  0  0  0  0  0  0
   -0.1270   -0.9824   -0.1059 H   0  0  0  0  0  0  0  0  0  0  0  0
    0.7621   -2.7277   -0.1785 H   0  0  0  0  0  0  0  0  0  0  0  0
   -1.0161   -2.7277   -0.1785 H   0  0  0  0  0  0  0  0  0  0  0  0
   -0.1270   -2.2144   -1.6304 H   0  0  0  0  0  0  0  0  0  0  0  0
  1  2  1  0
  1  4  1  0
  1  5  1  0
  1  6  1  0
  2  3  1  0
  2  7  1  0
  3  8  1  0
  3  9  1  0
  3 10  1  0
 11 12  1  0
 11 13  1  0
 11 14  1  0
 11 15  1  0
M  RAD  1   2   2
M  END
>  <reaction>  (18) 
rxn_315

>  <mol_properties>  (18) 
{"0": {"label": "*0", "atom_type": "Cs"}, "1": {"label": "*1", "atom_type": "Cs"}, "10": {"label": "*3", "atom_type": "Cs"}, "11": {"label": "*2", "atom_type": "H0"}, "12": {"label": "*4", "atom_type": "H0"}}

>  <type>  (18) 
unop_14

>  <geom_source>  (18) 
gaussian_log

$$$$
