
     RDKit          3D

  6  5  0  0  0  0  0  0  0  0999 V2000
    1.3543    1.0529    0.1454 O   0  0  0  0  0  0  0  0  0  0  0  0
    0.7621    0.0240   -0.0005 C   0  0  0  0  0  0  0  0  0  0  0  0
   -0.7621   -0.0240    0.0005 C   0  0  0  0  0  0  0  0  0  0  0  0
   -1.3543   -1.0529   -0.1454 O   0  0  0  0  0  0  0  0  0  0  0  0
    1.2588   -0.9541   -0.1447 H   0  0  0  0  0  0  0  0  0  0  0  0
   -1.2588    0.9541    0.1447 H   0  0  0  0  0  0  0  0  0  0  0  0
  1  2  2  0
  2  3  1  0
  2  5  1  0
  3  4  2  0
  3  6  1  0
M  END
>  <reaction>  (1) 
rxn_3158

>  <mol_properties>  (1) 
{"2": {"label": "donator", "atom_type": "CO"}, "5": {"label": "d_hydrogen", "atom_type": "H0"}}

>  <type>  (1) 
r1h

$$$$

     RDKit          3D

  6  6  0  0  0  0  0  0  0  0999 V2000
    1.9594    0.0134   -0.3734 N   0  0  0  0  0  2  0  0  0  0  0  0
    0.7437    0.0051   -0.0788 C   0  0  0  0  0  0  0  0  0  0  0  0
   -0.0745    1.0868    0.0233 O   0  0  0  0  0  0  0  0  0  0  0  0
   -1.3223    0.5972    0.3682 N   0  0  0  0  0  0  0  0  0  0  0  0
   -1.2899   -0.6150    0.4676 N   0  0  0  0  0  0  0  0  0  0  0  0
   -0.0165   -1.0874    0.2015 O   0  0  0  0  0  0  0  0  0  0  0  0
  1  2  2  0
  2  3  1  0
  2  6  1  0
  3  4  1  0
  4  5  2  0
  5  6  1  0
M  RAD  1   1   2
M  END
>  <reaction>  (2) 
rxn_3158

>  <mol_properties>  (2) 
{"0": {"label": "acceptor", "atom_type": "N3d"}}

>  <type>  (2) 
r2

$$$$

     RDKit          3D

  7  7  0  0  0  0  0  0  0  0999 V2000
    1.6064   -0.4313    0.1905 N   0  0  0  0  0  0  0  0  0  0  0  0
    0.3982   -0.1725    0.0701 C   0  0  0  0  0  0  0  0  0  0  0  0
   -0.6051   -1.0481    0.3497 O   0  0  0  0  0  0  0  0  0  0  0  0
   -1.7906   -0.4044    0.0958 N   0  0  0  0  0  0  0  0  0  0  0  0
   -1.5819    0.7348   -0.2956 N   0  0  0  0  0  0  0  0  0  0  0  0
   -0.2229    0.9708   -0.3436 O   0  0  0  0  0  0  0  0  0  0  0  0
    2.1958    0.3506   -0.0669 H   0  0  0  0  0  0  0  0  0  0  0  0
  1  2  2  3
  1  7  1  0
  2  3  1  0
  2  6  1  0
  3  4  1  0
  4  5  2  0
  5  6  1  0
M  END
>  <reaction>  (3) 
rxn_3158

>  <mol_properties>  (3) 
{"0": {"label": "acceptor", "atom_type": "N3d"}, "6": {"label": "a_hydrogen", "atom_type": "H0"}}

>  <type>  (3) 
r2h

$$$$

     RDKit          3D

 12 11  0  0  0  0  0  0  0  0999 V2000
    0.8458    1.2337    0.4904 N   0  0  0  0  0  2  0  0  0  0  0  0
    0.0515    1.1175   -0.4638 C   0  0  0  0  0  0  0  0  0  0  0  0
   -0.0569    1.9868   -1.5114 O   0  0  0  0  0  0  0  0  0  0  0  0
   -1.0436    1.4992   -2.3385 N   0  0  0  0  0  0  0  0  0  0  0  0
   -1.5073    0.4653   -1.8870 N   0  0  0  0  0  0  0  0  0  0  0  0
   -0.8800    0.1441   -0.6996 O   0  0  0  0  0  0  0  0  0  0  0  0
    1.2785   -2.1960    0.1642 O   0  0  0  0  0  0  0  0  0  0  0  0
    0.8539   -2.2104    1.2752 C   0  0  0  0  0  0  0  0  0  0  0  0
    0.3910   -0.9141    1.9819 C   0  0  0  0  0  0  0  0  0  0  0  0
   -0.1590   -0.9161    3.0272 O   0  0  0  0  0  0  0  0  0  0  0  0
    0.7440   -3.1255    1.8871 H   0  0  0  0  0  0  0  0  0  0  0  0
    0.6427    0.1087    1.3377 H   0  0  0  0  0  0  0  0  0  0  0  0
  1  2  2  0
  2  3  1  0
  2  6  1  0
  3  4  1  0
  4  5  2  0
  5  6  1  0
  7  8  2  0
  8  9  1  0
  8 11  1  0
  9 10  2  0
  9 12  1  0
M  RAD  1   1   2
M  END
>  <reaction>  (4) 
rxn_3158

>  <mol_properties>  (4) 
{"0": {"label": "*3", "atom_type": "N3d"}, "1": {"label": "*4", "atom_type": "Cd"}, "7": {"label": "*0", "atom_type": "CO"}, "8": {"label": "*1", "atom_type": "CO"}, "11": {"label": "*2", "atom_type": "H0"}}

>  <type>  (4) 
ts

$$$$

     RDKit          3D

 12 11  0  0  0  0  0  0  0  0999 V2000
    0.9551    0.3914   -0.6176 N   0  0  0  0  0  0  0  0  0  0  0  0
   -0.0390    1.1031   -0.4018 C   0  0  0  0  0  0  0  0  0  0  0  0
    0.0012    2.4567   -0.2700 O   0  0  0  0  0  0  0  0  0  0  0  0
   -1.2836    2.8824   -0.0414 N   0  0  0  0  0  0  0  0  0  0  0  0
   -2.0517    1.9315   -0.0273 N   0  0  0  0  0  0  0  0  0  0  0  0
   -1.3519    0.7623   -0.2471 O   0  0  0  0  0  0  0  0  0  0  0  0
    0.9551   -3.0261   -1.2005 O   0  0  0  0  0  1  0  0  0  0  0  0
    0.9551   -3.0261   -0.0044 C   0  0  0  0  0  0  0  0  0  0  0  0
    0.9551   -1.7252    0.7914 C   0  0  0  0  0  0  0  0  0  0  0  0
    0.9551   -1.7252    1.9875 O   0  0  0  0  0  0  0  0  0  0  0  0
    0.9551   -3.9472    0.6087 H   0  0  0  0  0  0  0  0  0  0  0  0
    0.9551   -0.6200    0.0556 H   0  0  0  0  0  0  0  0  0  0  0  0
  1  2  2  3
  1 12  1  0
  2  3  1  0
  2  6  1  0
  3  4  1  0
  4  5  2  0
  5  6  1  0
  7  8  1  0
  8  9  2  0
  8 11  1  0
  9 10  2  0
M  RAD  1   7   2
M  END
>  <reaction>  (5) 
rxn_3158

>  <mol_properties>  (5) 
{"0": {"label": "*3", "atom_type": "N3d"}, "1": {"label": "*4", "atom_type": "Cd"}, "7": {"label": "*0", "atom_type": "CO"}, "8": {"label": "*1", "atom_type": "CO"}, "11": {"label": "*2", "atom_type": "H0"}}

>  <type>  (5) 
unop_1

>  <geom_source>  (5) 
Heuristics

$$$$

     RDKit          3D

 12 11  0  0  0  0  0  0  0  0999 V2000
    0.5650    1.2365    0.6630 N   0  0  0  0  0  0  0  0  0  0  0  0
   -0.0089    1.0792   -0.4266 C   0  0  0  0  0  0  0  0  0  0  0  0
   -0.4777    2.0959   -1.2000 O   0  0  0  0  0  0  0  0  0  0  0  0
   -1.0437    1.5316   -2.3160 N   0  0  0  0  0  0  0  0  0  0  0  0
   -0.9530    0.3134   -2.2704 N   0  0  0  0  0  0  0  0  0  0  0  0
   -0.3112   -0.0643   -1.1083 O   0  0  0  0  0  0  0  0  0  0  0  0
    0.5650   -2.1810    0.0801 O   0  0  0  0  0  1  0  0  0  0  0  0
    0.5650   -2.1810    1.2762 C   0  0  0  0  0  0  0  0  0  0  0  0
    0.5650   -0.8801    2.0719 C   0  0  0  0  0  0  0  0  0  0  0  0
    0.5650   -0.8801    3.2680 O   0  0  0  0  0  0  0  0  0  0  0  0
    0.5650   -3.1021    1.8893 H   0  0  0  0  0  0  0  0  0  0  0  0
    0.5650    0.2251    1.3362 H   0  0  0  0  0  0  0  0  0  0  0  0
  1  2  2  3
  1 12  1  0
  2  3  1  0
  2  6  1  0
  3  4  1  0
  4  5  2  0
  5  6  1  0
  7  8  1  0
  8  9  2  0
  8 11  1  0
  9 10  2  0
M  RAD  1   7   2
M  END
>  <reaction>  (6) 
rxn_3158

>  <mol_properties>  (6) 
{"0": {"label": "*3", "atom_type": "N3d"}, "1": {"label": "*4", "atom_type": "Cd"}, "7": {"label": "*0", "atom_type": "CO"}, "8": {"label": "*1", "atom_type": "CO"}, "11": {"label": "*2", "atom_type": "H0"}}

>  <type>  (6) 
unop_2

>  <geom_source>  (6) 
Heuristics

$$$$

     RDKit          3D

 12 11  0  0  0  0  0  0  0  0999 V2000
    0.5426    0.1687   -0.9462 N   0  0  0  0  0  0  0  0  0  0  0  0
   -0.0314    1.1132   -0.3807 C   0  0  0  0  0  0  0  0  0  0  0  0
    0.3142    2.4207   -0.5305 O   0  0  0  0  0  0  0  0  0  0  0  0
   -0.5428    3.1605    0.2458 N   0  0  0  0  0  0  0  0  0  0  0  0
   -1.3363    2.4293    0.8204 N   0  0  0  0  0  0  0  0  0  0  0  0
   -1.0881    1.1140    0.4837 O   0  0  0  0  0  0  0  0  0  0  0  0
    0.5425   -3.2488   -1.5291 O   0  0  0  0  0  1  0  0  0  0  0  0
    0.5425   -3.2488   -0.3330 C   0  0  0  0  0  0  0  0  0  0  0  0
    0.5425   -1.9479    0.4627 C   0  0  0  0  0  0  0  0  0  0  0  0
    0.5425   -1.9479    1.6588 O   0  0  0  0  0  0  0  0  0  0  0  0
    0.5425   -4.1698    0.2801 H   0  0  0  0  0  0  0  0  0  0  0  0
    0.5426   -0.8426   -0.2730 H   0  0  0  0  0  0  0  0  0  0  0  0
  1  2  2  3
  1 12  1  0
  2  3  1  0
  2  6  1  0
  3  4  1  0
  4  5  2  0
  5  6  1  0
  7  8  1  0
  8  9  2  0
  8 11  1  0
  9 10  2  0
M  RAD  1   7   2
M  END
>  <reaction>  (7) 
rxn_3158

>  <mol_properties>  (7) 
{"0": {"label": "*3", "atom_type": "N3d"}, "1": {"label": "*4", "atom_type": "Cd"}, "7": {"label": "*0", "atom_type": "CO"}, "8": {"label": "*1", "atom_type": "CO"}, "11": {"label": "*2", "atom_type": "H0"}}

>  <type>  (7) 
unop_3

>  <geom_source>  (7) 
Heuristics

$$$$

     RDKit          3D

 12 11  0  0  0  0  0  0  0  0999 V2000
   -0.9732    1.0084    0.3147 N   0  0  0  0  0  0  0  0  0  0  0  0
    0.0209    1.0840   -0.4251 C   0  0  0  0  0  0  0  0  0  0  0  0
    0.6347    2.2490   -0.7681 O   0  0  0  0  0  0  0  0  0  0  0  0
    1.6858    1.9292   -1.5910 N   0  0  0  0  0  0  0  0  0  0  0  0
    1.7440    0.7196   -1.7578 N   0  0  0  0  0  0  0  0  0  0  0  0
    0.7282    0.1018   -1.0568 O   0  0  0  0  0  0  0  0  0  0  0  0
   -0.9732   -2.4091   -0.2682 O   0  0  0  0  0  1  0  0  0  0  0  0
   -0.9732   -2.4091    0.9279 C   0  0  0  0  0  0  0  0  0  0  0  0
   -0.9732   -1.1081    1.7236 C   0  0  0  0  0  0  0  0  0  0  0  0
   -0.9732   -1.1081    2.9197 O   0  0  0  0  0  0  0  0  0  0  0  0
   -0.9732   -3.3301    1.5410 H   0  0  0  0  0  0  0  0  0  0  0  0
   -0.9732   -0.0029    0.9879 H   0  0  0  0  0  0  0  0  0  0  0  0
  1  2  2  3
  1 12  1  0
  2  3  1  0
  2  6  1  0
  3  4  1  0
  4  5  2  0
  5  6  1  0
  7  8  1  0
  8  9  2  0
  8 11  1  0
  9 10  2  0
M  RAD  1   7   2
M  END
>  <reaction>  (8) 
rxn_3158

>  <mol_properties>  (8) 
{"0": {"label": "*3", "atom_type": "N3d"}, "1": {"label": "*4", "atom_type": "Cd"}, "7": {"label": "*0", "atom_type": "CO"}, "8": {"label": "*1", "atom_type": "CO"}, "11": {"label": "*2", "atom_type": "H0"}}

>  <type>  (8) 
unop_4

>  <geom_source>  (8) 
Heuristics

$$$$

     RDKit          3D

 12 11  0  0  0  0  0  0  0  0999 V2000
    0.0000    0.0879   -1.0596 N   0  0  0  0  0  0  0  0  0  0  0  0
    0.0000    1.1176   -0.3661 C   0  0  0  0  0  0  0  0  0  0  0  0
    0.0000    2.3816   -0.8701 O   0  0  0  0  0  0  0  0  0  0  0  0
    0.0000    3.2458    0.1964 N   0  0  0  0  0  0  0  0  0  0  0  0
    0.0000    2.6241    1.2489 N   0  0  0  0  0  0  0  0  0  0  0  0
   -0.0000    1.2682    0.9908 O   0  0  0  0  0  0  0  0  0  0  0  0
   -0.0000   -3.3296   -1.6425 O   0  0  0  0  0  1  0  0  0  0  0  0
   -0.0000   -3.3296   -0.4464 C   0  0  0  0  0  0  0  0  0  0  0  0
   -0.0000   -2.0286    0.3493 C   0  0  0  0  0  0  0  0  0  0  0  0
   -0.0000   -2.0286    1.5455 O   0  0  0  0  0  0  0  0  0  0  0  0
   -0.0000   -4.2506    0.1667 H   0  0  0  0  0  0  0  0  0  0  0  0
   -0.0000   -0.9234   -0.3864 H   0  0  0  0  0  0  0  0  0  0  0  0
  1  2  2  3
  1 12  1  0
  2  3  1  0
  2  6  1  0
  3  4  1  0
  4  5  2  0
  5  6  1  0
  7  8  1  0
  8  9  2  0
  8 11  1  0
  9 10  2  0
M  RAD  1   7   2
M  END
>  <reaction>  (9) 
rxn_3158

>  <mol_properties>  (9) 
{"0": {"label": "*3", "atom_type": "N3d"}, "1": {"label": "*4", "atom_type": "Cd"}, "7": {"label": "*0", "atom_type": "CO"}, "8": {"label": "*1", "atom_type": "CO"}, "11": {"label": "*2", "atom_type": "H0"}}

>  <type>  (9) 
unop_5

>  <geom_source>  (9) 
Heuristics

$$$$

     RDKit          3D

 12 11  0  0  0  0  0  0  0  0999 V2000
   -1.1149    0.6987   -0.1552 N   0  0  0  0  0  0  0  0  0  0  0  0
    0.0330    1.0923   -0.4172 C   0  0  0  0  0  0  0  0  0  0  0  0
    0.4221    2.3958   -0.3871 O   0  0  0  0  0  0  0  0  0  0  0  0
    1.7501    2.4330   -0.7327 N   0  0  0  0  0  0  0  0  0  0  0  0
    2.1641    1.3048   -0.9564 N   0  0  0  0  0  0  0  0  0  0  0  0
    1.1456    0.3899   -0.7814 O   0  0  0  0  0  0  0  0  0  0  0  0
   -1.1149   -2.7188   -0.7381 O   0  0  0  0  0  1  0  0  0  0  0  0
   -1.1149   -2.7188    0.4580 C   0  0  0  0  0  0  0  0  0  0  0  0
   -1.1149   -1.4179    1.2537 C   0  0  0  0  0  0  0  0  0  0  0  0
   -1.1149   -1.4179    2.4499 O   0  0  0  0  0  0  0  0  0  0  0  0
   -1.1149   -3.6399    1.0711 H   0  0  0  0  0  0  0  0  0  0  0  0
   -1.1149   -0.3127    0.5180 H   0  0  0  0  0  0  0  0  0  0  0  0
  1  2  2  3
  1 12  1  0
  2  3  1  0
  2  6  1  0
  3  4  1  0
  4  5  2  0
  5  6  1  0
  7  8  1  0
  8  9  2  0
  8 11  1  0
  9 10  2  0
M  RAD  1   7   2
M  END
>  <reaction>  (10) 
rxn_3158

>  <mol_properties>  (10) 
{"0": {"label": "*3", "atom_type": "N3d"}, "1": {"label": "*4", "atom_type": "Cd"}, "7": {"label": "*0", "atom_type": "CO"}, "8": {"label": "*1", "atom_type": "CO"}, "11": {"label": "*2", "atom_type": "H0"}}

>  <type>  (10) 
unop_6

>  <geom_source>  (10) 
Heuristics

$$$$

     RDKit          3D

 12 11  0  0  0  0  0  0  0  0999 V2000
   -0.9551    0.3914   -0.6176 N   0  0  0  0  0  0  0  0  0  0  0  0
    0.0390    1.1031   -0.4018 C   0  0  0  0  0  0  0  0  0  0  0  0
   -0.0012    2.4567   -0.2700 O   0  0  0  0  0  0  0  0  0  0  0  0
    1.2836    2.8824   -0.0414 N   0  0  0  0  0  0  0  0  0  0  0  0
    2.0517    1.9315   -0.0273 N   0  0  0  0  0  0  0  0  0  0  0  0
    1.3519    0.7623   -0.2471 O   0  0  0  0  0  0  0  0  0  0  0  0
   -0.9551   -3.0261   -1.2005 O   0  0  0  0  0  1  0  0  0  0  0  0
   -0.9551   -3.0261   -0.0044 C   0  0  0  0  0  0  0  0  0  0  0  0
   -0.9551   -1.7252    0.7914 C   0  0  0  0  0  0  0  0  0  0  0  0
   -0.9551   -1.7252    1.9875 O   0  0  0  0  0  0  0  0  0  0  0  0
   -0.9551   -3.9472    0.6087 H   0  0  0  0  0  0  0  0  0  0  0  0
   -0.9551   -0.6200    0.0556 H   0  0  0  0  0  0  0  0  0  0  0  0
  1  2  2  3
  1 12  1  0
  2  3  1  0
  2  6  1  0
  3  4  1  0
  4  5  2  0
  5  6  1  0
  7  8  1  0
  8  9  2  0
  8 11  1  0
  9 10  2  0
M  RAD  1   7   2
M  END
>  <reaction>  (11) 
rxn_3158

>  <mol_properties>  (11) 
{"0": {"label": "*3", "atom_type": "N3d"}, "1": {"label": "*4", "atom_type": "Cd"}, "7": {"label": "*0", "atom_type": "CO"}, "8": {"label": "*1", "atom_type": "CO"}, "11": {"label": "*2", "atom_type": "H0"}}

>  <type>  (11) 
unop_7

>  <geom_source>  (11) 
Heuristics

$$$$

     RDKit          3D

 12 11  0  0  0  0  0  0  0  0999 V2000
    1.1149    0.6987   -0.1552 N   0  0  0  0  0  0  0  0  0  0  0  0
   -0.0330    1.0923   -0.4172 C   0  0  0  0  0  0  0  0  0  0  0  0
   -0.4221    2.3958   -0.3871 O   0  0  0  0  0  0  0  0  0  0  0  0
   -1.7501    2.4330   -0.7327 N   0  0  0  0  0  0  0  0  0  0  0  0
   -2.1641    1.3048   -0.9564 N   0  0  0  0  0  0  0  0  0  0  0  0
   -1.1456    0.3899   -0.7814 O   0  0  0  0  0  0  0  0  0  0  0  0
    1.1149   -2.7188   -0.7381 O   0  0  0  0  0  1  0  0  0  0  0  0
    1.1149   -2.7188    0.4580 C   0  0  0  0  0  0  0  0  0  0  0  0
    1.1149   -1.4179    1.2537 C   0  0  0  0  0  0  0  0  0  0  0  0
    1.1149   -1.4179    2.4499 O   0  0  0  0  0  0  0  0  0  0  0  0
    1.1149   -3.6399    1.0711 H   0  0  0  0  0  0  0  0  0  0  0  0
    1.1149   -0.3127    0.5180 H   0  0  0  0  0  0  0  0  0  0  0  0
  1  2  2  3
  1 12  1  0
  2  3  1  0
  2  6  1  0
  3  4  1  0
  4  5  2  0
  5  6  1  0
  7  8  1  0
  8  9  2  0
  8 11  1  0
  9 10  2  0
M  RAD  1   7   2
M  END
>  <reaction>  (12) 
rxn_3158

>  <mol_properties>  (12) 
{"0": {"label": "*3", "atom_type": "N3d"}, "1": {"label": "*4", "atom_type": "Cd"}, "7": {"label": "*0", "atom_type": "CO"}, "8": {"label": "*1", "atom_type": "CO"}, "11": {"label": "*2", "atom_type": "H0"}}

>  <type>  (12) 
unop_8

>  <geom_source>  (12) 
Heuristics

$$$$

     RDKit          3D

 12 11  0  0  0  0  0  0  0  0999 V2000
   -0.5650    1.2365    0.6630 N   0  0  0  0  0  0  0  0  0  0  0  0
    0.0089    1.0792   -0.4266 C   0  0  0  0  0  0  0  0  0  0  0  0
    0.4777    2.0959   -1.2000 O   0  0  0  0  0  0  0  0  0  0  0  0
    1.0437    1.5316   -2.3160 N   0  0  0  0  0  0  0  0  0  0  0  0
    0.9530    0.3134   -2.2704 N   0  0  0  0  0  0  0  0  0  0  0  0
    0.3112   -0.0643   -1.1083 O   0  0  0  0  0  0  0  0  0  0  0  0
   -0.5650   -2.1810    0.0801 O   0  0  0  0  0  1  0  0  0  0  0  0
   -0.5650   -2.1810    1.2762 C   0  0  0  0  0  0  0  0  0  0  0  0
   -0.5650   -0.8801    2.0719 C   0  0  0  0  0  0  0  0  0  0  0  0
   -0.5650   -0.8801    3.2680 O   0  0  0  0  0  0  0  0  0  0  0  0
   -0.5650   -3.1021    1.8893 H   0  0  0  0  0  0  0  0  0  0  0  0
   -0.5650    0.2251    1.3362 H   0  0  0  0  0  0  0  0  0  0  0  0
  1  2  2  3
  1 12  1  0
  2  3  1  0
  2  6  1  0
  3  4  1  0
  4  5  2  0
  5  6  1  0
  7  8  1  0
  8  9  2  0
  8 11  1  0
  9 10  2  0
M  RAD  1   7   2
M  END
>  <reaction>  (13) 
rxn_3158

>  <mol_properties>  (13) 
{"0": {"label": "*3", "atom_type": "N3d"}, "1": {"label": "*4", "atom_type": "Cd"}, "7": {"label": "*0", "atom_type": "CO"}, "8": {"label": "*1", "atom_type": "CO"}, "11": {"label": "*2", "atom_type": "H0"}}

>  <type>  (13) 
unop_9

>  <geom_source>  (13) 
Heuristics

$$$$

     RDKit          3D

 12 11  0  0  0  0  0  0  0  0999 V2000
    0.9732    1.0084    0.3147 N   0  0  0  0  0  0  0  0  0  0  0  0
   -0.0209    1.0840   -0.4251 C   0  0  0  0  0  0  0  0  0  0  0  0
   -0.6347    2.2490   -0.7681 O   0  0  0  0  0  0  0  0  0  0  0  0
   -1.6858    1.9292   -1.5910 N   0  0  0  0  0  0  0  0  0  0  0  0
   -1.7440    0.7196   -1.7578 N   0  0  0  0  0  0  0  0  0  0  0  0
   -0.7282    0.1018   -1.0568 O   0  0  0  0  0  0  0  0  0  0  0  0
    0.9732   -2.4091   -0.2682 O   0  0  0  0  0  1  0  0  0  0  0  0
    0.9732   -2.4091    0.9279 C   0  0  0  0  0  0  0  0  0  0  0  0
    0.9732   -1.1081    1.7236 C   0  0  0  0  0  0  0  0  0  0  0  0
    0.9732   -1.1081    2.9197 O   0  0  0  0  0  0  0  0  0  0  0  0
    0.9732   -3.3301    1.5410 H   0  0  0  0  0  0  0  0  0  0  0  0
    0.9732   -0.0029    0.9879 H   0  0  0  0  0  0  0  0  0  0  0  0
  1  2  2  3
  1 12  1  0
  2  3  1  0
  2  6  1  0
  3  4  1  0
  4  5  2  0
  5  6  1  0
  7  8  1  0
  8  9  2  0
  8 11  1  0
  9 10  2  0
M  RAD  1   7   2
M  END
>  <reaction>  (14) 
rxn_3158

>  <mol_properties>  (14) 
{"0": {"label": "*3", "atom_type": "N3d"}, "1": {"label": "*4", "atom_type": "Cd"}, "7": {"label": "*0", "atom_type": "CO"}, "8": {"label": "*1", "atom_type": "CO"}, "11": {"label": "*2", "atom_type": "H0"}}

>  <type>  (14) 
unop_10

>  <geom_source>  (14) 
Heuristics

$$$$

     RDKit          3D

 12 11  0  0  0  0  0  0  0  0999 V2000
   -0.5425    0.1687   -0.9462 N   0  0  0  0  0  0  0  0  0  0  0  0
    0.0314    1.1132   -0.3807 C   0  0  0  0  0  0  0  0  0  0  0  0
   -0.3142    2.4207   -0.5305 O   0  0  0  0  0  0  0  0  0  0  0  0
    0.5428    3.1605    0.2458 N   0  0  0  0  0  0  0  0  0  0  0  0
    1.3363    2.4293    0.8204 N   0  0  0  0  0  0  0  0  0  0  0  0
    1.0881    1.1140    0.4837 O   0  0  0  0  0  0  0  0  0  0  0  0
   -0.5426   -3.2488   -1.5291 O   0  0  0  0  0  1  0  0  0  0  0  0
   -0.5426   -3.2488   -0.3330 C   0  0  0  0  0  0  0  0  0  0  0  0
   -0.5426   -1.9479    0.4627 C   0  0  0  0  0  0  0  0  0  0  0  0
   -0.5426   -1.9479    1.6588 O   0  0  0  0  0  0  0  0  0  0  0  0
   -0.5426   -4.1698    0.2801 H   0  0  0  0  0  0  0  0  0  0  0  0
   -0.5426   -0.8426   -0.2730 H   0  0  0  0  0  0  0  0  0  0  0  0
  1  2  2  3
  1 12  1  0
  2  3  1  0
  2  6  1  0
  3  4  1  0
  4  5  2  0
  5  6  1  0
  7  8  1  0
  8  9  2  0
  8 11  1  0
  9 10  2  0
M  RAD  1   7   2
M  END
>  <reaction>  (15) 
rxn_3158

>  <mol_properties>  (15) 
{"0": {"label": "*3", "atom_type": "N3d"}, "1": {"label": "*4", "atom_type": "Cd"}, "7": {"label": "*0", "atom_type": "CO"}, "8": {"label": "*1", "atom_type": "CO"}, "11": {"label": "*2", "atom_type": "H0"}}

>  <type>  (15) 
unop_11

>  <geom_source>  (15) 
Heuristics

$$$$

     RDKit          3D

 12 11  0  0  0  0  0  0  0  0999 V2000
   -0.0000    1.3202    0.7916 N   0  0  0  0  0  0  0  0  0  0  0  0
    0.0000    1.0778   -0.4260 C   0  0  0  0  0  0  0  0  0  0  0  0
    0.0000    2.0305   -1.3975 O   0  0  0  0  0  0  0  0  0  0  0  0
    0.0000    1.3801   -2.6064 N   0  0  0  0  0  0  0  0  0  0  0  0
    0.0000    0.1692   -2.4390 N   0  0  0  0  0  0  0  0  0  0  0  0
    0.0000   -0.1159   -1.0885 O   0  0  0  0  0  0  0  0  0  0  0  0
   -0.0000   -2.0973    0.2087 O   0  0  0  0  0  1  0  0  0  0  0  0
   -0.0000   -2.0973    1.4048 C   0  0  0  0  0  0  0  0  0  0  0  0
   -0.0000   -0.7963    2.2005 C   0  0  0  0  0  0  0  0  0  0  0  0
   -0.0000   -0.7963    3.3966 O   0  0  0  0  0  0  0  0  0  0  0  0
   -0.0000   -3.0183    2.0179 H   0  0  0  0  0  0  0  0  0  0  0  0
   -0.0000    0.3089    1.4648 H   0  0  0  0  0  0  0  0  0  0  0  0
  1  2  2  3
  1 12  1  0
  2  3  1  0
  2  6  1  0
  3  4  1  0
  4  5  2  0
  5  6  1  0
  7  8  1  0
  8  9  2  0
  8 11  1  0
  9 10  2  0
M  RAD  1   7   2
M  END
>  <reaction>  (16) 
rxn_3158

>  <mol_properties>  (16) 
{"0": {"label": "*3", "atom_type": "N3d"}, "1": {"label": "*4", "atom_type": "Cd"}, "7": {"label": "*0", "atom_type": "CO"}, "8": {"label": "*1", "atom_type": "CO"}, "11": {"label": "*2", "atom_type": "H0"}}

>  <type>  (16) 
unop_12

>  <geom_source>  (16) 
Heuristics

$$$$

     RDKit          3D

 12 11  0  0  0  0  0  0  0  0999 V2000
    0.5650    1.2365    0.6630 N   0  0  0  0  0  0  0  0  0  0  0  0
   -0.0089    1.0793   -0.4266 C   0  0  0  0  0  0  0  0  0  0  0  0
   -0.4777    2.0959   -1.2000 O   0  0  0  0  0  0  0  0  0  0  0  0
   -1.0437    1.5316   -2.3161 N   0  0  0  0  0  0  0  0  0  0  0  0
   -0.9530    0.3134   -2.2704 N   0  0  0  0  0  0  0  0  0  0  0  0
   -0.3112   -0.0643   -1.1083 O   0  0  0  0  0  0  0  0  0  0  0  0
    0.5650   -2.1810    0.0801 O   0  0  0  0  0  1  0  0  0  0  0  0
    0.5650   -2.1810    1.2762 C   0  0  0  0  0  0  0  0  0  0  0  0
    0.5650   -0.8801    2.0719 C   0  0  0  0  0  0  0  0  0  0  0  0
    0.5650   -0.8801    3.2680 O   0  0  0  0  0  0  0  0  0  0  0  0
    0.5650   -3.1021    1.8893 H   0  0  0  0  0  0  0  0  0  0  0  0
    0.5650    0.2251    1.3362 H   0  0  0  0  0  0  0  0  0  0  0  0
  1  2  2  3
  1 12  1  0
  2  3  1  0
  2  6  1  0
  3  4  1  0
  4  5  2  0
  5  6  1  0
  7  8  1  0
  8  9  2  0
  8 11  1  0
  9 10  2  0
M  RAD  1   7   2
M  END
>  <reaction>  (17) 
rxn_3158

>  <mol_properties>  (17) 
{"0": {"label": "*3", "atom_type": "N3d"}, "1": {"label": "*4", "atom_type": "Cd"}, "7": {"label": "*0", "atom_type": "CO"}, "8": {"label": "*1", "atom_type": "CO"}, "11": {"label": "*2", "atom_type": "H0"}}

>  <type>  (17) 
unop_13

>  <geom_source>  (17) 
gaussian_log

$$$$
