
     RDKit          3D

  9  8  0  0  0  0  0  0  0  0999 V2000
   -0.8818   -0.3578    0.1297 C   0  0  0  0  0  0  0  0  0  0  0  0
    0.6153   -0.3021   -0.1188 C   0  0  0  0  0  0  0  0  0  0  0  0
    1.5354   -1.7170    0.5545 S   0  0  0  0  0  0  0  0  0  0  0  0
   -1.1018   -0.3317    1.1984 H   0  0  0  0  0  0  0  0  0  0  0  0
   -1.3114   -1.2723   -0.2799 H   0  0  0  0  0  0  0  0  0  0  0  0
   -1.3767    0.4976   -0.3363 H   0  0  0  0  0  0  0  0  0  0  0  0
    1.0467    0.6194    0.2718 H   0  0  0  0  0  0  0  0  0  0  0  0
    0.8295   -0.3275   -1.1882 H   0  0  0  0  0  0  0  0  0  0  0  0
    1.2306   -1.5077    1.8423 H   0  0  0  0  0  0  0  0  0  0  0  0
  1  2  1  0
  1  4  1  0
  1  5  1  0
  1  6  1  0
  2  3  1  0
  2  7  1  0
  2  8  1  0
  3  9  1  0
M  END
>  <reaction>  (1) 
rxn_1892

>  <mol_properties>  (1) 
{"1": {"label": "donator", "atom_type": "Cs"}, "6": {"label": "d_hydrogen", "atom_type": "H0"}}

>  <type>  (1) 
r1h

$$$$

     RDKit          3D

  7  6  0  0  0  0  0  0  0  0999 V2000
   -1.3496    0.0255    0.0758 C   0  0  0  0  0  0  0  0  0  0  0  0
   -0.0636   -0.0704   -0.0033 C   0  0  0  0  0  0  0  0  0  0  0  0
    1.2597   -0.1602   -0.0839 C   0  0  0  0  0  0  0  0  0  0  0  0
    2.2616    1.2090   -0.0064 S   0  0  0  0  0  1  0  0  0  0  0  0
   -1.8547   -0.0180    1.0345 H   0  0  0  0  0  0  0  0  0  0  0  0
   -1.9552    0.1601   -0.8138 H   0  0  0  0  0  0  0  0  0  0  0  0
    1.7017   -1.1460   -0.2029 H   0  0  0  0  0  0  0  0  0  0  0  0
  1  2  2  0
  1  5  1  0
  1  6  1  0
  2  3  2  0
  3  4  1  0
  3  7  1  0
M  RAD  1   4   2
M  END
>  <reaction>  (2) 
rxn_1892

>  <mol_properties>  (2) 
{"1": {"label": "acceptor", "atom_type": "Cd"}}

>  <type>  (2) 
r2

$$$$

     RDKit          3D

  8  7  0  0  0  0  0  0  0  0999 V2000
   -1.1617    0.0338    0.5053 C   0  0  0  0  0  0  0  0  0  0  0  0
   -0.1023    0.4503   -0.1863 C   0  0  0  0  0  0  0  0  0  0  0  0
    1.0978   -0.3557   -0.3104 C   0  0  0  0  0  0  0  0  0  0  0  0
    2.4251    0.0667   -1.1256 S   0  0  0  0  0  0  0  0  0  0  0  0
   -1.1653   -0.9292    1.0039 H   0  0  0  0  0  0  0  0  0  0  0  0
   -2.0546    0.6389    0.5948 H   0  0  0  0  0  0  0  0  0  0  0  0
   -0.0991    1.4132   -0.6847 H   0  0  0  0  0  0  0  0  0  0  0  0
    1.0601   -1.3180    0.2032 H   0  0  0  0  0  0  0  0  0  0  0  0
  1  2  2  3
  1  5  1  0
  1  6  1  0
  2  3  1  0
  2  7  1  0
  3  4  2  0
  3  8  1  0
M  END
>  <reaction>  (3) 
rxn_1892

>  <mol_properties>  (3) 
{"0": {"label": "a_hydrogen", "atom_type": "H0"}, "2": {"label": "acceptor", "atom_type": "Cd"}}

>  <type>  (3) 
r2h

$$$$

     RDKit          3D

 16 14  0  0  0  0  0  0  0  0999 V2000
   -1.3597   -0.0954   -1.6328 C   0  0  0  0  0  0  0  0  0  0  0  0
   -1.6229   -0.0599   -0.1527 C   0  0  0  0  0  3  0  0  0  0  0  0
   -1.8090    1.4955    0.6496 S   0  0  0  0  0  0  0  0  0  0  0  0
   -0.5147    0.5410   -1.8970 H   0  0  0  0  0  0  0  0  0  0  0  0
   -2.2359    0.2513   -2.1865 H   0  0  0  0  0  0  0  0  0  0  0  0
   -1.1325   -1.1144   -1.9527 H   0  0  0  0  0  0  0  0  0  0  0  0
   -0.5342   -0.6484    0.3704 H   0  0  0  0  0  0  0  0  0  0  0  0
   -2.4184   -0.7247    0.1809 H   0  0  0  0  0  0  0  0  0  0  0  0
   -0.6797    2.0450    0.1753 H   0  0  0  0  0  0  0  0  0  0  0  0
    0.3329   -1.7008    2.0700 C   0  0  0  0  0  0  0  0  0  0  0  0
    0.5594   -1.1611    0.8908 C   0  0  0  0  0  0  0  0  0  0  0  0
    1.6896   -0.8852    0.0821 C   0  0  0  0  0  0  0  0  0  0  0  0
    2.1627    0.6151   -0.3671 S   0  0  0  0  0  0  0  0  0  0  0  0
    1.1432   -2.0173    2.7190 H   0  0  0  0  0  0  0  0  0  0  0  0
   -0.6761   -1.8094    2.4510 H   0  0  0  0  0  0  0  0  0  0  0  0
    2.2216   -1.7523   -0.3125 H   0  0  0  0  0  0  0  0  0  0  0  0
  1  2  1  0
  1  4  1  0
  1  5  1  0
  1  6  1  0
  2  3  1  0
  2  8  1  0
  3  9  1  0
  7 11  1  0
 10 11  2  3
 10 14  1  0
 10 15  1  0
 11 12  1  0
 12 13  2  0
 12 16  1  0
M  RAD  1   2   2
M  END
>  <reaction>  (4) 
rxn_1892

>  <mol_properties>  (4) 
{"1": {"label": "*3", "atom_type": "Cs"}, "2": {"label": "*4", "atom_type": "S2s"}, "6": {"label": "*2", "atom_type": "H0"}, "10": {"label": "*1", "atom_type": "Cd"}, "11": {"label": "*0", "atom_type": "CS"}}

>  <type>  (4) 
ts

$$$$

     RDKit          3D

 16 14  0  0  0  0  0  0  0  0999 V2000
   -0.7308    0.8798   -2.0195 C   0  0  0  0  0  0  0  0  0  0  0  0
   -0.7308    0.8798   -0.5008 C   0  0  0  0  0  3  0  0  0  0  0  0
   -0.7308    2.5371    0.2442 S   0  0  0  0  0  0  0  0  0  0  0  0
    0.1758    1.3452   -2.4102 H   0  0  0  0  0  0  0  0  0  0  0  0
   -1.5868    1.4310   -2.4096 H   0  0  0  0  0  0  0  0  0  0  0  0
   -0.7739   -0.1436   -2.3998 H   0  0  0  0  0  0  0  0  0  0  0  0
    0.2811    0.2004   -0.0267 H   0  0  0  0  0  0  0  0  0  0  0  0
   -1.6384    0.4127   -0.1157 H   0  0  0  0  0  0  0  0  0  0  0  0
    0.4440    2.9388   -0.2594 H   0  0  0  0  0  0  0  0  0  0  0  0
    2.2008    0.0994    1.2261 C   0  0  0  0  0  0  0  0  0  0  0  0
    1.2878   -0.4754    0.4450 C   0  0  0  0  0  0  0  0  0  0  0  0
    0.7116   -1.7687    0.7624 C   0  0  0  0  0  0  0  0  0  0  0  0
   -0.3966   -2.5389   -0.1227 S   0  0  0  0  0  0  0  0  0  0  0  0
    2.5485   -0.3817    2.1336 H   0  0  0  0  0  0  0  0  0  0  0  0
    2.6275    1.0643    0.9848 H   0  0  0  0  0  0  0  0  0  0  0  0
    1.0837   -2.2243    1.6818 H   0  0  0  0  0  0  0  0  0  0  0  0
  1  2  1  0
  1  4  1  0
  1  5  1  0
  1  6  1  0
  2  3  1  0
  2  8  1  0
  3  9  1  0
  7 11  1  0
 10 11  2  3
 10 14  1  0
 10 15  1  0
 11 12  1  0
 12 13  2  0
 12 16  1  0
M  RAD  1   2   2
M  END
>  <reaction>  (5) 
rxn_1892

>  <mol_properties>  (5) 
{"1": {"label": "*3", "atom_type": "Cs"}, "2": {"label": "*4", "atom_type": "S2s"}, "6": {"label": "*2", "atom_type": "H0"}, "10": {"label": "*1", "atom_type": "Cd"}, "11": {"label": "*0", "atom_type": "CS"}}

>  <type>  (5) 
unop_1

>  <geom_source>  (5) 
Heuristics

$$$$

     RDKit          3D

 16 14  0  0  0  0  0  0  0  0999 V2000
   -0.8694    0.4166   -2.6514 C   0  0  0  0  0  0  0  0  0  0  0  0
   -0.8694    0.4166   -1.1327 C   0  0  0  0  0  3  0  0  0  0  0  0
   -0.8694    2.0740   -0.3878 S   0  0  0  0  0  0  0  0  0  0  0  0
    0.0373    0.8820   -3.0422 H   0  0  0  0  0  0  0  0  0  0  0  0
   -1.7253    0.9678   -3.0415 H   0  0  0  0  0  0  0  0  0  0  0  0
   -0.9124   -0.6068   -3.0317 H   0  0  0  0  0  0  0  0  0  0  0  0
    0.1425   -0.2627   -0.6586 H   0  0  0  0  0  0  0  0  0  0  0  0
   -1.7770   -0.0504   -0.7476 H   0  0  0  0  0  0  0  0  0  0  0  0
    0.3054    2.4756   -0.8913 H   0  0  0  0  0  0  0  0  0  0  0  0
    2.2981   -1.0241   -0.8554 C   0  0  0  0  0  0  0  0  0  0  0  0
    1.1493   -0.9386   -0.1869 C   0  0  0  0  0  0  0  0  0  0  0  0
    1.0603   -1.2484    1.2278 C   0  0  0  0  0  0  0  0  0  0  0  0
   -0.2848   -1.1729    2.1166 S   0  0  0  0  0  0  0  0  0  0  0  0
    3.2144   -1.3305   -0.3631 H   0  0  0  0  0  0  0  0  0  0  0  0
    2.3592   -0.7919   -1.9108 H   0  0  0  0  0  0  0  0  0  0  0  0
    2.0002   -1.5531    1.6915 H   0  0  0  0  0  0  0  0  0  0  0  0
  1  2  1  0
  1  4  1  0
  1  5  1  0
  1  6  1  0
  2  3  1  0
  2  8  1  0
  3  9  1  0
  7 11  1  0
 10 11  2  3
 10 14  1  0
 10 15  1  0
 11 12  1  0
 12 13  2  0
 12 16  1  0
M  RAD  1   2   2
M  END
>  <reaction>  (6) 
rxn_1892

>  <mol_properties>  (6) 
{"1": {"label": "*3", "atom_type": "Cs"}, "2": {"label": "*4", "atom_type": "S2s"}, "6": {"label": "*2", "atom_type": "H0"}, "10": {"label": "*1", "atom_type": "Cd"}, "11": {"label": "*0", "atom_type": "CS"}}

>  <type>  (6) 
unop_2

>  <geom_source>  (6) 
Heuristics

$$$$

     RDKit          3D

 16 14  0  0  0  0  0  0  0  0999 V2000
   -0.9439    0.8676   -1.6840 C   0  0  0  0  0  0  0  0  0  0  0  0
   -0.9439    0.8676   -0.1654 C   0  0  0  0  0  3  0  0  0  0  0  0
   -0.9439    2.5250    0.5796 S   0  0  0  0  0  0  0  0  0  0  0  0
   -0.0373    1.3330   -2.0748 H   0  0  0  0  0  0  0  0  0  0  0  0
   -1.7999    1.4188   -2.0741 H   0  0  0  0  0  0  0  0  0  0  0  0
   -0.9870   -0.1558   -2.0643 H   0  0  0  0  0  0  0  0  0  0  0  0
    0.0680    0.1883    0.3088 H   0  0  0  0  0  0  0  0  0  0  0  0
   -1.8515    0.4006    0.2198 H   0  0  0  0  0  0  0  0  0  0  0  0
    0.2309    2.9266    0.0761 H   0  0  0  0  0  0  0  0  0  0  0  0
    1.6299   -0.1746    1.9500 C   0  0  0  0  0  0  0  0  0  0  0  0
    1.0748   -0.4876    0.7805 C   0  0  0  0  0  0  0  0  0  0  0  0
    0.9268   -1.8640    0.3456 C   0  0  0  0  0  0  0  0  0  0  0  0
    0.2687   -2.3357   -1.0505 S   0  0  0  0  0  0  0  0  0  0  0  0
    1.9938   -0.9423    2.6238 H   0  0  0  0  0  0  0  0  0  0  0  0
    1.7379    0.8538    2.2697 H   0  0  0  0  0  0  0  0  0  0  0  0
    1.3033   -2.6105    1.0473 H   0  0  0  0  0  0  0  0  0  0  0  0
  1  2  1  0
  1  4  1  0
  1  5  1  0
  1  6  1  0
  2  3  1  0
  2  8  1  0
  3  9  1  0
  7 11  1  0
 10 11  2  3
 10 14  1  0
 10 15  1  0
 11 12  1  0
 12 13  2  0
 12 16  1  0
M  RAD  1   2   2
M  END
>  <reaction>  (7) 
rxn_1892

>  <mol_properties>  (7) 
{"1": {"label": "*3", "atom_type": "Cs"}, "2": {"label": "*4", "atom_type": "S2s"}, "6": {"label": "*2", "atom_type": "H0"}, "10": {"label": "*1", "atom_type": "Cd"}, "11": {"label": "*0", "atom_type": "CS"}}

>  <type>  (7) 
unop_3

>  <geom_source>  (7) 
Heuristics

$$$$

     RDKit          3D

 16 14  0  0  0  0  0  0  0  0999 V2000
   -1.2155   -0.0963   -2.5350 C   0  0  0  0  0  0  0  0  0  0  0  0
   -1.2155   -0.0963   -1.0163 C   0  0  0  0  0  3  0  0  0  0  0  0
   -1.2155    1.5611   -0.2713 S   0  0  0  0  0  0  0  0  0  0  0  0
   -0.3089    0.3692   -2.9257 H   0  0  0  0  0  0  0  0  0  0  0  0
   -2.0715    0.4549   -2.9251 H   0  0  0  0  0  0  0  0  0  0  0  0
   -1.2586   -1.1196   -2.9153 H   0  0  0  0  0  0  0  0  0  0  0  0
   -0.2036   -0.7756   -0.5422 H   0  0  0  0  0  0  0  0  0  0  0  0
   -2.1231   -0.5633   -0.6312 H   0  0  0  0  0  0  0  0  0  0  0  0
   -0.0407    1.9628   -0.7749 H   0  0  0  0  0  0  0  0  0  0  0  0
    0.9595   -2.7442   -0.3506 C   0  0  0  0  0  0  0  0  0  0  0  0
    0.8031   -1.4515   -0.0705 C   0  0  0  0  0  0  0  0  0  0  0  0
    1.2268   -0.8844    1.1961 C   0  0  0  0  0  0  0  0  0  0  0  0
    1.0777    0.6654    1.6209 S   0  0  0  0  0  0  0  0  0  0  0  0
    1.4122   -3.4240    0.3628 H   0  0  0  0  0  0  0  0  0  0  0  0
    0.6417   -3.1622   -1.2969 H   0  0  0  0  0  0  0  0  0  0  0  0
    1.6780   -1.5959    1.8901 H   0  0  0  0  0  0  0  0  0  0  0  0
  1  2  1  0
  1  4  1  0
  1  5  1  0
  1  6  1  0
  2  3  1  0
  2  8  1  0
  3  9  1  0
  7 11  1  0
 10 11  2  3
 10 14  1  0
 10 15  1  0
 11 12  1  0
 12 13  2  0
 12 16  1  0
M  RAD  1   2   2
M  END
>  <reaction>  (8) 
rxn_1892

>  <mol_properties>  (8) 
{"1": {"label": "*3", "atom_type": "Cs"}, "2": {"label": "*4", "atom_type": "S2s"}, "6": {"label": "*2", "atom_type": "H0"}, "10": {"label": "*1", "atom_type": "Cd"}, "11": {"label": "*0", "atom_type": "CS"}}

>  <type>  (8) 
unop_4

>  <geom_source>  (8) 
Heuristics

$$$$

     RDKit          3D

 16 14  0  0  0  0  0  0  0  0999 V2000
   -1.3812    0.5155   -1.4674 C   0  0  0  0  0  0  0  0  0  0  0  0
   -1.3812    0.5155    0.0512 C   0  0  0  0  0  3  0  0  0  0  0  0
   -1.3812    2.1729    0.7962 S   0  0  0  0  0  0  0  0  0  0  0  0
   -0.4746    0.9809   -1.8582 H   0  0  0  0  0  0  0  0  0  0  0  0
   -2.2372    1.0667   -1.8575 H   0  0  0  0  0  0  0  0  0  0  0  0
   -1.4243   -0.5079   -1.8477 H   0  0  0  0  0  0  0  0  0  0  0  0
   -0.3693   -0.1638    0.5254 H   0  0  0  0  0  0  0  0  0  0  0  0
   -2.2888    0.0484    0.4364 H   0  0  0  0  0  0  0  0  0  0  0  0
   -0.2064    2.5745    0.2927 H   0  0  0  0  0  0  0  0  0  0  0  0
    0.8293   -0.9686    2.3088 C   0  0  0  0  0  0  0  0  0  0  0  0
    0.6374   -0.8397    0.9971 C   0  0  0  0  0  0  0  0  0  0  0  0
    1.5340   -1.4416    0.0280 C   0  0  0  0  0  0  0  0  0  0  0  0
    1.3803   -1.3384   -1.5752 S   0  0  0  0  0  0  0  0  0  0  0  0
    1.6683   -1.5318    2.7023 H   0  0  0  0  0  0  0  0  0  0  0  0
    0.1575   -0.5175    3.0276 H   0  0  0  0  0  0  0  0  0  0  0  0
    2.3670   -2.0008    0.4580 H   0  0  0  0  0  0  0  0  0  0  0  0
  1  2  1  0
  1  4  1  0
  1  5  1  0
  1  6  1  0
  2  3  1  0
  2  8  1  0
  3  9  1  0
  7 11  1  0
 10 11  2  3
 10 14  1  0
 10 15  1  0
 11 12  1  0
 12 13  2  0
 12 16  1  0
M  RAD  1   2   2
M  END
>  <reaction>  (9) 
rxn_1892

>  <mol_properties>  (9) 
{"1": {"label": "*3", "atom_type": "Cs"}, "2": {"label": "*4", "atom_type": "S2s"}, "6": {"label": "*2", "atom_type": "H0"}, "10": {"label": "*1", "atom_type": "Cd"}, "11": {"label": "*0", "atom_type": "CS"}}

>  <type>  (9) 
unop_5

>  <geom_source>  (9) 
Heuristics

$$$$

     RDKit          3D

 16 14  0  0  0  0  0  0  0  0999 V2000
   -1.3500   -0.2207   -2.3189 C   0  0  0  0  0  0  0  0  0  0  0  0
   -1.3500   -0.2207   -0.8003 C   0  0  0  0  0  3  0  0  0  0  0  0
   -1.3500    1.4366   -0.0553 S   0  0  0  0  0  0  0  0  0  0  0  0
   -0.4434    0.2447   -2.7097 H   0  0  0  0  0  0  0  0  0  0  0  0
   -2.2060    0.3305   -2.7091 H   0  0  0  0  0  0  0  0  0  0  0  0
   -1.3931   -1.2441   -2.6992 H   0  0  0  0  0  0  0  0  0  0  0  0
   -0.3381   -0.9001   -0.3262 H   0  0  0  0  0  0  0  0  0  0  0  0
   -2.2576   -0.6878   -0.4152 H   0  0  0  0  0  0  0  0  0  0  0  0
   -0.1752    1.8383   -0.5588 H   0  0  0  0  0  0  0  0  0  0  0  0
    0.5686   -2.8803    0.3961 C   0  0  0  0  0  0  0  0  0  0  0  0
    0.6686   -1.5759    0.1456 C   0  0  0  0  0  0  0  0  0  0  0  0
    1.3491   -0.6707    1.0526 C   0  0  0  0  0  0  0  0  0  0  0  0
    1.5186    0.9190    0.8314 S   0  0  0  0  0  0  0  0  0  0  0  0
    0.9950   -3.3155    1.2931 H   0  0  0  0  0  0  0  0  0  0  0  0
    0.0599   -3.5513   -0.2839 H   0  0  0  0  0  0  0  0  0  0  0  0
    1.7662   -1.1416    1.9447 H   0  0  0  0  0  0  0  0  0  0  0  0
  1  2  1  0
  1  4  1  0
  1  5  1  0
  1  6  1  0
  2  3  1  0
  2  8  1  0
  3  9  1  0
  7 11  1  0
 10 11  2  3
 10 14  1  0
 10 15  1  0
 11 12  1  0
 12 13  2  0
 12 16  1  0
M  RAD  1   2   2
M  END
>  <reaction>  (10) 
rxn_1892

>  <mol_properties>  (10) 
{"1": {"label": "*3", "atom_type": "Cs"}, "2": {"label": "*4", "atom_type": "S2s"}, "6": {"label": "*2", "atom_type": "H0"}, "10": {"label": "*1", "atom_type": "Cd"}, "11": {"label": "*0", "atom_type": "CS"}}

>  <type>  (10) 
unop_6

>  <geom_source>  (10) 
Heuristics

$$$$

     RDKit          3D

 16 14  0  0  0  0  0  0  0  0999 V2000
   -1.4721   -0.2244   -2.0195 C   0  0  0  0  0  0  0  0  0  0  0  0
   -1.4721   -0.2244   -0.5008 C   0  0  0  0  0  3  0  0  0  0  0  0
   -1.4721    1.4330    0.2442 S   0  0  0  0  0  0  0  0  0  0  0  0
   -0.5655    0.2410   -2.4102 H   0  0  0  0  0  0  0  0  0  0  0  0
   -2.3281    0.3268   -2.4096 H   0  0  0  0  0  0  0  0  0  0  0  0
   -1.5152   -1.2477   -2.3998 H   0  0  0  0  0  0  0  0  0  0  0  0
   -0.4602   -0.9037   -0.0267 H   0  0  0  0  0  0  0  0  0  0  0  0
   -2.3797   -0.6914   -0.1157 H   0  0  0  0  0  0  0  0  0  0  0  0
   -0.2973    1.8347   -0.2594 H   0  0  0  0  0  0  0  0  0  0  0  0
    0.3602   -2.6422    1.2261 C   0  0  0  0  0  0  0  0  0  0  0  0
    0.5466   -1.5796    0.4450 C   0  0  0  0  0  0  0  0  0  0  0  0
    1.5253   -0.5566    0.7624 C   0  0  0  0  0  0  0  0  0  0  0  0
    1.8186    0.7607   -0.1227 S   0  0  0  0  0  0  0  0  0  0  0  0
    0.9372   -2.7819    2.1336 H   0  0  0  0  0  0  0  0  0  0  0  0
   -0.3713   -3.4026    0.9848 H   0  0  0  0  0  0  0  0  0  0  0  0
    2.0879   -0.7285    1.6818 H   0  0  0  0  0  0  0  0  0  0  0  0
  1  2  1  0
  1  4  1  0
  1  5  1  0
  1  6  1  0
  2  3  1  0
  2  8  1  0
  3  9  1  0
  7 11  1  0
 10 11  2  3
 10 14  1  0
 10 15  1  0
 11 12  1  0
 12 13  2  0
 12 16  1  0
M  RAD  1   2   2
M  END
>  <reaction>  (11) 
rxn_1892

>  <mol_properties>  (11) 
{"1": {"label": "*3", "atom_type": "Cs"}, "2": {"label": "*4", "atom_type": "S2s"}, "6": {"label": "*2", "atom_type": "H0"}, "10": {"label": "*1", "atom_type": "Cd"}, "11": {"label": "*0", "atom_type": "CS"}}

>  <type>  (11) 
unop_7

>  <geom_source>  (11) 
Heuristics

$$$$

     RDKit          3D

 16 14  0  0  0  0  0  0  0  0999 V2000
   -0.6880    0.7654   -2.3189 C   0  0  0  0  0  0  0  0  0  0  0  0
   -0.6880    0.7654   -0.8003 C   0  0  0  0  0  3  0  0  0  0  0  0
   -0.6880    2.4228   -0.0553 S   0  0  0  0  0  0  0  0  0  0  0  0
    0.2186    1.2308   -2.7097 H   0  0  0  0  0  0  0  0  0  0  0  0
   -1.5440    1.3166   -2.7091 H   0  0  0  0  0  0  0  0  0  0  0  0
   -0.7311   -0.2580   -2.6992 H   0  0  0  0  0  0  0  0  0  0  0  0
    0.3239    0.0861   -0.3262 H   0  0  0  0  0  0  0  0  0  0  0  0
   -1.5956    0.2983   -0.4152 H   0  0  0  0  0  0  0  0  0  0  0  0
    0.4868    2.8244   -0.5588 H   0  0  0  0  0  0  0  0  0  0  0  0
    2.5000   -0.0034    0.3961 C   0  0  0  0  0  0  0  0  0  0  0  0
    1.3307   -0.5898    0.1456 C   0  0  0  0  0  0  0  0  0  0  0  0
    0.7505   -1.5624    1.0526 C   0  0  0  0  0  0  0  0  0  0  0  0
   -0.6567   -2.3212    0.8314 S   0  0  0  0  0  0  0  0  0  0  0  0
    3.0643   -0.2333    1.2931 H   0  0  0  0  0  0  0  0  0  0  0  0
    2.9284    0.7215   -0.2839 H   0  0  0  0  0  0  0  0  0  0  0  0
    1.3442   -1.7701    1.9447 H   0  0  0  0  0  0  0  0  0  0  0  0
  1  2  1  0
  1  4  1  0
  1  5  1  0
  1  6  1  0
  2  3  1  0
  2  8  1  0
  3  9  1  0
  7 11  1  0
 10 11  2  3
 10 14  1  0
 10 15  1  0
 11 12  1  0
 12 13  2  0
 12 16  1  0
M  RAD  1   2   2
M  END
>  <reaction>  (12) 
rxn_1892

>  <mol_properties>  (12) 
{"1": {"label": "*3", "atom_type": "Cs"}, "2": {"label": "*4", "atom_type": "S2s"}, "6": {"label": "*2", "atom_type": "H0"}, "10": {"label": "*1", "atom_type": "Cd"}, "11": {"label": "*0", "atom_type": "CS"}}

>  <type>  (12) 
unop_8

>  <geom_source>  (12) 
Heuristics

$$$$

     RDKit          3D

 16 14  0  0  0  0  0  0  0  0999 V2000
   -1.0959    0.0792   -2.6514 C   0  0  0  0  0  0  0  0  0  0  0  0
   -1.0959    0.0792   -1.1327 C   0  0  0  0  0  3  0  0  0  0  0  0
   -1.0959    1.7366   -0.3878 S   0  0  0  0  0  0  0  0  0  0  0  0
   -0.1892    0.5446   -3.0422 H   0  0  0  0  0  0  0  0  0  0  0  0
   -1.9518    0.6304   -3.0415 H   0  0  0  0  0  0  0  0  0  0  0  0
   -1.1389   -0.9442   -3.0317 H   0  0  0  0  0  0  0  0  0  0  0  0
   -0.0840   -0.6001   -0.6586 H   0  0  0  0  0  0  0  0  0  0  0  0
   -2.0035   -0.3879   -0.7476 H   0  0  0  0  0  0  0  0  0  0  0  0
    0.0789    2.1382   -0.8913 H   0  0  0  0  0  0  0  0  0  0  0  0
    1.4369   -2.3069   -0.8554 C   0  0  0  0  0  0  0  0  0  0  0  0
    0.9228   -1.2760   -0.1869 C   0  0  0  0  0  0  0  0  0  0  0  0
    1.1758   -1.0763    1.2278 C   0  0  0  0  0  0  0  0  0  0  0  0
    0.5966    0.1400    2.1166 S   0  0  0  0  0  0  0  0  0  0  0  0
    2.0674   -3.0390   -0.3631 H   0  0  0  0  0  0  0  0  0  0  0  0
    1.2451   -2.4514   -1.9108 H   0  0  0  0  0  0  0  0  0  0  0  0
    1.8137   -1.8310    1.6915 H   0  0  0  0  0  0  0  0  0  0  0  0
  1  2  1  0
  1  4  1  0
  1  5  1  0
  1  6  1  0
  2  3  1  0
  2  8  1  0
  3  9  1  0
  7 11  1  0
 10 11  2  3
 10 14  1  0
 10 15  1  0
 11 12  1  0
 12 13  2  0
 12 16  1  0
M  RAD  1   2   2
M  END
>  <reaction>  (13) 
rxn_1892

>  <mol_properties>  (13) 
{"1": {"label": "*3", "atom_type": "Cs"}, "2": {"label": "*4", "atom_type": "S2s"}, "6": {"label": "*2", "atom_type": "H0"}, "10": {"label": "*1", "atom_type": "Cd"}, "11": {"label": "*0", "atom_type": "CS"}}

>  <type>  (13) 
unop_9

>  <geom_source>  (13) 
Heuristics

$$$$

     RDKit          3D

 16 14  0  0  0  0  0  0  0  0999 V2000
   -0.7523    0.5938   -2.5350 C   0  0  0  0  0  0  0  0  0  0  0  0
   -0.7523    0.5938   -1.0163 C   0  0  0  0  0  3  0  0  0  0  0  0
   -0.7523    2.2511   -0.2713 S   0  0  0  0  0  0  0  0  0  0  0  0
    0.1544    1.0592   -2.9257 H   0  0  0  0  0  0  0  0  0  0  0  0
   -1.6082    1.1450   -2.9251 H   0  0  0  0  0  0  0  0  0  0  0  0
   -0.7954   -0.4296   -2.9153 H   0  0  0  0  0  0  0  0  0  0  0  0
    0.2596   -0.0855   -0.5422 H   0  0  0  0  0  0  0  0  0  0  0  0
   -1.6599    0.1267   -0.6312 H   0  0  0  0  0  0  0  0  0  0  0  0
    0.4225    2.6528   -0.7749 H   0  0  0  0  0  0  0  0  0  0  0  0
    2.5221   -0.4167   -0.3506 C   0  0  0  0  0  0  0  0  0  0  0  0
    1.2664   -0.7614   -0.0705 C   0  0  0  0  0  0  0  0  0  0  0  0
    0.9020   -1.3683    1.1961 C   0  0  0  0  0  0  0  0  0  0  0  0
   -0.5890   -1.8171    1.6209 S   0  0  0  0  0  0  0  0  0  0  0  0
    3.3226   -0.5783    0.3628 H   0  0  0  0  0  0  0  0  0  0  0  0
    2.7886    0.0358   -1.2969 H   0  0  0  0  0  0  0  0  0  0  0  0
    1.7313   -1.5165    1.8901 H   0  0  0  0  0  0  0  0  0  0  0  0
  1  2  1  0
  1  4  1  0
  1  5  1  0
  1  6  1  0
  2  3  1  0
  2  8  1  0
  3  9  1  0
  7 11  1  0
 10 11  2  3
 10 14  1  0
 10 15  1  0
 11 12  1  0
 12 13  2  0
 12 16  1  0
M  RAD  1   2   2
M  END
>  <reaction>  (14) 
rxn_1892

>  <mol_properties>  (14) 
{"1": {"label": "*3", "atom_type": "Cs"}, "2": {"label": "*4", "atom_type": "S2s"}, "6": {"label": "*2", "atom_type": "H0"}, "10": {"label": "*1", "atom_type": "Cd"}, "11": {"label": "*0", "atom_type": "CS"}}

>  <type>  (14) 
unop_10

>  <geom_source>  (14) 
Heuristics

$$$$

     RDKit          3D

 16 14  0  0  0  0  0  0  0  0999 V2000
   -1.5415   -0.0226   -1.6840 C   0  0  0  0  0  0  0  0  0  0  0  0
   -1.5415   -0.0226   -0.1654 C   0  0  0  0  0  3  0  0  0  0  0  0
   -1.5415    1.6348    0.5796 S   0  0  0  0  0  0  0  0  0  0  0  0
   -0.6349    0.4428   -2.0748 H   0  0  0  0  0  0  0  0  0  0  0  0
   -2.3975    0.5286   -2.0741 H   0  0  0  0  0  0  0  0  0  0  0  0
   -1.5846   -1.0459   -2.0643 H   0  0  0  0  0  0  0  0  0  0  0  0
   -0.5296   -0.7019    0.3088 H   0  0  0  0  0  0  0  0  0  0  0  0
   -2.4491   -0.4896    0.2198 H   0  0  0  0  0  0  0  0  0  0  0  0
   -0.3667    2.0365    0.0761 H   0  0  0  0  0  0  0  0  0  0  0  0
    0.3976   -2.0102    1.9500 C   0  0  0  0  0  0  0  0  0  0  0  0
    0.4771   -1.3778    0.7805 C   0  0  0  0  0  0  0  0  0  0  0  0
    1.6950   -0.7197    0.3456 C   0  0  0  0  0  0  0  0  0  0  0  0
    1.8824    0.0680   -1.0505 S   0  0  0  0  0  0  0  0  0  0  0  0
    1.2460   -2.0562    2.6238 H   0  0  0  0  0  0  0  0  0  0  0  0
   -0.5133   -2.4995    2.2697 H   0  0  0  0  0  0  0  0  0  0  0  0
    2.5285   -0.7855    1.0473 H   0  0  0  0  0  0  0  0  0  0  0  0
  1  2  1  0
  1  4  1  0
  1  5  1  0
  1  6  1  0
  2  3  1  0
  2  8  1  0
  3  9  1  0
  7 11  1  0
 10 11  2  3
 10 14  1  0
 10 15  1  0
 11 12  1  0
 12 13  2  0
 12 16  1  0
M  RAD  1   2   2
M  END
>  <reaction>  (15) 
rxn_1892

>  <mol_properties>  (15) 
{"1": {"label": "*3", "atom_type": "Cs"}, "2": {"label": "*4", "atom_type": "S2s"}, "6": {"label": "*2", "atom_type": "H0"}, "10": {"label": "*1", "atom_type": "Cd"}, "11": {"label": "*0", "atom_type": "CS"}}

>  <type>  (15) 
unop_11

>  <geom_source>  (15) 
Heuristics

$$$$

     RDKit          3D

 16 14  0  0  0  0  0  0  0  0999 V2000
   -0.9880    0.2515   -2.6850 C   0  0  0  0  0  0  0  0  0  0  0  0
   -0.9880    0.2515   -1.1664 C   0  0  0  0  0  3  0  0  0  0  0  0
   -0.9880    1.9088   -0.4214 S   0  0  0  0  0  0  0  0  0  0  0  0
   -0.0813    0.7169   -3.0758 H   0  0  0  0  0  0  0  0  0  0  0  0
   -1.8439    0.8027   -3.0751 H   0  0  0  0  0  0  0  0  0  0  0  0
   -1.0310   -0.7719   -3.0653 H   0  0  0  0  0  0  0  0  0  0  0  0
    0.0240   -0.4279   -0.6922 H   0  0  0  0  0  0  0  0  0  0  0  0
   -1.8956   -0.2156   -0.7812 H   0  0  0  0  0  0  0  0  0  0  0  0
    0.1868    2.3105   -0.9249 H   0  0  0  0  0  0  0  0  0  0  0  0
    1.9081   -1.6928   -1.0312 C   0  0  0  0  0  0  0  0  0  0  0  0
    1.0307   -1.1037   -0.2205 C   0  0  0  0  0  0  0  0  0  0  0  0
    1.1479   -1.1824    1.2236 C   0  0  0  0  0  0  0  0  0  0  0  0
    0.1350   -0.5024    2.2802 S   0  0  0  0  0  0  0  0  0  0  0  0
    2.7473   -2.2562   -0.6384 H   0  0  0  0  0  0  0  0  0  0  0  0
    1.8162   -1.6310   -2.1078 H   0  0  0  0  0  0  0  0  0  0  0  0
    2.0031   -1.7566    1.5845 H   0  0  0  0  0  0  0  0  0  0  0  0
  1  2  1  0
  1  4  1  0
  1  5  1  0
  1  6  1  0
  2  3  1  0
  2  8  1  0
  3  9  1  0
  7 11  1  0
 10 11  2  3
 10 14  1  0
 10 15  1  0
 11 12  1  0
 12 13  2  0
 12 16  1  0
M  RAD  1   2   2
M  END
>  <reaction>  (16) 
rxn_1892

>  <mol_properties>  (16) 
{"1": {"label": "*3", "atom_type": "Cs"}, "2": {"label": "*4", "atom_type": "S2s"}, "6": {"label": "*2", "atom_type": "H0"}, "10": {"label": "*1", "atom_type": "Cd"}, "11": {"label": "*0", "atom_type": "CS"}}

>  <type>  (16) 
unop_12

>  <geom_source>  (16) 
Heuristics

$$$$

     RDKit          3D

 16 14  0  0  0  0  0  0  0  0999 V2000
   -1.7955    0.5619    1.1737 S   0  0  0  0  0  0  0  0  0  0  0  0
    3.2804    1.5671    0.6865 S   0  0  0  0  0  0  0  0  0  0  0  0
   -1.9404    0.3517   -1.5597 C   0  0  0  0  0  0  0  0  0  0  0  0
   -1.2494   -0.2601   -0.3528 C   0  0  0  0  0  3  0  0  0  0  0  0
    1.2507   -0.2505    0.3751 C   0  0  0  0  0  0  0  0  0  0  0  0
    1.8631    1.0499    0.0444 C   0  0  0  0  0  0  0  0  0  0  0  0
    1.7844   -1.1292    1.2230 C   0  0  0  0  0  0  0  0  0  0  0  0
   -1.5879   -0.1552   -2.4819 H   0  0  0  0  0  0  0  0  0  0  0  0
   -1.6939    1.4320   -1.6296 H   0  0  0  0  0  0  0  0  0  0  0  0
   -3.0410    0.2271   -1.4766 H   0  0  0  0  0  0  0  0  0  0  0  0
    0.1866   -0.5347   -0.1658 H   0  0  0  0  0  0  0  0  0  0  0  0
   -1.4804   -1.3448   -0.2935 H   0  0  0  0  0  0  0  0  0  0  0  0
    1.3515    1.6949   -0.6570 H   0  0  0  0  0  0  0  0  0  0  0  0
    1.2742   -2.0638    1.4145 H   0  0  0  0  0  0  0  0  0  0  0  0
    2.7196   -0.9406    1.7329 H   0  0  0  0  0  0  0  0  0  0  0  0
   -0.9221   -0.2057    1.9667 H   0  0  0  0  0  0  0  0  0  0  0  0
  1  4  1  0
  1 16  1  0
  2  6  2  0
  3  4  1  0
  3  8  1  0
  3  9  1  0
  3 10  1  0
  4 12  1  0
  5  7  2  3
  5  6  1  0
  5 11  1  0
  6 13  1  0
  7 14  1  0
  7 15  1  0
M  RAD  1   4   2
M  END
>  <reaction>  (17) 
rxn_1892

>  <mol_properties>  (17) 
{"1": {"label": "*3", "atom_type": "Cs"}, "2": {"label": "*4", "atom_type": "S2s"}, "6": {"label": "*2", "atom_type": "H0"}, "10": {"label": "*1", "atom_type": "Cd"}, "11": {"label": "*0", "atom_type": "CS"}}

>  <type>  (17) 
unop_13

>  <geom_source>  (17) 
AutoTST

$$$$
