
     RDKit          3D

 25 26  0  0  0  0  0  0  0  0999 V2000
    2.0298   -1.1515    0.0571 C   0  0  0  0  0  0  0  0  0  0  0  0
    2.2278    0.2445    0.6528 C   0  0  0  0  0  0  0  0  0  0  0  0
    1.2292    1.2625    0.0947 C   0  0  0  0  0  0  0  0  0  0  0  0
   -0.1869    0.7454    0.2762 C   0  0  0  0  0  0  0  0  0  0  0  0
   -1.3415    1.5501   -0.3122 C   0  0  0  0  0  0  0  0  0  0  0  0
   -2.5060    0.5338   -0.4178 C   0  0  0  0  0  0  0  0  0  0  0  0
   -1.8709   -0.8658   -0.2234 C   0  0  0  0  0  0  0  0  0  0  0  0
   -0.3715   -0.6265   -0.3693 C   0  0  0  0  0  0  0  0  0  0  0  0
    0.5898   -1.6500    0.2086 C   0  0  0  0  0  0  0  0  0  0  0  0
    2.2820   -1.1226   -1.0088 H   0  0  0  0  0  0  0  0  0  0  0  0
    2.7243   -1.8549    0.5221 H   0  0  0  0  0  0  0  0  0  0  0  0
    2.1030    0.1885    1.7400 H   0  0  0  0  0  0  0  0  0  0  0  0
    3.2514    0.5819    0.4743 H   0  0  0  0  0  0  0  0  0  0  0  0
    1.3611    2.2304    0.5855 H   0  0  0  0  0  0  0  0  0  0  0  0
    1.4198    1.4194   -0.9737 H   0  0  0  0  0  0  0  0  0  0  0  0
   -0.3675    0.6209    1.3539 H   0  0  0  0  0  0  0  0  0  0  0  0
   -1.5992    2.4249    0.2862 H   0  0  0  0  0  0  0  0  0  0  0  0
   -1.0595    1.9116   -1.3055 H   0  0  0  0  0  0  0  0  0  0  0  0
   -3.2666    0.7244    0.3399 H   0  0  0  0  0  0  0  0  0  0  0  0
   -3.0030    0.6112   -1.3853 H   0  0  0  0  0  0  0  0  0  0  0  0
   -2.2549   -1.6039   -0.9288 H   0  0  0  0  0  0  0  0  0  0  0  0
   -2.0796   -1.2429    0.7821 H   0  0  0  0  0  0  0  0  0  0  0  0
   -0.1432   -0.5121   -1.4391 H   0  0  0  0  0  0  0  0  0  0  0  0
    0.4720   -2.6209   -0.2799 H   0  0  0  0  0  0  0  0  0  0  0  0
    0.3601   -1.7986    1.2704 H   0  0  0  0  0  0  0  0  0  0  0  0
  1  2  1  0
  1  9  1  0
  1 10  1  0
  1 11  1  0
  2  3  1  0
  2 12  1  0
  2 13  1  0
  3  4  1  0
  3 14  1  0
  3 15  1  0
  4  5  1  0
  4  8  1  0
  4 16  1  0
  5  6  1  0
  5 17  1  0
  5 18  1  0
  6  7  1  0
  6 19  1  0
  6 20  1  0
  7  8  1  0
  7 21  1  0
  7 22  1  0
  8  9  1  0
  8 23  1  0
  9 24  1  0
  9 25  1  0
M  END
>  <reaction>  (1) 
rxn_596

>  <mol_properties>  (1) 
{"2": {"label": "donator", "atom_type": "Cs"}, "12": {"label": "d_hydrogen", "atom_type": "H0"}}

>  <type>  (1) 
r1h

$$$$

     RDKit          3D

  9  8  0  0  0  0  0  0  0  0999 V2000
    1.8963   -0.1405   -0.2150 C   0  0  0  0  0  0  0  0  0  0  0  0
    0.6340    0.1486   -0.2254 C   0  0  0  0  0  3  0  0  0  0  0  0
   -0.6770    0.4501   -0.2373 C   0  0  0  0  0  0  0  0  0  0  0  0
   -1.6600   -0.2303    0.4662 C   0  0  0  0  0  0  0  0  0  0  0  0
    2.3274   -0.8354   -0.9313 H   0  0  0  0  0  0  0  0  0  0  0  0
    2.5751    0.2988    0.5117 H   0  0  0  0  0  0  0  0  0  0  0  0
   -0.9723    1.2966   -0.8520 H   0  0  0  0  0  0  0  0  0  0  0  0
   -2.6934    0.0777    0.4015 H   0  0  0  0  0  0  0  0  0  0  0  0
   -1.4140   -1.0782    1.0904 H   0  0  0  0  0  0  0  0  0  0  0  0
  1  2  2  3
  1  5  1  0
  1  6  1  0
  2  3  1  0
  3  4  2  3
  3  7  1  0
  4  8  1  0
  4  9  1  0
M  RAD  1   2   2
M  END
>  <reaction>  (2) 
rxn_596

>  <mol_properties>  (2) 
{"3": {"label": "acceptor", "atom_type": "Cd"}}

>  <type>  (2) 
r2

$$$$

     RDKit          3D

 10  9  0  0  0  0  0  0  0  0999 V2000
    1.8334    0.0847   -0.1062 C   0  0  0  0  0  0  0  0  0  0  0  0
    0.5993   -0.4071   -0.0750 C   0  0  0  0  0  0  0  0  0  0  0  0
   -0.5993    0.4071    0.0750 C   0  0  0  0  0  0  0  0  0  0  0  0
   -1.8334   -0.0847    0.1062 C   0  0  0  0  0  0  0  0  0  0  0  0
    2.0179    1.1498   -0.0189 H   0  0  0  0  0  0  0  0  0  0  0  0
    2.6972   -0.5572   -0.2194 H   0  0  0  0  0  0  0  0  0  0  0  0
    0.4465   -1.4793   -0.1649 H   0  0  0  0  0  0  0  0  0  0  0  0
   -0.4465    1.4793    0.1649 H   0  0  0  0  0  0  0  0  0  0  0  0
   -2.0179   -1.1498    0.0189 H   0  0  0  0  0  0  0  0  0  0  0  0
   -2.6972    0.5572    0.2194 H   0  0  0  0  0  0  0  0  0  0  0  0
  1  2  2  3
  1  5  1  0
  1  6  1  0
  2  3  1  0
  2  7  1  0
  3  4  2  3
  3  8  1  0
  4  9  1  0
  4 10  1  0
M  END
>  <reaction>  (3) 
rxn_596

>  <mol_properties>  (3) 
{"3": {"label": "acceptor", "atom_type": "Cd"}, "4": {"label": "a_hydrogen", "atom_type": "H0"}}

>  <type>  (3) 
r2h

$$$$

     RDKit          3D

 34 34  0  0  0  0  0  0  0  0999 V2000
   -0.8554    0.7072   -0.4955 C   0  0  1  0  0  0  0  0  0  0  0  0
   -0.8251    0.2867    0.9733 C   0  0  1  0  0  0  0  0  0  0  0  0
    0.4752    1.4048   -0.6712 C   0  0  0  0  0  0  0  0  0  0  0  0
   -1.1894   -0.4684   -1.4196 C   0  0  0  0  0  0  0  0  0  0  0  0
   -0.1943    1.4890    1.6805 C   0  0  0  0  0  0  0  0  0  0  0  0
   -2.2021   -0.1689    1.4576 C   0  0  0  0  0  0  0  0  0  0  0  0
    0.7699    2.1192    0.6445 C   0  0  0  0  0  0  0  0  0  0  0  0
   -2.0846   -1.4978   -0.7045 C   0  0  0  0  0  0  0  0  0  0  0  0
   -3.0031   -0.8322    0.3191 C   0  0  0  0  0  0  0  0  0  0  0  0
    3.0227   -1.1510   -0.0211 C   0  0  0  0  0  0  0  0  0  0  0  0
    2.7844   -0.9571    1.2724 C   0  0  0  0  0  0  0  0  0  0  0  0
    2.6319   -0.5396   -2.4043 C   0  0  0  0  0  0  0  0  0  0  0  0
    2.3884   -0.4403   -1.1104 C   0  0  0  0  0  3  0  0  0  0  0  0
   -1.6447    1.4682   -0.5966 H   0  0  0  0  0  0  0  0  0  0  0  0
   -0.1315   -0.5597    1.0416 H   0  0  0  0  0  0  0  0  0  0  0  0
    0.5992    1.9998   -1.5758 H   0  0  0  0  0  0  0  0  0  0  0  0
    1.3620    0.5003   -0.8090 H   0  0  0  0  0  0  0  0  0  0  0  0
    1.8178    2.0001    0.9298 H   0  0  0  0  0  0  0  0  0  0  0  0
    0.5992    3.1943    0.5561 H   0  0  0  0  0  0  0  0  0  0  0  0
   -1.6903   -0.0988   -2.3179 H   0  0  0  0  0  0  0  0  0  0  0  0
   -0.2692   -0.9540   -1.7508 H   0  0  0  0  0  0  0  0  0  0  0  0
    0.3079    1.2149    2.6100 H   0  0  0  0  0  0  0  0  0  0  0  0
   -0.9780    2.2039    1.9446 H   0  0  0  0  0  0  0  0  0  0  0  0
   -2.0888   -0.8654    2.2919 H   0  0  0  0  0  0  0  0  0  0  0  0
   -2.7604    0.6888    1.8439 H   0  0  0  0  0  0  0  0  0  0  0  0
   -1.4589   -2.2343   -0.1918 H   0  0  0  0  0  0  0  0  0  0  0  0
   -2.6727   -2.0537   -1.4371 H   0  0  0  0  0  0  0  0  0  0  0  0
   -3.7062   -1.5593    0.7294 H   0  0  0  0  0  0  0  0  0  0  0  0
   -3.6079   -0.0773   -0.1926 H   0  0  0  0  0  0  0  0  0  0  0  0
    3.7557   -1.9033   -0.3150 H   0  0  0  0  0  0  0  0  0  0  0  0
    2.0683   -0.2208    1.6143 H   0  0  0  0  0  0  0  0  0  0  0  0
    3.3046   -1.5299    2.0289 H   0  0  0  0  0  0  0  0  0  0  0  0
    3.3953   -1.2115   -2.7929 H   0  0  0  0  0  0  0  0  0  0  0  0
    2.0806    0.0459   -3.1319 H   0  0  0  0  0  0  0  0  0  0  0  0
  1  4  1  0
  1  3  1  0
  1  2  1  0
  1 14  1  1
  2  6  1  0
  2  5  1  0
  2 15  1  6
  3  7  1  0
  3 16  1  0
  3 17  1  0
  4  8  1  0
  4 20  1  0
  4 21  1  0
  5  7  1  0
  5 22  1  0
  5 23  1  0
  6  9  1  0
  6 24  1  0
  6 25  1  0
  7 18  1  0
  7 19  1  0
  8  9  1  0
  8 26  1  0
  8 27  1  0
  9 28  1  0
  9 29  1  0
 10 11  2  3
 10 13  1  0
 10 30  1  0
 11 31  1  0
 11 32  1  0
 12 13  2  3
 12 33  1  0
 12 34  1  0
M  RAD  1  13   2
M  END
>  <reaction>  (4) 
rxn_596

>  <mol_properties>  (4) 
{"0": {"label": "*0", "atom_type": "Cs"}, "2": {"label": "*1", "atom_type": "Cs"}, "9": {"label": "*4", "atom_type": "Cd"}, "12": {"label": "*3", "atom_type": "Cd"}, "16": {"label": "*2", "atom_type": "H0"}}

>  <type>  (4) 
ts

$$$$

     RDKit          3D

 34 34  0  0  0  0  0  0  0  0999 V2000
   -1.6861    0.7815    0.8688 C   0  0  0  0  0  0  0  0  0  0  0  0
   -0.3324    0.0390    0.7793 C   0  0  0  0  0  0  0  0  0  0  0  0
   -2.5553    0.5820   -0.3904 C   0  0  0  0  0  0  0  0  0  0  0  0
   -1.3312    2.2527    1.0739 C   0  0  0  0  0  0  0  0  0  0  0  0
   -0.2653   -0.9922   -0.3640 C   0  0  0  0  0  0  0  0  0  0  0  0
   -2.8019   -0.9100   -0.6767 C   0  0  0  0  0  0  0  0  0  0  0  0
   -1.5644   -1.8012   -0.4332 C   0  0  0  0  0  0  0  0  0  0  0  0
    0.0377    2.4347    0.4451 C   0  0  0  0  0  0  0  0  0  0  0  0
    0.7508    1.1026    0.5998 C   0  0  0  0  0  3  0  0  0  0  0  0
    3.1537   -1.1244   -1.0758 C   0  0  0  0  0  0  0  0  0  0  0  0
    2.5867   -0.6354    0.1895 C   0  0  0  0  0  0  0  0  0  0  0  0
    3.0054   -0.4363   -2.2033 C   0  0  0  0  0  0  0  0  0  0  0  0
    2.7320   -1.3194    1.3198 C   0  0  0  0  0  0  0  0  0  0  0  0
   -2.2611    0.4145    1.7491 H   0  0  0  0  0  0  0  0  0  0  0  0
   -0.1577   -0.4942    1.7417 H   0  0  0  0  0  0  0  0  0  0  0  0
   -2.0542    1.0428   -1.2707 H   0  0  0  0  0  0  0  0  0  0  0  0
   -3.5338    1.0930   -0.2573 H   0  0  0  0  0  0  0  0  0  0  0  0
   -3.6362   -1.2705   -0.0359 H   0  0  0  0  0  0  0  0  0  0  0  0
   -3.1313   -1.0154   -1.7334 H   0  0  0  0  0  0  0  0  0  0  0  0
   -2.0772    2.9457    0.6264 H   0  0  0  0  0  0  0  0  0  0  0  0
   -1.2611    2.4655    2.1638 H   0  0  0  0  0  0  0  0  0  0  0  0
   -1.4841   -2.5568   -1.2446 H   0  0  0  0  0  0  0  0  0  0  0  0
   -1.6913   -2.3546    0.5236 H   0  0  0  0  0  0  0  0  0  0  0  0
    0.5906   -1.6807   -0.1923 H   0  0  0  0  0  0  0  0  0  0  0  0
   -0.1007   -0.4855   -1.3412 H   0  0  0  0  0  0  0  0  0  0  0  0
   -0.0730    2.6576   -0.6379 H   0  0  0  0  0  0  0  0  0  0  0  0
    0.6019    3.2585    0.9334 H   0  0  0  0  0  0  0  0  0  0  0  0
    1.4111    1.1284    1.4947 H   0  0  0  0  0  0  0  0  0  0  0  0
    3.7023   -2.0589   -1.0979 H   0  0  0  0  0  0  0  0  0  0  0  0
    1.9545    0.4428    0.2120 H   0  0  0  0  0  0  0  0  0  0  0  0
    2.4640    0.5016   -2.2216 H   0  0  0  0  0  0  0  0  0  0  0  0
    3.4298   -0.8117   -3.1255 H   0  0  0  0  0  0  0  0  0  0  0  0
    2.3052   -0.9381    2.2377 H   0  0  0  0  0  0  0  0  0  0  0  0
    3.2726   -2.2577    1.3431 H   0  0  0  0  0  0  0  0  0  0  0  0
  1  3  1  0
  1  4  1  0
  1  2  1  0
  1 14  1  0
  2  5  1  0
  2  9  1  0
  2 15  1  0
  3  6  1  0
  3 16  1  0
  3 17  1  0
  4  8  1  0
  4 20  1  0
  4 21  1  0
  5  7  1  0
  5 24  1  0
  5 25  1  0
  6  7  1  0
  6 18  1  0
  6 19  1  0
  7 22  1  0
  7 23  1  0
  8  9  1  0
  8 26  1  0
  8 27  1  0
  9 28  1  0
 10 12  2  3
 10 11  1  0
 10 29  1  0
 11 13  2  3
 11 30  1  0
 12 31  1  0
 12 32  1  0
 13 33  1  0
 13 34  1  0
M  RAD  1   9   2
M  END
>  <reaction>  (5) 
rxn_596

>  <mol_properties>  (5) 
{"0": {"label": "*0", "atom_type": "Cs"}, "2": {"label": "*1", "atom_type": "Cs"}, "9": {"label": "*4", "atom_type": "Cd"}, "12": {"label": "*3", "atom_type": "Cd"}, "16": {"label": "*2", "atom_type": "H0"}}

>  <type>  (5) 
unop_1

>  <geom_source>  (5) 
AutoTST

$$$$

     RDKit          3D

 34 34  0  0  0  0  0  0  0  0999 V2000
   -1.6861    0.7815    0.8688 C   0  0  0  0  0  0  0  0  0  0  0  0
   -0.3324    0.0390    0.7793 C   0  0  0  0  0  0  0  0  0  0  0  0
   -2.5553    0.5820   -0.3904 C   0  0  0  0  0  0  0  0  0  0  0  0
   -1.3312    2.2527    1.0739 C   0  0  0  0  0  0  0  0  0  0  0  0
   -0.2653   -0.9922   -0.3640 C   0  0  0  0  0  0  0  0  0  0  0  0
   -2.8019   -0.9100   -0.6767 C   0  0  0  0  0  0  0  0  0  0  0  0
   -1.5644   -1.8012   -0.4332 C   0  0  0  0  0  0  0  0  0  0  0  0
    0.0377    2.4347    0.4451 C   0  0  0  0  0  0  0  0  0  0  0  0
    0.7508    1.1026    0.5998 C   0  0  0  0  0  3  0  0  0  0  0  0
    3.1537   -1.1244   -1.0758 C   0  0  0  0  0  0  0  0  0  0  0  0
    2.5867   -0.6354    0.1895 C   0  0  0  0  0  0  0  0  0  0  0  0
    3.0054   -0.4363   -2.2033 C   0  0  0  0  0  0  0  0  0  0  0  0
    2.7320   -1.3194    1.3198 C   0  0  0  0  0  0  0  0  0  0  0  0
   -2.2611    0.4145    1.7491 H   0  0  0  0  0  0  0  0  0  0  0  0
   -0.1577   -0.4942    1.7417 H   0  0  0  0  0  0  0  0  0  0  0  0
   -2.0542    1.0428   -1.2707 H   0  0  0  0  0  0  0  0  0  0  0  0
   -3.5338    1.0930   -0.2573 H   0  0  0  0  0  0  0  0  0  0  0  0
   -3.6362   -1.2705   -0.0359 H   0  0  0  0  0  0  0  0  0  0  0  0
   -3.1313   -1.0154   -1.7334 H   0  0  0  0  0  0  0  0  0  0  0  0
   -2.0772    2.9457    0.6264 H   0  0  0  0  0  0  0  0  0  0  0  0
   -1.2611    2.4655    2.1638 H   0  0  0  0  0  0  0  0  0  0  0  0
   -1.4841   -2.5568   -1.2446 H   0  0  0  0  0  0  0  0  0  0  0  0
   -1.6913   -2.3546    0.5236 H   0  0  0  0  0  0  0  0  0  0  0  0
    0.5906   -1.6807   -0.1923 H   0  0  0  0  0  0  0  0  0  0  0  0
   -0.1007   -0.4855   -1.3412 H   0  0  0  0  0  0  0  0  0  0  0  0
   -0.0730    2.6576   -0.6379 H   0  0  0  0  0  0  0  0  0  0  0  0
    0.6019    3.2585    0.9334 H   0  0  0  0  0  0  0  0  0  0  0  0
    1.4111    1.1284    1.4947 H   0  0  0  0  0  0  0  0  0  0  0  0
    3.7023   -2.0589   -1.0979 H   0  0  0  0  0  0  0  0  0  0  0  0
    1.9545    0.4428    0.2120 H   0  0  0  0  0  0  0  0  0  0  0  0
    2.4640    0.5016   -2.2216 H   0  0  0  0  0  0  0  0  0  0  0  0
    3.4298   -0.8117   -3.1255 H   0  0  0  0  0  0  0  0  0  0  0  0
    2.3052   -0.9381    2.2377 H   0  0  0  0  0  0  0  0  0  0  0  0
    3.2726   -2.2577    1.3431 H   0  0  0  0  0  0  0  0  0  0  0  0
  1  3  1  0
  1  4  1  0
  1  2  1  0
  1 14  1  0
  2  5  1  0
  2  9  1  0
  2 15  1  0
  3  6  1  0
  3 16  1  0
  3 17  1  0
  4  8  1  0
  4 20  1  0
  4 21  1  0
  5  7  1  0
  5 24  1  0
  5 25  1  0
  6  7  1  0
  6 18  1  0
  6 19  1  0
  7 22  1  0
  7 23  1  0
  8  9  1  0
  8 26  1  0
  8 27  1  0
  9 28  1  0
 10 12  2  3
 10 11  1  0
 10 29  1  0
 11 13  2  3
 11 30  1  0
 12 31  1  0
 12 32  1  0
 13 33  1  0
 13 34  1  0
M  RAD  1   9   2
M  END
>  <reaction>  (6) 
rxn_596

>  <mol_properties>  (6) 
{"0": {"label": "*0", "atom_type": "Cs"}, "2": {"label": "*1", "atom_type": "Cs"}, "9": {"label": "*4", "atom_type": "Cd"}, "12": {"label": "*3", "atom_type": "Cd"}, "16": {"label": "*2", "atom_type": "H0"}}

>  <type>  (6) 
unop_2

>  <geom_source>  (6) 
gaussian_log

$$$$
