
     RDKit          3D

 10  9  0  0  0  0  0  0  0  0999 V2000
    2.2738    0.0217   -0.0992 C   0  0  0  0  0  0  0  0  0  0  0  0
    1.1083    0.2960   -0.0695 C   0  0  0  0  0  0  0  0  0  0  0  0
   -0.3173    0.6046   -0.0227 C   0  0  0  0  0  0  0  0  0  0  0  0
   -1.1561   -0.5495    0.5292 C   0  0  0  0  0  0  0  0  0  0  0  0
    3.3097   -0.2166   -0.1277 H   0  0  0  0  0  0  0  0  0  0  0  0
   -0.6542    0.8617   -1.0302 H   0  0  0  0  0  0  0  0  0  0  0  0
   -0.4633    1.4978    0.5900 H   0  0  0  0  0  0  0  0  0  0  0  0
   -0.8485   -0.7997    1.5447 H   0  0  0  0  0  0  0  0  0  0  0  0
   -2.2115   -0.2752    0.5459 H   0  0  0  0  0  0  0  0  0  0  0  0
   -1.0409   -1.4407   -0.0879 H   0  0  0  0  0  0  0  0  0  0  0  0
  1  2  3  0
  1  5  1  0
  2  3  1  0
  3  4  1  0
  3  6  1  0
  3  7  1  0
  4  8  1  0
  4  9  1  0
  4 10  1  0
M  END
>  <reaction>  (1) 
rxn_1266

>  <mol_properties>  (1) 
{"2": {"label": "donator", "atom_type": "Cs"}, "5": {"label": "d_hydrogen", "atom_type": "H0"}}

>  <type>  (1) 
r1h

$$$$

     RDKit          3D

 15 14  0  0  0  0  0  0  0  0999 V2000
    2.4381    0.5770   -0.2356 C   0  0  0  0  0  0  0  0  0  0  0  0
    1.4430   -0.3367   -0.1409 C   0  0  0  0  0  0  0  0  0  0  0  0
    0.0521   -0.0957   -0.0045 C   0  0  0  0  0  3  0  0  0  0  0  0
   -0.5167    1.2867    0.0548 C   0  0  0  0  0  0  0  0  0  0  0  0
   -0.8226   -1.2147    0.0778 C   0  0  0  0  0  0  0  0  0  0  0  0
   -2.1666   -1.1669    0.2092 C   0  0  0  0  0  0  0  0  0  0  0  0
    3.4666    0.2585   -0.3369 H   0  0  0  0  0  0  0  0  0  0  0  0
    2.2594    1.6438   -0.2152 H   0  0  0  0  0  0  0  0  0  0  0  0
    1.7306   -1.3845   -0.1719 H   0  0  0  0  0  0  0  0  0  0  0  0
   -1.2300    1.4469   -0.7583 H   0  0  0  0  0  0  0  0  0  0  0  0
    0.2481    2.0557   -0.0178 H   0  0  0  0  0  0  0  0  0  0  0  0
   -1.0592    1.4421    0.9914 H   0  0  0  0  0  0  0  0  0  0  0  0
   -0.3519   -2.1929    0.0292 H   0  0  0  0  0  0  0  0  0  0  0  0
   -2.7080   -0.2310    0.2646 H   0  0  0  0  0  0  0  0  0  0  0  0
   -2.7513   -2.0751    0.2638 H   0  0  0  0  0  0  0  0  0  0  0  0
  1  2  2  3
  1  7  1  0
  1  8  1  0
  2  3  1  0
  2  9  1  0
  3  4  1  0
  3  5  1  0
  4 10  1  0
  4 11  1  0
  4 12  1  0
  5  6  2  3
  5 13  1  0
  6 14  1  0
  6 15  1  0
M  RAD  1   3   2
M  END
>  <reaction>  (2) 
rxn_1266

>  <mol_properties>  (2) 
{"2": {"label": "acceptor", "atom_type": "Cs"}}

>  <type>  (2) 
r2

$$$$

     RDKit          3D

 16 15  0  0  0  0  0  0  0  0999 V2000
    1.7961   -0.3807    1.6176 C   0  0  0  0  0  0  0  0  0  0  0  0
    0.8562   -0.8708    0.8256 C   0  0  0  0  0  0  0  0  0  0  0  0
    0.0895   -0.0826   -0.2048 C   0  0  0  0  0  0  0  0  0  0  0  0
   -1.4061   -0.1111    0.0982 C   0  0  0  0  0  0  0  0  0  0  0  0
    0.4476   -0.5902   -1.5797 C   0  0  0  0  0  0  0  0  0  0  0  0
   -0.3793   -1.1113   -2.4728 C   0  0  0  0  0  0  0  0  0  0  0  0
    2.3110   -1.0032    2.3386 H   0  0  0  0  0  0  0  0  0  0  0  0
    2.0846    0.6643    1.5737 H   0  0  0  0  0  0  0  0  0  0  0  0
    0.5921   -1.9241    0.8925 H   0  0  0  0  0  0  0  0  0  0  0  0
    0.4358    0.9557   -0.1462 H   0  0  0  0  0  0  0  0  0  0  0  0
   -1.5968    0.3080    1.0865 H   0  0  0  0  0  0  0  0  0  0  0  0
   -1.9674    0.4693   -0.6359 H   0  0  0  0  0  0  0  0  0  0  0  0
   -1.7902   -1.1338    0.0883 H   0  0  0  0  0  0  0  0  0  0  0  0
    1.5049   -0.5197   -1.8214 H   0  0  0  0  0  0  0  0  0  0  0  0
   -1.4421   -1.2131   -2.2889 H   0  0  0  0  0  0  0  0  0  0  0  0
   -0.0162   -1.4558   -3.4328 H   0  0  0  0  0  0  0  0  0  0  0  0
  1  2  2  3
  1  7  1  0
  1  8  1  0
  2  3  1  0
  2  9  1  0
  3  4  1  0
  3  5  1  0
  3 10  1  0
  4 11  1  0
  4 12  1  0
  4 13  1  0
  5  6  2  3
  5 14  1  0
  6 15  1  0
  6 16  1  0
M  END
>  <reaction>  (3) 
rxn_1266

>  <mol_properties>  (3) 
{"0": {"label": "a_hydrogen", "atom_type": "H0"}, "3": {"label": "acceptor", "atom_type": "Cs"}}

>  <type>  (3) 
r2h

$$$$

     RDKit          3D

 25 23  0  0  0  0  0  0  0  0999 V2000
    0.0482    1.6468   -2.8218 C   0  0  0  0  0  0  0  0  0  0  0  0
   -0.6174    1.1901   -1.9260 C   0  0  0  0  0  0  0  0  0  0  0  0
   -1.3397    0.6500   -0.8396 C   0  0  0  0  0  3  0  0  0  0  0  0
   -1.9633    1.5967    0.1530 C   0  0  0  0  0  0  0  0  0  0  0  0
    0.6188    2.0534   -3.6213 H   0  0  0  0  0  0  0  0  0  0  0  0
   -0.3410    0.0258   -0.0173 H   0  0  0  0  0  0  0  0  0  0  0  0
   -1.9245   -0.2358   -1.0786 H   0  0  0  0  0  0  0  0  0  0  0  0
   -2.8191    2.1204   -0.2814 H   0  0  0  0  0  0  0  0  0  0  0  0
   -2.3129    1.0494    1.0301 H   0  0  0  0  0  0  0  0  0  0  0  0
   -1.2389    2.3461    0.4749 H   0  0  0  0  0  0  0  0  0  0  0  0
   -0.4115   -2.6631    1.5473 C   0  0  0  0  0  0  0  0  0  0  0  0
   -0.1842   -1.3552    1.6323 C   0  0  0  0  0  0  0  0  0  0  0  0
    0.5796   -0.5224    0.6798 C   0  0  0  0  0  0  0  0  0  0  0  0
    1.3624   -1.2448   -0.3920 C   0  0  0  0  0  0  0  0  0  0  0  0
    1.2243    0.6504    1.3035 C   0  0  0  0  0  0  0  0  0  0  0  0
    2.3012    1.2952    0.8617 C   0  0  0  0  0  0  0  0  0  0  0  0
   -1.0106   -3.1703    2.2923 H   0  0  0  0  0  0  0  0  0  0  0  0
   -0.0024   -3.2735    0.7519 H   0  0  0  0  0  0  0  0  0  0  0  0
   -0.6187   -0.8129    2.4690 H   0  0  0  0  0  0  0  0  0  0  0  0
    1.7087   -0.5464   -1.1537 H   0  0  0  0  0  0  0  0  0  0  0  0
    0.7402   -1.9855   -0.8950 H   0  0  0  0  0  0  0  0  0  0  0  0
    2.2303   -1.7553    0.0332 H   0  0  0  0  0  0  0  0  0  0  0  0
    0.7287    1.0296    2.1940 H   0  0  0  0  0  0  0  0  0  0  0  0
    2.8485    0.9775   -0.0166 H   0  0  0  0  0  0  0  0  0  0  0  0
    2.6741    2.1689    1.3801 H   0  0  0  0  0  0  0  0  0  0  0  0
  1  2  3  0
  1  5  1  0
  2  3  1  0
  3  4  1  0
  3  7  1  0
  4  8  1  0
  4  9  1  0
  4 10  1  0
  6 13  1  0
 11 12  2  3
 11 17  1  0
 11 18  1  0
 12 13  1  0
 12 19  1  0
 13 14  1  0
 13 15  1  0
 14 20  1  0
 14 21  1  0
 14 22  1  0
 15 16  2  3
 15 23  1  0
 16 24  1  0
 16 25  1  0
M  RAD  1   3   2
M  END
>  <reaction>  (4) 
rxn_1266

>  <mol_properties>  (4) 
{"1": {"label": "*4", "atom_type": "Ct"}, "2": {"label": "*3", "atom_type": "Cs"}, "5": {"label": "*2", "atom_type": "H0"}, "11": {"label": "*0", "atom_type": "Cd"}, "12": {"label": "*1", "atom_type": "Cs"}}

>  <type>  (4) 
ts

$$$$

     RDKit          3D

 25 23  0  0  0  0  0  0  0  0999 V2000
   -1.4967    0.6940   -2.9969 C   0  0  0  0  0  0  0  0  0  0  0  0
   -1.4967    0.6940   -1.7992 C   0  0  0  0  0  0  0  0  0  0  0  0
   -1.4967    0.7223   -0.3401 C   0  0  0  0  0  0  0  0  0  0  0  0
   -1.4966    2.1437    0.2256 C   0  0  0  0  0  0  0  0  0  0  0  0
   -1.4967    0.6940   -4.0602 H   0  0  0  0  0  0  0  0  0  0  0  0
   -0.4461    0.0682    0.0940 H   0  0  0  0  0  0  0  0  0  0  0  0
   -2.3722    0.1772    0.0217 H   0  0  0  0  0  0  0  0  0  0  0  0
   -2.3789    2.6915   -0.1059 H   0  0  0  0  0  0  0  0  0  0  0  0
   -1.4966    2.1164    1.3158 H   0  0  0  0  0  0  0  0  0  0  0  0
   -0.6144    2.6915   -0.1059 H   0  0  0  0  0  0  0  0  0  0  0  0
    1.6481    1.6467    1.0257 C   0  0  0  0  0  0  0  0  0  0  0  0
    1.4364    0.3780    1.3362 C   0  0  0  0  0  0  0  0  0  0  0  0
    0.6076   -0.5879    0.5293 C   0  0  0  0  0  3  0  0  0  0  0  0
   -0.5581   -1.1204    1.3581 C   0  0  0  0  0  0  0  0  0  0  0  0
    1.5075   -1.6632   -0.0274 C   0  0  0  0  0  0  0  0  0  0  0  0
    1.4226   -2.9647    0.2004 C   0  0  0  0  0  0  0  0  0  0  0  0
    2.2563    2.2891    1.6501 H   0  0  0  0  0  0  0  0  0  0  0  0
    1.2184    2.0902    0.1336 H   0  0  0  0  0  0  0  0  0  0  0  0
    1.8842   -0.0371    2.2366 H   0  0  0  0  0  0  0  0  0  0  0  0
   -1.1717   -1.8103    0.7762 H   0  0  0  0  0  0  0  0  0  0  0  0
   -1.1893   -0.2961    1.6911 H   0  0  0  0  0  0  0  0  0  0  0  0
   -0.2014   -1.6487    2.2453 H   0  0  0  0  0  0  0  0  0  0  0  0
    2.3064   -1.2927   -0.6645 H   0  0  0  0  0  0  0  0  0  0  0  0
    0.6525   -3.3940    0.8299 H   0  0  0  0  0  0  0  0  0  0  0  0
    2.1290   -3.6546   -0.2437 H   0  0  0  0  0  0  0  0  0  0  0  0
  1  2  3  0
  1  5  1  0
  2  3  1  0
  3  4  1  0
  3  6  1  0
  3  7  1  0
  4  8  1  0
  4  9  1  0
  4 10  1  0
 11 12  2  3
 11 17  1  0
 11 18  1  0
 12 13  1  0
 12 19  1  0
 13 14  1  0
 13 15  1  0
 14 20  1  0
 14 21  1  0
 14 22  1  0
 15 16  2  3
 15 23  1  0
 16 24  1  0
 16 25  1  0
M  RAD  1  13   2
M  END
>  <reaction>  (5) 
rxn_1266

>  <mol_properties>  (5) 
{"1": {"label": "*4", "atom_type": "Ct"}, "2": {"label": "*3", "atom_type": "Cs"}, "5": {"label": "*2", "atom_type": "H0"}, "11": {"label": "*0", "atom_type": "Cd"}, "12": {"label": "*1", "atom_type": "Cs"}}

>  <type>  (5) 
unop_1

>  <geom_source>  (5) 
Heuristics

$$$$

     RDKit          3D

 25 23  0  0  0  0  0  0  0  0999 V2000
   -1.4943    0.7745   -2.8608 C   0  0  0  0  0  0  0  0  0  0  0  0
   -1.4943    0.7745   -1.6631 C   0  0  0  0  0  0  0  0  0  0  0  0
   -1.4943    0.8027   -0.2039 C   0  0  0  0  0  0  0  0  0  0  0  0
   -1.4942    2.2241    0.3617 C   0  0  0  0  0  0  0  0  0  0  0  0
   -1.4943    0.7745   -3.9241 H   0  0  0  0  0  0  0  0  0  0  0  0
   -0.4437    0.1486    0.2301 H   0  0  0  0  0  0  0  0  0  0  0  0
   -2.3698    0.2576    0.1578 H   0  0  0  0  0  0  0  0  0  0  0  0
   -2.3765    2.7719    0.0302 H   0  0  0  0  0  0  0  0  0  0  0  0
   -1.4942    2.1968    1.4520 H   0  0  0  0  0  0  0  0  0  0  0  0
   -0.6120    2.7719    0.0302 H   0  0  0  0  0  0  0  0  0  0  0  0
    1.4951   -0.0275   -1.6386 C   0  0  0  0  0  0  0  0  0  0  0  0
    1.6919   -0.3594   -0.3729 C   0  0  0  0  0  0  0  0  0  0  0  0
    0.6100   -0.5075    0.6655 C   0  0  0  0  0  3  0  0  0  0  0  0
    0.8330    0.4673    1.8185 C   0  0  0  0  0  0  0  0  0  0  0  0
    0.5292   -1.9530    1.0899 C   0  0  0  0  0  0  0  0  0  0  0  0
    0.7096   -2.4322    2.3108 C   0  0  0  0  0  0  0  0  0  0  0  0
    2.3187    0.0614   -2.3359 H   0  0  0  0  0  0  0  0  0  0  0  0
    0.5000    0.1688   -2.0238 H   0  0  0  0  0  0  0  0  0  0  0  0
    2.7023   -0.5527   -0.0187 H   0  0  0  0  0  0  0  0  0  0  0  0
    0.0456    0.3762    2.5685 H   0  0  0  0  0  0  0  0  0  0  0  0
    0.8375    1.4925    1.4477 H   0  0  0  0  0  0  0  0  0  0  0  0
    1.7919    0.2842    2.3089 H   0  0  0  0  0  0  0  0  0  0  0  0
    0.3146   -2.6457    0.2803 H   0  0  0  0  0  0  0  0  0  0  0  0
    0.9310   -1.7936    3.1574 H   0  0  0  0  0  0  0  0  0  0  0  0
    0.6380   -3.4944    2.5078 H   0  0  0  0  0  0  0  0  0  0  0  0
  1  2  3  0
  1  5  1  0
  2  3  1  0
  3  4  1  0
  3  6  1  0
  3  7  1  0
  4  8  1  0
  4  9  1  0
  4 10  1  0
 11 12  2  3
 11 17  1  0
 11 18  1  0
 12 13  1  0
 12 19  1  0
 13 14  1  0
 13 15  1  0
 14 20  1  0
 14 21  1  0
 14 22  1  0
 15 16  2  3
 15 23  1  0
 16 24  1  0
 16 25  1  0
M  RAD  1  13   2
M  END
>  <reaction>  (6) 
rxn_1266

>  <mol_properties>  (6) 
{"1": {"label": "*4", "atom_type": "Ct"}, "2": {"label": "*3", "atom_type": "Cs"}, "5": {"label": "*2", "atom_type": "H0"}, "11": {"label": "*0", "atom_type": "Cd"}, "12": {"label": "*1", "atom_type": "Cs"}}

>  <type>  (6) 
unop_2

>  <geom_source>  (6) 
Heuristics

$$$$

     RDKit          3D

 25 23  0  0  0  0  0  0  0  0999 V2000
   -1.5036    0.6867   -2.9895 C   0  0  0  0  0  0  0  0  0  0  0  0
   -1.5036    0.6867   -1.7918 C   0  0  0  0  0  0  0  0  0  0  0  0
   -1.5036    0.7149   -0.3326 C   0  0  0  0  0  0  0  0  0  0  0  0
   -1.5035    2.1363    0.2330 C   0  0  0  0  0  0  0  0  0  0  0  0
   -1.5036    0.6867   -4.0528 H   0  0  0  0  0  0  0  0  0  0  0  0
   -0.4530    0.0608    0.1014 H   0  0  0  0  0  0  0  0  0  0  0  0
   -2.3791    0.1698    0.0291 H   0  0  0  0  0  0  0  0  0  0  0  0
   -2.3858    2.6841   -0.0985 H   0  0  0  0  0  0  0  0  0  0  0  0
   -1.5035    2.1090    1.3232 H   0  0  0  0  0  0  0  0  0  0  0  0
   -0.6213    2.6841   -0.0985 H   0  0  0  0  0  0  0  0  0  0  0  0
    0.7982    1.2858    2.1936 C   0  0  0  0  0  0  0  0  0  0  0  0
    1.0056    0.0252    1.8489 C   0  0  0  0  0  0  0  0  0  0  0  0
    0.6007   -0.5952    0.5367 C   0  0  0  0  0  3  0  0  0  0  0  0
   -0.3678   -1.7527    0.7641 C   0  0  0  0  0  0  0  0  0  0  0  0
    1.8419   -0.9748   -0.2324 C   0  0  0  0  0  0  0  0  0  0  0  0
    2.1847   -2.1884   -0.6358 C   0  0  0  0  0  0  0  0  0  0  0  0
    1.1157    1.6700    3.1548 H   0  0  0  0  0  0  0  0  0  0  0  0
    0.3009    1.9806    1.5250 H   0  0  0  0  0  0  0  0  0  0  0  0
    1.5099   -0.6455    2.5413 H   0  0  0  0  0  0  0  0  0  0  0  0
   -0.6770   -2.1987   -0.1826 H   0  0  0  0  0  0  0  0  0  0  0  0
   -1.2583   -1.4000    1.2850 H   0  0  0  0  0  0  0  0  0  0  0  0
    0.0898   -2.5346    1.3746 H   0  0  0  0  0  0  0  0  0  0  0  0
    2.5081   -0.1429   -0.4457 H   0  0  0  0  0  0  0  0  0  0  0  0
    1.5657   -3.0577   -0.4491 H   0  0  0  0  0  0  0  0  0  0  0  0
    3.1077   -2.3549   -1.1766 H   0  0  0  0  0  0  0  0  0  0  0  0
  1  2  3  0
  1  5  1  0
  2  3  1  0
  3  4  1  0
  3  6  1  0
  3  7  1  0
  4  8  1  0
  4  9  1  0
  4 10  1  0
 11 12  2  3
 11 17  1  0
 11 18  1  0
 12 13  1  0
 12 19  1  0
 13 14  1  0
 13 15  1  0
 14 20  1  0
 14 21  1  0
 14 22  1  0
 15 16  2  3
 15 23  1  0
 16 24  1  0
 16 25  1  0
M  RAD  1  13   2
M  END
>  <reaction>  (7) 
rxn_1266

>  <mol_properties>  (7) 
{"1": {"label": "*4", "atom_type": "Ct"}, "2": {"label": "*3", "atom_type": "Cs"}, "5": {"label": "*2", "atom_type": "H0"}, "11": {"label": "*0", "atom_type": "Cd"}, "12": {"label": "*1", "atom_type": "Cs"}}

>  <type>  (7) 
unop_3

>  <geom_source>  (7) 
Heuristics

$$$$

     RDKit          3D

 25 23  0  0  0  0  0  0  0  0999 V2000
   -1.2321    0.8247   -3.0378 C   0  0  0  0  0  0  0  0  0  0  0  0
   -1.2321    0.8247   -1.8401 C   0  0  0  0  0  0  0  0  0  0  0  0
   -1.2321    0.8529   -0.3810 C   0  0  0  0  0  0  0  0  0  0  0  0
   -1.2321    2.2743    0.1846 C   0  0  0  0  0  0  0  0  0  0  0  0
   -1.2321    0.8247   -4.1012 H   0  0  0  0  0  0  0  0  0  0  0  0
   -0.1815    0.1988    0.0531 H   0  0  0  0  0  0  0  0  0  0  0  0
   -2.1076    0.3079   -0.0193 H   0  0  0  0  0  0  0  0  0  0  0  0
   -2.1143    2.8222   -0.1468 H   0  0  0  0  0  0  0  0  0  0  0  0
   -1.2321    2.2470    1.2749 H   0  0  0  0  0  0  0  0  0  0  0  0
   -0.3499    2.8221   -0.1468 H   0  0  0  0  0  0  0  0  0  0  0  0
    0.1722   -2.2330   -1.1485 C   0  0  0  0  0  0  0  0  0  0  0  0
    0.7631   -1.8711   -0.0211 C   0  0  0  0  0  0  0  0  0  0  0  0
    0.8721   -0.4572    0.4884 C   0  0  0  0  0  3  0  0  0  0  0  0
    2.3354   -0.0495    0.6372 C   0  0  0  0  0  0  0  0  0  0  0  0
    0.0661   -0.3274    1.7571 C   0  0  0  0  0  0  0  0  0  0  0  0
    0.5194    0.0155    2.9529 C   0  0  0  0  0  0  0  0  0  0  0  0
    0.1278   -3.2697   -1.4576 H   0  0  0  0  0  0  0  0  0  0  0  0
   -0.2888   -1.5027   -1.8052 H   0  0  0  0  0  0  0  0  0  0  0  0
    1.2135   -2.6285    0.6169 H   0  0  0  0  0  0  0  0  0  0  0  0
    2.4231    0.9785    0.9926 H   0  0  0  0  0  0  0  0  0  0  0  0
    2.8457   -0.1259   -0.3232 H   0  0  0  0  0  0  0  0  0  0  0  0
    2.8549   -0.6993    1.3453 H   0  0  0  0  0  0  0  0  0  0  0  0
   -0.9888   -0.5627    1.6431 H   0  0  0  0  0  0  0  0  0  0  0  0
    1.5604    0.2565    3.1311 H   0  0  0  0  0  0  0  0  0  0  0  0
   -0.1458    0.0703    3.8054 H   0  0  0  0  0  0  0  0  0  0  0  0
  1  2  3  0
  1  5  1  0
  2  3  1  0
  3  4  1  0
  3  6  1  0
  3  7  1  0
  4  8  1  0
  4  9  1  0
  4 10  1  0
 11 12  2  3
 11 17  1  0
 11 18  1  0
 12 13  1  0
 12 19  1  0
 13 14  1  0
 13 15  1  0
 14 20  1  0
 14 21  1  0
 14 22  1  0
 15 16  2  3
 15 23  1  0
 16 24  1  0
 16 25  1  0
M  RAD  1  13   2
M  END
>  <reaction>  (8) 
rxn_1266

>  <mol_properties>  (8) 
{"1": {"label": "*4", "atom_type": "Ct"}, "2": {"label": "*3", "atom_type": "Cs"}, "5": {"label": "*2", "atom_type": "H0"}, "11": {"label": "*0", "atom_type": "Cd"}, "12": {"label": "*1", "atom_type": "Cs"}}

>  <type>  (8) 
unop_4

>  <geom_source>  (8) 
Heuristics

$$$$

     RDKit          3D

 25 23  0  0  0  0  0  0  0  0999 V2000
   -1.5058    0.5975   -3.0084 C   0  0  0  0  0  0  0  0  0  0  0  0
   -1.5058    0.5975   -1.8107 C   0  0  0  0  0  0  0  0  0  0  0  0
   -1.5058    0.6257   -0.3516 C   0  0  0  0  0  0  0  0  0  0  0  0
   -1.5058    2.0471    0.2140 C   0  0  0  0  0  0  0  0  0  0  0  0
   -1.5058    0.5975   -4.0717 H   0  0  0  0  0  0  0  0  0  0  0  0
   -0.4552   -0.0284    0.0825 H   0  0  0  0  0  0  0  0  0  0  0  0
   -2.3813    0.0807    0.0101 H   0  0  0  0  0  0  0  0  0  0  0  0
   -2.3880    2.5950   -0.1174 H   0  0  0  0  0  0  0  0  0  0  0  0
   -1.5058    2.0198    1.3043 H   0  0  0  0  0  0  0  0  0  0  0  0
   -0.6235    2.5950   -0.1174 H   0  0  0  0  0  0  0  0  0  0  0  0
   -0.3450   -0.0090    2.7485 C   0  0  0  0  0  0  0  0  0  0  0  0
    0.5675   -0.6357    2.0236 C   0  0  0  0  0  0  0  0  0  0  0  0
    0.5985   -0.6844    0.5178 C   0  0  0  0  0  3  0  0  0  0  0  0
    0.5089   -2.1256    0.0234 C   0  0  0  0  0  0  0  0  0  0  0  0
    1.8155    0.0593    0.0260 C   0  0  0  0  0  0  0  0  0  0  0  0
    2.8085   -0.4351   -0.6970 C   0  0  0  0  0  0  0  0  0  0  0  0
   -0.3093   -0.0122    3.8307 H   0  0  0  0  0  0  0  0  0  0  0  0
   -1.1638    0.5305    2.2841 H   0  0  0  0  0  0  0  0  0  0  0  0
    1.3777   -1.1654    2.5201 H   0  0  0  0  0  0  0  0  0  0  0  0
    0.5166   -2.1686   -1.0670 H   0  0  0  0  0  0  0  0  0  0  0  0
   -0.4123   -2.5877    0.3792 H   0  0  0  0  0  0  0  0  0  0  0  0
    1.3469   -2.7212    0.3928 H   0  0  0  0  0  0  0  0  0  0  0  0
    1.8554    1.1023    0.3291 H   0  0  0  0  0  0  0  0  0  0  0  0
    2.8286   -1.4673   -1.0251 H   0  0  0  0  0  0  0  0  0  0  0  0
    3.6451    0.1858   -0.9915 H   0  0  0  0  0  0  0  0  0  0  0  0
  1  2  3  0
  1  5  1  0
  2  3  1  0
  3  4  1  0
  3  6  1  0
  3  7  1  0
  4  8  1  0
  4  9  1  0
  4 10  1  0
 11 12  2  3
 11 17  1  0
 11 18  1  0
 12 13  1  0
 12 19  1  0
 13 14  1  0
 13 15  1  0
 14 20  1  0
 14 21  1  0
 14 22  1  0
 15 16  2  3
 15 23  1  0
 16 24  1  0
 16 25  1  0
M  RAD  1  13   2
M  END
>  <reaction>  (9) 
rxn_1266

>  <mol_properties>  (9) 
{"1": {"label": "*4", "atom_type": "Ct"}, "2": {"label": "*3", "atom_type": "Cs"}, "5": {"label": "*2", "atom_type": "H0"}, "11": {"label": "*0", "atom_type": "Cd"}, "12": {"label": "*1", "atom_type": "Cs"}}

>  <type>  (9) 
unop_5

>  <geom_source>  (9) 
Heuristics

$$$$

     RDKit          3D

 25 23  0  0  0  0  0  0  0  0999 V2000
   -1.2325    0.7192   -3.1173 C   0  0  0  0  0  0  0  0  0  0  0  0
   -1.2325    0.7192   -1.9196 C   0  0  0  0  0  0  0  0  0  0  0  0
   -1.2325    0.7474   -0.4605 C   0  0  0  0  0  0  0  0  0  0  0  0
   -1.2324    2.1688    0.1051 C   0  0  0  0  0  0  0  0  0  0  0  0
   -1.2325    0.7192   -4.1806 H   0  0  0  0  0  0  0  0  0  0  0  0
   -0.1819    0.0933   -0.0264 H   0  0  0  0  0  0  0  0  0  0  0  0
   -2.1080    0.2023   -0.0988 H   0  0  0  0  0  0  0  0  0  0  0  0
   -2.1147    2.7167   -0.2263 H   0  0  0  0  0  0  0  0  0  0  0  0
   -1.2324    2.1415    1.1954 H   0  0  0  0  0  0  0  0  0  0  0  0
   -0.3502    2.7166   -0.2263 H   0  0  0  0  0  0  0  0  0  0  0  0
   -0.3642   -2.6624   -0.2124 C   0  0  0  0  0  0  0  0  0  0  0  0
    0.4645   -2.0033    0.5811 C   0  0  0  0  0  0  0  0  0  0  0  0
    0.8718   -0.5627    0.4089 C   0  0  0  0  0  3  0  0  0  0  0  0
    2.3824   -0.4485    0.2231 C   0  0  0  0  0  0  0  0  0  0  0  0
    0.3323    0.2431    1.5646 C   0  0  0  0  0  0  0  0  0  0  0  0
    1.0365    0.9426    2.4408 C   0  0  0  0  0  0  0  0  0  0  0  0
   -0.6169   -3.6997   -0.0319 H   0  0  0  0  0  0  0  0  0  0  0  0
   -0.8204   -2.1869   -1.0743 H   0  0  0  0  0  0  0  0  0  0  0  0
    0.9031   -2.5083    1.4392 H   0  0  0  0  0  0  0  0  0  0  0  0
    2.6841    0.5910    0.0836 H   0  0  0  0  0  0  0  0  0  0  0  0
    2.6970   -1.0180   -0.6517 H   0  0  0  0  0  0  0  0  0  0  0  0
    2.9166   -0.8438    1.0902 H   0  0  0  0  0  0  0  0  0  0  0  0
   -0.7493    0.2099    1.6670 H   0  0  0  0  0  0  0  0  0  0  0  0
    2.1168    1.0100    2.3948 H   0  0  0  0  0  0  0  0  0  0  0  0
    0.5489    1.4813    3.2434 H   0  0  0  0  0  0  0  0  0  0  0  0
  1  2  3  0
  1  5  1  0
  2  3  1  0
  3  4  1  0
  3  6  1  0
  3  7  1  0
  4  8  1  0
  4  9  1  0
  4 10  1  0
 11 12  2  3
 11 17  1  0
 11 18  1  0
 12 13  1  0
 12 19  1  0
 13 14  1  0
 13 15  1  0
 14 20  1  0
 14 21  1  0
 14 22  1  0
 15 16  2  3
 15 23  1  0
 16 24  1  0
 16 25  1  0
M  RAD  1  13   2
M  END
>  <reaction>  (10) 
rxn_1266

>  <mol_properties>  (10) 
{"1": {"label": "*4", "atom_type": "Ct"}, "2": {"label": "*3", "atom_type": "Cs"}, "5": {"label": "*2", "atom_type": "H0"}, "11": {"label": "*0", "atom_type": "Cd"}, "12": {"label": "*1", "atom_type": "Cs"}}

>  <type>  (10) 
unop_6

>  <geom_source>  (10) 
Heuristics

$$$$

     RDKit          3D

 25 23  0  0  0  0  0  0  0  0999 V2000
   -1.2972    0.6034   -3.1406 C   0  0  0  0  0  0  0  0  0  0  0  0
   -1.2972    0.6034   -1.9429 C   0  0  0  0  0  0  0  0  0  0  0  0
   -1.2972    0.6317   -0.4838 C   0  0  0  0  0  0  0  0  0  0  0  0
   -1.2972    2.0530    0.0818 C   0  0  0  0  0  0  0  0  0  0  0  0
   -1.2972    0.6034   -4.2040 H   0  0  0  0  0  0  0  0  0  0  0  0
   -0.2467   -0.0224   -0.0497 H   0  0  0  0  0  0  0  0  0  0  0  0
   -2.1728    0.0866   -0.1221 H   0  0  0  0  0  0  0  0  0  0  0  0
   -2.1795    2.6009   -0.2496 H   0  0  0  0  0  0  0  0  0  0  0  0
   -1.2972    2.0258    1.1721 H   0  0  0  0  0  0  0  0  0  0  0  0
   -0.4150    2.6009   -0.2496 H   0  0  0  0  0  0  0  0  0  0  0  0
   -0.7867   -2.5253    0.9952 C   0  0  0  0  0  0  0  0  0  0  0  0
    0.3071   -1.8197    1.2332 C   0  0  0  0  0  0  0  0  0  0  0  0
    0.8070   -0.6785    0.3856 C   0  0  0  0  0  3  0  0  0  0  0  0
    2.2000   -0.9820   -0.1592 C   0  0  0  0  0  0  0  0  0  0  0  0
    0.7241    0.6000    1.1824 C   0  0  0  0  0  0  0  0  0  0  0  0
    1.7284    1.4007    1.5037 C   0  0  0  0  0  0  0  0  0  0  0  0
   -1.0916   -3.3350    1.6463 H   0  0  0  0  0  0  0  0  0  0  0  0
   -1.4179   -2.3185    0.1373 H   0  0  0  0  0  0  0  0  0  0  0  0
    0.9170   -2.0506    2.1040 H   0  0  0  0  0  0  0  0  0  0  0  0
    2.5637   -0.1660   -0.7859 H   0  0  0  0  0  0  0  0  0  0  0  0
    2.1783   -1.8924   -0.7587 H   0  0  0  0  0  0  0  0  0  0  0  0
    2.9159   -1.1321    0.6522 H   0  0  0  0  0  0  0  0  0  0  0  0
   -0.2767    0.8496    1.5250 H   0  0  0  0  0  0  0  0  0  0  0  0
    2.7483    1.2032    1.1965 H   0  0  0  0  0  0  0  0  0  0  0  0
    1.5612    2.2949    2.0907 H   0  0  0  0  0  0  0  0  0  0  0  0
  1  2  3  0
  1  5  1  0
  2  3  1  0
  3  4  1  0
  3  6  1  0
  3  7  1  0
  4  8  1  0
  4  9  1  0
  4 10  1  0
 11 12  2  3
 11 17  1  0
 11 18  1  0
 12 13  1  0
 12 19  1  0
 13 14  1  0
 13 15  1  0
 14 20  1  0
 14 21  1  0
 14 22  1  0
 15 16  2  3
 15 23  1  0
 16 24  1  0
 16 25  1  0
M  RAD  1  13   2
M  END
>  <reaction>  (11) 
rxn_1266

>  <mol_properties>  (11) 
{"1": {"label": "*4", "atom_type": "Ct"}, "2": {"label": "*3", "atom_type": "Cs"}, "5": {"label": "*2", "atom_type": "H0"}, "11": {"label": "*0", "atom_type": "Cd"}, "12": {"label": "*1", "atom_type": "Cs"}}

>  <type>  (11) 
unop_7

>  <geom_source>  (11) 
Heuristics

$$$$

     RDKit          3D

 25 23  0  0  0  0  0  0  0  0999 V2000
   -1.5148    0.6828   -2.9696 C   0  0  0  0  0  0  0  0  0  0  0  0
   -1.5148    0.6828   -1.7719 C   0  0  0  0  0  0  0  0  0  0  0  0
   -1.5148    0.7110   -0.3127 C   0  0  0  0  0  0  0  0  0  0  0  0
   -1.5147    2.1324    0.2529 C   0  0  0  0  0  0  0  0  0  0  0  0
   -1.5148    0.6828   -4.0329 H   0  0  0  0  0  0  0  0  0  0  0  0
   -0.4642    0.0569    0.1214 H   0  0  0  0  0  0  0  0  0  0  0  0
   -2.3903    0.1659    0.0490 H   0  0  0  0  0  0  0  0  0  0  0  0
   -2.3970    2.6802   -0.0786 H   0  0  0  0  0  0  0  0  0  0  0  0
   -1.5147    2.1051    1.3432 H   0  0  0  0  0  0  0  0  0  0  0  0
   -0.6325    2.6802   -0.0786 H   0  0  0  0  0  0  0  0  0  0  0  0
    1.9771    1.3649   -0.1779 C   0  0  0  0  0  0  0  0  0  0  0  0
    1.7165    0.3933    0.6818 C   0  0  0  0  0  0  0  0  0  0  0  0
    0.5895   -0.5991    0.5567 C   0  0  0  0  0  3  0  0  0  0  0  0
   -0.3504   -0.5009    1.7551 C   0  0  0  0  0  0  0  0  0  0  0  0
    1.1674   -1.9759    0.3404 C   0  0  0  0  0  0  0  0  0  0  0  0
    1.0008   -3.0365    1.1151 C   0  0  0  0  0  0  0  0  0  0  0  0
    2.8056    2.0460   -0.0292 H   0  0  0  0  0  0  0  0  0  0  0  0
    1.3686    1.5150   -1.0635 H   0  0  0  0  0  0  0  0  0  0  0  0
    2.3478    0.2678    1.5589 H   0  0  0  0  0  0  0  0  0  0  0  0
   -1.1775   -1.2071    1.6653 H   0  0  0  0  0  0  0  0  0  0  0  0
   -0.7639    0.5054    1.8262 H   0  0  0  0  0  0  0  0  0  0  0  0
    0.1775   -0.7129    2.6878 H   0  0  0  0  0  0  0  0  0  0  0  0
    1.7929   -2.0648   -0.5441 H   0  0  0  0  0  0  0  0  0  0  0  0
    0.3939   -3.0096    2.0121 H   0  0  0  0  0  0  0  0  0  0  0  0
    1.4702   -3.9816    0.8731 H   0  0  0  0  0  0  0  0  0  0  0  0
  1  2  3  0
  1  5  1  0
  2  3  1  0
  3  4  1  0
  3  6  1  0
  3  7  1  0
  4  8  1  0
  4  9  1  0
  4 10  1  0
 11 12  2  3
 11 17  1  0
 11 18  1  0
 12 13  1  0
 12 19  1  0
 13 14  1  0
 13 15  1  0
 14 20  1  0
 14 21  1  0
 14 22  1  0
 15 16  2  3
 15 23  1  0
 16 24  1  0
 16 25  1  0
M  RAD  1  13   2
M  END
>  <reaction>  (12) 
rxn_1266

>  <mol_properties>  (12) 
{"1": {"label": "*4", "atom_type": "Ct"}, "2": {"label": "*3", "atom_type": "Cs"}, "5": {"label": "*2", "atom_type": "H0"}, "11": {"label": "*0", "atom_type": "Cd"}, "12": {"label": "*1", "atom_type": "Cs"}}

>  <type>  (12) 
unop_8

>  <geom_source>  (12) 
Heuristics

$$$$

     RDKit          3D

 25 23  0  0  0  0  0  0  0  0999 V2000
   -1.2985    0.8779   -2.9368 C   0  0  0  0  0  0  0  0  0  0  0  0
   -1.2985    0.8779   -1.7391 C   0  0  0  0  0  0  0  0  0  0  0  0
   -1.2985    0.9061   -0.2799 C   0  0  0  0  0  0  0  0  0  0  0  0
   -1.2984    2.3275    0.2857 C   0  0  0  0  0  0  0  0  0  0  0  0
   -1.2985    0.8779   -4.0001 H   0  0  0  0  0  0  0  0  0  0  0  0
   -0.2479    0.2520    0.1541 H   0  0  0  0  0  0  0  0  0  0  0  0
   -2.1740    0.3611    0.0818 H   0  0  0  0  0  0  0  0  0  0  0  0
   -2.1807    2.8754   -0.0458 H   0  0  0  0  0  0  0  0  0  0  0  0
   -1.2984    2.3002    1.3759 H   0  0  0  0  0  0  0  0  0  0  0  0
   -0.4162    2.8754   -0.0458 H   0  0  0  0  0  0  0  0  0  0  0  0
    0.6631   -1.5050   -1.6666 C   0  0  0  0  0  0  0  0  0  0  0  0
    1.1206   -1.4725   -0.4254 C   0  0  0  0  0  0  0  0  0  0  0  0
    0.8058   -0.4040    0.5894 C   0  0  0  0  0  3  0  0  0  0  0  0
    2.0825    0.2934    1.0511 C   0  0  0  0  0  0  0  0  0  0  0  0
   -0.0020   -1.0114    1.7096 C   0  0  0  0  0  0  0  0  0  0  0  0
    0.3297   -1.0600    2.9904 C   0  0  0  0  0  0  0  0  0  0  0  0
    0.9279   -2.3043   -2.3474 H   0  0  0  0  0  0  0  0  0  0  0  0
    0.0061   -0.7304   -2.0479 H   0  0  0  0  0  0  0  0  0  0  0  0
    1.7756   -2.2664   -0.0728 H   0  0  0  0  0  0  0  0  0  0  0  0
    1.8617    1.0785    1.7762 H   0  0  0  0  0  0  0  0  0  0  0  0
    2.5922    0.7452    0.1998 H   0  0  0  0  0  0  0  0  0  0  0  0
    2.7716   -0.4150    1.5168 H   0  0  0  0  0  0  0  0  0  0  0  0
   -0.9398   -1.4602    1.3927 H   0  0  0  0  0  0  0  0  0  0  0  0
    1.2526   -0.6355    3.3668 H   0  0  0  0  0  0  0  0  0  0  0  0
   -0.3215   -1.5302    3.7164 H   0  0  0  0  0  0  0  0  0  0  0  0
  1  2  3  0
  1  5  1  0
  2  3  1  0
  3  4  1  0
  3  6  1  0
  3  7  1  0
  4  8  1  0
  4  9  1  0
  4 10  1  0
 11 12  2  3
 11 17  1  0
 11 18  1  0
 12 13  1  0
 12 19  1  0
 13 14  1  0
 13 15  1  0
 14 20  1  0
 14 21  1  0
 14 22  1  0
 15 16  2  3
 15 23  1  0
 16 24  1  0
 16 25  1  0
M  RAD  1  13   2
M  END
>  <reaction>  (13) 
rxn_1266

>  <mol_properties>  (13) 
{"1": {"label": "*4", "atom_type": "Ct"}, "2": {"label": "*3", "atom_type": "Cs"}, "5": {"label": "*2", "atom_type": "H0"}, "11": {"label": "*0", "atom_type": "Cd"}, "12": {"label": "*1", "atom_type": "Cs"}}

>  <type>  (13) 
unop_9

>  <geom_source>  (13) 
Heuristics

$$$$

     RDKit          3D

 25 23  0  0  0  0  0  0  0  0999 V2000
   -1.5258    0.7054   -2.9117 C   0  0  0  0  0  0  0  0  0  0  0  0
   -1.5258    0.7054   -1.7139 C   0  0  0  0  0  0  0  0  0  0  0  0
   -1.5258    0.7336   -0.2548 C   0  0  0  0  0  0  0  0  0  0  0  0
   -1.5258    2.1550    0.3108 C   0  0  0  0  0  0  0  0  0  0  0  0
   -1.5258    0.7054   -3.9750 H   0  0  0  0  0  0  0  0  0  0  0  0
   -0.4752    0.0795    0.1793 H   0  0  0  0  0  0  0  0  0  0  0  0
   -2.4013    0.1886    0.1069 H   0  0  0  0  0  0  0  0  0  0  0  0
   -2.4080    2.7029   -0.0207 H   0  0  0  0  0  0  0  0  0  0  0  0
   -1.5258    2.1277    1.4011 H   0  0  0  0  0  0  0  0  0  0  0  0
   -0.6436    2.7029   -0.0207 H   0  0  0  0  0  0  0  0  0  0  0  0
    1.8678    0.7207   -1.1109 C   0  0  0  0  0  0  0  0  0  0  0  0
    1.7981    0.1166    0.0643 C   0  0  0  0  0  0  0  0  0  0  0  0
    0.5784   -0.5765    0.6146 C   0  0  0  0  0  3  0  0  0  0  0  0
    0.1365    0.0700    1.9246 C   0  0  0  0  0  0  0  0  0  0  0  0
    0.8591   -2.0549    0.7231 C   0  0  0  0  0  0  0  0  0  0  0  0
    0.8353   -2.7877    1.8255 C   0  0  0  0  0  0  0  0  0  0  0  0
    2.7778    1.2008   -1.4482 H   0  0  0  0  0  0  0  0  0  0  0  0
    1.0141    0.7577   -1.7795 H   0  0  0  0  0  0  0  0  0  0  0  0
    2.6732    0.0947    0.7103 H   0  0  0  0  0  0  0  0  0  0  0  0
   -0.7550   -0.4175    2.3227 H   0  0  0  0  0  0  0  0  0  0  0  0
   -0.0906    1.1243    1.7648 H   0  0  0  0  0  0  0  0  0  0  0  0
    0.9236    0.0075    2.6796 H   0  0  0  0  0  0  0  0  0  0  0  0
    1.1198   -2.5312   -0.2185 H   0  0  0  0  0  0  0  0  0  0  0  0
    0.5881   -2.3700    2.7940 H   0  0  0  0  0  0  0  0  0  0  0  0
    1.0628   -3.8458    1.7953 H   0  0  0  0  0  0  0  0  0  0  0  0
  1  2  3  0
  1  5  1  0
  2  3  1  0
  3  4  1  0
  3  6  1  0
  3  7  1  0
  4  8  1  0
  4  9  1  0
  4 10  1  0
 11 12  2  3
 11 17  1  0
 11 18  1  0
 12 13  1  0
 12 19  1  0
 13 14  1  0
 13 15  1  0
 14 20  1  0
 14 21  1  0
 14 22  1  0
 15 16  2  3
 15 23  1  0
 16 24  1  0
 16 25  1  0
M  RAD  1  13   2
M  END
>  <reaction>  (14) 
rxn_1266

>  <mol_properties>  (14) 
{"1": {"label": "*4", "atom_type": "Ct"}, "2": {"label": "*3", "atom_type": "Cs"}, "5": {"label": "*2", "atom_type": "H0"}, "11": {"label": "*0", "atom_type": "Cd"}, "12": {"label": "*1", "atom_type": "Cs"}}

>  <type>  (14) 
unop_10

>  <geom_source>  (14) 
Heuristics

$$$$

     RDKit          3D

 25 23  0  0  0  0  0  0  0  0999 V2000
   -1.4106    0.5382   -3.0924 C   0  0  0  0  0  0  0  0  0  0  0  0
   -1.4106    0.5382   -1.8947 C   0  0  0  0  0  0  0  0  0  0  0  0
   -1.4106    0.5664   -0.4356 C   0  0  0  0  0  0  0  0  0  0  0  0
   -1.4106    1.9878    0.1300 C   0  0  0  0  0  0  0  0  0  0  0  0
   -1.4106    0.5382   -4.1557 H   0  0  0  0  0  0  0  0  0  0  0  0
   -0.3600   -0.0877   -0.0015 H   0  0  0  0  0  0  0  0  0  0  0  0
   -2.2861    0.0214   -0.0739 H   0  0  0  0  0  0  0  0  0  0  0  0
   -2.2928    2.5357   -0.2014 H   0  0  0  0  0  0  0  0  0  0  0  0
   -1.4106    1.9605    1.2203 H   0  0  0  0  0  0  0  0  0  0  0  0
   -0.5284    2.5357   -0.2014 H   0  0  0  0  0  0  0  0  0  0  0  0
   -0.8967   -1.6281    2.1691 C   0  0  0  0  0  0  0  0  0  0  0  0
    0.3314   -1.3398    1.7695 C   0  0  0  0  0  0  0  0  0  0  0  0
    0.6936   -0.7437    0.4338 C   0  0  0  0  0  3  0  0  0  0  0  0
    1.6220   -1.6768   -0.3386 C   0  0  0  0  0  0  0  0  0  0  0  0
    1.2534    0.6409    0.6479 C   0  0  0  0  0  0  0  0  0  0  0  0
    2.4598    1.0694    0.3102 C   0  0  0  0  0  0  0  0  0  0  0  0
   -1.0894   -2.0557    3.1450 H   0  0  0  0  0  0  0  0  0  0  0  0
   -1.7560   -1.4470    1.5320 H   0  0  0  0  0  0  0  0  0  0  0  0
    1.1717   -1.5308    2.4337 H   0  0  0  0  0  0  0  0  0  0  0  0
    1.8781   -1.2586   -1.3135 H   0  0  0  0  0  0  0  0  0  0  0  0
    1.1392   -2.6418   -0.4947 H   0  0  0  0  0  0  0  0  0  0  0  0
    2.5503   -1.8515    0.2104 H   0  0  0  0  0  0  0  0  0  0  0  0
    0.5738    1.3259    1.1481 H   0  0  0  0  0  0  0  0  0  0  0  0
    3.1832    0.4334   -0.1855 H   0  0  0  0  0  0  0  0  0  0  0  0
    2.7675    2.0863    0.5186 H   0  0  0  0  0  0  0  0  0  0  0  0
  1  2  3  0
  1  5  1  0
  2  3  1  0
  3  4  1  0
  3  6  1  0
  3  7  1  0
  4  8  1  0
  4  9  1  0
  4 10  1  0
 11 12  2  3
 11 17  1  0
 11 18  1  0
 12 13  1  0
 12 19  1  0
 13 14  1  0
 13 15  1  0
 14 20  1  0
 14 21  1  0
 14 22  1  0
 15 16  2  3
 15 23  1  0
 16 24  1  0
 16 25  1  0
M  RAD  1  13   2
M  END
>  <reaction>  (15) 
rxn_1266

>  <mol_properties>  (15) 
{"1": {"label": "*4", "atom_type": "Ct"}, "2": {"label": "*3", "atom_type": "Cs"}, "5": {"label": "*2", "atom_type": "H0"}, "11": {"label": "*0", "atom_type": "Cd"}, "12": {"label": "*1", "atom_type": "Cs"}}

>  <type>  (15) 
unop_11

>  <geom_source>  (15) 
Heuristics

$$$$

     RDKit          3D

 25 23  0  0  0  0  0  0  0  0999 V2000
   -1.4058    0.8535   -2.8646 C   0  0  0  0  0  0  0  0  0  0  0  0
   -1.4058    0.8535   -1.6669 C   0  0  0  0  0  0  0  0  0  0  0  0
   -1.4058    0.8817   -0.2077 C   0  0  0  0  0  0  0  0  0  0  0  0
   -1.4058    2.3031    0.3579 C   0  0  0  0  0  0  0  0  0  0  0  0
   -1.4058    0.8535   -3.9279 H   0  0  0  0  0  0  0  0  0  0  0  0
   -0.3552    0.2276    0.2264 H   0  0  0  0  0  0  0  0  0  0  0  0
   -2.2813    0.3367    0.1540 H   0  0  0  0  0  0  0  0  0  0  0  0
   -2.2880    2.8510    0.0264 H   0  0  0  0  0  0  0  0  0  0  0  0
   -1.4058    2.2758    1.4482 H   0  0  0  0  0  0  0  0  0  0  0  0
   -0.5236    2.8510    0.0264 H   0  0  0  0  0  0  0  0  0  0  0  0
    1.0742   -0.7502   -1.8036 C   0  0  0  0  0  0  0  0  0  0  0  0
    1.4492   -0.9252   -0.5468 C   0  0  0  0  0  0  0  0  0  0  0  0
    0.6984   -0.4284    0.6617 C   0  0  0  0  0  3  0  0  0  0  0  0
    1.5625    0.5306    1.4760 C   0  0  0  0  0  0  0  0  0  0  0  0
    0.1884   -1.6122    1.4456 C   0  0  0  0  0  0  0  0  0  0  0  0
    0.4815   -1.9185    2.6999 C   0  0  0  0  0  0  0  0  0  0  0  0
    1.6606   -1.1345   -2.6287 H   0  0  0  0  0  0  0  0  0  0  0  0
    0.1647   -0.2138   -2.0532 H   0  0  0  0  0  0  0  0  0  0  0  0
    2.3654   -1.4704   -0.3300 H   0  0  0  0  0  0  0  0  0  0  0  0
    1.0209    0.9060    2.3458 H   0  0  0  0  0  0  0  0  0  0  0  0
    1.8593    1.3815    0.8623 H   0  0  0  0  0  0  0  0  0  0  0  0
    2.4718    0.0384    1.8285 H   0  0  0  0  0  0  0  0  0  0  0  0
   -0.4731   -2.2683    0.8857 H   0  0  0  0  0  0  0  0  0  0  0  0
    1.1380   -1.3076    3.3076 H   0  0  0  0  0  0  0  0  0  0  0  0
    0.0662   -2.8018    3.1685 H   0  0  0  0  0  0  0  0  0  0  0  0
  1  2  3  0
  1  5  1  0
  2  3  1  0
  3  4  1  0
  3  6  1  0
  3  7  1  0
  4  8  1  0
  4  9  1  0
  4 10  1  0
 11 12  2  3
 11 17  1  0
 11 18  1  0
 12 13  1  0
 12 19  1  0
 13 14  1  0
 13 15  1  0
 14 20  1  0
 14 21  1  0
 14 22  1  0
 15 16  2  3
 15 23  1  0
 16 24  1  0
 16 25  1  0
M  RAD  1  13   2
M  END
>  <reaction>  (16) 
rxn_1266

>  <mol_properties>  (16) 
{"1": {"label": "*4", "atom_type": "Ct"}, "2": {"label": "*3", "atom_type": "Cs"}, "5": {"label": "*2", "atom_type": "H0"}, "11": {"label": "*0", "atom_type": "Cd"}, "12": {"label": "*1", "atom_type": "Cs"}}

>  <type>  (16) 
unop_12

>  <geom_source>  (16) 
Heuristics

$$$$

     RDKit          3D

 25 23  0  0  0  0  0  0  0  0999 V2000
   -1.0021    0.0226   -0.1907 C   0  0  0  0  0  0  0  0  0  0  0  0
   -1.3765    0.1962   -1.6650 C   0  0  0  0  0  0  0  0  0  0  0  0
    1.8649    1.4584   -0.4262 C   0  0  0  0  0  0  0  0  0  0  0  0
   -1.6617   -1.2120    0.3730 C   0  0  0  0  0  0  0  0  0  0  0  0
   -1.4027    1.2407    0.6047 C   0  0  0  0  0  0  0  0  0  0  0  0
    1.5706   -0.0148   -0.6687 C   0  0  0  0  0  3  0  0  0  0  0  0
   -1.1727   -2.4315    0.1320 C   0  0  0  0  0  0  0  0  0  0  0  0
   -0.9381    1.4442    1.8407 C   0  0  0  0  0  0  0  0  0  0  0  0
    2.3008   -0.8551    0.2866 C   0  0  0  0  0  0  0  0  0  0  0  0
    2.9003   -1.5464    1.0714 C   0  0  0  0  0  0  0  0  0  0  0  0
    0.3048   -0.1063   -0.1138 H   0  0  0  0  0  0  0  0  0  0  0  0
   -0.8860    1.1040   -2.0766 H   0  0  0  0  0  0  0  0  0  0  0  0
   -1.0289   -0.6794   -2.2535 H   0  0  0  0  0  0  0  0  0  0  0  0
   -2.4776    0.2951   -1.7826 H   0  0  0  0  0  0  0  0  0  0  0  0
    1.2927    2.0707   -1.1538 H   0  0  0  0  0  0  0  0  0  0  0  0
    2.9489    1.6648   -0.5582 H   0  0  0  0  0  0  0  0  0  0  0  0
    1.5548    1.7471    0.6006 H   0  0  0  0  0  0  0  0  0  0  0  0
   -2.5579   -1.1177    0.9809 H   0  0  0  0  0  0  0  0  0  0  0  0
   -2.0744    1.9773    0.1713 H   0  0  0  0  0  0  0  0  0  0  0  0
    1.8602   -0.2945   -1.7036 H   0  0  0  0  0  0  0  0  0  0  0  0
   -0.2821   -2.5670   -0.4742 H   0  0  0  0  0  0  0  0  0  0  0  0
   -1.6663   -3.3056    0.5441 H   0  0  0  0  0  0  0  0  0  0  0  0
   -0.2623    0.7335    2.3071 H   0  0  0  0  0  0  0  0  0  0  0  0
   -1.2355    2.3288    2.3943 H   0  0  0  0  0  0  0  0  0  0  0  0
    3.4268   -2.1532    1.7604 H   0  0  0  0  0  0  0  0  0  0  0  0
  1  2  1  0
  1  4  1  0
  1  5  1  0
  1 11  1  0
  2 12  1  0
  2 13  1  0
  2 14  1  0
  3  6  1  0
  3 15  1  0
  3 16  1  0
  3 17  1  0
  4  7  2  3
  4 18  1  0
  5  8  2  3
  5 19  1  0
  6  9  1  0
  6 20  1  0
  7 21  1  0
  7 22  1  0
  8 23  1  0
  8 24  1  0
  9 10  3  0
 10 25  1  0
M  RAD  1   6   2
M  END
>  <reaction>  (17) 
rxn_1266

>  <mol_properties>  (17) 
{"1": {"label": "*4", "atom_type": "Ct"}, "2": {"label": "*3", "atom_type": "Cs"}, "5": {"label": "*2", "atom_type": "H0"}, "11": {"label": "*0", "atom_type": "Cd"}, "12": {"label": "*1", "atom_type": "Cs"}}

>  <type>  (17) 
unop_13

>  <geom_source>  (17) 
AutoTST

$$$$
