
     RDKit          3D

 12 11  0  0  0  0  0  0  0  0999 V2000
    1.9877    0.1011    0.4814 C   0  0  0  0  0  0  0  0  0  0  0  0
    0.8179    0.5502    0.0525 C   0  0  0  0  0  0  0  0  0  0  0  0
   -0.2939   -0.2692   -0.5320 C   0  0  0  0  0  0  0  0  0  0  0  0
   -0.0292   -1.7631   -0.6328 C   0  0  0  0  0  0  0  0  0  0  0  0
    2.2522   -0.9490    0.4436 H   0  0  0  0  0  0  0  0  0  0  0  0
    2.7295    0.7757    0.8896 H   0  0  0  0  0  0  0  0  0  0  0  0
    0.6162    1.6164    0.1190 H   0  0  0  0  0  0  0  0  0  0  0  0
   -0.5268    0.1319   -1.5245 H   0  0  0  0  0  0  0  0  0  0  0  0
   -1.1959   -0.0938    0.0644 H   0  0  0  0  0  0  0  0  0  0  0  0
    0.1590   -2.1992    0.3502 H   0  0  0  0  0  0  0  0  0  0  0  0
    0.8382   -1.9701   -1.2626 H   0  0  0  0  0  0  0  0  0  0  0  0
   -0.8879   -2.2759   -1.0672 H   0  0  0  0  0  0  0  0  0  0  0  0
  1  2  2  3
  1  5  1  0
  1  6  1  0
  2  3  1  0
  2  7  1  0
  3  4  1  0
  3  8  1  0
  3  9  1  0
  4 10  1  0
  4 11  1  0
  4 12  1  0
M  END
>  <reaction>  (1) 
rxn_101

>  <mol_properties>  (1) 
{"3": {"label": "donator", "atom_type": "Cs"}, "9": {"label": "d_hydrogen", "atom_type": "H0"}}

>  <type>  (1) 
r1h

$$$$

     RDKit          3D

  3  2  0  0  0  0  0  0  0  0999 V2000
    0.0002    0.4233    0.0000 N   0  0  0  0  0  2  0  0  0  0  0  0
   -0.8051   -0.2112    0.0000 H   0  0  0  0  0  0  0  0  0  0  0  0
    0.8049   -0.2121    0.0000 H   0  0  0  0  0  0  0  0  0  0  0  0
  1  2  1  0
  1  3  1  0
M  RAD  1   1   2
M  END
>  <reaction>  (2) 
rxn_101

>  <mol_properties>  (2) 
{"0": {"label": "acceptor", "atom_type": "N3s"}}

>  <type>  (2) 
r2

$$$$

     RDKit          3D

  4  3  0  0  0  0  0  0  0  0999 V2000
    0.0006   -0.0009    0.2762 N   0  0  0  0  0  0  0  0  0  0  0  0
   -0.4188    0.8439   -0.0883 H   0  0  0  0  0  0  0  0  0  0  0  0
   -0.5215   -0.7840   -0.0936 H   0  0  0  0  0  0  0  0  0  0  0  0
    0.9397   -0.0590   -0.0943 H   0  0  0  0  0  0  0  0  0  0  0  0
  1  2  1  0
  1  3  1  0
  1  4  1  0
M  END
>  <reaction>  (3) 
rxn_101

>  <mol_properties>  (3) 
{"0": {"label": "acceptor", "atom_type": "N3s"}, "3": {"label": "a_hydrogen", "atom_type": "H0"}}

>  <type>  (3) 
r2h

$$$$

     RDKit          3D

 15 13  0  0  0  0  0  0  0  0999 V2000
   -1.5959    1.6446   -0.6390 N   0  0  0  0  0  2  0  0  0  0  0  0
   -1.2790    1.9653   -1.5559 H   0  0  0  0  0  0  0  0  0  0  0  0
   -1.8291    0.6604   -0.7851 H   0  0  0  0  0  0  0  0  0  0  0  0
    0.2051   -1.4174   -0.8648 C   0  0  0  0  0  0  0  0  0  0  0  0
    0.2444   -1.3193    0.4556 C   0  0  0  0  0  0  0  0  0  0  0  0
    0.5033   -0.0784    1.2581 C   0  0  0  0  0  0  0  0  0  0  0  0
    0.6893    1.1963    0.4791 C   0  0  0  0  0  0  0  0  0  0  0  0
    0.3584   -0.5626   -1.5128 H   0  0  0  0  0  0  0  0  0  0  0  0
    0.0180   -2.3678   -1.3481 H   0  0  0  0  0  0  0  0  0  0  0  0
    0.0820   -2.2167    1.0465 H   0  0  0  0  0  0  0  0  0  0  0  0
    1.3912   -0.2601    1.8786 H   0  0  0  0  0  0  0  0  0  0  0  0
   -0.3165    0.0480    1.9738 H   0  0  0  0  0  0  0  0  0  0  0  0
   -0.4487    1.5005   -0.0423 H   0  0  0  0  0  0  0  0  0  0  0  0
    1.4069    1.1325   -0.3373 H   0  0  0  0  0  0  0  0  0  0  0  0
    0.8803    2.0647    1.1070 H   0  0  0  0  0  0  0  0  0  0  0  0
  1  2  1  0
  1  3  1  0
  4  5  2  3
  4  8  1  0
  4  9  1  0
  5  6  1  0
  5 10  1  0
  6  7  1  0
  6 11  1  0
  6 12  1  0
  7 13  1  0
  7 14  1  0
  7 15  1  0
M  RAD  1   1   2
M  END
>  <reaction>  (4) 
rxn_101

>  <mol_properties>  (4) 
{"0": {"label": "*3", "atom_type": "N3s"}, "1": {"label": "*4", "atom_type": "H0"}, "5": {"label": "*0", "atom_type": "Cs"}, "6": {"label": "*1", "atom_type": "Cs"}, "12": {"label": "*2", "atom_type": "H0"}}

>  <type>  (4) 
ts

$$$$

     RDKit          3D

 15 13  0  0  0  0  0  0  0  0999 V2000
   -1.5872    1.4075   -0.9454 N   0  0  0  0  0  0  0  0  0  0  0  0
   -2.0971    2.2149   -0.6127 H   0  0  0  0  0  0  0  0  0  0  0  0
   -0.8451    1.8556   -1.4660 H   0  0  0  0  0  0  0  0  0  0  0  0
    0.4525   -1.4086   -0.9937 C   0  0  0  0  0  0  0  0  0  0  0  0
    0.4525   -1.4086    0.3307 C   0  0  0  0  0  0  0  0  0  0  0  0
    0.4525   -0.2041    1.2241 C   0  0  0  0  0  0  0  0  0  0  0  0
    0.4525    1.1416    0.5164 C   0  0  0  0  0  3  0  0  0  0  0  0
    0.4525   -0.4917   -1.5711 H   0  0  0  0  0  0  0  0  0  0  0  0
    0.4525   -2.3360   -1.5523 H   0  0  0  0  0  0  0  0  0  0  0  0
    0.4525   -2.3644    0.8489 H   0  0  0  0  0  0  0  0  0  0  0  0
    1.3219   -0.2721    1.8873 H   0  0  0  0  0  0  0  0  0  0  0  0
   -0.4169   -0.2721    1.8873 H   0  0  0  0  0  0  0  0  0  0  0  0
   -0.6064    1.2796   -0.2425 H   0  0  0  0  0  0  0  0  0  0  0  0
    1.3350    1.2566   -0.1160 H   0  0  0  0  0  0  0  0  0  0  0  0
    0.4525    1.9560    1.2417 H   0  0  0  0  0  0  0  0  0  0  0  0
  1  2  1  0
  1  3  1  0
  1 13  1  0
  4  5  2  3
  4  8  1  0
  4  9  1  0
  5  6  1  0
  5 10  1  0
  6  7  1  0
  6 11  1  0
  6 12  1  0
  7 14  1  0
  7 15  1  0
M  RAD  1   7   2
M  END
>  <reaction>  (5) 
rxn_101

>  <mol_properties>  (5) 
{"0": {"label": "*3", "atom_type": "N3s"}, "1": {"label": "*4", "atom_type": "H0"}, "5": {"label": "*0", "atom_type": "Cs"}, "6": {"label": "*1", "atom_type": "Cs"}, "12": {"label": "*2", "atom_type": "H0"}}

>  <type>  (5) 
unop_1

>  <geom_source>  (5) 
Heuristics

$$$$

     RDKit          3D

 15 13  0  0  0  0  0  0  0  0999 V2000
   -1.5763    1.4195   -0.9589 N   0  0  0  0  0  0  0  0  0  0  0  0
   -2.3251    0.8873   -0.5363 H   0  0  0  0  0  0  0  0  0  0  0  0
   -1.3766    2.3448   -0.6032 H   0  0  0  0  0  0  0  0  0  0  0  0
    0.4634   -1.3966   -1.0072 C   0  0  0  0  0  0  0  0  0  0  0  0
    0.4634   -1.3966    0.3172 C   0  0  0  0  0  0  0  0  0  0  0  0
    0.4634   -0.1921    1.2106 C   0  0  0  0  0  0  0  0  0  0  0  0
    0.4634    1.1537    0.5029 C   0  0  0  0  0  3  0  0  0  0  0  0
    0.4634   -0.4797   -1.5846 H   0  0  0  0  0  0  0  0  0  0  0  0
    0.4634   -2.3239   -1.5659 H   0  0  0  0  0  0  0  0  0  0  0  0
    0.4634   -2.3523    0.8354 H   0  0  0  0  0  0  0  0  0  0  0  0
    1.3328   -0.2601    1.8738 H   0  0  0  0  0  0  0  0  0  0  0  0
   -0.4059   -0.2601    1.8738 H   0  0  0  0  0  0  0  0  0  0  0  0
   -0.5955    1.2917   -0.2560 H   0  0  0  0  0  0  0  0  0  0  0  0
    1.3459    1.2687   -0.1295 H   0  0  0  0  0  0  0  0  0  0  0  0
    0.4634    1.9680    1.2282 H   0  0  0  0  0  0  0  0  0  0  0  0
  1  2  1  0
  1  3  1  0
  1 13  1  0
  4  5  2  3
  4  8  1  0
  4  9  1  0
  5  6  1  0
  5 10  1  0
  6  7  1  0
  6 11  1  0
  6 12  1  0
  7 14  1  0
  7 15  1  0
M  RAD  1   7   2
M  END
>  <reaction>  (6) 
rxn_101

>  <mol_properties>  (6) 
{"0": {"label": "*3", "atom_type": "N3s"}, "1": {"label": "*4", "atom_type": "H0"}, "5": {"label": "*0", "atom_type": "Cs"}, "6": {"label": "*1", "atom_type": "Cs"}, "12": {"label": "*2", "atom_type": "H0"}}

>  <type>  (6) 
unop_2

>  <geom_source>  (6) 
Heuristics

$$$$

     RDKit          3D

 15 13  0  0  0  0  0  0  0  0999 V2000
   -1.5890    1.4104   -0.9360 N   0  0  0  0  0  0  0  0  0  0  0  0
   -1.8121    2.3961   -0.9709 H   0  0  0  0  0  0  0  0  0  0  0  0
   -1.0048    1.4719   -1.7591 H   0  0  0  0  0  0  0  0  0  0  0  0
    0.4507   -1.4057   -0.9843 C   0  0  0  0  0  0  0  0  0  0  0  0
    0.4507   -1.4057    0.3401 C   0  0  0  0  0  0  0  0  0  0  0  0
    0.4507   -0.2012    1.2335 C   0  0  0  0  0  0  0  0  0  0  0  0
    0.4507    1.1445    0.5258 C   0  0  0  0  0  3  0  0  0  0  0  0
    0.4507   -0.4888   -1.5617 H   0  0  0  0  0  0  0  0  0  0  0  0
    0.4507   -2.3331   -1.5430 H   0  0  0  0  0  0  0  0  0  0  0  0
    0.4507   -2.3614    0.8582 H   0  0  0  0  0  0  0  0  0  0  0  0
    1.3201   -0.2692    1.8966 H   0  0  0  0  0  0  0  0  0  0  0  0
   -0.4187   -0.2692    1.8966 H   0  0  0  0  0  0  0  0  0  0  0  0
   -0.6082    1.2826   -0.2331 H   0  0  0  0  0  0  0  0  0  0  0  0
    1.3332    1.2595   -0.1066 H   0  0  0  0  0  0  0  0  0  0  0  0
    0.4507    1.9589    1.2511 H   0  0  0  0  0  0  0  0  0  0  0  0
  1  2  1  0
  1  3  1  0
  1 13  1  0
  4  5  2  3
  4  8  1  0
  4  9  1  0
  5  6  1  0
  5 10  1  0
  6  7  1  0
  6 11  1  0
  6 12  1  0
  7 14  1  0
  7 15  1  0
M  RAD  1   7   2
M  END
>  <reaction>  (7) 
rxn_101

>  <mol_properties>  (7) 
{"0": {"label": "*3", "atom_type": "N3s"}, "1": {"label": "*4", "atom_type": "H0"}, "5": {"label": "*0", "atom_type": "Cs"}, "6": {"label": "*1", "atom_type": "Cs"}, "12": {"label": "*2", "atom_type": "H0"}}

>  <type>  (7) 
unop_3

>  <geom_source>  (7) 
Heuristics

$$$$

     RDKit          3D

 15 13  0  0  0  0  0  0  0  0999 V2000
   -1.5715    1.4323   -0.9437 N   0  0  0  0  0  0  0  0  0  0  0  0
   -1.5538    0.6890   -1.6291 H   0  0  0  0  0  0  0  0  0  0  0  0
   -2.4835    1.6595   -0.5706 H   0  0  0  0  0  0  0  0  0  0  0  0
    0.4683   -1.3839   -0.9919 C   0  0  0  0  0  0  0  0  0  0  0  0
    0.4683   -1.3839    0.3324 C   0  0  0  0  0  0  0  0  0  0  0  0
    0.4683   -0.1794    1.2259 C   0  0  0  0  0  0  0  0  0  0  0  0
    0.4683    1.1664    0.5182 C   0  0  0  0  0  3  0  0  0  0  0  0
    0.4683   -0.4670   -1.5694 H   0  0  0  0  0  0  0  0  0  0  0  0
    0.4683   -2.3112   -1.5506 H   0  0  0  0  0  0  0  0  0  0  0  0
    0.4683   -2.3396    0.8506 H   0  0  0  0  0  0  0  0  0  0  0  0
    1.3377   -0.2473    1.8890 H   0  0  0  0  0  0  0  0  0  0  0  0
   -0.4011   -0.2473    1.8890 H   0  0  0  0  0  0  0  0  0  0  0  0
   -0.5907    1.3044   -0.2407 H   0  0  0  0  0  0  0  0  0  0  0  0
    1.3507    1.2814   -0.1142 H   0  0  0  0  0  0  0  0  0  0  0  0
    0.4683    1.9807    1.2435 H   0  0  0  0  0  0  0  0  0  0  0  0
  1  2  1  0
  1  3  1  0
  1 13  1  0
  4  5  2  3
  4  8  1  0
  4  9  1  0
  5  6  1  0
  5 10  1  0
  6  7  1  0
  6 11  1  0
  6 12  1  0
  7 14  1  0
  7 15  1  0
M  RAD  1   7   2
M  END
>  <reaction>  (8) 
rxn_101

>  <mol_properties>  (8) 
{"0": {"label": "*3", "atom_type": "N3s"}, "1": {"label": "*4", "atom_type": "H0"}, "5": {"label": "*0", "atom_type": "Cs"}, "6": {"label": "*1", "atom_type": "Cs"}, "12": {"label": "*2", "atom_type": "H0"}}

>  <type>  (8) 
unop_4

>  <geom_source>  (8) 
Heuristics

$$$$

     RDKit          3D

 15 13  0  0  0  0  0  0  0  0999 V2000
   -1.5847    1.4181   -0.9290 N   0  0  0  0  0  0  0  0  0  0  0  0
   -1.5272    2.3266   -1.3694 H   0  0  0  0  0  0  0  0  0  0  0  0
   -1.5949    1.0040   -1.8514 H   0  0  0  0  0  0  0  0  0  0  0  0
    0.4551   -1.3980   -0.9772 C   0  0  0  0  0  0  0  0  0  0  0  0
    0.4551   -1.3980    0.3471 C   0  0  0  0  0  0  0  0  0  0  0  0
    0.4551   -0.1935    1.2406 C   0  0  0  0  0  0  0  0  0  0  0  0
    0.4551    1.1523    0.5329 C   0  0  0  0  0  3  0  0  0  0  0  0
    0.4551   -0.4811   -1.5547 H   0  0  0  0  0  0  0  0  0  0  0  0
    0.4551   -2.3253   -1.5359 H   0  0  0  0  0  0  0  0  0  0  0  0
    0.4551   -2.3537    0.8653 H   0  0  0  0  0  0  0  0  0  0  0  0
    1.3245   -0.2615    1.9037 H   0  0  0  0  0  0  0  0  0  0  0  0
   -0.4143   -0.2615    1.9037 H   0  0  0  0  0  0  0  0  0  0  0  0
   -0.6038    1.2903   -0.2260 H   0  0  0  0  0  0  0  0  0  0  0  0
    1.3376    1.2673   -0.0995 H   0  0  0  0  0  0  0  0  0  0  0  0
    0.4551    1.9666    1.2582 H   0  0  0  0  0  0  0  0  0  0  0  0
  1  2  1  0
  1  3  1  0
  1 13  1  0
  4  5  2  3
  4  8  1  0
  4  9  1  0
  5  6  1  0
  5 10  1  0
  6  7  1  0
  6 11  1  0
  6 12  1  0
  7 14  1  0
  7 15  1  0
M  RAD  1   7   2
M  END
>  <reaction>  (9) 
rxn_101

>  <mol_properties>  (9) 
{"0": {"label": "*3", "atom_type": "N3s"}, "1": {"label": "*4", "atom_type": "H0"}, "5": {"label": "*0", "atom_type": "Cs"}, "6": {"label": "*1", "atom_type": "Cs"}, "12": {"label": "*2", "atom_type": "H0"}}

>  <type>  (9) 
unop_5

>  <geom_source>  (9) 
Heuristics

$$$$

     RDKit          3D

 15 13  0  0  0  0  0  0  0  0999 V2000
   -1.5733    1.4308   -0.9371 N   0  0  0  0  0  0  0  0  0  0  0  0
   -1.3395    1.0736   -1.8538 H   0  0  0  0  0  0  0  0  0  0  0  0
   -2.5741    1.3756   -0.8032 H   0  0  0  0  0  0  0  0  0  0  0  0
    0.4665   -1.3853   -0.9853 C   0  0  0  0  0  0  0  0  0  0  0  0
    0.4665   -1.3853    0.3390 C   0  0  0  0  0  0  0  0  0  0  0  0
    0.4665   -0.1808    1.2325 C   0  0  0  0  0  0  0  0  0  0  0  0
    0.4665    1.1649    0.5248 C   0  0  0  0  0  3  0  0  0  0  0  0
    0.4665   -0.4684   -1.5628 H   0  0  0  0  0  0  0  0  0  0  0  0
    0.4665   -2.3127   -1.5440 H   0  0  0  0  0  0  0  0  0  0  0  0
    0.4665   -2.3410    0.8572 H   0  0  0  0  0  0  0  0  0  0  0  0
    1.3359   -0.2488    1.8956 H   0  0  0  0  0  0  0  0  0  0  0  0
   -0.4029   -0.2488    1.8956 H   0  0  0  0  0  0  0  0  0  0  0  0
   -0.5924    1.3030   -0.2341 H   0  0  0  0  0  0  0  0  0  0  0  0
    1.3489    1.2800   -0.1077 H   0  0  0  0  0  0  0  0  0  0  0  0
    0.4665    1.9793    1.2501 H   0  0  0  0  0  0  0  0  0  0  0  0
  1  2  1  0
  1  3  1  0
  1 13  1  0
  4  5  2  3
  4  8  1  0
  4  9  1  0
  5  6  1  0
  5 10  1  0
  6  7  1  0
  6 11  1  0
  6 12  1  0
  7 14  1  0
  7 15  1  0
M  RAD  1   7   2
M  END
>  <reaction>  (10) 
rxn_101

>  <mol_properties>  (10) 
{"0": {"label": "*3", "atom_type": "N3s"}, "1": {"label": "*4", "atom_type": "H0"}, "5": {"label": "*0", "atom_type": "Cs"}, "6": {"label": "*1", "atom_type": "Cs"}, "12": {"label": "*2", "atom_type": "H0"}}

>  <type>  (10) 
unop_6

>  <geom_source>  (10) 
Heuristics

$$$$

     RDKit          3D

 15 13  0  0  0  0  0  0  0  0999 V2000
   -1.5752    1.4274   -0.9325 N   0  0  0  0  0  0  0  0  0  0  0  0
   -1.2539    1.5605   -1.8820 H   0  0  0  0  0  0  0  0  0  0  0  0
   -2.5256    1.1237   -1.0967 H   0  0  0  0  0  0  0  0  0  0  0  0
    0.4646   -1.3887   -0.9807 C   0  0  0  0  0  0  0  0  0  0  0  0
    0.4646   -1.3887    0.3436 C   0  0  0  0  0  0  0  0  0  0  0  0
    0.4646   -0.1842    1.2371 C   0  0  0  0  0  0  0  0  0  0  0  0
    0.4646    1.1616    0.5294 C   0  0  0  0  0  3  0  0  0  0  0  0
    0.4646   -0.4718   -1.5582 H   0  0  0  0  0  0  0  0  0  0  0  0
    0.4646   -2.3160   -1.5394 H   0  0  0  0  0  0  0  0  0  0  0  0
    0.4646   -2.3444    0.8618 H   0  0  0  0  0  0  0  0  0  0  0  0
    1.3340   -0.2522    1.9002 H   0  0  0  0  0  0  0  0  0  0  0  0
   -0.4048   -0.2522    1.9002 H   0  0  0  0  0  0  0  0  0  0  0  0
   -0.5944    1.2996   -0.2295 H   0  0  0  0  0  0  0  0  0  0  0  0
    1.3470    1.2766   -0.1030 H   0  0  0  0  0  0  0  0  0  0  0  0
    0.4646    1.9759    1.2547 H   0  0  0  0  0  0  0  0  0  0  0  0
  1  2  1  0
  1  3  1  0
  1 13  1  0
  4  5  2  3
  4  8  1  0
  4  9  1  0
  5  6  1  0
  5 10  1  0
  6  7  1  0
  6 11  1  0
  6 12  1  0
  7 14  1  0
  7 15  1  0
M  RAD  1   7   2
M  END
>  <reaction>  (11) 
rxn_101

>  <mol_properties>  (11) 
{"0": {"label": "*3", "atom_type": "N3s"}, "1": {"label": "*4", "atom_type": "H0"}, "5": {"label": "*0", "atom_type": "Cs"}, "6": {"label": "*1", "atom_type": "Cs"}, "12": {"label": "*2", "atom_type": "H0"}}

>  <type>  (11) 
unop_7

>  <geom_source>  (11) 
Heuristics

$$$$

     RDKit          3D

 15 13  0  0  0  0  0  0  0  0999 V2000
   -1.5836    1.4094   -0.9528 N   0  0  0  0  0  0  0  0  0  0  0  0
   -2.3095    1.8308   -0.3888 H   0  0  0  0  0  0  0  0  0  0  0  0
   -0.8874    2.1079   -1.1762 H   0  0  0  0  0  0  0  0  0  0  0  0
    0.4562   -1.4067   -1.0010 C   0  0  0  0  0  0  0  0  0  0  0  0
    0.4562   -1.4067    0.3233 C   0  0  0  0  0  0  0  0  0  0  0  0
    0.4562   -0.2022    1.2168 C   0  0  0  0  0  0  0  0  0  0  0  0
    0.4562    1.1435    0.5091 C   0  0  0  0  0  3  0  0  0  0  0  0
    0.4562   -0.4898   -1.5785 H   0  0  0  0  0  0  0  0  0  0  0  0
    0.4562   -2.3341   -1.5597 H   0  0  0  0  0  0  0  0  0  0  0  0
    0.4562   -2.3625    0.8415 H   0  0  0  0  0  0  0  0  0  0  0  0
    1.3256   -0.2702    1.8799 H   0  0  0  0  0  0  0  0  0  0  0  0
   -0.4132   -0.2702    1.8799 H   0  0  0  0  0  0  0  0  0  0  0  0
   -0.6027    1.2815   -0.2499 H   0  0  0  0  0  0  0  0  0  0  0  0
    1.3386    1.2585   -0.1234 H   0  0  0  0  0  0  0  0  0  0  0  0
    0.4562    1.9579    1.2344 H   0  0  0  0  0  0  0  0  0  0  0  0
  1  2  1  0
  1  3  1  0
  1 13  1  0
  4  5  2  3
  4  8  1  0
  4  9  1  0
  5  6  1  0
  5 10  1  0
  6  7  1  0
  6 11  1  0
  6 12  1  0
  7 14  1  0
  7 15  1  0
M  RAD  1   7   2
M  END
>  <reaction>  (12) 
rxn_101

>  <mol_properties>  (12) 
{"0": {"label": "*3", "atom_type": "N3s"}, "1": {"label": "*4", "atom_type": "H0"}, "5": {"label": "*0", "atom_type": "Cs"}, "6": {"label": "*1", "atom_type": "Cs"}, "12": {"label": "*2", "atom_type": "H0"}}

>  <type>  (12) 
unop_8

>  <geom_source>  (12) 
Heuristics

$$$$

     RDKit          3D

 15 13  0  0  0  0  0  0  0  0999 V2000
   -1.5710    1.4303   -0.9511 N   0  0  0  0  0  0  0  0  0  0  0  0
   -1.8400    0.5088   -1.2689 H   0  0  0  0  0  0  0  0  0  0  0  0
   -2.2343    1.9723   -0.4137 H   0  0  0  0  0  0  0  0  0  0  0  0
    0.4688   -1.3858   -0.9994 C   0  0  0  0  0  0  0  0  0  0  0  0
    0.4688   -1.3858    0.3250 C   0  0  0  0  0  0  0  0  0  0  0  0
    0.4688   -0.1813    1.2184 C   0  0  0  0  0  0  0  0  0  0  0  0
    0.4688    1.1645    0.5107 C   0  0  0  0  0  3  0  0  0  0  0  0
    0.4688   -0.4689   -1.5768 H   0  0  0  0  0  0  0  0  0  0  0  0
    0.4688   -2.3131   -1.5580 H   0  0  0  0  0  0  0  0  0  0  0  0
    0.4688   -2.3415    0.8432 H   0  0  0  0  0  0  0  0  0  0  0  0
    1.3382   -0.2493    1.8816 H   0  0  0  0  0  0  0  0  0  0  0  0
   -0.4006   -0.2493    1.8816 H   0  0  0  0  0  0  0  0  0  0  0  0
   -0.5901    1.3025   -0.2482 H   0  0  0  0  0  0  0  0  0  0  0  0
    1.3512    1.2795   -0.1217 H   0  0  0  0  0  0  0  0  0  0  0  0
    0.4688    1.9788    1.2360 H   0  0  0  0  0  0  0  0  0  0  0  0
  1  2  1  0
  1  3  1  0
  1 13  1  0
  4  5  2  3
  4  8  1  0
  4  9  1  0
  5  6  1  0
  5 10  1  0
  6  7  1  0
  6 11  1  0
  6 12  1  0
  7 14  1  0
  7 15  1  0
M  RAD  1   7   2
M  END
>  <reaction>  (13) 
rxn_101

>  <mol_properties>  (13) 
{"0": {"label": "*3", "atom_type": "N3s"}, "1": {"label": "*4", "atom_type": "H0"}, "5": {"label": "*0", "atom_type": "Cs"}, "6": {"label": "*1", "atom_type": "Cs"}, "12": {"label": "*2", "atom_type": "H0"}}

>  <type>  (13) 
unop_9

>  <geom_source>  (13) 
Heuristics

$$$$

     RDKit          3D

 15 13  0  0  0  0  0  0  0  0999 V2000
   -1.5799    1.4139   -0.9574 N   0  0  0  0  0  0  0  0  0  0  0  0
   -2.3933    1.3450   -0.3605 H   0  0  0  0  0  0  0  0  0  0  0  0
   -1.0589    2.2777   -0.8860 H   0  0  0  0  0  0  0  0  0  0  0  0
    0.4599   -1.4022   -1.0056 C   0  0  0  0  0  0  0  0  0  0  0  0
    0.4599   -1.4022    0.3187 C   0  0  0  0  0  0  0  0  0  0  0  0
    0.4599   -0.1977    1.2122 C   0  0  0  0  0  0  0  0  0  0  0  0
    0.4599    1.1481    0.5045 C   0  0  0  0  0  3  0  0  0  0  0  0
    0.4599   -0.4853   -1.5831 H   0  0  0  0  0  0  0  0  0  0  0  0
    0.4599   -2.3295   -1.5643 H   0  0  0  0  0  0  0  0  0  0  0  0
    0.4599   -2.3579    0.8369 H   0  0  0  0  0  0  0  0  0  0  0  0
    1.3292   -0.2657    1.8753 H   0  0  0  0  0  0  0  0  0  0  0  0
   -0.4095   -0.2657    1.8753 H   0  0  0  0  0  0  0  0  0  0  0  0
   -0.5991    1.2861   -0.2544 H   0  0  0  0  0  0  0  0  0  0  0  0
    1.3423    1.2631   -0.1279 H   0  0  0  0  0  0  0  0  0  0  0  0
    0.4599    1.9624    1.2298 H   0  0  0  0  0  0  0  0  0  0  0  0
  1  2  1  0
  1  3  1  0
  1 13  1  0
  4  5  2  3
  4  8  1  0
  4  9  1  0
  5  6  1  0
  5 10  1  0
  6  7  1  0
  6 11  1  0
  6 12  1  0
  7 14  1  0
  7 15  1  0
M  RAD  1   7   2
M  END
>  <reaction>  (14) 
rxn_101

>  <mol_properties>  (14) 
{"0": {"label": "*3", "atom_type": "N3s"}, "1": {"label": "*4", "atom_type": "H0"}, "5": {"label": "*0", "atom_type": "Cs"}, "6": {"label": "*1", "atom_type": "Cs"}, "12": {"label": "*2", "atom_type": "H0"}}

>  <type>  (14) 
unop_10

>  <geom_source>  (14) 
Heuristics

$$$$

     RDKit          3D

 15 13  0  0  0  0  0  0  0  0999 V2000
   -1.5781    1.4237   -0.9294 N   0  0  0  0  0  0  0  0  0  0  0  0
   -1.3214    2.0201   -1.7047 H   0  0  0  0  0  0  0  0  0  0  0  0
   -2.2581    0.9237   -1.4863 H   0  0  0  0  0  0  0  0  0  0  0  0
    0.4617   -1.3924   -0.9777 C   0  0  0  0  0  0  0  0  0  0  0  0
    0.4617   -1.3924    0.3467 C   0  0  0  0  0  0  0  0  0  0  0  0
    0.4617   -0.1879    1.2401 C   0  0  0  0  0  0  0  0  0  0  0  0
    0.4617    1.1578    0.5324 C   0  0  0  0  0  3  0  0  0  0  0  0
    0.4617   -0.4755   -1.5551 H   0  0  0  0  0  0  0  0  0  0  0  0
    0.4617   -2.3198   -1.5363 H   0  0  0  0  0  0  0  0  0  0  0  0
    0.4617   -2.3482    0.8649 H   0  0  0  0  0  0  0  0  0  0  0  0
    1.3311   -0.2559    1.9033 H   0  0  0  0  0  0  0  0  0  0  0  0
   -0.4077   -0.2559    1.9033 H   0  0  0  0  0  0  0  0  0  0  0  0
   -0.5972    1.2958   -0.2265 H   0  0  0  0  0  0  0  0  0  0  0  0
    1.3441    1.2728   -0.1000 H   0  0  0  0  0  0  0  0  0  0  0  0
    0.4617    1.9722    1.2577 H   0  0  0  0  0  0  0  0  0  0  0  0
  1  2  1  0
  1  3  1  0
  1 13  1  0
  4  5  2  3
  4  8  1  0
  4  9  1  0
  5  6  1  0
  5 10  1  0
  6  7  1  0
  6 11  1  0
  6 12  1  0
  7 14  1  0
  7 15  1  0
M  RAD  1   7   2
M  END
>  <reaction>  (15) 
rxn_101

>  <mol_properties>  (15) 
{"0": {"label": "*3", "atom_type": "N3s"}, "1": {"label": "*4", "atom_type": "H0"}, "5": {"label": "*0", "atom_type": "Cs"}, "6": {"label": "*1", "atom_type": "Cs"}, "12": {"label": "*2", "atom_type": "H0"}}

>  <type>  (15) 
unop_11

>  <geom_source>  (15) 
Heuristics

$$$$

     RDKit          3D

 15 13  0  0  0  0  0  0  0  0999 V2000
   -1.5729    1.4254   -0.9569 N   0  0  0  0  0  0  0  0  0  0  0  0
   -2.1224    0.5812   -0.8691 H   0  0  0  0  0  0  0  0  0  0  0  0
   -1.8205    2.2409   -0.4126 H   0  0  0  0  0  0  0  0  0  0  0  0
    0.4669   -1.3907   -1.0051 C   0  0  0  0  0  0  0  0  0  0  0  0
    0.4669   -1.3907    0.3192 C   0  0  0  0  0  0  0  0  0  0  0  0
    0.4669   -0.1862    1.2127 C   0  0  0  0  0  0  0  0  0  0  0  0
    0.4669    1.1596    0.5050 C   0  0  0  0  0  3  0  0  0  0  0  0
    0.4669   -0.4738   -1.5826 H   0  0  0  0  0  0  0  0  0  0  0  0
    0.4669   -2.3180   -1.5638 H   0  0  0  0  0  0  0  0  0  0  0  0
    0.4669   -2.3464    0.8374 H   0  0  0  0  0  0  0  0  0  0  0  0
    1.3363   -0.2542    1.8758 H   0  0  0  0  0  0  0  0  0  0  0  0
   -0.4025   -0.2542    1.8758 H   0  0  0  0  0  0  0  0  0  0  0  0
   -0.5920    1.2976   -0.2539 H   0  0  0  0  0  0  0  0  0  0  0  0
    1.3494    1.2746   -0.1274 H   0  0  0  0  0  0  0  0  0  0  0  0
    0.4669    1.9739    1.2303 H   0  0  0  0  0  0  0  0  0  0  0  0
  1  2  1  0
  1  3  1  0
  1 13  1  0
  4  5  2  3
  4  8  1  0
  4  9  1  0
  5  6  1  0
  5 10  1  0
  6  7  1  0
  6 11  1  0
  6 12  1  0
  7 14  1  0
  7 15  1  0
M  RAD  1   7   2
M  END
>  <reaction>  (16) 
rxn_101

>  <mol_properties>  (16) 
{"0": {"label": "*3", "atom_type": "N3s"}, "1": {"label": "*4", "atom_type": "H0"}, "5": {"label": "*0", "atom_type": "Cs"}, "6": {"label": "*1", "atom_type": "Cs"}, "12": {"label": "*2", "atom_type": "H0"}}

>  <type>  (16) 
unop_12

>  <geom_source>  (16) 
Heuristics

$$$$
