
     RDKit          3D

 18 18  0  0  0  0  0  0  0  0999 V2000
   -2.4852    0.3210   -0.3966 C   0  0  0  0  0  0  0  0  0  0  0  0
   -1.5917   -0.2708    0.6941 C   0  0  0  0  0  0  0  0  0  0  0  0
   -0.1292   -0.1692    0.3493 C   0  0  0  0  0  0  0  0  0  0  0  0
    0.6099    0.9558    0.7015 C   0  0  0  0  0  0  0  0  0  0  0  0
    1.9447    1.0728    0.3458 C   0  0  0  0  0  0  0  0  0  0  0  0
    2.5646    0.0613   -0.3720 C   0  0  0  0  0  0  0  0  0  0  0  0
    1.8399   -1.0657   -0.7287 C   0  0  0  0  0  0  0  0  0  0  0  0
    0.5055   -1.1769   -0.3700 C   0  0  0  0  0  0  0  0  0  0  0  0
   -2.3325   -0.1971   -1.3452 H   0  0  0  0  0  0  0  0  0  0  0  0
   -2.2554    1.3763   -0.5546 H   0  0  0  0  0  0  0  0  0  0  0  0
   -3.5397    0.2376   -0.1280 H   0  0  0  0  0  0  0  0  0  0  0  0
   -1.7801    0.2462    1.6380 H   0  0  0  0  0  0  0  0  0  0  0  0
   -1.8568   -1.3190    0.8516 H   0  0  0  0  0  0  0  0  0  0  0  0
    0.1327    1.7497    1.2656 H   0  0  0  0  0  0  0  0  0  0  0  0
    2.5033    1.9550    0.6330 H   0  0  0  0  0  0  0  0  0  0  0  0
    3.6077    0.1491   -0.6484 H   0  0  0  0  0  0  0  0  0  0  0  0
    2.3163   -1.8632   -1.2854 H   0  0  0  0  0  0  0  0  0  0  0  0
   -0.0540   -2.0629   -0.6500 H   0  0  0  0  0  0  0  0  0  0  0  0
  1  2  1  0
  1  9  1  0
  1 10  1  0
  1 11  1  0
  2  3  1  0
  2 12  1  0
  2 13  1  0
  3  4  2  0
  3  8  1  0
  4  5  1  0
  4 14  1  0
  5  6  2  0
  5 15  1  0
  6  7  1  0
  6 16  1  0
  7  8  2  0
  7 17  1  0
  8 18  1  0
M  END
>  <reaction>  (1) 
rxn_1485

>  <mol_properties>  (1) 
{"1": {"label": "donator", "atom_type": "Cs"}, "11": {"label": "d_hydrogen", "atom_type": "H0"}}

>  <type>  (1) 
r1h

$$$$

     RDKit          3D

 12 11  0  0  0  0  0  0  0  0999 V2000
   -2.3791    0.4612   -0.5870 C   0  0  0  0  0  0  0  0  0  0  0  0
   -1.3422   -0.3138   -0.1893 C   0  0  0  0  0  0  0  0  0  0  0  0
   -1.4723   -1.6058    0.3589 C   0  0  0  0  0  3  0  0  0  0  0  0
   -0.3798   -2.3973    0.7671 C   0  0  0  0  0  0  0  0  0  0  0  0
   -0.4849   -3.6397    1.2956 C   0  0  0  0  0  0  0  0  0  0  0  0
   -2.2205    1.4472   -1.0017 H   0  0  0  0  0  0  0  0  0  0  0  0
   -3.4026    0.1153   -0.5011 H   0  0  0  0  0  0  0  0  0  0  0  0
   -0.3330    0.0765   -0.2952 H   0  0  0  0  0  0  0  0  0  0  0  0
   -2.4723   -2.0151    0.4735 H   0  0  0  0  0  0  0  0  0  0  0  0
    0.6117   -1.9687    0.6436 H   0  0  0  0  0  0  0  0  0  0  0  0
    0.3893   -4.2030    1.5920 H   0  0  0  0  0  0  0  0  0  0  0  0
   -1.4516   -4.1084    1.4378 H   0  0  0  0  0  0  0  0  0  0  0  0
  1  2  2  3
  1  6  1  0
  1  7  1  0
  2  3  1  0
  2  8  1  0
  3  4  1  0
  3  9  1  0
  4  5  2  3
  4 10  1  0
  5 11  1  0
  5 12  1  0
M  RAD  1   3   2
M  END
>  <reaction>  (2) 
rxn_1485

>  <mol_properties>  (2) 
{"2": {"label": "acceptor", "atom_type": "Cs"}}

>  <type>  (2) 
r2

$$$$

     RDKit          3D

 13 12  0  0  0  0  0  0  0  0999 V2000
    3.0977   -0.3549   -0.5105 C   0  0  0  0  0  0  0  0  0  0  0  0
    2.0556    0.4221   -0.2627 C   0  0  0  0  0  0  0  0  0  0  0  0
    0.6313   -0.0354   -0.2366 C   0  0  0  0  0  0  0  0  0  0  0  0
   -0.2567    0.6038   -1.2694 C   0  0  0  0  0  0  0  0  0  0  0  0
    0.1459    1.3456   -2.2891 C   0  0  0  0  0  0  0  0  0  0  0  0
    4.1081    0.0344   -0.5074 H   0  0  0  0  0  0  0  0  0  0  0  0
    2.9777   -1.4116   -0.7243 H   0  0  0  0  0  0  0  0  0  0  0  0
    2.2171    1.4781   -0.0618 H   0  0  0  0  0  0  0  0  0  0  0  0
    0.5865   -1.1233   -0.3540 H   0  0  0  0  0  0  0  0  0  0  0  0
    0.2065    0.1743    0.7521 H   0  0  0  0  0  0  0  0  0  0  0  0
   -1.3190    0.4126   -1.1445 H   0  0  0  0  0  0  0  0  0  0  0  0
    1.1948    1.5564   -2.4628 H   0  0  0  0  0  0  0  0  0  0  0  0
   -0.5644    1.7621   -2.9918 H   0  0  0  0  0  0  0  0  0  0  0  0
  1  2  2  3
  1  6  1  0
  1  7  1  0
  2  3  1  0
  2  8  1  0
  3  4  1  0
  3  9  1  0
  3 10  1  0
  4  5  2  3
  4 11  1  0
  5 12  1  0
  5 13  1  0
M  END
>  <reaction>  (3) 
rxn_1485

>  <mol_properties>  (3) 
{"2": {"label": "acceptor", "atom_type": "Cs"}, "12": {"label": "a_hydrogen", "atom_type": "H0"}}

>  <type>  (3) 
r2h

$$$$

     RDKit          3D

 30 29  0  0  0  0  0  0  0  0999 V2000
   -2.9200   -1.2395    0.0814 C   0  0  0  0  0  0  0  0  0  0  0  0
   -1.6963   -1.2355    0.6069 C   0  0  0  0  0  0  0  0  0  0  0  0
   -0.6287   -2.1624    0.2229 C   0  0  0  0  0  0  0  0  0  0  0  0
    0.3987   -2.5610    1.1945 C   0  0  0  0  0  0  0  0  0  0  0  0
    0.6819   -1.9730    2.3560 C   0  0  0  0  0  0  0  0  0  0  0  0
   -3.6598   -0.5041    0.3696 H   0  0  0  0  0  0  0  0  0  0  0  0
   -3.2212   -1.9852   -0.6467 H   0  0  0  0  0  0  0  0  0  0  0  0
   -1.4419   -0.4625    1.3250 H   0  0  0  0  0  0  0  0  0  0  0  0
   -0.9781   -2.9868   -0.3989 H   0  0  0  0  0  0  0  0  0  0  0  0
    1.0145   -3.4013    0.8857 H   0  0  0  0  0  0  0  0  0  0  0  0
    1.4954   -2.3317    2.9728 H   0  0  0  0  0  0  0  0  0  0  0  0
    0.1208   -1.1277    2.7340 H   0  0  0  0  0  0  0  0  0  0  0  0
   -0.2339   -0.6847   -2.7579 C   0  0  0  0  0  0  0  0  0  0  0  0
    0.6663   -0.5850   -1.5586 C   0  0  0  0  0  0  0  0  0  0  0  0
    0.7218    0.6402   -0.7689 C   0  0  0  0  0  0  0  0  0  0  0  0
   -0.2756    1.6198   -0.8376 C   0  0  0  0  0  3  0  0  0  0  0  0
   -0.2359    2.7347   -0.0175 C   0  0  0  0  0  0  0  0  0  0  0  0
    0.7946    2.8987    0.8966 C   0  0  0  0  0  0  0  0  0  0  0  0
    1.7919    1.9352    0.9800 C   0  0  0  0  0  0  0  0  0  0  0  0
    1.7550    0.8233    0.1605 C   0  0  0  0  0  0  0  0  0  0  0  0
    0.0186    0.0641   -3.5156 H   0  0  0  0  0  0  0  0  0  0  0  0
   -1.2807   -0.5356   -2.4825 H   0  0  0  0  0  0  0  0  0  0  0  0
   -0.1509   -1.6692   -3.2190 H   0  0  0  0  0  0  0  0  0  0  0  0
    0.0553   -1.4688   -0.6514 H   0  0  0  0  0  0  0  0  0  0  0  0
    1.6281   -1.0838   -1.6625 H   0  0  0  0  0  0  0  0  0  0  0  0
   -1.0923    1.5068   -1.5384 H   0  0  0  0  0  0  0  0  0  0  0  0
   -1.0169    3.4813   -0.0917 H   0  0  0  0  0  0  0  0  0  0  0  0
    0.8230    3.7710    1.5370 H   0  0  0  0  0  0  0  0  0  0  0  0
    2.6016    2.0530    1.6893 H   0  0  0  0  0  0  0  0  0  0  0  0
    2.5308    0.0706    0.2381 H   0  0  0  0  0  0  0  0  0  0  0  0
  1  2  2  3
  1  6  1  0
  1  7  1  0
  2  3  1  0
  2  8  1  0
  3  4  1  0
  3  9  1  0
  3 24  1  0
  4  5  2  3
  4 10  1  0
  5 11  1  0
  5 12  1  0
 13 14  1  0
 13 21  1  0
 13 22  1  0
 13 23  1  0
 14 15  2  3
 14 25  1  0
 15 16  1  0
 15 20  1  0
 16 17  1  0
 16 26  1  0
 17 18  2  0
 17 27  1  0
 18 19  1  0
 18 28  1  0
 19 20  2  0
 19 29  1  0
 20 30  1  0
M  RAD  1  16   2
M  END
>  <reaction>  (4) 
rxn_1485

>  <mol_properties>  (4) 
{"1": {"label": "*0", "atom_type": "Cd"}, "2": {"label": "*1", "atom_type": "Cs"}, "13": {"label": "*3", "atom_type": "Cd"}, "14": {"label": "*4", "atom_type": "Cd"}, "23": {"label": "*2", "atom_type": "H0"}}

>  <type>  (4) 
ts

$$$$

     RDKit          3D

 30 29  0  0  0  0  0  0  0  0999 V2000
   -0.2927   -2.8380    2.1136 C   0  0  0  0  0  0  0  0  0  0  0  0
   -0.6407   -2.9062    0.8388 C   0  0  0  0  0  0  0  0  0  0  0  0
   -1.0930   -1.7458    0.0096 C   0  0  0  0  0  3  0  0  0  0  0  0
   -2.4989   -1.8543   -0.5154 C   0  0  0  0  0  0  0  0  0  0  0  0
   -3.3996   -2.7513   -0.1463 C   0  0  0  0  0  0  0  0  0  0  0  0
    0.0347   -3.7142    2.6592 H   0  0  0  0  0  0  0  0  0  0  0  0
   -0.3209   -1.9004    2.6587 H   0  0  0  0  0  0  0  0  0  0  0  0
   -0.6073   -3.8664    0.3304 H   0  0  0  0  0  0  0  0  0  0  0  0
   -0.9989   -0.8179    0.5835 H   0  0  0  0  0  0  0  0  0  0  0  0
   -2.7718   -1.1085   -1.2569 H   0  0  0  0  0  0  0  0  0  0  0  0
   -4.3948   -2.7519   -0.5725 H   0  0  0  0  0  0  0  0  0  0  0  0
   -3.1797   -3.5089    0.5970 H   0  0  0  0  0  0  0  0  0  0  0  0
    1.0144   -0.4436   -2.3925 C   0  0  0  0  0  0  0  0  0  0  0  0
    1.0144   -0.4436   -0.8634 C   0  0  0  0  0  0  0  0  0  0  0  0
    1.0144    0.9507   -0.2940 C   0  0  0  0  0  0  0  0  0  0  0  0
   -0.1801    1.6196   -0.0462 C   0  0  0  0  0  0  0  0  0  0  0  0
   -0.1834    2.9199    0.4347 C   0  0  0  0  0  0  0  0  0  0  0  0
    1.0144    3.5752    0.6765 C   0  0  0  0  0  0  0  0  0  0  0  0
    2.2122    2.9199    0.4347 C   0  0  0  0  0  0  0  0  0  0  0  0
    2.2090    1.6196   -0.0462 C   0  0  0  0  0  0  0  0  0  0  0  0
    1.8957    0.0715   -2.7793 H   0  0  0  0  0  0  0  0  0  0  0  0
    0.1332    0.0715   -2.7793 H   0  0  0  0  0  0  0  0  0  0  0  0
    1.0144   -1.4620   -2.7848 H   0  0  0  0  0  0  0  0  0  0  0  0
   -0.0375   -1.0936   -0.4276 H   0  0  0  0  0  0  0  0  0  0  0  0
    1.8911   -0.9853   -0.5002 H   0  0  0  0  0  0  0  0  0  0  0  0
   -1.1210    1.1125   -0.2300 H   0  0  0  0  0  0  0  0  0  0  0  0
   -1.1242    3.4216    0.6246 H   0  0  0  0  0  0  0  0  0  0  0  0
    1.0144    4.5896    1.0549 H   0  0  0  0  0  0  0  0  0  0  0  0
    3.1530    3.4216    0.6246 H   0  0  0  0  0  0  0  0  0  0  0  0
    3.1499    1.1125   -0.2300 H   0  0  0  0  0  0  0  0  0  0  0  0
  1  2  2  3
  1  6  1  0
  1  7  1  0
  2  3  1  0
  2  8  1  0
  3  4  1  0
  3  9  1  0
  4  5  2  3
  4 10  1  0
  5 11  1  0
  5 12  1  0
 13 14  1  0
 13 21  1  0
 13 22  1  0
 13 23  1  0
 14 15  1  0
 14 24  1  0
 14 25  1  0
 15 16  2  0
 15 20  1  0
 16 17  1  0
 16 26  1  0
 17 18  2  0
 17 27  1  0
 18 19  1  0
 18 28  1  0
 19 20  2  0
 19 29  1  0
 20 30  1  0
M  RAD  1   3   2
M  END
>  <reaction>  (5) 
rxn_1485

>  <mol_properties>  (5) 
{"1": {"label": "*0", "atom_type": "Cd"}, "2": {"label": "*1", "atom_type": "Cs"}, "13": {"label": "*3", "atom_type": "Cd"}, "14": {"label": "*4", "atom_type": "Cd"}, "23": {"label": "*2", "atom_type": "H0"}}

>  <type>  (5) 
unop_1

>  <geom_source>  (5) 
Heuristics

$$$$

     RDKit          3D

 30 29  0  0  0  0  0  0  0  0999 V2000
   -1.0719   -4.1722   -0.6077 C   0  0  0  0  0  0  0  0  0  0  0  0
   -1.3317   -2.8818   -0.7428 C   0  0  0  0  0  0  0  0  0  0  0  0
   -0.9656   -1.8243    0.2503 C   0  0  0  0  0  3  0  0  0  0  0  0
   -2.1337   -1.0927    0.8537 C   0  0  0  0  0  0  0  0  0  0  0  0
   -3.4074   -1.4351    0.7420 C   0  0  0  0  0  0  0  0  0  0  0  0
   -1.3559   -4.8899   -1.3671 H   0  0  0  0  0  0  0  0  0  0  0  0
   -0.5627   -4.5583    0.2690 H   0  0  0  0  0  0  0  0  0  0  0  0
   -1.8519   -2.5357   -1.6323 H   0  0  0  0  0  0  0  0  0  0  0  0
   -0.3653   -2.2604    1.0557 H   0  0  0  0  0  0  0  0  0  0  0  0
   -1.8744   -0.2127    1.4359 H   0  0  0  0  0  0  0  0  0  0  0  0
   -4.1864   -0.8528    1.2173 H   0  0  0  0  0  0  0  0  0  0  0  0
   -3.7165   -2.3097    0.1811 H   0  0  0  0  0  0  0  0  0  0  0  0
    1.1418   -0.5220   -2.1518 C   0  0  0  0  0  0  0  0  0  0  0  0
    1.1418   -0.5220   -0.6227 C   0  0  0  0  0  0  0  0  0  0  0  0
    1.1418    0.8722   -0.0533 C   0  0  0  0  0  0  0  0  0  0  0  0
   -0.0527    1.5412    0.1944 C   0  0  0  0  0  0  0  0  0  0  0  0
   -0.0560    2.8414    0.6754 C   0  0  0  0  0  0  0  0  0  0  0  0
    1.1418    3.4968    0.9172 C   0  0  0  0  0  0  0  0  0  0  0  0
    2.3396    2.8414    0.6754 C   0  0  0  0  0  0  0  0  0  0  0  0
    2.3364    1.5412    0.1944 C   0  0  0  0  0  0  0  0  0  0  0  0
    2.0231   -0.0070   -2.5387 H   0  0  0  0  0  0  0  0  0  0  0  0
    0.2606   -0.0070   -2.5387 H   0  0  0  0  0  0  0  0  0  0  0  0
    1.1418   -1.5405   -2.5441 H   0  0  0  0  0  0  0  0  0  0  0  0
    0.0899   -1.1720   -0.1870 H   0  0  0  0  0  0  0  0  0  0  0  0
    2.0185   -1.0637   -0.2596 H   0  0  0  0  0  0  0  0  0  0  0  0
   -0.9936    1.0340    0.0107 H   0  0  0  0  0  0  0  0  0  0  0  0
   -0.9968    3.3431    0.8653 H   0  0  0  0  0  0  0  0  0  0  0  0
    1.1418    4.5111    1.2955 H   0  0  0  0  0  0  0  0  0  0  0  0
    3.2804    3.3431    0.8653 H   0  0  0  0  0  0  0  0  0  0  0  0
    3.2773    1.0340    0.0107 H   0  0  0  0  0  0  0  0  0  0  0  0
  1  2  2  3
  1  6  1  0
  1  7  1  0
  2  3  1  0
  2  8  1  0
  3  4  1  0
  3  9  1  0
  4  5  2  3
  4 10  1  0
  5 11  1  0
  5 12  1  0
 13 14  1  0
 13 21  1  0
 13 22  1  0
 13 23  1  0
 14 15  1  0
 14 24  1  0
 14 25  1  0
 15 16  2  0
 15 20  1  0
 16 17  1  0
 16 26  1  0
 17 18  2  0
 17 27  1  0
 18 19  1  0
 18 28  1  0
 19 20  2  0
 19 29  1  0
 20 30  1  0
M  RAD  1   3   2
M  END
>  <reaction>  (6) 
rxn_1485

>  <mol_properties>  (6) 
{"1": {"label": "*0", "atom_type": "Cd"}, "2": {"label": "*1", "atom_type": "Cs"}, "13": {"label": "*3", "atom_type": "Cd"}, "14": {"label": "*4", "atom_type": "Cd"}, "23": {"label": "*2", "atom_type": "H0"}}

>  <type>  (6) 
unop_2

>  <geom_source>  (6) 
Heuristics

$$$$

     RDKit          3D

 30 29  0  0  0  0  0  0  0  0999 V2000
   -1.0117   -1.8381    2.4869 C   0  0  0  0  0  0  0  0  0  0  0  0
   -0.7756   -2.3850    1.3053 C   0  0  0  0  0  0  0  0  0  0  0  0
   -1.1022   -1.7555   -0.0122 C   0  0  0  0  0  3  0  0  0  0  0  0
   -2.0975   -2.5154   -0.8462 C   0  0  0  0  0  0  0  0  0  0  0  0
   -2.8336   -3.5375   -0.4390 C   0  0  0  0  0  0  0  0  0  0  0  0
   -0.7443   -2.3413    3.4076 H   0  0  0  0  0  0  0  0  0  0  0  0
   -1.4805   -0.8639    2.5761 H   0  0  0  0  0  0  0  0  0  0  0  0
   -0.3121   -3.3671    1.2583 H   0  0  0  0  0  0  0  0  0  0  0  0
   -1.4729   -0.7367    0.1426 H   0  0  0  0  0  0  0  0  0  0  0  0
   -2.2057   -2.1630   -1.8683 H   0  0  0  0  0  0  0  0  0  0  0  0
   -3.5335   -4.0232   -1.1070 H   0  0  0  0  0  0  0  0  0  0  0  0
   -2.7701   -3.9194    0.5734 H   0  0  0  0  0  0  0  0  0  0  0  0
    1.0053   -0.4532   -2.4143 C   0  0  0  0  0  0  0  0  0  0  0  0
    1.0053   -0.4532   -0.8852 C   0  0  0  0  0  0  0  0  0  0  0  0
    1.0053    0.9410   -0.3158 C   0  0  0  0  0  0  0  0  0  0  0  0
   -0.1892    1.6100   -0.0681 C   0  0  0  0  0  0  0  0  0  0  0  0
   -0.1925    2.9102    0.4129 C   0  0  0  0  0  0  0  0  0  0  0  0
    1.0053    3.5656    0.6547 C   0  0  0  0  0  0  0  0  0  0  0  0
    2.2031    2.9102    0.4129 C   0  0  0  0  0  0  0  0  0  0  0  0
    2.1998    1.6100   -0.0681 C   0  0  0  0  0  0  0  0  0  0  0  0
    1.8866    0.0618   -2.8012 H   0  0  0  0  0  0  0  0  0  0  0  0
    0.1240    0.0618   -2.8012 H   0  0  0  0  0  0  0  0  0  0  0  0
    1.0053   -1.4717   -2.8066 H   0  0  0  0  0  0  0  0  0  0  0  0
   -0.0467   -1.1032   -0.4495 H   0  0  0  0  0  0  0  0  0  0  0  0
    1.8819   -0.9949   -0.5221 H   0  0  0  0  0  0  0  0  0  0  0  0
   -1.1301    1.1028   -0.2518 H   0  0  0  0  0  0  0  0  0  0  0  0
   -1.1333    3.4119    0.6028 H   0  0  0  0  0  0  0  0  0  0  0  0
    1.0053    4.5799    1.0330 H   0  0  0  0  0  0  0  0  0  0  0  0
    3.1439    3.4119    0.6028 H   0  0  0  0  0  0  0  0  0  0  0  0
    3.1407    1.1028   -0.2518 H   0  0  0  0  0  0  0  0  0  0  0  0
  1  2  2  3
  1  6  1  0
  1  7  1  0
  2  3  1  0
  2  8  1  0
  3  4  1  0
  3  9  1  0
  4  5  2  3
  4 10  1  0
  5 11  1  0
  5 12  1  0
 13 14  1  0
 13 21  1  0
 13 22  1  0
 13 23  1  0
 14 15  1  0
 14 24  1  0
 14 25  1  0
 15 16  2  0
 15 20  1  0
 16 17  1  0
 16 26  1  0
 17 18  2  0
 17 27  1  0
 18 19  1  0
 18 28  1  0
 19 20  2  0
 19 29  1  0
 20 30  1  0
M  RAD  1   3   2
M  END
>  <reaction>  (7) 
rxn_1485

>  <mol_properties>  (7) 
{"1": {"label": "*0", "atom_type": "Cd"}, "2": {"label": "*1", "atom_type": "Cs"}, "13": {"label": "*3", "atom_type": "Cd"}, "14": {"label": "*4", "atom_type": "Cd"}, "23": {"label": "*2", "atom_type": "H0"}}

>  <type>  (7) 
unop_3

>  <geom_source>  (7) 
Heuristics

$$$$

     RDKit          3D

 30 29  0  0  0  0  0  0  0  0999 V2000
   -3.4212   -2.1342   -0.7037 C   0  0  0  0  0  0  0  0  0  0  0  0
   -2.2606   -1.5349   -0.4916 C   0  0  0  0  0  0  0  0  0  0  0  0
   -1.0252   -2.2115    0.0132 C   0  0  0  0  0  3  0  0  0  0  0  0
   -0.5242   -1.7050    1.3385 C   0  0  0  0  0  0  0  0  0  0  0  0
   -1.1752   -0.8941    2.1574 C   0  0  0  0  0  0  0  0  0  0  0  0
   -4.2793   -1.5906   -1.0787 H   0  0  0  0  0  0  0  0  0  0  0  0
   -3.5547   -3.1934   -0.5112 H   0  0  0  0  0  0  0  0  0  0  0  0
   -2.1698   -0.4697   -0.6884 H   0  0  0  0  0  0  0  0  0  0  0  0
   -1.1944   -3.2909    0.0865 H   0  0  0  0  0  0  0  0  0  0  0  0
    0.4608   -2.0630    1.6252 H   0  0  0  0  0  0  0  0  0  0  0  0
   -0.7407   -0.5844    3.0994 H   0  0  0  0  0  0  0  0  0  0  0  0
   -2.1642   -0.5181    1.9219 H   0  0  0  0  0  0  0  0  0  0  0  0
    1.0822   -0.9092   -2.3889 C   0  0  0  0  0  0  0  0  0  0  0  0
    1.0822   -0.9092   -0.8597 C   0  0  0  0  0  0  0  0  0  0  0  0
    1.0822    0.4850   -0.2903 C   0  0  0  0  0  0  0  0  0  0  0  0
   -0.1123    1.1540   -0.0426 C   0  0  0  0  0  0  0  0  0  0  0  0
   -0.1156    2.4542    0.4383 C   0  0  0  0  0  0  0  0  0  0  0  0
    1.0822    3.1096    0.6801 C   0  0  0  0  0  0  0  0  0  0  0  0
    2.2800    2.4542    0.4383 C   0  0  0  0  0  0  0  0  0  0  0  0
    2.2768    1.1540   -0.0426 C   0  0  0  0  0  0  0  0  0  0  0  0
    1.9635   -0.3942   -2.7757 H   0  0  0  0  0  0  0  0  0  0  0  0
    0.2010   -0.3942   -2.7757 H   0  0  0  0  0  0  0  0  0  0  0  0
    1.0822   -1.9277   -2.7812 H   0  0  0  0  0  0  0  0  0  0  0  0
    0.0303   -1.5593   -0.4240 H   0  0  0  0  0  0  0  0  0  0  0  0
    1.9589   -1.4509   -0.4966 H   0  0  0  0  0  0  0  0  0  0  0  0
   -1.0532    0.6468   -0.2263 H   0  0  0  0  0  0  0  0  0  0  0  0
   -1.0563    2.9559    0.6282 H   0  0  0  0  0  0  0  0  0  0  0  0
    1.0822    4.1239    1.0585 H   0  0  0  0  0  0  0  0  0  0  0  0
    3.2208    2.9559    0.6282 H   0  0  0  0  0  0  0  0  0  0  0  0
    3.2177    0.6468   -0.2263 H   0  0  0  0  0  0  0  0  0  0  0  0
  1  2  2  3
  1  6  1  0
  1  7  1  0
  2  3  1  0
  2  8  1  0
  3  4  1  0
  3  9  1  0
  4  5  2  3
  4 10  1  0
  5 11  1  0
  5 12  1  0
 13 14  1  0
 13 21  1  0
 13 22  1  0
 13 23  1  0
 14 15  1  0
 14 24  1  0
 14 25  1  0
 15 16  2  0
 15 20  1  0
 16 17  1  0
 16 26  1  0
 17 18  2  0
 17 27  1  0
 18 19  1  0
 18 28  1  0
 19 20  2  0
 19 29  1  0
 20 30  1  0
M  RAD  1   3   2
M  END
>  <reaction>  (8) 
rxn_1485

>  <mol_properties>  (8) 
{"1": {"label": "*0", "atom_type": "Cd"}, "2": {"label": "*1", "atom_type": "Cs"}, "13": {"label": "*3", "atom_type": "Cd"}, "14": {"label": "*4", "atom_type": "Cd"}, "23": {"label": "*2", "atom_type": "H0"}}

>  <type>  (8) 
unop_4

>  <geom_source>  (8) 
Heuristics

$$$$

     RDKit          3D

 30 29  0  0  0  0  0  0  0  0999 V2000
   -2.1454   -1.2389    2.2033 C   0  0  0  0  0  0  0  0  0  0  0  0
   -1.1860   -1.7379    1.4408 C   0  0  0  0  0  0  0  0  0  0  0  0
   -1.1943   -1.7431   -0.0554 C   0  0  0  0  0  3  0  0  0  0  0  0
   -1.1887   -3.1108   -0.6825 C   0  0  0  0  0  0  0  0  0  0  0  0
   -1.3818   -4.2572   -0.0496 C   0  0  0  0  0  0  0  0  0  0  0  0
   -2.0779   -1.2577    3.2838 H   0  0  0  0  0  0  0  0  0  0  0  0
   -3.0348   -0.7907    1.7731 H   0  0  0  0  0  0  0  0  0  0  0  0
   -0.3144   -2.1867    1.9105 H   0  0  0  0  0  0  0  0  0  0  0  0
   -2.0615   -1.1863   -0.4257 H   0  0  0  0  0  0  0  0  0  0  0  0
   -1.0170   -3.1242   -1.7553 H   0  0  0  0  0  0  0  0  0  0  0  0
   -1.3683   -5.1991   -0.5829 H   0  0  0  0  0  0  0  0  0  0  0  0
   -1.5674   -4.2960    1.0177 H   0  0  0  0  0  0  0  0  0  0  0  0
    0.9131   -0.4409   -2.4575 C   0  0  0  0  0  0  0  0  0  0  0  0
    0.9131   -0.4409   -0.9284 C   0  0  0  0  0  0  0  0  0  0  0  0
    0.9131    0.9534   -0.3590 C   0  0  0  0  0  0  0  0  0  0  0  0
   -0.2814    1.6223   -0.1113 C   0  0  0  0  0  0  0  0  0  0  0  0
   -0.2847    2.9225    0.3697 C   0  0  0  0  0  0  0  0  0  0  0  0
    0.9131    3.5779    0.6115 C   0  0  0  0  0  0  0  0  0  0  0  0
    2.1109    2.9225    0.3697 C   0  0  0  0  0  0  0  0  0  0  0  0
    2.1077    1.6223   -0.1113 C   0  0  0  0  0  0  0  0  0  0  0  0
    1.7944    0.0742   -2.8444 H   0  0  0  0  0  0  0  0  0  0  0  0
    0.0318    0.0742   -2.8444 H   0  0  0  0  0  0  0  0  0  0  0  0
    0.9131   -1.4593   -2.8498 H   0  0  0  0  0  0  0  0  0  0  0  0
   -0.1388   -1.0909   -0.4927 H   0  0  0  0  0  0  0  0  0  0  0  0
    1.7898   -0.9826   -0.5653 H   0  0  0  0  0  0  0  0  0  0  0  0
   -1.2223    1.1151   -0.2950 H   0  0  0  0  0  0  0  0  0  0  0  0
   -1.2255    3.4242    0.5596 H   0  0  0  0  0  0  0  0  0  0  0  0
    0.9131    4.5922    0.9898 H   0  0  0  0  0  0  0  0  0  0  0  0
    3.0517    3.4242    0.5596 H   0  0  0  0  0  0  0  0  0  0  0  0
    3.0485    1.1152   -0.2950 H   0  0  0  0  0  0  0  0  0  0  0  0
  1  2  2  3
  1  6  1  0
  1  7  1  0
  2  3  1  0
  2  8  1  0
  3  4  1  0
  3  9  1  0
  4  5  2  3
  4 10  1  0
  5 11  1  0
  5 12  1  0
 13 14  1  0
 13 21  1  0
 13 22  1  0
 13 23  1  0
 14 15  1  0
 14 24  1  0
 14 25  1  0
 15 16  2  0
 15 20  1  0
 16 17  1  0
 16 26  1  0
 17 18  2  0
 17 27  1  0
 18 19  1  0
 18 28  1  0
 19 20  2  0
 19 29  1  0
 20 30  1  0
M  RAD  1   3   2
M  END
>  <reaction>  (9) 
rxn_1485

>  <mol_properties>  (9) 
{"1": {"label": "*0", "atom_type": "Cd"}, "2": {"label": "*1", "atom_type": "Cs"}, "13": {"label": "*3", "atom_type": "Cd"}, "14": {"label": "*4", "atom_type": "Cd"}, "23": {"label": "*2", "atom_type": "H0"}}

>  <type>  (9) 
unop_5

>  <geom_source>  (9) 
Heuristics

$$$$

     RDKit          3D

 30 29  0  0  0  0  0  0  0  0999 V2000
   -3.5570   -1.5475    0.0967 C   0  0  0  0  0  0  0  0  0  0  0  0
   -2.2784   -1.2105    0.0471 C   0  0  0  0  0  0  0  0  0  0  0  0
   -1.1434   -2.1718   -0.1151 C   0  0  0  0  0  3  0  0  0  0  0  0
   -0.1770   -2.2086    1.0375 C   0  0  0  0  0  0  0  0  0  0  0  0
   -0.3555   -1.6417    2.2202 C   0  0  0  0  0  0  0  0  0  0  0  0
   -4.3353   -0.8029    0.2076 H   0  0  0  0  0  0  0  0  0  0  0  0
   -3.8726   -2.5830    0.0260 H   0  0  0  0  0  0  0  0  0  0  0  0
   -2.0024   -0.1624    0.1304 H   0  0  0  0  0  0  0  0  0  0  0  0
   -1.5311   -3.1816   -0.2859 H   0  0  0  0  0  0  0  0  0  0  0  0
    0.7369   -2.7670    0.8540 H   0  0  0  0  0  0  0  0  0  0  0  0
    0.3924   -1.7250    2.9984 H   0  0  0  0  0  0  0  0  0  0  0  0
   -1.2541   -1.0832    2.4559 H   0  0  0  0  0  0  0  0  0  0  0  0
    0.9641   -0.8696   -2.5172 C   0  0  0  0  0  0  0  0  0  0  0  0
    0.9641   -0.8696   -0.9881 C   0  0  0  0  0  0  0  0  0  0  0  0
    0.9641    0.5247   -0.4187 C   0  0  0  0  0  0  0  0  0  0  0  0
   -0.2304    1.1936   -0.1710 C   0  0  0  0  0  0  0  0  0  0  0  0
   -0.2337    2.4938    0.3100 C   0  0  0  0  0  0  0  0  0  0  0  0
    0.9641    3.1492    0.5518 C   0  0  0  0  0  0  0  0  0  0  0  0
    2.1619    2.4938    0.3100 C   0  0  0  0  0  0  0  0  0  0  0  0
    2.1586    1.1936   -0.1710 C   0  0  0  0  0  0  0  0  0  0  0  0
    1.8454   -0.3545   -2.9040 H   0  0  0  0  0  0  0  0  0  0  0  0
    0.0828   -0.3545   -2.9040 H   0  0  0  0  0  0  0  0  0  0  0  0
    0.9641   -1.8880   -2.9095 H   0  0  0  0  0  0  0  0  0  0  0  0
   -0.0878   -1.5196   -0.5523 H   0  0  0  0  0  0  0  0  0  0  0  0
    1.8408   -1.4113   -0.6250 H   0  0  0  0  0  0  0  0  0  0  0  0
   -1.1713    0.6865   -0.3547 H   0  0  0  0  0  0  0  0  0  0  0  0
   -1.1745    2.9955    0.4999 H   0  0  0  0  0  0  0  0  0  0  0  0
    0.9641    4.1635    0.9301 H   0  0  0  0  0  0  0  0  0  0  0  0
    3.1027    2.9955    0.4999 H   0  0  0  0  0  0  0  0  0  0  0  0
    3.0995    0.6865   -0.3547 H   0  0  0  0  0  0  0  0  0  0  0  0
  1  2  2  3
  1  6  1  0
  1  7  1  0
  2  3  1  0
  2  8  1  0
  3  4  1  0
  3  9  1  0
  4  5  2  3
  4 10  1  0
  5 11  1  0
  5 12  1  0
 13 14  1  0
 13 21  1  0
 13 22  1  0
 13 23  1  0
 14 15  1  0
 14 24  1  0
 14 25  1  0
 15 16  2  0
 15 20  1  0
 16 17  1  0
 16 26  1  0
 17 18  2  0
 17 27  1  0
 18 19  1  0
 18 28  1  0
 19 20  2  0
 19 29  1  0
 20 30  1  0
M  RAD  1   3   2
M  END
>  <reaction>  (10) 
rxn_1485

>  <mol_properties>  (10) 
{"1": {"label": "*0", "atom_type": "Cd"}, "2": {"label": "*1", "atom_type": "Cs"}, "13": {"label": "*3", "atom_type": "Cd"}, "14": {"label": "*4", "atom_type": "Cd"}, "23": {"label": "*2", "atom_type": "H0"}}

>  <type>  (10) 
unop_6

>  <geom_source>  (10) 
Heuristics

$$$$

     RDKit          3D

 30 29  0  0  0  0  0  0  0  0999 V2000
   -3.3680   -1.2959    0.9254 C   0  0  0  0  0  0  0  0  0  0  0  0
   -2.0865   -1.1171    0.6483 C   0  0  0  0  0  0  0  0  0  0  0  0
   -1.2510   -2.0408   -0.1809 C   0  0  0  0  0  3  0  0  0  0  0  0
   -0.0956   -2.6725    0.5469 C   0  0  0  0  0  0  0  0  0  0  0  0
    0.1085   -2.6447    1.8545 C   0  0  0  0  0  0  0  0  0  0  0  0
   -3.9221   -0.5856    1.5263 H   0  0  0  0  0  0  0  0  0  0  0  0
   -3.9111   -2.1604    0.5588 H   0  0  0  0  0  0  0  0  0  0  0  0
   -1.5756   -0.2422    1.0420 H   0  0  0  0  0  0  0  0  0  0  0  0
   -1.8784   -2.8316   -0.6055 H   0  0  0  0  0  0  0  0  0  0  0  0
    0.6133   -3.2000   -0.0854 H   0  0  0  0  0  0  0  0  0  0  0  0
    0.9667   -3.1345    2.2967 H   0  0  0  0  0  0  0  0  0  0  0  0
   -0.5749   -2.1409    2.5284 H   0  0  0  0  0  0  0  0  0  0  0  0
    0.8565   -0.7386   -2.5830 C   0  0  0  0  0  0  0  0  0  0  0  0
    0.8565   -0.7386   -1.0539 C   0  0  0  0  0  0  0  0  0  0  0  0
    0.8565    0.6557   -0.4845 C   0  0  0  0  0  0  0  0  0  0  0  0
   -0.3381    1.3246   -0.2367 C   0  0  0  0  0  0  0  0  0  0  0  0
   -0.3414    2.6248    0.2442 C   0  0  0  0  0  0  0  0  0  0  0  0
    0.8565    3.2802    0.4860 C   0  0  0  0  0  0  0  0  0  0  0  0
    2.0543    2.6248    0.2442 C   0  0  0  0  0  0  0  0  0  0  0  0
    2.0510    1.3246   -0.2367 C   0  0  0  0  0  0  0  0  0  0  0  0
    1.7377   -0.2235   -2.9698 H   0  0  0  0  0  0  0  0  0  0  0  0
   -0.0248   -0.2235   -2.9698 H   0  0  0  0  0  0  0  0  0  0  0  0
    0.8565   -1.7570   -2.9753 H   0  0  0  0  0  0  0  0  0  0  0  0
   -0.1955   -1.3886   -0.6181 H   0  0  0  0  0  0  0  0  0  0  0  0
    1.7331   -1.2803   -0.6907 H   0  0  0  0  0  0  0  0  0  0  0  0
   -1.2790    0.8175   -0.4205 H   0  0  0  0  0  0  0  0  0  0  0  0
   -1.2821    3.1265    0.4341 H   0  0  0  0  0  0  0  0  0  0  0  0
    0.8564    4.2945    0.8644 H   0  0  0  0  0  0  0  0  0  0  0  0
    2.9950    3.1265    0.4341 H   0  0  0  0  0  0  0  0  0  0  0  0
    2.9919    0.8175   -0.4205 H   0  0  0  0  0  0  0  0  0  0  0  0
  1  2  2  3
  1  6  1  0
  1  7  1  0
  2  3  1  0
  2  8  1  0
  3  4  1  0
  3  9  1  0
  4  5  2  3
  4 10  1  0
  5 11  1  0
  5 12  1  0
 13 14  1  0
 13 21  1  0
 13 22  1  0
 13 23  1  0
 14 15  1  0
 14 24  1  0
 14 25  1  0
 15 16  2  0
 15 20  1  0
 16 17  1  0
 16 26  1  0
 17 18  2  0
 17 27  1  0
 18 19  1  0
 18 28  1  0
 19 20  2  0
 19 29  1  0
 20 30  1  0
M  RAD  1   3   2
M  END
>  <reaction>  (11) 
rxn_1485

>  <mol_properties>  (11) 
{"1": {"label": "*0", "atom_type": "Cd"}, "2": {"label": "*1", "atom_type": "Cs"}, "13": {"label": "*3", "atom_type": "Cd"}, "14": {"label": "*4", "atom_type": "Cd"}, "23": {"label": "*2", "atom_type": "H0"}}

>  <type>  (11) 
unop_7

>  <geom_source>  (11) 
Heuristics

$$$$

     RDKit          3D

 30 29  0  0  0  0  0  0  0  0999 V2000
   -0.1132   -3.6791    1.2872 C   0  0  0  0  0  0  0  0  0  0  0  0
   -0.7316   -3.1619    0.2379 C   0  0  0  0  0  0  0  0  0  0  0  0
   -1.0836   -1.7167    0.0758 C   0  0  0  0  0  3  0  0  0  0  0  0
   -2.5577   -1.4331   -0.0270 C   0  0  0  0  0  0  0  0  0  0  0  0
   -3.5337   -2.2937    0.2154 C   0  0  0  0  0  0  0  0  0  0  0  0
    0.1219   -4.7346    1.3428 H   0  0  0  0  0  0  0  0  0  0  0  0
    0.1827   -3.0635    2.1300 H   0  0  0  0  0  0  0  0  0  0  0  0
   -1.0198   -3.8139   -0.5827 H   0  0  0  0  0  0  0  0  0  0  0  0
   -0.6672   -1.1358    0.9054 H   0  0  0  0  0  0  0  0  0  0  0  0
   -2.8115   -0.4181   -0.3199 H   0  0  0  0  0  0  0  0  0  0  0  0
   -4.5720   -2.0014    0.1236 H   0  0  0  0  0  0  0  0  0  0  0  0
   -3.3326   -3.3142    0.5206 H   0  0  0  0  0  0  0  0  0  0  0  0
    1.0239   -0.4145   -2.3263 C   0  0  0  0  0  0  0  0  0  0  0  0
    1.0239   -0.4145   -0.7972 C   0  0  0  0  0  0  0  0  0  0  0  0
    1.0239    0.9798   -0.2278 C   0  0  0  0  0  0  0  0  0  0  0  0
   -0.1707    1.6487    0.0199 C   0  0  0  0  0  0  0  0  0  0  0  0
   -0.1739    2.9490    0.5009 C   0  0  0  0  0  0  0  0  0  0  0  0
    1.0239    3.6043    0.7427 C   0  0  0  0  0  0  0  0  0  0  0  0
    2.2217    2.9490    0.5009 C   0  0  0  0  0  0  0  0  0  0  0  0
    2.2184    1.6487    0.0199 C   0  0  0  0  0  0  0  0  0  0  0  0
    1.9051    0.1006   -2.7132 H   0  0  0  0  0  0  0  0  0  0  0  0
    0.1426    0.1006   -2.7132 H   0  0  0  0  0  0  0  0  0  0  0  0
    1.0239   -1.4329   -2.7187 H   0  0  0  0  0  0  0  0  0  0  0  0
   -0.0281   -1.0645   -0.3615 H   0  0  0  0  0  0  0  0  0  0  0  0
    1.9005   -0.9562   -0.4341 H   0  0  0  0  0  0  0  0  0  0  0  0
   -1.1116    1.1416   -0.1638 H   0  0  0  0  0  0  0  0  0  0  0  0
   -1.1147    3.4507    0.6908 H   0  0  0  0  0  0  0  0  0  0  0  0
    1.0239    4.6187    1.1210 H   0  0  0  0  0  0  0  0  0  0  0  0
    3.1624    3.4507    0.6908 H   0  0  0  0  0  0  0  0  0  0  0  0
    3.1593    1.1416   -0.1638 H   0  0  0  0  0  0  0  0  0  0  0  0
  1  2  2  3
  1  6  1  0
  1  7  1  0
  2  3  1  0
  2  8  1  0
  3  4  1  0
  3  9  1  0
  4  5  2  3
  4 10  1  0
  5 11  1  0
  5 12  1  0
 13 14  1  0
 13 21  1  0
 13 22  1  0
 13 23  1  0
 14 15  1  0
 14 24  1  0
 14 25  1  0
 15 16  2  0
 15 20  1  0
 16 17  1  0
 16 26  1  0
 17 18  2  0
 17 27  1  0
 18 19  1  0
 18 28  1  0
 19 20  2  0
 19 29  1  0
 20 30  1  0
M  RAD  1   3   2
M  END
>  <reaction>  (12) 
rxn_1485

>  <mol_properties>  (12) 
{"1": {"label": "*0", "atom_type": "Cd"}, "2": {"label": "*1", "atom_type": "Cs"}, "13": {"label": "*3", "atom_type": "Cd"}, "14": {"label": "*4", "atom_type": "Cd"}, "23": {"label": "*2", "atom_type": "H0"}}

>  <type>  (12) 
unop_8

>  <geom_source>  (12) 
Heuristics

$$$$

     RDKit          3D

 30 29  0  0  0  0  0  0  0  0999 V2000
   -2.8741   -2.9657   -1.1992 C   0  0  0  0  0  0  0  0  0  0  0  0
   -2.0474   -1.9977   -0.8377 C   0  0  0  0  0  0  0  0  0  0  0  0
   -0.9378   -2.1434    0.1554 C   0  0  0  0  0  3  0  0  0  0  0  0
   -1.0712   -1.2832    1.3826 C   0  0  0  0  0  0  0  0  0  0  0  0
   -2.1460   -0.5971    1.7381 C   0  0  0  0  0  0  0  0  0  0  0  0
   -3.6547   -2.8001   -1.9312 H   0  0  0  0  0  0  0  0  0  0  0  0
   -2.7986   -3.9618   -0.7764 H   0  0  0  0  0  0  0  0  0  0  0  0
   -2.1615   -1.0105   -1.2781 H   0  0  0  0  0  0  0  0  0  0  0  0
   -0.8480   -3.1904    0.4637 H   0  0  0  0  0  0  0  0  0  0  0  0
   -0.1913   -1.2503    2.0192 H   0  0  0  0  0  0  0  0  0  0  0  0
   -2.1574   -0.0072    2.6457 H   0  0  0  0  0  0  0  0  0  0  0  0
   -3.0517   -0.6057    1.1427 H   0  0  0  0  0  0  0  0  0  0  0  0
    1.1697   -0.8412   -2.2467 C   0  0  0  0  0  0  0  0  0  0  0  0
    1.1697   -0.8412   -0.7176 C   0  0  0  0  0  0  0  0  0  0  0  0
    1.1697    0.5531   -0.1481 C   0  0  0  0  0  0  0  0  0  0  0  0
   -0.0249    1.2220    0.0996 C   0  0  0  0  0  0  0  0  0  0  0  0
   -0.0281    2.5222    0.5805 C   0  0  0  0  0  0  0  0  0  0  0  0
    1.1697    3.1776    0.8223 C   0  0  0  0  0  0  0  0  0  0  0  0
    2.3675    2.5222    0.5805 C   0  0  0  0  0  0  0  0  0  0  0  0
    2.3642    1.2220    0.0996 C   0  0  0  0  0  0  0  0  0  0  0  0
    2.0509   -0.3262   -2.6335 H   0  0  0  0  0  0  0  0  0  0  0  0
    0.2884   -0.3262   -2.6335 H   0  0  0  0  0  0  0  0  0  0  0  0
    1.1697   -1.8596   -2.6390 H   0  0  0  0  0  0  0  0  0  0  0  0
    0.1177   -1.4912   -0.2818 H   0  0  0  0  0  0  0  0  0  0  0  0
    2.0463   -1.3829   -0.3544 H   0  0  0  0  0  0  0  0  0  0  0  0
   -0.9658    0.7148   -0.0841 H   0  0  0  0  0  0  0  0  0  0  0  0
   -0.9689    3.0239    0.7704 H   0  0  0  0  0  0  0  0  0  0  0  0
    1.1697    4.1919    1.2007 H   0  0  0  0  0  0  0  0  0  0  0  0
    3.3083    3.0239    0.7704 H   0  0  0  0  0  0  0  0  0  0  0  0
    3.3051    0.7148   -0.0842 H   0  0  0  0  0  0  0  0  0  0  0  0
  1  2  2  3
  1  6  1  0
  1  7  1  0
  2  3  1  0
  2  8  1  0
  3  4  1  0
  3  9  1  0
  4  5  2  3
  4 10  1  0
  5 11  1  0
  5 12  1  0
 13 14  1  0
 13 21  1  0
 13 22  1  0
 13 23  1  0
 14 15  1  0
 14 24  1  0
 14 25  1  0
 15 16  2  0
 15 20  1  0
 16 17  1  0
 16 26  1  0
 17 18  2  0
 17 27  1  0
 18 19  1  0
 18 28  1  0
 19 20  2  0
 19 29  1  0
 20 30  1  0
M  RAD  1   3   2
M  END
>  <reaction>  (13) 
rxn_1485

>  <mol_properties>  (13) 
{"1": {"label": "*0", "atom_type": "Cd"}, "2": {"label": "*1", "atom_type": "Cs"}, "13": {"label": "*3", "atom_type": "Cd"}, "14": {"label": "*4", "atom_type": "Cd"}, "23": {"label": "*2", "atom_type": "H0"}}

>  <type>  (13) 
unop_9

>  <geom_source>  (13) 
Heuristics

$$$$

     RDKit          3D

 30 29  0  0  0  0  0  0  0  0999 V2000
   -0.3989   -4.1459    0.2924 C   0  0  0  0  0  0  0  0  0  0  0  0
   -0.9852   -3.1372   -0.3319 C   0  0  0  0  0  0  0  0  0  0  0  0
   -1.0377   -1.7297    0.1729 C   0  0  0  0  0  3  0  0  0  0  0  0
   -2.4219   -1.2083    0.4479 C   0  0  0  0  0  0  0  0  0  0  0  0
   -3.5320   -1.9286    0.4802 C   0  0  0  0  0  0  0  0  0  0  0  0
   -0.3876   -5.1433   -0.1290 H   0  0  0  0  0  0  0  0  0  0  0  0
    0.0940   -4.0098    1.2491 H   0  0  0  0  0  0  0  0  0  0  0  0
   -1.4763   -3.3166   -1.2850 H   0  0  0  0  0  0  0  0  0  0  0  0
   -0.4360   -1.6371    1.0832 H   0  0  0  0  0  0  0  0  0  0  0  0
   -2.4812   -0.1410    0.6431 H   0  0  0  0  0  0  0  0  0  0  0  0
   -4.4893   -1.4707    0.6942 H   0  0  0  0  0  0  0  0  0  0  0  0
   -3.5241   -2.9979    0.3027 H   0  0  0  0  0  0  0  0  0  0  0  0
    1.0698   -0.4275   -2.2292 C   0  0  0  0  0  0  0  0  0  0  0  0
    1.0698   -0.4275   -0.7001 C   0  0  0  0  0  0  0  0  0  0  0  0
    1.0698    0.9668   -0.1306 C   0  0  0  0  0  0  0  0  0  0  0  0
   -0.1247    1.6357    0.1171 C   0  0  0  0  0  0  0  0  0  0  0  0
   -0.1280    2.9360    0.5980 C   0  0  0  0  0  0  0  0  0  0  0  0
    1.0698    3.5913    0.8398 C   0  0  0  0  0  0  0  0  0  0  0  0
    2.2676    2.9360    0.5980 C   0  0  0  0  0  0  0  0  0  0  0  0
    2.2643    1.6357    0.1171 C   0  0  0  0  0  0  0  0  0  0  0  0
    1.9511    0.0876   -2.6160 H   0  0  0  0  0  0  0  0  0  0  0  0
    0.1885    0.0876   -2.6160 H   0  0  0  0  0  0  0  0  0  0  0  0
    1.0698   -1.4459   -2.6215 H   0  0  0  0  0  0  0  0  0  0  0  0
    0.0179   -1.0775   -0.2643 H   0  0  0  0  0  0  0  0  0  0  0  0
    1.9465   -0.9692   -0.3369 H   0  0  0  0  0  0  0  0  0  0  0  0
   -1.0656    1.1286   -0.0666 H   0  0  0  0  0  0  0  0  0  0  0  0
   -1.0688    3.4376    0.7879 H   0  0  0  0  0  0  0  0  0  0  0  0
    1.0698    4.6056    1.2182 H   0  0  0  0  0  0  0  0  0  0  0  0
    3.2084    3.4377    0.7879 H   0  0  0  0  0  0  0  0  0  0  0  0
    3.2052    1.1286   -0.0666 H   0  0  0  0  0  0  0  0  0  0  0  0
  1  2  2  3
  1  6  1  0
  1  7  1  0
  2  3  1  0
  2  8  1  0
  3  4  1  0
  3  9  1  0
  4  5  2  3
  4 10  1  0
  5 11  1  0
  5 12  1  0
 13 14  1  0
 13 21  1  0
 13 22  1  0
 13 23  1  0
 14 15  1  0
 14 24  1  0
 14 25  1  0
 15 16  2  0
 15 20  1  0
 16 17  1  0
 16 26  1  0
 17 18  2  0
 17 27  1  0
 18 19  1  0
 18 28  1  0
 19 20  2  0
 19 29  1  0
 20 30  1  0
M  RAD  1   3   2
M  END
>  <reaction>  (14) 
rxn_1485

>  <mol_properties>  (14) 
{"1": {"label": "*0", "atom_type": "Cd"}, "2": {"label": "*1", "atom_type": "Cs"}, "13": {"label": "*3", "atom_type": "Cd"}, "14": {"label": "*4", "atom_type": "Cd"}, "23": {"label": "*2", "atom_type": "H0"}}

>  <type>  (14) 
unop_10

>  <geom_source>  (14) 
Heuristics

$$$$

     RDKit          3D

 30 29  0  0  0  0  0  0  0  0999 V2000
   -2.9506   -1.2350    1.6101 C   0  0  0  0  0  0  0  0  0  0  0  0
   -1.7056   -1.2864    1.1647 C   0  0  0  0  0  0  0  0  0  0  0  0
   -1.2886   -1.8601   -0.1528 C   0  0  0  0  0  3  0  0  0  0  0  0
   -0.3686   -3.0472   -0.0622 C   0  0  0  0  0  0  0  0  0  0  0  0
   -0.0802   -3.7253    1.0374 C   0  0  0  0  0  0  0  0  0  0  0  0
   -3.1907   -0.7989    2.5716 H   0  0  0  0  0  0  0  0  0  0  0  0
   -3.7770   -1.6267    1.0266 H   0  0  0  0  0  0  0  0  0  0  0  0
   -0.9040   -0.8910    1.7834 H   0  0  0  0  0  0  0  0  0  0  0  0
   -2.1731   -2.1399   -0.7347 H   0  0  0  0  0  0  0  0  0  0  0  0
    0.0765   -3.3571   -1.0037 H   0  0  0  0  0  0  0  0  0  0  0  0
    0.5895   -4.5753    1.0102 H   0  0  0  0  0  0  0  0  0  0  0  0
   -0.5066   -3.4624    1.9987 H   0  0  0  0  0  0  0  0  0  0  0  0
    0.8189   -0.5579   -2.5549 C   0  0  0  0  0  0  0  0  0  0  0  0
    0.8189   -0.5579   -1.0258 C   0  0  0  0  0  0  0  0  0  0  0  0
    0.8189    0.8364   -0.4564 C   0  0  0  0  0  0  0  0  0  0  0  0
   -0.3757    1.5054   -0.2086 C   0  0  0  0  0  0  0  0  0  0  0  0
   -0.3789    2.8056    0.2723 C   0  0  0  0  0  0  0  0  0  0  0  0
    0.8189    3.4609    0.5141 C   0  0  0  0  0  0  0  0  0  0  0  0
    2.0167    2.8056    0.2723 C   0  0  0  0  0  0  0  0  0  0  0  0
    2.0134    1.5054   -0.2086 C   0  0  0  0  0  0  0  0  0  0  0  0
    1.7001   -0.0428   -2.9417 H   0  0  0  0  0  0  0  0  0  0  0  0
   -0.0624   -0.0428   -2.9417 H   0  0  0  0  0  0  0  0  0  0  0  0
    0.8189   -1.5763   -2.9472 H   0  0  0  0  0  0  0  0  0  0  0  0
   -0.2331   -1.2079   -0.5900 H   0  0  0  0  0  0  0  0  0  0  0  0
    1.6955   -1.0995   -0.6627 H   0  0  0  0  0  0  0  0  0  0  0  0
   -1.3166    0.9982   -0.3924 H   0  0  0  0  0  0  0  0  0  0  0  0
   -1.3197    3.3073    0.4622 H   0  0  0  0  0  0  0  0  0  0  0  0
    0.8189    4.4753    0.8925 H   0  0  0  0  0  0  0  0  0  0  0  0
    2.9574    3.3073    0.4622 H   0  0  0  0  0  0  0  0  0  0  0  0
    2.9543    0.9982   -0.3924 H   0  0  0  0  0  0  0  0  0  0  0  0
  1  2  2  3
  1  6  1  0
  1  7  1  0
  2  3  1  0
  2  8  1  0
  3  4  1  0
  3  9  1  0
  4  5  2  3
  4 10  1  0
  5 11  1  0
  5 12  1  0
 13 14  1  0
 13 21  1  0
 13 22  1  0
 13 23  1  0
 14 15  1  0
 14 24  1  0
 14 25  1  0
 15 16  2  0
 15 20  1  0
 16 17  1  0
 16 26  1  0
 17 18  2  0
 17 27  1  0
 18 19  1  0
 18 28  1  0
 19 20  2  0
 19 29  1  0
 20 30  1  0
M  RAD  1   3   2
M  END
>  <reaction>  (15) 
rxn_1485

>  <mol_properties>  (15) 
{"1": {"label": "*0", "atom_type": "Cd"}, "2": {"label": "*1", "atom_type": "Cs"}, "13": {"label": "*3", "atom_type": "Cd"}, "14": {"label": "*4", "atom_type": "Cd"}, "23": {"label": "*2", "atom_type": "H0"}}

>  <type>  (15) 
unop_11

>  <geom_source>  (15) 
Heuristics

$$$$

     RDKit          3D

 30 29  0  0  0  0  0  0  0  0999 V2000
   -1.9934   -3.7457   -1.1689 C   0  0  0  0  0  0  0  0  0  0  0  0
   -1.7079   -2.4774   -0.9221 C   0  0  0  0  0  0  0  0  0  0  0  0
   -0.9164   -1.9884    0.2497 C   0  0  0  0  0  3  0  0  0  0  0  0
   -1.6684   -1.0818    1.1860 C   0  0  0  0  0  0  0  0  0  0  0  0
   -2.9735   -0.8613    1.1736 C   0  0  0  0  0  0  0  0  0  0  0  0
   -2.5651   -4.0385   -2.0406 H   0  0  0  0  0  0  0  0  0  0  0  0
   -1.6630   -4.5393   -0.5071 H   0  0  0  0  0  0  0  0  0  0  0  0
   -2.0648   -1.7107   -1.6050 H   0  0  0  0  0  0  0  0  0  0  0  0
   -0.5252   -2.8394    0.8172 H   0  0  0  0  0  0  0  0  0  0  0  0
   -1.0576   -0.5849    1.9347 H   0  0  0  0  0  0  0  0  0  0  0  0
   -3.4345   -0.1958    1.8924 H   0  0  0  0  0  0  0  0  0  0  0  0
   -3.6269   -1.3409    0.4539 H   0  0  0  0  0  0  0  0  0  0  0  0
    1.1911   -0.6861   -2.1524 C   0  0  0  0  0  0  0  0  0  0  0  0
    1.1911   -0.6861   -0.6233 C   0  0  0  0  0  0  0  0  0  0  0  0
    1.1911    0.7081   -0.0539 C   0  0  0  0  0  0  0  0  0  0  0  0
   -0.0035    1.3771    0.1939 C   0  0  0  0  0  0  0  0  0  0  0  0
   -0.0067    2.6773    0.6748 C   0  0  0  0  0  0  0  0  0  0  0  0
    1.1911    3.3327    0.9166 C   0  0  0  0  0  0  0  0  0  0  0  0
    2.3889    2.6773    0.6748 C   0  0  0  0  0  0  0  0  0  0  0  0
    2.3856    1.3771    0.1939 C   0  0  0  0  0  0  0  0  0  0  0  0
    2.0723   -0.1711   -2.5392 H   0  0  0  0  0  0  0  0  0  0  0  0
    0.3098   -0.1711   -2.5392 H   0  0  0  0  0  0  0  0  0  0  0  0
    1.1911   -1.7046   -2.5447 H   0  0  0  0  0  0  0  0  0  0  0  0
    0.1391   -1.3361   -0.1875 H   0  0  0  0  0  0  0  0  0  0  0  0
    2.0677   -1.2278   -0.2601 H   0  0  0  0  0  0  0  0  0  0  0  0
   -0.9444    0.8699    0.0101 H   0  0  0  0  0  0  0  0  0  0  0  0
   -0.9475    3.1790    0.8647 H   0  0  0  0  0  0  0  0  0  0  0  0
    1.1911    4.3470    1.2950 H   0  0  0  0  0  0  0  0  0  0  0  0
    3.3296    3.1790    0.8647 H   0  0  0  0  0  0  0  0  0  0  0  0
    3.3265    0.8699    0.0101 H   0  0  0  0  0  0  0  0  0  0  0  0
  1  2  2  3
  1  6  1  0
  1  7  1  0
  2  3  1  0
  2  8  1  0
  3  4  1  0
  3  9  1  0
  4  5  2  3
  4 10  1  0
  5 11  1  0
  5 12  1  0
 13 14  1  0
 13 21  1  0
 13 22  1  0
 13 23  1  0
 14 15  1  0
 14 24  1  0
 14 25  1  0
 15 16  2  0
 15 20  1  0
 16 17  1  0
 16 26  1  0
 17 18  2  0
 17 27  1  0
 18 19  1  0
 18 28  1  0
 19 20  2  0
 19 29  1  0
 20 30  1  0
M  RAD  1   3   2
M  END
>  <reaction>  (16) 
rxn_1485

>  <mol_properties>  (16) 
{"1": {"label": "*0", "atom_type": "Cd"}, "2": {"label": "*1", "atom_type": "Cs"}, "13": {"label": "*3", "atom_type": "Cd"}, "14": {"label": "*4", "atom_type": "Cd"}, "23": {"label": "*2", "atom_type": "H0"}}

>  <type>  (16) 
unop_12

>  <geom_source>  (16) 
Heuristics

$$$$

     RDKit          3D

 30 29  0  0  0  0  0  0  0  0999 V2000
   -1.7145   -0.3511   -0.6836 C   0  0  0  0  0  3  0  0  0  0  0  0
   -0.0832   -2.0532   -0.3773 C   0  0  0  0  0  0  0  0  0  0  0  0
    1.5679   -0.1856   -0.5021 C   0  0  0  0  0  0  0  0  0  0  0  0
    0.7383   -1.1532   -1.2909 C   0  0  0  0  0  0  0  0  0  0  0  0
   -2.0932    1.0940   -0.8449 C   0  0  0  0  0  0  0  0  0  0  0  0
   -2.1528   -0.8823    0.6514 C   0  0  0  0  0  0  0  0  0  0  0  0
    1.1044    1.1221   -0.3004 C   0  0  0  0  0  0  0  0  0  0  0  0
    2.7897   -0.5839    0.0639 C   0  0  0  0  0  0  0  0  0  0  0  0
    1.8614    2.0273    0.4507 C   0  0  0  0  0  0  0  0  0  0  0  0
    3.0807    1.6288    1.0068 C   0  0  0  0  0  0  0  0  0  0  0  0
    3.5441    0.3237    0.8143 C   0  0  0  0  0  0  0  0  0  0  0  0
   -3.3674    1.4765   -0.9699 C   0  0  0  0  0  0  0  0  0  0  0  0
   -1.5608   -0.4941    1.7839 C   0  0  0  0  0  0  0  0  0  0  0  0
   -2.1813   -0.9494   -1.4955 H   0  0  0  0  0  0  0  0  0  0  0  0
   -0.3190   -0.4818   -0.7960 H   0  0  0  0  0  0  0  0  0  0  0  0
   -0.7476   -1.4390    0.2668 H   0  0  0  0  0  0  0  0  0  0  0  0
   -0.7118   -2.7272   -0.9954 H   0  0  0  0  0  0  0  0  0  0  0  0
    0.5848   -2.6699    0.2612 H   0  0  0  0  0  0  0  0  0  0  0  0
   -1.3070    1.8419   -0.8746 H   0  0  0  0  0  0  0  0  0  0  0  0
   -2.9576   -1.6103    0.6936 H   0  0  0  0  0  0  0  0  0  0  0  0
    1.3783   -1.7633   -1.9644 H   0  0  0  0  0  0  0  0  0  0  0  0
    0.1590    1.4387   -0.7236 H   0  0  0  0  0  0  0  0  0  0  0  0
    1.5021    3.0368    0.6030 H   0  0  0  0  0  0  0  0  0  0  0  0
    3.1548   -1.5940   -0.0757 H   0  0  0  0  0  0  0  0  0  0  0  0
    3.6651    2.3301    1.5883 H   0  0  0  0  0  0  0  0  0  0  0  0
    4.4865    0.0152    1.2480 H   0  0  0  0  0  0  0  0  0  0  0  0
   -3.6095    2.5272   -1.0918 H   0  0  0  0  0  0  0  0  0  0  0  0
   -4.1728    0.7485   -0.9514 H   0  0  0  0  0  0  0  0  0  0  0  0
   -1.8906   -0.8984    2.7354 H   0  0  0  0  0  0  0  0  0  0  0  0
   -0.7480    0.2259    1.7703 H   0  0  0  0  0  0  0  0  0  0  0  0
  1  5  1  0
  1  6  1  0
  1 14  1  0
  2  4  1  0
  2 16  1  0
  2 17  1  0
  2 18  1  0
  3  4  1  0
  3  7  2  0
  3  8  1  0
  4 15  1  0
  4 21  1  0
  5 12  2  3
  5 19  1  0
  6 13  2  3
  6 20  1  0
  7  9  1  0
  7 22  1  0
  8 11  2  0
  8 24  1  0
  9 10  2  0
  9 23  1  0
 10 11  1  0
 10 25  1  0
 11 26  1  0
 12 27  1  0
 12 28  1  0
 13 29  1  0
 13 30  1  0
M  RAD  1   1   2
M  END
>  <reaction>  (17) 
rxn_1485

>  <mol_properties>  (17) 
{"1": {"label": "*0", "atom_type": "Cd"}, "2": {"label": "*1", "atom_type": "Cs"}, "13": {"label": "*3", "atom_type": "Cd"}, "14": {"label": "*4", "atom_type": "Cd"}, "23": {"label": "*2", "atom_type": "H0"}}

>  <type>  (17) 
unop_13

>  <geom_source>  (17) 
AutoTST

$$$$

     RDKit          3D

 30 29  0  0  0  0  0  0  0  0999 V2000
   -1.0719   -4.1722   -0.6077 C   0  0  0  0  0  0  0  0  0  0  0  0
   -1.3317   -2.8818   -0.7429 C   0  0  0  0  0  0  0  0  0  0  0  0
   -0.9656   -1.8242    0.2503 C   0  0  0  0  0  3  0  0  0  0  0  0
   -2.1337   -1.0927    0.8537 C   0  0  0  0  0  0  0  0  0  0  0  0
   -3.4074   -1.4351    0.7419 C   0  0  0  0  0  0  0  0  0  0  0  0
   -1.3559   -4.8899   -1.3672 H   0  0  0  0  0  0  0  0  0  0  0  0
   -0.5627   -4.5583    0.2690 H   0  0  0  0  0  0  0  0  0  0  0  0
   -1.8519   -2.5357   -1.6323 H   0  0  0  0  0  0  0  0  0  0  0  0
   -0.3653   -2.2604    1.0557 H   0  0  0  0  0  0  0  0  0  0  0  0
   -1.8744   -0.2127    1.4359 H   0  0  0  0  0  0  0  0  0  0  0  0
   -4.1864   -0.8528    1.2173 H   0  0  0  0  0  0  0  0  0  0  0  0
   -3.7165   -2.3097    0.1811 H   0  0  0  0  0  0  0  0  0  0  0  0
    1.1418   -0.5220   -2.1518 C   0  0  0  0  0  0  0  0  0  0  0  0
    1.1418   -0.5220   -0.6227 C   0  0  0  0  0  0  0  0  0  0  0  0
    1.1418    0.8722   -0.0533 C   0  0  0  0  0  0  0  0  0  0  0  0
   -0.0527    1.5412    0.1944 C   0  0  0  0  0  0  0  0  0  0  0  0
   -0.0560    2.8414    0.6754 C   0  0  0  0  0  0  0  0  0  0  0  0
    1.1418    3.4968    0.9172 C   0  0  0  0  0  0  0  0  0  0  0  0
    2.3396    2.8414    0.6754 C   0  0  0  0  0  0  0  0  0  0  0  0
    2.3364    1.5412    0.1944 C   0  0  0  0  0  0  0  0  0  0  0  0
    2.0231   -0.0070   -2.5387 H   0  0  0  0  0  0  0  0  0  0  0  0
    0.2606   -0.0070   -2.5387 H   0  0  0  0  0  0  0  0  0  0  0  0
    1.1418   -1.5405   -2.5441 H   0  0  0  0  0  0  0  0  0  0  0  0
    0.0899   -1.1721   -0.1870 H   0  0  0  0  0  0  0  0  0  0  0  0
    2.0185   -1.0637   -0.2596 H   0  0  0  0  0  0  0  0  0  0  0  0
   -0.9936    1.0340    0.0107 H   0  0  0  0  0  0  0  0  0  0  0  0
   -0.9968    3.3431    0.8653 H   0  0  0  0  0  0  0  0  0  0  0  0
    1.1418    4.5111    1.2955 H   0  0  0  0  0  0  0  0  0  0  0  0
    3.2804    3.3431    0.8653 H   0  0  0  0  0  0  0  0  0  0  0  0
    3.2772    1.0340    0.0107 H   0  0  0  0  0  0  0  0  0  0  0  0
  1  2  2  3
  1  6  1  0
  1  7  1  0
  2  3  1  0
  2  8  1  0
  3  4  1  0
  3  9  1  0
  4  5  2  3
  4 10  1  0
  5 11  1  0
  5 12  1  0
 13 14  1  0
 13 21  1  0
 13 22  1  0
 13 23  1  0
 14 15  1  0
 14 24  1  0
 14 25  1  0
 15 16  2  0
 15 20  1  0
 16 17  1  0
 16 26  1  0
 17 18  2  0
 17 27  1  0
 18 19  1  0
 18 28  1  0
 19 20  2  0
 19 29  1  0
 20 30  1  0
M  RAD  1   3   2
M  END
>  <reaction>  (18) 
rxn_1485

>  <mol_properties>  (18) 
{"1": {"label": "*0", "atom_type": "Cd"}, "2": {"label": "*1", "atom_type": "Cs"}, "13": {"label": "*3", "atom_type": "Cd"}, "14": {"label": "*4", "atom_type": "Cd"}, "23": {"label": "*2", "atom_type": "H0"}}

>  <type>  (18) 
unop_14

>  <geom_source>  (18) 
gaussian_log

$$$$
