
     RDKit          3D

 12 11  0  0  0  0  0  0  0  0999 V2000
    1.9877    0.1011    0.4814 C   0  0  0  0  0  0  0  0  0  0  0  0
    0.8179    0.5502    0.0525 C   0  0  0  0  0  0  0  0  0  0  0  0
   -0.2939   -0.2692   -0.5320 C   0  0  0  0  0  0  0  0  0  0  0  0
   -0.0292   -1.7631   -0.6328 C   0  0  0  0  0  0  0  0  0  0  0  0
    2.2522   -0.9490    0.4436 H   0  0  0  0  0  0  0  0  0  0  0  0
    2.7295    0.7757    0.8896 H   0  0  0  0  0  0  0  0  0  0  0  0
    0.6162    1.6164    0.1190 H   0  0  0  0  0  0  0  0  0  0  0  0
   -0.5268    0.1319   -1.5245 H   0  0  0  0  0  0  0  0  0  0  0  0
   -1.1959   -0.0938    0.0644 H   0  0  0  0  0  0  0  0  0  0  0  0
    0.1590   -2.1992    0.3502 H   0  0  0  0  0  0  0  0  0  0  0  0
    0.8382   -1.9701   -1.2626 H   0  0  0  0  0  0  0  0  0  0  0  0
   -0.8879   -2.2759   -1.0672 H   0  0  0  0  0  0  0  0  0  0  0  0
  1  2  2  3
  1  5  1  0
  1  6  1  0
  2  3  1  0
  2  7  1  0
  3  4  1  0
  3  8  1  0
  3  9  1  0
  4 10  1  0
  4 11  1  0
  4 12  1  0
M  END
>  <reaction>  (1) 
rxn_1070

>  <mol_properties>  (1) 
{"2": {"label": "donator", "atom_type": "Cs"}, "7": {"label": "d_hydrogen", "atom_type": "H0"}}

>  <type>  (1) 
r1h

$$$$

     RDKit          3D

  7  6  0  0  0  0  0  0  0  0999 V2000
    1.8092   -0.3013   -0.2242 S   0  0  0  0  0  0  0  0  0  0  0  0
    0.1552   -0.6967   -0.1137 C   0  0  0  0  0  0  0  0  0  0  0  0
   -0.8921    0.1788    0.1148 C   0  0  0  0  0  0  0  0  0  0  0  0
   -0.7548    1.8245    0.3328 S   0  0  0  0  0  1  0  0  0  0  0  0
    1.6168    1.0210   -0.0187 H   0  0  0  0  0  0  0  0  0  0  0  0
   -0.0550   -1.7522   -0.2412 H   0  0  0  0  0  0  0  0  0  0  0  0
   -1.8791   -0.2740    0.1502 H   0  0  0  0  0  0  0  0  0  0  0  0
  1  2  1  0
  1  5  1  0
  2  3  2  3
  2  6  1  0
  3  4  1  0
  3  7  1  0
M  RAD  1   4   2
M  END
>  <reaction>  (2) 
rxn_1070

>  <mol_properties>  (2) 
{"1": {"label": "acceptor", "atom_type": "Cs"}}

>  <type>  (2) 
r2

$$$$

     RDKit          3D

  8  7  0  0  0  0  0  0  0  0999 V2000
    1.7301   -0.0562    0.5281 S   0  0  0  0  0  0  0  0  0  0  0  0
    0.1858    0.6127   -0.1669 C   0  0  0  0  0  0  0  0  0  0  0  0
   -0.9621   -0.2567    0.2171 C   0  0  0  0  0  0  0  0  0  0  0  0
   -1.8663   -1.1002   -0.8086 S   0  0  0  0  0  0  0  0  0  0  0  0
    1.7025   -1.2092   -0.1540 H   0  0  0  0  0  0  0  0  0  0  0  0
    0.2619    0.7246   -1.2458 H   0  0  0  0  0  0  0  0  0  0  0  0
    0.0809    1.5982    0.2929 H   0  0  0  0  0  0  0  0  0  0  0  0
   -1.1456   -0.3126    1.2907 H   0  0  0  0  0  0  0  0  0  0  0  0
  1  2  1  0
  1  5  1  0
  2  3  1  0
  2  6  1  0
  2  7  1  0
  3  4  2  0
  3  8  1  0
M  END
>  <reaction>  (3) 
rxn_1070

>  <mol_properties>  (3) 
{"1": {"label": "acceptor", "atom_type": "Cs"}, "7": {"label": "a_hydrogen", "atom_type": "H0"}}

>  <type>  (3) 
r2h

$$$$

     RDKit          3D

 19 17  0  0  0  0  0  0  0  0999 V2000
    1.9562    0.2564   -0.8210 S   0  0  0  0  0  0  0  0  0  0  0  0
    0.8134    0.6707    0.4646 C   0  0  0  0  0  0  0  0  0  0  0  0
    0.4621   -0.2885    1.4857 C   0  0  0  0  0  0  0  0  0  0  0  0
    0.5891   -1.9083    1.3977 S   0  0  0  0  0  0  0  0  0  0  0  0
    1.7515   -1.0705   -0.7238 H   0  0  0  0  0  0  0  0  0  0  0  0
    0.9871    1.6802    0.8309 H   0  0  0  0  0  0  0  0  0  0  0  0
   -0.0257    0.1576    2.3524 H   0  0  0  0  0  0  0  0  0  0  0  0
   -1.1358   -0.8425   -2.6299 C   0  0  0  0  0  0  0  0  0  0  0  0
   -1.6185   -0.3994   -1.4561 C   0  0  0  0  0  0  0  0  0  0  0  0
   -1.4947    0.9443   -0.9578 C   0  0  0  0  0  3  0  0  0  0  0  0
   -1.0952    2.0750   -1.8614 C   0  0  0  0  0  0  0  0  0  0  0  0
   -0.6398   -0.1842   -3.3318 H   0  0  0  0  0  0  0  0  0  0  0  0
   -1.2348   -1.8814   -2.9142 H   0  0  0  0  0  0  0  0  0  0  0  0
   -2.0982   -1.1133   -0.7941 H   0  0  0  0  0  0  0  0  0  0  0  0
   -0.3389    0.8045   -0.1254 H   0  0  0  0  0  0  0  0  0  0  0  0
   -2.1934    1.2036   -0.1650 H   0  0  0  0  0  0  0  0  0  0  0  0
   -1.8551    2.2458   -2.6297 H   0  0  0  0  0  0  0  0  0  0  0  0
   -0.1525    1.8624   -2.3694 H   0  0  0  0  0  0  0  0  0  0  0  0
   -0.9739    3.0003   -1.2978 H   0  0  0  0  0  0  0  0  0  0  0  0
  1  2  1  0
  1  5  1  0
  2  3  1  0
  2  6  1  0
  2 15  1  0
  3  4  2  0
  3  7  1  0
  8  9  2  3
  8 12  1  0
  8 13  1  0
  9 10  1  0
  9 14  1  0
 10 11  1  0
 10 16  1  0
 11 17  1  0
 11 18  1  0
 11 19  1  0
M  RAD  1  10   2
M  END
>  <reaction>  (4) 
rxn_1070

>  <mol_properties>  (4) 
{"1": {"label": "*1", "atom_type": "Cs"}, "2": {"label": "*0", "atom_type": "CS"}, "8": {"label": "*4", "atom_type": "Cd"}, "9": {"label": "*3", "atom_type": "Cs"}, "14": {"label": "*2", "atom_type": "H0"}}

>  <type>  (4) 
ts

$$$$

     RDKit          3D

 19 17  0  0  0  0  0  0  0  0999 V2000
    1.3523    1.7771    0.6924 S   0  0  0  0  0  0  0  0  0  0  0  0
    0.2463    0.3489    0.9218 C   0  0  0  0  0  0  0  0  0  0  0  0
    0.9640   -0.7378    1.6462 C   0  0  0  0  0  0  0  0  0  0  0  0
    1.3081   -2.1841    1.0370 S   0  0  0  0  0  0  0  0  0  0  0  0
    2.2439    1.1408   -0.0794 H   0  0  0  0  0  0  0  0  0  0  0  0
   -0.5736    0.7311    1.5346 H   0  0  0  0  0  0  0  0  0  0  0  0
    1.2830   -0.4727    2.6548 H   0  0  0  0  0  0  0  0  0  0  0  0
   -1.8325   -0.6930   -2.8816 C   0  0  0  0  0  0  0  0  0  0  0  0
   -1.8325   -0.6930   -1.5573 C   0  0  0  0  0  0  0  0  0  0  0  0
   -1.8325    0.5115   -0.6638 C   0  0  0  0  0  3  0  0  0  0  0  0
   -1.8325    1.8572   -1.3715 C   0  0  0  0  0  0  0  0  0  0  0  0
   -1.8325    0.2239   -3.4591 H   0  0  0  0  0  0  0  0  0  0  0  0
   -1.8325   -1.6204   -3.4403 H   0  0  0  0  0  0  0  0  0  0  0  0
   -1.8325   -1.6488   -1.0391 H   0  0  0  0  0  0  0  0  0  0  0  0
   -0.7892    0.4299    0.1319 H   0  0  0  0  0  0  0  0  0  0  0  0
   -2.7019    0.4435   -0.0007 H   0  0  0  0  0  0  0  0  0  0  0  0
   -2.7149    1.9722   -2.0039 H   0  0  0  0  0  0  0  0  0  0  0  0
   -0.9500    1.9722   -2.0039 H   0  0  0  0  0  0  0  0  0  0  0  0
   -1.8325    2.6716   -0.6462 H   0  0  0  0  0  0  0  0  0  0  0  0
  1  2  1  0
  1  5  1  0
  2  3  1  0
  2  6  1  0
  2 15  1  0
  3  4  2  0
  3  7  1  0
  8  9  2  3
  8 12  1  0
  8 13  1  0
  9 10  1  0
  9 14  1  0
 10 11  1  0
 10 16  1  0
 11 17  1  0
 11 18  1  0
 11 19  1  0
M  RAD  1  10   2
M  END
>  <reaction>  (5) 
rxn_1070

>  <mol_properties>  (5) 
{"1": {"label": "*1", "atom_type": "Cs"}, "2": {"label": "*0", "atom_type": "CS"}, "8": {"label": "*4", "atom_type": "Cd"}, "9": {"label": "*3", "atom_type": "Cs"}, "14": {"label": "*2", "atom_type": "H0"}}

>  <type>  (5) 
unop_1

>  <geom_source>  (5) 
Heuristics

$$$$

     RDKit          3D

 19 17  0  0  0  0  0  0  0  0999 V2000
    2.1282   -0.3917   -0.2633 S   0  0  0  0  0  0  0  0  0  0  0  0
    0.7620    0.5001    0.5450 C   0  0  0  0  0  0  0  0  0  0  0  0
    0.7052    0.1400    1.9900 C   0  0  0  0  0  0  0  0  0  0  0  0
   -0.5091   -0.6338    2.7027 S   0  0  0  0  0  0  0  0  0  0  0  0
    1.6360   -1.6204   -0.0544 H   0  0  0  0  0  0  0  0  0  0  0  0
    1.0168    1.5564    0.4308 H   0  0  0  0  0  0  0  0  0  0  0  0
    1.5917    0.4211    2.5596 H   0  0  0  0  0  0  0  0  0  0  0  0
   -1.3168   -0.5419   -3.2584 C   0  0  0  0  0  0  0  0  0  0  0  0
   -1.3168   -0.5419   -1.9340 C   0  0  0  0  0  0  0  0  0  0  0  0
   -1.3168    0.6626   -1.0406 C   0  0  0  0  0  3  0  0  0  0  0  0
   -1.3168    2.0084   -1.7483 C   0  0  0  0  0  0  0  0  0  0  0  0
   -1.3168    0.3751   -3.8358 H   0  0  0  0  0  0  0  0  0  0  0  0
   -1.3168   -1.4692   -3.8170 H   0  0  0  0  0  0  0  0  0  0  0  0
   -1.3168   -1.4976   -1.4158 H   0  0  0  0  0  0  0  0  0  0  0  0
   -0.2735    0.5811   -0.2448 H   0  0  0  0  0  0  0  0  0  0  0  0
   -2.1862    0.5947   -0.3774 H   0  0  0  0  0  0  0  0  0  0  0  0
   -2.1993    2.1234   -2.3807 H   0  0  0  0  0  0  0  0  0  0  0  0
   -0.4344    2.1234   -2.3807 H   0  0  0  0  0  0  0  0  0  0  0  0
   -1.3168    2.8228   -1.0230 H   0  0  0  0  0  0  0  0  0  0  0  0
  1  2  1  0
  1  5  1  0
  2  3  1  0
  2  6  1  0
  2 15  1  0
  3  4  2  0
  3  7  1  0
  8  9  2  3
  8 12  1  0
  8 13  1  0
  9 10  1  0
  9 14  1  0
 10 11  1  0
 10 16  1  0
 11 17  1  0
 11 18  1  0
 11 19  1  0
M  RAD  1  10   2
M  END
>  <reaction>  (6) 
rxn_1070

>  <mol_properties>  (6) 
{"1": {"label": "*1", "atom_type": "Cs"}, "2": {"label": "*0", "atom_type": "CS"}, "8": {"label": "*4", "atom_type": "Cd"}, "9": {"label": "*3", "atom_type": "Cs"}, "14": {"label": "*2", "atom_type": "H0"}}

>  <type>  (6) 
unop_2

>  <geom_source>  (6) 
Heuristics

$$$$

     RDKit          3D

 19 17  0  0  0  0  0  0  0  0999 V2000
    0.7834    1.7831    1.5718 S   0  0  0  0  0  0  0  0  0  0  0  0
    0.1815    0.1259    1.1167 C   0  0  0  0  0  0  0  0  0  0  0  0
    1.3031   -0.8538    1.1696 C   0  0  0  0  0  0  0  0  0  0  0  0
    1.8922   -1.6534   -0.0934 S   0  0  0  0  0  0  0  0  0  0  0  0
    1.6320    1.9110    0.5428 H   0  0  0  0  0  0  0  0  0  0  0  0
   -0.5640   -0.1151    1.8783 H   0  0  0  0  0  0  0  0  0  0  0  0
    1.7421   -0.9833    2.1595 H   0  0  0  0  0  0  0  0  0  0  0  0
   -1.8973   -0.9160   -2.6867 C   0  0  0  0  0  0  0  0  0  0  0  0
   -1.8973   -0.9160   -1.3623 C   0  0  0  0  0  0  0  0  0  0  0  0
   -1.8973    0.2885   -0.4689 C   0  0  0  0  0  3  0  0  0  0  0  0
   -1.8973    1.6342   -1.1766 C   0  0  0  0  0  0  0  0  0  0  0  0
   -1.8973    0.0009   -3.2641 H   0  0  0  0  0  0  0  0  0  0  0  0
   -1.8973   -1.8434   -3.2453 H   0  0  0  0  0  0  0  0  0  0  0  0
   -1.8973   -1.8718   -0.8441 H   0  0  0  0  0  0  0  0  0  0  0  0
   -0.8540    0.2069    0.3269 H   0  0  0  0  0  0  0  0  0  0  0  0
   -2.7667    0.2205    0.1943 H   0  0  0  0  0  0  0  0  0  0  0  0
   -2.7797    1.7492   -1.8090 H   0  0  0  0  0  0  0  0  0  0  0  0
   -1.0149    1.7492   -1.8090 H   0  0  0  0  0  0  0  0  0  0  0  0
   -1.8973    2.4486   -0.4513 H   0  0  0  0  0  0  0  0  0  0  0  0
  1  2  1  0
  1  5  1  0
  2  3  1  0
  2  6  1  0
  2 15  1  0
  3  4  2  0
  3  7  1  0
  8  9  2  3
  8 12  1  0
  8 13  1  0
  9 10  1  0
  9 14  1  0
 10 11  1  0
 10 16  1  0
 11 17  1  0
 11 18  1  0
 11 19  1  0
M  RAD  1  10   2
M  END
>  <reaction>  (7) 
rxn_1070

>  <mol_properties>  (7) 
{"1": {"label": "*1", "atom_type": "Cs"}, "2": {"label": "*0", "atom_type": "CS"}, "8": {"label": "*4", "atom_type": "Cd"}, "9": {"label": "*3", "atom_type": "Cs"}, "14": {"label": "*2", "atom_type": "H0"}}

>  <type>  (7) 
unop_3

>  <geom_source>  (7) 
Heuristics

$$$$

     RDKit          3D

 19 17  0  0  0  0  0  0  0  0999 V2000
    1.2146   -1.6663    1.6266 S   0  0  0  0  0  0  0  0  0  0  0  0
    1.2886   -0.1574    0.6100 C   0  0  0  0  0  0  0  0  0  0  0  0
    0.6566    0.9778    1.3397 C   0  0  0  0  0  0  0  0  0  0  0  0
   -0.6714    1.7522    0.8724 S   0  0  0  0  0  0  0  0  0  0  0  0
   -0.1224   -1.7494    1.6562 H   0  0  0  0  0  0  0  0  0  0  0  0
    2.3562    0.0311    0.4741 H   0  0  0  0  0  0  0  0  0  0  0  0
    1.1559    1.2491    2.2705 H   0  0  0  0  0  0  0  0  0  0  0  0
   -0.7902   -1.1994   -3.1934 C   0  0  0  0  0  0  0  0  0  0  0  0
   -0.7902   -1.1994   -1.8691 C   0  0  0  0  0  0  0  0  0  0  0  0
   -0.7902    0.0051   -0.9756 C   0  0  0  0  0  3  0  0  0  0  0  0
   -0.7902    1.3508   -1.6833 C   0  0  0  0  0  0  0  0  0  0  0  0
   -0.7902   -0.2825   -3.7709 H   0  0  0  0  0  0  0  0  0  0  0  0
   -0.7902   -2.1267   -3.7521 H   0  0  0  0  0  0  0  0  0  0  0  0
   -0.7902   -2.1551   -1.3509 H   0  0  0  0  0  0  0  0  0  0  0  0
    0.2530   -0.0765   -0.1799 H   0  0  0  0  0  0  0  0  0  0  0  0
   -1.6596   -0.0629   -0.3125 H   0  0  0  0  0  0  0  0  0  0  0  0
   -1.6727    1.4659   -2.3157 H   0  0  0  0  0  0  0  0  0  0  0  0
    0.0922    1.4659   -2.3157 H   0  0  0  0  0  0  0  0  0  0  0  0
   -0.7902    2.1652   -0.9580 H   0  0  0  0  0  0  0  0  0  0  0  0
  1  2  1  0
  1  5  1  0
  2  3  1  0
  2  6  1  0
  2 15  1  0
  3  4  2  0
  3  7  1  0
  8  9  2  3
  8 12  1  0
  8 13  1  0
  9 10  1  0
  9 14  1  0
 10 11  1  0
 10 16  1  0
 11 17  1  0
 11 18  1  0
 11 19  1  0
M  RAD  1  10   2
M  END
>  <reaction>  (8) 
rxn_1070

>  <mol_properties>  (8) 
{"1": {"label": "*1", "atom_type": "Cs"}, "2": {"label": "*0", "atom_type": "CS"}, "8": {"label": "*4", "atom_type": "Cd"}, "9": {"label": "*3", "atom_type": "Cs"}, "14": {"label": "*2", "atom_type": "H0"}}

>  <type>  (8) 
unop_4

>  <geom_source>  (8) 
Heuristics

$$$$

     RDKit          3D

 19 17  0  0  0  0  0  0  0  0999 V2000
    0.4251    1.1313    2.4158 S   0  0  0  0  0  0  0  0  0  0  0  0
    0.3503   -0.3000    1.2927 C   0  0  0  0  0  0  0  0  0  0  0  0
    1.6223   -0.4091    0.5241 C   0  0  0  0  0  0  0  0  0  0  0  0
    1.7567   -0.2460   -1.0686 S   0  0  0  0  0  0  0  0  0  0  0  0
    0.5305    2.0583    1.4539 H   0  0  0  0  0  0  0  0  0  0  0  0
    0.2354   -1.1627    1.9533 H   0  0  0  0  0  0  0  0  0  0  0  0
    2.5060   -0.5875    1.1379 H   0  0  0  0  0  0  0  0  0  0  0  0
   -1.7284   -1.3419   -2.5107 C   0  0  0  0  0  0  0  0  0  0  0  0
   -1.7284   -1.3419   -1.1863 C   0  0  0  0  0  0  0  0  0  0  0  0
   -1.7284   -0.1374   -0.2929 C   0  0  0  0  0  3  0  0  0  0  0  0
   -1.7284    1.2083   -1.0006 C   0  0  0  0  0  0  0  0  0  0  0  0
   -1.7284   -0.4250   -3.0881 H   0  0  0  0  0  0  0  0  0  0  0  0
   -1.7284   -2.2693   -3.0694 H   0  0  0  0  0  0  0  0  0  0  0  0
   -1.7284   -2.2977   -0.6681 H   0  0  0  0  0  0  0  0  0  0  0  0
   -0.6852   -0.2190    0.5029 H   0  0  0  0  0  0  0  0  0  0  0  0
   -2.5978   -0.2054    0.3703 H   0  0  0  0  0  0  0  0  0  0  0  0
   -2.6109    1.3233   -1.6330 H   0  0  0  0  0  0  0  0  0  0  0  0
   -0.8460    1.3233   -1.6330 H   0  0  0  0  0  0  0  0  0  0  0  0
   -1.7284    2.0227   -0.2753 H   0  0  0  0  0  0  0  0  0  0  0  0
  1  2  1  0
  1  5  1  0
  2  3  1  0
  2  6  1  0
  2 15  1  0
  3  4  2  0
  3  7  1  0
  8  9  2  3
  8 12  1  0
  8 13  1  0
  9 10  1  0
  9 14  1  0
 10 11  1  0
 10 16  1  0
 11 17  1  0
 11 18  1  0
 11 19  1  0
M  RAD  1  10   2
M  END
>  <reaction>  (9) 
rxn_1070

>  <mol_properties>  (9) 
{"1": {"label": "*1", "atom_type": "Cs"}, "2": {"label": "*0", "atom_type": "CS"}, "8": {"label": "*4", "atom_type": "Cd"}, "9": {"label": "*3", "atom_type": "Cs"}, "14": {"label": "*2", "atom_type": "H0"}}

>  <type>  (9) 
unop_5

>  <geom_source>  (9) 
Heuristics

$$$$

     RDKit          3D

 19 17  0  0  0  0  0  0  0  0999 V2000
    0.8186   -1.2728    2.3030 S   0  0  0  0  0  0  0  0  0  0  0  0
    1.2386   -0.3865    0.7689 C   0  0  0  0  0  0  0  0  0  0  0  0
    0.8713    1.0520    0.8969 C   0  0  0  0  0  3  0  0  0  0  0  0
   -0.2445    1.8028    0.0180 S   0  0  0  0  0  0  0  0  0  0  0  0
   -0.5032   -1.0666    2.2261 H   0  0  0  0  0  0  0  0  0  0  0  0
    2.3224   -0.4909    0.6784 H   0  0  0  0  0  0  0  0  0  0  0  0
    1.4106    1.5869    1.6796 H   0  0  0  0  0  0  0  0  0  0  0  0
   -0.8402   -1.4285   -3.0345 C   0  0  0  0  0  0  0  0  0  0  0  0
   -0.8402   -1.4285   -1.7101 C   0  0  0  0  0  0  0  0  0  0  0  0
   -0.8402   -0.2240   -0.8167 C   0  0  0  0  0  0  0  0  0  0  0  0
   -0.8402    1.1218   -1.5244 C   0  0  0  0  0  0  0  0  0  0  0  0
   -0.8402   -0.5116   -3.6119 H   0  0  0  0  0  0  0  0  0  0  0  0
   -0.8402   -2.3558   -3.5932 H   0  0  0  0  0  0  0  0  0  0  0  0
   -0.8402   -2.3842   -1.1920 H   0  0  0  0  0  0  0  0  0  0  0  0
    0.2031   -0.3056   -0.0209 H   0  0  0  0  0  0  0  0  0  0  0  0
   -1.7096   -0.2920   -0.1535 H   0  0  0  0  0  0  0  0  0  0  0  0
   -1.7226    1.2368   -2.1568 H   0  0  0  0  0  0  0  0  0  0  0  0
    0.0422    1.2368   -2.1568 H   0  0  0  0  0  0  0  0  0  0  0  0
   -0.8402    1.9361   -0.7991 H   0  0  0  0  0  0  0  0  0  0  0  0
  1  2  1  0
  1  5  1  0
  2  3  1  0
  2  6  1  0
  2 15  1  0
  3  4  1  0
  3  7  1  0
  4 19  1  0
  8  9  2  3
  8 12  1  0
  8 13  1  0
  9 10  1  0
  9 14  1  0
 10 11  2  3
 10 16  1  0
 11 17  1  0
 11 18  1  0
M  RAD  1   3   2
M  END
>  <reaction>  (10) 
rxn_1070

>  <mol_properties>  (10) 
{"1": {"label": "*1", "atom_type": "Cs"}, "2": {"label": "*0", "atom_type": "CS"}, "8": {"label": "*4", "atom_type": "Cd"}, "9": {"label": "*3", "atom_type": "Cs"}, "14": {"label": "*2", "atom_type": "H0"}}

>  <type>  (10) 
unop_6

>  <geom_source>  (10) 
Heuristics

$$$$

     RDKit          3D

 19 16  0  0  0  0  0  0  0  0999 V2000
    0.5653   -0.5823    2.7120 S   0  0  0  0  0  0  0  0  0  0  0  0
    1.0805   -0.5452    0.9660 C   0  0  0  0  0  0  0  0  0  0  0  0
    1.1600    0.8647    0.4900 C   0  0  0  0  0  2  0  0  0  0  0  0
    0.2337    1.5074   -0.6546 S   0  0  0  0  0 15  0  0  0  0  0  0
   -0.6410   -0.0337    2.5134 H   0  0  0  0  0  0  0  0  0  0  0  0
    2.0742   -0.9995    0.9623 H   0  0  0  0  0  0  0  0  0  0  0  0
    1.9013    1.4742    1.0082 H   0  0  0  0  0  0  0  0  0  0  0  0
   -0.9983   -1.5871   -2.8374 C   0  0  0  0  0  0  0  0  0  0  0  0
   -0.9983   -1.5871   -1.5131 C   0  0  0  0  0  0  0  0  0  0  0  0
   -0.9983   -0.3826   -0.6196 C   0  0  0  0  0  3  0  0  0  0  0  0
   -0.9983    0.9631   -1.3273 C   0  0  0  0  0  0  0  0  0  0  0  0
   -0.9983   -0.6702   -3.4148 H   0  0  0  0  0  0  0  0  0  0  0  0
   -0.9983   -2.5145   -3.3961 H   0  0  0  0  0  0  0  0  0  0  0  0
   -0.9983   -2.5429   -0.9949 H   0  0  0  0  0  0  0  0  0  0  0  0
    0.0450   -0.4642    0.1762 H   0  0  0  0  0  0  0  0  0  0  0  0
   -1.8677   -0.4506    0.0435 H   0  0  0  0  0  0  0  0  0  0  0  0
   -1.8807    1.0781   -1.9597 H   0  0  0  0  0  0  0  0  0  0  0  0
   -0.1158    1.0781   -1.9597 H   0  0  0  0  0  0  0  0  0  0  0  0
   -0.9983    1.7775   -0.6020 H   0  0  0  0  0  0  0  0  0  0  0  0
  1  2  1  0
  1  5  1  0
  2  3  1  0
  2  6  1  0
  2 15  1  0
  3  7  1  0
  8  9  2  3
  8 12  1  0
  8 13  1  0
  9 10  1  0
  9 14  1  0
 10 11  1  0
 10 16  1  0
 11 17  1  0
 11 18  1  0
 11 19  1  0
M  RAD  2   3   3  10   2
M  END
>  <reaction>  (11) 
rxn_1070

>  <mol_properties>  (11) 
{"1": {"label": "*1", "atom_type": "Cs"}, "2": {"label": "*0", "atom_type": "CS"}, "8": {"label": "*4", "atom_type": "Cd"}, "9": {"label": "*3", "atom_type": "Cs"}, "14": {"label": "*2", "atom_type": "H0"}}

>  <type>  (11) 
unop_7

>  <geom_source>  (11) 
Heuristics

$$$$

     RDKit          3D

 19 17  0  0  0  0  0  0  0  0999 V2000
    1.8187    1.2648    0.0330 S   0  0  0  0  0  0  0  0  0  0  0  0
    0.3666    0.4592    0.7799 C   0  0  0  0  0  0  0  0  0  0  0  0
    0.7969   -0.4283    1.8970 C   0  0  0  0  0  0  0  0  0  0  0  0
    0.6331   -2.0263    1.9235 S   0  0  0  0  0  0  0  0  0  0  0  0
    2.3993    0.1361   -0.3961 H   0  0  0  0  0  0  0  0  0  0  0  0
   -0.2375    1.2836    1.1664 H   0  0  0  0  0  0  0  0  0  0  0  0
    1.2790    0.0917    2.7256 H   0  0  0  0  0  0  0  0  0  0  0  0
   -1.7122   -0.5828   -3.0235 C   0  0  0  0  0  0  0  0  0  0  0  0
   -1.7122   -0.5828   -1.6991 C   0  0  0  0  0  0  0  0  0  0  0  0
   -1.7122    0.6217   -0.8057 C   0  0  0  0  0  3  0  0  0  0  0  0
   -1.7122    1.9675   -1.5134 C   0  0  0  0  0  0  0  0  0  0  0  0
   -1.7122    0.3341   -3.6009 H   0  0  0  0  0  0  0  0  0  0  0  0
   -1.7122   -1.5101   -3.5822 H   0  0  0  0  0  0  0  0  0  0  0  0
   -1.7122   -1.5385   -1.1809 H   0  0  0  0  0  0  0  0  0  0  0  0
   -0.6690    0.5402   -0.0099 H   0  0  0  0  0  0  0  0  0  0  0  0
   -2.5816    0.5538   -0.1425 H   0  0  0  0  0  0  0  0  0  0  0  0
   -2.5947    2.0825   -2.1458 H   0  0  0  0  0  0  0  0  0  0  0  0
   -0.8298    2.0825   -2.1458 H   0  0  0  0  0  0  0  0  0  0  0  0
   -1.7122    2.7819   -0.7881 H   0  0  0  0  0  0  0  0  0  0  0  0
  1  2  1  0
  1  5  1  0
  2  3  1  0
  2  6  1  0
  2 15  1  0
  3  4  2  0
  3  7  1  0
  8  9  2  3
  8 12  1  0
  8 13  1  0
  9 10  1  0
  9 14  1  0
 10 11  1  0
 10 16  1  0
 11 17  1  0
 11 18  1  0
 11 19  1  0
M  RAD  1  10   2
M  END
>  <reaction>  (12) 
rxn_1070

>  <mol_properties>  (12) 
{"1": {"label": "*1", "atom_type": "Cs"}, "2": {"label": "*0", "atom_type": "CS"}, "8": {"label": "*4", "atom_type": "Cd"}, "9": {"label": "*3", "atom_type": "Cs"}, "14": {"label": "*2", "atom_type": "H0"}}

>  <type>  (12) 
unop_8

>  <geom_source>  (12) 
Heuristics

$$$$

     RDKit          3D

 19 17  0  0  0  0  0  0  0  0999 V2000
    1.6500   -1.6250    0.8348 S   0  0  0  0  0  0  0  0  0  0  0  0
    1.2198    0.1129    0.5027 C   0  0  0  0  0  0  0  0  0  0  0  0
    0.5743    0.7145    1.7036 C   0  0  0  0  0  0  0  0  0  0  0  0
   -0.9420    1.2413    1.7716 S   0  0  0  0  0  0  0  0  0  0  0  0
    0.3915   -2.0487    1.0137 H   0  0  0  0  0  0  0  0  0  0  0  0
    2.1774    0.6011    0.3066 H   0  0  0  0  0  0  0  0  0  0  0  0
    1.2132    0.7537    2.5866 H   0  0  0  0  0  0  0  0  0  0  0  0
   -0.8590   -0.9291   -3.3007 C   0  0  0  0  0  0  0  0  0  0  0  0
   -0.8590   -0.9291   -1.9764 C   0  0  0  0  0  0  0  0  0  0  0  0
   -0.8590    0.2754   -1.0829 C   0  0  0  0  0  3  0  0  0  0  0  0
   -0.8590    1.6212   -1.7906 C   0  0  0  0  0  0  0  0  0  0  0  0
   -0.8590   -0.0122   -3.8782 H   0  0  0  0  0  0  0  0  0  0  0  0
   -0.8590   -1.8564   -3.8594 H   0  0  0  0  0  0  0  0  0  0  0  0
   -0.8590   -1.8848   -1.4582 H   0  0  0  0  0  0  0  0  0  0  0  0
    0.1843    0.1938   -0.2872 H   0  0  0  0  0  0  0  0  0  0  0  0
   -1.7283    0.2074   -0.4198 H   0  0  0  0  0  0  0  0  0  0  0  0
   -1.7414    1.7362   -2.4230 H   0  0  0  0  0  0  0  0  0  0  0  0
    0.0235    1.7362   -2.4230 H   0  0  0  0  0  0  0  0  0  0  0  0
   -0.8590    2.4355   -1.0653 H   0  0  0  0  0  0  0  0  0  0  0  0
  1  2  1  0
  1  5  1  0
  2  3  1  0
  2  6  1  0
  2 15  1  0
  3  4  2  0
  3  7  1  0
  8  9  2  3
  8 12  1  0
  8 13  1  0
  9 10  1  0
  9 14  1  0
 10 11  1  0
 10 16  1  0
 11 17  1  0
 11 18  1  0
 11 19  1  0
M  RAD  1  10   2
M  END
>  <reaction>  (13) 
rxn_1070

>  <mol_properties>  (13) 
{"1": {"label": "*1", "atom_type": "Cs"}, "2": {"label": "*0", "atom_type": "CS"}, "8": {"label": "*4", "atom_type": "Cd"}, "9": {"label": "*3", "atom_type": "Cs"}, "14": {"label": "*2", "atom_type": "H0"}}

>  <type>  (13) 
unop_9

>  <geom_source>  (13) 
Heuristics

$$$$

     RDKit          3D

 19 17  0  0  0  0  0  0  0  0999 V2000
    2.0802    0.4729   -0.3013 S   0  0  0  0  0  0  0  0  0  0  0  0
    0.5328    0.5164    0.6575 C   0  0  0  0  0  0  0  0  0  0  0  0
    0.7430   -0.1176    1.9896 C   0  0  0  0  0  0  0  0  0  0  0  0
    0.0219   -1.4602    2.4984 S   0  0  0  0  0  0  0  0  0  0  0  0
    2.1641   -0.8626   -0.3705 H   0  0  0  0  0  0  0  0  0  0  0  0
    0.3133    1.5800    0.7781 H   0  0  0  0  0  0  0  0  0  0  0  0
    1.4718    0.3916    2.6212 H   0  0  0  0  0  0  0  0  0  0  0  0
   -1.5460   -0.5255   -3.1459 C   0  0  0  0  0  0  0  0  0  0  0  0
   -1.5460   -0.5255   -1.8215 C   0  0  0  0  0  0  0  0  0  0  0  0
   -1.5460    0.6790   -0.9281 C   0  0  0  0  0  3  0  0  0  0  0  0
   -1.5460    2.0247   -1.6358 C   0  0  0  0  0  0  0  0  0  0  0  0
   -1.5460    0.3914   -3.7233 H   0  0  0  0  0  0  0  0  0  0  0  0
   -1.5460   -1.4529   -3.7046 H   0  0  0  0  0  0  0  0  0  0  0  0
   -1.5460   -1.4812   -1.3033 H   0  0  0  0  0  0  0  0  0  0  0  0
   -0.5027    0.5974   -0.1323 H   0  0  0  0  0  0  0  0  0  0  0  0
   -2.4154    0.6110   -0.2649 H   0  0  0  0  0  0  0  0  0  0  0  0
   -2.4284    2.1398   -2.2682 H   0  0  0  0  0  0  0  0  0  0  0  0
   -0.6635    2.1398   -2.2682 H   0  0  0  0  0  0  0  0  0  0  0  0
   -1.5460    2.8391   -0.9105 H   0  0  0  0  0  0  0  0  0  0  0  0
  1  2  1  0
  1  5  1  0
  2  3  1  0
  2  6  1  0
  2 15  1  0
  3  4  2  0
  3  7  1  0
  8  9  2  3
  8 12  1  0
  8 13  1  0
  9 10  1  0
  9 14  1  0
 10 11  1  0
 10 16  1  0
 11 17  1  0
 11 18  1  0
 11 19  1  0
M  RAD  1  10   2
M  END
>  <reaction>  (14) 
rxn_1070

>  <mol_properties>  (14) 
{"1": {"label": "*1", "atom_type": "Cs"}, "2": {"label": "*0", "atom_type": "CS"}, "8": {"label": "*4", "atom_type": "Cd"}, "9": {"label": "*3", "atom_type": "Cs"}, "14": {"label": "*2", "atom_type": "H0"}}

>  <type>  (14) 
unop_10

>  <geom_source>  (14) 
Heuristics

$$$$

     RDKit          3D

 19 17  0  0  0  0  0  0  0  0999 V2000
    0.4452    0.2365    2.7825 S   0  0  0  0  0  0  0  0  0  0  0  0
    0.7793   -0.5746    1.1869 C   0  0  0  0  0  0  0  0  0  0  0  0
    1.4738    0.3737    0.2709 C   0  0  0  0  0  0  0  0  0  0  0  0
    0.8714    0.9346   -1.1088 S   0  0  0  0  0  0  0  0  0  0  0  0
   -0.3737    1.1770    2.2923 H   0  0  0  0  0  0  0  0  0  0  0  0
    1.4397   -1.4090    1.4350 H   0  0  0  0  0  0  0  0  0  0  0  0
    2.4524    0.7038    0.6214 H   0  0  0  0  0  0  0  0  0  0  0  0
   -1.2995   -1.6166   -2.6165 C   0  0  0  0  0  0  0  0  0  0  0  0
   -1.2995   -1.6166   -1.2921 C   0  0  0  0  0  0  0  0  0  0  0  0
   -1.2995   -0.4121   -0.3987 C   0  0  0  0  0  3  0  0  0  0  0  0
   -1.2995    0.9336   -1.1064 C   0  0  0  0  0  0  0  0  0  0  0  0
   -1.2995   -0.6997   -3.1939 H   0  0  0  0  0  0  0  0  0  0  0  0
   -1.2995   -2.5439   -3.1752 H   0  0  0  0  0  0  0  0  0  0  0  0
   -1.2995   -2.5723   -0.7740 H   0  0  0  0  0  0  0  0  0  0  0  0
   -0.2562   -0.4937    0.3971 H   0  0  0  0  0  0  0  0  0  0  0  0
   -2.1689   -0.4801    0.2644 H   0  0  0  0  0  0  0  0  0  0  0  0
   -2.1819    1.0487   -1.7388 H   0  0  0  0  0  0  0  0  0  0  0  0
   -0.4170    1.0487   -1.7388 H   0  0  0  0  0  0  0  0  0  0  0  0
   -1.2995    1.7480   -0.3811 H   0  0  0  0  0  0  0  0  0  0  0  0
  1  2  1  0
  1  5  1  0
  2  3  1  0
  2  6  1  0
  2 15  1  0
  3  4  2  0
  3  7  1  0
  8  9  2  3
  8 12  1  0
  8 13  1  0
  9 10  1  0
  9 14  1  0
 10 11  1  0
 10 16  1  0
 11 17  1  0
 11 18  1  0
 11 19  1  0
M  RAD  1  10   2
M  END
>  <reaction>  (15) 
rxn_1070

>  <mol_properties>  (15) 
{"1": {"label": "*1", "atom_type": "Cs"}, "2": {"label": "*0", "atom_type": "CS"}, "8": {"label": "*4", "atom_type": "Cd"}, "9": {"label": "*3", "atom_type": "Cs"}, "14": {"label": "*2", "atom_type": "H0"}}

>  <type>  (15) 
unop_11

>  <geom_source>  (15) 
Heuristics

$$$$

     RDKit          3D

 19 17  0  0  0  0  0  0  0  0999 V2000
    1.9806   -1.1509    0.1424 S   0  0  0  0  0  0  0  0  0  0  0  0
    1.0233    0.3611    0.4782 C   0  0  0  0  0  0  0  0  0  0  0  0
    0.6257    0.4019    1.9138 C   0  0  0  0  0  0  0  0  0  0  0  0
   -0.8856    0.3464    2.4563 S   0  0  0  0  0  0  0  0  0  0  0  0
    0.9927   -2.0088    0.4311 H   0  0  0  0  0  0  0  0  0  0  0  0
    1.7130    1.1789    0.2560 H   0  0  0  0  0  0  0  0  0  0  0  0
    1.4623    0.4458    2.6121 H   0  0  0  0  0  0  0  0  0  0  0  0
   -1.0555   -0.6809   -3.3252 C   0  0  0  0  0  0  0  0  0  0  0  0
   -1.0555   -0.6809   -2.0008 C   0  0  0  0  0  0  0  0  0  0  0  0
   -1.0555    0.5236   -1.1074 C   0  0  0  0  0  3  0  0  0  0  0  0
   -1.0555    1.8694   -1.8151 C   0  0  0  0  0  0  0  0  0  0  0  0
   -1.0555    0.2360   -3.9026 H   0  0  0  0  0  0  0  0  0  0  0  0
   -1.0555   -1.6082   -3.8839 H   0  0  0  0  0  0  0  0  0  0  0  0
   -1.0555   -1.6366   -1.4826 H   0  0  0  0  0  0  0  0  0  0  0  0
   -0.0122    0.4421   -0.3116 H   0  0  0  0  0  0  0  0  0  0  0  0
   -1.9249    0.4557   -0.4442 H   0  0  0  0  0  0  0  0  0  0  0  0
   -1.9379    1.9844   -2.4475 H   0  0  0  0  0  0  0  0  0  0  0  0
   -0.1731    1.9844   -2.4475 H   0  0  0  0  0  0  0  0  0  0  0  0
   -1.0555    2.6837   -1.0898 H   0  0  0  0  0  0  0  0  0  0  0  0
  1  2  1  0
  1  5  1  0
  2  3  1  0
  2  6  1  0
  2 15  1  0
  3  4  2  0
  3  7  1  0
  8  9  2  3
  8 12  1  0
  8 13  1  0
  9 10  1  0
  9 14  1  0
 10 11  1  0
 10 16  1  0
 11 17  1  0
 11 18  1  0
 11 19  1  0
M  RAD  1  10   2
M  END
>  <reaction>  (16) 
rxn_1070

>  <mol_properties>  (16) 
{"1": {"label": "*1", "atom_type": "Cs"}, "2": {"label": "*0", "atom_type": "CS"}, "8": {"label": "*4", "atom_type": "Cd"}, "9": {"label": "*3", "atom_type": "Cs"}, "14": {"label": "*2", "atom_type": "H0"}}

>  <type>  (16) 
unop_12

>  <geom_source>  (16) 
Heuristics

$$$$

     RDKit          3D

 19 17  0  0  0  0  0  0  0  0999 V2000
    2.5669   -1.5960    0.3120 S   0  0  0  0  0  0  0  0  0  0  0  0
    3.6787    1.4946   -0.5675 S   0  0  0  0  0  0  0  0  0  0  0  0
    1.7211   -0.1463   -0.3948 C   0  0  0  0  0  0  0  0  0  0  0  0
   -1.5921   -1.0971   -1.2703 C   0  0  0  0  0  0  0  0  0  0  0  0
   -0.8418   -0.6025   -0.0420 C   0  0  0  0  0  3  0  0  0  0  0  0
   -1.7266    0.2405    0.8226 C   0  0  0  0  0  0  0  0  0  0  0  0
    2.4124    1.1246    0.0034 C   0  0  0  0  0  0  0  0  0  0  0  0
   -1.4599    1.5332    1.0098 C   0  0  0  0  0  0  0  0  0  0  0  0
    1.6833   -0.2403   -1.5016 H   0  0  0  0  0  0  0  0  0  0  0  0
    0.4714   -0.1223    0.0625 H   0  0  0  0  0  0  0  0  0  0  0  0
   -2.4547   -1.7291   -0.9688 H   0  0  0  0  0  0  0  0  0  0  0  0
   -1.9557   -0.2345   -1.8681 H   0  0  0  0  0  0  0  0  0  0  0  0
   -0.9067   -1.7015   -1.8999 H   0  0  0  0  0  0  0  0  0  0  0  0
   -0.4591   -1.4647    0.5442 H   0  0  0  0  0  0  0  0  0  0  0  0
   -2.5978   -0.2043    1.2947 H   0  0  0  0  0  0  0  0  0  0  0  0
    1.8983    1.8268    0.6509 H   0  0  0  0  0  0  0  0  0  0  0  0
   -0.5963    1.9979    0.5431 H   0  0  0  0  0  0  0  0  0  0  0  0
   -2.1097    2.1368    1.6351 H   0  0  0  0  0  0  0  0  0  0  0  0
    2.2683   -1.2157    1.6345 H   0  0  0  0  0  0  0  0  0  0  0  0
  1  3  1  0
  1 19  1  0
  2  7  2  0
  3  7  1  0
  3  9  1  0
  3 10  1  0
  4  5  1  0
  4 11  1  0
  4 12  1  0
  4 13  1  0
  5  6  1  0
  5 14  1  0
  6  8  2  3
  6 15  1  0
  7 16  1  0
  8 17  1  0
  8 18  1  0
M  RAD  1   5   2
M  END
>  <reaction>  (17) 
rxn_1070

>  <mol_properties>  (17) 
{"1": {"label": "*1", "atom_type": "Cs"}, "2": {"label": "*0", "atom_type": "CS"}, "8": {"label": "*4", "atom_type": "Cd"}, "9": {"label": "*3", "atom_type": "Cs"}, "14": {"label": "*2", "atom_type": "H0"}}

>  <type>  (17) 
unop_13

>  <geom_source>  (17) 
AutoTST

$$$$
