
     RDKit          3D

 19 20  0  0  0  0  0  0  0  0999 V2000
    1.1087   -0.4716   -0.9619 C   0  0  0  0  0  0  0  0  0  0  0  0
    0.9355    1.0407   -0.6470 C   0  0  0  0  0  0  0  0  0  0  0  0
   -0.0085    1.0377    0.5657 C   0  0  0  0  0  0  0  0  0  0  0  0
   -1.4093    0.6181    0.0927 C   0  0  0  0  0  0  0  0  0  0  0  0
   -1.2361   -0.8942   -0.2222 C   0  0  0  0  0  0  0  0  0  0  0  0
    0.2422   -1.1516    0.1099 C   0  0  0  0  0  0  0  0  0  0  0  0
    0.4537   -0.2211    1.3118 C   0  0  0  0  0  0  0  0  0  0  0  0
    2.1524   -0.7752   -0.8653 H   0  0  0  0  0  0  0  0  0  0  0  0
    0.7855   -0.7316   -1.9710 H   0  0  0  0  0  0  0  0  0  0  0  0
    1.8918    1.5001   -0.3916 H   0  0  0  0  0  0  0  0  0  0  0  0
    0.5184    1.6005   -1.4855 H   0  0  0  0  0  0  0  0  0  0  0  0
    0.0038    1.9661    1.1351 H   0  0  0  0  0  0  0  0  0  0  0  0
   -1.7351    1.1944   -0.7746 H   0  0  0  0  0  0  0  0  0  0  0  0
   -2.1465    0.7723    0.8824 H   0  0  0  0  0  0  0  0  0  0  0  0
   -1.4680   -1.1377   -1.2601 H   0  0  0  0  0  0  0  0  0  0  0  0
   -1.8859   -1.5030    0.4087 H   0  0  0  0  0  0  0  0  0  0  0  0
    0.4812   -2.2025    0.2673 H   0  0  0  0  0  0  0  0  0  0  0  0
    1.4942   -0.1701    1.6391 H   0  0  0  0  0  0  0  0  0  0  0  0
   -0.1779   -0.4714    2.1666 H   0  0  0  0  0  0  0  0  0  0  0  0
  1  2  1  0
  1  6  1  0
  1  8  1  0
  1  9  1  0
  2  3  1  0
  2 10  1  0
  2 11  1  0
  3  4  1  0
  3  7  1  0
  3 12  1  0
  4  5  1  0
  4 13  1  0
  4 14  1  0
  5  6  1  0
  5 15  1  0
  5 16  1  0
  6  7  1  0
  6 17  1  0
  7 18  1  0
  7 19  1  0
M  END
>  <reaction>  (1) 
rxn_550

>  <mol_properties>  (1) 
{"6": {"label": "donator", "atom_type": "Cs"}, "17": {"label": "d_hydrogen", "atom_type": "H0"}}

>  <type>  (1) 
r1h

$$$$

     RDKit          3D

  5  4  0  0  0  0  0  0  0  0999 V2000
    0.0397    0.7134    0.0000 C   0  0  0  0  0  3  0  0  0  0  0  0
    0.0458   -0.5870    0.0000 C   0  0  0  0  0  0  0  0  0  0  0  0
   -0.6871    1.5118    0.0000 H   0  0  0  0  0  0  0  0  0  0  0  0
   -0.8806   -1.1637    0.0000 H   0  0  0  0  0  0  0  0  0  0  0  0
    0.9690   -1.1600    0.0000 H   0  0  0  0  0  0  0  0  0  0  0  0
  1  2  2  3
  1  3  1  0
  2  4  1  0
  2  5  1  0
M  RAD  1   1   2
M  END
>  <reaction>  (2) 
rxn_550

>  <mol_properties>  (2) 
{"0": {"label": "acceptor", "atom_type": "Cd"}}

>  <type>  (2) 
r2

$$$$

     RDKit          3D

  6  5  0  0  0  0  0  0  0  0999 V2000
    0.6594    0.0438   -0.0050 C   0  0  0  0  0  0  0  0  0  0  0  0
   -0.6594   -0.0438    0.0050 C   0  0  0  0  0  0  0  0  0  0  0  0
    1.1706    0.8681   -0.4881 H   0  0  0  0  0  0  0  0  0  0  0  0
    1.2824   -0.7051    0.4696 H   0  0  0  0  0  0  0  0  0  0  0  0
   -1.2824    0.7051   -0.4696 H   0  0  0  0  0  0  0  0  0  0  0  0
   -1.1706   -0.8681    0.4881 H   0  0  0  0  0  0  0  0  0  0  0  0
  1  2  2  3
  1  3  1  0
  1  4  1  0
  2  5  1  0
  2  6  1  0
M  END
>  <reaction>  (3) 
rxn_550

>  <mol_properties>  (3) 
{"0": {"label": "acceptor", "atom_type": "Cd"}, "5": {"label": "a_hydrogen", "atom_type": "H0"}}

>  <type>  (3) 
r2h

$$$$

     RDKit          3D

 24 24  0  0  0  0  0  0  0  0999 V2000
   -2.7425   -0.0151   -0.1542 C   0  0  0  0  0  3  0  0  0  0  0  0
   -3.1896   -0.4205    1.0123 C   0  0  0  0  0  0  0  0  0  0  0  0
   -3.2756   -0.0159   -1.0985 H   0  0  0  0  0  0  0  0  0  0  0  0
   -4.1936   -0.8173    1.1437 H   0  0  0  0  0  0  0  0  0  0  0  0
   -2.5683   -0.3738    1.9022 H   0  0  0  0  0  0  0  0  0  0  0  0
    0.4972   -1.1976   -0.9384 C   0  0  0  0  0  0  0  0  0  0  0  0
    0.4743   -1.2270    0.6148 C   0  0  0  0  0  0  0  0  0  0  0  0
    0.5448    0.2619    0.9946 C   0  0  1  0  0  0  0  0  0  0  0  0
    1.9687    0.7693    0.6917 C   0  0  0  0  0  0  0  0  0  0  0  0
    2.0124    0.7864   -0.8636 C   0  0  0  0  0  0  0  0  0  0  0  0
    0.6032    0.3020   -1.2594 C   0  0  2  0  0  0  0  0  0  0  0  0
   -0.2328    0.9120   -0.1424 C   0  0  0  0  0  0  0  0  0  0  0  0
   -0.4255   -1.6131   -1.3462 H   0  0  0  0  0  0  0  0  0  0  0  0
    1.3295   -1.7629   -1.3601 H   0  0  0  0  0  0  0  0  0  0  0  0
   -0.4488   -1.6780    0.9795 H   0  0  0  0  0  0  0  0  0  0  0  0
    1.3080   -1.7894    1.0376 H   0  0  0  0  0  0  0  0  0  0  0  0
    0.2049    0.4819    2.0054 H   0  0  0  0  0  0  0  0  0  0  0  0
    2.7302    0.1211    1.1286 H   0  0  0  0  0  0  0  0  0  0  0  0
    2.1169    1.7707    1.0988 H   0  0  0  0  0  0  0  0  0  0  0  0
    2.7907    0.1385   -1.2705 H   0  0  0  0  0  0  0  0  0  0  0  0
    2.1951    1.7941   -1.2396 H   0  0  0  0  0  0  0  0  0  0  0  0
    0.3178    0.5607   -2.2777 H   0  0  0  0  0  0  0  0  0  0  0  0
   -1.4512    0.4809   -0.1903 H   0  0  0  0  0  0  0  0  0  0  0  0
   -0.3112    1.9995   -0.1230 H   0  0  0  0  0  0  0  0  0  0  0  0
  1  2  2  3
  1  3  1  0
  2  4  1  0
  2  5  1  0
  6  7  1  0
  6 11  1  0
  6 13  1  0
  6 14  1  0
  7  8  1  0
  7 15  1  0
  7 16  1  0
  8  9  1  0
  8 12  1  0
  8 17  1  1
  9 10  1  0
  9 18  1  0
  9 19  1  0
 10 11  1  0
 10 20  1  0
 10 21  1  0
 11 12  1  0
 11 22  1  6
 12 23  1  0
 12 24  1  0
M  RAD  1   1   2
M  END
>  <reaction>  (4) 
rxn_550

>  <mol_properties>  (4) 
{"0": {"label": "*3", "atom_type": "Cd"}, "1": {"label": "*4", "atom_type": "Cd"}, "7": {"label": "*0", "atom_type": "Cs"}, "11": {"label": "*1", "atom_type": "Cs"}, "22": {"label": "*2", "atom_type": "H0"}}

>  <type>  (4) 
ts

$$$$

     RDKit          3D

 24 24  0  0  0  0  0  0  0  0999 V2000
   -2.6687   -0.2255   -0.0106 C   0  0  0  0  0  0  0  0  0  0  0  0
   -3.7160    0.5689    0.1280 C   0  0  0  0  0  0  0  0  0  0  0  0
   -2.6395   -1.0007   -0.7671 H   0  0  0  0  0  0  0  0  0  0  0  0
   -4.5875    0.4768   -0.5094 H   0  0  0  0  0  0  0  0  0  0  0  0
   -3.7452    1.3441    0.8846 H   0  0  0  0  0  0  0  0  0  0  0  0
    0.6383   -1.3644   -0.7877 C   0  0  0  0  0  0  0  0  0  0  0  0
    0.6383   -1.3644    0.7666 C   0  0  0  0  0  0  0  0  0  0  0  0
    0.6383    0.1326    1.1146 C   0  0  0  0  0  0  0  0  0  0  0  0
    2.0176    0.7144    0.7666 C   0  0  0  0  0  0  0  0  0  0  0  0
    2.0176    0.7144   -0.7877 C   0  0  0  0  0  0  0  0  0  0  0  0
    0.6383    0.1326   -1.1357 C   0  0  0  0  0  0  0  0  0  0  0  0
   -0.2312    0.7095   -0.0106 C   0  0  0  0  0  3  0  0  0  0  0  0
   -0.2554   -1.8526   -1.1799 H   0  0  0  0  0  0  0  0  0  0  0  0
    1.5028   -1.8797   -1.2091 H   0  0  0  0  0  0  0  0  0  0  0  0
   -0.2554   -1.8526    1.1588 H   0  0  0  0  0  0  0  0  0  0  0  0
    1.5028   -1.8797    1.1880 H   0  0  0  0  0  0  0  0  0  0  0  0
    0.3139    0.3478    2.1318 H   0  0  0  0  0  0  0  0  0  0  0  0
    2.8284    0.1182    1.1880 H   0  0  0  0  0  0  0  0  0  0  0  0
    2.1200    1.7276    1.1588 H   0  0  0  0  0  0  0  0  0  0  0  0
    2.8284    0.1182   -1.2091 H   0  0  0  0  0  0  0  0  0  0  0  0
    2.1200    1.7276   -1.1799 H   0  0  0  0  0  0  0  0  0  0  0  0
    0.3139    0.3478   -2.1529 H   0  0  0  0  0  0  0  0  0  0  0  0
   -1.4546    0.2402   -0.0106 H   0  0  0  0  0  0  0  0  0  0  0  0
   -0.2672    1.8009   -0.0106 H   0  0  0  0  0  0  0  0  0  0  0  0
  1  2  2  3
  1  3  1  0
  1 23  1  0
  2  4  1  0
  2  5  1  0
  6  7  1  0
  6 11  1  0
  6 13  1  0
  6 14  1  0
  7  8  1  0
  7 15  1  0
  7 16  1  0
  8  9  1  0
  8 12  1  0
  8 17  1  0
  9 10  1  0
  9 18  1  0
  9 19  1  0
 10 11  1  0
 10 20  1  0
 10 21  1  0
 11 12  1  0
 11 22  1  0
 12 24  1  0
M  RAD  1  12   2
M  END
>  <reaction>  (5) 
rxn_550

>  <mol_properties>  (5) 
{"0": {"label": "*3", "atom_type": "Cd"}, "1": {"label": "*4", "atom_type": "Cd"}, "7": {"label": "*0", "atom_type": "Cs"}, "11": {"label": "*1", "atom_type": "Cs"}, "22": {"label": "*2", "atom_type": "H0"}}

>  <type>  (5) 
unop_1

>  <geom_source>  (5) 
Heuristics

$$$$

     RDKit          3D

 24 24  0  0  0  0  0  0  0  0999 V2000
   -2.7182   -0.0919   -0.1276 C   0  0  0  0  0  0  0  0  0  0  0  0
   -3.3159   -0.4696    0.9891 C   0  0  0  0  0  0  0  0  0  0  0  0
   -3.2800    0.1163   -1.0306 H   0  0  0  0  0  0  0  0  0  0  0  0
   -4.3917   -0.5862    1.0467 H   0  0  0  0  0  0  0  0  0  0  0  0
   -2.7541   -0.6777    1.8921 H   0  0  0  0  0  0  0  0  0  0  0  0
    0.5888   -1.2307   -0.9048 C   0  0  0  0  0  0  0  0  0  0  0  0
    0.5888   -1.2307    0.6496 C   0  0  0  0  0  0  0  0  0  0  0  0
    0.5888    0.2662    0.9975 C   0  0  0  0  0  0  0  0  0  0  0  0
    1.9681    0.8480    0.6496 C   0  0  0  0  0  0  0  0  0  0  0  0
    1.9681    0.8480   -0.9048 C   0  0  0  0  0  0  0  0  0  0  0  0
    0.5888    0.2662   -1.2527 C   0  0  0  0  0  0  0  0  0  0  0  0
   -0.2807    0.8431   -0.1276 C   0  0  0  0  0  3  0  0  0  0  0  0
   -0.3049   -1.7190   -1.2969 H   0  0  0  0  0  0  0  0  0  0  0  0
    1.4533   -1.7461   -1.3261 H   0  0  0  0  0  0  0  0  0  0  0  0
   -0.3049   -1.7190    1.0417 H   0  0  0  0  0  0  0  0  0  0  0  0
    1.4533   -1.7461    1.0709 H   0  0  0  0  0  0  0  0  0  0  0  0
    0.2644    0.4815    2.0147 H   0  0  0  0  0  0  0  0  0  0  0  0
    2.7789    0.2518    1.0709 H   0  0  0  0  0  0  0  0  0  0  0  0
    2.0705    1.8613    1.0417 H   0  0  0  0  0  0  0  0  0  0  0  0
    2.7789    0.2518   -1.3261 H   0  0  0  0  0  0  0  0  0  0  0  0
    2.0705    1.8613   -1.2969 H   0  0  0  0  0  0  0  0  0  0  0  0
    0.2644    0.4815   -2.2699 H   0  0  0  0  0  0  0  0  0  0  0  0
   -1.5041    0.3738   -0.1276 H   0  0  0  0  0  0  0  0  0  0  0  0
   -0.3167    1.9345   -0.1276 H   0  0  0  0  0  0  0  0  0  0  0  0
  1  2  2  3
  1  3  1  0
  1 23  1  0
  2  4  1  0
  2  5  1  0
  6  7  1  0
  6 11  1  0
  6 13  1  0
  6 14  1  0
  7  8  1  0
  7 15  1  0
  7 16  1  0
  8  9  1  0
  8 12  1  0
  8 17  1  0
  9 10  1  0
  9 18  1  0
  9 19  1  0
 10 11  1  0
 10 20  1  0
 10 21  1  0
 11 12  1  0
 11 22  1  0
 12 24  1  0
M  RAD  1  12   2
M  END
>  <reaction>  (6) 
rxn_550

>  <mol_properties>  (6) 
{"0": {"label": "*3", "atom_type": "Cd"}, "1": {"label": "*4", "atom_type": "Cd"}, "7": {"label": "*0", "atom_type": "Cs"}, "11": {"label": "*1", "atom_type": "Cs"}, "22": {"label": "*2", "atom_type": "H0"}}

>  <type>  (6) 
unop_2

>  <geom_source>  (6) 
Heuristics

$$$$

     RDKit          3D

 24 24  0  0  0  0  0  0  0  0999 V2000
   -2.6724   -0.2140    0.0545 C   0  0  0  0  0  0  0  0  0  0  0  0
   -3.6909    0.5053   -0.3839 C   0  0  0  0  0  0  0  0  0  0  0  0
   -2.6117   -1.2811   -0.1240 H   0  0  0  0  0  0  0  0  0  0  0  0
   -4.5062    0.0569   -0.9394 H   0  0  0  0  0  0  0  0  0  0  0  0
   -3.7517    1.5724   -0.2054 H   0  0  0  0  0  0  0  0  0  0  0  0
    0.6346   -1.3529   -0.7227 C   0  0  0  0  0  0  0  0  0  0  0  0
    0.6346   -1.3529    0.8316 C   0  0  0  0  0  0  0  0  0  0  0  0
    0.6346    0.1440    1.1796 C   0  0  0  0  0  0  0  0  0  0  0  0
    2.0138    0.7259    0.8316 C   0  0  0  0  0  0  0  0  0  0  0  0
    2.0138    0.7259   -0.7227 C   0  0  0  0  0  0  0  0  0  0  0  0
    0.6346    0.1440   -1.0707 C   0  0  0  0  0  0  0  0  0  0  0  0
   -0.2350    0.7210    0.0545 C   0  0  0  0  0  3  0  0  0  0  0  0
   -0.2591   -1.8411   -1.1149 H   0  0  0  0  0  0  0  0  0  0  0  0
    1.4991   -1.8682   -1.1441 H   0  0  0  0  0  0  0  0  0  0  0  0
   -0.2591   -1.8411    1.2238 H   0  0  0  0  0  0  0  0  0  0  0  0
    1.4991   -1.8682    1.2530 H   0  0  0  0  0  0  0  0  0  0  0  0
    0.3102    0.3593    2.1968 H   0  0  0  0  0  0  0  0  0  0  0  0
    2.8247    0.1297    1.2530 H   0  0  0  0  0  0  0  0  0  0  0  0
    2.1163    1.7391    1.2238 H   0  0  0  0  0  0  0  0  0  0  0  0
    2.8247    0.1297   -1.1441 H   0  0  0  0  0  0  0  0  0  0  0  0
    2.1163    1.7391   -1.1149 H   0  0  0  0  0  0  0  0  0  0  0  0
    0.3102    0.3593   -2.0879 H   0  0  0  0  0  0  0  0  0  0  0  0
   -1.4584    0.2517    0.0545 H   0  0  0  0  0  0  0  0  0  0  0  0
   -0.2709    1.8123    0.0545 H   0  0  0  0  0  0  0  0  0  0  0  0
  1  2  2  3
  1  3  1  0
  1 23  1  0
  2  4  1  0
  2  5  1  0
  6  7  1  0
  6 11  1  0
  6 13  1  0
  6 14  1  0
  7  8  1  0
  7 15  1  0
  7 16  1  0
  8  9  1  0
  8 12  1  0
  8 17  1  0
  9 10  1  0
  9 18  1  0
  9 19  1  0
 10 11  1  0
 10 20  1  0
 10 21  1  0
 11 12  1  0
 11 22  1  0
 12 24  1  0
M  RAD  1  12   2
M  END
>  <reaction>  (7) 
rxn_550

>  <mol_properties>  (7) 
{"0": {"label": "*3", "atom_type": "Cd"}, "1": {"label": "*4", "atom_type": "Cd"}, "7": {"label": "*0", "atom_type": "Cs"}, "11": {"label": "*1", "atom_type": "Cs"}, "22": {"label": "*2", "atom_type": "H0"}}

>  <type>  (7) 
unop_3

>  <geom_source>  (7) 
Heuristics

$$$$

     RDKit          3D

 24 24  0  0  0  0  0  0  0  0999 V2000
   -2.7596    0.0141    0.0199 C   0  0  0  0  0  0  0  0  0  0  0  0
   -3.0069   -1.2769   -0.1187 C   0  0  0  0  0  0  0  0  0  0  0  0
   -3.4402    0.7671   -0.3596 H   0  0  0  0  0  0  0  0  0  0  0  0
   -3.9002   -1.6342   -0.6173 H   0  0  0  0  0  0  0  0  0  0  0  0
   -2.3263   -2.0299    0.2607 H   0  0  0  0  0  0  0  0  0  0  0  0
    0.5475   -1.1248   -0.7573 C   0  0  0  0  0  0  0  0  0  0  0  0
    0.5475   -1.1248    0.7970 C   0  0  0  0  0  0  0  0  0  0  0  0
    0.5475    0.3721    1.1450 C   0  0  0  0  0  0  0  0  0  0  0  0
    1.9267    0.9540    0.7970 C   0  0  0  0  0  0  0  0  0  0  0  0
    1.9267    0.9540   -0.7573 C   0  0  0  0  0  0  0  0  0  0  0  0
    0.5475    0.3721   -1.1053 C   0  0  0  0  0  0  0  0  0  0  0  0
   -0.3221    0.9491    0.0199 C   0  0  0  0  0  3  0  0  0  0  0  0
   -0.3463   -1.6130   -1.1495 H   0  0  0  0  0  0  0  0  0  0  0  0
    1.4119   -1.6401   -1.1787 H   0  0  0  0  0  0  0  0  0  0  0  0
   -0.3463   -1.6130    1.1892 H   0  0  0  0  0  0  0  0  0  0  0  0
    1.4119   -1.6401    1.2184 H   0  0  0  0  0  0  0  0  0  0  0  0
    0.2230    0.5874    2.1622 H   0  0  0  0  0  0  0  0  0  0  0  0
    2.7375    0.3578    1.2184 H   0  0  0  0  0  0  0  0  0  0  0  0
    2.0291    1.9672    1.1892 H   0  0  0  0  0  0  0  0  0  0  0  0
    2.7375    0.3578   -1.1787 H   0  0  0  0  0  0  0  0  0  0  0  0
    2.0291    1.9672   -1.1495 H   0  0  0  0  0  0  0  0  0  0  0  0
    0.2230    0.5874   -2.1225 H   0  0  0  0  0  0  0  0  0  0  0  0
   -1.5455    0.4798    0.0199 H   0  0  0  0  0  0  0  0  0  0  0  0
   -0.3580    2.0404    0.0199 H   0  0  0  0  0  0  0  0  0  0  0  0
  1  2  2  3
  1  3  1  0
  1 23  1  0
  2  4  1  0
  2  5  1  0
  6  7  1  0
  6 11  1  0
  6 13  1  0
  6 14  1  0
  7  8  1  0
  7 15  1  0
  7 16  1  0
  8  9  1  0
  8 12  1  0
  8 17  1  0
  9 10  1  0
  9 18  1  0
  9 19  1  0
 10 11  1  0
 10 20  1  0
 10 21  1  0
 11 12  1  0
 11 22  1  0
 12 24  1  0
M  RAD  1  12   2
M  END
>  <reaction>  (8) 
rxn_550

>  <mol_properties>  (8) 
{"0": {"label": "*3", "atom_type": "Cd"}, "1": {"label": "*4", "atom_type": "Cd"}, "7": {"label": "*0", "atom_type": "Cs"}, "11": {"label": "*1", "atom_type": "Cs"}, "22": {"label": "*2", "atom_type": "H0"}}

>  <type>  (8) 
unop_4

>  <geom_source>  (8) 
Heuristics

$$$$

     RDKit          3D

 24 24  0  0  0  0  0  0  0  0999 V2000
   -2.6854   -0.1765    0.1022 C   0  0  0  0  0  0  0  0  0  0  0  0
   -3.5757    0.2086   -0.7956 C   0  0  0  0  0  0  0  0  0  0  0  0
   -2.9315   -0.8958    0.8744 H   0  0  0  0  0  0  0  0  0  0  0  0
   -4.5874   -0.1795   -0.7956 H   0  0  0  0  0  0  0  0  0  0  0  0
   -3.3296    0.9279   -1.5678 H   0  0  0  0  0  0  0  0  0  0  0  0
    0.6216   -1.3154   -0.6750 C   0  0  0  0  0  0  0  0  0  0  0  0
    0.6216   -1.3154    0.8794 C   0  0  0  0  0  0  0  0  0  0  0  0
    0.6216    0.1816    1.2273 C   0  0  0  0  0  0  0  0  0  0  0  0
    2.0009    0.7634    0.8794 C   0  0  0  0  0  0  0  0  0  0  0  0
    2.0009    0.7634   -0.6750 C   0  0  0  0  0  0  0  0  0  0  0  0
    0.6216    0.1816   -1.0229 C   0  0  0  0  0  0  0  0  0  0  0  0
   -0.2480    0.7585    0.1022 C   0  0  0  0  0  3  0  0  0  0  0  0
   -0.2721   -1.8036   -1.0671 H   0  0  0  0  0  0  0  0  0  0  0  0
    1.4861   -1.8307   -1.0963 H   0  0  0  0  0  0  0  0  0  0  0  0
   -0.2721   -1.8036    1.2715 H   0  0  0  0  0  0  0  0  0  0  0  0
    1.4861   -1.8307    1.3007 H   0  0  0  0  0  0  0  0  0  0  0  0
    0.2972    0.3968    2.2445 H   0  0  0  0  0  0  0  0  0  0  0  0
    2.8117    0.1672    1.3007 H   0  0  0  0  0  0  0  0  0  0  0  0
    2.1033    1.7767    1.2715 H   0  0  0  0  0  0  0  0  0  0  0  0
    2.8117    0.1672   -1.0963 H   0  0  0  0  0  0  0  0  0  0  0  0
    2.1033    1.7767   -1.0671 H   0  0  0  0  0  0  0  0  0  0  0  0
    0.2972    0.3968   -2.0401 H   0  0  0  0  0  0  0  0  0  0  0  0
   -1.4713    0.2892    0.1022 H   0  0  0  0  0  0  0  0  0  0  0  0
   -0.2839    1.8499    0.1022 H   0  0  0  0  0  0  0  0  0  0  0  0
  1  2  2  3
  1  3  1  0
  1 23  1  0
  2  4  1  0
  2  5  1  0
  6  7  1  0
  6 11  1  0
  6 13  1  0
  6 14  1  0
  7  8  1  0
  7 15  1  0
  7 16  1  0
  8  9  1  0
  8 12  1  0
  8 17  1  0
  9 10  1  0
  9 18  1  0
  9 19  1  0
 10 11  1  0
 10 20  1  0
 10 21  1  0
 11 12  1  0
 11 22  1  0
 12 24  1  0
M  RAD  1  12   2
M  END
>  <reaction>  (9) 
rxn_550

>  <mol_properties>  (9) 
{"0": {"label": "*3", "atom_type": "Cd"}, "1": {"label": "*4", "atom_type": "Cd"}, "7": {"label": "*0", "atom_type": "Cs"}, "11": {"label": "*1", "atom_type": "Cs"}, "22": {"label": "*2", "atom_type": "H0"}}

>  <type>  (9) 
unop_5

>  <geom_source>  (9) 
Heuristics

$$$$

     RDKit          3D

 24 24  0  0  0  0  0  0  0  0999 V2000
   -2.7504   -0.0116    0.0819 C   0  0  0  0  0  0  0  0  0  0  0  0
   -3.0762   -1.0982   -0.5965 C   0  0  0  0  0  0  0  0  0  0  0  0
   -3.3907    0.8625    0.0967 H   0  0  0  0  0  0  0  0  0  0  0  0
   -3.9966   -1.1587   -1.1651 H   0  0  0  0  0  0  0  0  0  0  0  0
   -2.4359   -1.9723   -0.6113 H   0  0  0  0  0  0  0  0  0  0  0  0
    0.5566   -1.1505   -0.6953 C   0  0  0  0  0  0  0  0  0  0  0  0
    0.5566   -1.1505    0.8591 C   0  0  0  0  0  0  0  0  0  0  0  0
    0.5566    0.3464    1.2070 C   0  0  0  0  0  0  0  0  0  0  0  0
    1.9358    0.9283    0.8591 C   0  0  0  0  0  0  0  0  0  0  0  0
    1.9358    0.9283   -0.6953 C   0  0  0  0  0  0  0  0  0  0  0  0
    0.5566    0.3464   -1.0433 C   0  0  0  0  0  0  0  0  0  0  0  0
   -0.3130    0.9234    0.0819 C   0  0  0  0  0  3  0  0  0  0  0  0
   -0.3371   -1.6387   -1.0874 H   0  0  0  0  0  0  0  0  0  0  0  0
    1.4211   -1.6658   -1.1167 H   0  0  0  0  0  0  0  0  0  0  0  0
   -0.3371   -1.6387    1.2512 H   0  0  0  0  0  0  0  0  0  0  0  0
    1.4211   -1.6658    1.2804 H   0  0  0  0  0  0  0  0  0  0  0  0
    0.2322    0.5617    2.2242 H   0  0  0  0  0  0  0  0  0  0  0  0
    2.7467    0.3321    1.2804 H   0  0  0  0  0  0  0  0  0  0  0  0
    2.0383    1.9415    1.2512 H   0  0  0  0  0  0  0  0  0  0  0  0
    2.7467    0.3321   -1.1167 H   0  0  0  0  0  0  0  0  0  0  0  0
    2.0383    1.9415   -1.0874 H   0  0  0  0  0  0  0  0  0  0  0  0
    0.2322    0.5617   -2.0605 H   0  0  0  0  0  0  0  0  0  0  0  0
   -1.5364    0.4541    0.0819 H   0  0  0  0  0  0  0  0  0  0  0  0
   -0.3489    2.0147    0.0819 H   0  0  0  0  0  0  0  0  0  0  0  0
  1  2  2  3
  1  3  1  0
  1 23  1  0
  2  4  1  0
  2  5  1  0
  6  7  1  0
  6 11  1  0
  6 13  1  0
  6 14  1  0
  7  8  1  0
  7 15  1  0
  7 16  1  0
  8  9  1  0
  8 12  1  0
  8 17  1  0
  9 10  1  0
  9 18  1  0
  9 19  1  0
 10 11  1  0
 10 20  1  0
 10 21  1  0
 11 12  1  0
 11 22  1  0
 12 24  1  0
M  RAD  1  12   2
M  END
>  <reaction>  (10) 
rxn_550

>  <mol_properties>  (10) 
{"0": {"label": "*3", "atom_type": "Cd"}, "1": {"label": "*4", "atom_type": "Cd"}, "7": {"label": "*0", "atom_type": "Cs"}, "11": {"label": "*1", "atom_type": "Cs"}, "22": {"label": "*2", "atom_type": "H0"}}

>  <type>  (10) 
unop_6

>  <geom_source>  (10) 
Heuristics

$$$$

     RDKit          3D

 24 24  0  0  0  0  0  0  0  0999 V2000
   -2.7312   -0.0627    0.1212 C   0  0  0  0  0  0  0  0  0  0  0  0
   -3.2214   -0.7203   -0.9152 C   0  0  0  0  0  0  0  0  0  0  0  0
   -3.2974    0.7144    0.6209 H   0  0  0  0  0  0  0  0  0  0  0  0
   -4.2094   -0.5087   -1.3069 H   0  0  0  0  0  0  0  0  0  0  0  0
   -2.6552   -1.4974   -1.4149 H   0  0  0  0  0  0  0  0  0  0  0  0
    0.5759   -1.2016   -0.6560 C   0  0  0  0  0  0  0  0  0  0  0  0
    0.5759   -1.2016    0.8984 C   0  0  0  0  0  0  0  0  0  0  0  0
    0.5759    0.2954    1.2463 C   0  0  0  0  0  0  0  0  0  0  0  0
    1.9551    0.8772    0.8984 C   0  0  0  0  0  0  0  0  0  0  0  0
    1.9551    0.8772   -0.6560 C   0  0  0  0  0  0  0  0  0  0  0  0
    0.5759    0.2954   -1.0039 C   0  0  0  0  0  0  0  0  0  0  0  0
   -0.2937    0.8723    0.1212 C   0  0  0  0  0  3  0  0  0  0  0  0
   -0.3178   -1.6898   -1.0481 H   0  0  0  0  0  0  0  0  0  0  0  0
    1.4404   -1.7169   -1.0773 H   0  0  0  0  0  0  0  0  0  0  0  0
   -0.3178   -1.6898    1.2905 H   0  0  0  0  0  0  0  0  0  0  0  0
    1.4404   -1.7169    1.3197 H   0  0  0  0  0  0  0  0  0  0  0  0
    0.2515    0.5106    2.2635 H   0  0  0  0  0  0  0  0  0  0  0  0
    2.7659    0.2810    1.3197 H   0  0  0  0  0  0  0  0  0  0  0  0
    2.0576    1.8905    1.2905 H   0  0  0  0  0  0  0  0  0  0  0  0
    2.7659    0.2810   -1.0773 H   0  0  0  0  0  0  0  0  0  0  0  0
    2.0576    1.8905   -1.0481 H   0  0  0  0  0  0  0  0  0  0  0  0
    0.2515    0.5106   -2.0211 H   0  0  0  0  0  0  0  0  0  0  0  0
   -1.5171    0.4030    0.1212 H   0  0  0  0  0  0  0  0  0  0  0  0
   -0.3296    1.9637    0.1212 H   0  0  0  0  0  0  0  0  0  0  0  0
  1  2  2  3
  1  3  1  0
  1 23  1  0
  2  4  1  0
  2  5  1  0
  6  7  1  0
  6 11  1  0
  6 13  1  0
  6 14  1  0
  7  8  1  0
  7 15  1  0
  7 16  1  0
  8  9  1  0
  8 12  1  0
  8 17  1  0
  9 10  1  0
  9 18  1  0
  9 19  1  0
 10 11  1  0
 10 20  1  0
 10 21  1  0
 11 12  1  0
 11 22  1  0
 12 24  1  0
M  RAD  1  12   2
M  END
>  <reaction>  (11) 
rxn_550

>  <mol_properties>  (11) 
{"0": {"label": "*3", "atom_type": "Cd"}, "1": {"label": "*4", "atom_type": "Cd"}, "7": {"label": "*0", "atom_type": "Cs"}, "11": {"label": "*1", "atom_type": "Cs"}, "22": {"label": "*2", "atom_type": "H0"}}

>  <type>  (11) 
unop_7

>  <geom_source>  (11) 
Heuristics

$$$$

     RDKit          3D

 24 24  0  0  0  0  0  0  0  0999 V2000
   -2.6766   -0.2040   -0.0738 C   0  0  0  0  0  0  0  0  0  0  0  0
   -3.6455    0.3860    0.6046 C   0  0  0  0  0  0  0  0  0  0  0  0
   -2.8351   -0.5859   -1.0754 H   0  0  0  0  0  0  0  0  0  0  0  0
   -4.6373    0.5115    0.1864 H   0  0  0  0  0  0  0  0  0  0  0  0
   -3.4870    0.7679    1.6062 H   0  0  0  0  0  0  0  0  0  0  0  0
    0.6304   -1.3429   -0.8510 C   0  0  0  0  0  0  0  0  0  0  0  0
    0.6304   -1.3429    0.7034 C   0  0  0  0  0  0  0  0  0  0  0  0
    0.6304    0.1541    1.0513 C   0  0  0  0  0  0  0  0  0  0  0  0
    2.0096    0.7359    0.7034 C   0  0  0  0  0  0  0  0  0  0  0  0
    2.0096    0.7359   -0.8510 C   0  0  0  0  0  0  0  0  0  0  0  0
    0.6304    0.1541   -1.1989 C   0  0  0  0  0  0  0  0  0  0  0  0
   -0.2392    0.7310   -0.0738 C   0  0  0  0  0  3  0  0  0  0  0  0
   -0.2633   -1.8311   -1.2431 H   0  0  0  0  0  0  0  0  0  0  0  0
    1.4949   -1.8582   -1.2723 H   0  0  0  0  0  0  0  0  0  0  0  0
   -0.2633   -1.8311    1.0955 H   0  0  0  0  0  0  0  0  0  0  0  0
    1.4949   -1.8582    1.1247 H   0  0  0  0  0  0  0  0  0  0  0  0
    0.3060    0.3693    2.0685 H   0  0  0  0  0  0  0  0  0  0  0  0
    2.8205    0.1397    1.1247 H   0  0  0  0  0  0  0  0  0  0  0  0
    2.1121    1.7491    1.0955 H   0  0  0  0  0  0  0  0  0  0  0  0
    2.8205    0.1397   -1.2723 H   0  0  0  0  0  0  0  0  0  0  0  0
    2.1121    1.7491   -1.2431 H   0  0  0  0  0  0  0  0  0  0  0  0
    0.3060    0.3693   -2.2161 H   0  0  0  0  0  0  0  0  0  0  0  0
   -1.4626    0.2617   -0.0738 H   0  0  0  0  0  0  0  0  0  0  0  0
   -0.2751    1.8223   -0.0738 H   0  0  0  0  0  0  0  0  0  0  0  0
  1  2  2  3
  1  3  1  0
  1 23  1  0
  2  4  1  0
  2  5  1  0
  6  7  1  0
  6 11  1  0
  6 13  1  0
  6 14  1  0
  7  8  1  0
  7 15  1  0
  7 16  1  0
  8  9  1  0
  8 12  1  0
  8 17  1  0
  9 10  1  0
  9 18  1  0
  9 19  1  0
 10 11  1  0
 10 20  1  0
 10 21  1  0
 11 12  1  0
 11 22  1  0
 12 24  1  0
M  RAD  1  12   2
M  END
>  <reaction>  (12) 
rxn_550

>  <mol_properties>  (12) 
{"0": {"label": "*3", "atom_type": "Cd"}, "1": {"label": "*4", "atom_type": "Cd"}, "7": {"label": "*0", "atom_type": "Cs"}, "11": {"label": "*1", "atom_type": "Cs"}, "22": {"label": "*2", "atom_type": "H0"}}

>  <type>  (12) 
unop_8

>  <geom_source>  (12) 
Heuristics

$$$$

     RDKit          3D

 24 24  0  0  0  0  0  0  0  0999 V2000
   -2.7560    0.0067   -0.0479 C   0  0  0  0  0  0  0  0  0  0  0  0
   -3.0321   -1.2093    0.3905 C   0  0  0  0  0  0  0  0  0  0  0  0
   -3.4485    0.5556   -0.6750 H   0  0  0  0  0  0  0  0  0  0  0  0
   -3.9620   -1.7062    0.1403 H   0  0  0  0  0  0  0  0  0  0  0  0
   -2.3396   -1.7583    1.0177 H   0  0  0  0  0  0  0  0  0  0  0  0
    0.5510   -1.1322   -0.8250 C   0  0  0  0  0  0  0  0  0  0  0  0
    0.5510   -1.1322    0.7293 C   0  0  0  0  0  0  0  0  0  0  0  0
    0.5510    0.3647    1.0773 C   0  0  0  0  0  0  0  0  0  0  0  0
    1.9303    0.9466    0.7293 C   0  0  0  0  0  0  0  0  0  0  0  0
    1.9303    0.9466   -0.8250 C   0  0  0  0  0  0  0  0  0  0  0  0
    0.5510    0.3647   -1.1730 C   0  0  0  0  0  0  0  0  0  0  0  0
   -0.3185    0.9417   -0.0479 C   0  0  0  0  0  3  0  0  0  0  0  0
   -0.3427   -1.6204   -1.2172 H   0  0  0  0  0  0  0  0  0  0  0  0
    1.4155   -1.6475   -1.2464 H   0  0  0  0  0  0  0  0  0  0  0  0
   -0.3427   -1.6204    1.1215 H   0  0  0  0  0  0  0  0  0  0  0  0
    1.4155   -1.6475    1.1507 H   0  0  0  0  0  0  0  0  0  0  0  0
    0.2266    0.5800    2.0945 H   0  0  0  0  0  0  0  0  0  0  0  0
    2.7411    0.3504    1.1507 H   0  0  0  0  0  0  0  0  0  0  0  0
    2.0327    1.9598    1.1215 H   0  0  0  0  0  0  0  0  0  0  0  0
    2.7411    0.3504   -1.2464 H   0  0  0  0  0  0  0  0  0  0  0  0
    2.0327    1.9598   -1.2172 H   0  0  0  0  0  0  0  0  0  0  0  0
    0.2266    0.5800   -2.1902 H   0  0  0  0  0  0  0  0  0  0  0  0
   -1.5419    0.4724   -0.0479 H   0  0  0  0  0  0  0  0  0  0  0  0
   -0.3545    2.0330   -0.0479 H   0  0  0  0  0  0  0  0  0  0  0  0
  1  2  2  3
  1  3  1  0
  1 23  1  0
  2  4  1  0
  2  5  1  0
  6  7  1  0
  6 11  1  0
  6 13  1  0
  6 14  1  0
  7  8  1  0
  7 15  1  0
  7 16  1  0
  8  9  1  0
  8 12  1  0
  8 17  1  0
  9 10  1  0
  9 18  1  0
  9 19  1  0
 10 11  1  0
 10 20  1  0
 10 21  1  0
 11 12  1  0
 11 22  1  0
 12 24  1  0
M  RAD  1  12   2
M  END
>  <reaction>  (13) 
rxn_550

>  <mol_properties>  (13) 
{"0": {"label": "*3", "atom_type": "Cd"}, "1": {"label": "*4", "atom_type": "Cd"}, "7": {"label": "*0", "atom_type": "Cs"}, "11": {"label": "*1", "atom_type": "Cs"}, "22": {"label": "*2", "atom_type": "H0"}}

>  <type>  (13) 
unop_9

>  <geom_source>  (13) 
Heuristics

$$$$

     RDKit          3D

 24 24  0  0  0  0  0  0  0  0999 V2000
   -2.6947   -0.1550   -0.1170 C   0  0  0  0  0  0  0  0  0  0  0  0
   -3.4990    0.0060    0.9194 C   0  0  0  0  0  0  0  0  0  0  0  0
   -3.0743   -0.1867   -1.1315 H   0  0  0  0  0  0  0  0  0  0  0  0
   -4.5703    0.1127    0.7963 H   0  0  0  0  0  0  0  0  0  0  0  0
   -3.1195    0.0377    1.9339 H   0  0  0  0  0  0  0  0  0  0  0  0
    0.6123   -1.2939   -0.8942 C   0  0  0  0  0  0  0  0  0  0  0  0
    0.6123   -1.2939    0.6602 C   0  0  0  0  0  0  0  0  0  0  0  0
    0.6123    0.2031    1.0082 C   0  0  0  0  0  0  0  0  0  0  0  0
    1.9916    0.7849    0.6602 C   0  0  0  0  0  0  0  0  0  0  0  0
    1.9916    0.7849   -0.8942 C   0  0  0  0  0  0  0  0  0  0  0  0
    0.6123    0.2031   -1.2421 C   0  0  0  0  0  0  0  0  0  0  0  0
   -0.2572    0.7800   -0.1170 C   0  0  0  0  0  3  0  0  0  0  0  0
   -0.2814   -1.7821   -1.2863 H   0  0  0  0  0  0  0  0  0  0  0  0
    1.4768   -1.8092   -1.3155 H   0  0  0  0  0  0  0  0  0  0  0  0
   -0.2814   -1.7821    1.0523 H   0  0  0  0  0  0  0  0  0  0  0  0
    1.4768   -1.8092    1.0816 H   0  0  0  0  0  0  0  0  0  0  0  0
    0.2879    0.4183    2.0254 H   0  0  0  0  0  0  0  0  0  0  0  0
    2.8024    0.1887    1.0816 H   0  0  0  0  0  0  0  0  0  0  0  0
    2.0940    1.7981    1.0523 H   0  0  0  0  0  0  0  0  0  0  0  0
    2.8024    0.1887   -1.3155 H   0  0  0  0  0  0  0  0  0  0  0  0
    2.0940    1.7981   -1.2863 H   0  0  0  0  0  0  0  0  0  0  0  0
    0.2879    0.4183   -2.2593 H   0  0  0  0  0  0  0  0  0  0  0  0
   -1.4806    0.3107   -0.1170 H   0  0  0  0  0  0  0  0  0  0  0  0
   -0.2932    1.8713   -0.1170 H   0  0  0  0  0  0  0  0  0  0  0  0
  1  2  2  3
  1  3  1  0
  1 23  1  0
  2  4  1  0
  2  5  1  0
  6  7  1  0
  6 11  1  0
  6 13  1  0
  6 14  1  0
  7  8  1  0
  7 15  1  0
  7 16  1  0
  8  9  1  0
  8 12  1  0
  8 17  1  0
  9 10  1  0
  9 18  1  0
  9 19  1  0
 10 11  1  0
 10 20  1  0
 10 21  1  0
 11 12  1  0
 11 22  1  0
 12 24  1  0
M  RAD  1  12   2
M  END
>  <reaction>  (14) 
rxn_550

>  <mol_properties>  (14) 
{"0": {"label": "*3", "atom_type": "Cd"}, "1": {"label": "*4", "atom_type": "Cd"}, "7": {"label": "*0", "atom_type": "Cs"}, "11": {"label": "*1", "atom_type": "Cs"}, "22": {"label": "*2", "atom_type": "H0"}}

>  <type>  (14) 
unop_10

>  <geom_source>  (14) 
Heuristics

$$$$

     RDKit          3D

 24 24  0  0  0  0  0  0  0  0999 V2000
   -2.7070   -0.1239    0.1274 C   0  0  0  0  0  0  0  0  0  0  0  0
   -3.4039   -0.2429   -0.9894 C   0  0  0  0  0  0  0  0  0  0  0  0
   -3.1720    0.1795    1.0580 H   0  0  0  0  0  0  0  0  0  0  0  0
   -4.4683   -0.0417   -1.0193 H   0  0  0  0  0  0  0  0  0  0  0  0
   -2.9390   -0.5462   -1.9200 H   0  0  0  0  0  0  0  0  0  0  0  0
    0.6000   -1.2628   -0.6498 C   0  0  0  0  0  0  0  0  0  0  0  0
    0.6000   -1.2628    0.9046 C   0  0  0  0  0  0  0  0  0  0  0  0
    0.6000    0.2341    1.2525 C   0  0  0  0  0  0  0  0  0  0  0  0
    1.9793    0.8160    0.9046 C   0  0  0  0  0  0  0  0  0  0  0  0
    1.9793    0.8160   -0.6498 C   0  0  0  0  0  0  0  0  0  0  0  0
    0.6000    0.2341   -0.9978 C   0  0  0  0  0  0  0  0  0  0  0  0
   -0.2695    0.8111    0.1274 C   0  0  0  0  0  3  0  0  0  0  0  0
   -0.2937   -1.7510   -1.0419 H   0  0  0  0  0  0  0  0  0  0  0  0
    1.4645   -1.7781   -1.0712 H   0  0  0  0  0  0  0  0  0  0  0  0
   -0.2937   -1.7510    1.2967 H   0  0  0  0  0  0  0  0  0  0  0  0
    1.4645   -1.7781    1.3259 H   0  0  0  0  0  0  0  0  0  0  0  0
    0.2756    0.4494    2.2697 H   0  0  0  0  0  0  0  0  0  0  0  0
    2.7901    0.2198    1.3259 H   0  0  0  0  0  0  0  0  0  0  0  0
    2.0817    1.8292    1.2967 H   0  0  0  0  0  0  0  0  0  0  0  0
    2.7901    0.2198   -1.0712 H   0  0  0  0  0  0  0  0  0  0  0  0
    2.0817    1.8292   -1.0419 H   0  0  0  0  0  0  0  0  0  0  0  0
    0.2756    0.4494   -2.0150 H   0  0  0  0  0  0  0  0  0  0  0  0
   -1.4929    0.3418    0.1274 H   0  0  0  0  0  0  0  0  0  0  0  0
   -0.3055    1.9024    0.1274 H   0  0  0  0  0  0  0  0  0  0  0  0
  1  2  2  3
  1  3  1  0
  1 23  1  0
  2  4  1  0
  2  5  1  0
  6  7  1  0
  6 11  1  0
  6 13  1  0
  6 14  1  0
  7  8  1  0
  7 15  1  0
  7 16  1  0
  8  9  1  0
  8 12  1  0
  8 17  1  0
  9 10  1  0
  9 18  1  0
  9 19  1  0
 10 11  1  0
 10 20  1  0
 10 21  1  0
 11 12  1  0
 11 22  1  0
 12 24  1  0
M  RAD  1  12   2
M  END
>  <reaction>  (15) 
rxn_550

>  <mol_properties>  (15) 
{"0": {"label": "*3", "atom_type": "Cd"}, "1": {"label": "*4", "atom_type": "Cd"}, "7": {"label": "*0", "atom_type": "Cs"}, "11": {"label": "*1", "atom_type": "Cs"}, "22": {"label": "*2", "atom_type": "H0"}}

>  <type>  (15) 
unop_11

>  <geom_source>  (15) 
Heuristics

$$$$

     RDKit          3D

 24 24  0  0  0  0  0  0  0  0999 V2000
   -2.7407   -0.0323   -0.1022 C   0  0  0  0  0  0  0  0  0  0  0  0
   -3.1451   -0.9140    0.7956 C   0  0  0  0  0  0  0  0  0  0  0  0
   -3.4047    0.3379   -0.8744 H   0  0  0  0  0  0  0  0  0  0  0  0
   -4.1568   -1.3021    0.7956 H   0  0  0  0  0  0  0  0  0  0  0  0
   -2.4811   -1.2842    1.5678 H   0  0  0  0  0  0  0  0  0  0  0  0
    0.5663   -1.1711   -0.8794 C   0  0  0  0  0  0  0  0  0  0  0  0
    0.5663   -1.1711    0.6750 C   0  0  0  0  0  0  0  0  0  0  0  0
    0.5663    0.3258    1.0229 C   0  0  0  0  0  0  0  0  0  0  0  0
    1.9455    0.9076    0.6750 C   0  0  0  0  0  0  0  0  0  0  0  0
    1.9455    0.9076   -0.8794 C   0  0  0  0  0  0  0  0  0  0  0  0
    0.5663    0.3258   -1.2273 C   0  0  0  0  0  0  0  0  0  0  0  0
   -0.3033    0.9027   -0.1022 C   0  0  0  0  0  3  0  0  0  0  0  0
   -0.3274   -1.6594   -1.2715 H   0  0  0  0  0  0  0  0  0  0  0  0
    1.4308   -1.6865   -1.3007 H   0  0  0  0  0  0  0  0  0  0  0  0
   -0.3274   -1.6594    1.0671 H   0  0  0  0  0  0  0  0  0  0  0  0
    1.4308   -1.6865    1.0963 H   0  0  0  0  0  0  0  0  0  0  0  0
    0.2419    0.5411    2.0401 H   0  0  0  0  0  0  0  0  0  0  0  0
    2.7564    0.3114    1.0963 H   0  0  0  0  0  0  0  0  0  0  0  0
    2.0480    1.9209    1.0671 H   0  0  0  0  0  0  0  0  0  0  0  0
    2.7564    0.3114   -1.3007 H   0  0  0  0  0  0  0  0  0  0  0  0
    2.0480    1.9209   -1.2715 H   0  0  0  0  0  0  0  0  0  0  0  0
    0.2419    0.5411   -2.2445 H   0  0  0  0  0  0  0  0  0  0  0  0
   -1.5267    0.4334   -0.1022 H   0  0  0  0  0  0  0  0  0  0  0  0
   -0.3392    1.9941   -0.1022 H   0  0  0  0  0  0  0  0  0  0  0  0
  1  2  2  3
  1  3  1  0
  1 23  1  0
  2  4  1  0
  2  5  1  0
  6  7  1  0
  6 11  1  0
  6 13  1  0
  6 14  1  0
  7  8  1  0
  7 15  1  0
  7 16  1  0
  8  9  1  0
  8 12  1  0
  8 17  1  0
  9 10  1  0
  9 18  1  0
  9 19  1  0
 10 11  1  0
 10 20  1  0
 10 21  1  0
 11 12  1  0
 11 22  1  0
 12 24  1  0
M  RAD  1  12   2
M  END
>  <reaction>  (16) 
rxn_550

>  <mol_properties>  (16) 
{"0": {"label": "*3", "atom_type": "Cd"}, "1": {"label": "*4", "atom_type": "Cd"}, "7": {"label": "*0", "atom_type": "Cs"}, "11": {"label": "*1", "atom_type": "Cs"}, "22": {"label": "*2", "atom_type": "H0"}}

>  <type>  (16) 
unop_12

>  <geom_source>  (16) 
Heuristics

$$$$

     RDKit          3D

 24 24  0  0  0  0  0  0  0  0999 V2000
   -0.4638   -1.1266   -0.3205 C   0  0  0  0  0  0  0  0  0  0  0  0
   -0.7322    0.8026    0.7348 C   0  0  0  0  0  0  0  0  0  0  0  0
   -1.2373   -0.2843   -1.3460 C   0  0  0  0  0  0  0  0  0  0  0  0
   -1.4071   -1.5003    0.8359 C   0  0  0  0  0  0  0  0  0  0  0  0
   -1.5932   -0.1628    1.5675 C   0  0  0  0  0  0  0  0  0  0  0  0
   -1.4236    1.0549   -0.6134 C   0  0  0  0  0  0  0  0  0  0  0  0
    0.4154   -0.0753    0.3064 C   0  0  0  0  0  3  0  0  0  0  0  0
    3.7545    0.3929   -0.8653 C   0  0  0  0  0  0  0  0  0  0  0  0
    2.6902    0.9487   -0.2919 C   0  0  0  0  0  0  0  0  0  0  0  0
    0.0842   -1.9873   -0.7596 H   0  0  0  0  0  0  0  0  0  0  0  0
   -0.4326    1.7273    1.2724 H   0  0  0  0  0  0  0  0  0  0  0  0
   -2.2120   -0.7463   -1.6165 H   0  0  0  0  0  0  0  0  0  0  0  0
   -0.6292   -0.1440   -2.2670 H   0  0  0  0  0  0  0  0  0  0  0  0
   -2.3743   -1.9096    0.4706 H   0  0  0  0  0  0  0  0  0  0  0  0
   -0.9212   -2.2459    1.5031 H   0  0  0  0  0  0  0  0  0  0  0  0
   -2.6606    0.1477    1.5960 H   0  0  0  0  0  0  0  0  0  0  0  0
   -1.2019   -0.2286    2.6066 H   0  0  0  0  0  0  0  0  0  0  0  0
   -2.4984    1.3124   -0.4903 H   0  0  0  0  0  0  0  0  0  0  0  0
   -0.9100    1.8749   -1.1625 H   0  0  0  0  0  0  0  0  0  0  0  0
    1.0049   -0.4649    1.1685 H   0  0  0  0  0  0  0  0  0  0  0  0
    4.7308    0.8575   -0.7734 H   0  0  0  0  0  0  0  0  0  0  0  0
    3.6502   -0.5286   -1.4280 H   0  0  0  0  0  0  0  0  0  0  0  0
    2.7910    1.8705    0.2717 H   0  0  0  0  0  0  0  0  0  0  0  0
    1.5761    0.4150   -0.3990 H   0  0  0  0  0  0  0  0  0  0  0  0
  1  3  1  0
  1  4  1  0
  1  7  1  0
  1 10  1  0
  2  6  1  0
  2  5  1  0
  2  7  1  0
  2 11  1  0
  3  6  1  0
  3 12  1  0
  3 13  1  0
  4  5  1  0
  4 14  1  0
  4 15  1  0
  5 16  1  0
  5 17  1  0
  6 18  1  0
  6 19  1  0
  7 20  1  0
  8  9  2  3
  8 21  1  0
  8 22  1  0
  9 23  1  0
  9 24  1  0
M  RAD  1   7   2
M  END
>  <reaction>  (17) 
rxn_550

>  <mol_properties>  (17) 
{"0": {"label": "*3", "atom_type": "Cd"}, "1": {"label": "*4", "atom_type": "Cd"}, "7": {"label": "*0", "atom_type": "Cs"}, "11": {"label": "*1", "atom_type": "Cs"}, "22": {"label": "*2", "atom_type": "H0"}}

>  <type>  (17) 
unop_13

>  <geom_source>  (17) 
AutoTST

$$$$
