
     RDKit          3D

 12 11  0  0  0  0  0  0  0  0999 V2000
    2.1696    0.6854    1.1310 C   0  0  0  0  0  0  0  0  0  0  0  0
    1.2518    0.4145    0.4134 C   0  0  0  0  0  0  0  0  0  0  0  0
    0.1391    0.0443   -0.4683 C   0  0  0  0  0  0  0  0  0  0  0  0
   -0.2054   -1.4492   -0.3339 C   0  0  0  0  0  0  0  0  0  0  0  0
   -1.0375    0.8853   -0.2222 C   0  0  0  0  0  0  0  0  0  0  0  0
   -2.0160    1.5463   -0.0311 C   0  0  0  0  0  0  0  0  0  0  0  0
    2.9819    0.9356    1.7702 H   0  0  0  0  0  0  0  0  0  0  0  0
    0.4629    0.2285   -1.4981 H   0  0  0  0  0  0  0  0  0  0  0  0
   -0.5327   -1.6703    0.6812 H   0  0  0  0  0  0  0  0  0  0  0  0
    0.6727   -2.0535   -0.5593 H   0  0  0  0  0  0  0  0  0  0  0  0
   -1.0064   -1.7081   -1.0256 H   0  0  0  0  0  0  0  0  0  0  0  0
   -2.8802    2.1413    0.1426 H   0  0  0  0  0  0  0  0  0  0  0  0
  1  2  3  0
  1  7  1  0
  2  3  1  0
  3  4  1  0
  3  5  1  0
  3  8  1  0
  4  9  1  0
  4 10  1  0
  4 11  1  0
  5  6  3  0
  6 12  1  0
M  END
>  <reaction>  (1) 
rxn_1403

>  <mol_properties>  (1) 
{"2": {"label": "donator", "atom_type": "Cs"}, "7": {"label": "d_hydrogen", "atom_type": "H0"}}

>  <type>  (1) 
r1h

$$$$

     RDKit          3D

 14 14  0  0  0  0  0  0  0  0999 V2000
    2.3111    0.1295    0.0255 C   0  0  0  0  0  0  0  0  0  0  0  0
    0.9132    0.0511    0.0101 C   0  0  0  0  0  0  0  0  0  0  0  0
    0.2446   -1.1981    0.0389 C   0  0  0  0  0  3  0  0  0  0  0  0
   -1.1306   -1.2689    0.0235 C   0  0  0  0  0  0  0  0  0  0  0  0
   -1.8967   -0.1062   -0.0209 C   0  0  0  0  0  0  0  0  0  0  0  0
   -1.2644    1.1347   -0.0499 C   0  0  0  0  0  0  0  0  0  0  0  0
    0.1101    1.2180   -0.0350 C   0  0  0  0  0  0  0  0  0  0  0  0
    2.9188   -0.7647    0.0599 H   0  0  0  0  0  0  0  0  0  0  0  0
    2.8158    1.0859    0.0034 H   0  0  0  0  0  0  0  0  0  0  0  0
    0.8353   -2.1058    0.0735 H   0  0  0  0  0  0  0  0  0  0  0  0
   -1.6191   -2.2351    0.0461 H   0  0  0  0  0  0  0  0  0  0  0  0
   -2.9772   -0.1668   -0.0328 H   0  0  0  0  0  0  0  0  0  0  0  0
   -1.8572    2.0404   -0.0845 H   0  0  0  0  0  0  0  0  0  0  0  0
    0.5964    2.1860   -0.0577 H   0  0  0  0  0  0  0  0  0  0  0  0
  1  2  2  3
  1  8  1  0
  1  9  1  0
  2  3  1  0
  2  7  1  0
  3  4  1  0
  3 10  1  0
  4  5  2  0
  4 11  1  0
  5  6  1  0
  5 12  1  0
  6  7  2  0
  6 13  1  0
  7 14  1  0
M  RAD  1   3   2
M  END
>  <reaction>  (2) 
rxn_1403

>  <mol_properties>  (2) 
{"0": {"label": "acceptor", "atom_type": "Cs"}}

>  <type>  (2) 
r2

$$$$

     RDKit          3D

 15 15  0  0  0  0  0  0  0  0999 V2000
    2.2031   -0.2111   -0.1693 C   0  0  0  0  0  0  0  0  0  0  0  0
    0.7140   -0.0314   -0.0623 C   0  0  0  0  0  0  0  0  0  0  0  0
   -0.0114    0.5491   -1.0982 C   0  0  0  0  0  0  0  0  0  0  0  0
   -1.3882    0.6886   -1.0150 C   0  0  0  0  0  0  0  0  0  0  0  0
   -2.0661    0.2493    0.1118 C   0  0  0  0  0  0  0  0  0  0  0  0
   -1.3551   -0.3278    1.1528 C   0  0  0  0  0  0  0  0  0  0  0  0
    0.0216   -0.4648    1.0642 C   0  0  0  0  0  0  0  0  0  0  0  0
    2.6776   -0.1836    0.8122 H   0  0  0  0  0  0  0  0  0  0  0  0
    2.4446   -1.1749   -0.6249 H   0  0  0  0  0  0  0  0  0  0  0  0
    2.6532    0.5664   -0.7875 H   0  0  0  0  0  0  0  0  0  0  0  0
    0.5104    0.8989   -1.9819 H   0  0  0  0  0  0  0  0  0  0  0  0
   -1.9328    1.1452   -1.8322 H   0  0  0  0  0  0  0  0  0  0  0  0
   -3.1409    0.3597    0.1800 H   0  0  0  0  0  0  0  0  0  0  0  0
   -1.8736   -0.6702    2.0398 H   0  0  0  0  0  0  0  0  0  0  0  0
    0.5695   -0.9141    1.8849 H   0  0  0  0  0  0  0  0  0  0  0  0
  1  2  1  0
  1  8  1  0
  1  9  1  0
  1 10  1  0
  2  3  2  0
  2  7  1  0
  3  4  1  0
  3 11  1  0
  4  5  2  0
  4 12  1  0
  5  6  1  0
  5 13  1  0
  6  7  2  0
  6 14  1  0
  7 15  1  0
M  END
>  <reaction>  (3) 
rxn_1403

>  <mol_properties>  (3) 
{"0": {"label": "a_hydrogen", "atom_type": "H0"}, "1": {"label": "acceptor", "atom_type": "Cs"}}

>  <type>  (3) 
r2h

$$$$

     RDKit          3D

 26 25  0  0  0  0  0  0  0  0999 V2000
   -0.9958    3.3455   -0.9846 C   0  0  0  0  0  0  0  0  0  0  0  0
   -1.0773    2.1764   -1.2420 C   0  0  0  0  0  0  0  0  0  0  0  0
   -1.1135    0.7595   -1.4934 C   0  0  0  0  0  0  0  0  0  0  0  0
   -1.9196   -0.0486   -0.4850 C   0  0  0  0  0  0  0  0  0  0  0  0
   -1.3097    0.3912   -2.8710 C   0  0  0  0  0  0  0  0  0  0  0  0
   -1.4354    0.0348   -4.0097 C   0  0  0  0  0  0  0  0  0  0  0  0
   -0.9453    4.3861   -0.7718 H   0  0  0  0  0  0  0  0  0  0  0  0
    0.1140    0.3853   -1.2345 H   0  0  0  0  0  0  0  0  0  0  0  0
   -2.9828    0.1824   -0.5695 H   0  0  0  0  0  0  0  0  0  0  0  0
   -1.5887    0.1837    0.5273 H   0  0  0  0  0  0  0  0  0  0  0  0
   -1.7787   -1.1143   -0.6647 H   0  0  0  0  0  0  0  0  0  0  0  0
   -1.5599   -0.2657   -5.0220 H   0  0  0  0  0  0  0  0  0  0  0  0
    1.3998    0.0243   -0.8335 C   0  0  0  0  0  0  0  0  0  0  0  0
    1.2879   -0.2500    0.5865 C   0  0  0  0  0  0  0  0  0  0  0  0
    1.0737   -1.5520    1.0571 C   0  0  0  0  0  3  0  0  0  0  0  0
    0.8897   -1.7988    2.4049 C   0  0  0  0  0  0  0  0  0  0  0  0
    0.9090   -0.7512    3.3167 C   0  0  0  0  0  0  0  0  0  0  0  0
    1.1191    0.5460    2.8670 C   0  0  0  0  0  0  0  0  0  0  0  0
    1.3060    0.7951    1.5198 C   0  0  0  0  0  0  0  0  0  0  0  0
    1.5955   -0.8194   -1.4886 H   0  0  0  0  0  0  0  0  0  0  0  0
    1.9067    0.9410   -1.1208 H   0  0  0  0  0  0  0  0  0  0  0  0
    1.0526   -2.3726    0.3493 H   0  0  0  0  0  0  0  0  0  0  0  0
    0.7295   -2.8129    2.7491 H   0  0  0  0  0  0  0  0  0  0  0  0
    0.7633   -0.9449    4.3717 H   0  0  0  0  0  0  0  0  0  0  0  0
    1.1360    1.3671    3.5726 H   0  0  0  0  0  0  0  0  0  0  0  0
    1.4584    1.8097    1.1711 H   0  0  0  0  0  0  0  0  0  0  0  0
  1  2  3  0
  1  7  1  0
  2  3  1  0
  3  4  1  0
  3  5  1  0
  3  8  1  0
  4  9  1  0
  4 10  1  0
  4 11  1  0
  5  6  3  0
  6 12  1  0
 13 14  2  3
 13 20  1  0
 13 21  1  0
 14 15  1  0
 14 19  1  0
 15 16  1  0
 15 22  1  0
 16 17  2  0
 16 23  1  0
 17 18  1  0
 17 24  1  0
 18 19  2  0
 18 25  1  0
 19 26  1  0
M  RAD  1  15   2
M  END
>  <reaction>  (4) 
rxn_1403

>  <mol_properties>  (4) 
{"1": {"label": "*0", "atom_type": "Ct"}, "2": {"label": "*1", "atom_type": "Cs"}, "7": {"label": "*2", "atom_type": "H0"}, "12": {"label": "*3", "atom_type": "Cd"}, "13": {"label": "*4", "atom_type": "Cd"}}

>  <type>  (4) 
ts

$$$$

     RDKit          3D

 26 25  0  0  0  0  0  0  0  0999 V2000
   -1.4791   -0.9557   -3.6547 C   0  0  0  0  0  0  0  0  0  0  0  0
   -1.4791   -0.9557   -2.4585 C   0  0  0  0  0  0  0  0  0  0  0  0
   -1.4791   -0.9156   -0.9920 C   0  0  0  0  0  3  0  0  0  0  0  0
   -2.1171    0.3836   -0.4700 C   0  0  0  0  0  0  0  0  0  0  0  0
   -2.1409   -2.0969   -0.4272 C   0  0  0  0  0  0  0  0  0  0  0  0
   -2.6892   -3.0422    0.0593 C   0  0  0  0  0  0  0  0  0  0  0  0
   -1.4791   -0.9557   -4.7182 H   0  0  0  0  0  0  0  0  0  0  0  0
   -0.2255   -0.9429   -0.5989 H   0  0  0  0  0  0  0  0  0  0  0  0
   -3.1604    0.4408   -0.7778 H   0  0  0  0  0  0  0  0  0  0  0  0
   -1.5845    1.2450   -0.8716 H   0  0  0  0  0  0  0  0  0  0  0  0
   -2.0699    0.4080    0.6182 H   0  0  0  0  0  0  0  0  0  0  0  0
   -3.1766   -3.8826    0.4918 H   0  0  0  0  0  0  0  0  0  0  0  0
    1.0229   -0.9700   -0.2073 C   0  0  0  0  0  0  0  0  0  0  0  0
    1.3725    0.2553    0.5912 C   0  0  0  0  0  0  0  0  0  0  0  0
    1.6370    0.1676    1.9545 C   0  0  0  0  0  0  0  0  0  0  0  0
    1.9890    1.2906    2.6873 C   0  0  0  0  0  0  0  0  0  0  0  0
    2.0816    2.5268    2.0663 C   0  0  0  0  0  0  0  0  0  0  0  0
    1.8173    2.6288    0.7091 C   0  0  0  0  0  0  0  0  0  0  0  0
    1.4657    1.5025   -0.0187 C   0  0  0  0  0  0  0  0  0  0  0  0
    0.5078   -1.7098    0.4063 H   0  0  0  0  0  0  0  0  0  0  0  0
    1.9245   -1.4426   -0.6053 H   0  0  0  0  0  0  0  0  0  0  0  0
    1.5637   -0.7942    2.4497 H   0  0  0  0  0  0  0  0  0  0  0  0
    2.1886    1.1999    3.7479 H   0  0  0  0  0  0  0  0  0  0  0  0
    2.3538    3.4054    2.6371 H   0  0  0  0  0  0  0  0  0  0  0  0
    1.8819    3.5902    0.2146 H   0  0  0  0  0  0  0  0  0  0  0  0
    1.2574    1.5929   -1.0789 H   0  0  0  0  0  0  0  0  0  0  0  0
  1  2  3  0
  1  7  1  0
  2  3  1  0
  3  4  1  0
  3  5  1  0
  4  9  1  0
  4 10  1  0
  4 11  1  0
  5  6  3  0
  6 12  1  0
  8 13  1  0
 13 14  1  0
 13 20  1  0
 13 21  1  0
 14 15  2  0
 14 19  1  0
 15 16  1  0
 15 22  1  0
 16 17  2  0
 16 23  1  0
 17 18  1  0
 17 24  1  0
 18 19  2  0
 18 25  1  0
 19 26  1  0
M  RAD  1   3   2
M  END
>  <reaction>  (5) 
rxn_1403

>  <mol_properties>  (5) 
{"1": {"label": "*0", "atom_type": "Ct"}, "2": {"label": "*1", "atom_type": "Cs"}, "7": {"label": "*2", "atom_type": "H0"}, "12": {"label": "*3", "atom_type": "Cd"}, "13": {"label": "*4", "atom_type": "Cd"}}

>  <type>  (5) 
unop_1

>  <geom_source>  (5) 
Heuristics

$$$$

     RDKit          3D

 26 25  0  0  0  0  0  0  0  0999 V2000
   -1.9691   -0.4374   -2.0515 C   0  0  0  0  0  0  0  0  0  0  0  0
   -1.9691   -0.4374   -0.8553 C   0  0  0  0  0  0  0  0  0  0  0  0
   -1.9691   -0.3973    0.6112 C   0  0  0  0  0  3  0  0  0  0  0  0
   -2.6071    0.9019    1.1332 C   0  0  0  0  0  0  0  0  0  0  0  0
   -2.6309   -1.5785    1.1760 C   0  0  0  0  0  0  0  0  0  0  0  0
   -3.1792   -2.5238    1.6625 C   0  0  0  0  0  0  0  0  0  0  0  0
   -1.9691   -0.4374   -3.1149 H   0  0  0  0  0  0  0  0  0  0  0  0
   -0.7155   -0.4246    1.0044 H   0  0  0  0  0  0  0  0  0  0  0  0
   -3.6504    0.9592    0.8255 H   0  0  0  0  0  0  0  0  0  0  0  0
   -2.0745    1.7633    0.7316 H   0  0  0  0  0  0  0  0  0  0  0  0
   -2.5599    0.9263    2.2214 H   0  0  0  0  0  0  0  0  0  0  0  0
   -3.6666   -3.3642    2.0950 H   0  0  0  0  0  0  0  0  0  0  0  0
    0.5329   -0.4517    1.3959 C   0  0  0  0  0  0  0  0  0  0  0  0
    1.4379    0.1942    0.3834 C   0  0  0  0  0  0  0  0  0  0  0  0
    2.4030    1.1171    0.7744 C   0  0  0  0  0  0  0  0  0  0  0  0
    3.2588    1.6916   -0.1528 C   0  0  0  0  0  0  0  0  0  0  0  0
    3.1624    1.3522   -1.4936 C   0  0  0  0  0  0  0  0  0  0  0  0
    2.2029    0.4364   -1.8973 C   0  0  0  0  0  0  0  0  0  0  0  0
    1.3498   -0.1348   -0.9658 C   0  0  0  0  0  0  0  0  0  0  0  0
    0.3499    0.2097    2.2434 H   0  0  0  0  0  0  0  0  0  0  0  0
    0.9808   -1.3696    1.7851 H   0  0  0  0  0  0  0  0  0  0  0  0
    2.4837    1.3915    1.8202 H   0  0  0  0  0  0  0  0  0  0  0  0
    4.0014    2.4093    0.1732 H   0  0  0  0  0  0  0  0  0  0  0  0
    3.8279    1.8015   -2.2197 H   0  0  0  0  0  0  0  0  0  0  0  0
    2.1154    0.1675   -2.9427 H   0  0  0  0  0  0  0  0  0  0  0  0
    0.6002   -0.8473   -1.2915 H   0  0  0  0  0  0  0  0  0  0  0  0
  1  2  3  0
  1  7  1  0
  2  3  1  0
  3  4  1  0
  3  5  1  0
  4  9  1  0
  4 10  1  0
  4 11  1  0
  5  6  3  0
  6 12  1  0
  8 13  1  0
 13 14  1  0
 13 20  1  0
 13 21  1  0
 14 15  2  0
 14 19  1  0
 15 16  1  0
 15 22  1  0
 16 17  2  0
 16 23  1  0
 17 18  1  0
 17 24  1  0
 18 19  2  0
 18 25  1  0
 19 26  1  0
M  RAD  1   3   2
M  END
>  <reaction>  (6) 
rxn_1403

>  <mol_properties>  (6) 
{"1": {"label": "*0", "atom_type": "Ct"}, "2": {"label": "*1", "atom_type": "Cs"}, "7": {"label": "*2", "atom_type": "H0"}, "12": {"label": "*3", "atom_type": "Cd"}, "13": {"label": "*4", "atom_type": "Cd"}}

>  <type>  (6) 
unop_2

>  <geom_source>  (6) 
Heuristics

$$$$

     RDKit          3D

 26 25  0  0  0  0  0  0  0  0999 V2000
   -1.3303   -0.5223   -4.0977 C   0  0  0  0  0  0  0  0  0  0  0  0
   -1.3303   -0.5223   -2.9015 C   0  0  0  0  0  0  0  0  0  0  0  0
   -1.3303   -0.4822   -1.4350 C   0  0  0  0  0  3  0  0  0  0  0  0
   -1.9683    0.8170   -0.9130 C   0  0  0  0  0  0  0  0  0  0  0  0
   -1.9921   -1.6635   -0.8702 C   0  0  0  0  0  0  0  0  0  0  0  0
   -2.5404   -2.6087   -0.3837 C   0  0  0  0  0  0  0  0  0  0  0  0
   -1.3303   -0.5223   -5.1612 H   0  0  0  0  0  0  0  0  0  0  0  0
   -0.0767   -0.5095   -1.0419 H   0  0  0  0  0  0  0  0  0  0  0  0
   -3.0116    0.8743   -1.2207 H   0  0  0  0  0  0  0  0  0  0  0  0
   -1.4357    1.6784   -1.3146 H   0  0  0  0  0  0  0  0  0  0  0  0
   -1.9211    0.8414    0.1752 H   0  0  0  0  0  0  0  0  0  0  0  0
   -3.0278   -3.4492    0.0488 H   0  0  0  0  0  0  0  0  0  0  0  0
    1.1717   -0.5366   -0.6503 C   0  0  0  0  0  0  0  0  0  0  0  0
    1.3529    0.1944    0.6512 C   0  0  0  0  0  0  0  0  0  0  0  0
    1.8817   -0.4507    1.7649 C   0  0  0  0  0  0  0  0  0  0  0  0
    2.0780    0.2285    2.9574 C   0  0  0  0  0  0  0  0  0  0  0  0
    1.7456    1.5708    3.0574 C   0  0  0  0  0  0  0  0  0  0  0  0
    1.2145    2.2250    1.9563 C   0  0  0  0  0  0  0  0  0  0  0  0
    1.0204    1.5407    0.7663 C   0  0  0  0  0  0  0  0  0  0  0  0
    0.9788   -1.5973   -0.4861 H   0  0  0  0  0  0  0  0  0  0  0  0
    2.0706   -0.4570   -1.2670 H   0  0  0  0  0  0  0  0  0  0  0  0
    2.1414   -1.5013    1.6974 H   0  0  0  0  0  0  0  0  0  0  0  0
    2.4891   -0.2938    3.8125 H   0  0  0  0  0  0  0  0  0  0  0  0
    1.8955    2.1025    3.9884 H   0  0  0  0  0  0  0  0  0  0  0  0
    0.9468    3.2722    2.0243 H   0  0  0  0  0  0  0  0  0  0  0  0
    0.6012    2.0599   -0.0883 H   0  0  0  0  0  0  0  0  0  0  0  0
  1  2  3  0
  1  7  1  0
  2  3  1  0
  3  4  1  0
  3  5  1  0
  4  9  1  0
  4 10  1  0
  4 11  1  0
  5  6  3  0
  6 12  1  0
  8 13  1  0
 13 14  1  0
 13 20  1  0
 13 21  1  0
 14 15  2  0
 14 19  1  0
 15 16  1  0
 15 22  1  0
 16 17  2  0
 16 23  1  0
 17 18  1  0
 17 24  1  0
 18 19  2  0
 18 25  1  0
 19 26  1  0
M  RAD  1   3   2
M  END
>  <reaction>  (7) 
rxn_1403

>  <mol_properties>  (7) 
{"1": {"label": "*0", "atom_type": "Ct"}, "2": {"label": "*1", "atom_type": "Cs"}, "7": {"label": "*2", "atom_type": "H0"}, "12": {"label": "*3", "atom_type": "Cd"}, "13": {"label": "*4", "atom_type": "Cd"}}

>  <type>  (7) 
unop_3

>  <geom_source>  (7) 
Heuristics

$$$$

     RDKit          3D

 26 25  0  0  0  0  0  0  0  0999 V2000
   -1.7679    1.2411   -2.5422 C   0  0  0  0  0  0  0  0  0  0  0  0
   -1.7679    1.2411   -1.3460 C   0  0  0  0  0  0  0  0  0  0  0  0
   -1.7679    1.2811    0.1205 C   0  0  0  0  0  3  0  0  0  0  0  0
   -2.4059    2.5804    0.6425 C   0  0  0  0  0  0  0  0  0  0  0  0
   -2.4297    0.0999    0.6853 C   0  0  0  0  0  0  0  0  0  0  0  0
   -2.9780   -0.8454    1.1718 C   0  0  0  0  0  0  0  0  0  0  0  0
   -1.7679    1.2411   -3.6056 H   0  0  0  0  0  0  0  0  0  0  0  0
   -0.5143    1.2539    0.5137 H   0  0  0  0  0  0  0  0  0  0  0  0
   -3.4492    2.6376    0.3348 H   0  0  0  0  0  0  0  0  0  0  0  0
   -1.8733    3.4418    0.2409 H   0  0  0  0  0  0  0  0  0  0  0  0
   -2.3587    2.6048    1.7308 H   0  0  0  0  0  0  0  0  0  0  0  0
   -3.4654   -1.6858    1.6043 H   0  0  0  0  0  0  0  0  0  0  0  0
    0.7341    1.2268    0.9052 C   0  0  0  0  0  0  0  0  0  0  0  0
    1.4282   -0.0212    0.4340 C   0  0  0  0  0  0  0  0  0  0  0  0
    2.7486   -0.2809    0.7880 C   0  0  0  0  0  0  0  0  0  0  0  0
    3.3816   -1.4449    0.3802 C   0  0  0  0  0  0  0  0  0  0  0  0
    2.7019   -2.3730   -0.3938 C   0  0  0  0  0  0  0  0  0  0  0  0
    1.3869   -2.1251   -0.7566 C   0  0  0  0  0  0  0  0  0  0  0  0
    0.7589   -0.9593   -0.3460 C   0  0  0  0  0  0  0  0  0  0  0  0
    1.4398    2.0477    1.0367 H   0  0  0  0  0  0  0  0  0  0  0  0
    0.2437    1.0568    1.8671 H   0  0  0  0  0  0  0  0  0  0  0  0
    3.2894    0.4406    1.3901 H   0  0  0  0  0  0  0  0  0  0  0  0
    4.4105   -1.6259    0.6656 H   0  0  0  0  0  0  0  0  0  0  0  0
    3.1950   -3.2814   -0.7156 H   0  0  0  0  0  0  0  0  0  0  0  0
    0.8478   -2.8407   -1.3650 H   0  0  0  0  0  0  0  0  0  0  0  0
   -0.2685   -0.7726   -0.6377 H   0  0  0  0  0  0  0  0  0  0  0  0
  1  2  3  0
  1  7  1  0
  2  3  1  0
  3  4  1  0
  3  5  1  0
  4  9  1  0
  4 10  1  0
  4 11  1  0
  5  6  3  0
  6 12  1  0
  8 13  1  0
 13 14  1  0
 13 20  1  0
 13 21  1  0
 14 15  2  0
 14 19  1  0
 15 16  1  0
 15 22  1  0
 16 17  2  0
 16 23  1  0
 17 18  1  0
 17 24  1  0
 18 19  2  0
 18 25  1  0
 19 26  1  0
M  RAD  1   3   2
M  END
>  <reaction>  (8) 
rxn_1403

>  <mol_properties>  (8) 
{"1": {"label": "*0", "atom_type": "Ct"}, "2": {"label": "*1", "atom_type": "Cs"}, "7": {"label": "*2", "atom_type": "H0"}, "12": {"label": "*3", "atom_type": "Cd"}, "13": {"label": "*4", "atom_type": "Cd"}}

>  <type>  (8) 
unop_4

>  <geom_source>  (8) 
Heuristics

$$$$

     RDKit          3D

 26 25  0  0  0  0  0  0  0  0999 V2000
   -1.2576    0.0818   -4.2747 C   0  0  0  0  0  0  0  0  0  0  0  0
   -1.2576    0.0818   -3.0786 C   0  0  0  0  0  0  0  0  0  0  0  0
   -1.2576    0.1218   -1.6120 C   0  0  0  0  0  3  0  0  0  0  0  0
   -1.8957    1.4210   -1.0900 C   0  0  0  0  0  0  0  0  0  0  0  0
   -1.9195   -1.0594   -1.0473 C   0  0  0  0  0  0  0  0  0  0  0  0
   -2.4677   -2.0047   -0.5608 C   0  0  0  0  0  0  0  0  0  0  0  0
   -1.2576    0.0818   -5.3382 H   0  0  0  0  0  0  0  0  0  0  0  0
   -0.0040    0.0946   -1.2189 H   0  0  0  0  0  0  0  0  0  0  0  0
   -2.9389    1.4783   -1.3978 H   0  0  0  0  0  0  0  0  0  0  0  0
   -1.3630    2.2825   -1.4917 H   0  0  0  0  0  0  0  0  0  0  0  0
   -1.8485    1.4455   -0.0018 H   0  0  0  0  0  0  0  0  0  0  0  0
   -2.9551   -2.8451   -0.1283 H   0  0  0  0  0  0  0  0  0  0  0  0
    1.2444    0.0674   -0.8274 C   0  0  0  0  0  0  0  0  0  0  0  0
    1.3483    0.1053    0.6723 C   0  0  0  0  0  0  0  0  0  0  0  0
    2.4224   -0.4878    1.3288 C   0  0  0  0  0  0  0  0  0  0  0  0
    2.5366   -0.4285    2.7091 C   0  0  0  0  0  0  0  0  0  0  0  0
    1.5729    0.2269    3.4603 C   0  0  0  0  0  0  0  0  0  0  0  0
    0.4957    0.8192    2.8191 C   0  0  0  0  0  0  0  0  0  0  0  0
    0.3867    0.7567    1.4385 C   0  0  0  0  0  0  0  0  0  0  0  0
    1.7100   -0.8305   -1.2348 H   0  0  0  0  0  0  0  0  0  0  0  0
    1.7476    0.9299   -1.2718 H   0  0  0  0  0  0  0  0  0  0  0  0
    3.1791   -1.0056    0.7501 H   0  0  0  0  0  0  0  0  0  0  0  0
    3.3798   -0.8988    3.1997 H   0  0  0  0  0  0  0  0  0  0  0  0
    1.6587    0.2721    4.5385 H   0  0  0  0  0  0  0  0  0  0  0  0
   -0.2654    1.3296    3.3962 H   0  0  0  0  0  0  0  0  0  0  0  0
   -0.4612    1.2198    0.9463 H   0  0  0  0  0  0  0  0  0  0  0  0
  1  2  3  0
  1  7  1  0
  2  3  1  0
  3  4  1  0
  3  5  1  0
  4  9  1  0
  4 10  1  0
  4 11  1  0
  5  6  3  0
  6 12  1  0
  8 13  1  0
 13 14  1  0
 13 20  1  0
 13 21  1  0
 14 15  2  0
 14 19  1  0
 15 16  1  0
 15 22  1  0
 16 17  2  0
 16 23  1  0
 17 18  1  0
 17 24  1  0
 18 19  2  0
 18 25  1  0
 19 26  1  0
M  RAD  1   3   2
M  END
>  <reaction>  (9) 
rxn_1403

>  <mol_properties>  (9) 
{"1": {"label": "*0", "atom_type": "Ct"}, "2": {"label": "*1", "atom_type": "Cs"}, "7": {"label": "*2", "atom_type": "H0"}, "12": {"label": "*3", "atom_type": "Cd"}, "13": {"label": "*4", "atom_type": "Cd"}}

>  <type>  (9) 
unop_5

>  <geom_source>  (9) 
Heuristics

$$$$

     RDKit          3D

 26 25  0  0  0  0  0  0  0  0999 V2000
   -1.5750    1.3779   -3.1407 C   0  0  0  0  0  0  0  0  0  0  0  0
   -1.5750    1.3779   -1.9446 C   0  0  0  0  0  0  0  0  0  0  0  0
   -1.5750    1.4179   -0.4780 C   0  0  0  0  0  3  0  0  0  0  0  0
   -2.2130    2.7172    0.0440 C   0  0  0  0  0  0  0  0  0  0  0  0
   -2.2369    0.2367    0.0868 C   0  0  0  0  0  0  0  0  0  0  0  0
   -2.7851   -0.7086    0.5732 C   0  0  0  0  0  0  0  0  0  0  0  0
   -1.5750    1.3779   -4.2042 H   0  0  0  0  0  0  0  0  0  0  0  0
   -0.3214    1.3907   -0.0849 H   0  0  0  0  0  0  0  0  0  0  0  0
   -3.2563    2.7744   -0.2638 H   0  0  0  0  0  0  0  0  0  0  0  0
   -1.6804    3.5786   -0.3577 H   0  0  0  0  0  0  0  0  0  0  0  0
   -2.1659    2.7416    1.1322 H   0  0  0  0  0  0  0  0  0  0  0  0
   -3.2725   -1.5490    1.0058 H   0  0  0  0  0  0  0  0  0  0  0  0
    0.9270    1.3636    0.3066 C   0  0  0  0  0  0  0  0  0  0  0  0
    1.4064   -0.0473    0.5085 C   0  0  0  0  0  0  0  0  0  0  0  0
    2.6264   -0.3054    1.1262 C   0  0  0  0  0  0  0  0  0  0  0  0
    3.0572   -1.6055    1.3408 C   0  0  0  0  0  0  0  0  0  0  0  0
    2.2721   -2.6750    0.9380 C   0  0  0  0  0  0  0  0  0  0  0  0
    1.0559   -2.4319    0.3183 C   0  0  0  0  0  0  0  0  0  0  0  0
    0.6301   -1.1298    0.1062 C   0  0  0  0  0  0  0  0  0  0  0  0
    1.7630    2.0527    0.1824 H   0  0  0  0  0  0  0  0  0  0  0  0
    0.3467    1.7020    1.1688 H   0  0  0  0  0  0  0  0  0  0  0  0
    3.2489    0.5245    1.4414 H   0  0  0  0  0  0  0  0  0  0  0  0
    4.0111   -1.7835    1.8216 H   0  0  0  0  0  0  0  0  0  0  0  0
    2.6078   -3.6910    1.1023 H   0  0  0  0  0  0  0  0  0  0  0  0
    0.4366   -3.2596   -0.0048 H   0  0  0  0  0  0  0  0  0  0  0  0
   -0.3209   -0.9497   -0.3825 H   0  0  0  0  0  0  0  0  0  0  0  0
  1  2  3  0
  1  7  1  0
  2  3  1  0
  3  4  1  0
  3  5  1  0
  4  9  1  0
  4 10  1  0
  4 11  1  0
  5  6  3  0
  6 12  1  0
  8 13  1  0
 13 14  1  0
 13 20  1  0
 13 21  1  0
 14 15  2  0
 14 19  1  0
 15 16  1  0
 15 22  1  0
 16 17  2  0
 16 23  1  0
 17 18  1  0
 17 24  1  0
 18 19  2  0
 18 25  1  0
 19 26  1  0
M  RAD  1   3   2
M  END
>  <reaction>  (10) 
rxn_1403

>  <mol_properties>  (10) 
{"1": {"label": "*0", "atom_type": "Ct"}, "2": {"label": "*1", "atom_type": "Cs"}, "7": {"label": "*2", "atom_type": "H0"}, "12": {"label": "*3", "atom_type": "Cd"}, "13": {"label": "*4", "atom_type": "Cd"}}

>  <type>  (10) 
unop_6

>  <geom_source>  (10) 
Heuristics

$$$$

     RDKit          3D

 26 25  0  0  0  0  0  0  0  0999 V2000
   -1.3955    1.1813   -3.7264 C   0  0  0  0  0  0  0  0  0  0  0  0
   -1.3955    1.1813   -2.5303 C   0  0  0  0  0  0  0  0  0  0  0  0
   -1.3955    1.2213   -1.0637 C   0  0  0  0  0  3  0  0  0  0  0  0
   -2.0335    2.5205   -0.5417 C   0  0  0  0  0  0  0  0  0  0  0  0
   -2.0573    0.0401   -0.4989 C   0  0  0  0  0  0  0  0  0  0  0  0
   -2.6055   -0.9052   -0.0124 C   0  0  0  0  0  0  0  0  0  0  0  0
   -1.3955    1.1813   -4.7899 H   0  0  0  0  0  0  0  0  0  0  0  0
   -0.1419    1.1941   -0.6706 H   0  0  0  0  0  0  0  0  0  0  0  0
   -3.0767    2.5778   -0.8495 H   0  0  0  0  0  0  0  0  0  0  0  0
   -1.5009    3.3820   -0.9434 H   0  0  0  0  0  0  0  0  0  0  0  0
   -1.9863    2.5450    0.5465 H   0  0  0  0  0  0  0  0  0  0  0  0
   -3.0930   -1.7456    0.4201 H   0  0  0  0  0  0  0  0  0  0  0  0
    1.1065    1.1669   -0.2791 C   0  0  0  0  0  0  0  0  0  0  0  0
    1.3827   -0.0318    0.5857 C   0  0  0  0  0  0  0  0  0  0  0  0
    2.5757   -0.1421    1.2935 C   0  0  0  0  0  0  0  0  0  0  0  0
    2.8205   -1.2316    2.1151 C   0  0  0  0  0  0  0  0  0  0  0  0
    1.8723   -2.2351    2.2423 C   0  0  0  0  0  0  0  0  0  0  0  0
    0.6806   -2.1394    1.5400 C   0  0  0  0  0  0  0  0  0  0  0  0
    0.4412   -1.0477    0.7199 C   0  0  0  0  0  0  0  0  0  0  0  0
    2.0284    1.5826   -0.6871 H   0  0  0  0  0  0  0  0  0  0  0  0
    0.6169    1.9555    0.2980 H   0  0  0  0  0  0  0  0  0  0  0  0
    3.3248    0.6359    1.1975 H   0  0  0  0  0  0  0  0  0  0  0  0
    3.7568   -1.2982    2.6552 H   0  0  0  0  0  0  0  0  0  0  0  0
    2.0624   -3.0880    2.8813 H   0  0  0  0  0  0  0  0  0  0  0  0
   -0.0652   -2.9197    1.6281 H   0  0  0  0  0  0  0  0  0  0  0  0
   -0.4921   -0.9834    0.1718 H   0  0  0  0  0  0  0  0  0  0  0  0
  1  2  3  0
  1  7  1  0
  2  3  1  0
  3  4  1  0
  3  5  1  0
  4  9  1  0
  4 10  1  0
  4 11  1  0
  5  6  3  0
  6 12  1  0
  8 13  1  0
 13 14  1  0
 13 20  1  0
 13 21  1  0
 14 15  2  0
 14 19  1  0
 15 16  1  0
 15 22  1  0
 16 17  2  0
 16 23  1  0
 17 18  1  0
 17 24  1  0
 18 19  2  0
 18 25  1  0
 19 26  1  0
M  RAD  1   3   2
M  END
>  <reaction>  (11) 
rxn_1403

>  <mol_properties>  (11) 
{"1": {"label": "*0", "atom_type": "Ct"}, "2": {"label": "*1", "atom_type": "Cs"}, "7": {"label": "*2", "atom_type": "H0"}, "12": {"label": "*3", "atom_type": "Cd"}, "13": {"label": "*4", "atom_type": "Cd"}}

>  <type>  (11) 
unop_7

>  <geom_source>  (11) 
Heuristics

$$$$

     RDKit          3D

 26 25  0  0  0  0  0  0  0  0999 V2000
   -1.6688   -1.0992   -3.0599 C   0  0  0  0  0  0  0  0  0  0  0  0
   -1.6688   -1.0992   -1.8637 C   0  0  0  0  0  0  0  0  0  0  0  0
   -1.6688   -1.0591   -0.3971 C   0  0  0  0  0  3  0  0  0  0  0  0
   -2.3068    0.2401    0.1249 C   0  0  0  0  0  0  0  0  0  0  0  0
   -2.3306   -2.2403    0.1676 C   0  0  0  0  0  0  0  0  0  0  0  0
   -2.8788   -3.1856    0.6541 C   0  0  0  0  0  0  0  0  0  0  0  0
   -1.6688   -1.0992   -4.1233 H   0  0  0  0  0  0  0  0  0  0  0  0
   -0.4152   -1.0864   -0.0040 H   0  0  0  0  0  0  0  0  0  0  0  0
   -3.3500    0.2974   -0.1829 H   0  0  0  0  0  0  0  0  0  0  0  0
   -1.7742    1.1015   -0.2768 H   0  0  0  0  0  0  0  0  0  0  0  0
   -2.2596    0.2645    1.2131 H   0  0  0  0  0  0  0  0  0  0  0  0
   -3.3663   -4.0260    1.0866 H   0  0  0  0  0  0  0  0  0  0  0  0
    0.8332   -1.1135    0.3875 C   0  0  0  0  0  0  0  0  0  0  0  0
    1.3975    0.2747    0.5129 C   0  0  0  0  0  0  0  0  0  0  0  0
    1.7218    0.8038    1.7584 C   0  0  0  0  0  0  0  0  0  0  0  0
    2.2702    2.0717    1.8747 C   0  0  0  0  0  0  0  0  0  0  0  0
    2.5034    2.8365    0.7420 C   0  0  0  0  0  0  0  0  0  0  0  0
    2.1818    2.3227   -0.5050 C   0  0  0  0  0  0  0  0  0  0  0  0
    1.6335    1.0542   -0.6153 C   0  0  0  0  0  0  0  0  0  0  0  0
    0.2527   -1.3869    1.2692 H   0  0  0  0  0  0  0  0  0  0  0  0
    1.6349   -1.8486    0.2801 H   0  0  0  0  0  0  0  0  0  0  0  0
    1.5397    0.2147    2.6502 H   0  0  0  0  0  0  0  0  0  0  0  0
    2.5132    2.4648    2.8542 H   0  0  0  0  0  0  0  0  0  0  0  0
    2.9292    3.8279    0.8307 H   0  0  0  0  0  0  0  0  0  0  0  0
    2.3552    2.9131   -1.3962 H   0  0  0  0  0  0  0  0  0  0  0  0
    1.3819    0.6624   -1.5945 H   0  0  0  0  0  0  0  0  0  0  0  0
  1  2  3  0
  1  7  1  0
  2  3  1  0
  3  4  1  0
  3  5  1  0
  4  9  1  0
  4 10  1  0
  4 11  1  0
  5  6  3  0
  6 12  1  0
  8 13  1  0
 13 14  1  0
 13 20  1  0
 13 21  1  0
 14 15  2  0
 14 19  1  0
 15 16  1  0
 15 22  1  0
 16 17  2  0
 16 23  1  0
 17 18  1  0
 17 24  1  0
 18 19  2  0
 18 25  1  0
 19 26  1  0
M  RAD  1   3   2
M  END
>  <reaction>  (12) 
rxn_1403

>  <mol_properties>  (12) 
{"1": {"label": "*0", "atom_type": "Ct"}, "2": {"label": "*1", "atom_type": "Cs"}, "7": {"label": "*2", "atom_type": "H0"}, "12": {"label": "*3", "atom_type": "Cd"}, "13": {"label": "*4", "atom_type": "Cd"}}

>  <type>  (12) 
unop_8

>  <geom_source>  (12) 
Heuristics

$$$$

     RDKit          3D

 26 25  0  0  0  0  0  0  0  0999 V2000
   -1.9222    0.8072   -2.0919 C   0  0  0  0  0  0  0  0  0  0  0  0
   -1.9222    0.8072   -0.8958 C   0  0  0  0  0  0  0  0  0  0  0  0
   -1.9222    0.8472    0.5708 C   0  0  0  0  0  3  0  0  0  0  0  0
   -2.5603    2.1465    1.0928 C   0  0  0  0  0  0  0  0  0  0  0  0
   -2.5841   -0.3340    1.1356 C   0  0  0  0  0  0  0  0  0  0  0  0
   -3.1323   -1.2793    1.6220 C   0  0  0  0  0  0  0  0  0  0  0  0
   -1.9222    0.8072   -3.1554 H   0  0  0  0  0  0  0  0  0  0  0  0
   -0.6687    0.8200    0.9639 H   0  0  0  0  0  0  0  0  0  0  0  0
   -3.6035    2.2037    0.7850 H   0  0  0  0  0  0  0  0  0  0  0  0
   -2.0277    3.0079    0.6911 H   0  0  0  0  0  0  0  0  0  0  0  0
   -2.5131    2.1709    2.1810 H   0  0  0  0  0  0  0  0  0  0  0  0
   -3.6198   -2.1197    2.0546 H   0  0  0  0  0  0  0  0  0  0  0  0
    0.5797    0.7929    1.3554 C   0  0  0  0  0  0  0  0  0  0  0  0
    1.4423    0.0392    0.3812 C   0  0  0  0  0  0  0  0  0  0  0  0
    2.8299    0.0760    0.4791 C   0  0  0  0  0  0  0  0  0  0  0  0
    3.6270   -0.6419   -0.3990 C   0  0  0  0  0  0  0  0  0  0  0  0
    3.0472   -1.4115   -1.3959 C   0  0  0  0  0  0  0  0  0  0  0  0
    1.6659   -1.4544   -1.5069 C   0  0  0  0  0  0  0  0  0  0  0  0
    0.8737   -0.7344   -0.6260 C   0  0  0  0  0  0  0  0  0  0  0  0
    1.0818    1.6905    1.7178 H   0  0  0  0  0  0  0  0  0  0  0  0
    0.3455    0.1729    2.2246 H   0  0  0  0  0  0  0  0  0  0  0  0
    3.2926    0.6779    1.2532 H   0  0  0  0  0  0  0  0  0  0  0  0
    4.7051   -0.5972   -0.3059 H   0  0  0  0  0  0  0  0  0  0  0  0
    3.6679   -1.9709   -2.0843 H   0  0  0  0  0  0  0  0  0  0  0  0
    1.2022   -2.0484   -2.2847 H   0  0  0  0  0  0  0  0  0  0  0  0
   -0.2056   -0.7714   -0.7229 H   0  0  0  0  0  0  0  0  0  0  0  0
  1  2  3  0
  1  7  1  0
  2  3  1  0
  3  4  1  0
  3  5  1  0
  4  9  1  0
  4 10  1  0
  4 11  1  0
  5  6  3  0
  6 12  1  0
  8 13  1  0
 13 14  1  0
 13 20  1  0
 13 21  1  0
 14 15  2  0
 14 19  1  0
 15 16  1  0
 15 22  1  0
 16 17  2  0
 16 23  1  0
 17 18  1  0
 17 24  1  0
 18 19  2  0
 18 25  1  0
 19 26  1  0
M  RAD  1   3   2
M  END
>  <reaction>  (13) 
rxn_1403

>  <mol_properties>  (13) 
{"1": {"label": "*0", "atom_type": "Ct"}, "2": {"label": "*1", "atom_type": "Cs"}, "7": {"label": "*2", "atom_type": "H0"}, "12": {"label": "*3", "atom_type": "Cd"}, "13": {"label": "*4", "atom_type": "Cd"}}

>  <type>  (13) 
unop_9

>  <geom_source>  (13) 
Heuristics

$$$$

     RDKit          3D

 26 25  0  0  0  0  0  0  0  0999 V2000
   -1.8486   -0.9102   -2.4725 C   0  0  0  0  0  0  0  0  0  0  0  0
   -1.8486   -0.9102   -1.2763 C   0  0  0  0  0  0  0  0  0  0  0  0
   -1.8486   -0.8701    0.1903 C   0  0  0  0  0  3  0  0  0  0  0  0
   -2.4866    0.4291    0.7123 C   0  0  0  0  0  0  0  0  0  0  0  0
   -2.5104   -2.0514    0.7550 C   0  0  0  0  0  0  0  0  0  0  0  0
   -3.0587   -2.9967    1.2415 C   0  0  0  0  0  0  0  0  0  0  0  0
   -1.8486   -0.9102   -3.5359 H   0  0  0  0  0  0  0  0  0  0  0  0
   -0.5950   -0.8974    0.5834 H   0  0  0  0  0  0  0  0  0  0  0  0
   -3.5299    0.4863    0.4045 H   0  0  0  0  0  0  0  0  0  0  0  0
   -1.9540    1.2905    0.3106 H   0  0  0  0  0  0  0  0  0  0  0  0
   -2.4394    0.4535    1.8005 H   0  0  0  0  0  0  0  0  0  0  0  0
   -3.5461   -3.8371    1.6740 H   0  0  0  0  0  0  0  0  0  0  0  0
    0.6534   -0.9245    0.9749 C   0  0  0  0  0  0  0  0  0  0  0  0
    1.4210    0.2516    0.4374 C   0  0  0  0  0  0  0  0  0  0  0  0
    2.0147    1.1701    1.2977 C   0  0  0  0  0  0  0  0  0  0  0  0
    2.7484    2.2385    0.8055 C   0  0  0  0  0  0  0  0  0  0  0  0
    2.9001    2.4083   -0.5621 C   0  0  0  0  0  0  0  0  0  0  0  0
    2.3108    1.5023   -1.4306 C   0  0  0  0  0  0  0  0  0  0  0  0
    1.5783    0.4357   -0.9328 C   0  0  0  0  0  0  0  0  0  0  0  0
    0.1911   -0.6915    1.9347 H   0  0  0  0  0  0  0  0  0  0  0  0
    1.3150   -1.7811    1.1274 H   0  0  0  0  0  0  0  0  0  0  0  0
    1.8986    1.0477    2.3687 H   0  0  0  0  0  0  0  0  0  0  0  0
    3.2003    2.9427    1.4931 H   0  0  0  0  0  0  0  0  0  0  0  0
    3.4704    3.2434   -0.9487 H   0  0  0  0  0  0  0  0  0  0  0  0
    2.4187    1.6277   -2.5008 H   0  0  0  0  0  0  0  0  0  0  0  0
    1.1181   -0.2656   -1.6199 H   0  0  0  0  0  0  0  0  0  0  0  0
  1  2  3  0
  1  7  1  0
  2  3  1  0
  3  4  1  0
  3  5  1  0
  4  9  1  0
  4 10  1  0
  4 11  1  0
  5  6  3  0
  6 12  1  0
  8 13  1  0
 13 14  1  0
 13 20  1  0
 13 21  1  0
 14 15  2  0
 14 19  1  0
 15 16  1  0
 15 22  1  0
 16 17  2  0
 16 23  1  0
 17 18  1  0
 17 24  1  0
 18 19  2  0
 18 25  1  0
 19 26  1  0
M  RAD  1   3   2
M  END
>  <reaction>  (14) 
rxn_1403

>  <mol_properties>  (14) 
{"1": {"label": "*0", "atom_type": "Ct"}, "2": {"label": "*1", "atom_type": "Cs"}, "7": {"label": "*2", "atom_type": "H0"}, "12": {"label": "*3", "atom_type": "Cd"}, "13": {"label": "*4", "atom_type": "Cd"}}

>  <type>  (14) 
unop_10

>  <geom_source>  (14) 
Heuristics

$$$$

     RDKit          3D

 26 25  0  0  0  0  0  0  0  0999 V2000
   -1.2788    0.7049   -4.1413 C   0  0  0  0  0  0  0  0  0  0  0  0
   -1.2788    0.7049   -2.9451 C   0  0  0  0  0  0  0  0  0  0  0  0
   -1.2788    0.7450   -1.4786 C   0  0  0  0  0  3  0  0  0  0  0  0
   -1.9169    2.0442   -0.9566 C   0  0  0  0  0  0  0  0  0  0  0  0
   -1.9407   -0.4363   -0.9138 C   0  0  0  0  0  0  0  0  0  0  0  0
   -2.4889   -1.3816   -0.4273 C   0  0  0  0  0  0  0  0  0  0  0  0
   -1.2788    0.7049   -5.2048 H   0  0  0  0  0  0  0  0  0  0  0  0
   -0.0252    0.7177   -1.0855 H   0  0  0  0  0  0  0  0  0  0  0  0
   -2.9601    2.1014   -1.2643 H   0  0  0  0  0  0  0  0  0  0  0  0
   -1.3842    2.9056   -1.3582 H   0  0  0  0  0  0  0  0  0  0  0  0
   -1.8697    2.0686    0.1316 H   0  0  0  0  0  0  0  0  0  0  0  0
   -2.9763   -2.2220    0.0052 H   0  0  0  0  0  0  0  0  0  0  0  0
    1.2231    0.6906   -0.6939 C   0  0  0  0  0  0  0  0  0  0  0  0
    1.3619    0.0220    0.6458 C   0  0  0  0  0  0  0  0  0  0  0  0
    2.6079   -0.1145    1.2501 C   0  0  0  0  0  0  0  0  0  0  0  0
    2.7353   -0.7033    2.4987 C   0  0  0  0  0  0  0  0  0  0  0  0
    1.6134   -1.1693    3.1669 C   0  0  0  0  0  0  0  0  0  0  0  0
    0.3662   -1.0427    2.5747 C   0  0  0  0  0  0  0  0  0  0  0  0
    0.2447   -0.4530    1.3259 C   0  0  0  0  0  0  0  0  0  0  0  0
    2.1169    0.5488   -1.3025 H   0  0  0  0  0  0  0  0  0  0  0  0
    1.0728    1.7667   -0.5755 H   0  0  0  0  0  0  0  0  0  0  0  0
    3.4914    0.2437    0.7337 H   0  0  0  0  0  0  0  0  0  0  0  0
    3.7151   -0.8012    2.9497 H   0  0  0  0  0  0  0  0  0  0  0  0
    1.7109   -1.6318    4.1409 H   0  0  0  0  0  0  0  0  0  0  0  0
   -0.5164   -1.4074    3.0854 H   0  0  0  0  0  0  0  0  0  0  0  0
   -0.7344   -0.3617    0.8692 H   0  0  0  0  0  0  0  0  0  0  0  0
  1  2  3  0
  1  7  1  0
  2  3  1  0
  3  4  1  0
  3  5  1  0
  4  9  1  0
  4 10  1  0
  4 11  1  0
  5  6  3  0
  6 12  1  0
  8 13  1  0
 13 14  1  0
 13 20  1  0
 13 21  1  0
 14 15  2  0
 14 19  1  0
 15 16  1  0
 15 22  1  0
 16 17  2  0
 16 23  1  0
 17 18  1  0
 17 24  1  0
 18 19  2  0
 18 25  1  0
 19 26  1  0
M  RAD  1   3   2
M  END
>  <reaction>  (15) 
rxn_1403

>  <mol_properties>  (15) 
{"1": {"label": "*0", "atom_type": "Ct"}, "2": {"label": "*1", "atom_type": "Cs"}, "7": {"label": "*2", "atom_type": "H0"}, "12": {"label": "*3", "atom_type": "Cd"}, "13": {"label": "*4", "atom_type": "Cd"}}

>  <type>  (15) 
unop_11

>  <geom_source>  (15) 
Heuristics

$$$$

     RDKit          3D

 26 25  0  0  0  0  0  0  0  0999 V2000
   -1.9962    0.1922   -1.9119 C   0  0  0  0  0  0  0  0  0  0  0  0
   -1.9962    0.1922   -0.7158 C   0  0  0  0  0  0  0  0  0  0  0  0
   -1.9962    0.2323    0.7508 C   0  0  0  0  0  3  0  0  0  0  0  0
   -2.6343    1.5315    1.2728 C   0  0  0  0  0  0  0  0  0  0  0  0
   -2.6581   -0.9490    1.3156 C   0  0  0  0  0  0  0  0  0  0  0  0
   -3.2063   -1.8943    1.8021 C   0  0  0  0  0  0  0  0  0  0  0  0
   -1.9962    0.1922   -2.9754 H   0  0  0  0  0  0  0  0  0  0  0  0
   -0.7426    0.2050    1.1439 H   0  0  0  0  0  0  0  0  0  0  0  0
   -3.6775    1.5887    0.9650 H   0  0  0  0  0  0  0  0  0  0  0  0
   -2.1016    2.3929    0.8711 H   0  0  0  0  0  0  0  0  0  0  0  0
   -2.5871    1.5559    2.3610 H   0  0  0  0  0  0  0  0  0  0  0  0
   -3.6937   -2.7347    2.2346 H   0  0  0  0  0  0  0  0  0  0  0  0
    0.5057    0.1779    1.5354 C   0  0  0  0  0  0  0  0  0  0  0  0
    1.4455    0.1174    0.3631 C   0  0  0  0  0  0  0  0  0  0  0  0
    2.7246    0.6593    0.4446 C   0  0  0  0  0  0  0  0  0  0  0  0
    3.6038    0.5784   -0.6242 C   0  0  0  0  0  0  0  0  0  0  0  0
    3.2164   -0.0476   -1.7991 C   0  0  0  0  0  0  0  0  0  0  0  0
    1.9435   -0.5888   -1.8950 C   0  0  0  0  0  0  0  0  0  0  0  0
    1.0684   -0.5050   -0.8230 C   0  0  0  0  0  0  0  0  0  0  0  0
    0.6906    1.0618    2.1469 H   0  0  0  0  0  0  0  0  0  0  0  0
    0.6307   -0.6982    2.1769 H   0  0  0  0  0  0  0  0  0  0  0  0
    3.0353    1.1539    1.3580 H   0  0  0  0  0  0  0  0  0  0  0  0
    4.5940    1.0089   -0.5398 H   0  0  0  0  0  0  0  0  0  0  0  0
    3.9004   -0.1096   -2.6359 H   0  0  0  0  0  0  0  0  0  0  0  0
    1.6285   -1.0759   -2.8095 H   0  0  0  0  0  0  0  0  0  0  0  0
    0.0738   -0.9280   -0.9086 H   0  0  0  0  0  0  0  0  0  0  0  0
  1  2  3  0
  1  7  1  0
  2  3  1  0
  3  4  1  0
  3  5  1  0
  4  9  1  0
  4 10  1  0
  4 11  1  0
  5  6  3  0
  6 12  1  0
  8 13  1  0
 13 14  1  0
 13 20  1  0
 13 21  1  0
 14 15  2  0
 14 19  1  0
 15 16  1  0
 15 22  1  0
 16 17  2  0
 16 23  1  0
 17 18  1  0
 17 24  1  0
 18 19  2  0
 18 25  1  0
 19 26  1  0
M  RAD  1   3   2
M  END
>  <reaction>  (16) 
rxn_1403

>  <mol_properties>  (16) 
{"1": {"label": "*0", "atom_type": "Ct"}, "2": {"label": "*1", "atom_type": "Cs"}, "7": {"label": "*2", "atom_type": "H0"}, "12": {"label": "*3", "atom_type": "Cd"}, "13": {"label": "*4", "atom_type": "Cd"}}

>  <type>  (16) 
unop_12

>  <geom_source>  (16) 
Heuristics

$$$$

     RDKit          3D

 26 25  0  0  0  0  0  0  0  0999 V2000
    0.0304   -0.9898   -1.1855 C   0  0  0  0  0  0  0  0  0  0  0  0
   -2.7010   -1.5429    0.5118 C   0  0  0  0  0  0  0  0  0  0  0  0
    1.2805   -0.3261   -0.6905 C   0  0  0  0  0  0  0  0  0  0  0  0
   -1.9205   -0.2405    0.3601 C   0  0  0  0  0  3  0  0  0  0  0  0
    1.9042   -0.7784    0.4836 C   0  0  0  0  0  0  0  0  0  0  0  0
    1.7969    0.7968   -1.3571 C   0  0  0  0  0  0  0  0  0  0  0  0
    3.0482   -0.1341    0.9656 C   0  0  0  0  0  0  0  0  0  0  0  0
    2.9411    1.4385   -0.8720 C   0  0  0  0  0  0  0  0  0  0  0  0
    3.5678    0.9719    0.2869 C   0  0  0  0  0  0  0  0  0  0  0  0
   -1.8132    0.4539    1.6490 C   0  0  0  0  0  0  0  0  0  0  0  0
   -2.5642    0.6392   -0.6232 C   0  0  0  0  0  0  0  0  0  0  0  0
   -1.7236    1.0234    2.7081 C   0  0  0  0  0  0  0  0  0  0  0  0
   -3.0920    1.3610   -1.4321 C   0  0  0  0  0  0  0  0  0  0  0  0
    0.0306   -2.0698   -0.9256 H   0  0  0  0  0  0  0  0  0  0  0  0
   -0.0490   -0.9022   -2.2901 H   0  0  0  0  0  0  0  0  0  0  0  0
   -1.0056   -0.4198   -0.6373 H   0  0  0  0  0  0  0  0  0  0  0  0
   -3.7355   -1.3465    0.8698 H   0  0  0  0  0  0  0  0  0  0  0  0
   -2.7498   -2.0700   -0.4648 H   0  0  0  0  0  0  0  0  0  0  0  0
   -2.1872   -2.2088    1.2375 H   0  0  0  0  0  0  0  0  0  0  0  0
    1.5061   -1.6283    1.0242 H   0  0  0  0  0  0  0  0  0  0  0  0
    1.3151    1.1743   -2.2507 H   0  0  0  0  0  0  0  0  0  0  0  0
    3.5296   -0.4898    1.8674 H   0  0  0  0  0  0  0  0  0  0  0  0
    3.3395    2.2999   -1.3924 H   0  0  0  0  0  0  0  0  0  0  0  0
    4.4523    1.4703    0.6619 H   0  0  0  0  0  0  0  0  0  0  0  0
   -1.6452    1.5232    3.6376 H   0  0  0  0  0  0  0  0  0  0  0  0
   -3.5554    1.9945   -2.1420 H   0  0  0  0  0  0  0  0  0  0  0  0
  1  3  1  0
  1 14  1  0
  1 15  1  0
  1 16  1  0
  2  4  1  0
  2 17  1  0
  2 18  1  0
  2 19  1  0
  3  5  2  0
  3  6  1  0
  4 10  1  0
  4 11  1  0
  5  7  1  0
  5 20  1  0
  6  8  2  0
  6 21  1  0
  7  9  2  0
  7 22  1  0
  8  9  1  0
  8 23  1  0
  9 24  1  0
 10 12  3  0
 11 13  3  0
 12 25  1  0
 13 26  1  0
M  RAD  1   4   2
M  END
>  <reaction>  (17) 
rxn_1403

>  <mol_properties>  (17) 
{"1": {"label": "*0", "atom_type": "Ct"}, "2": {"label": "*1", "atom_type": "Cs"}, "7": {"label": "*2", "atom_type": "H0"}, "12": {"label": "*3", "atom_type": "Cd"}, "13": {"label": "*4", "atom_type": "Cd"}}

>  <type>  (17) 
unop_13

>  <geom_source>  (17) 
AutoTST

$$$$

     RDKit          3D

 26 25  0  0  0  0  0  0  0  0999 V2000
   -1.9691   -0.4374   -2.0515 C   0  0  0  0  0  0  0  0  0  0  0  0
   -1.9691   -0.4374   -0.8553 C   0  0  0  0  0  0  0  0  0  0  0  0
   -1.9691   -0.3973    0.6112 C   0  0  0  0  0  3  0  0  0  0  0  0
   -2.6071    0.9019    1.1332 C   0  0  0  0  0  0  0  0  0  0  0  0
   -2.6309   -1.5785    1.1760 C   0  0  0  0  0  0  0  0  0  0  0  0
   -3.1792   -2.5238    1.6625 C   0  0  0  0  0  0  0  0  0  0  0  0
   -1.9691   -0.4374   -3.1149 H   0  0  0  0  0  0  0  0  0  0  0  0
   -0.7155   -0.4245    1.0044 H   0  0  0  0  0  0  0  0  0  0  0  0
   -3.6504    0.9592    0.8255 H   0  0  0  0  0  0  0  0  0  0  0  0
   -2.0745    1.7633    0.7316 H   0  0  0  0  0  0  0  0  0  0  0  0
   -2.5599    0.9264    2.2214 H   0  0  0  0  0  0  0  0  0  0  0  0
   -3.6666   -3.3643    2.0950 H   0  0  0  0  0  0  0  0  0  0  0  0
    0.5329   -0.4517    1.3959 C   0  0  0  0  0  0  0  0  0  0  0  0
    1.4379    0.1942    0.3834 C   0  0  0  0  0  0  0  0  0  0  0  0
    2.4030    1.1172    0.7744 C   0  0  0  0  0  0  0  0  0  0  0  0
    3.2588    1.6916   -0.1528 C   0  0  0  0  0  0  0  0  0  0  0  0
    3.1624    1.3522   -1.4936 C   0  0  0  0  0  0  0  0  0  0  0  0
    2.2029    0.4364   -1.8973 C   0  0  0  0  0  0  0  0  0  0  0  0
    1.3498   -0.1348   -0.9658 C   0  0  0  0  0  0  0  0  0  0  0  0
    0.3499    0.2097    2.2434 H   0  0  0  0  0  0  0  0  0  0  0  0
    0.9808   -1.3696    1.7851 H   0  0  0  0  0  0  0  0  0  0  0  0
    2.4837    1.3915    1.8202 H   0  0  0  0  0  0  0  0  0  0  0  0
    4.0014    2.4093    0.1732 H   0  0  0  0  0  0  0  0  0  0  0  0
    3.8279    1.8015   -2.2197 H   0  0  0  0  0  0  0  0  0  0  0  0
    2.1154    0.1675   -2.9427 H   0  0  0  0  0  0  0  0  0  0  0  0
    0.6002   -0.8473   -1.2915 H   0  0  0  0  0  0  0  0  0  0  0  0
  1  2  3  0
  1  7  1  0
  2  3  1  0
  3  4  1  0
  3  5  1  0
  4  9  1  0
  4 10  1  0
  4 11  1  0
  5  6  3  0
  6 12  1  0
  8 13  1  0
 13 14  1  0
 13 20  1  0
 13 21  1  0
 14 15  2  0
 14 19  1  0
 15 16  1  0
 15 22  1  0
 16 17  2  0
 16 23  1  0
 17 18  1  0
 17 24  1  0
 18 19  2  0
 18 25  1  0
 19 26  1  0
M  RAD  1   3   2
M  END
>  <reaction>  (18) 
rxn_1403

>  <mol_properties>  (18) 
{"1": {"label": "*0", "atom_type": "Ct"}, "2": {"label": "*1", "atom_type": "Cs"}, "7": {"label": "*2", "atom_type": "H0"}, "12": {"label": "*3", "atom_type": "Cd"}, "13": {"label": "*4", "atom_type": "Cd"}}

>  <type>  (18) 
unop_14

>  <geom_source>  (18) 
gaussian_log

$$$$
