
     RDKit          3D

  7  6  0  0  0  0  0  0  0  0999 V2000
   -0.6782    0.0507    0.0301 C   0  0  0  0  0  0  0  0  0  0  0  0
    0.8092    0.0996    0.0213 C   0  0  0  0  0  0  0  0  0  0  0  0
    1.7473    0.7521    1.1507 S   0  0  0  0  0  0  0  0  0  0  0  0
   -1.0667    0.5456   -0.8653 H   0  0  0  0  0  0  0  0  0  0  0  0
   -1.0112   -0.9904   -0.0239 H   0  0  0  0  0  0  0  0  0  0  0  0
   -1.0920    0.5225    0.9188 H   0  0  0  0  0  0  0  0  0  0  0  0
    1.2740   -0.3620   -0.8520 H   0  0  0  0  0  0  0  0  0  0  0  0
  1  2  1  0
  1  4  1  0
  1  5  1  0
  1  6  1  0
  2  3  2  0
  2  7  1  0
M  END
>  <reaction>  (1) 
rxn_1962

>  <mol_properties>  (1) 
{"0": {"label": "donator", "atom_type": "Cs"}, "3": {"label": "d_hydrogen", "atom_type": "H0"}}

>  <type>  (1) 
r1h

$$$$

     RDKit          3D

  9  8  0  0  0  0  0  0  0  0999 V2000
    2.3038   -0.0269    0.1590 C   0  0  0  0  0  0  0  0  0  0  0  0
    1.1426    0.1377   -0.1648 C   0  0  0  0  0  0  0  0  0  0  0  0
   -0.1694    0.3175   -0.5203 C   0  0  0  0  0  3  0  0  0  0  0  0
   -1.3163   -0.1910    0.2856 C   0  0  0  0  0  0  0  0  0  0  0  0
    3.3199   -0.1683    0.4378 H   0  0  0  0  0  0  0  0  0  0  0  0
   -0.3786    0.8584   -1.4360 H   0  0  0  0  0  0  0  0  0  0  0  0
   -1.9694    0.6309    0.5951 H   0  0  0  0  0  0  0  0  0  0  0  0
   -1.9325   -0.8770   -0.3039 H   0  0  0  0  0  0  0  0  0  0  0  0
   -0.9753   -0.7144    1.1774 H   0  0  0  0  0  0  0  0  0  0  0  0
  1  2  3  0
  1  5  1  0
  2  3  1  0
  3  4  1  0
  3  6  1  0
  4  7  1  0
  4  8  1  0
  4  9  1  0
M  RAD  1   3   2
M  END
>  <reaction>  (2) 
rxn_1962

>  <mol_properties>  (2) 
{"2": {"label": "acceptor", "atom_type": "Cs"}}

>  <type>  (2) 
r2

$$$$

     RDKit          3D

 10  9  0  0  0  0  0  0  0  0999 V2000
    2.2738    0.0217   -0.0992 C   0  0  0  0  0  0  0  0  0  0  0  0
    1.1083    0.2960   -0.0695 C   0  0  0  0  0  0  0  0  0  0  0  0
   -0.3173    0.6046   -0.0227 C   0  0  0  0  0  0  0  0  0  0  0  0
   -1.1561   -0.5495    0.5292 C   0  0  0  0  0  0  0  0  0  0  0  0
    3.3097   -0.2166   -0.1277 H   0  0  0  0  0  0  0  0  0  0  0  0
   -0.6542    0.8617   -1.0302 H   0  0  0  0  0  0  0  0  0  0  0  0
   -0.4633    1.4978    0.5900 H   0  0  0  0  0  0  0  0  0  0  0  0
   -0.8485   -0.7997    1.5447 H   0  0  0  0  0  0  0  0  0  0  0  0
   -2.2115   -0.2752    0.5459 H   0  0  0  0  0  0  0  0  0  0  0  0
   -1.0409   -1.4407   -0.0879 H   0  0  0  0  0  0  0  0  0  0  0  0
  1  2  3  0
  1  5  1  0
  2  3  1  0
  3  4  1  0
  3  6  1  0
  3  7  1  0
  4  8  1  0
  4  9  1  0
  4 10  1  0
M  END
>  <reaction>  (3) 
rxn_1962

>  <mol_properties>  (3) 
{"2": {"label": "acceptor", "atom_type": "Cs"}, "9": {"label": "a_hydrogen", "atom_type": "H0"}}

>  <type>  (3) 
r2h

$$$$

     RDKit          3D

 16 14  0  0  0  0  0  0  0  0999 V2000
   -0.4856    1.3037    3.5798 C   0  0  0  0  0  0  0  0  0  0  0  0
   -0.8116    0.8271    2.5239 C   0  0  0  0  0  0  0  0  0  0  0  0
   -1.1368    0.2852    1.2550 C   0  0  0  0  0  3  0  0  0  0  0  0
   -1.9186    1.1353    0.2860 C   0  0  0  0  0  0  0  0  0  0  0  0
   -0.2149    1.7206    4.5201 H   0  0  0  0  0  0  0  0  0  0  0  0
   -1.4237   -0.7652    1.2804 H   0  0  0  0  0  0  0  0  0  0  0  0
   -1.8903    0.6944   -0.7112 H   0  0  0  0  0  0  0  0  0  0  0  0
   -2.9628    1.2105    0.6000 H   0  0  0  0  0  0  0  0  0  0  0  0
   -1.5086    2.1439    0.2357 H   0  0  0  0  0  0  0  0  0  0  0  0
    1.1484    0.0800   -0.1371 C   0  0  0  0  0  0  0  0  0  0  0  0
    1.0049   -1.0798   -0.9689 C   0  0  0  0  0  0  0  0  0  0  0  0
    0.2579   -1.1178   -2.4198 S   0  0  0  0  0  0  0  0  0  0  0  0
    0.0769    0.1157    0.6058 H   0  0  0  0  0  0  0  0  0  0  0  0
    1.9188    0.0386    0.6297 H   0  0  0  0  0  0  0  0  0  0  0  0
    1.0594    1.0389   -0.6410 H   0  0  0  0  0  0  0  0  0  0  0  0
    1.3848   -2.0125   -0.5512 H   0  0  0  0  0  0  0  0  0  0  0  0
  1  2  3  0
  1  5  1  0
  2  3  1  0
  3  4  1  0
  3  6  1  0
  4  7  1  0
  4  8  1  0
  4  9  1  0
 10 11  1  0
 10 13  1  0
 10 14  1  0
 10 15  1  0
 11 12  2  0
 11 16  1  0
M  RAD  1   3   2
M  END
>  <reaction>  (4) 
rxn_1962

>  <mol_properties>  (4) 
{"1": {"label": "*4", "atom_type": "Ct"}, "2": {"label": "*3", "atom_type": "Cs"}, "9": {"label": "*1", "atom_type": "Cs"}, "10": {"label": "*0", "atom_type": "CS"}, "12": {"label": "*2", "atom_type": "H0"}}

>  <type>  (4) 
ts

$$$$

     RDKit          3D

 16 14  0  0  0  0  0  0  0  0999 V2000
   -0.4172    0.2442    3.7881 C   0  0  0  0  0  0  0  0  0  0  0  0
   -0.7906    0.2357    2.6501 C   0  0  0  0  0  0  0  0  0  0  0  0
   -1.2431    0.2534    1.2628 C   0  0  0  0  0  0  0  0  0  0  0  0
   -1.3000    1.6649    0.6755 C   0  0  0  0  0  0  0  0  0  0  0  0
   -0.0857    0.2518    4.7984 H   0  0  0  0  0  0  0  0  0  0  0  0
   -2.2303   -0.2125    1.2094 H   0  0  0  0  0  0  0  0  0  0  0  0
   -1.6421    1.6299   -0.3594 H   0  0  0  0  0  0  0  0  0  0  0  0
   -1.9856    2.2929    1.2446 H   0  0  0  0  0  0  0  0  0  0  0  0
   -0.3156    2.1327    0.6979 H   0  0  0  0  0  0  0  0  0  0  0  0
    0.8582    0.3179   -0.3088 C   0  0  0  0  0  0  0  0  0  0  0  0
    0.8582   -0.8805   -1.1910 C   0  0  0  0  0  0  0  0  0  0  0  0
    0.8582   -0.8805   -2.7976 S   0  0  0  0  0  1  0  0  0  0  0  0
   -0.1932    0.2856    0.4775 H   0  0  0  0  0  0  0  0  0  0  0  0
    1.7344    0.2910    0.3464 H   0  0  0  0  0  0  0  0  0  0  0  0
    0.8582    1.2417   -0.8834 H   0  0  0  0  0  0  0  0  0  0  0  0
    0.8582   -1.8350   -0.6610 H   0  0  0  0  0  0  0  0  0  0  0  0
  1  2  3  0
  1  5  1  0
  2  3  1  0
  3  4  1  0
  3  6  1  0
  3 13  1  0
  4  7  1  0
  4  8  1  0
  4  9  1  0
 10 11  2  3
 10 14  1  0
 10 15  1  0
 11 12  1  0
 11 16  1  0
M  RAD  1  12   2
M  END
>  <reaction>  (5) 
rxn_1962

>  <mol_properties>  (5) 
{"1": {"label": "*4", "atom_type": "Ct"}, "2": {"label": "*3", "atom_type": "Cs"}, "9": {"label": "*1", "atom_type": "Cs"}, "10": {"label": "*0", "atom_type": "CS"}, "12": {"label": "*2", "atom_type": "H0"}}

>  <type>  (5) 
unop_1

>  <geom_source>  (5) 
Heuristics

$$$$

     RDKit          3D

 16 14  0  0  0  0  0  0  0  0999 V2000
   -1.7228   -1.7400    1.8649 C   0  0  0  0  0  0  0  0  0  0  0  0
   -1.4433   -0.5984    1.6341 C   0  0  0  0  0  0  0  0  0  0  0  0
   -1.0914    0.7947    1.3787 C   0  0  0  0  0  0  0  0  0  0  0  0
   -0.3899    1.4564    2.5662 C   0  0  0  0  0  0  0  0  0  0  0  0
   -1.9710   -2.7534    2.0698 H   0  0  0  0  0  0  0  0  0  0  0  0
   -2.0011    1.3464    1.1286 H   0  0  0  0  0  0  0  0  0  0  0  0
   -0.1464    2.4932    2.3313 H   0  0  0  0  0  0  0  0  0  0  0  0
   -1.0294    1.4437    3.4490 H   0  0  0  0  0  0  0  0  0  0  0  0
    0.5339    0.9319    2.8107 H   0  0  0  0  0  0  0  0  0  0  0  0
    1.0099    0.8592   -0.1928 C   0  0  0  0  0  0  0  0  0  0  0  0
    1.0099   -0.3393   -1.0750 C   0  0  0  0  0  0  0  0  0  0  0  0
    1.0099   -0.3393   -2.6817 S   0  0  0  0  0  1  0  0  0  0  0  0
   -0.0415    0.8269    0.5935 H   0  0  0  0  0  0  0  0  0  0  0  0
    1.8860    0.8323    0.4624 H   0  0  0  0  0  0  0  0  0  0  0  0
    1.0099    1.7830   -0.7675 H   0  0  0  0  0  0  0  0  0  0  0  0
    1.0099   -1.2937   -0.5451 H   0  0  0  0  0  0  0  0  0  0  0  0
  1  2  3  0
  1  5  1  0
  2  3  1  0
  3  4  1  0
  3  6  1  0
  3 13  1  0
  4  7  1  0
  4  8  1  0
  4  9  1  0
 10 11  2  3
 10 14  1  0
 10 15  1  0
 11 12  1  0
 11 16  1  0
M  RAD  1  12   2
M  END
>  <reaction>  (6) 
rxn_1962

>  <mol_properties>  (6) 
{"1": {"label": "*4", "atom_type": "Ct"}, "2": {"label": "*3", "atom_type": "Cs"}, "9": {"label": "*1", "atom_type": "Cs"}, "10": {"label": "*0", "atom_type": "CS"}, "12": {"label": "*2", "atom_type": "H0"}}

>  <type>  (6) 
unop_2

>  <geom_source>  (6) 
Heuristics

$$$$

     RDKit          3D

 16 14  0  0  0  0  0  0  0  0999 V2000
   -0.5262    1.3491    3.6344 C   0  0  0  0  0  0  0  0  0  0  0  0
   -0.7878    0.7764    2.6156 C   0  0  0  0  0  0  0  0  0  0  0  0
   -1.1176    0.1025    1.3638 C   0  0  0  0  0  0  0  0  0  0  0  0
   -1.8022    1.0268    0.3552 C   0  0  0  0  0  0  0  0  0  0  0  0
   -0.2939    1.8575    4.5390 H   0  0  0  0  0  0  0  0  0  0  0  0
   -1.7628   -0.7516    1.5843 H   0  0  0  0  0  0  0  0  0  0  0  0
   -2.0296    0.4826   -0.5622 H   0  0  0  0  0  0  0  0  0  0  0  0
   -2.7334    1.4210    0.7623 H   0  0  0  0  0  0  0  0  0  0  0  0
   -1.1587    1.8705    0.1054 H   0  0  0  0  0  0  0  0  0  0  0  0
    0.9837    0.1670   -0.2077 C   0  0  0  0  0  0  0  0  0  0  0  0
    0.9837   -1.0315   -1.0899 C   0  0  0  0  0  0  0  0  0  0  0  0
    0.9837   -1.0315   -2.6966 S   0  0  0  0  0  1  0  0  0  0  0  0
   -0.0677    0.1347    0.5786 H   0  0  0  0  0  0  0  0  0  0  0  0
    1.8598    0.1401    0.4475 H   0  0  0  0  0  0  0  0  0  0  0  0
    0.9837    1.0908   -0.7824 H   0  0  0  0  0  0  0  0  0  0  0  0
    0.9837   -1.9859   -0.5600 H   0  0  0  0  0  0  0  0  0  0  0  0
  1  2  3  0
  1  5  1  0
  2  3  1  0
  3  4  1  0
  3  6  1  0
  3 13  1  0
  4  7  1  0
  4  8  1  0
  4  9  1  0
 10 11  2  3
 10 14  1  0
 10 15  1  0
 11 12  1  0
 11 16  1  0
M  RAD  1  12   2
M  END
>  <reaction>  (7) 
rxn_1962

>  <mol_properties>  (7) 
{"1": {"label": "*4", "atom_type": "Ct"}, "2": {"label": "*3", "atom_type": "Cs"}, "9": {"label": "*1", "atom_type": "Cs"}, "10": {"label": "*0", "atom_type": "CS"}, "12": {"label": "*2", "atom_type": "H0"}}

>  <type>  (7) 
unop_3

>  <geom_source>  (7) 
Heuristics

$$$$

     RDKit          3D

 16 14  0  0  0  0  0  0  0  0999 V2000
   -2.8995    0.5074    0.2123 C   0  0  0  0  0  0  0  0  0  0  0  0
   -1.9007    0.5225    0.8730 C   0  0  0  0  0  0  0  0  0  0  0  0
   -0.6975    0.5278    1.6990 C   0  0  0  0  0  0  0  0  0  0  0  0
   -0.9146   -0.1210    3.0673 C   0  0  0  0  0  0  0  0  0  0  0  0
   -3.7863    0.4941   -0.3743 H   0  0  0  0  0  0  0  0  0  0  0  0
   -0.3628    1.5606    1.8251 H   0  0  0  0  0  0  0  0  0  0  0  0
    0.0079   -0.0947    3.6485 H   0  0  0  0  0  0  0  0  0  0  0  0
   -1.6894    0.4046    3.6257 H   0  0  0  0  0  0  0  0  0  0  0  0
   -1.2237   -1.1606    2.9573 H   0  0  0  0  0  0  0  0  0  0  0  0
    1.4038    0.5923    0.1275 C   0  0  0  0  0  0  0  0  0  0  0  0
    1.4038   -0.6061   -0.7547 C   0  0  0  0  0  0  0  0  0  0  0  0
    1.4038   -0.6061   -2.3614 S   0  0  0  0  0  1  0  0  0  0  0  0
    0.3525    0.5601    0.9138 H   0  0  0  0  0  0  0  0  0  0  0  0
    2.2800    0.5655    0.7827 H   0  0  0  0  0  0  0  0  0  0  0  0
    1.4038    1.5161   -0.4472 H   0  0  0  0  0  0  0  0  0  0  0  0
    1.4038   -1.5605   -0.2248 H   0  0  0  0  0  0  0  0  0  0  0  0
  1  2  3  0
  1  5  1  0
  2  3  1  0
  3  4  1  0
  3  6  1  0
  3 13  1  0
  4  7  1  0
  4  8  1  0
  4  9  1  0
 10 11  2  3
 10 14  1  0
 10 15  1  0
 11 12  1  0
 11 16  1  0
M  RAD  1  12   2
M  END
>  <reaction>  (8) 
rxn_1962

>  <mol_properties>  (8) 
{"1": {"label": "*4", "atom_type": "Ct"}, "2": {"label": "*3", "atom_type": "Cs"}, "9": {"label": "*1", "atom_type": "Cs"}, "10": {"label": "*0", "atom_type": "CS"}, "12": {"label": "*2", "atom_type": "H0"}}

>  <type>  (8) 
unop_4

>  <geom_source>  (8) 
Heuristics

$$$$

     RDKit          3D

 16 14  0  0  0  0  0  0  0  0999 V2000
   -0.9277    2.2425    3.0141 C   0  0  0  0  0  0  0  0  0  0  0  0
   -0.9218    1.2665    2.3198 C   0  0  0  0  0  0  0  0  0  0  0  0
   -0.9401    0.0846    1.4639 C   0  0  0  0  0  0  0  0  0  0  0  0
   -2.2154   -0.0209    0.6256 C   0  0  0  0  0  0  0  0  0  0  0  0
   -0.9329    3.1089    3.6305 H   0  0  0  0  0  0  0  0  0  0  0  0
   -0.8312   -0.8043    2.0903 H   0  0  0  0  0  0  0  0  0  0  0  0
   -2.1855   -0.9161    0.0034 H   0  0  0  0  0  0  0  0  0  0  0  0
   -3.0956   -0.0752    1.2664 H   0  0  0  0  0  0  0  0  0  0  0  0
   -2.3236    0.8476   -0.0243 H   0  0  0  0  0  0  0  0  0  0  0  0
    1.1612    0.1491   -0.1077 C   0  0  0  0  0  0  0  0  0  0  0  0
    1.1612   -1.0494   -0.9899 C   0  0  0  0  0  0  0  0  0  0  0  0
    1.1612   -1.0494   -2.5965 S   0  0  0  0  0  1  0  0  0  0  0  0
    0.1099    0.1168    0.6786 H   0  0  0  0  0  0  0  0  0  0  0  0
    2.0374    0.1222    0.5476 H   0  0  0  0  0  0  0  0  0  0  0  0
    1.1612    1.0729   -0.6823 H   0  0  0  0  0  0  0  0  0  0  0  0
    1.1612   -2.0038   -0.4599 H   0  0  0  0  0  0  0  0  0  0  0  0
  1  2  3  0
  1  5  1  0
  2  3  1  0
  3  4  1  0
  3  6  1  0
  3 13  1  0
  4  7  1  0
  4  8  1  0
  4  9  1  0
 10 11  2  3
 10 14  1  0
 10 15  1  0
 11 12  1  0
 11 16  1  0
M  RAD  1  12   2
M  END
>  <reaction>  (9) 
rxn_1962

>  <mol_properties>  (9) 
{"1": {"label": "*4", "atom_type": "Ct"}, "2": {"label": "*3", "atom_type": "Cs"}, "9": {"label": "*1", "atom_type": "Cs"}, "10": {"label": "*0", "atom_type": "CS"}, "12": {"label": "*2", "atom_type": "H0"}}

>  <type>  (9) 
unop_5

>  <geom_source>  (9) 
Heuristics

$$$$

     RDKit          3D

 16 14  0  0  0  0  0  0  0  0999 V2000
   -2.7223    1.5818    0.4819 C   0  0  0  0  0  0  0  0  0  0  0  0
   -1.8013    1.0306    1.0135 C   0  0  0  0  0  0  0  0  0  0  0  0
   -0.6973    0.3460    1.6785 C   0  0  0  0  0  0  0  0  0  0  0  0
   -1.1643   -0.5742    2.8079 C   0  0  0  0  0  0  0  0  0  0  0  0
   -3.5398    2.0712    0.0100 H   0  0  0  0  0  0  0  0  0  0  0  0
   -0.0047    1.0951    2.0704 H   0  0  0  0  0  0  0  0  0  0  0  0
   -0.3087   -1.0633    3.2749 H   0  0  0  0  0  0  0  0  0  0  0  0
   -1.6977   -0.0083    3.5718 H   0  0  0  0  0  0  0  0  0  0  0  0
   -1.8360   -1.3436    2.4268 H   0  0  0  0  0  0  0  0  0  0  0  0
    1.4040    0.4105    0.1070 C   0  0  0  0  0  0  0  0  0  0  0  0
    1.4040   -0.7880   -0.7752 C   0  0  0  0  0  0  0  0  0  0  0  0
    1.4040   -0.7880   -2.3819 S   0  0  0  0  0  1  0  0  0  0  0  0
    0.3526    0.3782    0.8933 H   0  0  0  0  0  0  0  0  0  0  0  0
    2.2801    0.3836    0.7622 H   0  0  0  0  0  0  0  0  0  0  0  0
    1.4040    1.3343   -0.4677 H   0  0  0  0  0  0  0  0  0  0  0  0
    1.4040   -1.7424   -0.2453 H   0  0  0  0  0  0  0  0  0  0  0  0
  1  2  3  0
  1  5  1  0
  2  3  1  0
  3  4  1  0
  3  6  1  0
  3 13  1  0
  4  7  1  0
  4  8  1  0
  4  9  1  0
 10 11  2  3
 10 14  1  0
 10 15  1  0
 11 12  1  0
 11 16  1  0
M  RAD  1  12   2
M  END
>  <reaction>  (10) 
rxn_1962

>  <mol_properties>  (10) 
{"1": {"label": "*4", "atom_type": "Ct"}, "2": {"label": "*3", "atom_type": "Cs"}, "9": {"label": "*1", "atom_type": "Cs"}, "10": {"label": "*0", "atom_type": "CS"}, "12": {"label": "*2", "atom_type": "H0"}}

>  <type>  (10) 
unop_6

>  <geom_source>  (10) 
Heuristics

$$$$

     RDKit          3D

 16 14  0  0  0  0  0  0  0  0999 V2000
   -2.2415    2.3676    1.1572 C   0  0  0  0  0  0  0  0  0  0  0  0
   -1.5589    1.4031    1.3531 C   0  0  0  0  0  0  0  0  0  0  0  0
   -0.7493    0.2150    1.6038 C   0  0  0  0  0  0  0  0  0  0  0  0
   -1.5314   -0.8990    2.3021 C   0  0  0  0  0  0  0  0  0  0  0  0
   -2.8474    3.2238    0.9833 H   0  0  0  0  0  0  0  0  0  0  0  0
    0.1145    0.5001    2.2097 H   0  0  0  0  0  0  0  0  0  0  0  0
   -0.8889   -1.7644    2.4688 H   0  0  0  0  0  0  0  0  0  0  0  0
   -1.9101   -0.5595    3.2663 H   0  0  0  0  0  0  0  0  0  0  0  0
   -2.3819   -1.2123    1.6964 H   0  0  0  0  0  0  0  0  0  0  0  0
    1.3520    0.2795    0.0323 C   0  0  0  0  0  0  0  0  0  0  0  0
    1.3520   -0.9190   -0.8499 C   0  0  0  0  0  0  0  0  0  0  0  0
    1.3520   -0.9190   -2.4565 S   0  0  0  0  0  1  0  0  0  0  0  0
    0.3006    0.2472    0.8186 H   0  0  0  0  0  0  0  0  0  0  0  0
    2.2282    0.2526    0.6875 H   0  0  0  0  0  0  0  0  0  0  0  0
    1.3520    1.2033   -0.5424 H   0  0  0  0  0  0  0  0  0  0  0  0
    1.3520   -1.8734   -0.3199 H   0  0  0  0  0  0  0  0  0  0  0  0
  1  2  3  0
  1  5  1  0
  2  3  1  0
  3  4  1  0
  3  6  1  0
  3 13  1  0
  4  7  1  0
  4  8  1  0
  4  9  1  0
 10 11  2  3
 10 14  1  0
 10 15  1  0
 11 12  1  0
 11 16  1  0
M  RAD  1  12   2
M  END
>  <reaction>  (11) 
rxn_1962

>  <mol_properties>  (11) 
{"1": {"label": "*4", "atom_type": "Ct"}, "2": {"label": "*3", "atom_type": "Cs"}, "9": {"label": "*1", "atom_type": "Cs"}, "10": {"label": "*0", "atom_type": "CS"}, "12": {"label": "*2", "atom_type": "H0"}}

>  <type>  (11) 
unop_7

>  <geom_source>  (11) 
Heuristics

$$$$

     RDKit          3D

 16 14  0  0  0  0  0  0  0  0999 V2000
   -0.6235   -0.8050    3.4699 C   0  0  0  0  0  0  0  0  0  0  0  0
   -0.9225   -0.2438    2.4549 C   0  0  0  0  0  0  0  0  0  0  0  0
   -1.2758    0.4639    1.2285 C   0  0  0  0  0  0  0  0  0  0  0  0
   -0.8699    1.9386    1.2568 C   0  0  0  0  0  0  0  0  0  0  0  0
   -0.3581   -1.3032    4.3710 H   0  0  0  0  0  0  0  0  0  0  0  0
   -2.3538    0.3770    1.0711 H   0  0  0  0  0  0  0  0  0  0  0  0
   -1.1525    2.4262    0.3231 H   0  0  0  0  0  0  0  0  0  0  0  0
   -1.3602    2.4586    2.0799 H   0  0  0  0  0  0  0  0  0  0  0  0
    0.2076    2.0404    1.3869 H   0  0  0  0  0  0  0  0  0  0  0  0
    0.8255    0.5284   -0.3431 C   0  0  0  0  0  0  0  0  0  0  0  0
    0.8255   -0.6701   -1.2253 C   0  0  0  0  0  0  0  0  0  0  0  0
    0.8255   -0.6701   -2.8319 S   0  0  0  0  0  1  0  0  0  0  0  0
   -0.2259    0.4961    0.4432 H   0  0  0  0  0  0  0  0  0  0  0  0
    1.7017    0.5015    0.3122 H   0  0  0  0  0  0  0  0  0  0  0  0
    0.8255    1.4522   -0.9177 H   0  0  0  0  0  0  0  0  0  0  0  0
    0.8255   -1.6245   -0.6953 H   0  0  0  0  0  0  0  0  0  0  0  0
  1  2  3  0
  1  5  1  0
  2  3  1  0
  3  4  1  0
  3  6  1  0
  3 13  1  0
  4  7  1  0
  4  8  1  0
  4  9  1  0
 10 11  2  3
 10 14  1  0
 10 15  1  0
 11 12  1  0
 11 16  1  0
M  RAD  1  12   2
M  END
>  <reaction>  (12) 
rxn_1962

>  <mol_properties>  (12) 
{"1": {"label": "*4", "atom_type": "Ct"}, "2": {"label": "*3", "atom_type": "Cs"}, "9": {"label": "*1", "atom_type": "Cs"}, "10": {"label": "*0", "atom_type": "CS"}, "12": {"label": "*2", "atom_type": "H0"}}

>  <type>  (12) 
unop_8

>  <geom_source>  (12) 
Heuristics

$$$$

     RDKit          3D

 16 14  0  0  0  0  0  0  0  0999 V2000
   -2.7474   -0.5710    0.4036 C   0  0  0  0  0  0  0  0  0  0  0  0
   -1.8548    0.0113    0.9502 C   0  0  0  0  0  0  0  0  0  0  0  0
   -0.7743    0.7083    1.6405 C   0  0  0  0  0  0  0  0  0  0  0  0
   -0.6990    0.3598    3.1282 C   0  0  0  0  0  0  0  0  0  0  0  0
   -3.5398   -1.0879   -0.0817 H   0  0  0  0  0  0  0  0  0  0  0  0
   -0.9154    1.7849    1.5166 H   0  0  0  0  0  0  0  0  0  0  0  0
    0.1202    0.9018    3.6021 H   0  0  0  0  0  0  0  0  0  0  0  0
   -1.6271    0.6251    3.6347 H   0  0  0  0  0  0  0  0  0  0  0  0
   -0.5318   -0.7085    3.2669 H   0  0  0  0  0  0  0  0  0  0  0  0
    1.3270    0.7728    0.0690 C   0  0  0  0  0  0  0  0  0  0  0  0
    1.3270   -0.4257   -0.8132 C   0  0  0  0  0  0  0  0  0  0  0  0
    1.3270   -0.4257   -2.4199 S   0  0  0  0  0  1  0  0  0  0  0  0
    0.2757    0.7405    0.8553 H   0  0  0  0  0  0  0  0  0  0  0  0
    2.2032    0.7459    0.7242 H   0  0  0  0  0  0  0  0  0  0  0  0
    1.3270    1.6966   -0.5057 H   0  0  0  0  0  0  0  0  0  0  0  0
    1.3270   -1.3801   -0.2833 H   0  0  0  0  0  0  0  0  0  0  0  0
  1  2  3  0
  1  5  1  0
  2  3  1  0
  3  4  1  0
  3  6  1  0
  3 13  1  0
  4  7  1  0
  4  8  1  0
  4  9  1  0
 10 11  2  3
 10 14  1  0
 10 15  1  0
 11 12  1  0
 11 16  1  0
M  RAD  1  12   2
M  END
>  <reaction>  (13) 
rxn_1962

>  <mol_properties>  (13) 
{"1": {"label": "*4", "atom_type": "Ct"}, "2": {"label": "*3", "atom_type": "Cs"}, "9": {"label": "*1", "atom_type": "Cs"}, "10": {"label": "*0", "atom_type": "CS"}, "12": {"label": "*2", "atom_type": "H0"}}

>  <type>  (13) 
unop_9

>  <geom_source>  (13) 
Heuristics

$$$$

     RDKit          3D

 16 14  0  0  0  0  0  0  0  0999 V2000
   -1.1015   -1.5301    2.7672 C   0  0  0  0  0  0  0  0  0  0  0  0
   -1.1615   -0.5479    2.0844 C   0  0  0  0  0  0  0  0  0  0  0  0
   -1.2204    0.6632    1.2723 C   0  0  0  0  0  0  0  0  0  0  0  0
   -0.5362    1.8581    1.9389 C   0  0  0  0  0  0  0  0  0  0  0  0
   -1.0483   -2.4021    3.3733 H   0  0  0  0  0  0  0  0  0  0  0  0
   -2.2681    0.8992    1.0693 H   0  0  0  0  0  0  0  0  0  0  0  0
   -0.6045    2.7382    1.2984 H   0  0  0  0  0  0  0  0  0  0  0  0
   -1.0071    2.0894    2.8945 H   0  0  0  0  0  0  0  0  0  0  0  0
    0.5171    1.6467    2.1237 H   0  0  0  0  0  0  0  0  0  0  0  0
    0.8809    0.7278   -0.2992 C   0  0  0  0  0  0  0  0  0  0  0  0
    0.8809   -0.4707   -1.1814 C   0  0  0  0  0  0  0  0  0  0  0  0
    0.8809   -0.4707   -2.7881 S   0  0  0  0  0  1  0  0  0  0  0  0
   -0.1705    0.6955    0.4871 H   0  0  0  0  0  0  0  0  0  0  0  0
    1.7571    0.7009    0.3560 H   0  0  0  0  0  0  0  0  0  0  0  0
    0.8809    1.6515   -0.8739 H   0  0  0  0  0  0  0  0  0  0  0  0
    0.8809   -1.4251   -0.6515 H   0  0  0  0  0  0  0  0  0  0  0  0
  1  2  3  0
  1  5  1  0
  2  3  1  0
  3  4  1  0
  3  6  1  0
  3 13  1  0
  4  7  1  0
  4  8  1  0
  4  9  1  0
 10 11  2  3
 10 14  1  0
 10 15  1  0
 11 12  1  0
 11 16  1  0
M  RAD  1  12   2
M  END
>  <reaction>  (14) 
rxn_1962

>  <mol_properties>  (14) 
{"1": {"label": "*4", "atom_type": "Ct"}, "2": {"label": "*3", "atom_type": "Cs"}, "9": {"label": "*1", "atom_type": "Cs"}, "10": {"label": "*0", "atom_type": "CS"}, "12": {"label": "*2", "atom_type": "H0"}}

>  <type>  (14) 
unop_10

>  <geom_source>  (14) 
Heuristics

$$$$

     RDKit          3D

 16 14  0  0  0  0  0  0  0  0999 V2000
   -1.5726    2.6291    2.0824 C   0  0  0  0  0  0  0  0  0  0  0  0
   -1.2233    1.5117    1.8295 C   0  0  0  0  0  0  0  0  0  0  0  0
   -0.8244    0.1416    1.5235 C   0  0  0  0  0  0  0  0  0  0  0  0
   -2.0051   -0.8311    1.5114 C   0  0  0  0  0  0  0  0  0  0  0  0
   -1.8827    3.6210    2.3070 H   0  0  0  0  0  0  0  0  0  0  0  0
   -0.0833   -0.1810    2.2591 H   0  0  0  0  0  0  0  0  0  0  0  0
   -1.6613   -1.8397    1.2791 H   0  0  0  0  0  0  0  0  0  0  0  0
   -2.4999   -0.8503    2.4826 H   0  0  0  0  0  0  0  0  0  0  0  0
   -2.7410   -0.5364    0.7631 H   0  0  0  0  0  0  0  0  0  0  0  0
    1.2769    0.2061   -0.0480 C   0  0  0  0  0  0  0  0  0  0  0  0
    1.2769   -0.9924   -0.9302 C   0  0  0  0  0  0  0  0  0  0  0  0
    1.2769   -0.9924   -2.5369 S   0  0  0  0  0  1  0  0  0  0  0  0
    0.2255    0.1738    0.7383 H   0  0  0  0  0  0  0  0  0  0  0  0
    2.1530    0.1792    0.6072 H   0  0  0  0  0  0  0  0  0  0  0  0
    1.2769    1.1299   -0.6227 H   0  0  0  0  0  0  0  0  0  0  0  0
    1.2769   -1.9468   -0.4003 H   0  0  0  0  0  0  0  0  0  0  0  0
  1  2  3  0
  1  5  1  0
  2  3  1  0
  3  4  1  0
  3  6  1  0
  3 13  1  0
  4  7  1  0
  4  8  1  0
  4  9  1  0
 10 11  2  3
 10 14  1  0
 10 15  1  0
 11 12  1  0
 11 16  1  0
M  RAD  1  12   2
M  END
>  <reaction>  (15) 
rxn_1962

>  <mol_properties>  (15) 
{"1": {"label": "*4", "atom_type": "Ct"}, "2": {"label": "*3", "atom_type": "Cs"}, "9": {"label": "*1", "atom_type": "Cs"}, "10": {"label": "*0", "atom_type": "CS"}, "12": {"label": "*2", "atom_type": "H0"}}

>  <type>  (15) 
unop_11

>  <geom_source>  (15) 
Heuristics

$$$$

     RDKit          3D

 16 14  0  0  0  0  0  0  0  0999 V2000
   -2.3202   -1.3869    1.0032 C   0  0  0  0  0  0  0  0  0  0  0  0
   -1.6913   -0.3915    1.2228 C   0  0  0  0  0  0  0  0  0  0  0  0
   -0.9224    0.8135    1.5174 C   0  0  0  0  0  0  0  0  0  0  0  0
   -0.4824    0.8933    2.9803 C   0  0  0  0  0  0  0  0  0  0  0  0
   -2.8784   -2.2706    0.8083 H   0  0  0  0  0  0  0  0  0  0  0  0
   -1.5273    1.6872    1.2619 H   0  0  0  0  0  0  0  0  0  0  0  0
    0.0873    1.8069    3.1541 H   0  0  0  0  0  0  0  0  0  0  0  0
   -1.3469    0.8941    3.6444 H   0  0  0  0  0  0  0  0  0  0  0  0
    0.1443    0.0407    3.2425 H   0  0  0  0  0  0  0  0  0  0  0  0
    1.1789    0.8780   -0.0542 C   0  0  0  0  0  0  0  0  0  0  0  0
    1.1789   -0.3205   -0.9363 C   0  0  0  0  0  0  0  0  0  0  0  0
    1.1789   -0.3205   -2.5430 S   0  0  0  0  0  1  0  0  0  0  0  0
    0.1275    0.8457    0.7321 H   0  0  0  0  0  0  0  0  0  0  0  0
    2.0550    0.8511    0.6011 H   0  0  0  0  0  0  0  0  0  0  0  0
    1.1789    1.8018   -0.6288 H   0  0  0  0  0  0  0  0  0  0  0  0
    1.1789   -1.2749   -0.4064 H   0  0  0  0  0  0  0  0  0  0  0  0
  1  2  3  0
  1  5  1  0
  2  3  1  0
  3  4  1  0
  3  6  1  0
  3 13  1  0
  4  7  1  0
  4  8  1  0
  4  9  1  0
 10 11  2  3
 10 14  1  0
 10 15  1  0
 11 12  1  0
 11 16  1  0
M  RAD  1  12   2
M  END
>  <reaction>  (16) 
rxn_1962

>  <mol_properties>  (16) 
{"1": {"label": "*4", "atom_type": "Ct"}, "2": {"label": "*3", "atom_type": "Cs"}, "9": {"label": "*1", "atom_type": "Cs"}, "10": {"label": "*0", "atom_type": "CS"}, "12": {"label": "*2", "atom_type": "H0"}}

>  <type>  (16) 
unop_12

>  <geom_source>  (16) 
Heuristics

$$$$

     RDKit          3D

 16 14  0  0  0  0  0  0  0  0999 V2000
    2.5967    1.4265   -0.3825 S   0  0  0  0  0  0  0  0  0  0  0  0
   -0.8645   -0.1965    0.1997 C   0  0  0  0  0  3  0  0  0  0  0  0
   -1.8359   -0.9464   -0.7013 C   0  0  0  0  0  0  0  0  0  0  0  0
    1.6697   -0.8804    0.1272 C   0  0  0  0  0  0  0  0  0  0  0  0
    2.4006    0.3520    0.5471 C   0  0  0  0  0  0  0  0  0  0  0  0
   -1.0637    1.2520    0.0808 C   0  0  0  0  0  0  0  0  0  0  0  0
   -1.2263    2.4426   -0.0164 C   0  0  0  0  0  0  0  0  0  0  0  0
   -1.0235   -0.5005    1.2558 H   0  0  0  0  0  0  0  0  0  0  0  0
    0.4462   -0.5102   -0.1704 H   0  0  0  0  0  0  0  0  0  0  0  0
   -2.8854   -0.7201   -0.4142 H   0  0  0  0  0  0  0  0  0  0  0  0
   -1.6735   -0.6616   -1.7629 H   0  0  0  0  0  0  0  0  0  0  0  0
   -1.6653   -2.0383   -0.5977 H   0  0  0  0  0  0  0  0  0  0  0  0
    2.7293    0.4657    1.5751 H   0  0  0  0  0  0  0  0  0  0  0  0
    1.5114   -1.5432    1.0035 H   0  0  0  0  0  0  0  0  0  0  0  0
    2.2536   -1.4295   -0.6420 H   0  0  0  0  0  0  0  0  0  0  0  0
   -1.3693    3.4877   -0.1018 H   0  0  0  0  0  0  0  0  0  0  0  0
  1  5  2  0
  2  3  1  0
  2  6  1  0
  2  8  1  0
  3 10  1  0
  3 11  1  0
  3 12  1  0
  4  5  1  0
  4  9  1  0
  4 14  1  0
  4 15  1  0
  5 13  1  0
  6  7  3  0
  7 16  1  0
M  RAD  1   2   2
M  END
>  <reaction>  (17) 
rxn_1962

>  <mol_properties>  (17) 
{"1": {"label": "*4", "atom_type": "Ct"}, "2": {"label": "*3", "atom_type": "Cs"}, "9": {"label": "*1", "atom_type": "Cs"}, "10": {"label": "*0", "atom_type": "CS"}, "12": {"label": "*2", "atom_type": "H0"}}

>  <type>  (17) 
unop_13

>  <geom_source>  (17) 
AutoTST

$$$$
