
     RDKit          3D

 16 15  0  0  0  0  0  0  0  0999 V2000
    1.7961   -0.3807    1.6176 C   0  0  0  0  0  0  0  0  0  0  0  0
    0.8562   -0.8708    0.8256 C   0  0  0  0  0  0  0  0  0  0  0  0
    0.0895   -0.0826   -0.2048 C   0  0  0  0  0  0  0  0  0  0  0  0
   -1.4061   -0.1111    0.0982 C   0  0  0  0  0  0  0  0  0  0  0  0
    0.4476   -0.5902   -1.5797 C   0  0  0  0  0  0  0  0  0  0  0  0
   -0.3793   -1.1113   -2.4728 C   0  0  0  0  0  0  0  0  0  0  0  0
    2.3110   -1.0032    2.3386 H   0  0  0  0  0  0  0  0  0  0  0  0
    2.0846    0.6643    1.5737 H   0  0  0  0  0  0  0  0  0  0  0  0
    0.5921   -1.9241    0.8925 H   0  0  0  0  0  0  0  0  0  0  0  0
    0.4358    0.9557   -0.1462 H   0  0  0  0  0  0  0  0  0  0  0  0
   -1.5968    0.3080    1.0865 H   0  0  0  0  0  0  0  0  0  0  0  0
   -1.9674    0.4693   -0.6359 H   0  0  0  0  0  0  0  0  0  0  0  0
   -1.7902   -1.1338    0.0883 H   0  0  0  0  0  0  0  0  0  0  0  0
    1.5049   -0.5197   -1.8214 H   0  0  0  0  0  0  0  0  0  0  0  0
   -1.4421   -1.2131   -2.2889 H   0  0  0  0  0  0  0  0  0  0  0  0
   -0.0162   -1.4558   -3.4328 H   0  0  0  0  0  0  0  0  0  0  0  0
  1  2  2  3
  1  7  1  0
  1  8  1  0
  2  3  1  0
  2  9  1  0
  3  4  1  0
  3  5  1  0
  3 10  1  0
  4 11  1  0
  4 12  1  0
  4 13  1  0
  5  6  2  3
  5 14  1  0
  6 15  1  0
  6 16  1  0
M  END
>  <reaction>  (1) 
rxn_1211

>  <mol_properties>  (1) 
{"2": {"label": "donator", "atom_type": "Cs"}, "9": {"label": "d_hydrogen", "atom_type": "H0"}}

>  <type>  (1) 
r1h

$$$$

     RDKit          3D

  7  6  0  0  0  0  0  0  0  0999 V2000
   -0.6904   -0.9066   -0.0346 C   0  0  0  0  0  0  0  0  0  0  0  0
    0.1413    0.0254   -0.6161 C   0  0  0  0  0  0  0  0  0  0  0  0
    0.4603    0.1105   -1.9267 C   0  0  0  0  0  3  0  0  0  0  0  0
    0.8318    0.2180   -3.4201 S   0  0  0  0  0  0  0  0  0  0  0  0
   -0.8731   -0.8770    1.0287 H   0  0  0  0  0  0  0  0  0  0  0  0
   -1.1718   -1.6767   -0.6199 H   0  0  0  0  0  0  0  0  0  0  0  0
    0.6090    0.7866    0.0044 H   0  0  0  0  0  0  0  0  0  0  0  0
  1  2  2  3
  1  5  1  0
  1  6  1  0
  2  3  1  0
  2  7  1  0
  3  4  2  0
M  RAD  1   3   2
M  END
>  <reaction>  (2) 
rxn_1211

>  <mol_properties>  (2) 
{"2": {"label": "acceptor", "atom_type": "CS"}}

>  <type>  (2) 
r2

$$$$

     RDKit          3D

  8  7  0  0  0  0  0  0  0  0999 V2000
   -1.1617    0.0338    0.5053 C   0  0  0  0  0  0  0  0  0  0  0  0
   -0.1023    0.4503   -0.1863 C   0  0  0  0  0  0  0  0  0  0  0  0
    1.0978   -0.3557   -0.3104 C   0  0  0  0  0  0  0  0  0  0  0  0
    2.4251    0.0667   -1.1256 S   0  0  0  0  0  0  0  0  0  0  0  0
   -1.1653   -0.9292    1.0039 H   0  0  0  0  0  0  0  0  0  0  0  0
   -2.0546    0.6389    0.5948 H   0  0  0  0  0  0  0  0  0  0  0  0
   -0.0991    1.4132   -0.6847 H   0  0  0  0  0  0  0  0  0  0  0  0
    1.0601   -1.3180    0.2032 H   0  0  0  0  0  0  0  0  0  0  0  0
  1  2  2  3
  1  5  1  0
  1  6  1  0
  2  3  1  0
  2  7  1  0
  3  4  2  0
  3  8  1  0
M  END
>  <reaction>  (3) 
rxn_1211

>  <mol_properties>  (3) 
{"0": {"label": "a_hydrogen", "atom_type": "H0"}, "3": {"label": "acceptor", "atom_type": "CS"}}

>  <type>  (3) 
r2h

$$$$

     RDKit          3D

 23 21  0  0  0  0  0  0  0  0999 V2000
    0.3153   -2.9160   -0.9901 C   0  0  0  0  0  0  0  0  0  0  0  0
   -0.5150   -2.2853   -0.1638 C   0  0  0  0  0  0  0  0  0  0  0  0
   -0.1990   -1.1277    0.7006 C   0  0  0  0  0  0  0  0  0  0  0  0
    1.2421   -0.6727    0.7281 C   0  0  0  0  0  0  0  0  0  0  0  0
   -0.9086   -1.1585    1.9927 C   0  0  0  0  0  0  0  0  0  0  0  0
   -0.4681   -0.6803    3.1544 C   0  0  0  0  0  0  0  0  0  0  0  0
   -0.0273   -3.7472   -1.5926 H   0  0  0  0  0  0  0  0  0  0  0  0
    1.3601   -2.6445   -1.0810 H   0  0  0  0  0  0  0  0  0  0  0  0
   -1.5460   -2.6273   -0.1117 H   0  0  0  0  0  0  0  0  0  0  0  0
   -0.7988   -0.1418    0.1262 H   0  0  0  0  0  0  0  0  0  0  0  0
    1.6299   -0.5391   -0.2826 H   0  0  0  0  0  0  0  0  0  0  0  0
    1.3337    0.2858    1.2401 H   0  0  0  0  0  0  0  0  0  0  0  0
    1.8775   -1.3977    1.2436 H   0  0  0  0  0  0  0  0  0  0  0  0
   -1.9050   -1.5919    1.9608 H   0  0  0  0  0  0  0  0  0  0  0  0
    0.5136   -0.2377    3.2658 H   0  0  0  0  0  0  0  0  0  0  0  0
   -1.0868   -0.7254    4.0410 H   0  0  0  0  0  0  0  0  0  0  0  0
   -0.3202    0.5653   -2.4921 C   0  0  0  0  0  0  0  0  0  0  0  0
   -0.8744    1.4743   -1.6902 C   0  0  0  0  0  0  0  0  0  0  0  0
   -1.2761    1.1660   -0.3371 C   0  0  0  0  0  3  0  0  0  0  0  0
   -1.9739    2.0615    0.7678 S   0  0  0  0  0  0  0  0  0  0  0  0
   -0.0333    0.8184   -3.5051 H   0  0  0  0  0  0  0  0  0  0  0  0
   -0.1491   -0.4526   -2.1616 H   0  0  0  0  0  0  0  0  0  0  0  0
   -1.0514    2.4875   -2.0424 H   0  0  0  0  0  0  0  0  0  0  0  0
  1  2  2  3
  1  7  1  0
  1  8  1  0
  2  3  1  0
  2  9  1  0
  3  4  1  0
  3  5  1  0
  3 10  1  0
  4 11  1  0
  4 12  1  0
  4 13  1  0
  5  6  2  3
  5 14  1  0
  6 15  1  0
  6 16  1  0
 17 18  2  3
 17 21  1  0
 17 22  1  0
 18 19  1  0
 18 23  1  0
 19 20  2  0
M  RAD  1  19   2
M  END
>  <reaction>  (4) 
rxn_1211

>  <mol_properties>  (4) 
{"1": {"label": "*0", "atom_type": "Cd"}, "2": {"label": "*1", "atom_type": "Cs"}, "9": {"label": "*2", "atom_type": "H0"}, "18": {"label": "*3", "atom_type": "CS"}, "19": {"label": "*4", "atom_type": "S2d"}}

>  <type>  (4) 
ts

$$$$

     RDKit          3D

 23 21  0  0  0  0  0  0  0  0999 V2000
    0.0370   -2.2035   -1.4807 C   0  0  0  0  0  0  0  0  0  0  0  0
    0.0370   -2.2035   -0.1574 C   0  0  0  0  0  0  0  0  0  0  0  0
    0.0370   -0.9727    0.7120 C   0  0  0  0  0  3  0  0  0  0  0  0
    1.2754   -0.9429    1.6036 C   0  0  0  0  0  0  0  0  0  0  0  0
   -1.2665   -0.9042    1.4685 C   0  0  0  0  0  0  0  0  0  0  0  0
   -1.4211   -0.9039    2.7834 C   0  0  0  0  0  0  0  0  0  0  0  0
    0.0363   -3.1261   -2.0474 H   0  0  0  0  0  0  0  0  0  0  0  0
    0.0388   -1.2777   -2.0464 H   0  0  0  0  0  0  0  0  0  0  0  0
    0.0323   -3.1493    0.3802 H   0  0  0  0  0  0  0  0  0  0  0  0
    0.0736    0.0716   -0.0869 H   0  0  0  0  0  0  0  0  0  0  0  0
    2.1782   -0.9513    0.9923 H   0  0  0  0  0  0  0  0  0  0  0  0
    1.2901   -0.0472    2.2267 H   0  0  0  0  0  0  0  0  0  0  0  0
    1.3080   -1.8147    2.2612 H   0  0  0  0  0  0  0  0  0  0  0  0
   -2.1496   -0.8684    0.8359 H   0  0  0  0  0  0  0  0  0  0  0  0
   -0.5807   -0.9432    3.4660 H   0  0  0  0  0  0  0  0  0  0  0  0
   -2.4075   -0.8608    3.2276 H   0  0  0  0  0  0  0  0  0  0  0  0
   -1.5925    2.2288    0.4501 C   0  0  0  0  0  0  0  0  0  0  0  0
   -0.5406    2.3003   -0.3638 C   0  0  0  0  0  0  0  0  0  0  0  0
    0.1101    1.1116   -0.8823 C   0  0  0  0  0  0  0  0  0  0  0  0
    1.3860    1.1023   -1.8707 S   0  0  0  0  0  0  0  0  0  0  0  0
   -2.0743    3.1186    0.8341 H   0  0  0  0  0  0  0  0  0  0  0  0
   -2.0032    1.2731    0.7565 H   0  0  0  0  0  0  0  0  0  0  0  0
   -0.1302    3.2560   -0.6700 H   0  0  0  0  0  0  0  0  0  0  0  0
  1  2  2  3
  1  7  1  0
  1  8  1  0
  2  3  1  0
  2  9  1  0
  3  4  1  0
  3  5  1  0
  4 11  1  0
  4 12  1  0
  4 13  1  0
  5  6  2  3
  5 14  1  0
  6 15  1  0
  6 16  1  0
 10 19  1  0
 17 18  2  3
 17 21  1  0
 17 22  1  0
 18 19  1  0
 18 23  1  0
 19 20  2  0
M  RAD  1   3   2
M  END
>  <reaction>  (5) 
rxn_1211

>  <mol_properties>  (5) 
{"1": {"label": "*0", "atom_type": "Cd"}, "2": {"label": "*1", "atom_type": "Cs"}, "9": {"label": "*2", "atom_type": "H0"}, "18": {"label": "*3", "atom_type": "CS"}, "19": {"label": "*4", "atom_type": "S2d"}}

>  <type>  (5) 
unop_1

>  <geom_source>  (5) 
Heuristics

$$$$

     RDKit          3D

 23 21  0  0  0  0  0  0  0  0999 V2000
    0.1807   -2.1769   -1.4405 C   0  0  0  0  0  0  0  0  0  0  0  0
    0.1807   -2.1769   -0.1173 C   0  0  0  0  0  0  0  0  0  0  0  0
    0.1807   -0.9462    0.7521 C   0  0  0  0  0  3  0  0  0  0  0  0
    1.4190   -0.9164    1.6437 C   0  0  0  0  0  0  0  0  0  0  0  0
   -1.1228   -0.8776    1.5086 C   0  0  0  0  0  0  0  0  0  0  0  0
   -1.2775   -0.8773    2.8236 C   0  0  0  0  0  0  0  0  0  0  0  0
    0.1799   -3.0996   -2.0072 H   0  0  0  0  0  0  0  0  0  0  0  0
    0.1824   -1.2511   -2.0062 H   0  0  0  0  0  0  0  0  0  0  0  0
    0.1759   -3.1228    0.4203 H   0  0  0  0  0  0  0  0  0  0  0  0
    0.2173    0.0982   -0.0467 H   0  0  0  0  0  0  0  0  0  0  0  0
    2.3218   -0.9247    1.0325 H   0  0  0  0  0  0  0  0  0  0  0  0
    1.4337   -0.0206    2.2668 H   0  0  0  0  0  0  0  0  0  0  0  0
    1.4516   -1.7881    2.3013 H   0  0  0  0  0  0  0  0  0  0  0  0
   -2.0060   -0.8419    0.8761 H   0  0  0  0  0  0  0  0  0  0  0  0
   -0.4371   -0.9167    3.5061 H   0  0  0  0  0  0  0  0  0  0  0  0
   -2.2639   -0.8342    3.2678 H   0  0  0  0  0  0  0  0  0  0  0  0
   -1.4755    0.1652   -2.2513 C   0  0  0  0  0  0  0  0  0  0  0  0
   -0.8629    1.2423   -1.7628 C   0  0  0  0  0  0  0  0  0  0  0  0
    0.2537    1.1381   -0.8422 C   0  0  0  0  0  0  0  0  0  0  0  0
    1.0542    2.3846   -0.2016 S   0  0  0  0  0  0  0  0  0  0  0  0
   -2.3081    0.2484   -2.9378 H   0  0  0  0  0  0  0  0  0  0  0  0
   -1.1596   -0.8351   -1.9766 H   0  0  0  0  0  0  0  0  0  0  0  0
   -1.1790    2.2424   -2.0377 H   0  0  0  0  0  0  0  0  0  0  0  0
  1  2  2  3
  1  7  1  0
  1  8  1  0
  2  3  1  0
  2  9  1  0
  3  4  1  0
  3  5  1  0
  4 11  1  0
  4 12  1  0
  4 13  1  0
  5  6  2  3
  5 14  1  0
  6 15  1  0
  6 16  1  0
 10 19  1  0
 17 18  2  3
 17 21  1  0
 17 22  1  0
 18 19  1  0
 18 23  1  0
 19 20  2  0
M  RAD  1   3   2
M  END
>  <reaction>  (6) 
rxn_1211

>  <mol_properties>  (6) 
{"1": {"label": "*0", "atom_type": "Cd"}, "2": {"label": "*1", "atom_type": "Cs"}, "9": {"label": "*2", "atom_type": "H0"}, "18": {"label": "*3", "atom_type": "CS"}, "19": {"label": "*4", "atom_type": "S2d"}}

>  <type>  (6) 
unop_2

>  <geom_source>  (6) 
Heuristics

$$$$

     RDKit          3D

 23 21  0  0  0  0  0  0  0  0999 V2000
    0.0837   -2.1936   -1.4284 C   0  0  0  0  0  0  0  0  0  0  0  0
    0.0837   -2.1936   -0.1052 C   0  0  0  0  0  0  0  0  0  0  0  0
    0.0837   -0.9628    0.7643 C   0  0  0  0  0  3  0  0  0  0  0  0
    1.3221   -0.9330    1.6559 C   0  0  0  0  0  0  0  0  0  0  0  0
   -1.2198   -0.8943    1.5208 C   0  0  0  0  0  0  0  0  0  0  0  0
   -1.3744   -0.8940    2.8357 C   0  0  0  0  0  0  0  0  0  0  0  0
    0.0830   -3.1162   -1.9951 H   0  0  0  0  0  0  0  0  0  0  0  0
    0.0855   -1.2678   -1.9941 H   0  0  0  0  0  0  0  0  0  0  0  0
    0.0790   -3.1394    0.4325 H   0  0  0  0  0  0  0  0  0  0  0  0
    0.1203    0.0815   -0.0346 H   0  0  0  0  0  0  0  0  0  0  0  0
    2.2248   -0.9414    1.0446 H   0  0  0  0  0  0  0  0  0  0  0  0
    1.3368   -0.0373    2.2790 H   0  0  0  0  0  0  0  0  0  0  0  0
    1.3547   -1.8048    2.3135 H   0  0  0  0  0  0  0  0  0  0  0  0
   -2.1030   -0.8585    0.8882 H   0  0  0  0  0  0  0  0  0  0  0  0
   -0.5341   -0.9333    3.5182 H   0  0  0  0  0  0  0  0  0  0  0  0
   -2.3608   -0.8509    3.2799 H   0  0  0  0  0  0  0  0  0  0  0  0
    0.1323    2.5046    1.1722 C   0  0  0  0  0  0  0  0  0  0  0  0
    0.1623    2.4063   -0.1558 C   0  0  0  0  0  0  0  0  0  0  0  0
    0.1567    1.1215   -0.8300 C   0  0  0  0  0  0  0  0  0  0  0  0
    0.1912    0.9069   -2.4293 S   0  0  0  0  0  0  0  0  0  0  0  0
    0.1366    3.4655    1.6702 H   0  0  0  0  0  0  0  0  0  0  0  0
    0.1025    1.6220    1.8014 H   0  0  0  0  0  0  0  0  0  0  0  0
    0.1921    3.2890   -0.7847 H   0  0  0  0  0  0  0  0  0  0  0  0
  1  2  2  3
  1  7  1  0
  1  8  1  0
  2  3  1  0
  2  9  1  0
  3  4  1  0
  3  5  1  0
  4 11  1  0
  4 12  1  0
  4 13  1  0
  5  6  2  3
  5 14  1  0
  6 15  1  0
  6 16  1  0
 10 19  1  0
 17 18  2  3
 17 21  1  0
 17 22  1  0
 18 19  1  0
 18 23  1  0
 19 20  2  0
M  RAD  1   3   2
M  END
>  <reaction>  (7) 
rxn_1211

>  <mol_properties>  (7) 
{"1": {"label": "*0", "atom_type": "Cd"}, "2": {"label": "*1", "atom_type": "Cs"}, "9": {"label": "*2", "atom_type": "H0"}, "18": {"label": "*3", "atom_type": "CS"}, "19": {"label": "*4", "atom_type": "S2d"}}

>  <type>  (7) 
unop_3

>  <geom_source>  (7) 
Heuristics

$$$$

     RDKit          3D

 23 21  0  0  0  0  0  0  0  0999 V2000
    0.0119   -2.1458   -1.3815 C   0  0  0  0  0  0  0  0  0  0  0  0
    0.0119   -2.1458   -0.0583 C   0  0  0  0  0  0  0  0  0  0  0  0
    0.0119   -0.9150    0.8111 C   0  0  0  0  0  3  0  0  0  0  0  0
    1.2503   -0.8853    1.7027 C   0  0  0  0  0  0  0  0  0  0  0  0
   -1.2916   -0.8465    1.5676 C   0  0  0  0  0  0  0  0  0  0  0  0
   -1.4462   -0.8462    2.8825 C   0  0  0  0  0  0  0  0  0  0  0  0
    0.0112   -3.0684   -1.9482 H   0  0  0  0  0  0  0  0  0  0  0  0
    0.0137   -1.2200   -1.9472 H   0  0  0  0  0  0  0  0  0  0  0  0
    0.0072   -3.0917    0.4793 H   0  0  0  0  0  0  0  0  0  0  0  0
    0.0485    0.1293    0.0123 H   0  0  0  0  0  0  0  0  0  0  0  0
    2.1531   -0.8936    1.0914 H   0  0  0  0  0  0  0  0  0  0  0  0
    1.2650    0.0105    2.3258 H   0  0  0  0  0  0  0  0  0  0  0  0
    1.2829   -1.7570    2.3603 H   0  0  0  0  0  0  0  0  0  0  0  0
   -2.1748   -0.8107    0.9351 H   0  0  0  0  0  0  0  0  0  0  0  0
   -0.6059   -0.8856    3.5651 H   0  0  0  0  0  0  0  0  0  0  0  0
   -2.4326   -0.8031    3.3268 H   0  0  0  0  0  0  0  0  0  0  0  0
    1.0061   -0.2734   -2.5132 C   0  0  0  0  0  0  0  0  0  0  0  0
    0.7697    0.9504   -2.0436 C   0  0  0  0  0  0  0  0  0  0  0  0
    0.0850    1.1692   -0.7832 C   0  0  0  0  0  0  0  0  0  0  0  0
   -0.2437    2.6117   -0.1381 S   0  0  0  0  0  0  0  0  0  0  0  0
    1.5172   -0.4311   -3.4541 H   0  0  0  0  0  0  0  0  0  0  0  0
    0.6932   -1.1561   -1.9667 H   0  0  0  0  0  0  0  0  0  0  0  0
    1.0827    1.8329   -2.5903 H   0  0  0  0  0  0  0  0  0  0  0  0
  1  2  2  3
  1  7  1  0
  1  8  1  0
  2  3  1  0
  2  9  1  0
  3  4  1  0
  3  5  1  0
  4 11  1  0
  4 12  1  0
  4 13  1  0
  5  6  2  3
  5 14  1  0
  6 15  1  0
  6 16  1  0
 10 19  1  0
 17 18  2  3
 17 21  1  0
 17 22  1  0
 18 19  1  0
 18 23  1  0
 19 20  2  0
M  RAD  1   3   2
M  END
>  <reaction>  (8) 
rxn_1211

>  <mol_properties>  (8) 
{"1": {"label": "*0", "atom_type": "Cd"}, "2": {"label": "*1", "atom_type": "Cs"}, "9": {"label": "*2", "atom_type": "H0"}, "18": {"label": "*3", "atom_type": "CS"}, "19": {"label": "*4", "atom_type": "S2d"}}

>  <type>  (8) 
unop_4

>  <geom_source>  (8) 
Heuristics

$$$$

     RDKit          3D

 23 21  0  0  0  0  0  0  0  0999 V2000
    0.1324   -2.2051   -1.4784 C   0  0  0  0  0  0  0  0  0  0  0  0
    0.1324   -2.2051   -0.1552 C   0  0  0  0  0  0  0  0  0  0  0  0
    0.1324   -0.9743    0.7142 C   0  0  0  0  0  3  0  0  0  0  0  0
    1.3708   -0.9445    1.6058 C   0  0  0  0  0  0  0  0  0  0  0  0
   -1.1711   -0.9058    1.4707 C   0  0  0  0  0  0  0  0  0  0  0  0
   -1.3257   -0.9055    2.7857 C   0  0  0  0  0  0  0  0  0  0  0  0
    0.1317   -3.1277   -2.0451 H   0  0  0  0  0  0  0  0  0  0  0  0
    0.1342   -1.2793   -2.0441 H   0  0  0  0  0  0  0  0  0  0  0  0
    0.1277   -3.1509    0.3825 H   0  0  0  0  0  0  0  0  0  0  0  0
    0.1690    0.0700   -0.0846 H   0  0  0  0  0  0  0  0  0  0  0  0
    2.2736   -0.9529    0.9946 H   0  0  0  0  0  0  0  0  0  0  0  0
    1.3855   -0.0488    2.2289 H   0  0  0  0  0  0  0  0  0  0  0  0
    1.4034   -1.8163    2.2635 H   0  0  0  0  0  0  0  0  0  0  0  0
   -2.0542   -0.8700    0.8382 H   0  0  0  0  0  0  0  0  0  0  0  0
   -0.4853   -0.9448    3.4682 H   0  0  0  0  0  0  0  0  0  0  0  0
   -2.3121   -0.8624    3.2299 H   0  0  0  0  0  0  0  0  0  0  0  0
    1.8794    2.1704    0.5328 C   0  0  0  0  0  0  0  0  0  0  0  0
    0.8704    2.2765   -0.3302 C   0  0  0  0  0  0  0  0  0  0  0  0
    0.2055    1.1100   -0.8800 C   0  0  0  0  0  0  0  0  0  0  0  0
   -1.0215    1.1428   -1.9280 S   0  0  0  0  0  0  0  0  0  0  0  0
    2.3719    3.0438    0.9400 H   0  0  0  0  0  0  0  0  0  0  0  0
    2.2426    1.2017    0.8577 H   0  0  0  0  0  0  0  0  0  0  0  0
    0.5074    3.2453   -0.6548 H   0  0  0  0  0  0  0  0  0  0  0  0
  1  2  2  3
  1  7  1  0
  1  8  1  0
  2  3  1  0
  2  9  1  0
  3  4  1  0
  3  5  1  0
  4 11  1  0
  4 12  1  0
  4 13  1  0
  5  6  2  3
  5 14  1  0
  6 15  1  0
  6 16  1  0
 10 19  1  0
 17 18  2  3
 17 21  1  0
 17 22  1  0
 18 19  1  0
 18 23  1  0
 19 20  2  0
M  RAD  1   3   2
M  END
>  <reaction>  (9) 
rxn_1211

>  <mol_properties>  (9) 
{"1": {"label": "*0", "atom_type": "Cd"}, "2": {"label": "*1", "atom_type": "Cs"}, "9": {"label": "*2", "atom_type": "H0"}, "18": {"label": "*3", "atom_type": "CS"}, "19": {"label": "*4", "atom_type": "S2d"}}

>  <type>  (9) 
unop_5

>  <geom_source>  (9) 
Heuristics

$$$$

     RDKit          3D

 23 21  0  0  0  0  0  0  0  0999 V2000
   -0.0120   -2.1737   -1.4451 C   0  0  0  0  0  0  0  0  0  0  0  0
   -0.0120   -2.1737   -0.1219 C   0  0  0  0  0  0  0  0  0  0  0  0
   -0.0120   -0.9429    0.7475 C   0  0  0  0  0  3  0  0  0  0  0  0
    1.2264   -0.9131    1.6391 C   0  0  0  0  0  0  0  0  0  0  0  0
   -1.3155   -0.8743    1.5040 C   0  0  0  0  0  0  0  0  0  0  0  0
   -1.4701   -0.8741    2.8190 C   0  0  0  0  0  0  0  0  0  0  0  0
   -0.0127   -3.0963   -2.0118 H   0  0  0  0  0  0  0  0  0  0  0  0
   -0.0102   -1.2479   -2.0108 H   0  0  0  0  0  0  0  0  0  0  0  0
   -0.0167   -3.1195    0.4157 H   0  0  0  0  0  0  0  0  0  0  0  0
    0.0246    0.1014   -0.0513 H   0  0  0  0  0  0  0  0  0  0  0  0
    2.1292   -0.9215    1.0279 H   0  0  0  0  0  0  0  0  0  0  0  0
    1.2411   -0.0174    2.2622 H   0  0  0  0  0  0  0  0  0  0  0  0
    1.2590   -1.7849    2.2967 H   0  0  0  0  0  0  0  0  0  0  0  0
   -2.1987   -0.8386    0.8715 H   0  0  0  0  0  0  0  0  0  0  0  0
   -0.6298   -0.9134    3.5015 H   0  0  0  0  0  0  0  0  0  0  0  0
   -2.4565   -0.8310    3.2632 H   0  0  0  0  0  0  0  0  0  0  0  0
    1.8218    0.1097   -2.1728 C   0  0  0  0  0  0  0  0  0  0  0  0
    1.2231    1.2072   -1.7131 C   0  0  0  0  0  0  0  0  0  0  0  0
    0.0611    1.1414   -0.8468 C   0  0  0  0  0  0  0  0  0  0  0  0
   -0.7266    2.4145   -0.2440 S   0  0  0  0  0  0  0  0  0  0  0  0
    2.6884    0.1644   -2.8188 H   0  0  0  0  0  0  0  0  0  0  0  0
    1.4597   -0.8792   -1.9142 H   0  0  0  0  0  0  0  0  0  0  0  0
    1.5854    2.1959   -1.9719 H   0  0  0  0  0  0  0  0  0  0  0  0
  1  2  2  3
  1  7  1  0
  1  8  1  0
  2  3  1  0
  2  9  1  0
  3  4  1  0
  3  5  1  0
  4 11  1  0
  4 12  1  0
  4 13  1  0
  5  6  2  3
  5 14  1  0
  6 15  1  0
  6 16  1  0
 10 19  1  0
 17 18  2  3
 17 21  1  0
 17 22  1  0
 18 19  1  0
 18 23  1  0
 19 20  2  0
M  RAD  1   3   2
M  END
>  <reaction>  (10) 
rxn_1211

>  <mol_properties>  (10) 
{"1": {"label": "*0", "atom_type": "Cd"}, "2": {"label": "*1", "atom_type": "Cs"}, "9": {"label": "*2", "atom_type": "H0"}, "18": {"label": "*3", "atom_type": "CS"}, "19": {"label": "*4", "atom_type": "S2d"}}

>  <type>  (10) 
unop_6

>  <geom_source>  (10) 
Heuristics

$$$$

     RDKit          3D

 23 21  0  0  0  0  0  0  0  0999 V2000
    0.0200   -2.2013   -1.5015 C   0  0  0  0  0  0  0  0  0  0  0  0
    0.0200   -2.2013   -0.1783 C   0  0  0  0  0  0  0  0  0  0  0  0
    0.0200   -0.9705    0.6911 C   0  0  0  0  0  3  0  0  0  0  0  0
    1.2584   -0.9407    1.5827 C   0  0  0  0  0  0  0  0  0  0  0  0
   -1.2835   -0.9019    1.4476 C   0  0  0  0  0  0  0  0  0  0  0  0
   -1.4381   -0.9017    2.7626 C   0  0  0  0  0  0  0  0  0  0  0  0
    0.0193   -3.1239   -2.0682 H   0  0  0  0  0  0  0  0  0  0  0  0
    0.0218   -1.2755   -2.0672 H   0  0  0  0  0  0  0  0  0  0  0  0
    0.0153   -3.1471    0.3593 H   0  0  0  0  0  0  0  0  0  0  0  0
    0.0566    0.0738   -0.1077 H   0  0  0  0  0  0  0  0  0  0  0  0
    2.1612   -0.9491    0.9715 H   0  0  0  0  0  0  0  0  0  0  0  0
    1.2731   -0.0450    2.2058 H   0  0  0  0  0  0  0  0  0  0  0  0
    1.2910   -1.8125    2.2403 H   0  0  0  0  0  0  0  0  0  0  0  0
   -2.1667   -0.8662    0.8151 H   0  0  0  0  0  0  0  0  0  0  0  0
   -0.5978   -0.9410    3.4451 H   0  0  0  0  0  0  0  0  0  0  0  0
   -2.4245   -0.8586    3.2068 H   0  0  0  0  0  0  0  0  0  0  0  0
    2.4207    0.7296   -1.5005 C   0  0  0  0  0  0  0  0  0  0  0  0
    1.4256    1.5766   -1.2428 C   0  0  0  0  0  0  0  0  0  0  0  0
    0.0931    1.1138   -0.9032 C   0  0  0  0  0  0  0  0  0  0  0  0
   -1.1697    2.0643   -0.5765 S   0  0  0  0  0  0  0  0  0  0  0  0
    3.4130    1.0800   -1.7534 H   0  0  0  0  0  0  0  0  0  0  0  0
    2.2697   -0.3436   -1.4656 H   0  0  0  0  0  0  0  0  0  0  0  0
    1.5770    2.6497   -1.2778 H   0  0  0  0  0  0  0  0  0  0  0  0
  1  2  2  3
  1  7  1  0
  1  8  1  0
  2  3  1  0
  2  9  1  0
  3  4  1  0
  3  5  1  0
  4 11  1  0
  4 12  1  0
  4 13  1  0
  5  6  2  3
  5 14  1  0
  6 15  1  0
  6 16  1  0
 10 19  1  0
 17 18  2  3
 17 21  1  0
 17 22  1  0
 18 19  1  0
 18 23  1  0
 19 20  2  0
M  RAD  1   3   2
M  END
>  <reaction>  (11) 
rxn_1211

>  <mol_properties>  (11) 
{"1": {"label": "*0", "atom_type": "Cd"}, "2": {"label": "*1", "atom_type": "Cs"}, "9": {"label": "*2", "atom_type": "H0"}, "18": {"label": "*3", "atom_type": "CS"}, "19": {"label": "*4", "atom_type": "S2d"}}

>  <type>  (11) 
unop_7

>  <geom_source>  (11) 
Heuristics

$$$$

     RDKit          3D

 23 21  0  0  0  0  0  0  0  0999 V2000
    0.0862   -2.2133   -1.5184 C   0  0  0  0  0  0  0  0  0  0  0  0
    0.0862   -2.2133   -0.1952 C   0  0  0  0  0  0  0  0  0  0  0  0
    0.0862   -0.9825    0.6742 C   0  0  0  0  0  3  0  0  0  0  0  0
    1.3246   -0.9527    1.5658 C   0  0  0  0  0  0  0  0  0  0  0  0
   -1.2173   -0.9139    1.4307 C   0  0  0  0  0  0  0  0  0  0  0  0
   -1.3719   -0.9137    2.7457 C   0  0  0  0  0  0  0  0  0  0  0  0
    0.0855   -3.1359   -2.0851 H   0  0  0  0  0  0  0  0  0  0  0  0
    0.0880   -1.2875   -2.0841 H   0  0  0  0  0  0  0  0  0  0  0  0
    0.0815   -3.1591    0.3425 H   0  0  0  0  0  0  0  0  0  0  0  0
    0.1228    0.0619   -0.1246 H   0  0  0  0  0  0  0  0  0  0  0  0
    2.2273   -0.9611    0.9546 H   0  0  0  0  0  0  0  0  0  0  0  0
    1.3392   -0.0569    2.1889 H   0  0  0  0  0  0  0  0  0  0  0  0
    1.3572   -1.8245    2.2234 H   0  0  0  0  0  0  0  0  0  0  0  0
   -2.1005   -0.8782    0.7982 H   0  0  0  0  0  0  0  0  0  0  0  0
   -0.5316   -0.9530    3.4282 H   0  0  0  0  0  0  0  0  0  0  0  0
   -2.3583   -0.8706    3.1899 H   0  0  0  0  0  0  0  0  0  0  0  0
   -2.2166    1.5602   -0.6593 C   0  0  0  0  0  0  0  0  0  0  0  0
   -0.9688    2.0058   -0.7956 C   0  0  0  0  0  0  0  0  0  0  0  0
    0.1592    1.1018   -0.9201 C   0  0  0  0  0  0  0  0  0  0  0  0
    1.7003    1.5506   -1.0884 S   0  0  0  0  0  0  0  0  0  0  0  0
   -3.0546    2.2388   -0.5668 H   0  0  0  0  0  0  0  0  0  0  0  0
   -2.4357    0.4984   -0.6364 H   0  0  0  0  0  0  0  0  0  0  0  0
   -0.7501    3.0676   -0.8184 H   0  0  0  0  0  0  0  0  0  0  0  0
  1  2  2  3
  1  7  1  0
  1  8  1  0
  2  3  1  0
  2  9  1  0
  3  4  1  0
  3  5  1  0
  4 11  1  0
  4 12  1  0
  4 13  1  0
  5  6  2  3
  5 14  1  0
  6 15  1  0
  6 16  1  0
 10 19  1  0
 17 18  2  3
 17 21  1  0
 17 22  1  0
 18 19  1  0
 18 23  1  0
 19 20  2  0
M  RAD  1   3   2
M  END
>  <reaction>  (12) 
rxn_1211

>  <mol_properties>  (12) 
{"1": {"label": "*0", "atom_type": "Cd"}, "2": {"label": "*1", "atom_type": "Cs"}, "9": {"label": "*2", "atom_type": "H0"}, "18": {"label": "*3", "atom_type": "CS"}, "19": {"label": "*4", "atom_type": "S2d"}}

>  <type>  (12) 
unop_8

>  <geom_source>  (12) 
Heuristics

$$$$

     RDKit          3D

 23 21  0  0  0  0  0  0  0  0999 V2000
    0.1505   -2.2035   -1.4984 C   0  0  0  0  0  0  0  0  0  0  0  0
    0.1505   -2.2035   -0.1752 C   0  0  0  0  0  0  0  0  0  0  0  0
    0.1505   -0.9727    0.6942 C   0  0  0  0  0  3  0  0  0  0  0  0
    1.3889   -0.9429    1.5858 C   0  0  0  0  0  0  0  0  0  0  0  0
   -1.1530   -0.9041    1.4507 C   0  0  0  0  0  0  0  0  0  0  0  0
   -1.3076   -0.9039    2.7657 C   0  0  0  0  0  0  0  0  0  0  0  0
    0.1498   -3.1261   -2.0651 H   0  0  0  0  0  0  0  0  0  0  0  0
    0.1523   -1.2777   -2.0641 H   0  0  0  0  0  0  0  0  0  0  0  0
    0.1458   -3.1493    0.3625 H   0  0  0  0  0  0  0  0  0  0  0  0
    0.1871    0.0717   -0.1046 H   0  0  0  0  0  0  0  0  0  0  0  0
    2.2916   -0.9513    0.9746 H   0  0  0  0  0  0  0  0  0  0  0  0
    1.4036   -0.0471    2.2089 H   0  0  0  0  0  0  0  0  0  0  0  0
    1.4215   -1.8147    2.2434 H   0  0  0  0  0  0  0  0  0  0  0  0
   -2.0362   -0.8684    0.8182 H   0  0  0  0  0  0  0  0  0  0  0  0
   -0.4673   -0.9432    3.4482 H   0  0  0  0  0  0  0  0  0  0  0  0
   -2.2940   -0.8608    3.2099 H   0  0  0  0  0  0  0  0  0  0  0  0
   -2.0847    0.8054   -1.6078 C   0  0  0  0  0  0  0  0  0  0  0  0
   -1.0750    1.6187   -1.3023 C   0  0  0  0  0  0  0  0  0  0  0  0
    0.2235    1.1116   -0.9001 C   0  0  0  0  0  0  0  0  0  0  0  0
    1.5006    2.0194   -0.5129 S   0  0  0  0  0  0  0  0  0  0  0  0
   -3.0514    1.1888   -1.9073 H   0  0  0  0  0  0  0  0  0  0  0  0
   -1.9716   -0.2723   -1.5666 H   0  0  0  0  0  0  0  0  0  0  0  0
   -1.1885    2.6962   -1.3437 H   0  0  0  0  0  0  0  0  0  0  0  0
  1  2  2  3
  1  7  1  0
  1  8  1  0
  2  3  1  0
  2  9  1  0
  3  4  1  0
  3  5  1  0
  4 11  1  0
  4 12  1  0
  4 13  1  0
  5  6  2  3
  5 14  1  0
  6 15  1  0
  6 16  1  0
 10 19  1  0
 17 18  2  3
 17 21  1  0
 17 22  1  0
 18 19  1  0
 18 23  1  0
 19 20  2  0
M  RAD  1   3   2
M  END
>  <reaction>  (13) 
rxn_1211

>  <mol_properties>  (13) 
{"1": {"label": "*0", "atom_type": "Cd"}, "2": {"label": "*1", "atom_type": "Cs"}, "9": {"label": "*2", "atom_type": "H0"}, "18": {"label": "*3", "atom_type": "CS"}, "19": {"label": "*4", "atom_type": "S2d"}}

>  <type>  (13) 
unop_9

>  <geom_source>  (13) 
Heuristics

$$$$

     RDKit          3D

 23 21  0  0  0  0  0  0  0  0999 V2000
    0.0848   -2.2132   -1.5184 C   0  0  0  0  0  0  0  0  0  0  0  0
    0.0848   -2.2132   -0.1952 C   0  0  0  0  0  0  0  0  0  0  0  0
    0.0848   -0.9825    0.6742 C   0  0  0  0  0  3  0  0  0  0  0  0
    1.3232   -0.9527    1.5658 C   0  0  0  0  0  0  0  0  0  0  0  0
   -1.2187   -0.9139    1.4307 C   0  0  0  0  0  0  0  0  0  0  0  0
   -1.3733   -0.9137    2.7456 C   0  0  0  0  0  0  0  0  0  0  0  0
    0.0841   -3.1359   -2.0851 H   0  0  0  0  0  0  0  0  0  0  0  0
    0.0866   -1.2875   -2.0841 H   0  0  0  0  0  0  0  0  0  0  0  0
    0.0801   -3.1591    0.3424 H   0  0  0  0  0  0  0  0  0  0  0  0
    0.1214    0.0619   -0.1246 H   0  0  0  0  0  0  0  0  0  0  0  0
    2.2260   -0.9610    0.9546 H   0  0  0  0  0  0  0  0  0  0  0  0
    1.3379   -0.0569    2.1889 H   0  0  0  0  0  0  0  0  0  0  0  0
    1.3558   -1.8244    2.2234 H   0  0  0  0  0  0  0  0  0  0  0  0
   -2.1018   -0.8782    0.7982 H   0  0  0  0  0  0  0  0  0  0  0  0
   -0.5329   -0.9530    3.4282 H   0  0  0  0  0  0  0  0  0  0  0  0
   -2.3597   -0.8705    3.1899 H   0  0  0  0  0  0  0  0  0  0  0  0
    2.5326    1.4802   -0.5462 C   0  0  0  0  0  0  0  0  0  0  0  0
    1.3085    1.9675   -0.7413 C   0  0  0  0  0  0  0  0  0  0  0  0
    0.1579    1.1018   -0.9201 C   0  0  0  0  0  0  0  0  0  0  0  0
   -1.3575    1.6020   -1.1613 S   0  0  0  0  0  0  0  0  0  0  0  0
    3.3876    2.1304   -0.4134 H   0  0  0  0  0  0  0  0  0  0  0  0
    2.7146    0.4117   -0.5137 H   0  0  0  0  0  0  0  0  0  0  0  0
    1.1269    3.0360   -0.7737 H   0  0  0  0  0  0  0  0  0  0  0  0
  1  2  2  3
  1  7  1  0
  1  8  1  0
  2  3  1  0
  2  9  1  0
  3  4  1  0
  3  5  1  0
  4 11  1  0
  4 12  1  0
  4 13  1  0
  5  6  2  3
  5 14  1  0
  6 15  1  0
  6 16  1  0
 10 19  1  0
 17 18  2  3
 17 21  1  0
 17 22  1  0
 18 19  1  0
 18 23  1  0
 19 20  2  0
M  RAD  1   3   2
M  END
>  <reaction>  (14) 
rxn_1211

>  <mol_properties>  (14) 
{"1": {"label": "*0", "atom_type": "Cd"}, "2": {"label": "*1", "atom_type": "Cs"}, "9": {"label": "*2", "atom_type": "H0"}, "18": {"label": "*3", "atom_type": "CS"}, "19": {"label": "*4", "atom_type": "S2d"}}

>  <type>  (14) 
unop_10

>  <geom_source>  (14) 
Heuristics

$$$$

     RDKit          3D

 23 20  0  0  0  0  0  0  0  0999 V2000
    0.1547   -2.1482   -1.3781 C   0  0  0  0  0  2  0  0  0  0  0  0
    0.1547   -2.1482   -0.0549 C   0  0  0  0  0  3  0  0  0  0  0  0
    0.1547   -0.9174    0.8145 C   0  0  0  0  0  0  0  0  0  0  0  0
    1.3931   -0.8877    1.7061 C   0  0  0  0  0  0  0  0  0  0  0  0
   -1.1488   -0.8489    1.5710 C   0  0  0  0  0  0  0  0  0  0  0  0
   -1.3034   -0.8486    2.8859 C   0  0  0  0  0  0  0  0  0  0  0  0
    0.1540   -3.0709   -1.9448 H   0  0  0  0  0  0  0  0  0  0  0  0
    0.1565   -1.2224   -1.9438 H   0  0  0  0  0  0  0  0  0  0  0  0
    0.1500   -3.0941    0.4827 H   0  0  0  0  0  0  0  0  0  0  0  0
    0.1913    0.1269    0.0157 H   0  0  0  0  0  0  0  0  0  0  0  0
    2.2959   -0.8960    1.0948 H   0  0  0  0  0  0  0  0  0  0  0  0
    1.4078    0.0081    2.3292 H   0  0  0  0  0  0  0  0  0  0  0  0
    1.4257   -1.7594    2.3637 H   0  0  0  0  0  0  0  0  0  0  0  0
   -2.0319   -0.8131    0.9385 H   0  0  0  0  0  0  0  0  0  0  0  0
   -0.4630   -0.8880    3.5685 H   0  0  0  0  0  0  0  0  0  0  0  0
   -2.2898   -0.8055    3.3302 H   0  0  0  0  0  0  0  0  0  0  0  0
   -0.6579   -0.2454   -2.5529 C   0  0  0  0  0  0  0  0  0  0  0  0
   -0.4031    0.9702   -2.0715 C   0  0  0  0  0  0  0  0  0  0  0  0
    0.2278    1.1668   -0.7798 C   0  0  0  0  0  0  0  0  0  0  0  0
    0.5736    2.5979   -0.1186 S   0  0  0  0  0  0  0  0  0  0  0  0
   -1.1287   -0.3866   -3.5171 H   0  0  0  0  0  0  0  0  0  0  0  0
   -0.4012   -1.1377   -1.9928 H   0  0  0  0  0  0  0  0  0  0  0  0
   -0.6599    1.8622   -2.6318 H   0  0  0  0  0  0  0  0  0  0  0  0
  1  7  1  0
  1  8  1  0
  2  3  2  3
  2  9  1  0
  3  4  1  0
  3  5  1  0
  4 11  1  0
  4 12  1  0
  4 13  1  0
  5  6  2  3
  5 14  1  0
  6 15  1  0
  6 16  1  0
 10 19  1  0
 17 18  2  3
 17 21  1  0
 17 22  1  0
 18 19  1  0
 18 23  1  0
 19 20  2  0
M  RAD  2   1   3   2   2
M  END
>  <reaction>  (15) 
rxn_1211

>  <mol_properties>  (15) 
{"1": {"label": "*0", "atom_type": "Cd"}, "2": {"label": "*1", "atom_type": "Cs"}, "9": {"label": "*2", "atom_type": "H0"}, "18": {"label": "*3", "atom_type": "CS"}, "19": {"label": "*4", "atom_type": "S2d"}}

>  <type>  (15) 
unop_11

>  <geom_source>  (15) 
Heuristics

$$$$

     RDKit          3D

 23 21  0  0  0  0  0  0  0  0999 V2000
    1.7572    1.0851   -2.1350 S   0  0  0  0  0  0  0  0  0  0  0  0
   -2.7410   -0.2668   -0.2393 C   0  0  0  0  0  0  0  0  0  0  0  0
   -1.2796    0.0652    0.0501 C   0  0  0  0  0  3  0  0  0  0  0  0
   -0.8686   -0.4413    1.4000 C   0  0  0  0  0  0  0  0  0  0  0  0
   -1.0320    1.5406   -0.0483 C   0  0  0  0  0  0  0  0  0  0  0  0
    1.9125   -0.7556   -0.1082 C   0  0  0  0  0  0  0  0  0  0  0  0
    3.1651   -1.1065   -0.3998 C   0  0  0  0  0  0  0  0  0  0  0  0
    1.1491    0.2624   -0.8536 C   0  0  0  0  0  0  0  0  0  0  0  0
    0.1269   -1.3203    1.5189 C   0  0  0  0  0  0  0  0  0  0  0  0
   -0.1486    2.0219   -0.9234 C   0  0  0  0  0  0  0  0  0  0  0  0
   -3.0119    0.0836   -1.2578 H   0  0  0  0  0  0  0  0  0  0  0  0
   -2.8924   -1.3662   -0.1983 H   0  0  0  0  0  0  0  0  0  0  0  0
   -3.4106    0.2202    0.5026 H   0  0  0  0  0  0  0  0  0  0  0  0
    1.4199   -1.2425    0.7237 H   0  0  0  0  0  0  0  0  0  0  0  0
   -1.3814   -0.0863    2.2898 H   0  0  0  0  0  0  0  0  0  0  0  0
   -1.5718    2.2240    0.6016 H   0  0  0  0  0  0  0  0  0  0  0  0
    3.7112   -0.6572   -1.2184 H   0  0  0  0  0  0  0  0  0  0  0  0
    3.6623   -1.8632    0.1932 H   0  0  0  0  0  0  0  0  0  0  0  0
   -0.0717    0.5213   -0.4741 H   0  0  0  0  0  0  0  0  0  0  0  0
    0.4198   -1.6798    2.4999 H   0  0  0  0  0  0  0  0  0  0  0  0
    0.6550   -1.6862    0.6433 H   0  0  0  0  0  0  0  0  0  0  0  0
    0.4041    1.3569   -1.5804 H   0  0  0  0  0  0  0  0  0  0  0  0
    0.0265    3.0909   -0.9863 H   0  0  0  0  0  0  0  0  0  0  0  0
  1  8  2  0
  2  3  1  0
  2 11  1  0
  2 12  1  0
  2 13  1  0
  3  4  1  0
  3  5  1  0
  4  9  2  3
  4 15  1  0
  5 10  2  3
  5 16  1  0
  6  7  2  3
  6  8  1  0
  6 14  1  0
  7 17  1  0
  7 18  1  0
  8 19  1  0
  9 20  1  0
  9 21  1  0
 10 22  1  0
 10 23  1  0
M  RAD  1   3   2
M  END
>  <reaction>  (16) 
rxn_1211

>  <mol_properties>  (16) 
{"1": {"label": "*0", "atom_type": "Cd"}, "2": {"label": "*1", "atom_type": "Cs"}, "9": {"label": "*2", "atom_type": "H0"}, "18": {"label": "*3", "atom_type": "CS"}, "19": {"label": "*4", "atom_type": "S2d"}}

>  <type>  (16) 
unop_12

>  <geom_source>  (16) 
AutoTST

$$$$
