
     RDKit          3D

  4  3  0  0  0  0  0  0  0  0999 V2000
    1.6123   -0.2971    0.0070 N   0  0  0  0  0  2  0  0  0  0  0  0
    0.4838    0.0022    0.2070 C   0  0  0  0  0  0  0  0  0  0  0  0
   -0.6848    0.4027    0.4950 N   0  0  0  0  0  0  0  0  0  0  0  0
   -1.4113   -0.1079   -0.0045 H   0  0  0  0  0  0  0  0  0  0  0  0
  1  2  2  0
  2  3  2  0
  3  4  1  0
M  RAD  1   1   2
M  END
>  <reaction>  (1) 
rxn_62

>  <mol_properties>  (1) 
{"2": {"label": "donator", "atom_type": "N3d"}, "3": {"label": "d_hydrogen", "atom_type": "H0"}}

>  <type>  (1) 
r1h

$$$$

     RDKit          3D

  2  1  0  0  0  0  0  0  0  0999 V2000
    0.0000    0.0000    0.5973 O   0  0  0  0  0  1  0  0  0  0  0  0
    0.0000    0.0000   -0.5973 O   0  0  0  0  0  1  0  0  0  0  0  0
  1  2  1  0
M  RAD  2   1   2   2   2
M  END
>  <reaction>  (2) 
rxn_62

>  <mol_properties>  (2) 
{"1": {"label": "acceptor", "atom_type": "O2s"}}

>  <type>  (2) 
r2

$$$$

     RDKit          3D

  3  2  0  0  0  0  0  0  0  0999 V2000
    0.9943   -0.1797    0.0000 O   0  0  0  0  0  1  0  0  0  0  0  0
   -0.1595    0.4394    0.0000 O   0  0  0  0  0  0  0  0  0  0  0  0
   -0.8348   -0.2597    0.0000 H   0  0  0  0  0  0  0  0  0  0  0  0
  1  2  1  0
  2  3  1  0
M  RAD  1   1   2
M  END
>  <reaction>  (3) 
rxn_62

>  <mol_properties>  (3) 
{"1": {"label": "acceptor", "atom_type": "O2s"}, "2": {"label": "a_hydrogen", "atom_type": "H0"}}

>  <type>  (3) 
r2h

$$$$

     RDKit          3D

  6  4  0  0  0  0  0  0  0  0999 V2000
    0.0000   -1.5584    0.2327 O   0  0  0  0  0  1  0  0  0  0  0  0
    0.0000   -0.9528    1.3443 O   0  0  0  0  0  0  0  0  0  0  0  0
   -0.0000    0.6501   -1.9111 N   0  0  0  0  0  0  0  0  0  0  0  0
   -0.0000    1.0212   -0.7539 C   0  0  0  0  0  0  0  0  0  0  0  0
   -0.0000    1.3803    0.4173 N   0  0  0  0  0  1  0  0  0  0  0  0
    0.0000    0.0977    1.1404 H   0  0  0  0  0  0  0  0  0  0  0  0
  1  2  1  0
  2  6  1  0
  3  4  3  0
  4  5  1  0
M  RAD  2   1   2   5   3
M  END
>  <reaction>  (4) 
rxn_62

>  <mol_properties>  (4) 
{"0": {"label": "*0", "atom_type": "O2s"}, "1": {"label": "*1", "atom_type": "O2s"}, "3": {"label": "*4", "atom_type": "Ct"}, "4": {"label": "*3", "atom_type": "N3s"}, "5": {"label": "*2", "atom_type": "H0"}}

>  <type>  (4) 
ts

$$$$

     RDKit          3D

  6  4  0  0  0  0  0  0  0  0999 V2000
    0.8521   -1.1429    1.8650 O   0  0  0  0  0  1  0  0  0  0  0  0
   -0.2391   -1.1246    1.1415 O   0  0  0  0  0  0  0  0  0  0  0  0
   -0.2391    0.8685   -2.4290 N   0  0  0  0  0  0  0  0  0  0  0  0
   -0.2391    0.8685   -1.2444 C   0  0  0  0  0  0  0  0  0  0  0  0
   -0.2391    0.9842    0.0187 N   0  0  0  0  0  1  0  0  0  0  0  0
   -0.2391   -0.0949    0.5932 H   0  0  0  0  0  0  0  0  0  0  0  0
  1  2  1  0
  2  6  1  0
  3  4  3  0
  4  5  1  0
M  RAD  2   1   2   5   3
M  END
>  <reaction>  (5) 
rxn_62

>  <mol_properties>  (5) 
{"0": {"label": "*0", "atom_type": "O2s"}, "1": {"label": "*1", "atom_type": "O2s"}, "3": {"label": "*4", "atom_type": "Ct"}, "4": {"label": "*3", "atom_type": "N3s"}, "5": {"label": "*2", "atom_type": "H0"}}

>  <type>  (5) 
unop_1

>  <geom_source>  (5) 
Heuristics

$$$$

     RDKit          3D

  6  4  0  0  0  0  0  0  0  0999 V2000
    0.4920   -1.7746    0.6786 O   0  0  0  0  0  1  0  0  0  0  0  0
   -0.1380   -0.9473    1.4743 O   0  0  0  0  0  0  0  0  0  0  0  0
   -0.1380    1.0457   -2.0961 N   0  0  0  0  0  0  0  0  0  0  0  0
   -0.1380    1.0457   -0.9116 C   0  0  0  0  0  0  0  0  0  0  0  0
   -0.1380    1.1614    0.3515 N   0  0  0  0  0  1  0  0  0  0  0  0
   -0.1380    0.0823    0.9261 H   0  0  0  0  0  0  0  0  0  0  0  0
  1  2  1  0
  2  6  1  0
  3  4  3  0
  4  5  1  0
M  RAD  2   1   2   5   3
M  END
>  <reaction>  (6) 
rxn_62

>  <mol_properties>  (6) 
{"0": {"label": "*0", "atom_type": "O2s"}, "1": {"label": "*1", "atom_type": "O2s"}, "3": {"label": "*4", "atom_type": "Ct"}, "4": {"label": "*3", "atom_type": "N3s"}, "5": {"label": "*2", "atom_type": "H0"}}

>  <type>  (6) 
unop_2

>  <geom_source>  (6) 
Heuristics

$$$$

     RDKit          3D

  6  4  0  0  0  0  0  0  0  0999 V2000
    0.4920   -0.9737    2.1829 O   0  0  0  0  0  1  0  0  0  0  0  0
   -0.1380   -1.1720    1.0523 O   0  0  0  0  0  0  0  0  0  0  0  0
   -0.1380    0.8210   -2.5182 N   0  0  0  0  0  0  0  0  0  0  0  0
   -0.1380    0.8210   -1.3336 C   0  0  0  0  0  0  0  0  0  0  0  0
   -0.1380    0.9367   -0.0705 N   0  0  0  0  0  1  0  0  0  0  0  0
   -0.1380   -0.1424    0.5040 H   0  0  0  0  0  0  0  0  0  0  0  0
  1  2  1  0
  2  6  1  0
  3  4  3  0
  4  5  1  0
M  RAD  2   1   2   5   3
M  END
>  <reaction>  (7) 
rxn_62

>  <mol_properties>  (7) 
{"0": {"label": "*0", "atom_type": "O2s"}, "1": {"label": "*1", "atom_type": "O2s"}, "3": {"label": "*4", "atom_type": "Ct"}, "4": {"label": "*3", "atom_type": "N3s"}, "5": {"label": "*2", "atom_type": "H0"}}

>  <type>  (7) 
unop_3

>  <geom_source>  (7) 
Heuristics

$$$$

     RDKit          3D

  6  4  0  0  0  0  0  0  0  0999 V2000
   -0.8521   -1.6054    0.9965 O   0  0  0  0  0  1  0  0  0  0  0  0
    0.2391   -0.9948    1.3851 O   0  0  0  0  0  0  0  0  0  0  0  0
    0.2391    0.9982   -2.1853 N   0  0  0  0  0  0  0  0  0  0  0  0
    0.2391    0.9982   -1.0008 C   0  0  0  0  0  0  0  0  0  0  0  0
    0.2391    1.1139    0.2623 N   0  0  0  0  0  1  0  0  0  0  0  0
    0.2391    0.0348    0.8369 H   0  0  0  0  0  0  0  0  0  0  0  0
  1  2  1  0
  2  6  1  0
  3  4  3  0
  4  5  1  0
M  RAD  2   1   2   5   3
M  END
>  <reaction>  (8) 
rxn_62

>  <mol_properties>  (8) 
{"0": {"label": "*0", "atom_type": "O2s"}, "1": {"label": "*1", "atom_type": "O2s"}, "3": {"label": "*4", "atom_type": "Ct"}, "4": {"label": "*3", "atom_type": "N3s"}, "5": {"label": "*2", "atom_type": "H0"}}

>  <type>  (8) 
unop_4

>  <geom_source>  (8) 
Heuristics

$$$$

     RDKit          3D

  6  4  0  0  0  0  0  0  0  0999 V2000
    0.0000   -0.9117    2.2992 O   0  0  0  0  0  1  0  0  0  0  0  0
    0.0000   -1.1894    1.0196 O   0  0  0  0  0  0  0  0  0  0  0  0
   -0.0000    0.8036   -2.5508 N   0  0  0  0  0  0  0  0  0  0  0  0
   -0.0000    0.8036   -1.3663 C   0  0  0  0  0  0  0  0  0  0  0  0
   -0.0000    0.9193   -0.1032 N   0  0  0  0  0  1  0  0  0  0  0  0
    0.0000   -0.1598    0.4714 H   0  0  0  0  0  0  0  0  0  0  0  0
  1  2  1  0
  2  6  1  0
  3  4  3  0
  4  5  1  0
M  RAD  2   1   2   5   3
M  END
>  <reaction>  (9) 
rxn_62

>  <mol_properties>  (9) 
{"0": {"label": "*0", "atom_type": "O2s"}, "1": {"label": "*1", "atom_type": "O2s"}, "3": {"label": "*4", "atom_type": "Ct"}, "4": {"label": "*3", "atom_type": "N3s"}, "5": {"label": "*2", "atom_type": "H0"}}

>  <type>  (9) 
unop_5

>  <geom_source>  (9) 
Heuristics

$$$$

     RDKit          3D

  6  4  0  0  0  0  0  0  0  0999 V2000
   -0.9839   -1.3742    1.4307 O   0  0  0  0  0  1  0  0  0  0  0  0
    0.2761   -1.0597    1.2633 O   0  0  0  0  0  0  0  0  0  0  0  0
    0.2761    0.9333   -2.3072 N   0  0  0  0  0  0  0  0  0  0  0  0
    0.2761    0.9333   -1.1226 C   0  0  0  0  0  0  0  0  0  0  0  0
    0.2761    1.0491    0.1405 N   0  0  0  0  0  1  0  0  0  0  0  0
    0.2761   -0.0300    0.7151 H   0  0  0  0  0  0  0  0  0  0  0  0
  1  2  1  0
  2  6  1  0
  3  4  3  0
  4  5  1  0
M  RAD  2   1   2   5   3
M  END
>  <reaction>  (10) 
rxn_62

>  <mol_properties>  (10) 
{"0": {"label": "*0", "atom_type": "O2s"}, "1": {"label": "*1", "atom_type": "O2s"}, "3": {"label": "*4", "atom_type": "Ct"}, "4": {"label": "*3", "atom_type": "N3s"}, "5": {"label": "*2", "atom_type": "H0"}}

>  <type>  (10) 
unop_6

>  <geom_source>  (10) 
Heuristics

$$$$

     RDKit          3D

  6  4  0  0  0  0  0  0  0  0999 V2000
   -0.8521   -1.1429    1.8650 O   0  0  0  0  0  1  0  0  0  0  0  0
    0.2391   -1.1245    1.1415 O   0  0  0  0  0  0  0  0  0  0  0  0
    0.2391    0.8685   -2.4290 N   0  0  0  0  0  0  0  0  0  0  0  0
    0.2391    0.8685   -1.2444 C   0  0  0  0  0  0  0  0  0  0  0  0
    0.2391    0.9842    0.0187 N   0  0  0  0  0  1  0  0  0  0  0  0
    0.2391   -0.0949    0.5932 H   0  0  0  0  0  0  0  0  0  0  0  0
  1  2  1  0
  2  6  1  0
  3  4  3  0
  4  5  1  0
M  RAD  2   1   2   5   3
M  END
>  <reaction>  (11) 
rxn_62

>  <mol_properties>  (11) 
{"0": {"label": "*0", "atom_type": "O2s"}, "1": {"label": "*1", "atom_type": "O2s"}, "3": {"label": "*4", "atom_type": "Ct"}, "4": {"label": "*3", "atom_type": "N3s"}, "5": {"label": "*2", "atom_type": "H0"}}

>  <type>  (11) 
unop_7

>  <geom_source>  (11) 
Heuristics

$$$$

     RDKit          3D

  6  4  0  0  0  0  0  0  0  0999 V2000
    0.9839   -1.3742    1.4307 O   0  0  0  0  0  1  0  0  0  0  0  0
   -0.2761   -1.0597    1.2633 O   0  0  0  0  0  0  0  0  0  0  0  0
   -0.2761    0.9333   -2.3072 N   0  0  0  0  0  0  0  0  0  0  0  0
   -0.2761    0.9333   -1.1226 C   0  0  0  0  0  0  0  0  0  0  0  0
   -0.2761    1.0490    0.1405 N   0  0  0  0  0  1  0  0  0  0  0  0
   -0.2761   -0.0300    0.7151 H   0  0  0  0  0  0  0  0  0  0  0  0
  1  2  1  0
  2  6  1  0
  3  4  3  0
  4  5  1  0
M  RAD  2   1   2   5   3
M  END
>  <reaction>  (12) 
rxn_62

>  <mol_properties>  (12) 
{"0": {"label": "*0", "atom_type": "O2s"}, "1": {"label": "*1", "atom_type": "O2s"}, "3": {"label": "*4", "atom_type": "Ct"}, "4": {"label": "*3", "atom_type": "N3s"}, "5": {"label": "*2", "atom_type": "H0"}}

>  <type>  (12) 
unop_8

>  <geom_source>  (12) 
Heuristics

$$$$

     RDKit          3D

  6  4  0  0  0  0  0  0  0  0999 V2000
   -0.4920   -1.7746    0.6786 O   0  0  0  0  0  1  0  0  0  0  0  0
    0.1380   -0.9473    1.4743 O   0  0  0  0  0  0  0  0  0  0  0  0
    0.1380    1.0457   -2.0961 N   0  0  0  0  0  0  0  0  0  0  0  0
    0.1380    1.0457   -0.9116 C   0  0  0  0  0  0  0  0  0  0  0  0
    0.1380    1.1614    0.3515 N   0  0  0  0  0  1  0  0  0  0  0  0
    0.1380    0.0823    0.9261 H   0  0  0  0  0  0  0  0  0  0  0  0
  1  2  1  0
  2  6  1  0
  3  4  3  0
  4  5  1  0
M  RAD  2   1   2   5   3
M  END
>  <reaction>  (13) 
rxn_62

>  <mol_properties>  (13) 
{"0": {"label": "*0", "atom_type": "O2s"}, "1": {"label": "*1", "atom_type": "O2s"}, "3": {"label": "*4", "atom_type": "Ct"}, "4": {"label": "*3", "atom_type": "N3s"}, "5": {"label": "*2", "atom_type": "H0"}}

>  <type>  (13) 
unop_9

>  <geom_source>  (13) 
Heuristics

$$$$

     RDKit          3D

  6  4  0  0  0  0  0  0  0  0999 V2000
    0.8521   -1.6054    0.9965 O   0  0  0  0  0  1  0  0  0  0  0  0
   -0.2391   -0.9948    1.3851 O   0  0  0  0  0  0  0  0  0  0  0  0
   -0.2391    0.9982   -2.1853 N   0  0  0  0  0  0  0  0  0  0  0  0
   -0.2391    0.9982   -1.0008 C   0  0  0  0  0  0  0  0  0  0  0  0
   -0.2391    1.1139    0.2623 N   0  0  0  0  0  1  0  0  0  0  0  0
   -0.2391    0.0348    0.8369 H   0  0  0  0  0  0  0  0  0  0  0  0
  1  2  1  0
  2  6  1  0
  3  4  3  0
  4  5  1  0
M  RAD  2   1   2   5   3
M  END
>  <reaction>  (14) 
rxn_62

>  <mol_properties>  (14) 
{"0": {"label": "*0", "atom_type": "O2s"}, "1": {"label": "*1", "atom_type": "O2s"}, "3": {"label": "*4", "atom_type": "Ct"}, "4": {"label": "*3", "atom_type": "N3s"}, "5": {"label": "*2", "atom_type": "H0"}}

>  <type>  (14) 
unop_10

>  <geom_source>  (14) 
Heuristics

$$$$

     RDKit          3D

  6  4  0  0  0  0  0  0  0  0999 V2000
   -0.4920   -0.9737    2.1829 O   0  0  0  0  0  1  0  0  0  0  0  0
    0.1380   -1.1720    1.0523 O   0  0  0  0  0  0  0  0  0  0  0  0
    0.1380    0.8210   -2.5182 N   0  0  0  0  0  0  0  0  0  0  0  0
    0.1380    0.8210   -1.3336 C   0  0  0  0  0  0  0  0  0  0  0  0
    0.1380    0.9367   -0.0705 N   0  0  0  0  0  1  0  0  0  0  0  0
    0.1380   -0.1424    0.5040 H   0  0  0  0  0  0  0  0  0  0  0  0
  1  2  1  0
  2  6  1  0
  3  4  3  0
  4  5  1  0
M  RAD  2   1   2   5   3
M  END
>  <reaction>  (15) 
rxn_62

>  <mol_properties>  (15) 
{"0": {"label": "*0", "atom_type": "O2s"}, "1": {"label": "*1", "atom_type": "O2s"}, "3": {"label": "*4", "atom_type": "Ct"}, "4": {"label": "*3", "atom_type": "N3s"}, "5": {"label": "*2", "atom_type": "H0"}}

>  <type>  (15) 
unop_11

>  <geom_source>  (15) 
Heuristics

$$$$

     RDKit          3D

  6  4  0  0  0  0  0  0  0  0999 V2000
    0.0000   -1.8366    0.5622 O   0  0  0  0  0  1  0  0  0  0  0  0
    0.0000   -0.9299    1.5070 O   0  0  0  0  0  0  0  0  0  0  0  0
   -0.0000    1.0631   -2.0635 N   0  0  0  0  0  0  0  0  0  0  0  0
   -0.0000    1.0631   -0.8789 C   0  0  0  0  0  0  0  0  0  0  0  0
   -0.0000    1.1788    0.3842 N   0  0  0  0  0  1  0  0  0  0  0  0
   -0.0000    0.0997    0.9587 H   0  0  0  0  0  0  0  0  0  0  0  0
  1  2  1  0
  2  6  1  0
  3  4  3  0
  4  5  1  0
M  RAD  2   1   2   5   3
M  END
>  <reaction>  (16) 
rxn_62

>  <mol_properties>  (16) 
{"0": {"label": "*0", "atom_type": "O2s"}, "1": {"label": "*1", "atom_type": "O2s"}, "3": {"label": "*4", "atom_type": "Ct"}, "4": {"label": "*3", "atom_type": "N3s"}, "5": {"label": "*2", "atom_type": "H0"}}

>  <type>  (16) 
unop_12

>  <geom_source>  (16) 
Heuristics

$$$$
