
     RDKit          3D

 22 23  0  0  0  0  0  0  0  0999 V2000
   -2.1093   -0.3263    0.3079 C   0  0  0  0  0  0  0  0  0  0  0  0
   -1.3270    0.9803    0.4115 C   0  0  0  0  0  0  0  0  0  0  0  0
   -0.1818    0.8289   -0.6044 C   0  0  0  0  0  0  0  0  0  0  0  0
    1.1682    1.3904   -0.1341 C   0  0  0  0  0  0  0  0  0  0  0  0
    1.8508    0.2041    0.5479 C   0  0  0  0  0  0  0  0  0  0  0  0
    1.4982   -0.9663   -0.3710 C   0  0  0  0  0  0  0  0  0  0  0  0
    0.0340   -0.7124   -0.7594 C   0  0  0  0  0  0  0  0  0  0  0  0
   -0.9986   -1.3650    0.1756 C   0  0  0  0  0  0  0  0  0  0  0  0
   -2.7686   -0.5042    1.1589 H   0  0  0  0  0  0  0  0  0  0  0  0
   -2.7285   -0.3223   -0.5943 H   0  0  0  0  0  0  0  0  0  0  0  0
   -1.9339    1.8682    0.2289 H   0  0  0  0  0  0  0  0  0  0  0  0
   -0.9144    1.0729    1.4218 H   0  0  0  0  0  0  0  0  0  0  0  0
   -0.4804    1.2763   -1.5535 H   0  0  0  0  0  0  0  0  0  0  0  0
    1.7667    1.7058   -0.9931 H   0  0  0  0  0  0  0  0  0  0  0  0
    1.0540    2.2578    0.5189 H   0  0  0  0  0  0  0  0  0  0  0  0
    1.4197    0.0438    1.5410 H   0  0  0  0  0  0  0  0  0  0  0  0
    2.9248    0.3413    0.6788 H   0  0  0  0  0  0  0  0  0  0  0  0
    2.1362   -0.9329   -1.2584 H   0  0  0  0  0  0  0  0  0  0  0  0
    1.6421   -1.9421    0.0966 H   0  0  0  0  0  0  0  0  0  0  0  0
   -0.1575   -1.0299   -1.7854 H   0  0  0  0  0  0  0  0  0  0  0  0
   -1.3459   -2.3310   -0.1933 H   0  0  0  0  0  0  0  0  0  0  0  0
   -0.5489   -1.5373    1.1593 H   0  0  0  0  0  0  0  0  0  0  0  0
  1  2  1  0
  1  8  1  0
  1  9  1  0
  1 10  1  0
  2  3  1  0
  2 11  1  0
  2 12  1  0
  3  4  1  0
  3  7  1  0
  3 13  1  0
  4  5  1  0
  4 14  1  0
  4 15  1  0
  5  6  1  0
  5 16  1  0
  5 17  1  0
  6  7  1  0
  6 18  1  0
  6 19  1  0
  7  8  1  0
  7 20  1  0
  8 21  1  0
  8 22  1  0
M  END
>  <reaction>  (1) 
rxn_573

>  <mol_properties>  (1) 
{"2": {"label": "donator", "atom_type": "Cs"}, "12": {"label": "d_hydrogen", "atom_type": "H0"}}

>  <type>  (1) 
r1h

$$$$

     RDKit          3D

  8  7  0  0  0  0  0  0  0  0999 V2000
    1.4038   -0.4003    0.0140 C   0  0  0  0  0  0  0  0  0  0  0  0
    0.2804    0.0563    0.4920 C   0  0  0  0  0  3  0  0  0  0  0  0
   -1.0935    0.3323    0.0625 C   0  0  0  0  0  0  0  0  0  0  0  0
    1.4898   -0.7154   -1.0285 H   0  0  0  0  0  0  0  0  0  0  0  0
    2.2990   -0.4891    0.6210 H   0  0  0  0  0  0  0  0  0  0  0  0
   -1.3399    1.3883    0.1900 H   0  0  0  0  0  0  0  0  0  0  0  0
   -1.2285    0.0762   -0.9967 H   0  0  0  0  0  0  0  0  0  0  0  0
   -1.8111   -0.2482    0.6457 H   0  0  0  0  0  0  0  0  0  0  0  0
  1  2  2  3
  1  4  1  0
  1  5  1  0
  2  3  1  0
  3  6  1  0
  3  7  1  0
  3  8  1  0
M  RAD  1   2   2
M  END
>  <reaction>  (2) 
rxn_573

>  <mol_properties>  (2) 
{"1": {"label": "acceptor", "atom_type": "Cd"}}

>  <type>  (2) 
r2

$$$$

     RDKit          3D

  9  8  0  0  0  0  0  0  0  0999 V2000
    1.1303   -0.2933   -0.7510 C   0  0  0  0  0  0  0  0  0  0  0  0
    0.2866    0.4560   -0.0588 C   0  0  0  0  0  0  0  0  0  0  0  0
   -0.9719   -0.0331    0.5823 C   0  0  0  0  0  0  0  0  0  0  0  0
    2.0274    0.1230   -1.1916 H   0  0  0  0  0  0  0  0  0  0  0  0
    0.9532   -1.3530   -0.9023 H   0  0  0  0  0  0  0  0  0  0  0  0
    0.5065    1.5132    0.0659 H   0  0  0  0  0  0  0  0  0  0  0  0
   -0.9526    0.1426    1.6610 H   0  0  0  0  0  0  0  0  0  0  0  0
   -1.1182   -1.1002    0.4106 H   0  0  0  0  0  0  0  0  0  0  0  0
   -1.8412    0.5010    0.1901 H   0  0  0  0  0  0  0  0  0  0  0  0
  1  2  2  3
  1  4  1  0
  1  5  1  0
  2  3  1  0
  2  6  1  0
  3  7  1  0
  3  8  1  0
  3  9  1  0
M  END
>  <reaction>  (3) 
rxn_573

>  <mol_properties>  (3) 
{"1": {"label": "acceptor", "atom_type": "Cd"}, "8": {"label": "a_hydrogen", "atom_type": "H0"}}

>  <type>  (3) 
r2h

$$$$

     RDKit          3D

 30 30  0  0  0  0  0  0  0  0999 V2000
   -2.8146    0.1898    1.3431 C   0  0  0  0  0  0  0  0  0  0  0  0
   -2.1583   -0.7966    0.7743 C   0  0  0  0  0  3  0  0  0  0  0  0
   -2.5860   -2.1618    0.3922 C   0  0  0  0  0  0  0  0  0  0  0  0
   -3.8618    0.0942    1.6287 H   0  0  0  0  0  0  0  0  0  0  0  0
   -2.3383    1.1423    1.5526 H   0  0  0  0  0  0  0  0  0  0  0  0
   -1.9805   -2.9153    0.9017 H   0  0  0  0  0  0  0  0  0  0  0  0
   -3.6371   -2.3380    0.6440 H   0  0  0  0  0  0  0  0  0  0  0  0
   -2.4595   -2.3212   -0.6815 H   0  0  0  0  0  0  0  0  0  0  0  0
    0.6715   -0.5513   -2.1854 C   0  0  0  0  0  0  0  0  0  0  0  0
    0.9037   -1.1884   -0.8146 C   0  0  0  0  0  0  0  0  0  0  0  0
    0.3733   -0.1579    0.1751 C   0  0  1  0  0  0  0  0  0  0  0  0
    1.1426    0.0605    1.4700 C   0  0  0  0  0  0  0  0  0  0  0  0
    1.9994    1.2975    1.1769 C   0  0  0  0  0  0  0  0  0  0  0  0
    1.0642    2.1839    0.3503 C   0  0  0  0  0  0  0  0  0  0  0  0
    0.3144    1.1993   -0.5593 C   0  0  1  0  0  0  0  0  0  0  0  0
    0.9633    0.9256   -1.9252 C   0  0  0  0  0  0  0  0  0  0  0  0
    1.2906   -0.9840   -2.9724 H   0  0  0  0  0  0  0  0  0  0  0  0
   -0.3747   -0.6751   -2.4807 H   0  0  0  0  0  0  0  0  0  0  0  0
    0.4283   -2.1659   -0.7049 H   0  0  0  0  0  0  0  0  0  0  0  0
    1.9781   -1.3376   -0.6531 H   0  0  0  0  0  0  0  0  0  0  0  0
   -0.8087   -0.4967    0.4600 H   0  0  0  0  0  0  0  0  0  0  0  0
    0.4509    0.2785    2.2899 H   0  0  0  0  0  0  0  0  0  0  0  0
    1.7288   -0.8122    1.7631 H   0  0  0  0  0  0  0  0  0  0  0  0
    2.8684    1.0105    0.5770 H   0  0  0  0  0  0  0  0  0  0  0  0
    2.3726    1.7875    2.0773 H   0  0  0  0  0  0  0  0  0  0  0  0
    0.3603    2.6893    1.0171 H   0  0  0  0  0  0  0  0  0  0  0  0
    1.5904    2.9565   -0.2131 H   0  0  0  0  0  0  0  0  0  0  0  0
   -0.7207    1.5146   -0.7130 H   0  0  0  0  0  0  0  0  0  0  0  0
    0.5923    1.5878   -2.7087 H   0  0  0  0  0  0  0  0  0  0  0  0
    2.0463    1.0747   -1.8559 H   0  0  0  0  0  0  0  0  0  0  0  0
  1  2  2  3
  1  4  1  0
  1  5  1  0
  2  3  1  0
  3  6  1  0
  3  7  1  0
  3  8  1  0
  9 10  1  0
  9 16  1  0
  9 17  1  0
  9 18  1  0
 10 11  1  0
 10 19  1  0
 10 20  1  0
 11 12  1  0
 11 15  1  0
 11 21  1  1
 12 13  1  0
 12 22  1  0
 12 23  1  0
 13 14  1  0
 13 24  1  0
 13 25  1  0
 14 15  1  0
 14 26  1  0
 14 27  1  0
 15 16  1  0
 15 28  1  6
 16 29  1  0
 16 30  1  0
M  RAD  1   2   2
M  END
>  <reaction>  (4) 
rxn_573

>  <mol_properties>  (4) 
{"0": {"label": "*4", "atom_type": "Cd"}, "1": {"label": "*3", "atom_type": "Cd"}, "10": {"label": "*1", "atom_type": "Cs"}, "14": {"label": "*0", "atom_type": "Cs"}, "20": {"label": "*2", "atom_type": "H0"}}

>  <type>  (4) 
ts

$$$$

     RDKit          3D

 30 30  0  0  0  0  0  0  0  0999 V2000
   -2.6382   -0.9970    1.9206 C   0  0  0  0  0  0  0  0  0  0  0  0
   -2.0777   -1.1415    0.7301 C   0  0  0  0  0  0  0  0  0  0  0  0
   -2.7718   -0.9390   -0.5781 C   0  0  0  0  0  0  0  0  0  0  0  0
   -3.6794   -0.7108    2.0250 H   0  0  0  0  0  0  0  0  0  0  0  0
   -2.0789   -1.1590    2.8335 H   0  0  0  0  0  0  0  0  0  0  0  0
   -2.7442   -1.8520   -1.1784 H   0  0  0  0  0  0  0  0  0  0  0  0
   -3.8146   -0.6527   -0.4360 H   0  0  0  0  0  0  0  0  0  0  0  0
   -2.2776   -0.1598   -1.1641 H   0  0  0  0  0  0  0  0  0  0  0  0
    1.2714   -1.2854   -1.5813 C   0  0  0  0  0  0  0  0  0  0  0  0
    1.2714   -1.2854   -0.0549 C   0  0  0  0  0  0  0  0  0  0  0  0
    0.3081   -0.1506    0.3335 C   0  0  0  0  0  3  0  0  0  0  0  0
    0.7608    0.6880    1.5379 C   0  0  0  0  0  0  0  0  0  0  0  0
    1.5728    1.8262    0.9185 C   0  0  0  0  0  0  0  0  0  0  0  0
    0.7608    2.1858   -0.3264 C   0  0  0  0  0  0  0  0  0  0  0  0
    0.3081    0.8290   -0.8857 C   0  0  0  0  0  0  0  0  0  0  0  0
    1.2714    0.2052   -1.9102 C   0  0  0  0  0  0  0  0  0  0  0  0
    2.1163   -1.8235   -2.0137 H   0  0  0  0  0  0  0  0  0  0  0  0
    0.3556   -1.7522   -1.9564 H   0  0  0  0  0  0  0  0  0  0  0  0
    0.9871   -2.2437    0.3817 H   0  0  0  0  0  0  0  0  0  0  0  0
    2.2796   -1.0528    0.3044 H   0  0  0  0  0  0  0  0  0  0  0  0
   -0.8870   -0.6469    0.5322 H   0  0  0  0  0  0  0  0  0  0  0  0
   -0.1070    1.1048    2.0564 H   0  0  0  0  0  0  0  0  0  0  0  0
    1.3239    0.1012    2.2662 H   0  0  0  0  0  0  0  0  0  0  0  0
    2.5639    1.4643    0.6278 H   0  0  0  0  0  0  0  0  0  0  0  0
    1.7208    2.6685    1.5953 H   0  0  0  0  0  0  0  0  0  0  0  0
   -0.1070    2.7818   -0.0310 H   0  0  0  0  0  0  0  0  0  0  0  0
    1.3239    2.7705   -1.0562 H   0  0  0  0  0  0  0  0  0  0  0  0
   -0.6878    0.9015   -1.3253 H   0  0  0  0  0  0  0  0  0  0  0  0
    0.9871    0.4251   -2.9401 H   0  0  0  0  0  0  0  0  0  0  0  0
    2.2796    0.6062   -1.7605 H   0  0  0  0  0  0  0  0  0  0  0  0
  1  2  2  3
  1  4  1  0
  1  5  1  0
  2  3  1  0
  2 21  1  0
  3  6  1  0
  3  7  1  0
  3  8  1  0
  9 16  1  0
  9 10  1  0
  9 17  1  0
  9 18  1  0
 10 11  1  0
 10 19  1  0
 10 20  1  0
 11 12  1  0
 11 15  1  0
 12 13  1  0
 12 22  1  0
 12 23  1  0
 13 14  1  0
 13 24  1  0
 13 25  1  0
 14 15  1  0
 14 26  1  0
 14 27  1  0
 15 16  1  0
 15 28  1  0
 16 29  1  0
 16 30  1  0
M  RAD  1  11   2
M  END
>  <reaction>  (5) 
rxn_573

>  <mol_properties>  (5) 
{"0": {"label": "*4", "atom_type": "Cd"}, "1": {"label": "*3", "atom_type": "Cd"}, "10": {"label": "*1", "atom_type": "Cs"}, "14": {"label": "*0", "atom_type": "Cs"}, "20": {"label": "*2", "atom_type": "H0"}}

>  <type>  (5) 
unop_1

>  <geom_source>  (5) 
Heuristics

$$$$

     RDKit          3D

 30 30  0  0  0  0  0  0  0  0999 V2000
   -2.1902   -2.3350    1.1024 C   0  0  0  0  0  0  0  0  0  0  0  0
   -2.0815   -1.0916    0.6614 C   0  0  0  0  0  0  0  0  0  0  0  0
   -3.1636   -0.0619    0.7147 C   0  0  0  0  0  0  0  0  0  0  0  0
   -3.1097   -2.6989    1.5486 H   0  0  0  0  0  0  0  0  0  0  0  0
   -1.3663   -3.0342    1.0344 H   0  0  0  0  0  0  0  0  0  0  0  0
   -3.4087    0.2971   -0.2882 H   0  0  0  0  0  0  0  0  0  0  0  0
   -4.0718   -0.4611    1.1681 H   0  0  0  0  0  0  0  0  0  0  0  0
   -2.8439    0.8087    1.2932 H   0  0  0  0  0  0  0  0  0  0  0  0
    1.2676   -1.2355   -1.6500 C   0  0  0  0  0  0  0  0  0  0  0  0
    1.2676   -1.2355   -0.1236 C   0  0  0  0  0  0  0  0  0  0  0  0
    0.3043   -0.1007    0.2648 C   0  0  0  0  0  3  0  0  0  0  0  0
    0.7570    0.7378    1.4692 C   0  0  0  0  0  0  0  0  0  0  0  0
    1.5690    1.8760    0.8498 C   0  0  0  0  0  0  0  0  0  0  0  0
    0.7570    2.2356   -0.3951 C   0  0  0  0  0  0  0  0  0  0  0  0
    0.3043    0.8788   -0.9545 C   0  0  0  0  0  0  0  0  0  0  0  0
    1.2676    0.2551   -1.9789 C   0  0  0  0  0  0  0  0  0  0  0  0
    2.1125   -1.7737   -2.0824 H   0  0  0  0  0  0  0  0  0  0  0  0
    0.3518   -1.7023   -2.0251 H   0  0  0  0  0  0  0  0  0  0  0  0
    0.9833   -2.1938    0.3130 H   0  0  0  0  0  0  0  0  0  0  0  0
    2.2758   -1.0029    0.2357 H   0  0  0  0  0  0  0  0  0  0  0  0
   -0.8908   -0.5971    0.4634 H   0  0  0  0  0  0  0  0  0  0  0  0
   -0.1108    1.1546    1.9876 H   0  0  0  0  0  0  0  0  0  0  0  0
    1.3201    0.1511    2.1975 H   0  0  0  0  0  0  0  0  0  0  0  0
    2.5601    1.5142    0.5591 H   0  0  0  0  0  0  0  0  0  0  0  0
    1.7169    2.7183    1.5266 H   0  0  0  0  0  0  0  0  0  0  0  0
   -0.1108    2.8317   -0.0998 H   0  0  0  0  0  0  0  0  0  0  0  0
    1.3201    2.8204   -1.1249 H   0  0  0  0  0  0  0  0  0  0  0  0
   -0.6916    0.9514   -1.3940 H   0  0  0  0  0  0  0  0  0  0  0  0
    0.9833    0.4750   -3.0088 H   0  0  0  0  0  0  0  0  0  0  0  0
    2.2758    0.6561   -1.8292 H   0  0  0  0  0  0  0  0  0  0  0  0
  1  2  2  3
  1  4  1  0
  1  5  1  0
  2  3  1  0
  2 21  1  0
  3  6  1  0
  3  7  1  0
  3  8  1  0
  9 16  1  0
  9 10  1  0
  9 17  1  0
  9 18  1  0
 10 11  1  0
 10 19  1  0
 10 20  1  0
 11 12  1  0
 11 15  1  0
 12 13  1  0
 12 22  1  0
 12 23  1  0
 13 14  1  0
 13 24  1  0
 13 25  1  0
 14 15  1  0
 14 26  1  0
 14 27  1  0
 15 16  1  0
 15 28  1  0
 16 29  1  0
 16 30  1  0
M  RAD  1  11   2
M  END
>  <reaction>  (6) 
rxn_573

>  <mol_properties>  (6) 
{"0": {"label": "*4", "atom_type": "Cd"}, "1": {"label": "*3", "atom_type": "Cd"}, "10": {"label": "*1", "atom_type": "Cs"}, "14": {"label": "*0", "atom_type": "Cs"}, "20": {"label": "*2", "atom_type": "H0"}}

>  <type>  (6) 
unop_2

>  <geom_source>  (6) 
Heuristics

$$$$

     RDKit          3D

 30 30  0  0  0  0  0  0  0  0999 V2000
   -2.8801   -0.5012    1.6284 C   0  0  0  0  0  0  0  0  0  0  0  0
   -2.0801   -1.0947    0.7565 C   0  0  0  0  0  0  0  0  0  0  0  0
   -2.5255   -1.7611   -0.5051 C   0  0  0  0  0  0  0  0  0  0  0  0
   -3.9534   -0.4599    1.4748 H   0  0  0  0  0  0  0  0  0  0  0  0
   -2.4936   -0.0355    2.5261 H   0  0  0  0  0  0  0  0  0  0  0  0
   -2.2366   -2.8152   -0.5112 H   0  0  0  0  0  0  0  0  0  0  0  0
   -3.6077   -1.7007   -0.6273 H   0  0  0  0  0  0  0  0  0  0  0  0
   -2.0544   -1.2987   -1.3764 H   0  0  0  0  0  0  0  0  0  0  0  0
    1.2690   -1.2386   -1.5549 C   0  0  0  0  0  0  0  0  0  0  0  0
    1.2690   -1.2386   -0.0284 C   0  0  0  0  0  0  0  0  0  0  0  0
    0.3056   -0.1039    0.3599 C   0  0  0  0  0  3  0  0  0  0  0  0
    0.7584    0.7347    1.5644 C   0  0  0  0  0  0  0  0  0  0  0  0
    1.5704    1.8729    0.9450 C   0  0  0  0  0  0  0  0  0  0  0  0
    0.7584    2.2325   -0.2999 C   0  0  0  0  0  0  0  0  0  0  0  0
    0.3056    0.8757   -0.8593 C   0  0  0  0  0  0  0  0  0  0  0  0
    1.2690    0.2520   -1.8837 C   0  0  0  0  0  0  0  0  0  0  0  0
    2.1138   -1.7768   -1.9873 H   0  0  0  0  0  0  0  0  0  0  0  0
    0.3531   -1.7055   -1.9299 H   0  0  0  0  0  0  0  0  0  0  0  0
    0.9846   -2.1970    0.4082 H   0  0  0  0  0  0  0  0  0  0  0  0
    2.2771   -1.0061    0.3309 H   0  0  0  0  0  0  0  0  0  0  0  0
   -0.8894   -0.6002    0.5586 H   0  0  0  0  0  0  0  0  0  0  0  0
   -0.1095    1.1515    2.0828 H   0  0  0  0  0  0  0  0  0  0  0  0
    1.3214    0.1480    2.2926 H   0  0  0  0  0  0  0  0  0  0  0  0
    2.5615    1.5110    0.6543 H   0  0  0  0  0  0  0  0  0  0  0  0
    1.7183    2.7152    1.6217 H   0  0  0  0  0  0  0  0  0  0  0  0
   -0.1095    2.8285   -0.0046 H   0  0  0  0  0  0  0  0  0  0  0  0
    1.3214    2.8173   -1.0298 H   0  0  0  0  0  0  0  0  0  0  0  0
   -0.6903    0.9482   -1.2989 H   0  0  0  0  0  0  0  0  0  0  0  0
    0.9846    0.4718   -2.9136 H   0  0  0  0  0  0  0  0  0  0  0  0
    2.2771    0.6529   -1.7340 H   0  0  0  0  0  0  0  0  0  0  0  0
  1  2  2  3
  1  4  1  0
  1  5  1  0
  2  3  1  0
  2 21  1  0
  3  6  1  0
  3  7  1  0
  3  8  1  0
  9 16  1  0
  9 10  1  0
  9 17  1  0
  9 18  1  0
 10 11  1  0
 10 19  1  0
 10 20  1  0
 11 12  1  0
 11 15  1  0
 12 13  1  0
 12 22  1  0
 12 23  1  0
 13 14  1  0
 13 24  1  0
 13 25  1  0
 14 15  1  0
 14 26  1  0
 14 27  1  0
 15 16  1  0
 15 28  1  0
 16 29  1  0
 16 30  1  0
M  RAD  1  11   2
M  END
>  <reaction>  (7) 
rxn_573

>  <mol_properties>  (7) 
{"0": {"label": "*4", "atom_type": "Cd"}, "1": {"label": "*3", "atom_type": "Cd"}, "10": {"label": "*1", "atom_type": "Cs"}, "14": {"label": "*0", "atom_type": "Cs"}, "20": {"label": "*2", "atom_type": "H0"}}

>  <type>  (7) 
unop_3

>  <geom_source>  (7) 
Heuristics

$$$$

     RDKit          3D

 30 30  0  0  0  0  0  0  0  0999 V2000
   -2.6771   -1.7548   -0.3000 C   0  0  0  0  0  0  0  0  0  0  0  0
   -2.0737   -1.1270    0.6970 C   0  0  0  0  0  0  0  0  0  0  0  0
   -2.7655   -0.3373    1.7609 C   0  0  0  0  0  0  0  0  0  0  0  0
   -3.7561   -1.7342   -0.4114 H   0  0  0  0  0  0  0  0  0  0  0  0
   -2.1169   -2.3116   -1.0406 H   0  0  0  0  0  0  0  0  0  0  0  0
   -2.4190    0.6994    1.7631 H   0  0  0  0  0  0  0  0  0  0  0  0
   -3.8468   -0.3378    1.6183 H   0  0  0  0  0  0  0  0  0  0  0  0
   -2.5486   -0.7455    2.7514 H   0  0  0  0  0  0  0  0  0  0  0  0
    1.2754   -1.2709   -1.6144 C   0  0  0  0  0  0  0  0  0  0  0  0
    1.2754   -1.2709   -0.0880 C   0  0  0  0  0  0  0  0  0  0  0  0
    0.3121   -0.1361    0.3004 C   0  0  0  0  0  3  0  0  0  0  0  0
    0.7648    0.7024    1.5048 C   0  0  0  0  0  0  0  0  0  0  0  0
    1.5768    1.8406    0.8854 C   0  0  0  0  0  0  0  0  0  0  0  0
    0.7648    2.2002   -0.3595 C   0  0  0  0  0  0  0  0  0  0  0  0
    0.3121    0.8434   -0.9188 C   0  0  0  0  0  0  0  0  0  0  0  0
    1.2754    0.2197   -1.9433 C   0  0  0  0  0  0  0  0  0  0  0  0
    2.1203   -1.8091   -2.0468 H   0  0  0  0  0  0  0  0  0  0  0  0
    0.3596   -1.7377   -1.9895 H   0  0  0  0  0  0  0  0  0  0  0  0
    0.9911   -2.2292    0.3486 H   0  0  0  0  0  0  0  0  0  0  0  0
    2.2836   -1.0383    0.2713 H   0  0  0  0  0  0  0  0  0  0  0  0
   -0.8830   -0.6325    0.4991 H   0  0  0  0  0  0  0  0  0  0  0  0
   -0.1030    1.1192    2.0233 H   0  0  0  0  0  0  0  0  0  0  0  0
    1.3279    0.1157    2.2331 H   0  0  0  0  0  0  0  0  0  0  0  0
    2.5679    1.4788    0.5947 H   0  0  0  0  0  0  0  0  0  0  0  0
    1.7247    2.6830    1.5622 H   0  0  0  0  0  0  0  0  0  0  0  0
   -0.1030    2.7963   -0.0641 H   0  0  0  0  0  0  0  0  0  0  0  0
    1.3279    2.7850   -1.0893 H   0  0  0  0  0  0  0  0  0  0  0  0
   -0.6838    0.9160   -1.3584 H   0  0  0  0  0  0  0  0  0  0  0  0
    0.9911    0.4396   -2.9732 H   0  0  0  0  0  0  0  0  0  0  0  0
    2.2836    0.6207   -1.7936 H   0  0  0  0  0  0  0  0  0  0  0  0
  1  2  2  3
  1  4  1  0
  1  5  1  0
  2  3  1  0
  2 21  1  0
  3  6  1  0
  3  7  1  0
  3  8  1  0
  9 16  1  0
  9 10  1  0
  9 17  1  0
  9 18  1  0
 10 11  1  0
 10 19  1  0
 10 20  1  0
 11 12  1  0
 11 15  1  0
 12 13  1  0
 12 22  1  0
 12 23  1  0
 13 14  1  0
 13 24  1  0
 13 25  1  0
 14 15  1  0
 14 26  1  0
 14 27  1  0
 15 16  1  0
 15 28  1  0
 16 29  1  0
 16 30  1  0
M  RAD  1  11   2
M  END
>  <reaction>  (8) 
rxn_573

>  <mol_properties>  (8) 
{"0": {"label": "*4", "atom_type": "Cd"}, "1": {"label": "*3", "atom_type": "Cd"}, "10": {"label": "*1", "atom_type": "Cs"}, "14": {"label": "*0", "atom_type": "Cs"}, "20": {"label": "*2", "atom_type": "H0"}}

>  <type>  (8) 
unop_4

>  <geom_source>  (8) 
Heuristics

$$$$

     RDKit          3D

 30 30  0  0  0  0  0  0  0  0999 V2000
   -3.0756   -0.2133    1.0415 C   0  0  0  0  0  0  0  0  0  0  0  0
   -2.0945   -1.0322    0.6960 C   0  0  0  0  0  0  0  0  0  0  0  0
   -2.2320   -2.5086    0.5078 C   0  0  0  0  0  0  0  0  0  0  0  0
   -4.0822   -0.5783    1.2167 H   0  0  0  0  0  0  0  0  0  0  0  0
   -2.9102    0.8499    1.1618 H   0  0  0  0  0  0  0  0  0  0  0  0
   -1.5671   -3.0506    1.1853 H   0  0  0  0  0  0  0  0  0  0  0  0
   -3.2546   -2.8405    0.6916 H   0  0  0  0  0  0  0  0  0  0  0  0
   -1.9533   -2.7987   -0.5085 H   0  0  0  0  0  0  0  0  0  0  0  0
    1.2546   -1.1761   -1.6154 C   0  0  0  0  0  0  0  0  0  0  0  0
    1.2546   -1.1761   -0.0890 C   0  0  0  0  0  0  0  0  0  0  0  0
    0.2912   -0.0413    0.2994 C   0  0  0  0  0  3  0  0  0  0  0  0
    0.7440    0.7973    1.5038 C   0  0  0  0  0  0  0  0  0  0  0  0
    1.5560    1.9354    0.8845 C   0  0  0  0  0  0  0  0  0  0  0  0
    0.7440    2.2951   -0.3604 C   0  0  0  0  0  0  0  0  0  0  0  0
    0.2912    0.9382   -0.9198 C   0  0  0  0  0  0  0  0  0  0  0  0
    1.2546    0.3145   -1.9443 C   0  0  0  0  0  0  0  0  0  0  0  0
    2.0994   -1.7142   -2.0478 H   0  0  0  0  0  0  0  0  0  0  0  0
    0.3387   -1.6429   -1.9905 H   0  0  0  0  0  0  0  0  0  0  0  0
    0.9702   -2.1344    0.3476 H   0  0  0  0  0  0  0  0  0  0  0  0
    2.2627   -0.9435    0.2703 H   0  0  0  0  0  0  0  0  0  0  0  0
   -0.9038   -0.5376    0.4981 H   0  0  0  0  0  0  0  0  0  0  0  0
   -0.1239    1.2141    2.0223 H   0  0  0  0  0  0  0  0  0  0  0  0
    1.3070    0.2105    2.2321 H   0  0  0  0  0  0  0  0  0  0  0  0
    2.5471    1.5736    0.5938 H   0  0  0  0  0  0  0  0  0  0  0  0
    1.7039    2.7778    1.5612 H   0  0  0  0  0  0  0  0  0  0  0  0
   -0.1239    2.8911   -0.0651 H   0  0  0  0  0  0  0  0  0  0  0  0
    1.3070    2.8798   -1.0903 H   0  0  0  0  0  0  0  0  0  0  0  0
   -0.7047    1.0108   -1.3594 H   0  0  0  0  0  0  0  0  0  0  0  0
    0.9702    0.5344   -2.9742 H   0  0  0  0  0  0  0  0  0  0  0  0
    2.2627    0.7155   -1.7945 H   0  0  0  0  0  0  0  0  0  0  0  0
  1  2  2  3
  1  4  1  0
  1  5  1  0
  2  3  1  0
  2 21  1  0
  3  6  1  0
  3  7  1  0
  3  8  1  0
  9 16  1  0
  9 10  1  0
  9 17  1  0
  9 18  1  0
 10 11  1  0
 10 19  1  0
 10 20  1  0
 11 12  1  0
 11 15  1  0
 12 13  1  0
 12 22  1  0
 12 23  1  0
 13 14  1  0
 13 24  1  0
 13 25  1  0
 14 15  1  0
 14 26  1  0
 14 27  1  0
 15 16  1  0
 15 28  1  0
 16 29  1  0
 16 30  1  0
M  RAD  1  11   2
M  END
>  <reaction>  (9) 
rxn_573

>  <mol_properties>  (9) 
{"0": {"label": "*4", "atom_type": "Cd"}, "1": {"label": "*3", "atom_type": "Cd"}, "10": {"label": "*1", "atom_type": "Cs"}, "14": {"label": "*0", "atom_type": "Cs"}, "20": {"label": "*2", "atom_type": "H0"}}

>  <type>  (9) 
unop_5

>  <geom_source>  (9) 
Heuristics

$$$$

     RDKit          3D

 30 30  0  0  0  0  0  0  0  0999 V2000
   -2.9214   -1.2174   -0.3569 C   0  0  0  0  0  0  0  0  0  0  0  0
   -2.0842   -1.1421    0.6657 C   0  0  0  0  0  0  0  0  0  0  0  0
   -2.4553   -0.7268    2.0528 C   0  0  0  0  0  0  0  0  0  0  0  0
   -3.9726   -0.9721   -0.2471 H   0  0  0  0  0  0  0  0  0  0  0  0
   -2.5887   -1.5262   -1.3399 H   0  0  0  0  0  0  0  0  0  0  0  0
   -1.8825    0.1512    2.3622 H   0  0  0  0  0  0  0  0  0  0  0  0
   -3.5170   -0.4880    2.1269 H   0  0  0  0  0  0  0  0  0  0  0  0
   -2.2301   -1.5205    2.7698 H   0  0  0  0  0  0  0  0  0  0  0  0
    1.2648   -1.2860   -1.6457 C   0  0  0  0  0  0  0  0  0  0  0  0
    1.2648   -1.2860   -0.1193 C   0  0  0  0  0  0  0  0  0  0  0  0
    0.3015   -0.1513    0.2691 C   0  0  0  0  0  3  0  0  0  0  0  0
    0.7542    0.6873    1.4735 C   0  0  0  0  0  0  0  0  0  0  0  0
    1.5662    1.8255    0.8542 C   0  0  0  0  0  0  0  0  0  0  0  0
    0.7542    2.1851   -0.3907 C   0  0  0  0  0  0  0  0  0  0  0  0
    0.3015    0.8283   -0.9501 C   0  0  0  0  0  0  0  0  0  0  0  0
    1.2648    0.2046   -1.9745 C   0  0  0  0  0  0  0  0  0  0  0  0
    2.1097   -1.8242   -2.0781 H   0  0  0  0  0  0  0  0  0  0  0  0
    0.3490   -1.7529   -2.0208 H   0  0  0  0  0  0  0  0  0  0  0  0
    0.9805   -2.2444    0.3173 H   0  0  0  0  0  0  0  0  0  0  0  0
    2.2730   -1.0534    0.2400 H   0  0  0  0  0  0  0  0  0  0  0  0
   -0.8936   -0.6476    0.4678 H   0  0  0  0  0  0  0  0  0  0  0  0
   -0.1136    1.1041    1.9920 H   0  0  0  0  0  0  0  0  0  0  0  0
    1.3173    0.1006    2.2018 H   0  0  0  0  0  0  0  0  0  0  0  0
    2.5573    1.4636    0.5635 H   0  0  0  0  0  0  0  0  0  0  0  0
    1.7142    2.6678    1.5309 H   0  0  0  0  0  0  0  0  0  0  0  0
   -0.1136    2.7812   -0.0954 H   0  0  0  0  0  0  0  0  0  0  0  0
    1.3173    2.7699   -1.1206 H   0  0  0  0  0  0  0  0  0  0  0  0
   -0.6944    0.9008   -1.3897 H   0  0  0  0  0  0  0  0  0  0  0  0
    0.9805    0.4244   -3.0045 H   0  0  0  0  0  0  0  0  0  0  0  0
    2.2730    0.6055   -1.8248 H   0  0  0  0  0  0  0  0  0  0  0  0
  1  2  2  3
  1  4  1  0
  1  5  1  0
  2  3  1  0
  2 21  1  0
  3  6  1  0
  3  7  1  0
  3  8  1  0
  9 16  1  0
  9 10  1  0
  9 17  1  0
  9 18  1  0
 10 11  1  0
 10 19  1  0
 10 20  1  0
 11 12  1  0
 11 15  1  0
 12 13  1  0
 12 22  1  0
 12 23  1  0
 13 14  1  0
 13 24  1  0
 13 25  1  0
 14 15  1  0
 14 26  1  0
 14 27  1  0
 15 16  1  0
 15 28  1  0
 16 29  1  0
 16 30  1  0
M  RAD  1  11   2
M  END
>  <reaction>  (10) 
rxn_573

>  <mol_properties>  (10) 
{"0": {"label": "*4", "atom_type": "Cd"}, "1": {"label": "*3", "atom_type": "Cd"}, "10": {"label": "*1", "atom_type": "Cs"}, "14": {"label": "*0", "atom_type": "Cs"}, "20": {"label": "*2", "atom_type": "H0"}}

>  <type>  (10) 
unop_6

>  <geom_source>  (10) 
Heuristics

$$$$

     RDKit          3D

 30 30  0  0  0  0  0  0  0  0999 V2000
   -3.1032   -0.6938   -0.1191 C   0  0  0  0  0  0  0  0  0  0  0  0
   -2.1007   -1.1265    0.6292 C   0  0  0  0  0  0  0  0  0  0  0  0
   -2.1594   -1.3383    2.1077 C   0  0  0  0  0  0  0  0  0  0  0  0
   -4.0699   -0.4562    0.3122 H   0  0  0  0  0  0  0  0  0  0  0  0
   -2.9958   -0.5610   -1.1883 H   0  0  0  0  0  0  0  0  0  0  0  0
   -1.4151   -0.7222    2.6187 H   0  0  0  0  0  0  0  0  0  0  0  0
   -3.1436   -1.0903    2.5072 H   0  0  0  0  0  0  0  0  0  0  0  0
   -1.9372   -2.3782    2.3607 H   0  0  0  0  0  0  0  0  0  0  0  0
    1.2484   -1.2704   -1.6822 C   0  0  0  0  0  0  0  0  0  0  0  0
    1.2484   -1.2704   -0.1558 C   0  0  0  0  0  0  0  0  0  0  0  0
    0.2851   -0.1356    0.2326 C   0  0  0  0  0  3  0  0  0  0  0  0
    0.7378    0.7030    1.4370 C   0  0  0  0  0  0  0  0  0  0  0  0
    1.5498    1.8412    0.8177 C   0  0  0  0  0  0  0  0  0  0  0  0
    0.7378    2.2008   -0.4272 C   0  0  0  0  0  0  0  0  0  0  0  0
    0.2851    0.8440   -0.9866 C   0  0  0  0  0  0  0  0  0  0  0  0
    1.2484    0.2202   -2.0111 C   0  0  0  0  0  0  0  0  0  0  0  0
    2.0933   -1.8085   -2.1146 H   0  0  0  0  0  0  0  0  0  0  0  0
    0.3326   -1.7372   -2.0573 H   0  0  0  0  0  0  0  0  0  0  0  0
    0.9641   -2.2287    0.2808 H   0  0  0  0  0  0  0  0  0  0  0  0
    2.2566   -1.0378    0.2035 H   0  0  0  0  0  0  0  0  0  0  0  0
   -0.9100   -0.6319    0.4313 H   0  0  0  0  0  0  0  0  0  0  0  0
   -0.1300    1.1198    1.9555 H   0  0  0  0  0  0  0  0  0  0  0  0
    1.3009    0.1162    2.1653 H   0  0  0  0  0  0  0  0  0  0  0  0
    2.5409    1.4793    0.5269 H   0  0  0  0  0  0  0  0  0  0  0  0
    1.6978    2.6835    1.4944 H   0  0  0  0  0  0  0  0  0  0  0  0
   -0.1300    2.7968   -0.1319 H   0  0  0  0  0  0  0  0  0  0  0  0
    1.3009    2.7855   -1.1571 H   0  0  0  0  0  0  0  0  0  0  0  0
   -0.7108    0.9165   -1.4262 H   0  0  0  0  0  0  0  0  0  0  0  0
    0.9641    0.4401   -3.0410 H   0  0  0  0  0  0  0  0  0  0  0  0
    2.2566    0.6212   -1.8613 H   0  0  0  0  0  0  0  0  0  0  0  0
  1  2  2  3
  1  4  1  0
  1  5  1  0
  2  3  1  0
  2 21  1  0
  3  6  1  0
  3  7  1  0
  3  8  1  0
  9 16  1  0
  9 10  1  0
  9 17  1  0
  9 18  1  0
 10 11  1  0
 10 19  1  0
 10 20  1  0
 11 12  1  0
 11 15  1  0
 12 13  1  0
 12 22  1  0
 12 23  1  0
 13 14  1  0
 13 24  1  0
 13 25  1  0
 14 15  1  0
 14 26  1  0
 14 27  1  0
 15 16  1  0
 15 28  1  0
 16 29  1  0
 16 30  1  0
M  RAD  1  11   2
M  END
>  <reaction>  (11) 
rxn_573

>  <mol_properties>  (11) 
{"0": {"label": "*4", "atom_type": "Cd"}, "1": {"label": "*3", "atom_type": "Cd"}, "10": {"label": "*1", "atom_type": "Cs"}, "14": {"label": "*0", "atom_type": "Cs"}, "20": {"label": "*2", "atom_type": "H0"}}

>  <type>  (11) 
unop_7

>  <geom_source>  (11) 
Heuristics

$$$$

     RDKit          3D

 30 30  0  0  0  0  0  0  0  0999 V2000
   -2.4061   -1.5535    1.9035 C   0  0  0  0  0  0  0  0  0  0  0  0
   -2.0793   -1.1453    0.6873 C   0  0  0  0  0  0  0  0  0  0  0  0
   -2.9771   -0.3865   -0.2359 C   0  0  0  0  0  0  0  0  0  0  0  0
   -3.3866   -1.3542    2.3230 H   0  0  0  0  0  0  0  0  0  0  0  0
   -1.7077   -2.1008    2.5240 H   0  0  0  0  0  0  0  0  0  0  0  0
   -3.1282   -0.9348   -1.1693 H   0  0  0  0  0  0  0  0  0  0  0  0
   -3.9524   -0.2040    0.2171 H   0  0  0  0  0  0  0  0  0  0  0  0
   -2.5357    0.5772   -0.5027 H   0  0  0  0  0  0  0  0  0  0  0  0
    1.2698   -1.2892   -1.6241 C   0  0  0  0  0  0  0  0  0  0  0  0
    1.2698   -1.2892   -0.0977 C   0  0  0  0  0  0  0  0  0  0  0  0
    0.3064   -0.1545    0.2907 C   0  0  0  0  0  3  0  0  0  0  0  0
    0.7592    0.6841    1.4951 C   0  0  0  0  0  0  0  0  0  0  0  0
    1.5712    1.8223    0.8758 C   0  0  0  0  0  0  0  0  0  0  0  0
    0.7592    2.1819   -0.3691 C   0  0  0  0  0  0  0  0  0  0  0  0
    0.3064    0.8251   -0.9285 C   0  0  0  0  0  0  0  0  0  0  0  0
    1.2698    0.2014   -1.9529 C   0  0  0  0  0  0  0  0  0  0  0  0
    2.1146   -1.8274   -2.0565 H   0  0  0  0  0  0  0  0  0  0  0  0
    0.3539   -1.7561   -1.9992 H   0  0  0  0  0  0  0  0  0  0  0  0
    0.9854   -2.2476    0.3389 H   0  0  0  0  0  0  0  0  0  0  0  0
    2.2779   -1.0567    0.2616 H   0  0  0  0  0  0  0  0  0  0  0  0
   -0.8886   -0.6508    0.4894 H   0  0  0  0  0  0  0  0  0  0  0  0
   -0.1086    1.1009    2.0136 H   0  0  0  0  0  0  0  0  0  0  0  0
    1.3223    0.0974    2.2234 H   0  0  0  0  0  0  0  0  0  0  0  0
    2.5623    1.4604    0.5851 H   0  0  0  0  0  0  0  0  0  0  0  0
    1.7191    2.6646    1.5525 H   0  0  0  0  0  0  0  0  0  0  0  0
   -0.1086    2.7779   -0.0738 H   0  0  0  0  0  0  0  0  0  0  0  0
    1.3223    2.7667   -1.0990 H   0  0  0  0  0  0  0  0  0  0  0  0
   -0.6895    0.8976   -1.3681 H   0  0  0  0  0  0  0  0  0  0  0  0
    0.9854    0.4212   -2.9829 H   0  0  0  0  0  0  0  0  0  0  0  0
    2.2779    0.6023   -1.8032 H   0  0  0  0  0  0  0  0  0  0  0  0
  1  2  2  3
  1  4  1  0
  1  5  1  0
  2  3  1  0
  2 21  1  0
  3  6  1  0
  3  7  1  0
  3  8  1  0
  9 16  1  0
  9 10  1  0
  9 17  1  0
  9 18  1  0
 10 11  1  0
 10 19  1  0
 10 20  1  0
 11 12  1  0
 11 15  1  0
 12 13  1  0
 12 22  1  0
 12 23  1  0
 13 14  1  0
 13 24  1  0
 13 25  1  0
 14 15  1  0
 14 26  1  0
 14 27  1  0
 15 16  1  0
 15 28  1  0
 16 29  1  0
 16 30  1  0
M  RAD  1  11   2
M  END
>  <reaction>  (12) 
rxn_573

>  <mol_properties>  (12) 
{"0": {"label": "*4", "atom_type": "Cd"}, "1": {"label": "*3", "atom_type": "Cd"}, "10": {"label": "*1", "atom_type": "Cs"}, "14": {"label": "*0", "atom_type": "Cs"}, "20": {"label": "*2", "atom_type": "H0"}}

>  <type>  (12) 
unop_8

>  <geom_source>  (12) 
Heuristics

$$$$

     RDKit          3D

 30 30  0  0  0  0  0  0  0  0999 V2000
   -2.4357   -2.1748    0.0256 C   0  0  0  0  0  0  0  0  0  0  0  0
   -2.0718   -1.0979    0.7039 C   0  0  0  0  0  0  0  0  0  0  0  0
   -3.0069   -0.1642    1.4024 C   0  0  0  0  0  0  0  0  0  0  0  0
   -3.4786   -2.4583   -0.0694 H   0  0  0  0  0  0  0  0  0  0  0  0
   -1.7069   -2.8121   -0.4592 H   0  0  0  0  0  0  0  0  0  0  0  0
   -2.9087    0.8509    1.0091 H   0  0  0  0  0  0  0  0  0  0  0  0
   -4.0448   -0.4787    1.2865 H   0  0  0  0  0  0  0  0  0  0  0  0
   -2.7797   -0.1131    2.4704 H   0  0  0  0  0  0  0  0  0  0  0  0
    1.2773   -1.2418   -1.6075 C   0  0  0  0  0  0  0  0  0  0  0  0
    1.2773   -1.2418   -0.0811 C   0  0  0  0  0  0  0  0  0  0  0  0
    0.3140   -0.1071    0.3073 C   0  0  0  0  0  3  0  0  0  0  0  0
    0.7667    0.7315    1.5117 C   0  0  0  0  0  0  0  0  0  0  0  0
    1.5787    1.8697    0.8923 C   0  0  0  0  0  0  0  0  0  0  0  0
    0.7667    2.2293   -0.3526 C   0  0  0  0  0  0  0  0  0  0  0  0
    0.3140    0.8725   -0.9120 C   0  0  0  0  0  0  0  0  0  0  0  0
    1.2773    0.2488   -1.9364 C   0  0  0  0  0  0  0  0  0  0  0  0
    2.1222   -1.7800   -2.0399 H   0  0  0  0  0  0  0  0  0  0  0  0
    0.3615   -1.7086   -1.9826 H   0  0  0  0  0  0  0  0  0  0  0  0
    0.9930   -2.2002    0.3555 H   0  0  0  0  0  0  0  0  0  0  0  0
    2.2855   -1.0092    0.2782 H   0  0  0  0  0  0  0  0  0  0  0  0
   -0.8811   -0.6034    0.5059 H   0  0  0  0  0  0  0  0  0  0  0  0
   -0.1011    1.1483    2.0301 H   0  0  0  0  0  0  0  0  0  0  0  0
    1.3298    0.1448    2.2400 H   0  0  0  0  0  0  0  0  0  0  0  0
    2.5698    1.5079    0.6016 H   0  0  0  0  0  0  0  0  0  0  0  0
    1.7266    2.7120    1.5691 H   0  0  0  0  0  0  0  0  0  0  0  0
   -0.1011    2.8254   -0.0572 H   0  0  0  0  0  0  0  0  0  0  0  0
    1.3298    2.8141   -1.0824 H   0  0  0  0  0  0  0  0  0  0  0  0
   -0.6819    0.9451   -1.3515 H   0  0  0  0  0  0  0  0  0  0  0  0
    0.9930    0.4687   -2.9663 H   0  0  0  0  0  0  0  0  0  0  0  0
    2.2855    0.6497   -1.7867 H   0  0  0  0  0  0  0  0  0  0  0  0
  1  2  2  3
  1  4  1  0
  1  5  1  0
  2  3  1  0
  2 21  1  0
  3  6  1  0
  3  7  1  0
  3  8  1  0
  9 16  1  0
  9 10  1  0
  9 17  1  0
  9 18  1  0
 10 11  1  0
 10 19  1  0
 10 20  1  0
 11 12  1  0
 11 15  1  0
 12 13  1  0
 12 22  1  0
 12 23  1  0
 13 14  1  0
 13 24  1  0
 13 25  1  0
 14 15  1  0
 14 26  1  0
 14 27  1  0
 15 16  1  0
 15 28  1  0
 16 29  1  0
 16 30  1  0
M  RAD  1  11   2
M  END
>  <reaction>  (13) 
rxn_573

>  <mol_properties>  (13) 
{"0": {"label": "*4", "atom_type": "Cd"}, "1": {"label": "*3", "atom_type": "Cd"}, "10": {"label": "*1", "atom_type": "Cs"}, "14": {"label": "*0", "atom_type": "Cs"}, "20": {"label": "*2", "atom_type": "H0"}}

>  <type>  (13) 
unop_9

>  <geom_source>  (13) 
Heuristics

$$$$

     RDKit          3D

 30 30  0  0  0  0  0  0  0  0999 V2000
   -2.2435   -2.0376    1.6019 C   0  0  0  0  0  0  0  0  0  0  0  0
   -2.0821   -1.1215    0.6601 C   0  0  0  0  0  0  0  0  0  0  0  0
   -3.1088   -0.1134    0.2553 C   0  0  0  0  0  0  0  0  0  0  0  0
   -3.1695   -2.1168    2.1617 H   0  0  0  0  0  0  0  0  0  0  0  0
   -1.4582   -2.7411    1.8483 H   0  0  0  0  0  0  0  0  0  0  0  0
   -3.3591   -0.2169   -0.8037 H   0  0  0  0  0  0  0  0  0  0  0  0
   -4.0249   -0.2217    0.8371 H   0  0  0  0  0  0  0  0  0  0  0  0
   -2.7313    0.9031    0.3934 H   0  0  0  0  0  0  0  0  0  0  0  0
    1.2670   -1.2654   -1.6513 C   0  0  0  0  0  0  0  0  0  0  0  0
    1.2670   -1.2654   -0.1249 C   0  0  0  0  0  0  0  0  0  0  0  0
    0.3036   -0.1306    0.2635 C   0  0  0  0  0  3  0  0  0  0  0  0
    0.7564    0.7079    1.4679 C   0  0  0  0  0  0  0  0  0  0  0  0
    1.5684    1.8461    0.8485 C   0  0  0  0  0  0  0  0  0  0  0  0
    0.7564    2.2057   -0.3964 C   0  0  0  0  0  0  0  0  0  0  0  0
    0.3036    0.8489   -0.9558 C   0  0  0  0  0  0  0  0  0  0  0  0
    1.2670    0.2252   -1.9802 C   0  0  0  0  0  0  0  0  0  0  0  0
    2.1118   -1.8036   -2.0837 H   0  0  0  0  0  0  0  0  0  0  0  0
    0.3511   -1.7322   -2.0264 H   0  0  0  0  0  0  0  0  0  0  0  0
    0.9827   -2.2237    0.3117 H   0  0  0  0  0  0  0  0  0  0  0  0
    2.2751   -1.0328    0.2344 H   0  0  0  0  0  0  0  0  0  0  0  0
   -0.8914   -0.6270    0.4621 H   0  0  0  0  0  0  0  0  0  0  0  0
   -0.1114    1.1247    1.9863 H   0  0  0  0  0  0  0  0  0  0  0  0
    1.3195    0.1212    2.1962 H   0  0  0  0  0  0  0  0  0  0  0  0
    2.5595    1.4843    0.5578 H   0  0  0  0  0  0  0  0  0  0  0  0
    1.7163    2.6884    1.5253 H   0  0  0  0  0  0  0  0  0  0  0  0
   -0.1114    2.8018   -0.1011 H   0  0  0  0  0  0  0  0  0  0  0  0
    1.3195    2.7905   -1.1262 H   0  0  0  0  0  0  0  0  0  0  0  0
   -0.6922    0.9215   -1.3953 H   0  0  0  0  0  0  0  0  0  0  0  0
    0.9827    0.4451   -3.0101 H   0  0  0  0  0  0  0  0  0  0  0  0
    2.2751    0.6262   -1.8305 H   0  0  0  0  0  0  0  0  0  0  0  0
  1  2  2  3
  1  4  1  0
  1  5  1  0
  2  3  1  0
  2 21  1  0
  3  6  1  0
  3  7  1  0
  3  8  1  0
  9 16  1  0
  9 10  1  0
  9 17  1  0
  9 18  1  0
 10 11  1  0
 10 19  1  0
 10 20  1  0
 11 12  1  0
 11 15  1  0
 12 13  1  0
 12 22  1  0
 12 23  1  0
 13 14  1  0
 13 24  1  0
 13 25  1  0
 14 15  1  0
 14 26  1  0
 14 27  1  0
 15 16  1  0
 15 28  1  0
 16 29  1  0
 16 30  1  0
M  RAD  1  11   2
M  END
>  <reaction>  (14) 
rxn_573

>  <mol_properties>  (14) 
{"0": {"label": "*4", "atom_type": "Cd"}, "1": {"label": "*3", "atom_type": "Cd"}, "10": {"label": "*1", "atom_type": "Cs"}, "14": {"label": "*0", "atom_type": "Cs"}, "20": {"label": "*2", "atom_type": "H0"}}

>  <type>  (14) 
unop_10

>  <geom_source>  (14) 
Heuristics

$$$$

     RDKit          3D

 30 30  0  0  0  0  0  0  0  0999 V2000
   -3.1664   -0.3145    0.3728 C   0  0  0  0  0  0  0  0  0  0  0  0
   -2.1112   -1.0745    0.6204 C   0  0  0  0  0  0  0  0  0  0  0  0
   -2.0199   -2.0908    1.7126 C   0  0  0  0  0  0  0  0  0  0  0  0
   -4.0679   -0.3852    0.9723 H   0  0  0  0  0  0  0  0  0  0  0  0
   -3.1690    0.4050   -0.4362 H   0  0  0  0  0  0  0  0  0  0  0  0
   -1.1953   -1.8590    2.3916 H   0  0  0  0  0  0  0  0  0  0  0  0
   -2.9416   -2.1351    2.2941 H   0  0  0  0  0  0  0  0  0  0  0  0
   -1.8229   -3.0850    1.3033 H   0  0  0  0  0  0  0  0  0  0  0  0
    1.2379   -1.2184   -1.6910 C   0  0  0  0  0  0  0  0  0  0  0  0
    1.2379   -1.2184   -0.1646 C   0  0  0  0  0  0  0  0  0  0  0  0
    0.2746   -0.0836    0.2238 C   0  0  0  0  0  3  0  0  0  0  0  0
    0.7273    0.7549    1.4282 C   0  0  0  0  0  0  0  0  0  0  0  0
    1.5393    1.8931    0.8088 C   0  0  0  0  0  0  0  0  0  0  0  0
    0.7273    2.2527   -0.4361 C   0  0  0  0  0  0  0  0  0  0  0  0
    0.2746    0.8959   -0.9954 C   0  0  0  0  0  0  0  0  0  0  0  0
    1.2379    0.2722   -2.0199 C   0  0  0  0  0  0  0  0  0  0  0  0
    2.0828   -1.7566   -2.1234 H   0  0  0  0  0  0  0  0  0  0  0  0
    0.3221   -1.6852   -2.0661 H   0  0  0  0  0  0  0  0  0  0  0  0
    0.9536   -2.1767    0.2720 H   0  0  0  0  0  0  0  0  0  0  0  0
    2.2461   -0.9858    0.1947 H   0  0  0  0  0  0  0  0  0  0  0  0
   -0.9205   -0.5800    0.4225 H   0  0  0  0  0  0  0  0  0  0  0  0
   -0.1405    1.1717    1.9467 H   0  0  0  0  0  0  0  0  0  0  0  0
    1.2904    0.1682    2.1565 H   0  0  0  0  0  0  0  0  0  0  0  0
    2.5304    1.5313    0.5181 H   0  0  0  0  0  0  0  0  0  0  0  0
    1.6872    2.7354    1.4856 H   0  0  0  0  0  0  0  0  0  0  0  0
   -0.1405    2.8488   -0.1407 H   0  0  0  0  0  0  0  0  0  0  0  0
    1.2904    2.8375   -1.1659 H   0  0  0  0  0  0  0  0  0  0  0  0
   -0.7213    0.9685   -1.4350 H   0  0  0  0  0  0  0  0  0  0  0  0
    0.9536    0.4921   -3.0498 H   0  0  0  0  0  0  0  0  0  0  0  0
    2.2461    0.6732   -1.8702 H   0  0  0  0  0  0  0  0  0  0  0  0
  1  2  2  3
  1  4  1  0
  1  5  1  0
  2  3  1  0
  2 21  1  0
  3  6  1  0
  3  7  1  0
  3  8  1  0
  9 16  1  0
  9 10  1  0
  9 17  1  0
  9 18  1  0
 10 11  1  0
 10 19  1  0
 10 20  1  0
 11 12  1  0
 11 15  1  0
 12 13  1  0
 12 22  1  0
 12 23  1  0
 13 14  1  0
 13 24  1  0
 13 25  1  0
 14 15  1  0
 14 26  1  0
 14 27  1  0
 15 16  1  0
 15 28  1  0
 16 29  1  0
 16 30  1  0
M  RAD  1  11   2
M  END
>  <reaction>  (15) 
rxn_573

>  <mol_properties>  (15) 
{"0": {"label": "*4", "atom_type": "Cd"}, "1": {"label": "*3", "atom_type": "Cd"}, "10": {"label": "*1", "atom_type": "Cs"}, "14": {"label": "*0", "atom_type": "Cs"}, "20": {"label": "*2", "atom_type": "H0"}}

>  <type>  (15) 
unop_11

>  <geom_source>  (15) 
Heuristics

$$$$

     RDKit          3D

 30 30  0  0  0  0  0  0  0  0999 V2000
   -2.2592   -2.3827    0.5328 C   0  0  0  0  0  0  0  0  0  0  0  0
   -2.0764   -1.0805    0.6847 C   0  0  0  0  0  0  0  0  0  0  0  0
   -3.1377   -0.1019    1.0722 C   0  0  0  0  0  0  0  0  0  0  0  0
   -3.2312   -2.8395    0.6864 H   0  0  0  0  0  0  0  0  0  0  0  0
   -1.4464   -3.0396    0.2498 H   0  0  0  0  0  0  0  0  0  0  0  0
   -3.2574    0.6665    0.3041 H   0  0  0  0  0  0  0  0  0  0  0  0
   -4.0999   -0.5944    1.2183 H   0  0  0  0  0  0  0  0  0  0  0  0
   -2.8712    0.4146    1.9979 H   0  0  0  0  0  0  0  0  0  0  0  0
    1.2727   -1.2244   -1.6267 C   0  0  0  0  0  0  0  0  0  0  0  0
    1.2727   -1.2244   -0.1003 C   0  0  0  0  0  0  0  0  0  0  0  0
    0.3094   -0.0896    0.2881 C   0  0  0  0  0  3  0  0  0  0  0  0
    0.7621    0.7490    1.4925 C   0  0  0  0  0  0  0  0  0  0  0  0
    1.5741    1.8872    0.8731 C   0  0  0  0  0  0  0  0  0  0  0  0
    0.7621    2.2468   -0.3718 C   0  0  0  0  0  0  0  0  0  0  0  0
    0.3094    0.8899   -0.9311 C   0  0  0  0  0  0  0  0  0  0  0  0
    1.2727    0.2662   -1.9556 C   0  0  0  0  0  0  0  0  0  0  0  0
    2.1176   -1.7625   -2.0591 H   0  0  0  0  0  0  0  0  0  0  0  0
    0.3569   -1.6912   -2.0018 H   0  0  0  0  0  0  0  0  0  0  0  0
    0.9884   -2.1827    0.3363 H   0  0  0  0  0  0  0  0  0  0  0  0
    2.2809   -0.9918    0.2590 H   0  0  0  0  0  0  0  0  0  0  0  0
   -0.8857   -0.5859    0.4867 H   0  0  0  0  0  0  0  0  0  0  0  0
   -0.1057    1.1658    2.0109 H   0  0  0  0  0  0  0  0  0  0  0  0
    1.3252    0.1622    2.2208 H   0  0  0  0  0  0  0  0  0  0  0  0
    2.5652    1.5253    0.5824 H   0  0  0  0  0  0  0  0  0  0  0  0
    1.7221    2.7295    1.5499 H   0  0  0  0  0  0  0  0  0  0  0  0
   -0.1057    2.8428   -0.0764 H   0  0  0  0  0  0  0  0  0  0  0  0
    1.3252    2.8315   -1.1016 H   0  0  0  0  0  0  0  0  0  0  0  0
   -0.6865    0.9625   -1.3707 H   0  0  0  0  0  0  0  0  0  0  0  0
    0.9884    0.4861   -2.9855 H   0  0  0  0  0  0  0  0  0  0  0  0
    2.2809    0.6672   -1.8059 H   0  0  0  0  0  0  0  0  0  0  0  0
  1  2  2  3
  1  4  1  0
  1  5  1  0
  2  3  1  0
  2 21  1  0
  3  6  1  0
  3  7  1  0
  3  8  1  0
  9 16  1  0
  9 10  1  0
  9 17  1  0
  9 18  1  0
 10 11  1  0
 10 19  1  0
 10 20  1  0
 11 12  1  0
 11 15  1  0
 12 13  1  0
 12 22  1  0
 12 23  1  0
 13 14  1  0
 13 24  1  0
 13 25  1  0
 14 15  1  0
 14 26  1  0
 14 27  1  0
 15 16  1  0
 15 28  1  0
 16 29  1  0
 16 30  1  0
M  RAD  1  11   2
M  END
>  <reaction>  (16) 
rxn_573

>  <mol_properties>  (16) 
{"0": {"label": "*4", "atom_type": "Cd"}, "1": {"label": "*3", "atom_type": "Cd"}, "10": {"label": "*1", "atom_type": "Cs"}, "14": {"label": "*0", "atom_type": "Cs"}, "20": {"label": "*2", "atom_type": "H0"}}

>  <type>  (16) 
unop_12

>  <geom_source>  (16) 
Heuristics

$$$$

     RDKit          3D

 30 30  0  0  0  0  0  0  0  0999 V2000
   -0.8259   -0.1595    0.8872 C   0  0  0  0  0  0  0  0  0  0  0  0
   -2.0540   -1.0156    1.2129 C   0  0  0  0  0  0  0  0  0  0  0  0
   -1.1115    1.3359    0.7160 C   0  0  0  0  0  0  0  0  0  0  0  0
   -1.9111   -2.2636    0.3573 C   0  0  0  0  0  0  0  0  0  0  0  0
   -0.2970    1.7639   -0.4937 C   0  0  0  0  0  0  0  0  0  0  0  0
   -1.1817   -1.8095   -0.8960 C   0  0  0  0  0  0  0  0  0  0  0  0
   -0.2401    0.5399   -1.3924 C   0  0  0  0  0  0  0  0  0  0  0  0
    2.7385    1.6367   -0.2500 C   0  0  0  0  0  0  0  0  0  0  0  0
   -0.2842   -0.6578   -0.4435 C   0  0  0  0  0  3  0  0  0  0  0  0
    2.0741    0.3119   -0.0431 C   0  0  0  0  0  0  0  0  0  0  0  0
    2.7437   -0.7262    0.4613 C   0  0  0  0  0  0  0  0  0  0  0  0
   -0.0393   -0.3116    1.6589 H   0  0  0  0  0  0  0  0  0  0  0  0
   -3.0019   -0.5033    0.9387 H   0  0  0  0  0  0  0  0  0  0  0  0
   -2.0869   -1.2749    2.2933 H   0  0  0  0  0  0  0  0  0  0  0  0
   -1.2941   -3.0166    0.8963 H   0  0  0  0  0  0  0  0  0  0  0  0
   -2.9013   -2.7068    0.1144 H   0  0  0  0  0  0  0  0  0  0  0  0
   -0.8115    1.9076    1.6209 H   0  0  0  0  0  0  0  0  0  0  0  0
   -2.1861    1.5323    0.5085 H   0  0  0  0  0  0  0  0  0  0  0  0
    0.7320    2.0390   -0.1718 H   0  0  0  0  0  0  0  0  0  0  0  0
   -0.7627    2.6294   -1.0131 H   0  0  0  0  0  0  0  0  0  0  0  0
   -0.5693   -2.6324   -1.3213 H   0  0  0  0  0  0  0  0  0  0  0  0
   -1.9309   -1.4836   -1.6503 H   0  0  0  0  0  0  0  0  0  0  0  0
    0.6966    0.5262   -1.9886 H   0  0  0  0  0  0  0  0  0  0  0  0
   -1.1123    0.5588   -2.0819 H   0  0  0  0  0  0  0  0  0  0  0  0
    2.0079    2.3553   -0.6760 H   0  0  0  0  0  0  0  0  0  0  0  0
    3.1082    2.0315    0.7199 H   0  0  0  0  0  0  0  0  0  0  0  0
    3.5898    1.5285   -0.9549 H   0  0  0  0  0  0  0  0  0  0  0  0
    0.8799    0.1773   -0.3462 H   0  0  0  0  0  0  0  0  0  0  0  0
    2.2407   -1.6770    0.6022 H   0  0  0  0  0  0  0  0  0  0  0  0
    3.7906   -0.6359    0.7352 H   0  0  0  0  0  0  0  0  0  0  0  0
  1  2  1  0
  1  3  1  0
  1  9  1  0
  1 12  1  0
  2  4  1  0
  2 13  1  0
  2 14  1  0
  3  5  1  0
  3 17  1  0
  3 18  1  0
  4  6  1  0
  4 15  1  0
  4 16  1  0
  5  7  1  0
  5 19  1  0
  5 20  1  0
  6  9  1  0
  6 21  1  0
  6 22  1  0
  7  9  1  0
  7 23  1  0
  7 24  1  0
  8 10  1  0
  8 25  1  0
  8 26  1  0
  8 27  1  0
 10 11  2  3
 10 28  1  0
 11 29  1  0
 11 30  1  0
M  RAD  1   9   2
M  END
>  <reaction>  (17) 
rxn_573

>  <mol_properties>  (17) 
{"0": {"label": "*4", "atom_type": "Cd"}, "1": {"label": "*3", "atom_type": "Cd"}, "10": {"label": "*1", "atom_type": "Cs"}, "14": {"label": "*0", "atom_type": "Cs"}, "20": {"label": "*2", "atom_type": "H0"}}

>  <type>  (17) 
unop_13

>  <geom_source>  (17) 
AutoTST

$$$$
