
     RDKit          3D

  7  6  0  0  0  0  0  0  0  0999 V2000
   -1.0240    0.8044   -0.4204 O   0  0  0  0  0  0  0  0  0  0  0  0
   -0.3365   -0.3409    0.0003 C   0  0  0  0  0  0  0  0  0  0  0  0
    1.1270   -0.1767   -0.0328 C   0  0  0  0  0  0  0  0  0  0  0  0
    2.2637   -0.0259   -0.0358 N   0  0  0  0  0  0  0  0  0  0  0  0
   -0.8050    1.5374    0.1584 H   0  0  0  0  0  0  0  0  0  0  0  0
   -0.6168   -0.6523    1.0127 H   0  0  0  0  0  0  0  0  0  0  0  0
   -0.6084   -1.1459   -0.6824 H   0  0  0  0  0  0  0  0  0  0  0  0
  1  2  1  0
  1  5  1  0
  2  3  1  0
  2  6  1  0
  2  7  1  0
  3  4  3  0
M  END
>  <reaction>  (1) 
rxn_3160

>  <mol_properties>  (1) 
{"0": {"label": "donator", "atom_type": "O2s"}, "4": {"label": "d_hydrogen", "atom_type": "H0"}}

>  <type>  (1) 
r1h

$$$$

     RDKit          3D

  6  6  0  0  0  0  0  0  0  0999 V2000
    1.9594    0.0134   -0.3734 N   0  0  0  0  0  2  0  0  0  0  0  0
    0.7437    0.0051   -0.0788 C   0  0  0  0  0  0  0  0  0  0  0  0
   -0.0745    1.0868    0.0233 O   0  0  0  0  0  0  0  0  0  0  0  0
   -1.3223    0.5972    0.3682 N   0  0  0  0  0  0  0  0  0  0  0  0
   -1.2899   -0.6150    0.4676 N   0  0  0  0  0  0  0  0  0  0  0  0
   -0.0165   -1.0874    0.2015 O   0  0  0  0  0  0  0  0  0  0  0  0
  1  2  2  0
  2  3  1  0
  2  6  1  0
  3  4  1  0
  4  5  2  0
  5  6  1  0
M  RAD  1   1   2
M  END
>  <reaction>  (2) 
rxn_3160

>  <mol_properties>  (2) 
{"0": {"label": "acceptor", "atom_type": "N3d"}}

>  <type>  (2) 
r2

$$$$

     RDKit          3D

  7  7  0  0  0  0  0  0  0  0999 V2000
    1.6064   -0.4313    0.1905 N   0  0  0  0  0  0  0  0  0  0  0  0
    0.3982   -0.1725    0.0701 C   0  0  0  0  0  0  0  0  0  0  0  0
   -0.6051   -1.0481    0.3497 O   0  0  0  0  0  0  0  0  0  0  0  0
   -1.7906   -0.4044    0.0958 N   0  0  0  0  0  0  0  0  0  0  0  0
   -1.5819    0.7348   -0.2956 N   0  0  0  0  0  0  0  0  0  0  0  0
   -0.2229    0.9708   -0.3436 O   0  0  0  0  0  0  0  0  0  0  0  0
    2.1958    0.3506   -0.0669 H   0  0  0  0  0  0  0  0  0  0  0  0
  1  2  2  3
  1  7  1  0
  2  3  1  0
  2  6  1  0
  3  4  1  0
  4  5  2  0
  5  6  1  0
M  END
>  <reaction>  (3) 
rxn_3160

>  <mol_properties>  (3) 
{"0": {"label": "acceptor", "atom_type": "N3d"}, "6": {"label": "a_hydrogen", "atom_type": "H0"}}

>  <type>  (3) 
r2h

$$$$

     RDKit          3D

 13 12  0  0  0  0  0  0  0  0999 V2000
    0.1473    0.8343    1.3729 N   0  0  0  0  0  0  0  0  0  0  0  0
   -0.4614    0.9409    0.2828 C   0  0  0  0  0  0  0  0  0  0  0  0
   -0.6225    2.1096   -0.3779 O   0  0  0  0  0  0  0  0  0  0  0  0
   -1.3350    1.8185   -1.5268 N   0  0  0  0  0  0  0  0  0  0  0  0
   -1.5868    0.6273   -1.5729 N   0  0  0  0  0  0  0  0  0  0  0  0
   -1.0754   -0.0094   -0.4577 O   0  0  0  0  0  0  0  0  0  0  0  0
    0.2878   -1.4748    1.8276 O   0  0  0  0  0  1  0  0  0  0  0  0
    1.5654   -1.7850    1.3978 C   0  0  0  0  0  0  0  0  0  0  0  0
    1.7015   -1.7870   -0.0709 C   0  0  0  0  0  0  0  0  0  0  0  0
    1.8001   -1.7468   -1.2125 N   0  0  0  0  0  0  0  0  0  0  0  0
    0.1719   -0.2539    1.8114 H   0  0  0  0  0  0  0  0  0  0  0  0
    2.3260   -1.1125    1.8119 H   0  0  0  0  0  0  0  0  0  0  0  0
    1.7885   -2.7924    1.7697 H   0  0  0  0  0  0  0  0  0  0  0  0
  1  2  2  3
  1 11  1  0
  2  3  1  0
  2  6  1  0
  3  4  1  0
  4  5  2  0
  5  6  1  0
  7  8  1  0
  8  9  1  0
  8 12  1  0
  8 13  1  0
  9 10  3  0
M  RAD  1   7   2
M  END
>  <reaction>  (4) 
rxn_3160

>  <mol_properties>  (4) 
{"0": {"label": "*1", "atom_type": "N3d"}, "1": {"label": "*0", "atom_type": "Cd"}, "6": {"label": "*3", "atom_type": "O2s"}, "7": {"label": "*4", "atom_type": "Cs"}, "10": {"label": "*2", "atom_type": "H0"}}

>  <type>  (4) 
ts

$$$$

     RDKit          3D

 13 12  0  0  0  0  0  0  0  0999 V2000
    0.6265    0.8383    0.8416 N   0  0  0  0  0  2  0  0  0  0  0  0
   -0.4160    1.0298    0.1953 C   0  0  0  0  0  0  0  0  0  0  0  0
   -1.2095    2.1272    0.3276 O   0  0  0  0  0  0  0  0  0  0  0  0
   -2.2583    1.9797   -0.5458 N   0  0  0  0  0  0  0  0  0  0  0  0
   -2.1565    0.9280   -1.1604 N   0  0  0  0  0  0  0  0  0  0  0  0
   -1.0188    0.2590   -0.7568 O   0  0  0  0  0  0  0  0  0  0  0  0
    0.8133   -1.3914    1.6108 O   0  0  0  0  0  0  0  0  0  0  0  0
    1.9735   -1.9697    1.0810 C   0  0  0  0  0  0  0  0  0  0  0  0
    1.9735   -2.0113   -0.3914 C   0  0  0  0  0  0  0  0  0  0  0  0
    1.9735   -2.0113   -1.5381 N   0  0  0  0  0  0  0  0  0  0  0  0
    0.7224   -0.3066    1.2366 H   0  0  0  0  0  0  0  0  0  0  0  0
    2.8855   -1.4546    1.4025 H   0  0  0  0  0  0  0  0  0  0  0  0
    2.0202   -2.9926    1.4546 H   0  0  0  0  0  0  0  0  0  0  0  0
  1  2  2  0
  2  3  1  0
  2  6  1  0
  3  4  1  0
  4  5  2  0
  5  6  1  0
  7  8  1  0
  7 11  1  0
  8  9  1  0
  8 12  1  0
  8 13  1  0
  9 10  3  0
M  RAD  1   1   2
M  END
>  <reaction>  (5) 
rxn_3160

>  <mol_properties>  (5) 
{"0": {"label": "*1", "atom_type": "N3d"}, "1": {"label": "*0", "atom_type": "Cd"}, "6": {"label": "*3", "atom_type": "O2s"}, "7": {"label": "*4", "atom_type": "Cs"}, "10": {"label": "*2", "atom_type": "H0"}}

>  <type>  (5) 
unop_1

>  <geom_source>  (5) 
Heuristics

$$$$

     RDKit          3D

 13 12  0  0  0  0  0  0  0  0999 V2000
   -0.8910    0.8726    1.3281 N   0  0  0  0  0  2  0  0  0  0  0  0
   -0.3815    1.0302    0.2070 C   0  0  0  0  0  0  0  0  0  0  0  0
   -0.6575    2.0744   -0.6207 O   0  0  0  0  0  0  0  0  0  0  0  0
    0.0923    1.9028   -1.7576 N   0  0  0  0  0  0  0  0  0  0  0  0
    0.7632    0.8841   -1.6761 N   0  0  0  0  0  0  0  0  0  0  0  0
    0.5280    0.2653   -0.4650 O   0  0  0  0  0  0  0  0  0  0  0  0
   -0.7043   -1.3571    2.0973 O   0  0  0  0  0  0  0  0  0  0  0  0
    0.4560   -1.9355    1.5675 C   0  0  0  0  0  0  0  0  0  0  0  0
    0.4560   -1.9771    0.0950 C   0  0  0  0  0  0  0  0  0  0  0  0
    0.4560   -1.9771   -1.0516 N   0  0  0  0  0  0  0  0  0  0  0  0
   -0.7952   -0.2724    1.7230 H   0  0  0  0  0  0  0  0  0  0  0  0
    1.3679   -1.4204    1.8890 H   0  0  0  0  0  0  0  0  0  0  0  0
    0.5027   -2.9584    1.9411 H   0  0  0  0  0  0  0  0  0  0  0  0
  1  2  2  0
  2  3  1  0
  2  6  1  0
  3  4  1  0
  4  5  2  0
  5  6  1  0
  7  8  1  0
  7 11  1  0
  8  9  1  0
  8 12  1  0
  8 13  1  0
  9 10  3  0
M  RAD  1   1   2
M  END
>  <reaction>  (6) 
rxn_3160

>  <mol_properties>  (6) 
{"0": {"label": "*1", "atom_type": "N3d"}, "1": {"label": "*0", "atom_type": "Cd"}, "6": {"label": "*3", "atom_type": "O2s"}, "7": {"label": "*4", "atom_type": "Cs"}, "10": {"label": "*2", "atom_type": "H0"}}

>  <type>  (6) 
unop_2

>  <geom_source>  (6) 
Heuristics

$$$$

     RDKit          3D

 13 12  0  0  0  0  0  0  0  0999 V2000
    0.7506    0.6609    0.3073 N   0  0  0  0  0  2  0  0  0  0  0  0
   -0.4307    1.0304    0.2106 C   0  0  0  0  0  0  0  0  0  0  0  0
   -0.8535    2.3079    0.4130 O   0  0  0  0  0  0  0  0  0  0  0  0
   -2.2120    2.3235    0.2171 N   0  0  0  0  0  0  0  0  0  0  0  0
   -2.6139    1.2060   -0.0730 N   0  0  0  0  0  0  0  0  0  0  0  0
   -1.5549    0.3213   -0.1009 O   0  0  0  0  0  0  0  0  0  0  0  0
    0.9373   -1.5688    1.0765 O   0  0  0  0  0  0  0  0  0  0  0  0
    2.0976   -2.1471    0.5467 C   0  0  0  0  0  0  0  0  0  0  0  0
    2.0976   -2.1887   -0.9257 C   0  0  0  0  0  0  0  0  0  0  0  0
    2.0976   -2.1887   -2.0724 N   0  0  0  0  0  0  0  0  0  0  0  0
    0.8465   -0.4840    0.7023 H   0  0  0  0  0  0  0  0  0  0  0  0
    3.0096   -1.6320    0.8682 H   0  0  0  0  0  0  0  0  0  0  0  0
    2.1443   -3.1700    0.9203 H   0  0  0  0  0  0  0  0  0  0  0  0
  1  2  2  0
  2  3  1  0
  2  6  1  0
  3  4  1  0
  4  5  2  0
  5  6  1  0
  7  8  1  0
  7 11  1  0
  8  9  1  0
  8 12  1  0
  8 13  1  0
  9 10  3  0
M  RAD  1   1   2
M  END
>  <reaction>  (7) 
rxn_3160

>  <mol_properties>  (7) 
{"0": {"label": "*1", "atom_type": "N3d"}, "1": {"label": "*0", "atom_type": "Cd"}, "6": {"label": "*3", "atom_type": "O2s"}, "7": {"label": "*4", "atom_type": "Cs"}, "10": {"label": "*2", "atom_type": "H0"}}

>  <type>  (7) 
unop_3

>  <geom_source>  (7) 
Heuristics

$$$$

     RDKit          3D

 13 12  0  0  0  0  0  0  0  0999 V2000
   -1.3405    0.3397   -0.1171 N   0  0  0  0  0  2  0  0  0  0  0  0
   -0.3726    1.0395    0.2217 C   0  0  0  0  0  0  0  0  0  0  0  0
   -0.4511    2.3655    0.5169 O   0  0  0  0  0  0  0  0  0  0  0  0
    0.8139    2.7858    0.8445 N   0  0  0  0  0  0  0  0  0  0  0  0
    1.6045    1.8563    0.7711 N   0  0  0  0  0  0  0  0  0  0  0  0
    0.9422    0.7091    0.3833 O   0  0  0  0  0  0  0  0  0  0  0  0
   -1.1537   -1.8900    0.6521 O   0  0  0  0  0  0  0  0  0  0  0  0
    0.0066   -2.4683    0.1223 C   0  0  0  0  0  0  0  0  0  0  0  0
    0.0066   -2.5099   -1.3502 C   0  0  0  0  0  0  0  0  0  0  0  0
    0.0066   -2.5099   -2.4968 N   0  0  0  0  0  0  0  0  0  0  0  0
   -1.2446   -0.8052    0.2778 H   0  0  0  0  0  0  0  0  0  0  0  0
    0.9185   -1.9532    0.4438 H   0  0  0  0  0  0  0  0  0  0  0  0
    0.0533   -3.4912    0.4959 H   0  0  0  0  0  0  0  0  0  0  0  0
  1  2  2  0
  2  3  1  0
  2  6  1  0
  3  4  1  0
  4  5  2  0
  5  6  1  0
  7  8  1  0
  7 11  1  0
  8  9  1  0
  8 12  1  0
  8 13  1  0
  9 10  3  0
M  RAD  1   1   2
M  END
>  <reaction>  (8) 
rxn_3160

>  <mol_properties>  (8) 
{"0": {"label": "*1", "atom_type": "N3d"}, "1": {"label": "*0", "atom_type": "Cd"}, "6": {"label": "*3", "atom_type": "O2s"}, "7": {"label": "*4", "atom_type": "Cs"}, "10": {"label": "*2", "atom_type": "H0"}}

>  <type>  (8) 
unop_4

>  <geom_source>  (8) 
Heuristics

$$$$

     RDKit          3D

 13 12  0  0  0  0  0  0  0  0999 V2000
    0.5859    0.4686   -0.1966 N   0  0  0  0  0  2  0  0  0  0  0  0
   -0.4276    1.0365    0.2411 C   0  0  0  0  0  0  0  0  0  0  0  0
   -0.7714    2.3211   -0.0471 O   0  0  0  0  0  0  0  0  0  0  0  0
   -1.9438    2.5877    0.6153 N   0  0  0  0  0  0  0  0  0  0  0  0
   -2.3091    1.6070    1.2471 N   0  0  0  0  0  0  0  0  0  0  0  0
   -1.4097    0.5753    1.0697 O   0  0  0  0  0  0  0  0  0  0  0  0
    0.7727   -1.7611    0.5726 O   0  0  0  0  0  0  0  0  0  0  0  0
    1.9329   -2.3395    0.0428 C   0  0  0  0  0  0  0  0  0  0  0  0
    1.9329   -2.3810   -1.4297 C   0  0  0  0  0  0  0  0  0  0  0  0
    1.9329   -2.3810   -2.5763 N   0  0  0  0  0  0  0  0  0  0  0  0
    0.6818   -0.6763    0.1983 H   0  0  0  0  0  0  0  0  0  0  0  0
    2.8449   -1.8243    0.3643 H   0  0  0  0  0  0  0  0  0  0  0  0
    1.9796   -3.3624    0.4164 H   0  0  0  0  0  0  0  0  0  0  0  0
  1  2  2  0
  2  3  1  0
  2  6  1  0
  3  4  1  0
  4  5  2  0
  5  6  1  0
  7  8  1  0
  7 11  1  0
  8  9  1  0
  8 12  1  0
  8 13  1  0
  9 10  3  0
M  RAD  1   1   2
M  END
>  <reaction>  (9) 
rxn_3160

>  <mol_properties>  (9) 
{"0": {"label": "*1", "atom_type": "N3d"}, "1": {"label": "*0", "atom_type": "Cd"}, "6": {"label": "*3", "atom_type": "O2s"}, "7": {"label": "*4", "atom_type": "Cs"}, "10": {"label": "*2", "atom_type": "H0"}}

>  <type>  (9) 
unop_5

>  <geom_source>  (9) 
Heuristics

$$$$

     RDKit          3D

 13 12  0  0  0  0  0  0  0  0999 V2000
   -0.9330    0.2365   -0.5231 N   0  0  0  0  0  2  0  0  0  0  0  0
   -0.3732    1.0462    0.2335 C   0  0  0  0  0  0  0  0  0  0  0  0
   -0.8907    2.2560    0.5798 O   0  0  0  0  0  0  0  0  0  0  0  0
    0.0096    2.8584    1.4229 N   0  0  0  0  0  0  0  0  0  0  0  0
    0.9794    2.1350    1.5982 N   0  0  0  0  0  0  0  0  0  0  0  0
    0.8245    0.9644    0.8835 O   0  0  0  0  0  0  0  0  0  0  0  0
   -0.7463   -1.9932    0.2461 O   0  0  0  0  0  0  0  0  0  0  0  0
    0.4140   -2.5715   -0.2837 C   0  0  0  0  0  0  0  0  0  0  0  0
    0.4140   -2.6131   -1.7561 C   0  0  0  0  0  0  0  0  0  0  0  0
    0.4140   -2.6131   -2.9027 N   0  0  0  0  0  0  0  0  0  0  0  0
   -0.8371   -0.9084   -0.1281 H   0  0  0  0  0  0  0  0  0  0  0  0
    1.3260   -2.0564    0.0378 H   0  0  0  0  0  0  0  0  0  0  0  0
    0.4607   -3.5944    0.0899 H   0  0  0  0  0  0  0  0  0  0  0  0
  1  2  2  0
  2  3  1  0
  2  6  1  0
  3  4  1  0
  4  5  2  0
  5  6  1  0
  7  8  1  0
  7 11  1  0
  8  9  1  0
  8 12  1  0
  8 13  1  0
  9 10  3  0
M  RAD  1   1   2
M  END
>  <reaction>  (10) 
rxn_3160

>  <mol_properties>  (10) 
{"0": {"label": "*1", "atom_type": "N3d"}, "1": {"label": "*0", "atom_type": "Cd"}, "6": {"label": "*3", "atom_type": "O2s"}, "7": {"label": "*4", "atom_type": "Cs"}, "10": {"label": "*2", "atom_type": "H0"}}

>  <type>  (10) 
unop_6

>  <geom_source>  (10) 
Heuristics

$$$$

     RDKit          3D

 13 12  0  0  0  0  0  0  0  0999 V2000
   -0.3740    0.2284   -0.6837 N   0  0  0  0  0  2  0  0  0  0  0  0
   -0.3823    1.0504    0.2467 C   0  0  0  0  0  0  0  0  0  0  0  0
   -1.2176    2.1223    0.3153 O   0  0  0  0  0  0  0  0  0  0  0  0
   -0.9297    2.7898    1.4797 N   0  0  0  0  0  0  0  0  0  0  0  0
   -0.0289    2.2251    2.0832 N   0  0  0  0  0  0  0  0  0  0  0  0
    0.3809    1.1123    1.3770 O   0  0  0  0  0  0  0  0  0  0  0  0
   -0.1872   -2.0013    0.0856 O   0  0  0  0  0  0  0  0  0  0  0  0
    0.9730   -2.5797   -0.4442 C   0  0  0  0  0  0  0  0  0  0  0  0
    0.9730   -2.6213   -1.9167 C   0  0  0  0  0  0  0  0  0  0  0  0
    0.9730   -2.6213   -3.0633 N   0  0  0  0  0  0  0  0  0  0  0  0
   -0.2781   -0.9166   -0.2887 H   0  0  0  0  0  0  0  0  0  0  0  0
    1.8850   -2.0645   -0.1227 H   0  0  0  0  0  0  0  0  0  0  0  0
    1.0197   -3.6026   -0.0706 H   0  0  0  0  0  0  0  0  0  0  0  0
  1  2  2  0
  2  3  1  0
  2  6  1  0
  3  4  1  0
  4  5  2  0
  5  6  1  0
  7  8  1  0
  7 11  1  0
  8  9  1  0
  8 12  1  0
  8 13  1  0
  9 10  3  0
M  RAD  1   1   2
M  END
>  <reaction>  (11) 
rxn_3160

>  <mol_properties>  (11) 
{"0": {"label": "*1", "atom_type": "N3d"}, "1": {"label": "*0", "atom_type": "Cd"}, "6": {"label": "*3", "atom_type": "O2s"}, "7": {"label": "*4", "atom_type": "Cs"}, "10": {"label": "*2", "atom_type": "H0"}}

>  <type>  (11) 
unop_7

>  <geom_source>  (11) 
Heuristics

$$$$

     RDKit          3D

 13 12  0  0  0  0  0  0  0  0999 V2000
    0.2349    0.9485    1.2573 N   0  0  0  0  0  2  0  0  0  0  0  0
   -0.3996    1.0301    0.1933 C   0  0  0  0  0  0  0  0  0  0  0  0
   -1.3219    1.9931   -0.0775 O   0  0  0  0  0  0  0  0  0  0  0  0
   -1.8031    1.7532   -1.3405 N   0  0  0  0  0  0  0  0  0  0  0  0
   -1.2641    0.7672   -1.8219 N   0  0  0  0  0  0  0  0  0  0  0  0
   -0.3593    0.2427   -0.9212 O   0  0  0  0  0  0  0  0  0  0  0  0
    0.4216   -1.2812    2.0265 O   0  0  0  0  0  0  0  0  0  0  0  0
    1.5819   -1.8595    1.4967 C   0  0  0  0  0  0  0  0  0  0  0  0
    1.5819   -1.9011    0.0243 C   0  0  0  0  0  0  0  0  0  0  0  0
    1.5819   -1.9011   -1.1223 N   0  0  0  0  0  0  0  0  0  0  0  0
    0.3307   -0.1964    1.6523 H   0  0  0  0  0  0  0  0  0  0  0  0
    2.4938   -1.3444    1.8183 H   0  0  0  0  0  0  0  0  0  0  0  0
    1.6286   -2.8824    1.8703 H   0  0  0  0  0  0  0  0  0  0  0  0
  1  2  2  0
  2  3  1  0
  2  6  1  0
  3  4  1  0
  4  5  2  0
  5  6  1  0
  7  8  1  0
  7 11  1  0
  8  9  1  0
  8 12  1  0
  8 13  1  0
  9 10  3  0
M  RAD  1   1   2
M  END
>  <reaction>  (12) 
rxn_3160

>  <mol_properties>  (12) 
{"0": {"label": "*1", "atom_type": "N3d"}, "1": {"label": "*0", "atom_type": "Cd"}, "6": {"label": "*3", "atom_type": "O2s"}, "7": {"label": "*4", "atom_type": "Cs"}, "10": {"label": "*2", "atom_type": "H0"}}

>  <type>  (12) 
unop_8

>  <geom_source>  (12) 
Heuristics

$$$$

     RDKit          3D

 13 12  0  0  0  0  0  0  0  0999 V2000
   -1.4829    0.5117    0.4258 N   0  0  0  0  0  2  0  0  0  0  0  0
   -0.3763    1.0334    0.2150 C   0  0  0  0  0  0  0  0  0  0  0  0
   -0.1646    2.3749    0.1308 O   0  0  0  0  0  0  0  0  0  0  0  0
    1.1740    2.5623   -0.1085 N   0  0  0  0  0  0  0  0  0  0  0  0
    1.7507    1.4862   -0.1707 N   0  0  0  0  0  0  0  0  0  0  0  0
    0.8478    0.4603    0.0225 O   0  0  0  0  0  0  0  0  0  0  0  0
   -1.2962   -1.7180    1.1950 O   0  0  0  0  0  0  0  0  0  0  0  0
   -0.1359   -2.2963    0.6652 C   0  0  0  0  0  0  0  0  0  0  0  0
   -0.1359   -2.3379   -0.8073 C   0  0  0  0  0  0  0  0  0  0  0  0
   -0.1359   -2.3379   -1.9539 N   0  0  0  0  0  0  0  0  0  0  0  0
   -1.3870   -0.6332    0.8207 H   0  0  0  0  0  0  0  0  0  0  0  0
    0.7761   -1.7812    0.9867 H   0  0  0  0  0  0  0  0  0  0  0  0
   -0.0892   -3.3192    1.0388 H   0  0  0  0  0  0  0  0  0  0  0  0
  1  2  2  0
  2  3  1  0
  2  6  1  0
  3  4  1  0
  4  5  2  0
  5  6  1  0
  7  8  1  0
  7 11  1  0
  8  9  1  0
  8 12  1  0
  8 13  1  0
  9 10  3  0
M  RAD  1   1   2
M  END
>  <reaction>  (13) 
rxn_3160

>  <mol_properties>  (13) 
{"0": {"label": "*1", "atom_type": "N3d"}, "1": {"label": "*0", "atom_type": "Cd"}, "6": {"label": "*3", "atom_type": "O2s"}, "7": {"label": "*4", "atom_type": "Cs"}, "10": {"label": "*2", "atom_type": "H0"}}

>  <type>  (13) 
unop_9

>  <geom_source>  (13) 
Heuristics

$$$$

     RDKit          3D

 13 12  0  0  0  0  0  0  0  0999 V2000
   -0.3211    0.9612    1.4369 N   0  0  0  0  0  2  0  0  0  0  0  0
   -0.3874    1.0304    0.1992 C   0  0  0  0  0  0  0  0  0  0  0  0
   -1.1044    1.9672   -0.4791 O   0  0  0  0  0  0  0  0  0  0  0  0
   -0.9329    1.7208   -1.8186 N   0  0  0  0  0  0  0  0  0  0  0  0
   -0.2029    0.7544   -1.9843 N   0  0  0  0  0  0  0  0  0  0  0  0
    0.1916    0.2515   -0.7610 O   0  0  0  0  0  0  0  0  0  0  0  0
   -0.1343   -1.2685    2.2062 O   0  0  0  0  0  0  0  0  0  0  0  0
    1.0260   -1.8468    1.6763 C   0  0  0  0  0  0  0  0  0  0  0  0
    1.0260   -1.8884    0.2039 C   0  0  0  0  0  0  0  0  0  0  0  0
    1.0260   -1.8884   -0.9427 N   0  0  0  0  0  0  0  0  0  0  0  0
   -0.2252   -0.1837    1.8319 H   0  0  0  0  0  0  0  0  0  0  0  0
    1.9379   -1.3317    1.9979 H   0  0  0  0  0  0  0  0  0  0  0  0
    1.0727   -2.8697    2.0500 H   0  0  0  0  0  0  0  0  0  0  0  0
  1  2  2  0
  2  3  1  0
  2  6  1  0
  3  4  1  0
  4  5  2  0
  5  6  1  0
  7  8  1  0
  7 11  1  0
  8  9  1  0
  8 12  1  0
  8 13  1  0
  9 10  3  0
M  RAD  1   1   2
M  END
>  <reaction>  (14) 
rxn_3160

>  <mol_properties>  (14) 
{"0": {"label": "*1", "atom_type": "N3d"}, "1": {"label": "*0", "atom_type": "Cd"}, "6": {"label": "*3", "atom_type": "O2s"}, "7": {"label": "*4", "atom_type": "Cs"}, "10": {"label": "*2", "atom_type": "H0"}}

>  <type>  (14) 
unop_10

>  <geom_source>  (14) 
Heuristics

$$$$

     RDKit          3D

 13 12  0  0  0  0  0  0  0  0999 V2000
    0.1823    0.3145   -0.5591 N   0  0  0  0  0  2  0  0  0  0  0  0
   -0.4019    1.0480    0.2545 C   0  0  0  0  0  0  0  0  0  0  0  0
   -1.1843    2.1062   -0.0913 O   0  0  0  0  0  0  0  0  0  0  0  0
   -1.6512    2.6654    1.0721 N   0  0  0  0  0  0  0  0  0  0  0  0
   -1.2276    2.0512    2.0404 N   0  0  0  0  0  0  0  0  0  0  0  0
   -0.4268    1.0091    1.6190 O   0  0  0  0  0  0  0  0  0  0  0  0
    0.3690   -1.9153    0.2101 O   0  0  0  0  0  0  0  0  0  0  0  0
    1.5293   -2.4936   -0.3197 C   0  0  0  0  0  0  0  0  0  0  0  0
    1.5293   -2.5352   -1.7922 C   0  0  0  0  0  0  0  0  0  0  0  0
    1.5293   -2.5352   -2.9388 N   0  0  0  0  0  0  0  0  0  0  0  0
    0.2782   -0.8305   -0.1641 H   0  0  0  0  0  0  0  0  0  0  0  0
    2.4413   -1.9785    0.0018 H   0  0  0  0  0  0  0  0  0  0  0  0
    1.5760   -3.5165    0.0539 H   0  0  0  0  0  0  0  0  0  0  0  0
  1  2  2  0
  2  3  1  0
  2  6  1  0
  3  4  1  0
  4  5  2  0
  5  6  1  0
  7  8  1  0
  7 11  1  0
  8  9  1  0
  8 12  1  0
  8 13  1  0
  9 10  3  0
M  RAD  1   1   2
M  END
>  <reaction>  (15) 
rxn_3160

>  <mol_properties>  (15) 
{"0": {"label": "*1", "atom_type": "N3d"}, "1": {"label": "*0", "atom_type": "Cd"}, "6": {"label": "*3", "atom_type": "O2s"}, "7": {"label": "*4", "atom_type": "Cs"}, "10": {"label": "*2", "atom_type": "H0"}}

>  <type>  (15) 
unop_11

>  <geom_source>  (15) 
Heuristics

$$$$

     RDKit          3D

 13 12  0  0  0  0  0  0  0  0999 V2000
   -1.3183    0.7071    0.9570 N   0  0  0  0  0  2  0  0  0  0  0  0
   -0.3794    1.0304    0.2119 C   0  0  0  0  0  0  0  0  0  0  0  0
   -0.2457    2.2552   -0.3657 O   0  0  0  0  0  0  0  0  0  0  0  0
    0.9064    2.2307   -1.1116 N   0  0  0  0  0  0  0  0  0  0  0  0
    1.4454    1.1367   -1.0276 N   0  0  0  0  0  0  0  0  0  0  0  0
    0.7016    0.3108   -0.2094 O   0  0  0  0  0  0  0  0  0  0  0  0
   -1.1315   -1.5226    1.7262 O   0  0  0  0  0  0  0  0  0  0  0  0
    0.0288   -2.1009    1.1964 C   0  0  0  0  0  0  0  0  0  0  0  0
    0.0288   -2.1425   -0.2760 C   0  0  0  0  0  0  0  0  0  0  0  0
    0.0288   -2.1425   -1.4226 N   0  0  0  0  0  0  0  0  0  0  0  0
   -1.2224   -0.4378    1.3520 H   0  0  0  0  0  0  0  0  0  0  0  0
    0.9407   -1.5858    1.5180 H   0  0  0  0  0  0  0  0  0  0  0  0
    0.0755   -3.1238    1.5700 H   0  0  0  0  0  0  0  0  0  0  0  0
  1  2  2  0
  2  3  1  0
  2  6  1  0
  3  4  1  0
  4  5  2  0
  5  6  1  0
  7  8  1  0
  7 11  1  0
  8  9  1  0
  8 12  1  0
  8 13  1  0
  9 10  3  0
M  RAD  1   1   2
M  END
>  <reaction>  (16) 
rxn_3160

>  <mol_properties>  (16) 
{"0": {"label": "*1", "atom_type": "N3d"}, "1": {"label": "*0", "atom_type": "Cd"}, "6": {"label": "*3", "atom_type": "O2s"}, "7": {"label": "*4", "atom_type": "Cs"}, "10": {"label": "*2", "atom_type": "H0"}}

>  <type>  (16) 
unop_12

>  <geom_source>  (16) 
Heuristics

$$$$

     RDKit          3D

 13 12  0  0  0  0  0  0  0  0999 V2000
   -0.8911    0.8726    1.3280 N   0  0  0  0  0  2  0  0  0  0  0  0
   -0.3815    1.0303    0.2070 C   0  0  0  0  0  0  0  0  0  0  0  0
   -0.6575    2.0744   -0.6207 O   0  0  0  0  0  0  0  0  0  0  0  0
    0.0923    1.9028   -1.7576 N   0  0  0  0  0  0  0  0  0  0  0  0
    0.7632    0.8841   -1.6761 N   0  0  0  0  0  0  0  0  0  0  0  0
    0.5281    0.2653   -0.4650 O   0  0  0  0  0  0  0  0  0  0  0  0
   -0.7043   -1.3572    2.0973 O   0  0  0  0  0  0  0  0  0  0  0  0
    0.4560   -1.9355    1.5675 C   0  0  0  0  0  0  0  0  0  0  0  0
    0.4560   -1.9771    0.0950 C   0  0  0  0  0  0  0  0  0  0  0  0
    0.4560   -1.9771   -1.0516 N   0  0  0  0  0  0  0  0  0  0  0  0
   -0.7952   -0.2724    1.7230 H   0  0  0  0  0  0  0  0  0  0  0  0
    1.3679   -1.4204    1.8890 H   0  0  0  0  0  0  0  0  0  0  0  0
    0.5027   -2.9584    1.9411 H   0  0  0  0  0  0  0  0  0  0  0  0
  1  2  2  0
  2  3  1  0
  2  6  1  0
  3  4  1  0
  4  5  2  0
  5  6  1  0
  7  8  1  0
  7 11  1  0
  8  9  1  0
  8 12  1  0
  8 13  1  0
  9 10  3  0
M  RAD  1   1   2
M  END
>  <reaction>  (17) 
rxn_3160

>  <mol_properties>  (17) 
{"0": {"label": "*1", "atom_type": "N3d"}, "1": {"label": "*0", "atom_type": "Cd"}, "6": {"label": "*3", "atom_type": "O2s"}, "7": {"label": "*4", "atom_type": "Cs"}, "10": {"label": "*2", "atom_type": "H0"}}

>  <type>  (17) 
unop_13

>  <geom_source>  (17) 
gaussian_log

$$$$
