
     RDKit          3D

  4  3  0  0  0  0  0  0  0  0999 V2000
   -0.6811    0.2130   -0.1145 N   0  0  0  0  0  0  0  0  0  0  0  0
    0.4886    0.0558    0.1399 C   0  0  0  0  0  0  0  0  0  0  0  0
    1.6370   -0.0014    0.2890 O   0  0  0  0  0  0  0  0  0  0  0  0
   -1.4444   -0.2674    0.3244 H   0  0  0  0  0  0  0  0  0  0  0  0
  1  2  2  0
  1  4  1  0
  2  3  2  0
M  END
>  <reaction>  (1) 
rxn_695

>  <mol_properties>  (1) 
{"0": {"label": "donator", "atom_type": "N3d"}, "3": {"label": "d_hydrogen", "atom_type": "H0"}}

>  <type>  (1) 
r1h

$$$$

     RDKit          3D

  2  1  0  0  0  0  0  0  0  0999 V2000
    0.0000    0.0000    0.4855 O   0  0  0  0  0  1  0  0  0  0  0  0
    0.0000    0.0000   -0.4855 H   0  0  0  0  0  0  0  0  0  0  0  0
  1  2  1  0
M  RAD  1   1   2
M  END
>  <reaction>  (2) 
rxn_695

>  <mol_properties>  (2) 
{"0": {"label": "acceptor", "atom_type": "O2s"}}

>  <type>  (2) 
r2

$$$$

     RDKit          3D

  3  2  0  0  0  0  0  0  0  0999 V2000
   -0.0003    0.3867    0.0000 O   0  0  0  0  0  0  0  0  0  0  0  0
   -0.7617   -0.1940    0.0000 H   0  0  0  0  0  0  0  0  0  0  0  0
    0.7620   -0.1927    0.0000 H   0  0  0  0  0  0  0  0  0  0  0  0
  1  2  1  0
  1  3  1  0
M  END
>  <reaction>  (3) 
rxn_695

>  <mol_properties>  (3) 
{"0": {"label": "acceptor", "atom_type": "O2s"}, "2": {"label": "a_hydrogen", "atom_type": "H0"}}

>  <type>  (3) 
r2h

$$$$

     RDKit          3D

  6  4  0  0  0  0  0  0  0  0999 V2000
    0.4477   -1.2599    1.6123 O   0  0  0  0  0  1  0  0  0  0  0  0
   -0.3404   -1.8199    1.5685 H   0  0  0  0  0  0  0  0  0  0  0  0
   -0.3743    0.5430    0.4536 N   0  0  0  0  0  0  0  0  0  0  0  0
   -0.0248    0.3978   -0.7039 C   0  0  0  0  0  0  0  0  0  0  0  0
    0.2456    0.3418   -1.8300 O   0  0  0  0  0  0  0  0  0  0  0  0
    0.0462   -0.1394    1.2985 H   0  0  0  0  0  0  0  0  0  0  0  0
  1  2  1  0
  3  4  2  0
  3  6  1  0
  4  5  2  0
M  RAD  1   1   2
M  END
>  <reaction>  (4) 
rxn_695

>  <mol_properties>  (4) 
{"0": {"label": "*3", "atom_type": "O2s"}, "1": {"label": "*4", "atom_type": "H0"}, "2": {"label": "*1", "atom_type": "N3d"}, "3": {"label": "*0", "atom_type": "Cdd"}, "5": {"label": "*2", "atom_type": "H0"}}

>  <type>  (4) 
ts

$$$$

     RDKit          3D

  6  4  0  0  0  0  0  0  0  0999 V2000
   -0.0134   -1.1669    1.9824 O   0  0  0  0  0  0  0  0  0  0  0  0
    0.7860   -1.0441    2.4951 H   0  0  0  0  0  0  0  0  0  0  0  0
   -0.0134    0.5714    0.3970 N   0  0  0  0  0  0  0  0  0  0  0  0
   -0.0134    0.4299   -0.8021 C   0  0  0  0  0  0  0  0  0  0  0  0
   -0.0134    0.4299   -1.9615 O   0  0  0  0  0  1  0  0  0  0  0  0
   -0.0134   -0.3179    1.2081 H   0  0  0  0  0  0  0  0  0  0  0  0
  1  2  1  0
  1  6  1  0
  3  4  3  0
  4  5  1  0
M  RAD  1   5   2
M  END
>  <reaction>  (5) 
rxn_695

>  <mol_properties>  (5) 
{"0": {"label": "*3", "atom_type": "O2s"}, "1": {"label": "*4", "atom_type": "H0"}, "2": {"label": "*1", "atom_type": "N3d"}, "3": {"label": "*0", "atom_type": "Cdd"}, "5": {"label": "*2", "atom_type": "H0"}}

>  <type>  (5) 
unop_1

>  <geom_source>  (5) 
Heuristics

$$$$

     RDKit          3D

  6  4  0  0  0  0  0  0  0  0999 V2000
   -0.0078   -1.1526    1.9981 O   0  0  0  0  0  0  0  0  0  0  0  0
    0.4538   -1.8796    1.5792 H   0  0  0  0  0  0  0  0  0  0  0  0
   -0.0077    0.5856    0.4126 N   0  0  0  0  0  0  0  0  0  0  0  0
   -0.0077    0.4442   -0.7864 C   0  0  0  0  0  0  0  0  0  0  0  0
   -0.0077    0.4442   -1.9459 O   0  0  0  0  0  1  0  0  0  0  0  0
   -0.0078   -0.3036    1.2237 H   0  0  0  0  0  0  0  0  0  0  0  0
  1  2  1  0
  1  6  1  0
  3  4  3  0
  4  5  1  0
M  RAD  1   5   2
M  END
>  <reaction>  (6) 
rxn_695

>  <mol_properties>  (6) 
{"0": {"label": "*3", "atom_type": "O2s"}, "1": {"label": "*4", "atom_type": "H0"}, "2": {"label": "*1", "atom_type": "N3d"}, "3": {"label": "*0", "atom_type": "Cdd"}, "5": {"label": "*2", "atom_type": "H0"}}

>  <type>  (6) 
unop_2

>  <geom_source>  (6) 
Heuristics

$$$$

     RDKit          3D

  6  4  0  0  0  0  0  0  0  0999 V2000
   -0.0078   -1.1707    1.9782 O   0  0  0  0  0  0  0  0  0  0  0  0
    0.4538   -0.8203    2.7406 H   0  0  0  0  0  0  0  0  0  0  0  0
   -0.0077    0.5675    0.3928 N   0  0  0  0  0  0  0  0  0  0  0  0
   -0.0077    0.4261   -0.8063 C   0  0  0  0  0  0  0  0  0  0  0  0
   -0.0077    0.4261   -1.9657 O   0  0  0  0  0  1  0  0  0  0  0  0
   -0.0078   -0.3217    1.2039 H   0  0  0  0  0  0  0  0  0  0  0  0
  1  2  1  0
  1  6  1  0
  3  4  3  0
  4  5  1  0
M  RAD  1   5   2
M  END
>  <reaction>  (7) 
rxn_695

>  <mol_properties>  (7) 
{"0": {"label": "*3", "atom_type": "O2s"}, "1": {"label": "*4", "atom_type": "H0"}, "2": {"label": "*1", "atom_type": "N3d"}, "3": {"label": "*0", "atom_type": "Cdd"}, "5": {"label": "*2", "atom_type": "H0"}}

>  <type>  (7) 
unop_3

>  <geom_source>  (7) 
Heuristics

$$$$

     RDKit          3D

  6  4  0  0  0  0  0  0  0  0999 V2000
    0.0134   -1.1564    1.9939 O   0  0  0  0  0  0  0  0  0  0  0  0
   -0.7860   -1.6557    1.8246 H   0  0  0  0  0  0  0  0  0  0  0  0
    0.0134    0.5818    0.4084 N   0  0  0  0  0  0  0  0  0  0  0  0
    0.0134    0.4404   -0.7906 C   0  0  0  0  0  0  0  0  0  0  0  0
    0.0134    0.4404   -1.9501 O   0  0  0  0  0  1  0  0  0  0  0  0
    0.0134   -0.3075    1.2195 H   0  0  0  0  0  0  0  0  0  0  0  0
  1  2  1  0
  1  6  1  0
  3  4  3  0
  4  5  1  0
M  RAD  1   5   2
M  END
>  <reaction>  (8) 
rxn_695

>  <mol_properties>  (8) 
{"0": {"label": "*3", "atom_type": "O2s"}, "1": {"label": "*4", "atom_type": "H0"}, "2": {"label": "*1", "atom_type": "N3d"}, "3": {"label": "*0", "atom_type": "Cdd"}, "5": {"label": "*2", "atom_type": "H0"}}

>  <type>  (8) 
unop_4

>  <geom_source>  (8) 
Heuristics

$$$$

     RDKit          3D

  6  4  0  0  0  0  0  0  0  0999 V2000
   -0.0000   -1.1721    1.9767 O   0  0  0  0  0  0  0  0  0  0  0  0
   -0.0000   -0.7383    2.8304 H   0  0  0  0  0  0  0  0  0  0  0  0
    0.0000    0.5661    0.3912 N   0  0  0  0  0  0  0  0  0  0  0  0
    0.0000    0.4247   -0.8078 C   0  0  0  0  0  0  0  0  0  0  0  0
    0.0000    0.4247   -1.9673 O   0  0  0  0  0  1  0  0  0  0  0  0
   -0.0000   -0.3231    1.2023 H   0  0  0  0  0  0  0  0  0  0  0  0
  1  2  1  0
  1  6  1  0
  3  4  3  0
  4  5  1  0
M  RAD  1   5   2
M  END
>  <reaction>  (9) 
rxn_695

>  <mol_properties>  (9) 
{"0": {"label": "*3", "atom_type": "O2s"}, "1": {"label": "*4", "atom_type": "H0"}, "2": {"label": "*1", "atom_type": "N3d"}, "3": {"label": "*0", "atom_type": "Cdd"}, "5": {"label": "*2", "atom_type": "H0"}}

>  <type>  (9) 
unop_5

>  <geom_source>  (9) 
Heuristics

$$$$

     RDKit          3D

  6  4  0  0  0  0  0  0  0  0999 V2000
    0.0155   -1.1617    1.9882 O   0  0  0  0  0  0  0  0  0  0  0  0
   -0.9076   -1.3499    2.1599 H   0  0  0  0  0  0  0  0  0  0  0  0
    0.0155    0.5766    0.4027 N   0  0  0  0  0  0  0  0  0  0  0  0
    0.0155    0.4352   -0.7964 C   0  0  0  0  0  0  0  0  0  0  0  0
    0.0155    0.4352   -1.9558 O   0  0  0  0  0  1  0  0  0  0  0  0
    0.0155   -0.3127    1.2138 H   0  0  0  0  0  0  0  0  0  0  0  0
  1  2  1  0
  1  6  1  0
  3  4  3  0
  4  5  1  0
M  RAD  1   5   2
M  END
>  <reaction>  (10) 
rxn_695

>  <mol_properties>  (10) 
{"0": {"label": "*3", "atom_type": "O2s"}, "1": {"label": "*4", "atom_type": "H0"}, "2": {"label": "*1", "atom_type": "N3d"}, "3": {"label": "*0", "atom_type": "Cdd"}, "5": {"label": "*2", "atom_type": "H0"}}

>  <type>  (10) 
unop_6

>  <geom_source>  (10) 
Heuristics

$$$$

     RDKit          3D

  6  4  0  0  0  0  0  0  0  0999 V2000
    0.0134   -1.1669    1.9824 O   0  0  0  0  0  0  0  0  0  0  0  0
   -0.7860   -1.0441    2.4951 H   0  0  0  0  0  0  0  0  0  0  0  0
    0.0134    0.5714    0.3970 N   0  0  0  0  0  0  0  0  0  0  0  0
    0.0134    0.4299   -0.8021 C   0  0  0  0  0  0  0  0  0  0  0  0
    0.0134    0.4299   -1.9615 O   0  0  0  0  0  1  0  0  0  0  0  0
    0.0134   -0.3179    1.2081 H   0  0  0  0  0  0  0  0  0  0  0  0
  1  2  1  0
  1  6  1  0
  3  4  3  0
  4  5  1  0
M  RAD  1   5   2
M  END
>  <reaction>  (11) 
rxn_695

>  <mol_properties>  (11) 
{"0": {"label": "*3", "atom_type": "O2s"}, "1": {"label": "*4", "atom_type": "H0"}, "2": {"label": "*1", "atom_type": "N3d"}, "3": {"label": "*0", "atom_type": "Cdd"}, "5": {"label": "*2", "atom_type": "H0"}}

>  <type>  (11) 
unop_7

>  <geom_source>  (11) 
Heuristics

$$$$

     RDKit          3D

  6  4  0  0  0  0  0  0  0  0999 V2000
   -0.0155   -1.1617    1.9882 O   0  0  0  0  0  0  0  0  0  0  0  0
    0.9075   -1.3499    2.1599 H   0  0  0  0  0  0  0  0  0  0  0  0
   -0.0155    0.5766    0.4027 N   0  0  0  0  0  0  0  0  0  0  0  0
   -0.0155    0.4352   -0.7964 C   0  0  0  0  0  0  0  0  0  0  0  0
   -0.0155    0.4352   -1.9558 O   0  0  0  0  0  1  0  0  0  0  0  0
   -0.0155   -0.3127    1.2138 H   0  0  0  0  0  0  0  0  0  0  0  0
  1  2  1  0
  1  6  1  0
  3  4  3  0
  4  5  1  0
M  RAD  1   5   2
M  END
>  <reaction>  (12) 
rxn_695

>  <mol_properties>  (12) 
{"0": {"label": "*3", "atom_type": "O2s"}, "1": {"label": "*4", "atom_type": "H0"}, "2": {"label": "*1", "atom_type": "N3d"}, "3": {"label": "*0", "atom_type": "Cdd"}, "5": {"label": "*2", "atom_type": "H0"}}

>  <type>  (12) 
unop_8

>  <geom_source>  (12) 
Heuristics

$$$$

     RDKit          3D

  6  4  0  0  0  0  0  0  0  0999 V2000
    0.0077   -1.1526    1.9981 O   0  0  0  0  0  0  0  0  0  0  0  0
   -0.4538   -1.8796    1.5792 H   0  0  0  0  0  0  0  0  0  0  0  0
    0.0078    0.5856    0.4126 N   0  0  0  0  0  0  0  0  0  0  0  0
    0.0078    0.4442   -0.7864 C   0  0  0  0  0  0  0  0  0  0  0  0
    0.0078    0.4442   -1.9459 O   0  0  0  0  0  1  0  0  0  0  0  0
    0.0077   -0.3036    1.2237 H   0  0  0  0  0  0  0  0  0  0  0  0
  1  2  1  0
  1  6  1  0
  3  4  3  0
  4  5  1  0
M  RAD  1   5   2
M  END
>  <reaction>  (13) 
rxn_695

>  <mol_properties>  (13) 
{"0": {"label": "*3", "atom_type": "O2s"}, "1": {"label": "*4", "atom_type": "H0"}, "2": {"label": "*1", "atom_type": "N3d"}, "3": {"label": "*0", "atom_type": "Cdd"}, "5": {"label": "*2", "atom_type": "H0"}}

>  <type>  (13) 
unop_9

>  <geom_source>  (13) 
Heuristics

$$$$

     RDKit          3D

  6  4  0  0  0  0  0  0  0  0999 V2000
   -0.0134   -1.1564    1.9939 O   0  0  0  0  0  0  0  0  0  0  0  0
    0.7860   -1.6557    1.8246 H   0  0  0  0  0  0  0  0  0  0  0  0
   -0.0134    0.5818    0.4084 N   0  0  0  0  0  0  0  0  0  0  0  0
   -0.0134    0.4404   -0.7906 C   0  0  0  0  0  0  0  0  0  0  0  0
   -0.0134    0.4404   -1.9501 O   0  0  0  0  0  1  0  0  0  0  0  0
   -0.0134   -0.3075    1.2195 H   0  0  0  0  0  0  0  0  0  0  0  0
  1  2  1  0
  1  6  1  0
  3  4  3  0
  4  5  1  0
M  RAD  1   5   2
M  END
>  <reaction>  (14) 
rxn_695

>  <mol_properties>  (14) 
{"0": {"label": "*3", "atom_type": "O2s"}, "1": {"label": "*4", "atom_type": "H0"}, "2": {"label": "*1", "atom_type": "N3d"}, "3": {"label": "*0", "atom_type": "Cdd"}, "5": {"label": "*2", "atom_type": "H0"}}

>  <type>  (14) 
unop_10

>  <geom_source>  (14) 
Heuristics

$$$$

     RDKit          3D

  6  4  0  0  0  0  0  0  0  0999 V2000
    0.0077   -1.1707    1.9782 O   0  0  0  0  0  0  0  0  0  0  0  0
   -0.4538   -0.8203    2.7406 H   0  0  0  0  0  0  0  0  0  0  0  0
    0.0078    0.5675    0.3928 N   0  0  0  0  0  0  0  0  0  0  0  0
    0.0078    0.4261   -0.8063 C   0  0  0  0  0  0  0  0  0  0  0  0
    0.0078    0.4261   -1.9657 O   0  0  0  0  0  1  0  0  0  0  0  0
    0.0077   -0.3217    1.2039 H   0  0  0  0  0  0  0  0  0  0  0  0
  1  2  1  0
  1  6  1  0
  3  4  3  0
  4  5  1  0
M  RAD  1   5   2
M  END
>  <reaction>  (15) 
rxn_695

>  <mol_properties>  (15) 
{"0": {"label": "*3", "atom_type": "O2s"}, "1": {"label": "*4", "atom_type": "H0"}, "2": {"label": "*1", "atom_type": "N3d"}, "3": {"label": "*0", "atom_type": "Cdd"}, "5": {"label": "*2", "atom_type": "H0"}}

>  <type>  (15) 
unop_11

>  <geom_source>  (15) 
Heuristics

$$$$

     RDKit          3D

  6  4  0  0  0  0  0  0  0  0999 V2000
   -0.0000   -1.1512    1.9996 O   0  0  0  0  0  0  0  0  0  0  0  0
   -0.0000   -1.9615    1.4893 H   0  0  0  0  0  0  0  0  0  0  0  0
    0.0000    0.5870    0.4141 N   0  0  0  0  0  0  0  0  0  0  0  0
    0.0000    0.4456   -0.7849 C   0  0  0  0  0  0  0  0  0  0  0  0
    0.0000    0.4456   -1.9444 O   0  0  0  0  0  1  0  0  0  0  0  0
   -0.0000   -0.3022    1.2252 H   0  0  0  0  0  0  0  0  0  0  0  0
  1  2  1  0
  1  6  1  0
  3  4  3  0
  4  5  1  0
M  RAD  1   5   2
M  END
>  <reaction>  (16) 
rxn_695

>  <mol_properties>  (16) 
{"0": {"label": "*3", "atom_type": "O2s"}, "1": {"label": "*4", "atom_type": "H0"}, "2": {"label": "*1", "atom_type": "N3d"}, "3": {"label": "*0", "atom_type": "Cdd"}, "5": {"label": "*2", "atom_type": "H0"}}

>  <type>  (16) 
unop_12

>  <geom_source>  (16) 
Heuristics

$$$$
