
     RDKit          3D

 13 12  0  0  0  0  0  0  0  0999 V2000
    2.2975   -0.6134    0.7685 C   0  0  0  0  0  0  0  0  0  0  0  0
    1.1676   -0.5248    0.3802 C   0  0  0  0  0  0  0  0  0  0  0  0
   -0.2109   -0.3926   -0.0948 C   0  0  0  0  0  0  0  0  0  0  0  0
   -0.2501    0.2584   -1.4808 C   0  0  0  0  0  0  0  0  0  0  0  0
   -1.0633    0.3831    0.9141 C   0  0  0  0  0  0  0  0  0  0  0  0
    3.2999   -0.6974    1.1133 H   0  0  0  0  0  0  0  0  0  0  0  0
   -0.6209   -1.4038   -0.1814 H   0  0  0  0  0  0  0  0  0  0  0  0
    0.3402   -0.3102   -2.1992 H   0  0  0  0  0  0  0  0  0  0  0  0
    0.1511    1.2724   -1.4369 H   0  0  0  0  0  0  0  0  0  0  0  0
   -1.2791    0.3109   -1.8407 H   0  0  0  0  0  0  0  0  0  0  0  0
   -0.6861    1.4008    1.0287 H   0  0  0  0  0  0  0  0  0  0  0  0
   -1.0492   -0.0971    1.8924 H   0  0  0  0  0  0  0  0  0  0  0  0
   -2.0971    0.4363    0.5680 H   0  0  0  0  0  0  0  0  0  0  0  0
  1  2  3  0
  1  6  1  0
  2  3  1  0
  3  4  1  0
  3  5  1  0
  3  7  1  0
  4  8  1  0
  4  9  1  0
  4 10  1  0
  5 11  1  0
  5 12  1  0
  5 13  1  0
M  END
>  <reaction>  (1) 
rxn_1320

>  <mol_properties>  (1) 
{"2": {"label": "donator", "atom_type": "Cs"}, "6": {"label": "d_hydrogen", "atom_type": "H0"}}

>  <type>  (1) 
r1h

$$$$

     RDKit          3D

  9  8  0  0  0  0  0  0  0  0999 V2000
    1.8963   -0.1405   -0.2150 C   0  0  0  0  0  0  0  0  0  0  0  0
    0.6340    0.1486   -0.2254 C   0  0  0  0  0  3  0  0  0  0  0  0
   -0.6770    0.4501   -0.2373 C   0  0  0  0  0  0  0  0  0  0  0  0
   -1.6600   -0.2303    0.4662 C   0  0  0  0  0  0  0  0  0  0  0  0
    2.3274   -0.8354   -0.9313 H   0  0  0  0  0  0  0  0  0  0  0  0
    2.5751    0.2988    0.5117 H   0  0  0  0  0  0  0  0  0  0  0  0
   -0.9723    1.2966   -0.8520 H   0  0  0  0  0  0  0  0  0  0  0  0
   -2.6934    0.0777    0.4015 H   0  0  0  0  0  0  0  0  0  0  0  0
   -1.4140   -1.0782    1.0904 H   0  0  0  0  0  0  0  0  0  0  0  0
  1  2  2  3
  1  5  1  0
  1  6  1  0
  2  3  1  0
  3  4  2  3
  3  7  1  0
  4  8  1  0
  4  9  1  0
M  RAD  1   2   2
M  END
>  <reaction>  (2) 
rxn_1320

>  <mol_properties>  (2) 
{"1": {"label": "acceptor", "atom_type": "Cd"}}

>  <type>  (2) 
r2

$$$$

     RDKit          3D

 10  9  0  0  0  0  0  0  0  0999 V2000
    1.8334    0.0847   -0.1062 C   0  0  0  0  0  0  0  0  0  0  0  0
    0.5993   -0.4071   -0.0750 C   0  0  0  0  0  0  0  0  0  0  0  0
   -0.5993    0.4071    0.0750 C   0  0  0  0  0  0  0  0  0  0  0  0
   -1.8334   -0.0847    0.1062 C   0  0  0  0  0  0  0  0  0  0  0  0
    2.0179    1.1498   -0.0189 H   0  0  0  0  0  0  0  0  0  0  0  0
    2.6972   -0.5572   -0.2194 H   0  0  0  0  0  0  0  0  0  0  0  0
    0.4465   -1.4793   -0.1649 H   0  0  0  0  0  0  0  0  0  0  0  0
   -0.4465    1.4793    0.1649 H   0  0  0  0  0  0  0  0  0  0  0  0
   -2.0179   -1.1498    0.0189 H   0  0  0  0  0  0  0  0  0  0  0  0
   -2.6972    0.5572    0.2194 H   0  0  0  0  0  0  0  0  0  0  0  0
  1  2  2  3
  1  5  1  0
  1  6  1  0
  2  3  1  0
  2  7  1  0
  3  4  2  3
  3  8  1  0
  4  9  1  0
  4 10  1  0
M  END
>  <reaction>  (3) 
rxn_1320

>  <mol_properties>  (3) 
{"0": {"label": "a_hydrogen", "atom_type": "H0"}, "2": {"label": "acceptor", "atom_type": "Cd"}}

>  <type>  (3) 
r2h

$$$$

     RDKit          3D

 22 20  0  0  0  0  0  0  0  0999 V2000
   -0.9256    0.8399   -2.8606 C   0  0  0  0  0  0  0  0  0  0  0  0
   -0.5408    0.9624   -1.7295 C   0  0  0  0  0  0  0  0  0  0  0  0
   -0.0807    1.0827   -0.3675 C   0  0  0  0  0  0  0  0  0  0  0  0
   -1.0489    1.8409    0.5271 C   0  0  0  0  0  0  0  0  0  0  0  0
    1.3618    1.5526   -0.2619 C   0  0  0  0  0  0  0  0  0  0  0  0
   -1.2656    0.7406   -3.8632 H   0  0  0  0  0  0  0  0  0  0  0  0
   -0.0772   -0.0780    0.0674 H   0  0  0  0  0  0  0  0  0  0  0  0
   -2.0486    1.4100    0.4743 H   0  0  0  0  0  0  0  0  0  0  0  0
   -1.1116    2.8897    0.2259 H   0  0  0  0  0  0  0  0  0  0  0  0
   -0.7129    1.8046    1.5649 H   0  0  0  0  0  0  0  0  0  0  0  0
    1.4589    2.5823   -0.6153 H   0  0  0  0  0  0  0  0  0  0  0  0
    2.0223    0.9231   -0.8579 H   0  0  0  0  0  0  0  0  0  0  0  0
    1.6965    1.5165    0.7764 H   0  0  0  0  0  0  0  0  0  0  0  0
   -0.5193   -2.2860   -0.4766 C   0  0  0  0  0  0  0  0  0  0  0  0
   -0.1071   -1.4991    0.4953 C   0  0  0  0  0  3  0  0  0  0  0  0
    0.3006   -1.7927    1.8487 C   0  0  0  0  0  0  0  0  0  0  0  0
    0.7003   -0.8922    2.7407 C   0  0  0  0  0  0  0  0  0  0  0  0
   -0.7898   -1.8880   -1.4487 H   0  0  0  0  0  0  0  0  0  0  0  0
   -0.6030   -3.3633   -0.3383 H   0  0  0  0  0  0  0  0  0  0  0  0
    0.2678   -2.8450    2.1332 H   0  0  0  0  0  0  0  0  0  0  0  0
    0.9928   -1.1826    3.7409 H   0  0  0  0  0  0  0  0  0  0  0  0
    0.7464    0.1619    2.4962 H   0  0  0  0  0  0  0  0  0  0  0  0
  1  2  3  0
  1  6  1  0
  2  3  1  0
  3  4  1  0
  3  5  1  0
  3  7  1  0
  4  8  1  0
  4  9  1  0
  4 10  1  0
  5 11  1  0
  5 12  1  0
  5 13  1  0
 14 15  2  3
 14 18  1  0
 14 19  1  0
 15 16  1  0
 16 17  2  3
 16 20  1  0
 17 21  1  0
 17 22  1  0
M  RAD  1  15   2
M  END
>  <reaction>  (4) 
rxn_1320

>  <mol_properties>  (4) 
{"1": {"label": "*0", "atom_type": "Ct"}, "2": {"label": "*1", "atom_type": "Cs"}, "6": {"label": "*2", "atom_type": "H0"}, "14": {"label": "*3", "atom_type": "Cd"}, "15": {"label": "*4", "atom_type": "Cd"}}

>  <type>  (4) 
ts

$$$$

     RDKit          3D

 22 20  0  0  0  0  0  0  0  0999 V2000
   -0.2503    1.0020   -2.9113 C   0  0  0  0  0  0  0  0  0  0  0  0
   -0.2503    1.0020   -1.7132 C   0  0  0  0  0  0  0  0  0  0  0  0
   -0.2503    1.0259   -0.2494 C   0  0  0  0  0  3  0  0  0  0  0  0
   -1.5164    1.7024    0.2850 C   0  0  0  0  0  0  0  0  0  0  0  0
    1.0158    1.7023    0.2850 C   0  0  0  0  0  0  0  0  0  0  0  0
   -0.2503    1.0020   -3.9746 H   0  0  0  0  0  0  0  0  0  0  0  0
   -0.2503   -0.2227    0.1585 H   0  0  0  0  0  0  0  0  0  0  0  0
   -2.4135    1.2031   -0.0809 H   0  0  0  0  0  0  0  0  0  0  0  0
   -1.5537    2.7459   -0.0325 H   0  0  0  0  0  0  0  0  0  0  0  0
   -1.5237    1.6744    1.3760 H   0  0  0  0  0  0  0  0  0  0  0  0
    1.0532    2.7459   -0.0325 H   0  0  0  0  0  0  0  0  0  0  0  0
    1.9129    1.2030   -0.0809 H   0  0  0  0  0  0  0  0  0  0  0  0
    1.0232    1.6743    1.3760 H   0  0  0  0  0  0  0  0  0  0  0  0
   -1.5117   -1.7995    0.8108 C   0  0  0  0  0  0  0  0  0  0  0  0
   -0.2503   -1.4623    0.5634 C   0  0  0  0  0  0  0  0  0  0  0  0
    0.8800   -1.8749    1.3847 C   0  0  0  0  0  0  0  0  0  0  0  0
    2.1413   -1.5377    1.1374 C   0  0  0  0  0  0  0  0  0  0  0  0
   -2.3221   -1.4705    0.1736 H   0  0  0  0  0  0  0  0  0  0  0  0
   -1.7730   -2.4179    1.6624 H   0  0  0  0  0  0  0  0  0  0  0  0
    0.6496   -2.4960    2.2462 H   0  0  0  0  0  0  0  0  0  0  0  0
    2.9518   -1.8667    1.7745 H   0  0  0  0  0  0  0  0  0  0  0  0
    2.4026   -0.9193    0.2857 H   0  0  0  0  0  0  0  0  0  0  0  0
  1  2  3  0
  1  6  1  0
  2  3  1  0
  3  4  1  0
  3  5  1  0
  4  8  1  0
  4  9  1  0
  4 10  1  0
  5 11  1  0
  5 12  1  0
  5 13  1  0
  7 15  1  0
 14 15  2  3
 14 18  1  0
 14 19  1  0
 15 16  1  0
 16 17  2  3
 16 20  1  0
 17 21  1  0
 17 22  1  0
M  RAD  1   3   2
M  END
>  <reaction>  (5) 
rxn_1320

>  <mol_properties>  (5) 
{"1": {"label": "*0", "atom_type": "Ct"}, "2": {"label": "*1", "atom_type": "Cs"}, "6": {"label": "*2", "atom_type": "H0"}, "14": {"label": "*3", "atom_type": "Cd"}, "15": {"label": "*4", "atom_type": "Cd"}}

>  <type>  (5) 
unop_1

>  <geom_source>  (5) 
Heuristics

$$$$

     RDKit          3D

 22 20  0  0  0  0  0  0  0  0999 V2000
   -0.1478    1.1283   -2.5296 C   0  0  0  0  0  0  0  0  0  0  0  0
   -0.1478    1.1283   -1.3316 C   0  0  0  0  0  0  0  0  0  0  0  0
   -0.1478    1.1522    0.1322 C   0  0  0  0  0  3  0  0  0  0  0  0
   -1.4140    1.8287    0.6666 C   0  0  0  0  0  0  0  0  0  0  0  0
    1.1183    1.8286    0.6666 C   0  0  0  0  0  0  0  0  0  0  0  0
   -0.1478    1.1283   -3.5930 H   0  0  0  0  0  0  0  0  0  0  0  0
   -0.1479   -0.0964    0.5401 H   0  0  0  0  0  0  0  0  0  0  0  0
   -2.3110    1.3294    0.3007 H   0  0  0  0  0  0  0  0  0  0  0  0
   -1.4513    2.8722    0.3491 H   0  0  0  0  0  0  0  0  0  0  0  0
   -1.4213    1.8007    1.7577 H   0  0  0  0  0  0  0  0  0  0  0  0
    1.1557    2.8721    0.3491 H   0  0  0  0  0  0  0  0  0  0  0  0
    2.0153    1.3293    0.3007 H   0  0  0  0  0  0  0  0  0  0  0  0
    1.1256    1.8006    1.7577 H   0  0  0  0  0  0  0  0  0  0  0  0
   -0.4216   -1.5578    2.2264 C   0  0  0  0  0  0  0  0  0  0  0  0
   -0.1479   -1.3360    0.9450 C   0  0  0  0  0  0  0  0  0  0  0  0
    0.5047   -2.3022    0.0716 C   0  0  0  0  0  0  0  0  0  0  0  0
    0.7784   -2.0804   -1.2097 C   0  0  0  0  0  0  0  0  0  0  0  0
   -0.9083   -0.8111    2.8399 H   0  0  0  0  0  0  0  0  0  0  0  0
   -0.1657   -2.4979    2.7026 H   0  0  0  0  0  0  0  0  0  0  0  0
    0.7735   -3.2546    0.5207 H   0  0  0  0  0  0  0  0  0  0  0  0
    1.2651   -2.8271   -1.8233 H   0  0  0  0  0  0  0  0  0  0  0  0
    0.5225   -1.1403   -1.6860 H   0  0  0  0  0  0  0  0  0  0  0  0
  1  2  3  0
  1  6  1  0
  2  3  1  0
  3  4  1  0
  3  5  1  0
  4  8  1  0
  4  9  1  0
  4 10  1  0
  5 11  1  0
  5 12  1  0
  5 13  1  0
  7 15  1  0
 14 15  2  3
 14 18  1  0
 14 19  1  0
 15 16  1  0
 16 17  2  3
 16 20  1  0
 17 21  1  0
 17 22  1  0
M  RAD  1   3   2
M  END
>  <reaction>  (6) 
rxn_1320

>  <mol_properties>  (6) 
{"1": {"label": "*0", "atom_type": "Ct"}, "2": {"label": "*1", "atom_type": "Cs"}, "6": {"label": "*2", "atom_type": "H0"}, "14": {"label": "*3", "atom_type": "Cd"}, "15": {"label": "*4", "atom_type": "Cd"}}

>  <type>  (6) 
unop_2

>  <geom_source>  (6) 
Heuristics

$$$$

     RDKit          3D

 22 20  0  0  0  0  0  0  0  0999 V2000
   -0.1421    0.9704   -3.0104 C   0  0  0  0  0  0  0  0  0  0  0  0
   -0.1421    0.9704   -1.8123 C   0  0  0  0  0  0  0  0  0  0  0  0
   -0.1421    0.9943   -0.3485 C   0  0  0  0  0  3  0  0  0  0  0  0
   -1.4082    1.6708    0.1858 C   0  0  0  0  0  0  0  0  0  0  0  0
    1.1240    1.6708    0.1858 C   0  0  0  0  0  0  0  0  0  0  0  0
   -0.1421    0.9704   -4.0737 H   0  0  0  0  0  0  0  0  0  0  0  0
   -0.1421   -0.2543    0.0594 H   0  0  0  0  0  0  0  0  0  0  0  0
   -2.3053    1.1715   -0.1801 H   0  0  0  0  0  0  0  0  0  0  0  0
   -1.4456    2.7143   -0.1317 H   0  0  0  0  0  0  0  0  0  0  0  0
   -1.4156    1.6428    1.2769 H   0  0  0  0  0  0  0  0  0  0  0  0
    1.1614    2.7143   -0.1317 H   0  0  0  0  0  0  0  0  0  0  0  0
    2.0211    1.1714   -0.1801 H   0  0  0  0  0  0  0  0  0  0  0  0
    1.1313    1.6428    1.2769 H   0  0  0  0  0  0  0  0  0  0  0  0
   -1.1946   -2.1685    0.0135 C   0  0  0  0  0  0  0  0  0  0  0  0
   -0.1422   -1.4939    0.4643 C   0  0  0  0  0  0  0  0  0  0  0  0
    0.5104   -1.7582    1.7397 C   0  0  0  0  0  0  0  0  0  0  0  0
    1.5629   -1.0836    2.1905 C   0  0  0  0  0  0  0  0  0  0  0  0
   -1.6491   -1.9387   -0.9413 H   0  0  0  0  0  0  0  0  0  0  0  0
   -1.6356   -2.9750    0.5890 H   0  0  0  0  0  0  0  0  0  0  0  0
    0.0908   -2.5614    2.3394 H   0  0  0  0  0  0  0  0  0  0  0  0
    2.0173   -1.3133    3.1452 H   0  0  0  0  0  0  0  0  0  0  0  0
    2.0039   -0.2771    1.6150 H   0  0  0  0  0  0  0  0  0  0  0  0
  1  2  3  0
  1  6  1  0
  2  3  1  0
  3  4  1  0
  3  5  1  0
  4  8  1  0
  4  9  1  0
  4 10  1  0
  5 11  1  0
  5 12  1  0
  5 13  1  0
  7 15  1  0
 14 15  2  3
 14 18  1  0
 14 19  1  0
 15 16  1  0
 16 17  2  3
 16 20  1  0
 17 21  1  0
 17 22  1  0
M  RAD  1   3   2
M  END
>  <reaction>  (7) 
rxn_1320

>  <mol_properties>  (7) 
{"1": {"label": "*0", "atom_type": "Ct"}, "2": {"label": "*1", "atom_type": "Cs"}, "6": {"label": "*2", "atom_type": "H0"}, "14": {"label": "*3", "atom_type": "Cd"}, "15": {"label": "*4", "atom_type": "Cd"}}

>  <type>  (7) 
unop_3

>  <geom_source>  (7) 
Heuristics

$$$$

     RDKit          3D

 22 20  0  0  0  0  0  0  0  0999 V2000
    0.2549    1.0937   -2.6330 C   0  0  0  0  0  0  0  0  0  0  0  0
    0.2549    1.0937   -1.4349 C   0  0  0  0  0  0  0  0  0  0  0  0
    0.2549    1.1177    0.0289 C   0  0  0  0  0  3  0  0  0  0  0  0
   -1.0113    1.7941    0.5633 C   0  0  0  0  0  0  0  0  0  0  0  0
    1.5210    1.7941    0.5633 C   0  0  0  0  0  0  0  0  0  0  0  0
    0.2549    1.0937   -3.6963 H   0  0  0  0  0  0  0  0  0  0  0  0
    0.2548   -0.1310    0.4368 H   0  0  0  0  0  0  0  0  0  0  0  0
   -1.9083    1.2948    0.1973 H   0  0  0  0  0  0  0  0  0  0  0  0
   -1.0486    2.8376    0.2457 H   0  0  0  0  0  0  0  0  0  0  0  0
   -1.0186    1.7661    1.6543 H   0  0  0  0  0  0  0  0  0  0  0  0
    1.5584    2.8376    0.2457 H   0  0  0  0  0  0  0  0  0  0  0  0
    2.4180    1.2948    0.1973 H   0  0  0  0  0  0  0  0  0  0  0  0
    1.5283    1.7661    1.6543 H   0  0  0  0  0  0  0  0  0  0  0  0
    0.9004   -1.5280    1.9925 C   0  0  0  0  0  0  0  0  0  0  0  0
    0.2548   -1.3705    0.8417 C   0  0  0  0  0  0  0  0  0  0  0  0
   -0.8755   -2.1884    0.4224 C   0  0  0  0  0  0  0  0  0  0  0  0
   -1.5210   -2.0309   -0.7285 C   0  0  0  0  0  0  0  0  0  0  0  0
    1.7363   -0.8972    2.2649 H   0  0  0  0  0  0  0  0  0  0  0  0
    0.6105   -2.2967    2.7005 H   0  0  0  0  0  0  0  0  0  0  0  0
   -1.1895   -2.9678    1.1115 H   0  0  0  0  0  0  0  0  0  0  0  0
   -2.3570   -2.6617   -1.0008 H   0  0  0  0  0  0  0  0  0  0  0  0
   -1.2312   -1.2623   -1.4365 H   0  0  0  0  0  0  0  0  0  0  0  0
  1  2  3  0
  1  6  1  0
  2  3  1  0
  3  4  1  0
  3  5  1  0
  4  8  1  0
  4  9  1  0
  4 10  1  0
  5 11  1  0
  5 12  1  0
  5 13  1  0
  7 15  1  0
 14 15  2  3
 14 18  1  0
 14 19  1  0
 15 16  1  0
 16 17  2  3
 16 20  1  0
 17 21  1  0
 17 22  1  0
M  RAD  1   3   2
M  END
>  <reaction>  (8) 
rxn_1320

>  <mol_properties>  (8) 
{"1": {"label": "*0", "atom_type": "Ct"}, "2": {"label": "*1", "atom_type": "Cs"}, "6": {"label": "*2", "atom_type": "H0"}, "14": {"label": "*3", "atom_type": "Cd"}, "15": {"label": "*4", "atom_type": "Cd"}}

>  <type>  (8) 
unop_4

>  <geom_source>  (8) 
Heuristics

$$$$

     RDKit          3D

 22 20  0  0  0  0  0  0  0  0999 V2000
    0.0000    0.9602   -3.0453 C   0  0  0  0  0  0  0  0  0  0  0  0
    0.0000    0.9602   -1.8472 C   0  0  0  0  0  0  0  0  0  0  0  0
    0.0000    0.9841   -0.3834 C   0  0  0  0  0  3  0  0  0  0  0  0
   -1.2661    1.6606    0.1509 C   0  0  0  0  0  0  0  0  0  0  0  0
    1.2661    1.6606    0.1509 C   0  0  0  0  0  0  0  0  0  0  0  0
    0.0000    0.9602   -4.1086 H   0  0  0  0  0  0  0  0  0  0  0  0
   -0.0000   -0.2645    0.0245 H   0  0  0  0  0  0  0  0  0  0  0  0
   -2.1632    1.1613   -0.2150 H   0  0  0  0  0  0  0  0  0  0  0  0
   -1.3034    2.7041   -0.1666 H   0  0  0  0  0  0  0  0  0  0  0  0
   -1.2734    1.6326    1.2420 H   0  0  0  0  0  0  0  0  0  0  0  0
    1.3035    2.7041   -0.1666 H   0  0  0  0  0  0  0  0  0  0  0  0
    2.1632    1.1612   -0.2150 H   0  0  0  0  0  0  0  0  0  0  0  0
    1.2735    1.6326    1.2420 H   0  0  0  0  0  0  0  0  0  0  0  0
   -0.0000   -2.4867   -0.4653 C   0  0  0  0  0  0  0  0  0  0  0  0
   -0.0000   -1.5041    0.4294 C   0  0  0  0  0  0  0  0  0  0  0  0
   -0.0000   -1.7141    1.8710 C   0  0  0  0  0  0  0  0  0  0  0  0
   -0.0000   -0.7315    2.7657 C   0  0  0  0  0  0  0  0  0  0  0  0
   -0.0000   -2.2856   -1.5286 H   0  0  0  0  0  0  0  0  0  0  0  0
   -0.0001   -3.5271   -0.1595 H   0  0  0  0  0  0  0  0  0  0  0  0
   -0.0000   -2.7470    2.2084 H   0  0  0  0  0  0  0  0  0  0  0  0
   -0.0000   -0.9325    3.8289 H   0  0  0  0  0  0  0  0  0  0  0  0
    0.0000    0.3090    2.4599 H   0  0  0  0  0  0  0  0  0  0  0  0
  1  2  3  0
  1  6  1  0
  2  3  1  0
  3  4  1  0
  3  5  1  0
  4  8  1  0
  4  9  1  0
  4 10  1  0
  5 11  1  0
  5 12  1  0
  5 13  1  0
  7 15  1  0
 14 15  2  3
 14 18  1  0
 14 19  1  0
 15 16  1  0
 16 17  2  3
 16 20  1  0
 17 21  1  0
 17 22  1  0
M  RAD  1   3   2
M  END
>  <reaction>  (9) 
rxn_1320

>  <mol_properties>  (9) 
{"1": {"label": "*0", "atom_type": "Ct"}, "2": {"label": "*1", "atom_type": "Cs"}, "6": {"label": "*2", "atom_type": "H0"}, "14": {"label": "*3", "atom_type": "Cd"}, "15": {"label": "*4", "atom_type": "Cd"}}

>  <type>  (9) 
unop_5

>  <geom_source>  (9) 
Heuristics

$$$$

     RDKit          3D

 22 20  0  0  0  0  0  0  0  0999 V2000
    0.2921    1.0473   -2.7729 C   0  0  0  0  0  0  0  0  0  0  0  0
    0.2921    1.0473   -1.5748 C   0  0  0  0  0  0  0  0  0  0  0  0
    0.2921    1.0713   -0.1110 C   0  0  0  0  0  3  0  0  0  0  0  0
   -0.9740    1.7477    0.4233 C   0  0  0  0  0  0  0  0  0  0  0  0
    1.5583    1.7477    0.4233 C   0  0  0  0  0  0  0  0  0  0  0  0
    0.2921    1.0473   -3.8363 H   0  0  0  0  0  0  0  0  0  0  0  0
    0.2921   -0.1774    0.2968 H   0  0  0  0  0  0  0  0  0  0  0  0
   -1.8710    1.2484    0.0574 H   0  0  0  0  0  0  0  0  0  0  0  0
   -1.0113    2.7912    0.1058 H   0  0  0  0  0  0  0  0  0  0  0  0
   -0.9813    1.7197    1.5144 H   0  0  0  0  0  0  0  0  0  0  0  0
    1.5956    2.7912    0.1058 H   0  0  0  0  0  0  0  0  0  0  0  0
    2.4553    1.2484    0.0574 H   0  0  0  0  0  0  0  0  0  0  0  0
    1.5656    1.7197    1.5144 H   0  0  0  0  0  0  0  0  0  0  0  0
    1.3300   -1.5930    1.5127 C   0  0  0  0  0  0  0  0  0  0  0  0
    0.2921   -1.4169    0.7017 C   0  0  0  0  0  0  0  0  0  0  0  0
   -1.0131   -2.0322    0.9027 C   0  0  0  0  0  0  0  0  0  0  0  0
   -2.0510   -1.8561    0.0918 C   0  0  0  0  0  0  0  0  0  0  0  0
    2.2832   -1.1161    1.3256 H   0  0  0  0  0  0  0  0  0  0  0  0
    1.2572   -2.2227    2.3926 H   0  0  0  0  0  0  0  0  0  0  0  0
   -1.1170   -2.6693    1.7769 H   0  0  0  0  0  0  0  0  0  0  0  0
   -3.0042   -2.3330    0.2789 H   0  0  0  0  0  0  0  0  0  0  0  0
   -1.9782   -1.2264   -0.7881 H   0  0  0  0  0  0  0  0  0  0  0  0
  1  2  3  0
  1  6  1  0
  2  3  1  0
  3  4  1  0
  3  5  1  0
  4  8  1  0
  4  9  1  0
  4 10  1  0
  5 11  1  0
  5 12  1  0
  5 13  1  0
  7 15  1  0
 14 15  2  3
 14 18  1  0
 14 19  1  0
 15 16  1  0
 16 17  2  3
 16 20  1  0
 17 21  1  0
 17 22  1  0
M  RAD  1   3   2
M  END
>  <reaction>  (10) 
rxn_1320

>  <mol_properties>  (10) 
{"1": {"label": "*0", "atom_type": "Ct"}, "2": {"label": "*1", "atom_type": "Cs"}, "6": {"label": "*2", "atom_type": "H0"}, "14": {"label": "*3", "atom_type": "Cd"}, "15": {"label": "*4", "atom_type": "Cd"}}

>  <type>  (10) 
unop_6

>  <geom_source>  (10) 
Heuristics

$$$$

     RDKit          3D

 22 20  0  0  0  0  0  0  0  0999 V2000
    0.2503    1.0020   -2.9113 C   0  0  0  0  0  0  0  0  0  0  0  0
    0.2503    1.0020   -1.7132 C   0  0  0  0  0  0  0  0  0  0  0  0
    0.2503    1.0259   -0.2494 C   0  0  0  0  0  3  0  0  0  0  0  0
   -1.0158    1.7024    0.2850 C   0  0  0  0  0  0  0  0  0  0  0  0
    1.5164    1.7023    0.2850 C   0  0  0  0  0  0  0  0  0  0  0  0
    0.2503    1.0020   -3.9746 H   0  0  0  0  0  0  0  0  0  0  0  0
    0.2503   -0.2227    0.1585 H   0  0  0  0  0  0  0  0  0  0  0  0
   -1.9128    1.2031   -0.0809 H   0  0  0  0  0  0  0  0  0  0  0  0
   -1.0531    2.7459   -0.0325 H   0  0  0  0  0  0  0  0  0  0  0  0
   -1.0231    1.6744    1.3760 H   0  0  0  0  0  0  0  0  0  0  0  0
    1.5538    2.7459   -0.0325 H   0  0  0  0  0  0  0  0  0  0  0  0
    2.4135    1.2030   -0.0809 H   0  0  0  0  0  0  0  0  0  0  0  0
    1.5238    1.6743    1.3760 H   0  0  0  0  0  0  0  0  0  0  0  0
    1.5116   -1.7995    0.8108 C   0  0  0  0  0  0  0  0  0  0  0  0
    0.2503   -1.4623    0.5634 C   0  0  0  0  0  0  0  0  0  0  0  0
   -0.8800   -1.8749    1.3847 C   0  0  0  0  0  0  0  0  0  0  0  0
   -2.1414   -1.5377    1.1374 C   0  0  0  0  0  0  0  0  0  0  0  0
    2.3221   -1.4706    0.1736 H   0  0  0  0  0  0  0  0  0  0  0  0
    1.7729   -2.4180    1.6624 H   0  0  0  0  0  0  0  0  0  0  0  0
   -0.6496   -2.4960    2.2462 H   0  0  0  0  0  0  0  0  0  0  0  0
   -2.9518   -1.8666    1.7745 H   0  0  0  0  0  0  0  0  0  0  0  0
   -2.4026   -0.9192    0.2857 H   0  0  0  0  0  0  0  0  0  0  0  0
  1  2  3  0
  1  6  1  0
  2  3  1  0
  3  4  1  0
  3  5  1  0
  4  8  1  0
  4  9  1  0
  4 10  1  0
  5 11  1  0
  5 12  1  0
  5 13  1  0
  7 15  1  0
 14 15  2  3
 14 18  1  0
 14 19  1  0
 15 16  1  0
 16 17  2  3
 16 20  1  0
 17 21  1  0
 17 22  1  0
M  RAD  1   3   2
M  END
>  <reaction>  (11) 
rxn_1320

>  <mol_properties>  (11) 
{"1": {"label": "*0", "atom_type": "Ct"}, "2": {"label": "*1", "atom_type": "Cs"}, "6": {"label": "*2", "atom_type": "H0"}, "14": {"label": "*3", "atom_type": "Cd"}, "15": {"label": "*4", "atom_type": "Cd"}}

>  <type>  (11) 
unop_7

>  <geom_source>  (11) 
Heuristics

$$$$

     RDKit          3D

 22 20  0  0  0  0  0  0  0  0999 V2000
   -0.2921    1.0473   -2.7729 C   0  0  0  0  0  0  0  0  0  0  0  0
   -0.2921    1.0473   -1.5748 C   0  0  0  0  0  0  0  0  0  0  0  0
   -0.2921    1.0713   -0.1110 C   0  0  0  0  0  3  0  0  0  0  0  0
   -1.5582    1.7477    0.4233 C   0  0  0  0  0  0  0  0  0  0  0  0
    0.9740    1.7477    0.4233 C   0  0  0  0  0  0  0  0  0  0  0  0
   -0.2921    1.0473   -3.8363 H   0  0  0  0  0  0  0  0  0  0  0  0
   -0.2921   -0.1774    0.2968 H   0  0  0  0  0  0  0  0  0  0  0  0
   -2.4553    1.2484    0.0574 H   0  0  0  0  0  0  0  0  0  0  0  0
   -1.5955    2.7912    0.1058 H   0  0  0  0  0  0  0  0  0  0  0  0
   -1.5655    1.7197    1.5144 H   0  0  0  0  0  0  0  0  0  0  0  0
    1.0114    2.7912    0.1058 H   0  0  0  0  0  0  0  0  0  0  0  0
    1.8711    1.2484    0.0574 H   0  0  0  0  0  0  0  0  0  0  0  0
    0.9814    1.7197    1.5144 H   0  0  0  0  0  0  0  0  0  0  0  0
   -1.3301   -1.5929    1.5127 C   0  0  0  0  0  0  0  0  0  0  0  0
   -0.2921   -1.4169    0.7017 C   0  0  0  0  0  0  0  0  0  0  0  0
    1.0130   -2.0322    0.9027 C   0  0  0  0  0  0  0  0  0  0  0  0
    2.0510   -1.8562    0.0918 C   0  0  0  0  0  0  0  0  0  0  0  0
   -2.2832   -1.1160    1.3256 H   0  0  0  0  0  0  0  0  0  0  0  0
   -1.2573   -2.2227    2.3926 H   0  0  0  0  0  0  0  0  0  0  0  0
    1.1169   -2.6694    1.7769 H   0  0  0  0  0  0  0  0  0  0  0  0
    3.0041   -2.3331    0.2789 H   0  0  0  0  0  0  0  0  0  0  0  0
    1.9782   -1.2265   -0.7881 H   0  0  0  0  0  0  0  0  0  0  0  0
  1  2  3  0
  1  6  1  0
  2  3  1  0
  3  4  1  0
  3  5  1  0
  4  8  1  0
  4  9  1  0
  4 10  1  0
  5 11  1  0
  5 12  1  0
  5 13  1  0
  7 15  1  0
 14 15  2  3
 14 18  1  0
 14 19  1  0
 15 16  1  0
 16 17  2  3
 16 20  1  0
 17 21  1  0
 17 22  1  0
M  RAD  1   3   2
M  END
>  <reaction>  (12) 
rxn_1320

>  <mol_properties>  (12) 
{"1": {"label": "*0", "atom_type": "Ct"}, "2": {"label": "*1", "atom_type": "Cs"}, "6": {"label": "*2", "atom_type": "H0"}, "14": {"label": "*3", "atom_type": "Cd"}, "15": {"label": "*4", "atom_type": "Cd"}}

>  <type>  (12) 
unop_8

>  <geom_source>  (12) 
Heuristics

$$$$

     RDKit          3D

 22 20  0  0  0  0  0  0  0  0999 V2000
    0.1479    1.1283   -2.5296 C   0  0  0  0  0  0  0  0  0  0  0  0
    0.1479    1.1283   -1.3316 C   0  0  0  0  0  0  0  0  0  0  0  0
    0.1479    1.1522    0.1322 C   0  0  0  0  0  3  0  0  0  0  0  0
   -1.1182    1.8287    0.6666 C   0  0  0  0  0  0  0  0  0  0  0  0
    1.4140    1.8286    0.6666 C   0  0  0  0  0  0  0  0  0  0  0  0
    0.1479    1.1283   -3.5930 H   0  0  0  0  0  0  0  0  0  0  0  0
    0.1479   -0.0965    0.5401 H   0  0  0  0  0  0  0  0  0  0  0  0
   -2.0153    1.3294    0.3007 H   0  0  0  0  0  0  0  0  0  0  0  0
   -1.1556    2.8722    0.3491 H   0  0  0  0  0  0  0  0  0  0  0  0
   -1.1256    1.8007    1.7577 H   0  0  0  0  0  0  0  0  0  0  0  0
    1.4514    2.8721    0.3491 H   0  0  0  0  0  0  0  0  0  0  0  0
    2.3110    1.3293    0.3007 H   0  0  0  0  0  0  0  0  0  0  0  0
    1.4213    1.8006    1.7577 H   0  0  0  0  0  0  0  0  0  0  0  0
    0.4215   -1.5578    2.2264 C   0  0  0  0  0  0  0  0  0  0  0  0
    0.1478   -1.3360    0.9450 C   0  0  0  0  0  0  0  0  0  0  0  0
   -0.5048   -2.3022    0.0716 C   0  0  0  0  0  0  0  0  0  0  0  0
   -0.7785   -2.0804   -1.2097 C   0  0  0  0  0  0  0  0  0  0  0  0
    0.9083   -0.8111    2.8399 H   0  0  0  0  0  0  0  0  0  0  0  0
    0.1656   -2.4979    2.7026 H   0  0  0  0  0  0  0  0  0  0  0  0
   -0.7736   -3.2546    0.5207 H   0  0  0  0  0  0  0  0  0  0  0  0
   -1.2652   -2.8271   -1.8233 H   0  0  0  0  0  0  0  0  0  0  0  0
   -0.5225   -1.1403   -1.6860 H   0  0  0  0  0  0  0  0  0  0  0  0
  1  2  3  0
  1  6  1  0
  2  3  1  0
  3  4  1  0
  3  5  1  0
  4  8  1  0
  4  9  1  0
  4 10  1  0
  5 11  1  0
  5 12  1  0
  5 13  1  0
  7 15  1  0
 14 15  2  3
 14 18  1  0
 14 19  1  0
 15 16  1  0
 16 17  2  3
 16 20  1  0
 17 21  1  0
 17 22  1  0
M  RAD  1   3   2
M  END
>  <reaction>  (13) 
rxn_1320

>  <mol_properties>  (13) 
{"1": {"label": "*0", "atom_type": "Ct"}, "2": {"label": "*1", "atom_type": "Cs"}, "6": {"label": "*2", "atom_type": "H0"}, "14": {"label": "*3", "atom_type": "Cd"}, "15": {"label": "*4", "atom_type": "Cd"}}

>  <type>  (13) 
unop_9

>  <geom_source>  (13) 
Heuristics

$$$$

     RDKit          3D

 22 20  0  0  0  0  0  0  0  0999 V2000
   -0.2548    1.0937   -2.6330 C   0  0  0  0  0  0  0  0  0  0  0  0
   -0.2548    1.0937   -1.4349 C   0  0  0  0  0  0  0  0  0  0  0  0
   -0.2548    1.1177    0.0289 C   0  0  0  0  0  3  0  0  0  0  0  0
   -1.5209    1.7941    0.5633 C   0  0  0  0  0  0  0  0  0  0  0  0
    1.0113    1.7941    0.5633 C   0  0  0  0  0  0  0  0  0  0  0  0
   -0.2548    1.0937   -3.6963 H   0  0  0  0  0  0  0  0  0  0  0  0
   -0.2548   -0.1310    0.4368 H   0  0  0  0  0  0  0  0  0  0  0  0
   -2.4180    1.2948    0.1973 H   0  0  0  0  0  0  0  0  0  0  0  0
   -1.5583    2.8376    0.2457 H   0  0  0  0  0  0  0  0  0  0  0  0
   -1.5283    1.7661    1.6543 H   0  0  0  0  0  0  0  0  0  0  0  0
    1.0487    2.8376    0.2457 H   0  0  0  0  0  0  0  0  0  0  0  0
    1.9084    1.2948    0.1973 H   0  0  0  0  0  0  0  0  0  0  0  0
    1.0186    1.7661    1.6543 H   0  0  0  0  0  0  0  0  0  0  0  0
   -0.9004   -1.5280    1.9925 C   0  0  0  0  0  0  0  0  0  0  0  0
   -0.2549   -1.3705    0.8417 C   0  0  0  0  0  0  0  0  0  0  0  0
    0.8754   -2.1884    0.4224 C   0  0  0  0  0  0  0  0  0  0  0  0
    1.5210   -2.0310   -0.7285 C   0  0  0  0  0  0  0  0  0  0  0  0
   -1.7363   -0.8972    2.2649 H   0  0  0  0  0  0  0  0  0  0  0  0
   -0.6106   -2.2967    2.7005 H   0  0  0  0  0  0  0  0  0  0  0  0
    1.1894   -2.9678    1.1115 H   0  0  0  0  0  0  0  0  0  0  0  0
    2.3569   -2.6618   -1.0008 H   0  0  0  0  0  0  0  0  0  0  0  0
    1.2312   -1.2623   -1.4365 H   0  0  0  0  0  0  0  0  0  0  0  0
  1  2  3  0
  1  6  1  0
  2  3  1  0
  3  4  1  0
  3  5  1  0
  4  8  1  0
  4  9  1  0
  4 10  1  0
  5 11  1  0
  5 12  1  0
  5 13  1  0
  7 15  1  0
 14 15  2  3
 14 18  1  0
 14 19  1  0
 15 16  1  0
 16 17  2  3
 16 20  1  0
 17 21  1  0
 17 22  1  0
M  RAD  1   3   2
M  END
>  <reaction>  (14) 
rxn_1320

>  <mol_properties>  (14) 
{"1": {"label": "*0", "atom_type": "Ct"}, "2": {"label": "*1", "atom_type": "Cs"}, "6": {"label": "*2", "atom_type": "H0"}, "14": {"label": "*3", "atom_type": "Cd"}, "15": {"label": "*4", "atom_type": "Cd"}}

>  <type>  (14) 
unop_10

>  <geom_source>  (14) 
Heuristics

$$$$

     RDKit          3D

 22 20  0  0  0  0  0  0  0  0999 V2000
    0.1421    0.9704   -3.0104 C   0  0  0  0  0  0  0  0  0  0  0  0
    0.1421    0.9704   -1.8123 C   0  0  0  0  0  0  0  0  0  0  0  0
    0.1421    0.9943   -0.3485 C   0  0  0  0  0  3  0  0  0  0  0  0
   -1.1240    1.6708    0.1858 C   0  0  0  0  0  0  0  0  0  0  0  0
    1.4083    1.6708    0.1858 C   0  0  0  0  0  0  0  0  0  0  0  0
    0.1421    0.9704   -4.0737 H   0  0  0  0  0  0  0  0  0  0  0  0
    0.1421   -0.2543    0.0594 H   0  0  0  0  0  0  0  0  0  0  0  0
   -2.0210    1.1715   -0.1801 H   0  0  0  0  0  0  0  0  0  0  0  0
   -1.1613    2.7143   -0.1317 H   0  0  0  0  0  0  0  0  0  0  0  0
   -1.1313    1.6428    1.2769 H   0  0  0  0  0  0  0  0  0  0  0  0
    1.4456    2.7143   -0.1317 H   0  0  0  0  0  0  0  0  0  0  0  0
    2.3053    1.1714   -0.1801 H   0  0  0  0  0  0  0  0  0  0  0  0
    1.4156    1.6428    1.2769 H   0  0  0  0  0  0  0  0  0  0  0  0
    1.1945   -2.1685    0.0135 C   0  0  0  0  0  0  0  0  0  0  0  0
    0.1421   -1.4939    0.4643 C   0  0  0  0  0  0  0  0  0  0  0  0
   -0.5105   -1.7582    1.7397 C   0  0  0  0  0  0  0  0  0  0  0  0
   -1.5629   -1.0835    2.1905 C   0  0  0  0  0  0  0  0  0  0  0  0
    1.6490   -1.9388   -0.9413 H   0  0  0  0  0  0  0  0  0  0  0  0
    1.6355   -2.9750    0.5890 H   0  0  0  0  0  0  0  0  0  0  0  0
   -0.0909   -2.5613    2.3394 H   0  0  0  0  0  0  0  0  0  0  0  0
   -2.0174   -1.3132    3.1452 H   0  0  0  0  0  0  0  0  0  0  0  0
   -2.0039   -0.2770    1.6150 H   0  0  0  0  0  0  0  0  0  0  0  0
  1  2  3  0
  1  6  1  0
  2  3  1  0
  3  4  1  0
  3  5  1  0
  4  8  1  0
  4  9  1  0
  4 10  1  0
  5 11  1  0
  5 12  1  0
  5 13  1  0
  7 15  1  0
 14 15  2  3
 14 18  1  0
 14 19  1  0
 15 16  1  0
 16 17  2  3
 16 20  1  0
 17 21  1  0
 17 22  1  0
M  RAD  1   3   2
M  END
>  <reaction>  (15) 
rxn_1320

>  <mol_properties>  (15) 
{"1": {"label": "*0", "atom_type": "Ct"}, "2": {"label": "*1", "atom_type": "Cs"}, "6": {"label": "*2", "atom_type": "H0"}, "14": {"label": "*3", "atom_type": "Cd"}, "15": {"label": "*4", "atom_type": "Cd"}}

>  <type>  (15) 
unop_11

>  <geom_source>  (15) 
Heuristics

$$$$

     RDKit          3D

 22 20  0  0  0  0  0  0  0  0999 V2000
    0.0000    1.1411   -2.4916 C   0  0  0  0  0  0  0  0  0  0  0  0
    0.0000    1.1411   -1.2935 C   0  0  0  0  0  0  0  0  0  0  0  0
    0.0000    1.1650    0.1703 C   0  0  0  0  0  3  0  0  0  0  0  0
   -1.2661    1.8415    0.7046 C   0  0  0  0  0  0  0  0  0  0  0  0
    1.2661    1.8414    0.7046 C   0  0  0  0  0  0  0  0  0  0  0  0
    0.0000    1.1411   -3.5549 H   0  0  0  0  0  0  0  0  0  0  0  0
   -0.0000   -0.0837    0.5782 H   0  0  0  0  0  0  0  0  0  0  0  0
   -2.1631    1.3422    0.3387 H   0  0  0  0  0  0  0  0  0  0  0  0
   -1.3034    2.8850    0.3871 H   0  0  0  0  0  0  0  0  0  0  0  0
   -1.2734    1.8135    1.7957 H   0  0  0  0  0  0  0  0  0  0  0  0
    1.3035    2.8849    0.3871 H   0  0  0  0  0  0  0  0  0  0  0  0
    2.1632    1.3421    0.3387 H   0  0  0  0  0  0  0  0  0  0  0  0
    1.2735    1.8134    1.7957 H   0  0  0  0  0  0  0  0  0  0  0  0
   -0.0000   -1.5882    2.2853 C   0  0  0  0  0  0  0  0  0  0  0  0
   -0.0000   -1.3232    0.9831 C   0  0  0  0  0  0  0  0  0  0  0  0
   -0.0000   -2.3437   -0.0566 C   0  0  0  0  0  0  0  0  0  0  0  0
   -0.0000   -2.0788   -1.3588 C   0  0  0  0  0  0  0  0  0  0  0  0
   -0.0000   -0.7982    3.0248 H   0  0  0  0  0  0  0  0  0  0  0  0
   -0.0000   -2.6085    2.6526 H   0  0  0  0  0  0  0  0  0  0  0  0
   -0.0001   -3.3767    0.2808 H   0  0  0  0  0  0  0  0  0  0  0  0
   -0.0000   -2.8687   -2.0983 H   0  0  0  0  0  0  0  0  0  0  0  0
   -0.0000   -1.0584   -1.7262 H   0  0  0  0  0  0  0  0  0  0  0  0
  1  2  3  0
  1  6  1  0
  2  3  1  0
  3  4  1  0
  3  5  1  0
  4  8  1  0
  4  9  1  0
  4 10  1  0
  5 11  1  0
  5 12  1  0
  5 13  1  0
  7 15  1  0
 14 15  2  3
 14 18  1  0
 14 19  1  0
 15 16  1  0
 16 17  2  3
 16 20  1  0
 17 21  1  0
 17 22  1  0
M  RAD  1   3   2
M  END
>  <reaction>  (16) 
rxn_1320

>  <mol_properties>  (16) 
{"1": {"label": "*0", "atom_type": "Ct"}, "2": {"label": "*1", "atom_type": "Cs"}, "6": {"label": "*2", "atom_type": "H0"}, "14": {"label": "*3", "atom_type": "Cd"}, "15": {"label": "*4", "atom_type": "Cd"}}

>  <type>  (16) 
unop_12

>  <geom_source>  (16) 
Heuristics

$$$$

     RDKit          3D

 22 20  0  0  0  0  0  0  0  0999 V2000
   -1.6266    0.3551   -1.6571 C   0  0  0  0  0  0  0  0  0  0  0  0
   -1.8866   -1.4369    0.1050 C   0  0  0  0  0  0  0  0  0  0  0  0
   -1.2314   -0.1043   -0.2546 C   0  0  0  0  0  3  0  0  0  0  0  0
    1.3006   -0.4016    0.0447 C   0  0  0  0  0  0  0  0  0  0  0  0
    1.8591    0.6408    0.9339 C   0  0  0  0  0  0  0  0  0  0  0  0
    2.0141   -1.1567   -0.7917 C   0  0  0  0  0  0  0  0  0  0  0  0
    3.1510    0.9638    1.0168 C   0  0  0  0  0  0  0  0  0  0  0  0
   -1.5711    0.9237    0.7407 C   0  0  0  0  0  0  0  0  0  0  0  0
   -1.8487    1.7666    1.5570 C   0  0  0  0  0  0  0  0  0  0  0  0
   -1.1062    1.3045   -1.9055 H   0  0  0  0  0  0  0  0  0  0  0  0
   -2.7248    0.5140   -1.7253 H   0  0  0  0  0  0  0  0  0  0  0  0
   -1.3246   -0.4094   -2.4038 H   0  0  0  0  0  0  0  0  0  0  0  0
   -2.9945   -1.3451    0.1027 H   0  0  0  0  0  0  0  0  0  0  0  0
   -1.5514   -1.7644    1.1121 H   0  0  0  0  0  0  0  0  0  0  0  0
   -1.5865   -2.2150   -0.6283 H   0  0  0  0  0  0  0  0  0  0  0  0
    0.0889   -0.5798    0.0848 H   0  0  0  0  0  0  0  0  0  0  0  0
    1.1599    1.1781    1.5621 H   0  0  0  0  0  0  0  0  0  0  0  0
    1.5093   -1.8939   -1.4018 H   0  0  0  0  0  0  0  0  0  0  0  0
    3.0853   -1.0676   -0.8919 H   0  0  0  0  0  0  0  0  0  0  0  0
    3.4628    1.7433    1.7000 H   0  0  0  0  0  0  0  0  0  0  0  0
    3.9140    0.4786    0.4269 H   0  0  0  0  0  0  0  0  0  0  0  0
   -2.0926    2.5063    2.2733 H   0  0  0  0  0  0  0  0  0  0  0  0
  1  3  1  0
  1 10  1  0
  1 11  1  0
  1 12  1  0
  2  3  1  0
  2 13  1  0
  2 14  1  0
  2 15  1  0
  3  8  1  0
  4  6  2  3
  4  5  1  0
  4 16  1  0
  5  7  2  3
  5 17  1  0
  6 18  1  0
  6 19  1  0
  7 20  1  0
  7 21  1  0
  8  9  3  0
  9 22  1  0
M  RAD  1   3   2
M  END
>  <reaction>  (17) 
rxn_1320

>  <mol_properties>  (17) 
{"1": {"label": "*0", "atom_type": "Ct"}, "2": {"label": "*1", "atom_type": "Cs"}, "6": {"label": "*2", "atom_type": "H0"}, "14": {"label": "*3", "atom_type": "Cd"}, "15": {"label": "*4", "atom_type": "Cd"}}

>  <type>  (17) 
unop_13

>  <geom_source>  (17) 
AutoTST

$$$$
