
     RDKit          3D

 10  9  0  0  0  0  0  0  0  0999 V2000
    2.2738    0.0217   -0.0992 C   0  0  0  0  0  0  0  0  0  0  0  0
    1.1083    0.2960   -0.0695 C   0  0  0  0  0  0  0  0  0  0  0  0
   -0.3173    0.6046   -0.0227 C   0  0  0  0  0  0  0  0  0  0  0  0
   -1.1561   -0.5495    0.5292 C   0  0  0  0  0  0  0  0  0  0  0  0
    3.3097   -0.2166   -0.1277 H   0  0  0  0  0  0  0  0  0  0  0  0
   -0.6542    0.8617   -1.0302 H   0  0  0  0  0  0  0  0  0  0  0  0
   -0.4633    1.4978    0.5900 H   0  0  0  0  0  0  0  0  0  0  0  0
   -0.8485   -0.7997    1.5447 H   0  0  0  0  0  0  0  0  0  0  0  0
   -2.2115   -0.2752    0.5459 H   0  0  0  0  0  0  0  0  0  0  0  0
   -1.0409   -1.4407   -0.0879 H   0  0  0  0  0  0  0  0  0  0  0  0
  1  2  3  0
  1  5  1  0
  2  3  1  0
  3  4  1  0
  3  6  1  0
  3  7  1  0
  4  8  1  0
  4  9  1  0
  4 10  1  0
M  END
>  <reaction>  (1) 
rxn_1297

>  <mol_properties>  (1) 
{"2": {"label": "donator", "atom_type": "Cs"}, "5": {"label": "d_hydrogen", "atom_type": "H0"}}

>  <type>  (1) 
r1h

$$$$

     RDKit          3D

  6  5  0  0  0  0  0  0  0  0999 V2000
   -0.5036    0.1196    0.0353 C   0  0  0  0  0  0  0  0  0  0  0  0
    0.9526    0.1121    0.2227 C   0  0  0  0  0  3  0  0  0  0  0  0
    2.2066   -0.6670   -0.2771 S   0  0  0  0  0  0  0  0  0  0  0  0
   -0.8527   -0.6450   -0.6654 H   0  0  0  0  0  0  0  0  0  0  0  0
   -0.8134    1.1060   -0.3189 H   0  0  0  0  0  0  0  0  0  0  0  0
   -0.9894   -0.0257    1.0035 H   0  0  0  0  0  0  0  0  0  0  0  0
  1  2  1  0
  1  4  1  0
  1  5  1  0
  1  6  1  0
  2  3  2  0
M  RAD  1   2   2
M  END
>  <reaction>  (2) 
rxn_1297

>  <mol_properties>  (2) 
{"1": {"label": "acceptor", "atom_type": "CS"}}

>  <type>  (2) 
r2

$$$$

     RDKit          3D

  7  6  0  0  0  0  0  0  0  0999 V2000
   -0.6782    0.0507    0.0301 C   0  0  0  0  0  0  0  0  0  0  0  0
    0.8092    0.0996    0.0213 C   0  0  0  0  0  0  0  0  0  0  0  0
    1.7473    0.7521    1.1507 S   0  0  0  0  0  0  0  0  0  0  0  0
   -1.0667    0.5456   -0.8653 H   0  0  0  0  0  0  0  0  0  0  0  0
   -1.0112   -0.9904   -0.0239 H   0  0  0  0  0  0  0  0  0  0  0  0
   -1.0920    0.5225    0.9188 H   0  0  0  0  0  0  0  0  0  0  0  0
    1.2740   -0.3620   -0.8520 H   0  0  0  0  0  0  0  0  0  0  0  0
  1  2  1  0
  1  4  1  0
  1  5  1  0
  1  6  1  0
  2  3  2  0
  2  7  1  0
M  END
>  <reaction>  (3) 
rxn_1297

>  <mol_properties>  (3) 
{"0": {"label": "a_hydrogen", "atom_type": "H0"}, "2": {"label": "acceptor", "atom_type": "CS"}}

>  <type>  (3) 
r2h

$$$$

     RDKit          3D

 16 14  0  0  0  0  0  0  0  0999 V2000
   -1.0047    0.6319   -3.0345 C   0  0  0  0  0  0  0  0  0  0  0  0
   -1.2020    0.6334   -1.8472 C   0  0  0  0  0  0  0  0  0  0  0  0
   -1.3618    0.6206   -0.4307 C   0  0  0  0  0  0  0  0  0  0  0  0
   -1.3253    1.9524    0.2855 C   0  0  0  0  0  0  0  0  0  0  0  0
   -0.8580    0.6393   -4.0876 H   0  0  0  0  0  0  0  0  0  0  0  0
   -0.2834   -0.0233    0.0533 H   0  0  0  0  0  0  0  0  0  0  0  0
   -2.1630   -0.0398   -0.0996 H   0  0  0  0  0  0  0  0  0  0  0  0
   -2.2195    2.5423    0.0689 H   0  0  0  0  0  0  0  0  0  0  0  0
   -1.2691    1.7986    1.3640 H   0  0  0  0  0  0  0  0  0  0  0  0
   -0.4561    2.5341   -0.0232 H   0  0  0  0  0  0  0  0  0  0  0  0
    1.5106   -1.3079   -0.6053 C   0  0  0  0  0  0  0  0  0  0  0  0
    0.8726   -0.5723    0.5071 C   0  0  0  0  0  3  0  0  0  0  0  0
    1.3266   -0.2782    1.9952 S   0  0  0  0  0  0  0  0  0  0  0  0
    2.4827   -1.7204   -0.3342 H   0  0  0  0  0  0  0  0  0  0  0  0
    1.6101   -0.6350   -1.4619 H   0  0  0  0  0  0  0  0  0  0  0  0
    0.8423   -2.1097   -0.9323 H   0  0  0  0  0  0  0  0  0  0  0  0
  1  2  3  0
  1  5  1  0
  2  3  1  0
  3  4  1  0
  3  6  1  0
  3  7  1  0
  4  8  1  0
  4  9  1  0
  4 10  1  0
 11 12  1  0
 11 14  1  0
 11 15  1  0
 11 16  1  0
 12 13  2  0
M  RAD  1  12   2
M  END
>  <reaction>  (4) 
rxn_1297

>  <mol_properties>  (4) 
{"1": {"label": "*0", "atom_type": "Ct"}, "2": {"label": "*1", "atom_type": "Cs"}, "5": {"label": "*2", "atom_type": "H0"}, "11": {"label": "*3", "atom_type": "CS"}, "12": {"label": "*4", "atom_type": "S2d"}}

>  <type>  (4) 
ts

$$$$

     RDKit          3D

 16 14  0  0  0  0  0  0  0  0999 V2000
   -1.1000    0.7872   -2.9211 C   0  0  0  0  0  0  0  0  0  0  0  0
   -1.1000    0.7872   -1.7234 C   0  0  0  0  0  0  0  0  0  0  0  0
   -1.1000    0.8155   -0.2643 C   0  0  0  0  0  3  0  0  0  0  0  0
   -1.1000    2.2368    0.3013 C   0  0  0  0  0  0  0  0  0  0  0  0
   -1.1000    0.7872   -3.9844 H   0  0  0  0  0  0  0  0  0  0  0  0
   -0.0494    0.1614    0.1698 H   0  0  0  0  0  0  0  0  0  0  0  0
   -1.9755    0.2704    0.0974 H   0  0  0  0  0  0  0  0  0  0  0  0
   -1.9822    2.7847   -0.0301 H   0  0  0  0  0  0  0  0  0  0  0  0
   -1.1000    2.2096    1.3916 H   0  0  0  0  0  0  0  0  0  0  0  0
   -0.2178    2.7847   -0.0301 H   0  0  0  0  0  0  0  0  0  0  0  0
    1.9374    0.3183    1.4275 C   0  0  0  0  0  0  0  0  0  0  0  0
    1.0000   -0.4920    0.6033 C   0  0  0  0  0  0  0  0  0  0  0  0
    0.5460   -2.0065    0.8890 S   0  0  0  0  0  0  0  0  0  0  0  0
    2.3054   -0.2398    2.2859 H   0  0  0  0  0  0  0  0  0  0  0  0
    1.4338    1.2285    1.7676 H   0  0  0  0  0  0  0  0  0  0  0  0
    2.7804    0.6443    0.8105 H   0  0  0  0  0  0  0  0  0  0  0  0
  1  2  3  0
  1  5  1  0
  2  3  1  0
  3  4  1  0
  3  7  1  0
  4  8  1  0
  4  9  1  0
  4 10  1  0
  6 12  1  0
 11 12  1  0
 11 14  1  0
 11 15  1  0
 11 16  1  0
 12 13  2  0
M  RAD  1   3   2
M  END
>  <reaction>  (5) 
rxn_1297

>  <mol_properties>  (5) 
{"1": {"label": "*0", "atom_type": "Ct"}, "2": {"label": "*1", "atom_type": "Cs"}, "5": {"label": "*2", "atom_type": "H0"}, "11": {"label": "*3", "atom_type": "CS"}, "12": {"label": "*4", "atom_type": "S2d"}}

>  <type>  (5) 
unop_1

>  <geom_source>  (5) 
Heuristics

$$$$

     RDKit          3D

 16 14  0  0  0  0  0  0  0  0999 V2000
   -1.2661    0.5768   -3.0386 C   0  0  0  0  0  0  0  0  0  0  0  0
   -1.2661    0.5768   -1.8409 C   0  0  0  0  0  0  0  0  0  0  0  0
   -1.2661    0.6050   -0.3818 C   0  0  0  0  0  3  0  0  0  0  0  0
   -1.2660    2.0264    0.1838 C   0  0  0  0  0  0  0  0  0  0  0  0
   -1.2661    0.5768   -4.1019 H   0  0  0  0  0  0  0  0  0  0  0  0
   -0.2155   -0.0491    0.0523 H   0  0  0  0  0  0  0  0  0  0  0  0
   -2.1416    0.0599   -0.0201 H   0  0  0  0  0  0  0  0  0  0  0  0
   -2.1483    2.5742   -0.1476 H   0  0  0  0  0  0  0  0  0  0  0  0
   -1.2660    1.9991    1.2741 H   0  0  0  0  0  0  0  0  0  0  0  0
   -0.3838    2.5742   -0.1476 H   0  0  0  0  0  0  0  0  0  0  0  0
    2.0095   -0.6615   -0.4257 C   0  0  0  0  0  0  0  0  0  0  0  0
    0.8339   -0.7025    0.4859 C   0  0  0  0  0  0  0  0  0  0  0  0
    0.8506   -1.0915    2.0446 S   0  0  0  0  0  0  0  0  0  0  0  0
    2.9286   -0.9337    0.0889 H   0  0  0  0  0  0  0  0  0  0  0  0
    2.1084    0.3417   -0.8518 H   0  0  0  0  0  0  0  0  0  0  0  0
    1.8438   -1.3396   -1.2686 H   0  0  0  0  0  0  0  0  0  0  0  0
  1  2  3  0
  1  5  1  0
  2  3  1  0
  3  4  1  0
  3  7  1  0
  4  8  1  0
  4  9  1  0
  4 10  1  0
  6 12  1  0
 11 12  1  0
 11 14  1  0
 11 15  1  0
 11 16  1  0
 12 13  2  0
M  RAD  1   3   2
M  END
>  <reaction>  (6) 
rxn_1297

>  <mol_properties>  (6) 
{"1": {"label": "*0", "atom_type": "Ct"}, "2": {"label": "*1", "atom_type": "Cs"}, "5": {"label": "*2", "atom_type": "H0"}, "11": {"label": "*3", "atom_type": "CS"}, "12": {"label": "*4", "atom_type": "S2d"}}

>  <type>  (6) 
unop_2

>  <geom_source>  (6) 
Heuristics

$$$$

     RDKit          3D

 16 14  0  0  0  0  0  0  0  0999 V2000
   -1.1865    0.8312   -2.7523 C   0  0  0  0  0  0  0  0  0  0  0  0
   -1.1865    0.8312   -1.5546 C   0  0  0  0  0  0  0  0  0  0  0  0
   -1.1865    0.8594   -0.0954 C   0  0  0  0  0  3  0  0  0  0  0  0
   -1.1865    2.2808    0.4702 C   0  0  0  0  0  0  0  0  0  0  0  0
   -1.1865    0.8312   -3.8156 H   0  0  0  0  0  0  0  0  0  0  0  0
   -0.1359    0.2053    0.3386 H   0  0  0  0  0  0  0  0  0  0  0  0
   -2.0620    0.3144    0.2663 H   0  0  0  0  0  0  0  0  0  0  0  0
   -2.0687    2.8287    0.1387 H   0  0  0  0  0  0  0  0  0  0  0  0
   -1.1865    2.2535    1.5605 H   0  0  0  0  0  0  0  0  0  0  0  0
   -0.3043    2.8287    0.1387 H   0  0  0  0  0  0  0  0  0  0  0  0
    1.4522    0.0373    2.0718 C   0  0  0  0  0  0  0  0  0  0  0  0
    0.9135   -0.4480    0.7722 C   0  0  0  0  0  0  0  0  0  0  0  0
    0.9628   -1.9578    0.2250 S   0  0  0  0  0  0  0  0  0  0  0  0
    1.9059   -0.7676    2.6461 H   0  0  0  0  0  0  0  0  0  0  0  0
    0.6475    0.4975    2.6534 H   0  0  0  0  0  0  0  0  0  0  0  0
    2.1913    0.8240    1.8916 H   0  0  0  0  0  0  0  0  0  0  0  0
  1  2  3  0
  1  5  1  0
  2  3  1  0
  3  4  1  0
  3  7  1  0
  4  8  1  0
  4  9  1  0
  4 10  1  0
  6 12  1  0
 11 12  1  0
 11 14  1  0
 11 15  1  0
 11 16  1  0
 12 13  2  0
M  RAD  1   3   2
M  END
>  <reaction>  (7) 
rxn_1297

>  <mol_properties>  (7) 
{"1": {"label": "*0", "atom_type": "Ct"}, "2": {"label": "*1", "atom_type": "Cs"}, "5": {"label": "*2", "atom_type": "H0"}, "11": {"label": "*3", "atom_type": "CS"}, "12": {"label": "*4", "atom_type": "S2d"}}

>  <type>  (7) 
unop_3

>  <geom_source>  (7) 
Heuristics

$$$$

     RDKit          3D

 16 14  0  0  0  0  0  0  0  0999 V2000
   -1.2671    0.4972   -3.0540 C   0  0  0  0  0  0  0  0  0  0  0  0
   -1.2671    0.4972   -1.8563 C   0  0  0  0  0  0  0  0  0  0  0  0
   -1.2671    0.5255   -0.3972 C   0  0  0  0  0  3  0  0  0  0  0  0
   -1.2671    1.9468    0.1684 C   0  0  0  0  0  0  0  0  0  0  0  0
   -1.2671    0.4972   -4.1173 H   0  0  0  0  0  0  0  0  0  0  0  0
   -0.2165   -0.1286    0.0369 H   0  0  0  0  0  0  0  0  0  0  0  0
   -2.1426   -0.0196   -0.0354 H   0  0  0  0  0  0  0  0  0  0  0  0
   -2.1493    2.4947   -0.1630 H   0  0  0  0  0  0  0  0  0  0  0  0
   -1.2671    1.9196    1.2587 H   0  0  0  0  0  0  0  0  0  0  0  0
   -0.3849    2.4947   -0.1630 H   0  0  0  0  0  0  0  0  0  0  0  0
    0.8881   -2.2103    0.0564 C   0  0  0  0  0  0  0  0  0  0  0  0
    0.8329   -0.7820    0.4705 C   0  0  0  0  0  0  0  0  0  0  0  0
    1.4064   -0.1640    1.8381 S   0  0  0  0  0  0  0  0  0  0  0  0
    1.3785   -2.8287    0.8052 H   0  0  0  0  0  0  0  0  0  0  0  0
    1.4183   -2.2955   -0.8972 H   0  0  0  0  0  0  0  0  0  0  0  0
   -0.1265   -2.5803   -0.1207 H   0  0  0  0  0  0  0  0  0  0  0  0
  1  2  3  0
  1  5  1  0
  2  3  1  0
  3  4  1  0
  3  7  1  0
  4  8  1  0
  4  9  1  0
  4 10  1  0
  6 12  1  0
 11 12  1  0
 11 14  1  0
 11 15  1  0
 11 16  1  0
 12 13  2  0
M  RAD  1   3   2
M  END
>  <reaction>  (8) 
rxn_1297

>  <mol_properties>  (8) 
{"1": {"label": "*0", "atom_type": "Ct"}, "2": {"label": "*1", "atom_type": "Cs"}, "5": {"label": "*2", "atom_type": "H0"}, "11": {"label": "*3", "atom_type": "CS"}, "12": {"label": "*4", "atom_type": "S2d"}}

>  <type>  (8) 
unop_4

>  <geom_source>  (8) 
Heuristics

$$$$

     RDKit          3D

 16 14  0  0  0  0  0  0  0  0999 V2000
   -1.3996    0.6650   -2.6309 C   0  0  0  0  0  0  0  0  0  0  0  0
   -1.3996    0.6650   -1.4332 C   0  0  0  0  0  0  0  0  0  0  0  0
   -1.3996    0.6932    0.0260 C   0  0  0  0  0  3  0  0  0  0  0  0
   -1.3996    2.1146    0.5916 C   0  0  0  0  0  0  0  0  0  0  0  0
   -1.3996    0.6650   -3.6942 H   0  0  0  0  0  0  0  0  0  0  0  0
   -0.3490    0.0391    0.4600 H   0  0  0  0  0  0  0  0  0  0  0  0
   -2.2751    0.1481    0.3877 H   0  0  0  0  0  0  0  0  0  0  0  0
   -2.2818    2.6624    0.2601 H   0  0  0  0  0  0  0  0  0  0  0  0
   -1.3996    2.0873    1.6819 H   0  0  0  0  0  0  0  0  0  0  0  0
   -0.5173    2.6624    0.2601 H   0  0  0  0  0  0  0  0  0  0  0  0
    0.8290   -0.6667    2.3753 C   0  0  0  0  0  0  0  0  0  0  0  0
    0.7004   -0.6143    0.8936 C   0  0  0  0  0  0  0  0  0  0  0  0
    1.7069   -1.2696   -0.1736 S   0  0  0  0  0  0  0  0  0  0  0  0
    1.7142   -1.2189    2.6840 H   0  0  0  0  0  0  0  0  0  0  0  0
   -0.0640   -1.1312    2.8047 H   0  0  0  0  0  0  0  0  0  0  0  0
    0.8705    0.3508    2.7761 H   0  0  0  0  0  0  0  0  0  0  0  0
  1  2  3  0
  1  5  1  0
  2  3  1  0
  3  4  1  0
  3  7  1  0
  4  8  1  0
  4  9  1  0
  4 10  1  0
  6 12  1  0
 11 12  1  0
 11 14  1  0
 11 15  1  0
 11 16  1  0
 12 13  2  0
M  RAD  1   3   2
M  END
>  <reaction>  (9) 
rxn_1297

>  <mol_properties>  (9) 
{"1": {"label": "*0", "atom_type": "Ct"}, "2": {"label": "*1", "atom_type": "Cs"}, "5": {"label": "*2", "atom_type": "H0"}, "11": {"label": "*3", "atom_type": "CS"}, "12": {"label": "*4", "atom_type": "S2d"}}

>  <type>  (9) 
unop_5

>  <geom_source>  (9) 
Heuristics

$$$$

     RDKit          3D

 16 14  0  0  0  0  0  0  0  0999 V2000
   -1.3089    0.3964   -3.0201 C   0  0  0  0  0  0  0  0  0  0  0  0
   -1.3089    0.3964   -1.8224 C   0  0  0  0  0  0  0  0  0  0  0  0
   -1.3089    0.4247   -0.3633 C   0  0  0  0  0  3  0  0  0  0  0  0
   -1.3089    1.8460    0.2023 C   0  0  0  0  0  0  0  0  0  0  0  0
   -1.3089    0.3964   -4.0834 H   0  0  0  0  0  0  0  0  0  0  0  0
   -0.2583   -0.2295    0.0708 H   0  0  0  0  0  0  0  0  0  0  0  0
   -2.1844   -0.1204   -0.0016 H   0  0  0  0  0  0  0  0  0  0  0  0
   -2.1911    2.3939   -0.1291 H   0  0  0  0  0  0  0  0  0  0  0  0
   -1.3089    1.8187    1.2926 H   0  0  0  0  0  0  0  0  0  0  0  0
   -0.4266    2.3939   -0.1291 H   0  0  0  0  0  0  0  0  0  0  0  0
    0.5658   -2.3362    0.7315 C   0  0  0  0  0  0  0  0  0  0  0  0
    0.7911   -0.8828    0.5044 C   0  0  0  0  0  0  0  0  0  0  0  0
    1.6510    0.1047    1.4354 S   0  0  0  0  0  0  0  0  0  0  0  0
    1.0636   -2.6853    1.6337 H   0  0  0  0  0  0  0  0  0  0  0  0
    0.9273   -2.9028   -0.1321 H   0  0  0  0  0  0  0  0  0  0  0  0
   -0.5082   -2.5341    0.8027 H   0  0  0  0  0  0  0  0  0  0  0  0
  1  2  3  0
  1  5  1  0
  2  3  1  0
  3  4  1  0
  3  7  1  0
  4  8  1  0
  4  9  1  0
  4 10  1  0
  6 12  1  0
 11 12  1  0
 11 14  1  0
 11 15  1  0
 11 16  1  0
 12 13  2  0
M  RAD  1   3   2
M  END
>  <reaction>  (10) 
rxn_1297

>  <mol_properties>  (10) 
{"1": {"label": "*0", "atom_type": "Ct"}, "2": {"label": "*1", "atom_type": "Cs"}, "5": {"label": "*2", "atom_type": "H0"}, "11": {"label": "*3", "atom_type": "CS"}, "12": {"label": "*4", "atom_type": "S2d"}}

>  <type>  (10) 
unop_6

>  <geom_source>  (10) 
Heuristics

$$$$

     RDKit          3D

 16 14  0  0  0  0  0  0  0  0999 V2000
   -1.3858    0.3340   -2.9124 C   0  0  0  0  0  0  0  0  0  0  0  0
   -1.3858    0.3340   -1.7147 C   0  0  0  0  0  0  0  0  0  0  0  0
   -1.3858    0.3622   -0.2555 C   0  0  0  0  0  3  0  0  0  0  0  0
   -1.3858    1.7836    0.3101 C   0  0  0  0  0  0  0  0  0  0  0  0
   -1.3858    0.3340   -3.9757 H   0  0  0  0  0  0  0  0  0  0  0  0
   -0.3352   -0.2919    0.1785 H   0  0  0  0  0  0  0  0  0  0  0  0
   -2.2613   -0.1828    0.1062 H   0  0  0  0  0  0  0  0  0  0  0  0
   -2.2680    2.3315   -0.0214 H   0  0  0  0  0  0  0  0  0  0  0  0
   -1.3858    1.7563    1.4004 H   0  0  0  0  0  0  0  0  0  0  0  0
   -0.5036    2.3314   -0.0214 H   0  0  0  0  0  0  0  0  0  0  0  0
    0.4017   -2.1170    1.4746 C   0  0  0  0  0  0  0  0  0  0  0  0
    0.7142   -0.9453    0.6121 C   0  0  0  0  0  0  0  0  0  0  0  0
    1.8897    0.1243    0.8477 S   0  0  0  0  0  0  0  0  0  0  0  0
    1.0788   -2.1849    2.3235 H   0  0  0  0  0  0  0  0  0  0  0  0
    0.4602   -3.0349    0.8816 H   0  0  0  0  0  0  0  0  0  0  0  0
   -0.6306   -2.0453    1.8309 H   0  0  0  0  0  0  0  0  0  0  0  0
  1  2  3  0
  1  5  1  0
  2  3  1  0
  3  4  1  0
  3  7  1  0
  4  8  1  0
  4  9  1  0
  4 10  1  0
  6 12  1  0
 11 12  1  0
 11 14  1  0
 11 15  1  0
 11 16  1  0
 12 13  2  0
M  RAD  1   3   2
M  END
>  <reaction>  (11) 
rxn_1297

>  <mol_properties>  (11) 
{"1": {"label": "*0", "atom_type": "Ct"}, "2": {"label": "*1", "atom_type": "Cs"}, "5": {"label": "*2", "atom_type": "H0"}, "11": {"label": "*3", "atom_type": "CS"}, "12": {"label": "*4", "atom_type": "S2d"}}

>  <type>  (11) 
unop_7

>  <geom_source>  (11) 
Heuristics

$$$$

     RDKit          3D

 16 14  0  0  0  0  0  0  0  0999 V2000
   -1.1250    0.6880   -3.0258 C   0  0  0  0  0  0  0  0  0  0  0  0
   -1.1250    0.6880   -1.8281 C   0  0  0  0  0  0  0  0  0  0  0  0
   -1.1250    0.7162   -0.3689 C   0  0  0  0  0  3  0  0  0  0  0  0
   -1.1250    2.1376    0.1967 C   0  0  0  0  0  0  0  0  0  0  0  0
   -1.1250    0.6880   -4.0891 H   0  0  0  0  0  0  0  0  0  0  0  0
   -0.0744    0.0621    0.0651 H   0  0  0  0  0  0  0  0  0  0  0  0
   -2.0005    0.1711   -0.0072 H   0  0  0  0  0  0  0  0  0  0  0  0
   -2.0072    2.6854   -0.1348 H   0  0  0  0  0  0  0  0  0  0  0  0
   -1.1250    2.1103    1.2870 H   0  0  0  0  0  0  0  0  0  0  0  0
   -0.2428    2.6854   -0.1348 H   0  0  0  0  0  0  0  0  0  0  0  0
    2.1929    0.2441    0.6816 C   0  0  0  0  0  0  0  0  0  0  0  0
    0.9750   -0.5913    0.4987 C   0  0  0  0  0  0  0  0  0  0  0  0
    0.4711   -1.7665    1.4716 S   0  0  0  0  0  0  0  0  0  0  0  0
    2.7382   -0.0298    1.5823 H   0  0  0  0  0  0  0  0  0  0  0  0
    1.9097    1.3001    0.7285 H   0  0  0  0  0  0  0  0  0  0  0  0
    2.8448    0.1380   -0.1910 H   0  0  0  0  0  0  0  0  0  0  0  0
  1  2  3  0
  1  5  1  0
  2  3  1  0
  3  4  1  0
  3  7  1  0
  4  8  1  0
  4  9  1  0
  4 10  1  0
  6 12  1  0
 11 12  1  0
 11 14  1  0
 11 15  1  0
 11 16  1  0
 12 13  2  0
M  RAD  1   3   2
M  END
>  <reaction>  (12) 
rxn_1297

>  <mol_properties>  (12) 
{"1": {"label": "*0", "atom_type": "Ct"}, "2": {"label": "*1", "atom_type": "Cs"}, "5": {"label": "*2", "atom_type": "H0"}, "11": {"label": "*3", "atom_type": "CS"}, "12": {"label": "*4", "atom_type": "S2d"}}

>  <type>  (12) 
unop_8

>  <geom_source>  (12) 
Heuristics

$$$$

     RDKit          3D

 16 14  0  0  0  0  0  0  0  0999 V2000
   -1.2696    0.5712   -3.0385 C   0  0  0  0  0  0  0  0  0  0  0  0
   -1.2696    0.5712   -1.8408 C   0  0  0  0  0  0  0  0  0  0  0  0
   -1.2696    0.5994   -0.3817 C   0  0  0  0  0  3  0  0  0  0  0  0
   -1.2696    2.0208    0.1839 C   0  0  0  0  0  0  0  0  0  0  0  0
   -1.2696    0.5712   -4.1018 H   0  0  0  0  0  0  0  0  0  0  0  0
   -0.2190   -0.0547    0.0524 H   0  0  0  0  0  0  0  0  0  0  0  0
   -2.1451    0.0543   -0.0199 H   0  0  0  0  0  0  0  0  0  0  0  0
   -2.1518    2.5687   -0.1475 H   0  0  0  0  0  0  0  0  0  0  0  0
   -1.2696    1.9935    1.2742 H   0  0  0  0  0  0  0  0  0  0  0  0
   -0.3873    2.5686   -0.1475 H   0  0  0  0  0  0  0  0  0  0  0  0
    1.2844   -1.8114   -0.4035 C   0  0  0  0  0  0  0  0  0  0  0  0
    0.8304   -0.7081    0.4860 C   0  0  0  0  0  0  0  0  0  0  0  0
    1.2158   -0.5124    2.0334 S   0  0  0  0  0  0  0  0  0  0  0  0
    1.9351   -2.5091    0.1193 H   0  0  0  0  0  0  0  0  0  0  0  0
    1.8100   -1.3933   -1.2675 H   0  0  0  0  0  0  0  0  0  0  0  0
    0.4146   -2.3444   -0.7999 H   0  0  0  0  0  0  0  0  0  0  0  0
  1  2  3  0
  1  5  1  0
  2  3  1  0
  3  4  1  0
  3  7  1  0
  4  8  1  0
  4  9  1  0
  4 10  1  0
  6 12  1  0
 11 12  1  0
 11 14  1  0
 11 15  1  0
 11 16  1  0
 12 13  2  0
M  RAD  1   3   2
M  END
>  <reaction>  (13) 
rxn_1297

>  <mol_properties>  (13) 
{"1": {"label": "*0", "atom_type": "Ct"}, "2": {"label": "*1", "atom_type": "Cs"}, "5": {"label": "*2", "atom_type": "H0"}, "11": {"label": "*3", "atom_type": "CS"}, "12": {"label": "*4", "atom_type": "S2d"}}

>  <type>  (13) 
unop_9

>  <geom_source>  (13) 
Heuristics

$$$$

     RDKit          3D

 16 14  0  0  0  0  0  0  0  0999 V2000
   -1.1986    0.6060   -3.0561 C   0  0  0  0  0  0  0  0  0  0  0  0
   -1.1986    0.6060   -1.8584 C   0  0  0  0  0  0  0  0  0  0  0  0
   -1.1986    0.6342   -0.3993 C   0  0  0  0  0  3  0  0  0  0  0  0
   -1.1986    2.0556    0.1663 C   0  0  0  0  0  0  0  0  0  0  0  0
   -1.1986    0.6060   -4.1194 H   0  0  0  0  0  0  0  0  0  0  0  0
   -0.1480   -0.0199    0.0348 H   0  0  0  0  0  0  0  0  0  0  0  0
   -2.0741    0.0891   -0.0376 H   0  0  0  0  0  0  0  0  0  0  0  0
   -2.0808    2.6034   -0.1651 H   0  0  0  0  0  0  0  0  0  0  0  0
   -1.1986    2.0283    1.2566 H   0  0  0  0  0  0  0  0  0  0  0  0
   -0.3163    2.6034   -0.1651 H   0  0  0  0  0  0  0  0  0  0  0  0
    2.2065   -0.1195    0.0159 C   0  0  0  0  0  0  0  0  0  0  0  0
    0.9014   -0.6733    0.4684 C   0  0  0  0  0  0  0  0  0  0  0  0
    0.6150   -1.4189    1.8624 S   0  0  0  0  0  0  0  0  0  0  0  0
    2.9888   -0.2750    0.7558 H   0  0  0  0  0  0  0  0  0  0  0  0
    2.0998    0.9502   -0.1890 H   0  0  0  0  0  0  0  0  0  0  0  0
    2.4953   -0.5876   -0.9302 H   0  0  0  0  0  0  0  0  0  0  0  0
  1  2  3  0
  1  5  1  0
  2  3  1  0
  3  4  1  0
  3  7  1  0
  4  8  1  0
  4  9  1  0
  4 10  1  0
  6 12  1  0
 11 12  1  0
 11 14  1  0
 11 15  1  0
 11 16  1  0
 12 13  2  0
M  RAD  1   3   2
M  END
>  <reaction>  (14) 
rxn_1297

>  <mol_properties>  (14) 
{"1": {"label": "*0", "atom_type": "Ct"}, "2": {"label": "*1", "atom_type": "Cs"}, "5": {"label": "*2", "atom_type": "H0"}, "11": {"label": "*3", "atom_type": "CS"}, "12": {"label": "*4", "atom_type": "S2d"}}

>  <type>  (14) 
unop_10

>  <geom_source>  (14) 
Heuristics

$$$$

     RDKit          3D

 16 14  0  0  0  0  0  0  0  0999 V2000
   -1.4598    0.3978   -2.7439 C   0  0  0  0  0  0  0  0  0  0  0  0
   -1.4598    0.3978   -1.5462 C   0  0  0  0  0  0  0  0  0  0  0  0
   -1.4598    0.4260   -0.0870 C   0  0  0  0  0  3  0  0  0  0  0  0
   -1.4598    1.8474    0.4786 C   0  0  0  0  0  0  0  0  0  0  0  0
   -1.4598    0.3978   -3.8072 H   0  0  0  0  0  0  0  0  0  0  0  0
   -0.4092   -0.2281    0.3470 H   0  0  0  0  0  0  0  0  0  0  0  0
   -2.3354   -0.1191    0.2747 H   0  0  0  0  0  0  0  0  0  0  0  0
   -2.3421    2.3953    0.1471 H   0  0  0  0  0  0  0  0  0  0  0  0
   -1.4598    1.8201    1.5688 H   0  0  0  0  0  0  0  0  0  0  0  0
   -0.5776    2.3952    0.1471 H   0  0  0  0  0  0  0  0  0  0  0  0
    0.4572   -1.5405    2.1023 C   0  0  0  0  0  0  0  0  0  0  0  0
    0.6402   -0.8815    0.7806 C   0  0  0  0  0  0  0  0  0  0  0  0
    2.0139   -0.2910    0.1927 S   0  0  0  0  0  0  0  0  0  0  0  0
    1.3890   -1.5873    2.6620 H   0  0  0  0  0  0  0  0  0  0  0  0
    0.0631   -2.5510    1.9568 H   0  0  0  0  0  0  0  0  0  0  0  0
   -0.2947   -0.9966    2.6823 H   0  0  0  0  0  0  0  0  0  0  0  0
  1  2  3  0
  1  5  1  0
  2  3  1  0
  3  4  1  0
  3  7  1  0
  4  8  1  0
  4  9  1  0
  4 10  1  0
  6 12  1  0
 11 12  1  0
 11 14  1  0
 11 15  1  0
 11 16  1  0
 12 13  2  0
M  RAD  1   3   2
M  END
>  <reaction>  (15) 
rxn_1297

>  <mol_properties>  (15) 
{"1": {"label": "*0", "atom_type": "Ct"}, "2": {"label": "*1", "atom_type": "Cs"}, "5": {"label": "*2", "atom_type": "H0"}, "11": {"label": "*3", "atom_type": "CS"}, "12": {"label": "*4", "atom_type": "S2d"}}

>  <type>  (15) 
unop_11

>  <geom_source>  (15) 
Heuristics

$$$$

     RDKit          3D

 16 14  0  0  0  0  0  0  0  0999 V2000
   -1.2866    0.5861   -3.0233 C   0  0  0  0  0  0  0  0  0  0  0  0
   -1.2866    0.5861   -1.8256 C   0  0  0  0  0  0  0  0  0  0  0  0
   -1.2866    0.6143   -0.3664 C   0  0  0  0  0  3  0  0  0  0  0  0
   -1.2865    2.0357    0.1992 C   0  0  0  0  0  0  0  0  0  0  0  0
   -1.2866    0.5861   -4.0866 H   0  0  0  0  0  0  0  0  0  0  0  0
   -0.2360   -0.0398    0.0676 H   0  0  0  0  0  0  0  0  0  0  0  0
   -2.1621    0.0692   -0.0047 H   0  0  0  0  0  0  0  0  0  0  0  0
   -2.1688    2.5836   -0.1323 H   0  0  0  0  0  0  0  0  0  0  0  0
   -1.2865    2.0084    1.2894 H   0  0  0  0  0  0  0  0  0  0  0  0
   -0.4043    2.5835   -0.1323 H   0  0  0  0  0  0  0  0  0  0  0  0
    1.6774   -1.2587   -0.5704 C   0  0  0  0  0  0  0  0  0  0  0  0
    0.8134   -0.6932    0.5012 C   0  0  0  0  0  0  0  0  0  0  0  0
    1.0565   -0.8158    2.0846 S   0  0  0  0  0  0  0  0  0  0  0  0
    2.5332   -1.7905   -0.1598 H   0  0  0  0  0  0  0  0  0  0  0  0
    2.0232   -0.4535   -1.2259 H   0  0  0  0  0  0  0  0  0  0  0  0
    1.0887   -1.9355   -1.1973 H   0  0  0  0  0  0  0  0  0  0  0  0
  1  2  3  0
  1  5  1  0
  2  3  1  0
  3  4  1  0
  3  7  1  0
  4  8  1  0
  4  9  1  0
  4 10  1  0
  6 12  1  0
 11 12  1  0
 11 14  1  0
 11 15  1  0
 11 16  1  0
 12 13  2  0
M  RAD  1   3   2
M  END
>  <reaction>  (16) 
rxn_1297

>  <mol_properties>  (16) 
{"1": {"label": "*0", "atom_type": "Ct"}, "2": {"label": "*1", "atom_type": "Cs"}, "5": {"label": "*2", "atom_type": "H0"}, "11": {"label": "*3", "atom_type": "CS"}, "12": {"label": "*4", "atom_type": "S2d"}}

>  <type>  (16) 
unop_12

>  <geom_source>  (16) 
Heuristics

$$$$

     RDKit          3D

 16 14  0  0  0  0  0  0  0  0999 V2000
    1.3990    2.1379    0.4995 S   0  0  0  0  0  0  0  0  0  0  0  0
   -1.4537   -1.6054    0.2644 C   0  0  0  0  0  0  0  0  0  0  0  0
    2.7870    0.1498   -0.2863 C   0  0  0  0  0  0  0  0  0  0  0  0
   -0.8743   -0.2769   -0.1995 C   0  0  0  0  0  3  0  0  0  0  0  0
    1.4919    0.7434    0.1699 C   0  0  0  0  0  0  0  0  0  0  0  0
   -1.8272    0.8145    0.0301 C   0  0  0  0  0  0  0  0  0  0  0  0
   -2.6096    1.7121    0.2186 C   0  0  0  0  0  0  0  0  0  0  0  0
    2.6438   -0.9319   -0.4879 H   0  0  0  0  0  0  0  0  0  0  0  0
    3.1293    0.6437   -1.2209 H   0  0  0  0  0  0  0  0  0  0  0  0
    3.5625    0.2655    0.5009 H   0  0  0  0  0  0  0  0  0  0  0  0
   -2.3798   -1.8441   -0.3016 H   0  0  0  0  0  0  0  0  0  0  0  0
   -0.7097   -2.4102    0.0896 H   0  0  0  0  0  0  0  0  0  0  0  0
   -1.6829   -1.5650    1.3506 H   0  0  0  0  0  0  0  0  0  0  0  0
   -0.6247   -0.3283   -1.2803 H   0  0  0  0  0  0  0  0  0  0  0  0
    0.4449   -0.0051    0.2689 H   0  0  0  0  0  0  0  0  0  0  0  0
   -3.2966    2.4999    0.3841 H   0  0  0  0  0  0  0  0  0  0  0  0
  1  5  2  0
  2  4  1  0
  2 11  1  0
  2 12  1  0
  2 13  1  0
  3  5  1  0
  3  8  1  0
  3  9  1  0
  3 10  1  0
  4  6  1  0
  4 14  1  0
  5 15  1  0
  6  7  3  0
  7 16  1  0
M  RAD  1   4   2
M  END
>  <reaction>  (17) 
rxn_1297

>  <mol_properties>  (17) 
{"1": {"label": "*0", "atom_type": "Ct"}, "2": {"label": "*1", "atom_type": "Cs"}, "5": {"label": "*2", "atom_type": "H0"}, "11": {"label": "*3", "atom_type": "CS"}, "12": {"label": "*4", "atom_type": "S2d"}}

>  <type>  (17) 
unop_13

>  <geom_source>  (17) 
AutoTST

$$$$
