
     RDKit          3D

  9  8  0  0  0  0  0  0  0  0999 V2000
    1.1303   -0.2933   -0.7510 C   0  0  0  0  0  0  0  0  0  0  0  0
    0.2866    0.4560   -0.0588 C   0  0  0  0  0  0  0  0  0  0  0  0
   -0.9719   -0.0331    0.5823 C   0  0  0  0  0  0  0  0  0  0  0  0
    2.0274    0.1230   -1.1916 H   0  0  0  0  0  0  0  0  0  0  0  0
    0.9532   -1.3530   -0.9023 H   0  0  0  0  0  0  0  0  0  0  0  0
    0.5065    1.5132    0.0659 H   0  0  0  0  0  0  0  0  0  0  0  0
   -0.9526    0.1426    1.6610 H   0  0  0  0  0  0  0  0  0  0  0  0
   -1.1182   -1.1002    0.4106 H   0  0  0  0  0  0  0  0  0  0  0  0
   -1.8412    0.5010    0.1901 H   0  0  0  0  0  0  0  0  0  0  0  0
  1  2  2  3
  1  4  1  0
  1  5  1  0
  2  3  1  0
  2  6  1  0
  3  7  1  0
  3  8  1  0
  3  9  1  0
M  END
>  <reaction>  (1) 
rxn_1017

>  <mol_properties>  (1) 
{"2": {"label": "donator", "atom_type": "Cs"}, "6": {"label": "d_hydrogen", "atom_type": "H0"}}

>  <type>  (1) 
r1h

$$$$

     RDKit          3D

  5  4  0  0  0  0  0  0  0  0999 V2000
   -0.5642    0.0794    0.0348 C   0  0  0  0  0  3  0  0  0  0  0  0
    1.0624    0.5420    0.2853 S   0  0  0  0  0  0  0  0  0  0  0  0
   -1.3257    0.7631    0.3741 H   0  0  0  0  0  0  0  0  0  0  0  0
   -0.8236   -0.8519   -0.4401 H   0  0  0  0  0  0  0  0  0  0  0  0
    1.6511   -0.5325   -0.2540 H   0  0  0  0  0  0  0  0  0  0  0  0
  1  2  1  0
  1  3  1  0
  1  4  1  0
  2  5  1  0
M  RAD  1   1   2
M  END
>  <reaction>  (2) 
rxn_1017

>  <mol_properties>  (2) 
{"0": {"label": "acceptor", "atom_type": "Cs"}}

>  <type>  (2) 
r2

$$$$

     RDKit          3D

  6  5  0  0  0  0  0  0  0  0999 V2000
   -0.5072   -0.0291   -0.0097 C   0  0  0  0  0  0  0  0  0  0  0  0
    1.1321   -0.1527   -0.7687 S   0  0  0  0  0  0  0  0  0  0  0  0
   -0.6174   -0.7330    0.8127 H   0  0  0  0  0  0  0  0  0  0  0  0
   -0.5863    0.9827    0.3845 H   0  0  0  0  0  0  0  0  0  0  0  0
   -1.2962   -0.1800   -0.7434 H   0  0  0  0  0  0  0  0  0  0  0  0
    1.0312   -1.4237   -1.1764 H   0  0  0  0  0  0  0  0  0  0  0  0
  1  2  1  0
  1  3  1  0
  1  4  1  0
  1  5  1  0
  2  6  1  0
M  END
>  <reaction>  (3) 
rxn_1017

>  <mol_properties>  (3) 
{"0": {"label": "acceptor", "atom_type": "Cs"}, "5": {"label": "a_hydrogen", "atom_type": "H0"}}

>  <type>  (3) 
r2h

$$$$

     RDKit          3D

 14 12  0  0  0  0  0  0  0  0999 V2000
   -0.6687    0.9599    1.1152 C   0  0  0  0  0  3  0  0  0  0  0  0
   -1.3837   -0.6439    1.0030 S   0  0  0  0  0  0  0  0  0  0  0  0
   -0.4912    1.2285    2.1528 H   0  0  0  0  0  0  0  0  0  0  0  0
   -1.1753    1.7380    0.5515 H   0  0  0  0  0  0  0  0  0  0  0  0
   -1.4796   -0.6895   -0.3328 H   0  0  0  0  0  0  0  0  0  0  0  0
    1.1419   -0.2110   -2.3121 C   0  0  0  0  0  0  0  0  0  0  0  0
    1.5539   -0.3175   -1.0447 C   0  0  0  0  0  0  0  0  0  0  0  0
    1.7236    0.7999   -0.1269 C   0  0  0  0  0  0  0  0  0  0  0  0
    0.9981   -1.0842   -2.9350 H   0  0  0  0  0  0  0  0  0  0  0  0
    0.9542    0.7566   -2.7653 H   0  0  0  0  0  0  0  0  0  0  0  0
    1.7279   -1.3097   -0.6386 H   0  0  0  0  0  0  0  0  0  0  0  0
    0.5978    0.9001    0.5304 H   0  0  0  0  0  0  0  0  0  0  0  0
    1.8164    1.7772   -0.5977 H   0  0  0  0  0  0  0  0  0  0  0  0
    2.4489    0.6490    0.6690 H   0  0  0  0  0  0  0  0  0  0  0  0
  1  2  1  0
  1  3  1  0
  1  4  1  0
  2  5  1  0
  6  7  2  3
  6  9  1  0
  6 10  1  0
  7  8  1  0
  7 11  1  0
  8 12  1  0
  8 13  1  0
  8 14  1  0
M  RAD  1   1   2
M  END
>  <reaction>  (4) 
rxn_1017

>  <mol_properties>  (4) 
{"0": {"label": "*3", "atom_type": "Cs"}, "1": {"label": "*4", "atom_type": "S2s"}, "6": {"label": "*0", "atom_type": "Cd"}, "7": {"label": "*1", "atom_type": "Cs"}, "11": {"label": "*2", "atom_type": "H0"}}

>  <type>  (4) 
ts

$$$$

     RDKit          3D

 14 12  0  0  0  0  0  0  0  0999 V2000
   -1.1535    0.3890    0.5589 C   0  0  0  0  0  0  0  0  0  0  0  0
   -0.6785    0.4096    2.3060 S   0  0  0  0  0  0  0  0  0  0  0  0
   -1.0195    1.4058    0.1934 H   0  0  0  0  0  0  0  0  0  0  0  0
   -2.1975    0.1089    0.4352 H   0  0  0  0  0  0  0  0  0  0  0  0
   -0.9071   -0.8855    2.5559 H   0  0  0  0  0  0  0  0  0  0  0  0
    0.9482   -0.8742   -3.1847 C   0  0  0  0  0  0  0  0  0  0  0  0
    0.9482   -0.8742   -1.8609 C   0  0  0  0  0  0  0  0  0  0  0  0
    0.9482    0.3480   -1.0004 C   0  0  0  0  0  3  0  0  0  0  0  0
    0.9482   -1.7969   -3.7511 H   0  0  0  0  0  0  0  0  0  0  0  0
    0.9482    0.0514   -3.7507 H   0  0  0  0  0  0  0  0  0  0  0  0
    0.9482   -1.8268   -1.3374 H   0  0  0  0  0  0  0  0  0  0  0  0
   -0.1051    0.3685   -0.2189 H   0  0  0  0  0  0  0  0  0  0  0  0
    0.9482    1.2584   -1.6010 H   0  0  0  0  0  0  0  0  0  0  0  0
    1.8259    0.3651   -0.3492 H   0  0  0  0  0  0  0  0  0  0  0  0
  1  2  1  0
  1  3  1  0
  1  4  1  0
  1 12  1  0
  2  5  1  0
  6  7  2  3
  6  9  1  0
  6 10  1  0
  7  8  1  0
  7 11  1  0
  8 13  1  0
  8 14  1  0
M  RAD  1   8   2
M  END
>  <reaction>  (5) 
rxn_1017

>  <mol_properties>  (5) 
{"0": {"label": "*3", "atom_type": "Cs"}, "1": {"label": "*4", "atom_type": "S2s"}, "6": {"label": "*0", "atom_type": "Cd"}, "7": {"label": "*1", "atom_type": "Cs"}, "11": {"label": "*2", "atom_type": "H0"}}

>  <type>  (5) 
unop_1

>  <geom_source>  (5) 
Heuristics

$$$$

     RDKit          3D

 14 12  0  0  0  0  0  0  0  0999 V2000
   -0.7780    1.0021    1.0539 C   0  0  0  0  0  0  0  0  0  0  0  0
   -1.3230   -0.6734    1.4709 S   0  0  0  0  0  0  0  0  0  0  0  0
   -0.2100    1.3613    1.9105 H   0  0  0  0  0  0  0  0  0  0  0  0
   -1.6249    1.6663    0.8942 H   0  0  0  0  0  0  0  0  0  0  0  0
   -1.9780   -0.9240    0.3308 H   0  0  0  0  0  0  0  0  0  0  0  0
    1.3236   -0.2610   -2.6897 C   0  0  0  0  0  0  0  0  0  0  0  0
    1.3236   -0.2610   -1.3660 C   0  0  0  0  0  0  0  0  0  0  0  0
    1.3236    0.9612   -0.5055 C   0  0  0  0  0  3  0  0  0  0  0  0
    1.3236   -1.1837   -3.2562 H   0  0  0  0  0  0  0  0  0  0  0  0
    1.3236    0.6646   -3.2557 H   0  0  0  0  0  0  0  0  0  0  0  0
    1.3236   -1.2136   -0.8425 H   0  0  0  0  0  0  0  0  0  0  0  0
    0.2704    0.9817    0.2760 H   0  0  0  0  0  0  0  0  0  0  0  0
    1.3236    1.8716   -1.1061 H   0  0  0  0  0  0  0  0  0  0  0  0
    2.2013    0.9783    0.1458 H   0  0  0  0  0  0  0  0  0  0  0  0
  1  2  1  0
  1  3  1  0
  1  4  1  0
  1 12  1  0
  2  5  1  0
  6  7  2  3
  6  9  1  0
  6 10  1  0
  7  8  1  0
  7 11  1  0
  8 13  1  0
  8 14  1  0
M  RAD  1   8   2
M  END
>  <reaction>  (6) 
rxn_1017

>  <mol_properties>  (6) 
{"0": {"label": "*3", "atom_type": "Cs"}, "1": {"label": "*4", "atom_type": "S2s"}, "6": {"label": "*0", "atom_type": "Cd"}, "7": {"label": "*1", "atom_type": "Cs"}, "11": {"label": "*2", "atom_type": "H0"}}

>  <type>  (6) 
unop_2

>  <geom_source>  (6) 
Heuristics

$$$$

     RDKit          3D

 14 12  0  0  0  0  0  0  0  0999 V2000
   -1.1110    0.0829    0.6264 C   0  0  0  0  0  0  0  0  0  0  0  0
   -0.7631    0.9451    2.1802 S   0  0  0  0  0  0  0  0  0  0  0  0
   -1.4589    0.8413   -0.0730 H   0  0  0  0  0  0  0  0  0  0  0  0
   -1.8952   -0.6607    0.7526 H   0  0  0  0  0  0  0  0  0  0  0  0
   -0.3636   -0.1249    2.8784 H   0  0  0  0  0  0  0  0  0  0  0  0
    0.9906   -1.1803   -3.1171 C   0  0  0  0  0  0  0  0  0  0  0  0
    0.9906   -1.1803   -1.7934 C   0  0  0  0  0  0  0  0  0  0  0  0
    0.9906    0.0419   -0.9329 C   0  0  0  0  0  3  0  0  0  0  0  0
    0.9906   -2.1030   -3.6836 H   0  0  0  0  0  0  0  0  0  0  0  0
    0.9906   -0.2547   -3.6831 H   0  0  0  0  0  0  0  0  0  0  0  0
    0.9906   -2.1329   -1.2699 H   0  0  0  0  0  0  0  0  0  0  0  0
   -0.0626    0.0625   -0.1514 H   0  0  0  0  0  0  0  0  0  0  0  0
    0.9906    0.9524   -1.5335 H   0  0  0  0  0  0  0  0  0  0  0  0
    1.8684    0.0590   -0.2817 H   0  0  0  0  0  0  0  0  0  0  0  0
  1  2  1  0
  1  3  1  0
  1  4  1  0
  1 12  1  0
  2  5  1  0
  6  7  2  3
  6  9  1  0
  6 10  1  0
  7  8  1  0
  7 11  1  0
  8 13  1  0
  8 14  1  0
M  RAD  1   8   2
M  END
>  <reaction>  (7) 
rxn_1017

>  <mol_properties>  (7) 
{"0": {"label": "*3", "atom_type": "Cs"}, "1": {"label": "*4", "atom_type": "S2s"}, "6": {"label": "*0", "atom_type": "Cd"}, "7": {"label": "*1", "atom_type": "Cs"}, "11": {"label": "*2", "atom_type": "H0"}}

>  <type>  (7) 
unop_3

>  <geom_source>  (7) 
Heuristics

$$$$

     RDKit          3D

 14 12  0  0  0  0  0  0  0  0999 V2000
   -0.4286    0.3772    1.5582 C   0  0  0  0  0  0  0  0  0  0  0  0
   -1.9632    0.3773    0.5973 S   0  0  0  0  0  0  0  0  0  0  0  0
   -0.6541   -0.1299    2.4949 H   0  0  0  0  0  0  0  0  0  0  0  0
   -0.1001    1.3903    1.7809 H   0  0  0  0  0  0  0  0  0  0  0  0
   -1.4879    1.0220   -0.4752 H   0  0  0  0  0  0  0  0  0  0  0  0
    1.6731   -0.8859   -2.1853 C   0  0  0  0  0  0  0  0  0  0  0  0
    1.6731   -0.8859   -0.8616 C   0  0  0  0  0  0  0  0  0  0  0  0
    1.6731    0.3363   -0.0011 C   0  0  0  0  0  3  0  0  0  0  0  0
    1.6731   -1.8086   -2.7518 H   0  0  0  0  0  0  0  0  0  0  0  0
    1.6731    0.0397   -2.7513 H   0  0  0  0  0  0  0  0  0  0  0  0
    1.6731   -1.8385   -0.3381 H   0  0  0  0  0  0  0  0  0  0  0  0
    0.6198    0.3568    0.7804 H   0  0  0  0  0  0  0  0  0  0  0  0
    1.6731    1.2467   -0.6017 H   0  0  0  0  0  0  0  0  0  0  0  0
    2.5508    0.3534    0.6501 H   0  0  0  0  0  0  0  0  0  0  0  0
  1  2  1  0
  1  3  1  0
  1  4  1  0
  1 12  1  0
  2  5  1  0
  6  7  2  3
  6  9  1  0
  6 10  1  0
  7  8  1  0
  7 11  1  0
  8 13  1  0
  8 14  1  0
M  RAD  1   8   2
M  END
>  <reaction>  (8) 
rxn_1017

>  <mol_properties>  (8) 
{"0": {"label": "*3", "atom_type": "Cs"}, "1": {"label": "*4", "atom_type": "S2s"}, "6": {"label": "*0", "atom_type": "Cd"}, "7": {"label": "*1", "atom_type": "Cs"}, "11": {"label": "*2", "atom_type": "H0"}}

>  <type>  (8) 
unop_4

>  <geom_source>  (8) 
Heuristics

$$$$

     RDKit          3D

 14 12  0  0  0  0  0  0  0  0999 V2000
   -0.9874   -0.1437    0.8075 C   0  0  0  0  0  0  0  0  0  0  0  0
   -1.0017    1.3318    1.8568 S   0  0  0  0  0  0  0  0  0  0  0  0
   -1.8805   -0.0869    0.1874 H   0  0  0  0  0  0  0  0  0  0  0  0
   -1.0334   -1.0536    1.4022 H   0  0  0  0  0  0  0  0  0  0  0  0
    0.1354    1.0783    2.5161 H   0  0  0  0  0  0  0  0  0  0  0  0
    1.1143   -1.4068   -2.9361 C   0  0  0  0  0  0  0  0  0  0  0  0
    1.1143   -1.4068   -1.6123 C   0  0  0  0  0  0  0  0  0  0  0  0
    1.1143   -0.1847   -0.7518 C   0  0  0  0  0  3  0  0  0  0  0  0
    1.1143   -2.3296   -3.5026 H   0  0  0  0  0  0  0  0  0  0  0  0
    1.1143   -0.4812   -3.5021 H   0  0  0  0  0  0  0  0  0  0  0  0
    1.1143   -2.3595   -1.0888 H   0  0  0  0  0  0  0  0  0  0  0  0
    0.0610   -0.1641    0.0296 H   0  0  0  0  0  0  0  0  0  0  0  0
    1.1143    0.7258   -1.3524 H   0  0  0  0  0  0  0  0  0  0  0  0
    1.9920   -0.1676   -0.1006 H   0  0  0  0  0  0  0  0  0  0  0  0
  1  2  1  0
  1  3  1  0
  1  4  1  0
  1 12  1  0
  2  5  1  0
  6  7  2  3
  6  9  1  0
  6 10  1  0
  7  8  1  0
  7 11  1  0
  8 13  1  0
  8 14  1  0
M  RAD  1   8   2
M  END
>  <reaction>  (9) 
rxn_1017

>  <mol_properties>  (9) 
{"0": {"label": "*3", "atom_type": "Cs"}, "1": {"label": "*4", "atom_type": "S2s"}, "6": {"label": "*0", "atom_type": "Cd"}, "7": {"label": "*1", "atom_type": "Cs"}, "11": {"label": "*2", "atom_type": "H0"}}

>  <type>  (9) 
unop_5

>  <geom_source>  (9) 
Heuristics

$$$$

     RDKit          3D

 14 12  0  0  0  0  0  0  0  0999 V2000
   -0.4855    0.0687    1.4923 C   0  0  0  0  0  0  0  0  0  0  0  0
   -1.8780    0.9131    0.7008 S   0  0  0  0  0  0  0  0  0  0  0  0
   -0.9142   -0.5792    2.2551 H   0  0  0  0  0  0  0  0  0  0  0  0
    0.1858    0.7768    1.9736 H   0  0  0  0  0  0  0  0  0  0  0  0
   -1.1620    1.6329   -0.1716 H   0  0  0  0  0  0  0  0  0  0  0  0
    1.6161   -1.1944   -2.2513 C   0  0  0  0  0  0  0  0  0  0  0  0
    1.6161   -1.1944   -0.9276 C   0  0  0  0  0  0  0  0  0  0  0  0
    1.6161    0.0277   -0.0670 C   0  0  0  0  0  3  0  0  0  0  0  0
    1.6161   -2.1172   -2.8178 H   0  0  0  0  0  0  0  0  0  0  0  0
    1.6161   -0.2688   -2.8173 H   0  0  0  0  0  0  0  0  0  0  0  0
    1.6161   -2.1471   -0.4040 H   0  0  0  0  0  0  0  0  0  0  0  0
    0.5629    0.0483    0.7144 H   0  0  0  0  0  0  0  0  0  0  0  0
    1.6161    0.9382   -0.6676 H   0  0  0  0  0  0  0  0  0  0  0  0
    2.4938    0.0448    0.5842 H   0  0  0  0  0  0  0  0  0  0  0  0
  1  2  1  0
  1  3  1  0
  1  4  1  0
  1 12  1  0
  2  5  1  0
  6  7  2  3
  6  9  1  0
  6 10  1  0
  7  8  1  0
  7 11  1  0
  8 13  1  0
  8 14  1  0
M  RAD  1   8   2
M  END
>  <reaction>  (10) 
rxn_1017

>  <mol_properties>  (10) 
{"0": {"label": "*3", "atom_type": "Cs"}, "1": {"label": "*4", "atom_type": "S2s"}, "6": {"label": "*0", "atom_type": "Cd"}, "7": {"label": "*1", "atom_type": "Cs"}, "11": {"label": "*2", "atom_type": "H0"}}

>  <type>  (10) 
unop_6

>  <geom_source>  (10) 
Heuristics

$$$$

     RDKit          3D

 14 12  0  0  0  0  0  0  0  0999 V2000
   -0.6257   -0.1551    1.3095 C   0  0  0  0  0  0  0  0  0  0  0  0
   -1.6448    1.3101    1.0048 S   0  0  0  0  0  0  0  0  0  0  0  0
   -1.2784   -0.8898    1.7781 H   0  0  0  0  0  0  0  0  0  0  0  0
    0.1942    0.0666    1.9895 H   0  0  0  0  0  0  0  0  0  0  0  0
   -0.6899    2.0639    0.4465 H   0  0  0  0  0  0  0  0  0  0  0  0
    1.4760   -1.4183   -2.4341 C   0  0  0  0  0  0  0  0  0  0  0  0
    1.4760   -1.4183   -1.1103 C   0  0  0  0  0  0  0  0  0  0  0  0
    1.4760   -0.1961   -0.2498 C   0  0  0  0  0  3  0  0  0  0  0  0
    1.4760   -2.3410   -3.0006 H   0  0  0  0  0  0  0  0  0  0  0  0
    1.4760   -0.4927   -3.0001 H   0  0  0  0  0  0  0  0  0  0  0  0
    1.4760   -2.3709   -0.5868 H   0  0  0  0  0  0  0  0  0  0  0  0
    0.4227   -0.1756    0.5316 H   0  0  0  0  0  0  0  0  0  0  0  0
    1.4760    0.7143   -0.8504 H   0  0  0  0  0  0  0  0  0  0  0  0
    2.3537   -0.1790    0.4014 H   0  0  0  0  0  0  0  0  0  0  0  0
  1  2  1  0
  1  3  1  0
  1  4  1  0
  1 12  1  0
  2  5  1  0
  6  7  2  3
  6  9  1  0
  6 10  1  0
  7  8  1  0
  7 11  1  0
  8 13  1  0
  8 14  1  0
M  RAD  1   8   2
M  END
>  <reaction>  (11) 
rxn_1017

>  <mol_properties>  (11) 
{"0": {"label": "*3", "atom_type": "Cs"}, "1": {"label": "*4", "atom_type": "S2s"}, "6": {"label": "*0", "atom_type": "Cd"}, "7": {"label": "*1", "atom_type": "Cs"}, "11": {"label": "*2", "atom_type": "H0"}}

>  <type>  (11) 
unop_7

>  <geom_source>  (11) 
Heuristics

$$$$

     RDKit          3D

 14 12  0  0  0  0  0  0  0  0999 V2000
   -1.0998    0.6960    0.6233 C   0  0  0  0  0  0  0  0  0  0  0  0
   -0.7670   -0.1277    2.2010 S   0  0  0  0  0  0  0  0  0  0  0  0
   -0.6528    1.6862    0.6949 H   0  0  0  0  0  0  0  0  0  0  0  0
   -2.1684    0.8076    0.4520 H   0  0  0  0  0  0  0  0  0  0  0  0
   -1.3760   -1.2852    1.9161 H   0  0  0  0  0  0  0  0  0  0  0  0
    1.0019   -0.5671   -3.1203 C   0  0  0  0  0  0  0  0  0  0  0  0
    1.0019   -0.5671   -1.7965 C   0  0  0  0  0  0  0  0  0  0  0  0
    1.0019    0.6550   -0.9360 C   0  0  0  0  0  3  0  0  0  0  0  0
    1.0019   -1.4899   -3.6867 H   0  0  0  0  0  0  0  0  0  0  0  0
    1.0019    0.3584   -3.6863 H   0  0  0  0  0  0  0  0  0  0  0  0
    1.0019   -1.5198   -1.2730 H   0  0  0  0  0  0  0  0  0  0  0  0
   -0.0514    0.6756   -0.1545 H   0  0  0  0  0  0  0  0  0  0  0  0
    1.0019    1.5655   -1.5366 H   0  0  0  0  0  0  0  0  0  0  0  0
    1.8796    0.6721   -0.2848 H   0  0  0  0  0  0  0  0  0  0  0  0
  1  2  1  0
  1  3  1  0
  1  4  1  0
  1 12  1  0
  2  5  1  0
  6  7  2  3
  6  9  1  0
  6 10  1  0
  7  8  1  0
  7 11  1  0
  8 13  1  0
  8 14  1  0
M  RAD  1   8   2
M  END
>  <reaction>  (12) 
rxn_1017

>  <mol_properties>  (12) 
{"0": {"label": "*3", "atom_type": "Cs"}, "1": {"label": "*4", "atom_type": "S2s"}, "6": {"label": "*0", "atom_type": "Cd"}, "7": {"label": "*1", "atom_type": "Cs"}, "11": {"label": "*2", "atom_type": "H0"}}

>  <type>  (12) 
unop_8

>  <geom_source>  (12) 
Heuristics

$$$$

     RDKit          3D

 14 12  0  0  0  0  0  0  0  0999 V2000
   -0.4696    0.6876    1.4899 C   0  0  0  0  0  0  0  0  0  0  0  0
   -1.8771   -0.1540    0.7224 S   0  0  0  0  0  0  0  0  0  0  0  0
   -0.4439    0.3570    2.5270 H   0  0  0  0  0  0  0  0  0  0  0  0
   -0.5956    1.7681    1.4716 H   0  0  0  0  0  0  0  0  0  0  0  0
   -1.7368    0.3696   -0.5015 H   0  0  0  0  0  0  0  0  0  0  0  0
    1.6321   -0.5756   -2.2537 C   0  0  0  0  0  0  0  0  0  0  0  0
    1.6321   -0.5756   -0.9299 C   0  0  0  0  0  0  0  0  0  0  0  0
    1.6321    0.6466   -0.0694 C   0  0  0  0  0  3  0  0  0  0  0  0
    1.6321   -1.4983   -2.8201 H   0  0  0  0  0  0  0  0  0  0  0  0
    1.6321    0.3500   -2.8197 H   0  0  0  0  0  0  0  0  0  0  0  0
    1.6321   -1.5282   -0.4064 H   0  0  0  0  0  0  0  0  0  0  0  0
    0.5788    0.6671    0.7121 H   0  0  0  0  0  0  0  0  0  0  0  0
    1.6321    1.5570   -0.6700 H   0  0  0  0  0  0  0  0  0  0  0  0
    2.5098    0.6637    0.5818 H   0  0  0  0  0  0  0  0  0  0  0  0
  1  2  1  0
  1  3  1  0
  1  4  1  0
  1 12  1  0
  2  5  1  0
  6  7  2  3
  6  9  1  0
  6 10  1  0
  7  8  1  0
  7 11  1  0
  8 13  1  0
  8 14  1  0
M  RAD  1   8   2
M  END
>  <reaction>  (13) 
rxn_1017

>  <mol_properties>  (13) 
{"0": {"label": "*3", "atom_type": "Cs"}, "1": {"label": "*4", "atom_type": "S2s"}, "6": {"label": "*0", "atom_type": "Cd"}, "7": {"label": "*1", "atom_type": "Cs"}, "11": {"label": "*2", "atom_type": "H0"}}

>  <type>  (13) 
unop_9

>  <geom_source>  (13) 
Heuristics

$$$$

     RDKit          3D

 14 12  0  0  0  0  0  0  0  0999 V2000
   -0.9624    0.9210    0.8041 C   0  0  0  0  0  0  0  0  0  0  0  0
   -1.0028   -0.5235    1.8950 S   0  0  0  0  0  0  0  0  0  0  0  0
   -0.3574    1.6707    1.3115 H   0  0  0  0  0  0  0  0  0  0  0  0
   -1.9595    1.3266    0.6461 H   0  0  0  0  0  0  0  0  0  0  0  0
   -1.7669   -1.2989    1.1160 H   0  0  0  0  0  0  0  0  0  0  0  0
    1.1393   -0.3421   -2.9394 C   0  0  0  0  0  0  0  0  0  0  0  0
    1.1393   -0.3421   -1.6157 C   0  0  0  0  0  0  0  0  0  0  0  0
    1.1393    0.8800   -0.7552 C   0  0  0  0  0  3  0  0  0  0  0  0
    1.1393   -1.2649   -3.5059 H   0  0  0  0  0  0  0  0  0  0  0  0
    1.1393    0.5835   -3.5054 H   0  0  0  0  0  0  0  0  0  0  0  0
    1.1393   -1.2948   -1.0922 H   0  0  0  0  0  0  0  0  0  0  0  0
    0.0860    0.9006    0.0263 H   0  0  0  0  0  0  0  0  0  0  0  0
    1.1393    1.7905   -1.3558 H   0  0  0  0  0  0  0  0  0  0  0  0
    2.0170    0.8972   -0.1040 H   0  0  0  0  0  0  0  0  0  0  0  0
  1  2  1  0
  1  3  1  0
  1  4  1  0
  1 12  1  0
  2  5  1  0
  6  7  2  3
  6  9  1  0
  6 10  1  0
  7  8  1  0
  7 11  1  0
  8 13  1  0
  8 14  1  0
M  RAD  1   8   2
M  END
>  <reaction>  (14) 
rxn_1017

>  <mol_properties>  (14) 
{"0": {"label": "*3", "atom_type": "Cs"}, "1": {"label": "*4", "atom_type": "S2s"}, "6": {"label": "*0", "atom_type": "Cd"}, "7": {"label": "*1", "atom_type": "Cs"}, "11": {"label": "*2", "atom_type": "H0"}}

>  <type>  (14) 
unop_10

>  <geom_source>  (14) 
Heuristics

$$$$

     RDKit          3D

 14 12  0  0  0  0  0  0  0  0999 V2000
   -0.8107   -0.2330    1.0583 C   0  0  0  0  0  0  0  0  0  0  0  0
   -1.3255    1.4632    1.4274 S   0  0  0  0  0  0  0  0  0  0  0  0
   -1.7206   -0.8305    1.0345 H   0  0  0  0  0  0  0  0  0  0  0  0
   -0.1558   -0.6261    1.8331 H   0  0  0  0  0  0  0  0  0  0  0  0
   -0.1056    2.0143    1.4123 H   0  0  0  0  0  0  0  0  0  0  0  0
    1.2909   -1.4962   -2.6853 C   0  0  0  0  0  0  0  0  0  0  0  0
    1.2909   -1.4962   -1.3616 C   0  0  0  0  0  0  0  0  0  0  0  0
    1.2909   -0.2740   -0.5010 C   0  0  0  0  0  3  0  0  0  0  0  0
    1.2909   -2.4189   -3.2518 H   0  0  0  0  0  0  0  0  0  0  0  0
    1.2909   -0.5706   -3.2513 H   0  0  0  0  0  0  0  0  0  0  0  0
    1.2909   -2.4488   -0.8380 H   0  0  0  0  0  0  0  0  0  0  0  0
    0.2377   -0.2534    0.2804 H   0  0  0  0  0  0  0  0  0  0  0  0
    1.2909    0.6365   -1.1016 H   0  0  0  0  0  0  0  0  0  0  0  0
    2.1687   -0.2569    0.1502 H   0  0  0  0  0  0  0  0  0  0  0  0
  1  2  1  0
  1  3  1  0
  1  4  1  0
  1 12  1  0
  2  5  1  0
  6  7  2  3
  6  9  1  0
  6 10  1  0
  7  8  1  0
  7 11  1  0
  8 13  1  0
  8 14  1  0
M  RAD  1   8   2
M  END
>  <reaction>  (15) 
rxn_1017

>  <mol_properties>  (15) 
{"0": {"label": "*3", "atom_type": "Cs"}, "1": {"label": "*4", "atom_type": "S2s"}, "6": {"label": "*0", "atom_type": "Cd"}, "7": {"label": "*1", "atom_type": "Cs"}, "11": {"label": "*2", "atom_type": "H0"}}

>  <type>  (15) 
unop_11

>  <geom_source>  (15) 
Heuristics

$$$$

     RDKit          3D

 14 12  0  0  0  0  0  0  0  0999 V2000
   -0.5974    0.9165    1.3052 C   0  0  0  0  0  0  0  0  0  0  0  0
   -1.6427   -0.5383    1.0421 S   0  0  0  0  0  0  0  0  0  0  0  0
   -0.2642    0.8706    2.3408 H   0  0  0  0  0  0  0  0  0  0  0  0
   -1.1568    1.8383    1.1598 H   0  0  0  0  0  0  0  0  0  0  0  0
   -1.9377   -0.3012   -0.2418 H   0  0  0  0  0  0  0  0  0  0  0  0
    1.5043   -0.3466   -2.4383 C   0  0  0  0  0  0  0  0  0  0  0  0
    1.5043   -0.3466   -1.1146 C   0  0  0  0  0  0  0  0  0  0  0  0
    1.5043    0.8756   -0.2541 C   0  0  0  0  0  3  0  0  0  0  0  0
    1.5043   -1.2694   -3.0048 H   0  0  0  0  0  0  0  0  0  0  0  0
    1.5043    0.5790   -3.0043 H   0  0  0  0  0  0  0  0  0  0  0  0
    1.5043   -1.2993   -0.5911 H   0  0  0  0  0  0  0  0  0  0  0  0
    0.4510    0.8961    0.5274 H   0  0  0  0  0  0  0  0  0  0  0  0
    1.5043    1.7860   -0.8547 H   0  0  0  0  0  0  0  0  0  0  0  0
    2.3820    0.8927    0.3971 H   0  0  0  0  0  0  0  0  0  0  0  0
  1  2  1  0
  1  3  1  0
  1  4  1  0
  1 12  1  0
  2  5  1  0
  6  7  2  3
  6  9  1  0
  6 10  1  0
  7  8  1  0
  7 11  1  0
  8 13  1  0
  8 14  1  0
M  RAD  1   8   2
M  END
>  <reaction>  (16) 
rxn_1017

>  <mol_properties>  (16) 
{"0": {"label": "*3", "atom_type": "Cs"}, "1": {"label": "*4", "atom_type": "S2s"}, "6": {"label": "*0", "atom_type": "Cd"}, "7": {"label": "*1", "atom_type": "Cs"}, "11": {"label": "*2", "atom_type": "H0"}}

>  <type>  (16) 
unop_12

>  <geom_source>  (16) 
Heuristics

$$$$

     RDKit          3D

 14 12  0  0  0  0  0  0  0  0999 V2000
   -3.1927    0.5114    0.0677 S   0  0  0  0  0  0  0  0  0  0  0  0
   -1.6475   -0.4382    0.0109 C   0  0  0  0  0  0  0  0  0  0  0  0
    1.3977   -0.4361   -0.1229 C   0  0  0  0  0  0  0  0  0  0  0  0
    0.5892    0.5014   -0.9610 C   0  0  0  0  0  0  0  0  0  0  0  0
    1.9797   -0.0180    1.0021 C   0  0  0  0  0  3  0  0  0  0  0  0
   -1.8216   -1.3934   -0.5258 H   0  0  0  0  0  0  0  0  0  0  0  0
   -1.3048   -0.6539    1.0440 H   0  0  0  0  0  0  0  0  0  0  0  0
   -0.7358    0.2495   -0.6151 H   0  0  0  0  0  0  0  0  0  0  0  0
    1.5018   -1.4732   -0.4277 H   0  0  0  0  0  0  0  0  0  0  0  0
    2.5587   -0.7109    1.6040 H   0  0  0  0  0  0  0  0  0  0  0  0
    1.8841    1.0128    1.3304 H   0  0  0  0  0  0  0  0  0  0  0  0
    0.1403   -0.0457   -1.8162 H   0  0  0  0  0  0  0  0  0  0  0  0
    1.2347    1.3177   -1.3485 H   0  0  0  0  0  0  0  0  0  0  0  0
   -2.5839    1.5765    0.7581 H   0  0  0  0  0  0  0  0  0  0  0  0
  1  2  1  0
  1 14  1  0
  2  6  1  0
  2  7  1  0
  2  8  1  0
  3  4  2  3
  3  5  1  0
  3  9  1  0
  4 12  1  0
  4 13  1  0
  5 10  1  0
  5 11  1  0
M  RAD  1   5   2
M  END
>  <reaction>  (17) 
rxn_1017

>  <mol_properties>  (17) 
{"0": {"label": "*3", "atom_type": "Cs"}, "1": {"label": "*4", "atom_type": "S2s"}, "6": {"label": "*0", "atom_type": "Cd"}, "7": {"label": "*1", "atom_type": "Cs"}, "11": {"label": "*2", "atom_type": "H0"}}

>  <type>  (17) 
unop_13

>  <geom_source>  (17) 
AutoTST

$$$$
