
     RDKit          3D

  7  6  0  0  0  0  0  0  0  0999 V2000
   -0.6782    0.0507    0.0301 C   0  0  0  0  0  0  0  0  0  0  0  0
    0.8092    0.0996    0.0213 C   0  0  0  0  0  0  0  0  0  0  0  0
    1.7473    0.7521    1.1507 S   0  0  0  0  0  0  0  0  0  0  0  0
   -1.0667    0.5456   -0.8653 H   0  0  0  0  0  0  0  0  0  0  0  0
   -1.0112   -0.9904   -0.0239 H   0  0  0  0  0  0  0  0  0  0  0  0
   -1.0920    0.5225    0.9188 H   0  0  0  0  0  0  0  0  0  0  0  0
    1.2740   -0.3620   -0.8520 H   0  0  0  0  0  0  0  0  0  0  0  0
  1  2  1  0
  1  4  1  0
  1  5  1  0
  1  6  1  0
  2  3  2  0
  2  7  1  0
M  END
>  <reaction>  (1) 
rxn_1989

>  <mol_properties>  (1) 
{"0": {"label": "donator", "atom_type": "Cs"}, "3": {"label": "d_hydrogen", "atom_type": "H0"}}

>  <type>  (1) 
r1h

$$$$

     RDKit          3D

  3  2  0  0  0  0  0  0  0  0999 V2000
   -0.2614    0.0642    0.2600 C   0  0  0  0  0  3  0  0  0  0  0  0
    1.1418    0.6115   -0.1062 S   0  0  0  0  0  0  0  0  0  0  0  0
   -0.8805   -0.7296   -0.1538 H   0  0  0  0  0  0  0  0  0  0  0  0
  1  2  2  0
  1  3  1  0
M  RAD  1   1   2
M  END
>  <reaction>  (2) 
rxn_1989

>  <mol_properties>  (2) 
{"0": {"label": "acceptor", "atom_type": "CS"}}

>  <type>  (2) 
r2

$$$$

     RDKit          3D

  4  3  0  0  0  0  0  0  0  0999 V2000
   -0.1097    0.0067    0.0027 C   0  0  0  0  0  0  0  0  0  0  0  0
    1.4849   -0.0901   -0.0362 S   0  0  0  0  0  0  0  0  0  0  0  0
   -0.6318    0.9620    0.0167 H   0  0  0  0  0  0  0  0  0  0  0  0
   -0.7434   -0.8786    0.0168 H   0  0  0  0  0  0  0  0  0  0  0  0
  1  2  2  0
  1  3  1  0
  1  4  1  0
M  END
>  <reaction>  (3) 
rxn_1989

>  <mol_properties>  (3) 
{"0": {"label": "acceptor", "atom_type": "CS"}, "3": {"label": "a_hydrogen", "atom_type": "H0"}}

>  <type>  (3) 
r2h

$$$$

     RDKit          3D

 10  8  0  0  0  0  0  0  0  0999 V2000
   -0.9015    0.8100    1.6588 C   0  0  0  0  0  3  0  0  0  0  0  0
   -1.8459   -0.3470    1.2010 S   0  0  0  0  0  0  0  0  0  0  0  0
   -1.1344    1.7246    2.2027 H   0  0  0  0  0  0  0  0  0  0  0  0
    1.4071    0.8754    0.2547 C   0  0  0  0  0  0  0  0  0  0  0  0
    1.2222   -0.2878   -0.5608 C   0  0  0  0  0  0  0  0  0  0  0  0
    0.3248   -0.3464   -1.9254 S   0  0  0  0  0  0  0  0  0  0  0  0
    0.3911    0.8249    1.0552 H   0  0  0  0  0  0  0  0  0  0  0  0
    2.2499    0.8569    0.9431 H   0  0  0  0  0  0  0  0  0  0  0  0
    1.2514    1.8293   -0.2426 H   0  0  0  0  0  0  0  0  0  0  0  0
    1.6615   -1.2110   -0.1833 H   0  0  0  0  0  0  0  0  0  0  0  0
  1  2  2  0
  1  3  1  0
  4  5  1  0
  4  7  1  0
  4  8  1  0
  4  9  1  0
  5  6  2  0
  5 10  1  0
M  RAD  1   1   2
M  END
>  <reaction>  (4) 
rxn_1989

>  <mol_properties>  (4) 
{"0": {"label": "*3", "atom_type": "CS"}, "1": {"label": "*4", "atom_type": "S2d"}, "3": {"label": "*1", "atom_type": "Cs"}, "4": {"label": "*0", "atom_type": "CS"}, "6": {"label": "*2", "atom_type": "H0"}}

>  <type>  (4) 
ts

$$$$

     RDKit          3D

 10  8  0  0  0  0  0  0  0  0999 V2000
   -1.2300    0.4794    1.2703 C   0  0  0  0  0  0  0  0  0  0  0  0
   -1.0999    0.4525    2.8628 S   0  0  0  0  0  0  0  0  0  0  0  0
   -1.9282    1.1388    0.7574 H   0  0  0  0  0  0  0  0  0  0  0  0
    0.8674    0.5438   -0.2982 C   0  0  0  0  0  0  0  0  0  0  0  0
    0.8674   -0.6547   -1.1804 C   0  0  0  0  0  0  0  0  0  0  0  0
    0.8674   -0.6547   -2.7871 S   0  0  0  0  0  1  0  0  0  0  0  0
   -0.1840    0.5115    0.4881 H   0  0  0  0  0  0  0  0  0  0  0  0
    1.7435    0.5169    0.3570 H   0  0  0  0  0  0  0  0  0  0  0  0
    0.8674    1.4676   -0.8729 H   0  0  0  0  0  0  0  0  0  0  0  0
    0.8674   -1.6091   -0.6505 H   0  0  0  0  0  0  0  0  0  0  0  0
  1  2  2  0
  1  3  1  0
  1  7  1  0
  4  5  2  3
  4  8  1  0
  4  9  1  0
  5  6  1  0
  5 10  1  0
M  RAD  1   6   2
M  END
>  <reaction>  (5) 
rxn_1989

>  <mol_properties>  (5) 
{"0": {"label": "*3", "atom_type": "CS"}, "1": {"label": "*4", "atom_type": "S2d"}, "3": {"label": "*1", "atom_type": "Cs"}, "4": {"label": "*0", "atom_type": "CS"}, "6": {"label": "*2", "atom_type": "H0"}}

>  <type>  (5) 
unop_1

>  <geom_source>  (5) 
Heuristics

$$$$

     RDKit          3D

 10  8  0  0  0  0  0  0  0  0999 V2000
   -0.9949    0.8868    1.5981 C   0  0  0  0  0  0  0  0  0  0  0  0
   -1.6524   -0.4868    2.0822 S   0  0  0  0  0  0  0  0  0  0  0  0
   -1.1922    1.8321    2.1009 H   0  0  0  0  0  0  0  0  0  0  0  0
    1.1024    0.9512    0.0296 C   0  0  0  0  0  0  0  0  0  0  0  0
    1.1024   -0.2473   -0.8526 C   0  0  0  0  0  0  0  0  0  0  0  0
    1.1024   -0.2473   -2.4593 S   0  0  0  0  0  1  0  0  0  0  0  0
    0.0510    0.9189    0.8158 H   0  0  0  0  0  0  0  0  0  0  0  0
    1.9786    0.9243    0.6848 H   0  0  0  0  0  0  0  0  0  0  0  0
    1.1024    1.8750   -0.5451 H   0  0  0  0  0  0  0  0  0  0  0  0
    1.1024   -1.2017   -0.3227 H   0  0  0  0  0  0  0  0  0  0  0  0
  1  2  2  0
  1  3  1  0
  1  7  1  0
  4  5  2  3
  4  8  1  0
  4  9  1  0
  5  6  1  0
  5 10  1  0
M  RAD  1   6   2
M  END
>  <reaction>  (6) 
rxn_1989

>  <mol_properties>  (6) 
{"0": {"label": "*3", "atom_type": "CS"}, "1": {"label": "*4", "atom_type": "S2d"}, "3": {"label": "*1", "atom_type": "Cs"}, "4": {"label": "*0", "atom_type": "CS"}, "6": {"label": "*2", "atom_type": "H0"}}

>  <type>  (6) 
unop_2

>  <geom_source>  (6) 
Heuristics

$$$$

     RDKit          3D

 10  8  0  0  0  0  0  0  0  0999 V2000
   -1.1917    0.2791    1.3121 C   0  0  0  0  0  0  0  0  0  0  0  0
   -1.1817    0.9293    2.7717 S   0  0  0  0  0  0  0  0  0  0  0  0
   -2.0647    0.3259    0.6632 H   0  0  0  0  0  0  0  0  0  0  0  0
    0.9056    0.3435   -0.2565 C   0  0  0  0  0  0  0  0  0  0  0  0
    0.9056   -0.8550   -1.1387 C   0  0  0  0  0  0  0  0  0  0  0  0
    0.9056   -0.8550   -2.7453 S   0  0  0  0  0  1  0  0  0  0  0  0
   -0.1457    0.3112    0.5298 H   0  0  0  0  0  0  0  0  0  0  0  0
    1.7818    0.3166    0.3987 H   0  0  0  0  0  0  0  0  0  0  0  0
    0.9056    1.2672   -0.8312 H   0  0  0  0  0  0  0  0  0  0  0  0
    0.9056   -1.8094   -0.6087 H   0  0  0  0  0  0  0  0  0  0  0  0
  1  2  2  0
  1  3  1  0
  1  7  1  0
  4  5  2  3
  4  8  1  0
  4  9  1  0
  5  6  1  0
  5 10  1  0
M  RAD  1   6   2
M  END
>  <reaction>  (7) 
rxn_1989

>  <mol_properties>  (7) 
{"0": {"label": "*3", "atom_type": "CS"}, "1": {"label": "*4", "atom_type": "S2d"}, "3": {"label": "*1", "atom_type": "Cs"}, "4": {"label": "*0", "atom_type": "CS"}, "6": {"label": "*2", "atom_type": "H0"}}

>  <type>  (7) 
unop_3

>  <geom_source>  (7) 
Heuristics

$$$$

     RDKit          3D

 10  8  0  0  0  0  0  0  0  0999 V2000
   -0.7454    0.4775    1.9163 C   0  0  0  0  0  0  0  0  0  0  0  0
   -2.2364    0.4626    1.3417 S   0  0  0  0  0  0  0  0  0  0  0  0
   -0.4936    0.9566    2.8610 H   0  0  0  0  0  0  0  0  0  0  0  0
    1.3519    0.5418    0.3478 C   0  0  0  0  0  0  0  0  0  0  0  0
    1.3519   -0.6566   -0.5344 C   0  0  0  0  0  0  0  0  0  0  0  0
    1.3519   -0.6566   -2.1411 S   0  0  0  0  0  1  0  0  0  0  0  0
    0.3006    0.5096    1.1340 H   0  0  0  0  0  0  0  0  0  0  0  0
    2.2281    0.5150    1.0030 H   0  0  0  0  0  0  0  0  0  0  0  0
    1.3519    1.4656   -0.2269 H   0  0  0  0  0  0  0  0  0  0  0  0
    1.3519   -1.6110   -0.0045 H   0  0  0  0  0  0  0  0  0  0  0  0
  1  2  2  0
  1  3  1  0
  1  7  1  0
  4  5  2  3
  4  8  1  0
  4  9  1  0
  5  6  1  0
  5 10  1  0
M  RAD  1   6   2
M  END
>  <reaction>  (8) 
rxn_1989

>  <mol_properties>  (8) 
{"0": {"label": "*3", "atom_type": "CS"}, "1": {"label": "*4", "atom_type": "S2d"}, "3": {"label": "*1", "atom_type": "Cs"}, "4": {"label": "*0", "atom_type": "CS"}, "6": {"label": "*2", "atom_type": "H0"}}

>  <type>  (8) 
unop_4

>  <geom_source>  (8) 
Heuristics

$$$$

     RDKit          3D

 10  8  0  0  0  0  0  0  0  0999 V2000
   -1.1009    0.1363    1.4251 C   0  0  0  0  0  0  0  0  0  0  0  0
   -1.3960    1.2839    2.4972 S   0  0  0  0  0  0  0  0  0  0  0  0
   -1.7586   -0.7223    1.2998 H   0  0  0  0  0  0  0  0  0  0  0  0
    0.9965    0.2007   -0.1435 C   0  0  0  0  0  0  0  0  0  0  0  0
    0.9965   -0.9978   -1.0257 C   0  0  0  0  0  0  0  0  0  0  0  0
    0.9965   -0.9978   -2.6323 S   0  0  0  0  0  1  0  0  0  0  0  0
   -0.0549    0.1684    0.6428 H   0  0  0  0  0  0  0  0  0  0  0  0
    1.8726    0.1738    0.5117 H   0  0  0  0  0  0  0  0  0  0  0  0
    0.9965    1.1245   -0.7182 H   0  0  0  0  0  0  0  0  0  0  0  0
    0.9965   -1.9522   -0.4957 H   0  0  0  0  0  0  0  0  0  0  0  0
  1  2  2  0
  1  3  1  0
  1  7  1  0
  4  5  2  3
  4  8  1  0
  4  9  1  0
  5  6  1  0
  5 10  1  0
M  RAD  1   6   2
M  END
>  <reaction>  (9) 
rxn_1989

>  <mol_properties>  (9) 
{"0": {"label": "*3", "atom_type": "CS"}, "1": {"label": "*4", "atom_type": "S2d"}, "3": {"label": "*1", "atom_type": "Cs"}, "4": {"label": "*0", "atom_type": "CS"}, "6": {"label": "*2", "atom_type": "H0"}}

>  <type>  (9) 
unop_5

>  <geom_source>  (9) 
Heuristics

$$$$

     RDKit          3D

 10  8  0  0  0  0  0  0  0  0999 V2000
   -0.7765    0.2754    1.8678 C   0  0  0  0  0  0  0  0  0  0  0  0
   -2.1704    0.9361    1.4507 S   0  0  0  0  0  0  0  0  0  0  0  0
   -0.3671    0.3723    2.8720 H   0  0  0  0  0  0  0  0  0  0  0  0
    1.3209    0.3398    0.2992 C   0  0  0  0  0  0  0  0  0  0  0  0
    1.3209   -0.8587   -0.5830 C   0  0  0  0  0  0  0  0  0  0  0  0
    1.3209   -0.8587   -2.1897 S   0  0  0  0  0  1  0  0  0  0  0  0
    0.2695    0.3075    1.0855 H   0  0  0  0  0  0  0  0  0  0  0  0
    2.1970    0.3129    0.9544 H   0  0  0  0  0  0  0  0  0  0  0  0
    1.3208    1.2636   -0.2755 H   0  0  0  0  0  0  0  0  0  0  0  0
    1.3209   -1.8131   -0.0531 H   0  0  0  0  0  0  0  0  0  0  0  0
  1  2  2  0
  1  3  1  0
  1  7  1  0
  4  5  2  3
  4  8  1  0
  4  9  1  0
  5  6  1  0
  5 10  1  0
M  RAD  1   6   2
M  END
>  <reaction>  (10) 
rxn_1989

>  <mol_properties>  (10) 
{"0": {"label": "*3", "atom_type": "CS"}, "1": {"label": "*4", "atom_type": "S2d"}, "3": {"label": "*1", "atom_type": "Cs"}, "4": {"label": "*0", "atom_type": "CS"}, "6": {"label": "*2", "atom_type": "H0"}}

>  <type>  (10) 
unop_6

>  <geom_source>  (10) 
Heuristics

$$$$

     RDKit          3D

 10  8  0  0  0  0  0  0  0  0999 V2000
   -0.8643    0.1300    1.7450 C   0  0  0  0  0  0  0  0  0  0  0  0
   -1.9699    1.2837    1.7336 S   0  0  0  0  0  0  0  0  0  0  0  0
   -0.4539   -0.2697    2.6708 H   0  0  0  0  0  0  0  0  0  0  0  0
    1.2331    0.1944    0.1764 C   0  0  0  0  0  0  0  0  0  0  0  0
    1.2331   -1.0040   -0.7058 C   0  0  0  0  0  0  0  0  0  0  0  0
    1.2331   -1.0040   -2.3124 S   0  0  0  0  0  1  0  0  0  0  0  0
    0.1817    0.1622    0.9627 H   0  0  0  0  0  0  0  0  0  0  0  0
    2.1092    0.1675    0.8316 H   0  0  0  0  0  0  0  0  0  0  0  0
    1.2330    1.1182   -0.3983 H   0  0  0  0  0  0  0  0  0  0  0  0
    1.2331   -1.9585   -0.1758 H   0  0  0  0  0  0  0  0  0  0  0  0
  1  2  2  0
  1  3  1  0
  1  7  1  0
  4  5  2  3
  4  8  1  0
  4  9  1  0
  5  6  1  0
  5 10  1  0
M  RAD  1   6   2
M  END
>  <reaction>  (11) 
rxn_1989

>  <mol_properties>  (11) 
{"0": {"label": "*3", "atom_type": "CS"}, "1": {"label": "*4", "atom_type": "S2d"}, "3": {"label": "*1", "atom_type": "Cs"}, "4": {"label": "*0", "atom_type": "CS"}, "6": {"label": "*2", "atom_type": "H0"}}

>  <type>  (11) 
unop_7

>  <geom_source>  (11) 
Heuristics

$$$$

     RDKit          3D

 10  8  0  0  0  0  0  0  0  0999 V2000
   -1.2024    0.6823    1.3150 C   0  0  0  0  0  0  0  0  0  0  0  0
   -1.1694   -0.0202    2.7499 S   0  0  0  0  0  0  0  0  0  0  0  0
   -1.6938    1.6398    1.1501 H   0  0  0  0  0  0  0  0  0  0  0  0
    0.8950    0.7467   -0.2536 C   0  0  0  0  0  0  0  0  0  0  0  0
    0.8950   -0.4518   -1.1358 C   0  0  0  0  0  0  0  0  0  0  0  0
    0.8950   -0.4518   -2.7424 S   0  0  0  0  0  1  0  0  0  0  0  0
   -0.1564    0.7144    0.5327 H   0  0  0  0  0  0  0  0  0  0  0  0
    1.7711    0.7198    0.4016 H   0  0  0  0  0  0  0  0  0  0  0  0
    0.8949    1.6705   -0.8283 H   0  0  0  0  0  0  0  0  0  0  0  0
    0.8950   -1.4062   -0.6058 H   0  0  0  0  0  0  0  0  0  0  0  0
  1  2  2  0
  1  3  1  0
  1  7  1  0
  4  5  2  3
  4  8  1  0
  4  9  1  0
  5  6  1  0
  5 10  1  0
M  RAD  1   6   2
M  END
>  <reaction>  (12) 
rxn_1989

>  <mol_properties>  (12) 
{"0": {"label": "*3", "atom_type": "CS"}, "1": {"label": "*4", "atom_type": "S2d"}, "3": {"label": "*1", "atom_type": "Cs"}, "4": {"label": "*0", "atom_type": "CS"}, "6": {"label": "*2", "atom_type": "H0"}}

>  <type>  (12) 
unop_8

>  <geom_source>  (12) 
Heuristics

$$$$

     RDKit          3D

 10  8  0  0  0  0  0  0  0  0999 V2000
   -0.7800    0.6815    1.8770 C   0  0  0  0  0  0  0  0  0  0  0  0
   -2.1510   -0.0105    1.4352 S   0  0  0  0  0  0  0  0  0  0  0  0
   -0.7283    1.3890    2.7030 H   0  0  0  0  0  0  0  0  0  0  0  0
    1.3173    0.7459    0.3085 C   0  0  0  0  0  0  0  0  0  0  0  0
    1.3173   -0.4526   -0.5737 C   0  0  0  0  0  0  0  0  0  0  0  0
    1.3173   -0.4526   -2.1804 S   0  0  0  0  0  1  0  0  0  0  0  0
    0.2659    0.7136    1.0947 H   0  0  0  0  0  0  0  0  0  0  0  0
    2.1934    0.7190    0.9637 H   0  0  0  0  0  0  0  0  0  0  0  0
    1.3173    1.6697   -0.2662 H   0  0  0  0  0  0  0  0  0  0  0  0
    1.3173   -1.4070   -0.0438 H   0  0  0  0  0  0  0  0  0  0  0  0
  1  2  2  0
  1  3  1  0
  1  7  1  0
  4  5  2  3
  4  8  1  0
  4  9  1  0
  5  6  1  0
  5 10  1  0
M  RAD  1   6   2
M  END
>  <reaction>  (13) 
rxn_1989

>  <mol_properties>  (13) 
{"0": {"label": "*3", "atom_type": "CS"}, "1": {"label": "*4", "atom_type": "S2d"}, "3": {"label": "*1", "atom_type": "Cs"}, "4": {"label": "*0", "atom_type": "CS"}, "6": {"label": "*2", "atom_type": "H0"}}

>  <type>  (13) 
unop_9

>  <geom_source>  (13) 
Heuristics

$$$$

     RDKit          3D

 10  8  0  0  0  0  0  0  0  0999 V2000
   -1.1163    0.8318    1.4349 C   0  0  0  0  0  0  0  0  0  0  0  0
   -1.3716   -0.3636    2.4642 S   0  0  0  0  0  0  0  0  0  0  0  0
   -1.4316    1.8528    1.6435 H   0  0  0  0  0  0  0  0  0  0  0  0
    0.9810    0.8962   -0.1336 C   0  0  0  0  0  0  0  0  0  0  0  0
    0.9810   -0.3023   -1.0158 C   0  0  0  0  0  0  0  0  0  0  0  0
    0.9810   -0.3023   -2.6225 S   0  0  0  0  0  1  0  0  0  0  0  0
   -0.0703    0.8639    0.6527 H   0  0  0  0  0  0  0  0  0  0  0  0
    1.8572    0.8693    0.5216 H   0  0  0  0  0  0  0  0  0  0  0  0
    0.9810    1.8200   -0.7083 H   0  0  0  0  0  0  0  0  0  0  0  0
    0.9811   -1.2567   -0.4859 H   0  0  0  0  0  0  0  0  0  0  0  0
  1  2  2  0
  1  3  1  0
  1  7  1  0
  4  5  2  3
  4  8  1  0
  4  9  1  0
  5  6  1  0
  5 10  1  0
M  RAD  1   6   2
M  END
>  <reaction>  (14) 
rxn_1989

>  <mol_properties>  (14) 
{"0": {"label": "*3", "atom_type": "CS"}, "1": {"label": "*4", "atom_type": "S2d"}, "3": {"label": "*1", "atom_type": "Cs"}, "4": {"label": "*0", "atom_type": "CS"}, "6": {"label": "*2", "atom_type": "H0"}}

>  <type>  (14) 
unop_10

>  <geom_source>  (14) 
Heuristics

$$$$

     RDKit          3D

 10  8  0  0  0  0  0  0  0  0999 V2000
   -0.9838    0.0805    1.5819 C   0  0  0  0  0  0  0  0  0  0  0  0
   -1.6873    1.4123    2.1156 S   0  0  0  0  0  0  0  0  0  0  0  0
   -0.8784   -0.8076    2.2030 H   0  0  0  0  0  0  0  0  0  0  0  0
    1.1135    0.1448    0.0133 C   0  0  0  0  0  0  0  0  0  0  0  0
    1.1135   -1.0536   -0.8689 C   0  0  0  0  0  0  0  0  0  0  0  0
    1.1135   -1.0536   -2.4755 S   0  0  0  0  0  1  0  0  0  0  0  0
    0.0621    0.1126    0.7996 H   0  0  0  0  0  0  0  0  0  0  0  0
    1.9897    0.1180    0.6685 H   0  0  0  0  0  0  0  0  0  0  0  0
    1.1135    1.0686   -0.5613 H   0  0  0  0  0  0  0  0  0  0  0  0
    1.1135   -2.0080   -0.3389 H   0  0  0  0  0  0  0  0  0  0  0  0
  1  2  2  0
  1  3  1  0
  1  7  1  0
  4  5  2  3
  4  8  1  0
  4  9  1  0
  5  6  1  0
  5 10  1  0
M  RAD  1   6   2
M  END
>  <reaction>  (15) 
rxn_1989

>  <mol_properties>  (15) 
{"0": {"label": "*3", "atom_type": "CS"}, "1": {"label": "*4", "atom_type": "S2d"}, "3": {"label": "*1", "atom_type": "Cs"}, "4": {"label": "*0", "atom_type": "CS"}, "6": {"label": "*2", "atom_type": "H0"}}

>  <type>  (15) 
unop_11

>  <geom_source>  (15) 
Heuristics

$$$$

     RDKit          3D

 10  8  0  0  0  0  0  0  0  0999 V2000
   -0.8715    0.8317    1.7603 C   0  0  0  0  0  0  0  0  0  0  0  0
   -1.9373   -0.3576    1.7060 S   0  0  0  0  0  0  0  0  0  0  0  0
   -0.9706    1.6671    2.4515 H   0  0  0  0  0  0  0  0  0  0  0  0
    1.2258    0.8961    0.1917 C   0  0  0  0  0  0  0  0  0  0  0  0
    1.2258   -0.3023   -0.6905 C   0  0  0  0  0  0  0  0  0  0  0  0
    1.2258   -0.3023   -2.2971 S   0  0  0  0  0  1  0  0  0  0  0  0
    0.1745    0.8639    0.9780 H   0  0  0  0  0  0  0  0  0  0  0  0
    2.1020    0.8692    0.8469 H   0  0  0  0  0  0  0  0  0  0  0  0
    1.2258    1.8199   -0.3829 H   0  0  0  0  0  0  0  0  0  0  0  0
    1.2258   -1.2568   -0.1605 H   0  0  0  0  0  0  0  0  0  0  0  0
  1  2  2  0
  1  3  1  0
  1  7  1  0
  4  5  2  3
  4  8  1  0
  4  9  1  0
  5  6  1  0
  5 10  1  0
M  RAD  1   6   2
M  END
>  <reaction>  (16) 
rxn_1989

>  <mol_properties>  (16) 
{"0": {"label": "*3", "atom_type": "CS"}, "1": {"label": "*4", "atom_type": "S2d"}, "3": {"label": "*1", "atom_type": "Cs"}, "4": {"label": "*0", "atom_type": "CS"}, "6": {"label": "*2", "atom_type": "H0"}}

>  <type>  (16) 
unop_12

>  <geom_source>  (16) 
Heuristics

$$$$

     RDKit          3D

 10  8  0  0  0  0  0  0  0  0999 V2000
   -1.3837    1.8399    0.4844 S   0  0  0  0  0  1  0  0  0  0  0  0
    2.6844    0.2149   -1.0062 S   0  0  0  0  0  0  0  0  0  0  0  0
   -0.7007   -0.5924    0.2416 C   0  0  0  0  0  0  0  0  0  0  0  0
   -1.4022    0.6215   -0.2722 C   0  0  0  0  0  0  0  0  0  0  0  0
    1.8238   -0.0165    0.1161 C   0  0  0  0  0  0  0  0  0  0  0  0
   -1.8735    0.6044   -1.2495 H   0  0  0  0  0  0  0  0  0  0  0  0
   -0.7209   -1.3940   -0.5260 H   0  0  0  0  0  0  0  0  0  0  0  0
   -1.1977   -0.9611    1.1643 H   0  0  0  0  0  0  0  0  0  0  0  0
    2.1404    0.2753    1.1114 H   0  0  0  0  0  0  0  0  0  0  0  0
    0.6303   -0.5920   -0.0640 H   0  0  0  0  0  0  0  0  0  0  0  0
  1  4  1  0
  2  5  2  0
  3  4  2  3
  3  7  1  0
  3  8  1  0
  4  6  1  0
  5  9  1  0
  5 10  1  0
M  RAD  1   1   2
M  END
>  <reaction>  (17) 
rxn_1989

>  <mol_properties>  (17) 
{"0": {"label": "*3", "atom_type": "CS"}, "1": {"label": "*4", "atom_type": "S2d"}, "3": {"label": "*1", "atom_type": "Cs"}, "4": {"label": "*0", "atom_type": "CS"}, "6": {"label": "*2", "atom_type": "H0"}}

>  <type>  (17) 
unop_13

>  <geom_source>  (17) 
AutoTST

$$$$
