
     RDKit          3D

  3  2  0  0  0  0  0  0  0  0999 V2000
   -0.0003    0.3867    0.0000 O   0  0  0  0  0  0  0  0  0  0  0  0
   -0.7617   -0.1940    0.0000 H   0  0  0  0  0  0  0  0  0  0  0  0
    0.7620   -0.1927    0.0000 H   0  0  0  0  0  0  0  0  0  0  0  0
  1  2  1  0
  1  3  1  0
M  END
>  <reaction>  (1) 
rxn_144

>  <mol_properties>  (1) 
{"0": {"label": "donator", "atom_type": "O2s"}, "1": {"label": "d_hydrogen", "atom_type": "H0"}}

>  <type>  (1) 
r1h

$$$$

     RDKit          3D

  1  0  0  0  0  0  0  0  0  0999 V2000
    0.0000    0.0000    0.0000 Cl  0  0  0  0  0 15  0  0  0  0  0  0
M  END
>  <reaction>  (2) 
rxn_144

>  <mol_properties>  (2) 
{"0": {"label": "acceptor", "atom_type": "Cl1s"}}

>  <type>  (2) 
r2

$$$$

     RDKit          3D

  2  1  0  0  0  0  0  0  0  0999 V2000
    0.0000    0.0000    0.6391 Cl  0  0  0  0  0  0  0  0  0  0  0  0
    0.0000    0.0000   -0.6391 H   0  0  0  0  0  0  0  0  0  0  0  0
  1  2  1  0
M  END
>  <reaction>  (3) 
rxn_144

>  <mol_properties>  (3) 
{"0": {"label": "acceptor", "atom_type": "Cl1s"}, "1": {"label": "a_hydrogen", "atom_type": "H0"}}

>  <type>  (3) 
r2h

$$$$

     RDKit          3D

  4  2  0  0  0  0  0  0  0  0999 V2000
    0.0815    0.7733    0.1144 Cl  0  0  0  0  0  0  0  0  0  0  0  0
    0.1311   -1.7754   -0.5079 O   0  0  0  0  0  1  0  0  0  0  0  0
   -0.1963   -0.5733    0.0788 H   0  0  0  0  0  0  0  0  0  0  0  0
   -0.0162   -1.6432   -1.4585 H   0  0  0  0  0  0  0  0  0  0  0  0
  1  3  1  0
  2  4  1  0
M  RAD  1   2   2
M  END
>  <reaction>  (4) 
rxn_144

>  <mol_properties>  (4) 
{"0": {"label": "*1", "atom_type": "Cl1s"}, "1": {"label": "*3", "atom_type": "O2s"}, "2": {"label": "*2", "atom_type": "H0"}, "3": {"label": "*4", "atom_type": "H0"}}

>  <type>  (4) 
ts

$$$$

     RDKit          3D

  4  2  0  0  0  0  0  0  0  0999 V2000
    0.0000    0.8582    0.2551 Cl  0  0  0  0  0 15  0  0  0  0  0  0
    0.0000   -1.7282   -0.4588 O   0  0  0  0  0  0  0  0  0  0  0  0
    0.0000   -0.6205   -0.1531 H   0  0  0  0  0  0  0  0  0  0  0  0
    0.0000   -1.7282   -1.4164 H   0  0  0  0  0  0  0  0  0  0  0  0
  2  3  1  0
  2  4  1  0
M  END
>  <reaction>  (5) 
rxn_144

>  <mol_properties>  (5) 
{"0": {"label": "*1", "atom_type": "Cl1s"}, "1": {"label": "*3", "atom_type": "O2s"}, "2": {"label": "*2", "atom_type": "H0"}, "3": {"label": "*4", "atom_type": "H0"}}

>  <type>  (5) 
unop_1

>  <geom_source>  (5) 
Heuristics

$$$$
