
     RDKit          3D

  9  8  0  0  0  0  0  0  0  0999 V2000
    1.1303   -0.2933   -0.7510 C   0  0  0  0  0  0  0  0  0  0  0  0
    0.2866    0.4560   -0.0588 C   0  0  0  0  0  0  0  0  0  0  0  0
   -0.9719   -0.0331    0.5823 C   0  0  0  0  0  0  0  0  0  0  0  0
    2.0274    0.1230   -1.1916 H   0  0  0  0  0  0  0  0  0  0  0  0
    0.9532   -1.3530   -0.9023 H   0  0  0  0  0  0  0  0  0  0  0  0
    0.5065    1.5132    0.0659 H   0  0  0  0  0  0  0  0  0  0  0  0
   -0.9526    0.1426    1.6610 H   0  0  0  0  0  0  0  0  0  0  0  0
   -1.1182   -1.1002    0.4106 H   0  0  0  0  0  0  0  0  0  0  0  0
   -1.8412    0.5010    0.1901 H   0  0  0  0  0  0  0  0  0  0  0  0
  1  2  2  3
  1  4  1  0
  1  5  1  0
  2  3  1  0
  2  6  1  0
  3  7  1  0
  3  8  1  0
  3  9  1  0
M  END
>  <reaction>  (1) 
rxn_1005

>  <mol_properties>  (1) 
{"2": {"label": "donator", "atom_type": "Cs"}, "6": {"label": "d_hydrogen", "atom_type": "H0"}}

>  <type>  (1) 
r1h

$$$$

     RDKit          3D

  9  8  0  0  0  0  0  0  0  0999 V2000
    2.3038   -0.0269    0.1590 C   0  0  0  0  0  0  0  0  0  0  0  0
    1.1426    0.1377   -0.1648 C   0  0  0  0  0  0  0  0  0  0  0  0
   -0.1694    0.3175   -0.5203 C   0  0  0  0  0  3  0  0  0  0  0  0
   -1.3163   -0.1910    0.2856 C   0  0  0  0  0  0  0  0  0  0  0  0
    3.3199   -0.1683    0.4378 H   0  0  0  0  0  0  0  0  0  0  0  0
   -0.3786    0.8584   -1.4360 H   0  0  0  0  0  0  0  0  0  0  0  0
   -1.9694    0.6309    0.5951 H   0  0  0  0  0  0  0  0  0  0  0  0
   -1.9325   -0.8770   -0.3039 H   0  0  0  0  0  0  0  0  0  0  0  0
   -0.9753   -0.7144    1.1774 H   0  0  0  0  0  0  0  0  0  0  0  0
  1  2  3  0
  1  5  1  0
  2  3  1  0
  3  4  1  0
  3  6  1  0
  4  7  1  0
  4  8  1  0
  4  9  1  0
M  RAD  1   3   2
M  END
>  <reaction>  (2) 
rxn_1005

>  <mol_properties>  (2) 
{"2": {"label": "acceptor", "atom_type": "Cs"}}

>  <type>  (2) 
r2

$$$$

     RDKit          3D

 10  9  0  0  0  0  0  0  0  0999 V2000
    2.2738    0.0217   -0.0992 C   0  0  0  0  0  0  0  0  0  0  0  0
    1.1083    0.2960   -0.0695 C   0  0  0  0  0  0  0  0  0  0  0  0
   -0.3173    0.6046   -0.0227 C   0  0  0  0  0  0  0  0  0  0  0  0
   -1.1561   -0.5495    0.5292 C   0  0  0  0  0  0  0  0  0  0  0  0
    3.3097   -0.2166   -0.1277 H   0  0  0  0  0  0  0  0  0  0  0  0
   -0.6542    0.8617   -1.0302 H   0  0  0  0  0  0  0  0  0  0  0  0
   -0.4633    1.4978    0.5900 H   0  0  0  0  0  0  0  0  0  0  0  0
   -0.8485   -0.7997    1.5447 H   0  0  0  0  0  0  0  0  0  0  0  0
   -2.2115   -0.2752    0.5459 H   0  0  0  0  0  0  0  0  0  0  0  0
   -1.0409   -1.4407   -0.0879 H   0  0  0  0  0  0  0  0  0  0  0  0
  1  2  3  0
  1  5  1  0
  2  3  1  0
  3  4  1  0
  3  6  1  0
  3  7  1  0
  4  8  1  0
  4  9  1  0
  4 10  1  0
M  END
>  <reaction>  (3) 
rxn_1005

>  <mol_properties>  (3) 
{"2": {"label": "acceptor", "atom_type": "Cs"}, "9": {"label": "a_hydrogen", "atom_type": "H0"}}

>  <type>  (3) 
r2h

$$$$

     RDKit          3D

 18 16  0  0  0  0  0  0  0  0999 V2000
   -2.5323   -0.8022    0.1962 C   0  0  0  0  0  0  0  0  0  0  0  0
   -1.7332    0.0230    0.5550 C   0  0  0  0  0  0  0  0  0  0  0  0
   -0.7446    0.9790    0.9194 C   0  0  0  0  0  3  0  0  0  0  0  0
    0.2835    0.5543    1.9412 C   0  0  0  0  0  0  0  0  0  0  0  0
   -3.2503   -1.5273   -0.1020 H   0  0  0  0  0  0  0  0  0  0  0  0
   -1.1447    1.9813    1.0638 H   0  0  0  0  0  0  0  0  0  0  0  0
    1.0489    1.3238    2.0529 H   0  0  0  0  0  0  0  0  0  0  0  0
   -0.1752    0.3846    2.9183 H   0  0  0  0  0  0  0  0  0  0  0  0
    0.7684   -0.3723    1.6304 H   0  0  0  0  0  0  0  0  0  0  0  0
    1.5215   -1.1770   -1.5227 C   0  0  0  0  0  0  0  0  0  0  0  0
    1.7281    0.0941   -1.1606 C   0  0  0  0  0  0  0  0  0  0  0  0
    0.7551    1.1604   -1.3078 C   0  0  0  0  0  0  0  0  0  0  0  0
    2.2678   -1.9417   -1.3517 H   0  0  0  0  0  0  0  0  0  0  0  0
    0.5986   -1.4811   -2.0037 H   0  0  0  0  0  0  0  0  0  0  0  0
    2.6636    0.3485   -0.6703 H   0  0  0  0  0  0  0  0  0  0  0  0
    0.0017    1.1414   -0.2061 H   0  0  0  0  0  0  0  0  0  0  0  0
   -0.0218    0.9925   -2.0506 H   0  0  0  0  0  0  0  0  0  0  0  0
    1.1465    2.1741   -1.3160 H   0  0  0  0  0  0  0  0  0  0  0  0
  1  2  3  0
  1  5  1  0
  2  3  1  0
  3  4  1  0
  3  6  1  0
  4  7  1  0
  4  8  1  0
  4  9  1  0
 10 11  2  3
 10 13  1  0
 10 14  1  0
 11 12  1  0
 11 15  1  0
 12 16  1  0
 12 17  1  0
 12 18  1  0
M  RAD  1   3   2
M  END
>  <reaction>  (4) 
rxn_1005

>  <mol_properties>  (4) 
{"1": {"label": "*4", "atom_type": "Ct"}, "2": {"label": "*3", "atom_type": "Cs"}, "10": {"label": "*0", "atom_type": "Cd"}, "11": {"label": "*1", "atom_type": "Cs"}, "15": {"label": "*2", "atom_type": "H0"}}

>  <type>  (4) 
ts

$$$$

     RDKit          3D

 18 16  0  0  0  0  0  0  0  0999 V2000
   -0.2709    0.1814    3.2299 C   0  0  0  0  0  0  0  0  0  0  0  0
   -0.6405    0.1455    2.0912 C   0  0  0  0  0  0  0  0  0  0  0  0
   -1.0876    0.1297    0.7021 C   0  0  0  0  0  0  0  0  0  0  0  0
   -1.1057    1.5223    0.0691 C   0  0  0  0  0  0  0  0  0  0  0  0
    0.0571    0.2132    4.2409 H   0  0  0  0  0  0  0  0  0  0  0  0
   -2.0864   -0.3120    0.6597 H   0  0  0  0  0  0  0  0  0  0  0  0
   -1.4451    1.4625   -0.9656 H   0  0  0  0  0  0  0  0  0  0  0  0
   -1.7767    2.1860    0.6146 H   0  0  0  0  0  0  0  0  0  0  0  0
   -0.1096    1.9650    0.0805 H   0  0  0  0  0  0  0  0  0  0  0  0
    1.0188   -1.1336   -3.0450 C   0  0  0  0  0  0  0  0  0  0  0  0
    1.0188   -1.1336   -1.7213 C   0  0  0  0  0  0  0  0  0  0  0  0
    1.0188    0.0886   -0.8607 C   0  0  0  0  0  3  0  0  0  0  0  0
    1.0188   -2.0563   -3.6115 H   0  0  0  0  0  0  0  0  0  0  0  0
    1.0188   -0.2080   -3.6110 H   0  0  0  0  0  0  0  0  0  0  0  0
    1.0188   -2.0862   -1.1977 H   0  0  0  0  0  0  0  0  0  0  0  0
   -0.0345    0.1092   -0.0793 H   0  0  0  0  0  0  0  0  0  0  0  0
    1.0188    0.9991   -1.4613 H   0  0  0  0  0  0  0  0  0  0  0  0
    1.8965    0.1057   -0.2095 H   0  0  0  0  0  0  0  0  0  0  0  0
  1  2  3  0
  1  5  1  0
  2  3  1  0
  3  4  1  0
  3  6  1  0
  3 16  1  0
  4  7  1  0
  4  8  1  0
  4  9  1  0
 10 11  2  3
 10 13  1  0
 10 14  1  0
 11 12  1  0
 11 15  1  0
 12 17  1  0
 12 18  1  0
M  RAD  1  12   2
M  END
>  <reaction>  (5) 
rxn_1005

>  <mol_properties>  (5) 
{"1": {"label": "*4", "atom_type": "Ct"}, "2": {"label": "*3", "atom_type": "Cs"}, "10": {"label": "*0", "atom_type": "Cd"}, "11": {"label": "*1", "atom_type": "Cs"}, "15": {"label": "*2", "atom_type": "H0"}}

>  <type>  (5) 
unop_1

>  <geom_source>  (5) 
Heuristics

$$$$

     RDKit          3D

 18 16  0  0  0  0  0  0  0  0999 V2000
   -1.5899   -1.7279    1.3853 C   0  0  0  0  0  0  0  0  0  0  0  0
   -1.2799   -0.6021    1.1188 C   0  0  0  0  0  0  0  0  0  0  0  0
   -0.8911    0.7725    0.8198 C   0  0  0  0  0  0  0  0  0  0  0  0
   -0.1767    1.4541    1.9882 C   0  0  0  0  0  0  0  0  0  0  0  0
   -1.8650   -2.7273    1.6219 H   0  0  0  0  0  0  0  0  0  0  0  0
   -1.7853    1.3391    0.5479 H   0  0  0  0  0  0  0  0  0  0  0  0
    0.0945    2.4761    1.7207 H   0  0  0  0  0  0  0  0  0  0  0  0
   -0.8193    1.4867    2.8681 H   0  0  0  0  0  0  0  0  0  0  0  0
    0.7323    0.9141    2.2534 H   0  0  0  0  0  0  0  0  0  0  0  0
    1.2153   -0.4908   -2.9273 C   0  0  0  0  0  0  0  0  0  0  0  0
    1.2153   -0.4908   -1.6036 C   0  0  0  0  0  0  0  0  0  0  0  0
    1.2153    0.7314   -0.7431 C   0  0  0  0  0  3  0  0  0  0  0  0
    1.2153   -1.4135   -3.4938 H   0  0  0  0  0  0  0  0  0  0  0  0
    1.2153    0.4348   -3.4933 H   0  0  0  0  0  0  0  0  0  0  0  0
    1.2153   -1.4434   -1.0801 H   0  0  0  0  0  0  0  0  0  0  0  0
    0.1620    0.7519    0.0384 H   0  0  0  0  0  0  0  0  0  0  0  0
    1.2153    1.6418   -1.3437 H   0  0  0  0  0  0  0  0  0  0  0  0
    2.0930    0.7485   -0.0918 H   0  0  0  0  0  0  0  0  0  0  0  0
  1  2  3  0
  1  5  1  0
  2  3  1  0
  3  4  1  0
  3  6  1  0
  3 16  1  0
  4  7  1  0
  4  8  1  0
  4  9  1  0
 10 11  2  3
 10 13  1  0
 10 14  1  0
 11 12  1  0
 11 15  1  0
 12 17  1  0
 12 18  1  0
M  RAD  1  12   2
M  END
>  <reaction>  (6) 
rxn_1005

>  <mol_properties>  (6) 
{"1": {"label": "*4", "atom_type": "Ct"}, "2": {"label": "*3", "atom_type": "Cs"}, "10": {"label": "*0", "atom_type": "Cd"}, "11": {"label": "*1", "atom_type": "Cs"}, "15": {"label": "*2", "atom_type": "H0"}}

>  <type>  (6) 
unop_2

>  <geom_source>  (6) 
Heuristics

$$$$

     RDKit          3D

 18 16  0  0  0  0  0  0  0  0999 V2000
   -0.3277    1.2546    3.0601 C   0  0  0  0  0  0  0  0  0  0  0  0
   -0.6006    0.6561    2.0592 C   0  0  0  0  0  0  0  0  0  0  0  0
   -0.9436   -0.0495    0.8286 C   0  0  0  0  0  0  0  0  0  0  0  0
   -1.6004    0.8589   -0.2124 C   0  0  0  0  0  0  0  0  0  0  0  0
   -0.0854    1.7860    3.9487 H   0  0  0  0  0  0  0  0  0  0  0  0
   -1.6115   -0.8790    1.0739 H   0  0  0  0  0  0  0  0  0  0  0  0
   -1.8387    0.2911   -1.1126 H   0  0  0  0  0  0  0  0  0  0  0  0
   -2.5225    1.2901    0.1777 H   0  0  0  0  0  0  0  0  0  0  0  0
   -0.9343    1.6771   -0.4867 H   0  0  0  0  0  0  0  0  0  0  0  0
    1.1628   -1.3128   -2.9185 C   0  0  0  0  0  0  0  0  0  0  0  0
    1.1628   -1.3128   -1.5948 C   0  0  0  0  0  0  0  0  0  0  0  0
    1.1628   -0.0906   -0.7342 C   0  0  0  0  0  3  0  0  0  0  0  0
    1.1628   -2.2355   -3.4850 H   0  0  0  0  0  0  0  0  0  0  0  0
    1.1628   -0.3872   -3.4845 H   0  0  0  0  0  0  0  0  0  0  0  0
    1.1628   -2.2654   -1.0712 H   0  0  0  0  0  0  0  0  0  0  0  0
    0.1095   -0.0700    0.0472 H   0  0  0  0  0  0  0  0  0  0  0  0
    1.1628    0.8199   -1.3348 H   0  0  0  0  0  0  0  0  0  0  0  0
    2.0405   -0.0735   -0.0830 H   0  0  0  0  0  0  0  0  0  0  0  0
  1  2  3  0
  1  5  1  0
  2  3  1  0
  3  4  1  0
  3  6  1  0
  3 16  1  0
  4  7  1  0
  4  8  1  0
  4  9  1  0
 10 11  2  3
 10 13  1  0
 10 14  1  0
 11 12  1  0
 11 15  1  0
 12 17  1  0
 12 18  1  0
M  RAD  1  12   2
M  END
>  <reaction>  (7) 
rxn_1005

>  <mol_properties>  (7) 
{"1": {"label": "*4", "atom_type": "Ct"}, "2": {"label": "*3", "atom_type": "Cs"}, "10": {"label": "*0", "atom_type": "Cd"}, "11": {"label": "*1", "atom_type": "Cs"}, "15": {"label": "*2", "atom_type": "H0"}}

>  <type>  (7) 
unop_3

>  <geom_source>  (7) 
Heuristics

$$$$

     RDKit          3D

 18 16  0  0  0  0  0  0  0  0999 V2000
   -2.6292    0.4440   -0.2821 C   0  0  0  0  0  0  0  0  0  0  0  0
   -1.6326    0.4547    0.3821 C   0  0  0  0  0  0  0  0  0  0  0  0
   -0.4325    0.4558    1.2126 C   0  0  0  0  0  0  0  0  0  0  0  0
   -0.6711   -0.1423    2.6003 C   0  0  0  0  0  0  0  0  0  0  0  0
   -3.5140    0.4344   -0.8717 H   0  0  0  0  0  0  0  0  0  0  0  0
   -0.0714    1.4830    1.3066 H   0  0  0  0  0  0  0  0  0  0  0  0
    0.2497   -0.1210    3.1843 H   0  0  0  0  0  0  0  0  0  0  0  0
   -1.4339    0.4210    3.1380 H   0  0  0  0  0  0  0  0  0  0  0  0
   -1.0067   -1.1766    2.5228 H   0  0  0  0  0  0  0  0  0  0  0  0
    1.6739   -0.8075   -2.5345 C   0  0  0  0  0  0  0  0  0  0  0  0
    1.6739   -0.8075   -1.2107 C   0  0  0  0  0  0  0  0  0  0  0  0
    1.6739    0.4147   -0.3502 C   0  0  0  0  0  3  0  0  0  0  0  0
    1.6739   -1.7302   -3.1010 H   0  0  0  0  0  0  0  0  0  0  0  0
    1.6739    0.1181   -3.1005 H   0  0  0  0  0  0  0  0  0  0  0  0
    1.6739   -1.7601   -0.6872 H   0  0  0  0  0  0  0  0  0  0  0  0
    0.6206    0.4352    0.4313 H   0  0  0  0  0  0  0  0  0  0  0  0
    1.6739    1.3251   -0.9508 H   0  0  0  0  0  0  0  0  0  0  0  0
    2.5516    0.4318    0.3010 H   0  0  0  0  0  0  0  0  0  0  0  0
  1  2  3  0
  1  5  1  0
  2  3  1  0
  3  4  1  0
  3  6  1  0
  3 16  1  0
  4  7  1  0
  4  8  1  0
  4  9  1  0
 10 11  2  3
 10 13  1  0
 10 14  1  0
 11 12  1  0
 11 15  1  0
 12 17  1  0
 12 18  1  0
M  RAD  1  12   2
M  END
>  <reaction>  (8) 
rxn_1005

>  <mol_properties>  (8) 
{"1": {"label": "*4", "atom_type": "Ct"}, "2": {"label": "*3", "atom_type": "Cs"}, "10": {"label": "*0", "atom_type": "Cd"}, "11": {"label": "*1", "atom_type": "Cs"}, "15": {"label": "*2", "atom_type": "H0"}}

>  <type>  (8) 
unop_4

>  <geom_source>  (8) 
Heuristics

$$$$

     RDKit          3D

 18 16  0  0  0  0  0  0  0  0999 V2000
   -0.6704    2.1338    2.4285 C   0  0  0  0  0  0  0  0  0  0  0  0
   -0.6875    1.1359    1.7663 C   0  0  0  0  0  0  0  0  0  0  0  0
   -0.7335   -0.0724    0.9491 C   0  0  0  0  0  0  0  0  0  0  0  0
   -2.0083   -0.1720    0.1093 C   0  0  0  0  0  0  0  0  0  0  0  0
   -0.6551    3.0196    3.0164 H   0  0  0  0  0  0  0  0  0  0  0  0
   -0.6500   -0.9429    1.6045 H   0  0  0  0  0  0  0  0  0  0  0  0
   -1.9995   -1.0875   -0.4834 H   0  0  0  0  0  0  0  0  0  0  0  0
   -2.8918   -0.1827    0.7477 H   0  0  0  0  0  0  0  0  0  0  0  0
   -2.0917    0.6773   -0.5689 H   0  0  0  0  0  0  0  0  0  0  0  0
    1.3729   -1.3356   -2.7980 C   0  0  0  0  0  0  0  0  0  0  0  0
    1.3729   -1.3356   -1.4742 C   0  0  0  0  0  0  0  0  0  0  0  0
    1.3729   -0.1134   -0.6137 C   0  0  0  0  0  3  0  0  0  0  0  0
    1.3729   -2.2583   -3.3645 H   0  0  0  0  0  0  0  0  0  0  0  0
    1.3729   -0.4100   -3.3640 H   0  0  0  0  0  0  0  0  0  0  0  0
    1.3729   -2.2882   -0.9507 H   0  0  0  0  0  0  0  0  0  0  0  0
    0.3196   -0.0929    0.1677 H   0  0  0  0  0  0  0  0  0  0  0  0
    1.3729    0.7970   -1.2143 H   0  0  0  0  0  0  0  0  0  0  0  0
    2.2506   -0.0963    0.0375 H   0  0  0  0  0  0  0  0  0  0  0  0
  1  2  3  0
  1  5  1  0
  2  3  1  0
  3  4  1  0
  3  6  1  0
  3 16  1  0
  4  7  1  0
  4  8  1  0
  4  9  1  0
 10 11  2  3
 10 13  1  0
 10 14  1  0
 11 12  1  0
 11 15  1  0
 12 17  1  0
 12 18  1  0
M  RAD  1  12   2
M  END
>  <reaction>  (9) 
rxn_1005

>  <mol_properties>  (9) 
{"1": {"label": "*4", "atom_type": "Ct"}, "2": {"label": "*3", "atom_type": "Cs"}, "10": {"label": "*0", "atom_type": "Cd"}, "11": {"label": "*1", "atom_type": "Cs"}, "15": {"label": "*2", "atom_type": "H0"}}

>  <type>  (9) 
unop_5

>  <geom_source>  (9) 
Heuristics

$$$$

     RDKit          3D

 18 16  0  0  0  0  0  0  0  0999 V2000
   -2.4258    1.4872   -0.0495 C   0  0  0  0  0  0  0  0  0  0  0  0
   -1.5214    0.9299    0.5036 C   0  0  0  0  0  0  0  0  0  0  0  0
   -0.4378    0.2389    1.1953 C   0  0  0  0  0  0  0  0  0  0  0  0
   -0.9325   -0.6316    2.3519 C   0  0  0  0  0  0  0  0  0  0  0  0
   -3.2287    1.9819   -0.5405 H   0  0  0  0  0  0  0  0  0  0  0  0
    0.2727    0.9822    1.5656 H   0  0  0  0  0  0  0  0  0  0  0  0
   -0.0915   -1.1272    2.8382 H   0  0  0  0  0  0  0  0  0  0  0  0
   -1.4536   -0.0275    3.0948 H   0  0  0  0  0  0  0  0  0  0  0  0
   -1.6226   -1.3953    1.9931 H   0  0  0  0  0  0  0  0  0  0  0  0
    1.6686   -1.0243   -2.5518 C   0  0  0  0  0  0  0  0  0  0  0  0
    1.6686   -1.0243   -1.2281 C   0  0  0  0  0  0  0  0  0  0  0  0
    1.6686    0.1978   -0.3676 C   0  0  0  0  0  3  0  0  0  0  0  0
    1.6686   -1.9471   -3.1183 H   0  0  0  0  0  0  0  0  0  0  0  0
    1.6686   -0.0987   -3.1178 H   0  0  0  0  0  0  0  0  0  0  0  0
    1.6686   -1.9770   -0.7045 H   0  0  0  0  0  0  0  0  0  0  0  0
    0.6153    0.2184    0.4139 H   0  0  0  0  0  0  0  0  0  0  0  0
    1.6686    1.1083   -0.9681 H   0  0  0  0  0  0  0  0  0  0  0  0
    2.5463    0.2150    0.2837 H   0  0  0  0  0  0  0  0  0  0  0  0
  1  2  3  0
  1  5  1  0
  2  3  1  0
  3  4  1  0
  3  6  1  0
  3 16  1  0
  4  7  1  0
  4  8  1  0
  4  9  1  0
 10 11  2  3
 10 13  1  0
 10 14  1  0
 11 12  1  0
 11 15  1  0
 12 17  1  0
 12 18  1  0
M  RAD  1  12   2
M  END
>  <reaction>  (10) 
rxn_1005

>  <mol_properties>  (10) 
{"1": {"label": "*4", "atom_type": "Ct"}, "2": {"label": "*3", "atom_type": "Cs"}, "10": {"label": "*0", "atom_type": "Cd"}, "11": {"label": "*1", "atom_type": "Cs"}, "15": {"label": "*2", "atom_type": "H0"}}

>  <type>  (10) 
unop_6

>  <geom_source>  (10) 
Heuristics

$$$$

     RDKit          3D

 18 16  0  0  0  0  0  0  0  0999 V2000
   -1.9375    2.2568    0.5887 C   0  0  0  0  0  0  0  0  0  0  0  0
   -1.2809    1.2819    0.8187 C   0  0  0  0  0  0  0  0  0  0  0  0
   -0.5033    0.0820    1.1113 C   0  0  0  0  0  0  0  0  0  0  0  0
   -1.3165   -0.9880    1.8420 C   0  0  0  0  0  0  0  0  0  0  0  0
   -2.5204    3.1224    0.3845 H   0  0  0  0  0  0  0  0  0  0  0  0
    0.3655    0.3643    1.7113 H   0  0  0  0  0  0  0  0  0  0  0  0
   -0.6973   -1.8638    2.0395 H   0  0  0  0  0  0  0  0  0  0  0  0
   -1.6896   -0.6076    2.7931 H   0  0  0  0  0  0  0  0  0  0  0  0
   -2.1728   -1.2988    1.2432 H   0  0  0  0  0  0  0  0  0  0  0  0
    1.6030   -1.1812   -2.6357 C   0  0  0  0  0  0  0  0  0  0  0  0
    1.6030   -1.1812   -1.3120 C   0  0  0  0  0  0  0  0  0  0  0  0
    1.6030    0.0410   -0.4515 C   0  0  0  0  0  3  0  0  0  0  0  0
    1.6030   -2.1040   -3.2022 H   0  0  0  0  0  0  0  0  0  0  0  0
    1.6030   -0.2556   -3.2017 H   0  0  0  0  0  0  0  0  0  0  0  0
    1.6030   -2.1339   -0.7885 H   0  0  0  0  0  0  0  0  0  0  0  0
    0.5498    0.0615    0.3300 H   0  0  0  0  0  0  0  0  0  0  0  0
    1.6030    0.9514   -1.0521 H   0  0  0  0  0  0  0  0  0  0  0  0
    2.4807    0.0581    0.1997 H   0  0  0  0  0  0  0  0  0  0  0  0
  1  2  3  0
  1  5  1  0
  2  3  1  0
  3  4  1  0
  3  6  1  0
  3 16  1  0
  4  7  1  0
  4  8  1  0
  4  9  1  0
 10 11  2  3
 10 13  1  0
 10 14  1  0
 11 12  1  0
 11 15  1  0
 12 17  1  0
 12 18  1  0
M  RAD  1  12   2
M  END
>  <reaction>  (11) 
rxn_1005

>  <mol_properties>  (11) 
{"1": {"label": "*4", "atom_type": "Ct"}, "2": {"label": "*3", "atom_type": "Cs"}, "10": {"label": "*0", "atom_type": "Cd"}, "11": {"label": "*1", "atom_type": "Cs"}, "15": {"label": "*2", "atom_type": "H0"}}

>  <type>  (11) 
unop_7

>  <geom_source>  (11) 
Heuristics

$$$$

     RDKit          3D

 18 16  0  0  0  0  0  0  0  0999 V2000
   -0.5085   -0.8323    2.9373 C   0  0  0  0  0  0  0  0  0  0  0  0
   -0.7892   -0.2969    1.9033 C   0  0  0  0  0  0  0  0  0  0  0  0
   -1.1198    0.3794    0.6530 C   0  0  0  0  0  0  0  0  0  0  0  0
   -0.6758    1.8432    0.6353 C   0  0  0  0  0  0  0  0  0  0  0  0
   -0.2592   -1.3076    3.8552 H   0  0  0  0  0  0  0  0  0  0  0  0
   -2.1992    0.3154    0.4940 H   0  0  0  0  0  0  0  0  0  0  0  0
   -0.9424    2.3073   -0.3150 H   0  0  0  0  0  0  0  0  0  0  0  0
   -1.1553    2.4023    1.4389 H   0  0  0  0  0  0  0  0  0  0  0  0
    0.4036    1.9213    0.7666 H   0  0  0  0  0  0  0  0  0  0  0  0
    0.9866   -0.8839   -3.0940 C   0  0  0  0  0  0  0  0  0  0  0  0
    0.9866   -0.8839   -1.7703 C   0  0  0  0  0  0  0  0  0  0  0  0
    0.9866    0.3383   -0.9098 C   0  0  0  0  0  3  0  0  0  0  0  0
    0.9866   -1.8066   -3.6605 H   0  0  0  0  0  0  0  0  0  0  0  0
    0.9866    0.0417   -3.6600 H   0  0  0  0  0  0  0  0  0  0  0  0
    0.9866   -1.8365   -1.2468 H   0  0  0  0  0  0  0  0  0  0  0  0
   -0.0667    0.3589   -0.1283 H   0  0  0  0  0  0  0  0  0  0  0  0
    0.9866    1.2488   -1.5104 H   0  0  0  0  0  0  0  0  0  0  0  0
    1.8643    0.3554   -0.2586 H   0  0  0  0  0  0  0  0  0  0  0  0
  1  2  3  0
  1  5  1  0
  2  3  1  0
  3  4  1  0
  3  6  1  0
  3 16  1  0
  4  7  1  0
  4  8  1  0
  4  9  1  0
 10 11  2  3
 10 13  1  0
 10 14  1  0
 11 12  1  0
 11 15  1  0
 12 17  1  0
 12 18  1  0
M  RAD  1  12   2
M  END
>  <reaction>  (12) 
rxn_1005

>  <mol_properties>  (12) 
{"1": {"label": "*4", "atom_type": "Ct"}, "2": {"label": "*3", "atom_type": "Cs"}, "10": {"label": "*0", "atom_type": "Cd"}, "11": {"label": "*1", "atom_type": "Cs"}, "15": {"label": "*2", "atom_type": "H0"}}

>  <type>  (12) 
unop_8

>  <geom_source>  (12) 
Heuristics

$$$$

     RDKit          3D

 18 16  0  0  0  0  0  0  0  0999 V2000
   -2.5194   -0.5972   -0.0674 C   0  0  0  0  0  0  0  0  0  0  0  0
   -1.6138   -0.0207    0.4638 C   0  0  0  0  0  0  0  0  0  0  0  0
   -0.5179    0.6702    1.1358 C   0  0  0  0  0  0  0  0  0  0  0  0
   -0.4568    0.3685    2.6343 C   0  0  0  0  0  0  0  0  0  0  0  0
   -3.3233   -1.1089   -0.5391 H   0  0  0  0  0  0  0  0  0  0  0  0
   -0.6305    1.7455    0.9764 H   0  0  0  0  0  0  0  0  0  0  0  0
    0.3745    0.9042    3.0939 H   0  0  0  0  0  0  0  0  0  0  0  0
   -1.3794    0.6741    3.1280 H   0  0  0  0  0  0  0  0  0  0  0  0
   -0.3180   -0.6987    2.8083 H   0  0  0  0  0  0  0  0  0  0  0  0
    1.5885   -0.5931   -2.6113 C   0  0  0  0  0  0  0  0  0  0  0  0
    1.5885   -0.5931   -1.2876 C   0  0  0  0  0  0  0  0  0  0  0  0
    1.5885    0.6291   -0.4270 C   0  0  0  0  0  3  0  0  0  0  0  0
    1.5885   -1.5158   -3.1778 H   0  0  0  0  0  0  0  0  0  0  0  0
    1.5885    0.3325   -3.1773 H   0  0  0  0  0  0  0  0  0  0  0  0
    1.5885   -1.5457   -0.7640 H   0  0  0  0  0  0  0  0  0  0  0  0
    0.5352    0.6496    0.3544 H   0  0  0  0  0  0  0  0  0  0  0  0
    1.5885    1.5396   -1.0276 H   0  0  0  0  0  0  0  0  0  0  0  0
    2.4662    0.6462    0.2242 H   0  0  0  0  0  0  0  0  0  0  0  0
  1  2  3  0
  1  5  1  0
  2  3  1  0
  3  4  1  0
  3  6  1  0
  3 16  1  0
  4  7  1  0
  4  8  1  0
  4  9  1  0
 10 11  2  3
 10 13  1  0
 10 14  1  0
 11 12  1  0
 11 15  1  0
 12 17  1  0
 12 18  1  0
M  RAD  1  12   2
M  END
>  <reaction>  (13) 
rxn_1005

>  <mol_properties>  (13) 
{"1": {"label": "*4", "atom_type": "Ct"}, "2": {"label": "*3", "atom_type": "Cs"}, "10": {"label": "*0", "atom_type": "Cd"}, "11": {"label": "*1", "atom_type": "Cs"}, "15": {"label": "*2", "atom_type": "H0"}}

>  <type>  (13) 
unop_9

>  <geom_source>  (13) 
Heuristics

$$$$

     RDKit          3D

 18 16  0  0  0  0  0  0  0  0999 V2000
   -0.9913   -1.5297    2.2635 C   0  0  0  0  0  0  0  0  0  0  0  0
   -1.0234   -0.5690    1.5490 C   0  0  0  0  0  0  0  0  0  0  0  0
   -1.0480    0.6162    0.6977 C   0  0  0  0  0  0  0  0  0  0  0  0
   -0.3352    1.8140    1.3281 C   0  0  0  0  0  0  0  0  0  0  0  0
   -0.9629   -2.3826    2.8978 H   0  0  0  0  0  0  0  0  0  0  0  0
   -2.0884    0.8724    0.4827 H   0  0  0  0  0  0  0  0  0  0  0  0
   -0.3784    2.6742    0.6591 H   0  0  0  0  0  0  0  0  0  0  0  0
   -0.8032    2.0884    2.2737 H   0  0  0  0  0  0  0  0  0  0  0  0
    0.7116    1.5815    1.5242 H   0  0  0  0  0  0  0  0  0  0  0  0
    1.0584   -0.6471   -3.0494 C   0  0  0  0  0  0  0  0  0  0  0  0
    1.0584   -0.6471   -1.7256 C   0  0  0  0  0  0  0  0  0  0  0  0
    1.0584    0.5751   -0.8651 C   0  0  0  0  0  3  0  0  0  0  0  0
    1.0584   -1.5698   -3.6159 H   0  0  0  0  0  0  0  0  0  0  0  0
    1.0584    0.2785   -3.6154 H   0  0  0  0  0  0  0  0  0  0  0  0
    1.0584   -1.5997   -1.2021 H   0  0  0  0  0  0  0  0  0  0  0  0
    0.0051    0.5956   -0.0837 H   0  0  0  0  0  0  0  0  0  0  0  0
    1.0584    1.4855   -1.4657 H   0  0  0  0  0  0  0  0  0  0  0  0
    1.9361    0.5922   -0.2139 H   0  0  0  0  0  0  0  0  0  0  0  0
  1  2  3  0
  1  5  1  0
  2  3  1  0
  3  4  1  0
  3  6  1  0
  3 16  1  0
  4  7  1  0
  4  8  1  0
  4  9  1  0
 10 11  2  3
 10 13  1  0
 10 14  1  0
 11 12  1  0
 11 15  1  0
 12 17  1  0
 12 18  1  0
M  RAD  1  12   2
M  END
>  <reaction>  (14) 
rxn_1005

>  <mol_properties>  (14) 
{"1": {"label": "*4", "atom_type": "Ct"}, "2": {"label": "*3", "atom_type": "Cs"}, "10": {"label": "*0", "atom_type": "Cd"}, "11": {"label": "*1", "atom_type": "Cs"}, "15": {"label": "*2", "atom_type": "H0"}}

>  <type>  (14) 
unop_10

>  <geom_source>  (14) 
Heuristics

$$$$

     RDKit          3D

 18 16  0  0  0  0  0  0  0  0999 V2000
   -1.2797    2.5170    1.4930 C   0  0  0  0  0  0  0  0  0  0  0  0
   -0.9587    1.3833    1.2780 C   0  0  0  0  0  0  0  0  0  0  0  0
   -0.5945   -0.0059    1.0183 C   0  0  0  0  0  0  0  0  0  0  0  0
   -1.8001   -0.9476    1.0328 C   0  0  0  0  0  0  0  0  0  0  0  0
   -1.5646    3.5234    1.6839 H   0  0  0  0  0  0  0  0  0  0  0  0
    0.1354   -0.3234    1.7672 H   0  0  0  0  0  0  0  0  0  0  0  0
   -1.4818   -1.9718    0.8348 H   0  0  0  0  0  0  0  0  0  0  0  0
   -2.2986   -0.9224    2.0019 H   0  0  0  0  0  0  0  0  0  0  0  0
   -2.5254   -0.6585    0.2721 H   0  0  0  0  0  0  0  0  0  0  0  0
    1.5118   -1.2692   -2.7288 C   0  0  0  0  0  0  0  0  0  0  0  0
    1.5118   -1.2692   -1.4050 C   0  0  0  0  0  0  0  0  0  0  0  0
    1.5118   -0.0470   -0.5445 C   0  0  0  0  0  3  0  0  0  0  0  0
    1.5118   -2.1919   -3.2952 H   0  0  0  0  0  0  0  0  0  0  0  0
    1.5118   -0.3436   -3.2948 H   0  0  0  0  0  0  0  0  0  0  0  0
    1.5118   -2.2218   -0.8815 H   0  0  0  0  0  0  0  0  0  0  0  0
    0.4586   -0.0265    0.2370 H   0  0  0  0  0  0  0  0  0  0  0  0
    1.5118    0.8634   -1.1451 H   0  0  0  0  0  0  0  0  0  0  0  0
    2.3895   -0.0299    0.1067 H   0  0  0  0  0  0  0  0  0  0  0  0
  1  2  3  0
  1  5  1  0
  2  3  1  0
  3  4  1  0
  3  6  1  0
  3 16  1  0
  4  7  1  0
  4  8  1  0
  4  9  1  0
 10 11  2  3
 10 13  1  0
 10 14  1  0
 11 12  1  0
 11 15  1  0
 12 17  1  0
 12 18  1  0
M  RAD  1  12   2
M  END
>  <reaction>  (15) 
rxn_1005

>  <mol_properties>  (15) 
{"1": {"label": "*4", "atom_type": "Ct"}, "2": {"label": "*3", "atom_type": "Cs"}, "10": {"label": "*0", "atom_type": "Cd"}, "11": {"label": "*1", "atom_type": "Cs"}, "15": {"label": "*2", "atom_type": "H0"}}

>  <type>  (15) 
unop_11

>  <geom_source>  (15) 
Heuristics

$$$$

     RDKit          3D

 18 16  0  0  0  0  0  0  0  0999 V2000
   -2.1429   -1.3841    0.5362 C   0  0  0  0  0  0  0  0  0  0  0  0
   -1.4892   -0.3987    0.7261 C   0  0  0  0  0  0  0  0  0  0  0  0
   -0.6902    0.7949    0.9846 C   0  0  0  0  0  0  0  0  0  0  0  0
   -0.2533    0.9109    2.4461 C   0  0  0  0  0  0  0  0  0  0  0  0
   -2.7233   -2.2590    0.3676 H   0  0  0  0  0  0  0  0  0  0  0  0
   -1.2713    1.6752    0.6983 H   0  0  0  0  0  0  0  0  0  0  0  0
    0.3393    1.8147    2.5926 H   0  0  0  0  0  0  0  0  0  0  0  0
   -1.1198    0.9557    3.1061 H   0  0  0  0  0  0  0  0  0  0  0  0
    0.3501    0.0514    2.7385 H   0  0  0  0  0  0  0  0  0  0  0  0
    1.4162   -0.4683   -2.7625 C   0  0  0  0  0  0  0  0  0  0  0  0
    1.4162   -0.4683   -1.4387 C   0  0  0  0  0  0  0  0  0  0  0  0
    1.4162    0.7538   -0.5782 C   0  0  0  0  0  3  0  0  0  0  0  0
    1.4162   -1.3911   -3.3289 H   0  0  0  0  0  0  0  0  0  0  0  0
    1.4162    0.4573   -3.3285 H   0  0  0  0  0  0  0  0  0  0  0  0
    1.4162   -1.4210   -0.9152 H   0  0  0  0  0  0  0  0  0  0  0  0
    0.3629    0.7744    0.2033 H   0  0  0  0  0  0  0  0  0  0  0  0
    1.4162    1.6643   -1.1788 H   0  0  0  0  0  0  0  0  0  0  0  0
    2.2939    0.7710    0.0730 H   0  0  0  0  0  0  0  0  0  0  0  0
  1  2  3  0
  1  5  1  0
  2  3  1  0
  3  4  1  0
  3  6  1  0
  3 16  1  0
  4  7  1  0
  4  8  1  0
  4  9  1  0
 10 11  2  3
 10 13  1  0
 10 14  1  0
 11 12  1  0
 11 15  1  0
 12 17  1  0
 12 18  1  0
M  RAD  1  12   2
M  END
>  <reaction>  (16) 
rxn_1005

>  <mol_properties>  (16) 
{"1": {"label": "*4", "atom_type": "Ct"}, "2": {"label": "*3", "atom_type": "Cs"}, "10": {"label": "*0", "atom_type": "Cd"}, "11": {"label": "*1", "atom_type": "Cs"}, "15": {"label": "*2", "atom_type": "H0"}}

>  <type>  (16) 
unop_12

>  <geom_source>  (16) 
Heuristics

$$$$

     RDKit          3D

 18 15  0  0  0  0  0  0  0  0999 V2000
   -0.5633    0.0041   -0.9282 C   0  0  0  0  0  0  0  0  0  0  0  0
   -1.6218   -1.0491   -0.6308 C   0  0  0  0  0  0  0  0  0  0  0  0
    1.5230   -0.2238    1.0476 C   0  0  0  0  0  3  0  0  0  0  0  0
    1.4490   -1.3652    0.0849 C   0  0  0  0  0  2  0  0  0  0  0  0
    1.5098    1.0376    0.6141 C   0  0  0  0  0  0  0  0  0  0  0  0
   -0.8854    1.2650   -0.2510 C   0  0  0  0  0  0  0  0  0  0  0  0
   -1.1492    2.3014    0.3054 C   0  0  0  0  0  0  0  0  0  0  0  0
   -0.5104    0.1821   -2.0230 H   0  0  0  0  0  0  0  0  0  0  0  0
    0.6476   -0.4381   -0.4938 H   0  0  0  0  0  0  0  0  0  0  0  0
   -1.6714   -1.2468    0.4614 H   0  0  0  0  0  0  0  0  0  0  0  0
   -2.6174   -0.7112   -0.9907 H   0  0  0  0  0  0  0  0  0  0  0  0
   -1.3568   -1.9938   -1.1499 H   0  0  0  0  0  0  0  0  0  0  0  0
    1.6011   -0.4248    2.1120 H   0  0  0  0  0  0  0  0  0  0  0  0
    1.5704    1.8564    1.3237 H   0  0  0  0  0  0  0  0  0  0  0  0
    1.4391    1.2629   -0.4460 H   0  0  0  0  0  0  0  0  0  0  0  0
    1.5346   -2.3279    0.6310 H   0  0  0  0  0  0  0  0  0  0  0  0
    0.4821   -1.3401   -0.4607 H   0  0  0  0  0  0  0  0  0  0  0  0
   -1.3808    3.2112    0.7938 H   0  0  0  0  0  0  0  0  0  0  0  0
  1  2  1  0
  1  6  1  0
  1  8  1  0
  1  9  1  0
  2 10  1  0
  2 11  1  0
  2 12  1  0
  3  5  2  3
  3 13  1  0
  4 16  1  0
  4 17  1  0
  5 14  1  0
  5 15  1  0
  6  7  3  0
  7 18  1  0
M  RAD  2   3   2   4   3
M  END
>  <reaction>  (17) 
rxn_1005

>  <mol_properties>  (17) 
{"1": {"label": "*4", "atom_type": "Ct"}, "2": {"label": "*3", "atom_type": "Cs"}, "10": {"label": "*0", "atom_type": "Cd"}, "11": {"label": "*1", "atom_type": "Cs"}, "15": {"label": "*2", "atom_type": "H0"}}

>  <type>  (17) 
unop_13

>  <geom_source>  (17) 
AutoTST

$$$$
