
     RDKit          3D

 11 10  0  0  0  0  0  0  0  0999 V2000
   -1.2710    0.1907   -0.2084 C   0  0  0  0  0  0  0  0  0  0  0  0
    0.0202   -0.6130   -0.2928 C   0  0  0  0  0  0  0  0  0  0  0  0
    0.1086   -1.6953    0.7756 C   0  0  0  0  0  0  0  0  0  0  0  0
   -1.3607    0.6851    0.7620 H   0  0  0  0  0  0  0  0  0  0  0  0
   -2.1429   -0.4567   -0.3299 H   0  0  0  0  0  0  0  0  0  0  0  0
   -1.3158    0.9602   -0.9809 H   0  0  0  0  0  0  0  0  0  0  0  0
    0.8757    0.0616   -0.1992 H   0  0  0  0  0  0  0  0  0  0  0  0
    0.0997   -1.0712   -1.2825 H   0  0  0  0  0  0  0  0  0  0  0  0
   -0.7198   -2.4022    0.6850 H   0  0  0  0  0  0  0  0  0  0  0  0
    1.0395   -2.2596    0.6989 H   0  0  0  0  0  0  0  0  0  0  0  0
    0.0624   -1.2603    1.7770 H   0  0  0  0  0  0  0  0  0  0  0  0
  1  2  1  0
  1  4  1  0
  1  5  1  0
  1  6  1  0
  2  3  1  0
  2  7  1  0
  2  8  1  0
  3  9  1  0
  3 10  1  0
  3 11  1  0
M  END
>  <reaction>  (1) 
rxn_919

>  <mol_properties>  (1) 
{"1": {"label": "donator", "atom_type": "Cs"}, "6": {"label": "d_hydrogen", "atom_type": "H0"}}

>  <type>  (1) 
r1h

$$$$

     RDKit          3D

  9  8  0  0  0  0  0  0  0  0999 V2000
    2.3038   -0.0269    0.1590 C   0  0  0  0  0  0  0  0  0  0  0  0
    1.1426    0.1377   -0.1648 C   0  0  0  0  0  0  0  0  0  0  0  0
   -0.1694    0.3175   -0.5203 C   0  0  0  0  0  3  0  0  0  0  0  0
   -1.3163   -0.1910    0.2856 C   0  0  0  0  0  0  0  0  0  0  0  0
    3.3199   -0.1683    0.4378 H   0  0  0  0  0  0  0  0  0  0  0  0
   -0.3786    0.8584   -1.4360 H   0  0  0  0  0  0  0  0  0  0  0  0
   -1.9694    0.6309    0.5951 H   0  0  0  0  0  0  0  0  0  0  0  0
   -1.9325   -0.8770   -0.3039 H   0  0  0  0  0  0  0  0  0  0  0  0
   -0.9753   -0.7144    1.1774 H   0  0  0  0  0  0  0  0  0  0  0  0
  1  2  3  0
  1  5  1  0
  2  3  1  0
  3  4  1  0
  3  6  1  0
  4  7  1  0
  4  8  1  0
  4  9  1  0
M  RAD  1   3   2
M  END
>  <reaction>  (2) 
rxn_919

>  <mol_properties>  (2) 
{"2": {"label": "acceptor", "atom_type": "Cs"}}

>  <type>  (2) 
r2

$$$$

     RDKit          3D

 10  9  0  0  0  0  0  0  0  0999 V2000
    2.2738    0.0217   -0.0992 C   0  0  0  0  0  0  0  0  0  0  0  0
    1.1083    0.2960   -0.0695 C   0  0  0  0  0  0  0  0  0  0  0  0
   -0.3173    0.6046   -0.0227 C   0  0  0  0  0  0  0  0  0  0  0  0
   -1.1561   -0.5495    0.5292 C   0  0  0  0  0  0  0  0  0  0  0  0
    3.3097   -0.2166   -0.1277 H   0  0  0  0  0  0  0  0  0  0  0  0
   -0.6542    0.8617   -1.0302 H   0  0  0  0  0  0  0  0  0  0  0  0
   -0.4633    1.4978    0.5900 H   0  0  0  0  0  0  0  0  0  0  0  0
   -0.8485   -0.7997    1.5447 H   0  0  0  0  0  0  0  0  0  0  0  0
   -2.2115   -0.2752    0.5459 H   0  0  0  0  0  0  0  0  0  0  0  0
   -1.0409   -1.4407   -0.0879 H   0  0  0  0  0  0  0  0  0  0  0  0
  1  2  3  0
  1  5  1  0
  2  3  1  0
  3  4  1  0
  3  6  1  0
  3  7  1  0
  4  8  1  0
  4  9  1  0
  4 10  1  0
M  END
>  <reaction>  (3) 
rxn_919

>  <mol_properties>  (3) 
{"2": {"label": "acceptor", "atom_type": "Cs"}, "9": {"label": "a_hydrogen", "atom_type": "H0"}}

>  <type>  (3) 
r2h

$$$$

     RDKit          3D

 20 18  0  0  0  0  0  0  0  0999 V2000
    2.5912   -1.1393   -0.7224 C   0  0  0  0  0  0  0  0  0  0  0  0
    1.5872   -1.1114   -0.0608 C   0  0  0  0  0  0  0  0  0  0  0  0
    0.3686   -1.0304    0.6826 C   0  0  0  0  0  0  0  0  0  0  0  0
    0.3704   -0.0935    1.8740 C   0  0  0  0  0  0  0  0  0  0  0  0
    3.4864   -1.1775   -1.2945 H   0  0  0  0  0  0  0  0  0  0  0  0
   -0.0476   -2.0130    0.9041 H   0  0  0  0  0  0  0  0  0  0  0  0
   -0.6257   -0.0386    2.3153 H   0  0  0  0  0  0  0  0  0  0  0  0
    1.0661   -0.4313    2.6458 H   0  0  0  0  0  0  0  0  0  0  0  0
    0.6696    0.9117    1.5734 H   0  0  0  0  0  0  0  0  0  0  0  0
   -0.6265    1.2797   -1.5061 C   0  0  0  0  0  0  0  0  0  0  0  0
   -1.4177    0.1198   -0.9710 C   0  0  0  0  0  3  0  0  0  0  0  0
   -2.6080    0.4464   -0.1132 C   0  0  0  0  0  0  0  0  0  0  0  0
   -0.3494    1.9677   -0.7031 H   0  0  0  0  0  0  0  0  0  0  0  0
   -1.2068    1.8521   -2.2391 H   0  0  0  0  0  0  0  0  0  0  0  0
    0.2900    0.9436   -1.9931 H   0  0  0  0  0  0  0  0  0  0  0  0
   -0.5191   -0.5320   -0.1441 H   0  0  0  0  0  0  0  0  0  0  0  0
   -1.6067   -0.6597   -1.7091 H   0  0  0  0  0  0  0  0  0  0  0  0
   -3.3917    0.9437   -0.6967 H   0  0  0  0  0  0  0  0  0  0  0  0
   -3.0473   -0.4510    0.3264 H   0  0  0  0  0  0  0  0  0  0  0  0
   -2.3321    1.1240    0.6987 H   0  0  0  0  0  0  0  0  0  0  0  0
  1  2  3  0
  1  5  1  0
  2  3  1  0
  3  4  1  0
  3  6  1  0
  3 16  1  0
  4  7  1  0
  4  8  1  0
  4  9  1  0
 10 11  1  0
 10 13  1  0
 10 14  1  0
 10 15  1  0
 11 12  1  0
 11 17  1  0
 12 18  1  0
 12 19  1  0
 12 20  1  0
M  RAD  1  11   2
M  END
>  <reaction>  (4) 
rxn_919

>  <mol_properties>  (4) 
{"1": {"label": "*0", "atom_type": "Ct"}, "2": {"label": "*1", "atom_type": "Cs"}, "9": {"label": "*4", "atom_type": "Cs"}, "10": {"label": "*3", "atom_type": "Cs"}, "15": {"label": "*2", "atom_type": "H0"}}

>  <type>  (4) 
ts

$$$$

     RDKit          3D

 20 18  0  0  0  0  0  0  0  0999 V2000
    2.2955    0.6003    1.5997 C   0  0  0  0  0  0  0  0  0  0  0  0
    1.6410   -0.1361    0.9186 C   0  0  0  0  0  0  0  0  0  0  0  0
    0.8270   -1.0388    0.1109 C   0  0  0  0  0  0  0  0  0  0  0  0
   -0.3215   -1.6688    0.9010 C   0  0  0  0  0  0  0  0  0  0  0  0
    2.8765    1.2540    2.2044 H   0  0  0  0  0  0  0  0  0  0  0  0
    1.4711   -1.8212   -0.2982 H   0  0  0  0  0  0  0  0  0  0  0  0
   -0.9012   -2.3337    0.2597 H   0  0  0  0  0  0  0  0  0  0  0  0
    0.0599   -2.2471    1.7427 H   0  0  0  0  0  0  0  0  0  0  0  0
   -0.9878   -0.9004    1.2934 H   0  0  0  0  0  0  0  0  0  0  0  0
   -1.2713    0.2721   -2.2858 C   0  0  0  0  0  0  0  0  0  0  0  0
   -1.2713    0.2721   -0.7625 C   0  0  0  0  0  3  0  0  0  0  0  0
   -1.2713    1.6779   -0.1757 C   0  0  0  0  0  0  0  0  0  0  0  0
   -0.3899    0.7863   -2.6764 H   0  0  0  0  0  0  0  0  0  0  0  0
   -2.1528    0.7863   -2.6764 H   0  0  0  0  0  0  0  0  0  0  0  0
   -1.2713   -0.7428   -2.6869 H   0  0  0  0  0  0  0  0  0  0  0  0
   -0.2219   -0.3836   -0.3257 H   0  0  0  0  0  0  0  0  0  0  0  0
   -2.1459   -0.2743   -0.3985 H   0  0  0  0  0  0  0  0  0  0  0  0
   -2.1528    2.2365   -0.4999 H   0  0  0  0  0  0  0  0  0  0  0  0
   -1.2713    1.6572    0.9154 H   0  0  0  0  0  0  0  0  0  0  0  0
   -0.3899    2.2364   -0.4999 H   0  0  0  0  0  0  0  0  0  0  0  0
  1  2  3  0
  1  5  1  0
  2  3  1  0
  3  4  1  0
  3  6  1  0
  3 16  1  0
  4  7  1  0
  4  8  1  0
  4  9  1  0
 10 11  1  0
 10 13  1  0
 10 14  1  0
 10 15  1  0
 11 12  1  0
 11 17  1  0
 12 18  1  0
 12 19  1  0
 12 20  1  0
M  RAD  1  11   2
M  END
>  <reaction>  (5) 
rxn_919

>  <mol_properties>  (5) 
{"1": {"label": "*0", "atom_type": "Ct"}, "2": {"label": "*1", "atom_type": "Cs"}, "9": {"label": "*4", "atom_type": "Cs"}, "10": {"label": "*3", "atom_type": "Cs"}, "15": {"label": "*2", "atom_type": "H0"}}

>  <type>  (5) 
unop_1

>  <geom_source>  (5) 
Heuristics

$$$$

     RDKit          3D

 20 18  0  0  0  0  0  0  0  0999 V2000
    2.4874   -0.7264   -1.0576 C   0  0  0  0  0  0  0  0  0  0  0  0
    1.5916   -0.8573   -0.2734 C   0  0  0  0  0  0  0  0  0  0  0  0
    0.5126   -0.9980    0.6991 C   0  0  0  0  0  0  0  0  0  0  0  0
    0.7117   -0.1211    1.9367 C   0  0  0  0  0  0  0  0  0  0  0  0
    3.2827   -0.6103   -1.7538 H   0  0  0  0  0  0  0  0  0  0  0  0
    0.4404   -2.0479    0.9939 H   0  0  0  0  0  0  0  0  0  0  0  0
   -0.1157   -0.2582    2.6339 H   0  0  0  0  0  0  0  0  0  0  0  0
    1.6397   -0.3786    2.4476 H   0  0  0  0  0  0  0  0  0  0  0  0
    0.7592    0.9323    1.6604 H   0  0  0  0  0  0  0  0  0  0  0  0
   -1.5857    0.3129   -1.6976 C   0  0  0  0  0  0  0  0  0  0  0  0
   -1.5857    0.3129   -0.1742 C   0  0  0  0  0  3  0  0  0  0  0  0
   -1.5857    1.7187    0.4125 C   0  0  0  0  0  0  0  0  0  0  0  0
   -0.7042    0.8272   -2.0882 H   0  0  0  0  0  0  0  0  0  0  0  0
   -2.4671    0.8272   -2.0882 H   0  0  0  0  0  0  0  0  0  0  0  0
   -1.5857   -0.7020   -2.0987 H   0  0  0  0  0  0  0  0  0  0  0  0
   -0.5362   -0.3427    0.2626 H   0  0  0  0  0  0  0  0  0  0  0  0
   -2.4602   -0.2335    0.1898 H   0  0  0  0  0  0  0  0  0  0  0  0
   -2.4671    2.2773    0.0883 H   0  0  0  0  0  0  0  0  0  0  0  0
   -1.5857    1.6980    1.5036 H   0  0  0  0  0  0  0  0  0  0  0  0
   -0.7042    2.2773    0.0884 H   0  0  0  0  0  0  0  0  0  0  0  0
  1  2  3  0
  1  5  1  0
  2  3  1  0
  3  4  1  0
  3  6  1  0
  3 16  1  0
  4  7  1  0
  4  8  1  0
  4  9  1  0
 10 11  1  0
 10 13  1  0
 10 14  1  0
 10 15  1  0
 11 12  1  0
 11 17  1  0
 12 18  1  0
 12 19  1  0
 12 20  1  0
M  RAD  1  11   2
M  END
>  <reaction>  (6) 
rxn_919

>  <mol_properties>  (6) 
{"1": {"label": "*0", "atom_type": "Ct"}, "2": {"label": "*1", "atom_type": "Cs"}, "9": {"label": "*4", "atom_type": "Cs"}, "10": {"label": "*3", "atom_type": "Cs"}, "15": {"label": "*2", "atom_type": "H0"}}

>  <type>  (6) 
unop_2

>  <geom_source>  (6) 
Heuristics

$$$$

     RDKit          3D

 20 18  0  0  0  0  0  0  0  0999 V2000
    1.6625    0.1887    2.3890 C   0  0  0  0  0  0  0  0  0  0  0  0
    1.3440   -0.2570    1.3239 C   0  0  0  0  0  0  0  0  0  0  0  0
    0.9408   -0.8199    0.0392 C   0  0  0  0  0  0  0  0  0  0  0  0
    0.0226   -2.0346    0.1860 C   0  0  0  0  0  0  0  0  0  0  0  0
    1.9452    0.5844    3.3346 H   0  0  0  0  0  0  0  0  0  0  0  0
    1.8381   -1.0963   -0.5201 H   0  0  0  0  0  0  0  0  0  0  0  0
   -0.2525   -2.4211   -0.7961 H   0  0  0  0  0  0  0  0  0  0  0  0
    0.5192   -2.8294    0.7428 H   0  0  0  0  0  0  0  0  0  0  0  0
   -0.8896   -1.7673    0.7196 H   0  0  0  0  0  0  0  0  0  0  0  0
   -1.1575    0.4910   -2.3575 C   0  0  0  0  0  0  0  0  0  0  0  0
   -1.1575    0.4910   -0.8342 C   0  0  0  0  0  3  0  0  0  0  0  0
   -1.1575    1.8968   -0.2475 C   0  0  0  0  0  0  0  0  0  0  0  0
   -0.2760    1.0053   -2.7481 H   0  0  0  0  0  0  0  0  0  0  0  0
   -2.0389    1.0053   -2.7481 H   0  0  0  0  0  0  0  0  0  0  0  0
   -1.1575   -0.5239   -2.7587 H   0  0  0  0  0  0  0  0  0  0  0  0
   -0.1080   -0.1646   -0.3974 H   0  0  0  0  0  0  0  0  0  0  0  0
   -2.0320   -0.0554   -0.4702 H   0  0  0  0  0  0  0  0  0  0  0  0
   -2.0389    2.4554   -0.5716 H   0  0  0  0  0  0  0  0  0  0  0  0
   -1.1575    1.8761    0.8437 H   0  0  0  0  0  0  0  0  0  0  0  0
   -0.2760    2.4554   -0.5716 H   0  0  0  0  0  0  0  0  0  0  0  0
  1  2  3  0
  1  5  1  0
  2  3  1  0
  3  4  1  0
  3  6  1  0
  3 16  1  0
  4  7  1  0
  4  8  1  0
  4  9  1  0
 10 11  1  0
 10 13  1  0
 10 14  1  0
 10 15  1  0
 11 12  1  0
 11 17  1  0
 12 18  1  0
 12 19  1  0
 12 20  1  0
M  RAD  1  11   2
M  END
>  <reaction>  (7) 
rxn_919

>  <mol_properties>  (7) 
{"1": {"label": "*0", "atom_type": "Ct"}, "2": {"label": "*1", "atom_type": "Cs"}, "9": {"label": "*4", "atom_type": "Cs"}, "10": {"label": "*3", "atom_type": "Cs"}, "15": {"label": "*2", "atom_type": "H0"}}

>  <type>  (7) 
unop_3

>  <geom_source>  (7) 
Heuristics

$$$$

     RDKit          3D

 20 18  0  0  0  0  0  0  0  0999 V2000
    0.6512   -2.8705   -0.2305 C   0  0  0  0  0  0  0  0  0  0  0  0
    0.6808   -1.7438    0.1747 C   0  0  0  0  0  0  0  0  0  0  0  0
    0.7449   -0.3726    0.6703 C   0  0  0  0  0  0  0  0  0  0  0  0
    2.1753    0.0882    0.9565 C   0  0  0  0  0  0  0  0  0  0  0  0
    0.6250   -3.8708   -0.5902 H   0  0  0  0  0  0  0  0  0  0  0  0
    0.1408   -0.2987    1.5781 H   0  0  0  0  0  0  0  0  0  0  0  0
    2.1750    1.1152    1.3236 H   0  0  0  0  0  0  0  0  0  0  0  0
    2.6427   -0.5471    1.7091 H   0  0  0  0  0  0  0  0  0  0  0  0
    2.7834    0.0449    0.0529 H   0  0  0  0  0  0  0  0  0  0  0  0
   -1.3534    0.9383   -1.7264 C   0  0  0  0  0  0  0  0  0  0  0  0
   -1.3534    0.9383   -0.2031 C   0  0  0  0  0  3  0  0  0  0  0  0
   -1.3534    2.3441    0.3836 C   0  0  0  0  0  0  0  0  0  0  0  0
   -0.4719    1.4525   -2.1170 H   0  0  0  0  0  0  0  0  0  0  0  0
   -2.2349    1.4525   -2.1170 H   0  0  0  0  0  0  0  0  0  0  0  0
   -1.3534   -0.0766   -2.1276 H   0  0  0  0  0  0  0  0  0  0  0  0
   -0.3040    0.2826    0.2337 H   0  0  0  0  0  0  0  0  0  0  0  0
   -2.2279    0.3919    0.1609 H   0  0  0  0  0  0  0  0  0  0  0  0
   -2.2349    2.9026    0.0595 H   0  0  0  0  0  0  0  0  0  0  0  0
   -1.3534    2.3234    1.4747 H   0  0  0  0  0  0  0  0  0  0  0  0
   -0.4719    2.9026    0.0595 H   0  0  0  0  0  0  0  0  0  0  0  0
  1  2  3  0
  1  5  1  0
  2  3  1  0
  3  4  1  0
  3  6  1  0
  3 16  1  0
  4  7  1  0
  4  8  1  0
  4  9  1  0
 10 11  1  0
 10 13  1  0
 10 14  1  0
 10 15  1  0
 11 12  1  0
 11 17  1  0
 12 18  1  0
 12 19  1  0
 12 20  1  0
M  RAD  1  11   2
M  END
>  <reaction>  (8) 
rxn_919

>  <mol_properties>  (8) 
{"1": {"label": "*0", "atom_type": "Ct"}, "2": {"label": "*1", "atom_type": "Cs"}, "9": {"label": "*4", "atom_type": "Cs"}, "10": {"label": "*3", "atom_type": "Cs"}, "15": {"label": "*2", "atom_type": "H0"}}

>  <type>  (8) 
unop_4

>  <geom_source>  (8) 
Heuristics

$$$$

     RDKit          3D

 20 18  0  0  0  0  0  0  0  0999 V2000
    0.9174   -0.5934    2.7486 C   0  0  0  0  0  0  0  0  0  0  0  0
    0.9298   -0.5781    1.5511 C   0  0  0  0  0  0  0  0  0  0  0  0
    0.9450   -0.5876    0.0918 C   0  0  0  0  0  0  0  0  0  0  0  0
    0.9569   -2.0016   -0.4919 C   0  0  0  0  0  0  0  0  0  0  0  0
    0.9064   -0.6071    3.8118 H   0  0  0  0  0  0  0  0  0  0  0  0
    1.8219   -0.0343   -0.2538 H   0  0  0  0  0  0  0  0  0  0  0  0
    0.9681   -1.9603   -1.5817 H   0  0  0  0  0  0  0  0  0  0  0  0
    1.8380   -2.5500   -0.1583 H   0  0  0  0  0  0  0  0  0  0  0  0
    0.0737   -2.5573   -0.1767 H   0  0  0  0  0  0  0  0  0  0  0  0
   -1.1533    0.7233   -2.3049 C   0  0  0  0  0  0  0  0  0  0  0  0
   -1.1533    0.7233   -0.7816 C   0  0  0  0  0  3  0  0  0  0  0  0
   -1.1533    2.1291   -0.1949 C   0  0  0  0  0  0  0  0  0  0  0  0
   -0.2718    1.2376   -2.6956 H   0  0  0  0  0  0  0  0  0  0  0  0
   -2.0348    1.2376   -2.6956 H   0  0  0  0  0  0  0  0  0  0  0  0
   -1.1533   -0.2916   -2.7061 H   0  0  0  0  0  0  0  0  0  0  0  0
   -0.1039    0.0677   -0.3448 H   0  0  0  0  0  0  0  0  0  0  0  0
   -2.0278    0.1769   -0.4176 H   0  0  0  0  0  0  0  0  0  0  0  0
   -2.0347    2.6877   -0.5190 H   0  0  0  0  0  0  0  0  0  0  0  0
   -1.1533    2.1084    0.8962 H   0  0  0  0  0  0  0  0  0  0  0  0
   -0.2718    2.6877   -0.5190 H   0  0  0  0  0  0  0  0  0  0  0  0
  1  2  3  0
  1  5  1  0
  2  3  1  0
  3  4  1  0
  3  6  1  0
  3 16  1  0
  4  7  1  0
  4  8  1  0
  4  9  1  0
 10 11  1  0
 10 13  1  0
 10 14  1  0
 10 15  1  0
 11 12  1  0
 11 17  1  0
 12 18  1  0
 12 19  1  0
 12 20  1  0
M  RAD  1  11   2
M  END
>  <reaction>  (9) 
rxn_919

>  <mol_properties>  (9) 
{"1": {"label": "*0", "atom_type": "Ct"}, "2": {"label": "*1", "atom_type": "Cs"}, "9": {"label": "*4", "atom_type": "Cs"}, "10": {"label": "*3", "atom_type": "Cs"}, "15": {"label": "*2", "atom_type": "H0"}}

>  <type>  (9) 
unop_5

>  <geom_source>  (9) 
Heuristics

$$$$

     RDKit          3D

 20 18  0  0  0  0  0  0  0  0999 V2000
    0.2118   -2.8913    0.7694 C   0  0  0  0  0  0  0  0  0  0  0  0
    0.4825   -1.7317    0.6415 C   0  0  0  0  0  0  0  0  0  0  0  0
    0.8398   -0.3253    0.4855 C   0  0  0  0  0  0  0  0  0  0  0  0
    2.3514   -0.1022    0.4112 C   0  0  0  0  0  0  0  0  0  0  0  0
   -0.0286   -3.9209    0.8829 H   0  0  0  0  0  0  0  0  0  0  0  0
    0.4206    0.2385    1.3227 H   0  0  0  0  0  0  0  0  0  0  0  0
    2.5713    0.9597    0.2950 H   0  0  0  0  0  0  0  0  0  0  0  0
    2.8397   -0.4585    1.3183 H   0  0  0  0  0  0  0  0  0  0  0  0
    2.7800   -0.6380   -0.4360 H   0  0  0  0  0  0  0  0  0  0  0  0
   -1.2585    0.9856   -1.9112 C   0  0  0  0  0  0  0  0  0  0  0  0
   -1.2585    0.9856   -0.3879 C   0  0  0  0  0  3  0  0  0  0  0  0
   -1.2585    2.3914    0.1988 C   0  0  0  0  0  0  0  0  0  0  0  0
   -0.3770    1.4999   -2.3019 H   0  0  0  0  0  0  0  0  0  0  0  0
   -2.1399    1.4999   -2.3019 H   0  0  0  0  0  0  0  0  0  0  0  0
   -1.2585   -0.0293   -2.3124 H   0  0  0  0  0  0  0  0  0  0  0  0
   -0.2090    0.3300    0.0489 H   0  0  0  0  0  0  0  0  0  0  0  0
   -2.1330    0.4392   -0.0239 H   0  0  0  0  0  0  0  0  0  0  0  0
   -2.1399    2.9500   -0.1253 H   0  0  0  0  0  0  0  0  0  0  0  0
   -1.2585    2.3707    1.2899 H   0  0  0  0  0  0  0  0  0  0  0  0
   -0.3770    2.9500   -0.1253 H   0  0  0  0  0  0  0  0  0  0  0  0
  1  2  3  0
  1  5  1  0
  2  3  1  0
  3  4  1  0
  3  6  1  0
  3 16  1  0
  4  7  1  0
  4  8  1  0
  4  9  1  0
 10 11  1  0
 10 13  1  0
 10 14  1  0
 10 15  1  0
 11 12  1  0
 11 17  1  0
 12 18  1  0
 12 19  1  0
 12 20  1  0
M  RAD  1  11   2
M  END
>  <reaction>  (10) 
rxn_919

>  <mol_properties>  (10) 
{"1": {"label": "*0", "atom_type": "Ct"}, "2": {"label": "*1", "atom_type": "Cs"}, "9": {"label": "*4", "atom_type": "Cs"}, "10": {"label": "*3", "atom_type": "Cs"}, "15": {"label": "*2", "atom_type": "H0"}}

>  <type>  (10) 
unop_6

>  <geom_source>  (10) 
Heuristics

$$$$

     RDKit          3D

 20 18  0  0  0  0  0  0  0  0999 V2000
    0.0781   -2.4331    1.7788 C   0  0  0  0  0  0  0  0  0  0  0  0
    0.4302   -1.4978    1.1187 C   0  0  0  0  0  0  0  0  0  0  0  0
    0.8845   -0.3704    0.3110 C   0  0  0  0  0  0  0  0  0  0  0  0
    2.3258   -0.5320   -0.1754 C   0  0  0  0  0  0  0  0  0  0  0  0
   -0.2345   -3.2634    2.3649 H   0  0  0  0  0  0  0  0  0  0  0  0
    0.7906    0.5447    0.9012 H   0  0  0  0  0  0  0  0  0  0  0  0
    2.6219    0.3310   -0.7729 H   0  0  0  0  0  0  0  0  0  0  0  0
    3.0109   -0.6190    0.6681 H   0  0  0  0  0  0  0  0  0  0  0  0
    2.4288   -1.4277   -0.7881 H   0  0  0  0  0  0  0  0  0  0  0  0
   -1.2138    0.9405   -2.0857 C   0  0  0  0  0  0  0  0  0  0  0  0
   -1.2138    0.9405   -0.5624 C   0  0  0  0  0  3  0  0  0  0  0  0
   -1.2138    2.3463    0.0243 C   0  0  0  0  0  0  0  0  0  0  0  0
   -0.3324    1.4548   -2.4763 H   0  0  0  0  0  0  0  0  0  0  0  0
   -2.0953    1.4548   -2.4763 H   0  0  0  0  0  0  0  0  0  0  0  0
   -1.2138   -0.0744   -2.4869 H   0  0  0  0  0  0  0  0  0  0  0  0
   -0.1644    0.2849   -0.1256 H   0  0  0  0  0  0  0  0  0  0  0  0
   -2.0884    0.3942   -0.1984 H   0  0  0  0  0  0  0  0  0  0  0  0
   -2.0953    2.9049   -0.2998 H   0  0  0  0  0  0  0  0  0  0  0  0
   -1.2138    2.3256    1.1155 H   0  0  0  0  0  0  0  0  0  0  0  0
   -0.3324    2.9049   -0.2998 H   0  0  0  0  0  0  0  0  0  0  0  0
  1  2  3  0
  1  5  1  0
  2  3  1  0
  3  4  1  0
  3  6  1  0
  3 16  1  0
  4  7  1  0
  4  8  1  0
  4  9  1  0
 10 11  1  0
 10 13  1  0
 10 14  1  0
 10 15  1  0
 11 12  1  0
 11 17  1  0
 12 18  1  0
 12 19  1  0
 12 20  1  0
M  RAD  1  11   2
M  END
>  <reaction>  (11) 
rxn_919

>  <mol_properties>  (11) 
{"1": {"label": "*0", "atom_type": "Ct"}, "2": {"label": "*1", "atom_type": "Cs"}, "9": {"label": "*4", "atom_type": "Cs"}, "10": {"label": "*3", "atom_type": "Cs"}, "15": {"label": "*2", "atom_type": "H0"}}

>  <type>  (11) 
unop_7

>  <geom_source>  (11) 
Heuristics

$$$$

     RDKit          3D

 20 18  0  0  0  0  0  0  0  0999 V2000
    2.6926    0.5620    0.5897 C   0  0  0  0  0  0  0  0  0  0  0  0
    1.7921   -0.2136    0.4408 C   0  0  0  0  0  0  0  0  0  0  0  0
    0.6849   -1.1515    0.2847 C   0  0  0  0  0  0  0  0  0  0  0  0
   -0.2557   -1.1645    1.4911 C   0  0  0  0  0  0  0  0  0  0  0  0
    3.4920    1.2506    0.7219 H   0  0  0  0  0  0  0  0  0  0  0  0
    1.0928   -2.1518    0.1194 H   0  0  0  0  0  0  0  0  0  0  0  0
   -1.0655   -1.8773    1.3310 H   0  0  0  0  0  0  0  0  0  0  0  0
    0.2807   -1.4492    2.3964 H   0  0  0  0  0  0  0  0  0  0  0  0
   -0.6911   -0.1782    1.6523 H   0  0  0  0  0  0  0  0  0  0  0  0
   -1.4134    0.1594   -2.1120 C   0  0  0  0  0  0  0  0  0  0  0  0
   -1.4134    0.1594   -0.5886 C   0  0  0  0  0  3  0  0  0  0  0  0
   -1.4134    1.5652   -0.0019 C   0  0  0  0  0  0  0  0  0  0  0  0
   -0.5319    0.6737   -2.5026 H   0  0  0  0  0  0  0  0  0  0  0  0
   -2.2948    0.6737   -2.5026 H   0  0  0  0  0  0  0  0  0  0  0  0
   -1.4134   -0.8555   -2.5131 H   0  0  0  0  0  0  0  0  0  0  0  0
   -0.3639   -0.4962   -0.1518 H   0  0  0  0  0  0  0  0  0  0  0  0
   -2.2879   -0.3870   -0.2246 H   0  0  0  0  0  0  0  0  0  0  0  0
   -2.2948    2.1238   -0.3260 H   0  0  0  0  0  0  0  0  0  0  0  0
   -1.4134    1.5445    1.0892 H   0  0  0  0  0  0  0  0  0  0  0  0
   -0.5319    2.1238   -0.3260 H   0  0  0  0  0  0  0  0  0  0  0  0
  1  2  3  0
  1  5  1  0
  2  3  1  0
  3  4  1  0
  3  6  1  0
  3 16  1  0
  4  7  1  0
  4  8  1  0
  4  9  1  0
 10 11  1  0
 10 13  1  0
 10 14  1  0
 10 15  1  0
 11 12  1  0
 11 17  1  0
 12 18  1  0
 12 19  1  0
 12 20  1  0
M  RAD  1  11   2
M  END
>  <reaction>  (12) 
rxn_919

>  <mol_properties>  (12) 
{"1": {"label": "*0", "atom_type": "Ct"}, "2": {"label": "*1", "atom_type": "Cs"}, "9": {"label": "*4", "atom_type": "Cs"}, "10": {"label": "*3", "atom_type": "Cs"}, "15": {"label": "*2", "atom_type": "H0"}}

>  <type>  (12) 
unop_8

>  <geom_source>  (12) 
Heuristics

$$$$

     RDKit          3D

 20 18  0  0  0  0  0  0  0  0999 V2000
    1.2773   -2.4054   -0.9681 C   0  0  0  0  0  0  0  0  0  0  0  0
    0.9704   -1.5635   -0.1734 C   0  0  0  0  0  0  0  0  0  0  0  0
    0.6237   -0.5321    0.7991 C   0  0  0  0  0  0  0  0  0  0  0  0
    1.8522    0.1545    1.3987 C   0  0  0  0  0  0  0  0  0  0  0  0
    1.5499   -3.1528   -1.6736 H   0  0  0  0  0  0  0  0  0  0  0  0
    0.0253   -0.9855    1.5934 H   0  0  0  0  0  0  0  0  0  0  0  0
    1.5464    0.9153    2.1178 H   0  0  0  0  0  0  0  0  0  0  0  0
    2.4877   -0.5684    1.9105 H   0  0  0  0  0  0  0  0  0  0  0  0
    2.4453    0.6343    0.6200 H   0  0  0  0  0  0  0  0  0  0  0  0
   -1.4746    0.7787   -1.5976 C   0  0  0  0  0  0  0  0  0  0  0  0
   -1.4746    0.7787   -0.0742 C   0  0  0  0  0  3  0  0  0  0  0  0
   -1.4746    2.1845    0.5125 C   0  0  0  0  0  0  0  0  0  0  0  0
   -0.5932    1.2930   -1.9882 H   0  0  0  0  0  0  0  0  0  0  0  0
   -2.3561    1.2930   -1.9882 H   0  0  0  0  0  0  0  0  0  0  0  0
   -1.4746   -0.2362   -1.9987 H   0  0  0  0  0  0  0  0  0  0  0  0
   -0.4252    0.1231    0.3626 H   0  0  0  0  0  0  0  0  0  0  0  0
   -2.3492    0.2324    0.2898 H   0  0  0  0  0  0  0  0  0  0  0  0
   -2.3561    2.7431    0.1884 H   0  0  0  0  0  0  0  0  0  0  0  0
   -1.4746    2.1639    1.6036 H   0  0  0  0  0  0  0  0  0  0  0  0
   -0.5932    2.7431    0.1884 H   0  0  0  0  0  0  0  0  0  0  0  0
  1  2  3  0
  1  5  1  0
  2  3  1  0
  3  4  1  0
  3  6  1  0
  3 16  1  0
  4  7  1  0
  4  8  1  0
  4  9  1  0
 10 11  1  0
 10 13  1  0
 10 14  1  0
 10 15  1  0
 11 12  1  0
 11 17  1  0
 12 18  1  0
 12 19  1  0
 12 20  1  0
M  RAD  1  11   2
M  END
>  <reaction>  (13) 
rxn_919

>  <mol_properties>  (13) 
{"1": {"label": "*0", "atom_type": "Ct"}, "2": {"label": "*1", "atom_type": "Cs"}, "9": {"label": "*4", "atom_type": "Cs"}, "10": {"label": "*3", "atom_type": "Cs"}, "15": {"label": "*2", "atom_type": "H0"}}

>  <type>  (13) 
unop_9

>  <geom_source>  (13) 
Heuristics

$$$$

     RDKit          3D

 20 18  0  0  0  0  0  0  0  0999 V2000
    2.7632    0.0764   -0.3810 C   0  0  0  0  0  0  0  0  0  0  0  0
    1.7745   -0.4775    0.0066 C   0  0  0  0  0  0  0  0  0  0  0  0
    0.5703   -1.1365    0.5021 C   0  0  0  0  0  0  0  0  0  0  0  0
    0.1173   -0.5999    1.8612 C   0  0  0  0  0  0  0  0  0  0  0  0
    3.6409    0.5682   -0.7251 H   0  0  0  0  0  0  0  0  0  0  0  0
    0.7605   -2.2105    0.5701 H   0  0  0  0  0  0  0  0  0  0  0  0
   -0.7829   -1.1194    2.1914 H   0  0  0  0  0  0  0  0  0  0  0  0
    0.8942   -0.7443    2.6122 H   0  0  0  0  0  0  0  0  0  0  0  0
   -0.1016    0.4664    1.8023 H   0  0  0  0  0  0  0  0  0  0  0  0
   -1.5280    0.1744   -1.8946 C   0  0  0  0  0  0  0  0  0  0  0  0
   -1.5280    0.1744   -0.3712 C   0  0  0  0  0  3  0  0  0  0  0  0
   -1.5280    1.5802    0.2155 C   0  0  0  0  0  0  0  0  0  0  0  0
   -0.6465    0.6887   -2.2852 H   0  0  0  0  0  0  0  0  0  0  0  0
   -2.4094    0.6887   -2.2852 H   0  0  0  0  0  0  0  0  0  0  0  0
   -1.5280   -0.8405   -2.2957 H   0  0  0  0  0  0  0  0  0  0  0  0
   -0.4785   -0.4812    0.0656 H   0  0  0  0  0  0  0  0  0  0  0  0
   -2.4025   -0.3719   -0.0072 H   0  0  0  0  0  0  0  0  0  0  0  0
   -2.4094    2.1388   -0.1087 H   0  0  0  0  0  0  0  0  0  0  0  0
   -1.5280    1.5595    1.3066 H   0  0  0  0  0  0  0  0  0  0  0  0
   -0.6465    2.1388   -0.1087 H   0  0  0  0  0  0  0  0  0  0  0  0
  1  2  3  0
  1  5  1  0
  2  3  1  0
  3  4  1  0
  3  6  1  0
  3 16  1  0
  4  7  1  0
  4  8  1  0
  4  9  1  0
 10 11  1  0
 10 13  1  0
 10 14  1  0
 10 15  1  0
 11 12  1  0
 11 17  1  0
 12 18  1  0
 12 19  1  0
 12 20  1  0
M  RAD  1  11   2
M  END
>  <reaction>  (14) 
rxn_919

>  <mol_properties>  (14) 
{"1": {"label": "*0", "atom_type": "Ct"}, "2": {"label": "*1", "atom_type": "Cs"}, "9": {"label": "*4", "atom_type": "Cs"}, "10": {"label": "*3", "atom_type": "Cs"}, "15": {"label": "*2", "atom_type": "H0"}}

>  <type>  (14) 
unop_10

>  <geom_source>  (14) 
Heuristics

$$$$

     RDKit          3D

 20 18  0  0  0  0  0  0  0  0999 V2000
    0.3163   -1.5860    2.5210 C   0  0  0  0  0  0  0  0  0  0  0  0
    0.5716   -1.0688    1.4713 C   0  0  0  0  0  0  0  0  0  0  0  0
    0.9006   -0.4596    0.1866 C   0  0  0  0  0  0  0  0  0  0  0  0
    1.9288   -1.2679   -0.6070 C   0  0  0  0  0  0  0  0  0  0  0  0
    0.0896   -2.0452    3.4529 H   0  0  0  0  0  0  0  0  0  0  0  0
    1.2772    0.5511    0.3634 H   0  0  0  0  0  0  0  0  0  0  0  0
    2.1438   -0.7769   -1.5568 H   0  0  0  0  0  0  0  0  0  0  0  0
    2.8603   -1.3625   -0.0488 H   0  0  0  0  0  0  0  0  0  0  0  0
    1.5555   -2.2710   -0.8139 H   0  0  0  0  0  0  0  0  0  0  0  0
   -1.1976    0.8513   -2.2101 C   0  0  0  0  0  0  0  0  0  0  0  0
   -1.1976    0.8513   -0.6868 C   0  0  0  0  0  3  0  0  0  0  0  0
   -1.1976    2.2571   -0.1001 C   0  0  0  0  0  0  0  0  0  0  0  0
   -0.3162    1.3656   -2.6007 H   0  0  0  0  0  0  0  0  0  0  0  0
   -2.0791    1.3656   -2.6007 H   0  0  0  0  0  0  0  0  0  0  0  0
   -1.1976   -0.1636   -2.6113 H   0  0  0  0  0  0  0  0  0  0  0  0
   -0.1482    0.1957   -0.2500 H   0  0  0  0  0  0  0  0  0  0  0  0
   -2.0722    0.3049   -0.3228 H   0  0  0  0  0  0  0  0  0  0  0  0
   -2.0791    2.8157   -0.4242 H   0  0  0  0  0  0  0  0  0  0  0  0
   -1.1976    2.2364    0.9911 H   0  0  0  0  0  0  0  0  0  0  0  0
   -0.3162    2.8157   -0.4242 H   0  0  0  0  0  0  0  0  0  0  0  0
  1  2  3  0
  1  5  1  0
  2  3  1  0
  3  4  1  0
  3  6  1  0
  3 16  1  0
  4  7  1  0
  4  8  1  0
  4  9  1  0
 10 11  1  0
 10 13  1  0
 10 14  1  0
 10 15  1  0
 11 12  1  0
 11 17  1  0
 12 18  1  0
 12 19  1  0
 12 20  1  0
M  RAD  1  11   2
M  END
>  <reaction>  (15) 
rxn_919

>  <mol_properties>  (15) 
{"1": {"label": "*0", "atom_type": "Ct"}, "2": {"label": "*1", "atom_type": "Cs"}, "9": {"label": "*4", "atom_type": "Cs"}, "10": {"label": "*3", "atom_type": "Cs"}, "15": {"label": "*2", "atom_type": "H0"}}

>  <type>  (15) 
unop_11

>  <geom_source>  (15) 
Heuristics

$$$$

     RDKit          3D

 20 18  0  0  0  0  0  0  0  0999 V2000
    1.9426   -1.6286   -1.2682 C   0  0  0  0  0  0  0  0  0  0  0  0
    1.2962   -1.2479   -0.3345 C   0  0  0  0  0  0  0  0  0  0  0  0
    0.5310   -0.7699    0.8127 C   0  0  0  0  0  0  0  0  0  0  0  0
    1.3536    0.1228    1.7437 C   0  0  0  0  0  0  0  0  0  0  0  0
    2.5164   -1.9666   -2.0970 H   0  0  0  0  0  0  0  0  0  0  0  0
    0.1497   -1.6328    1.3645 H   0  0  0  0  0  0  0  0  0  0  0  0
    0.7435    0.4557    2.5842 H   0  0  0  0  0  0  0  0  0  0  0  0
    2.2154   -0.4177    2.1355 H   0  0  0  0  0  0  0  0  0  0  0  0
    1.7189    1.0020    1.2129 H   0  0  0  0  0  0  0  0  0  0  0  0
   -1.5673    0.5410   -1.5840 C   0  0  0  0  0  0  0  0  0  0  0  0
   -1.5673    0.5410   -0.0607 C   0  0  0  0  0  3  0  0  0  0  0  0
   -1.5673    1.9468    0.5260 C   0  0  0  0  0  0  0  0  0  0  0  0
   -0.6858    1.0552   -1.9747 H   0  0  0  0  0  0  0  0  0  0  0  0
   -2.4487    1.0552   -1.9747 H   0  0  0  0  0  0  0  0  0  0  0  0
   -1.5673   -0.4739   -1.9852 H   0  0  0  0  0  0  0  0  0  0  0  0
   -0.5178   -0.1147    0.3761 H   0  0  0  0  0  0  0  0  0  0  0  0
   -2.4418   -0.0054    0.3033 H   0  0  0  0  0  0  0  0  0  0  0  0
   -2.4487    2.5053    0.2019 H   0  0  0  0  0  0  0  0  0  0  0  0
   -1.5673    1.9261    1.6171 H   0  0  0  0  0  0  0  0  0  0  0  0
   -0.6858    2.5053    0.2019 H   0  0  0  0  0  0  0  0  0  0  0  0
  1  2  3  0
  1  5  1  0
  2  3  1  0
  3  4  1  0
  3  6  1  0
  3 16  1  0
  4  7  1  0
  4  8  1  0
  4  9  1  0
 10 11  1  0
 10 13  1  0
 10 14  1  0
 10 15  1  0
 11 12  1  0
 11 17  1  0
 12 18  1  0
 12 19  1  0
 12 20  1  0
M  RAD  1  11   2
M  END
>  <reaction>  (16) 
rxn_919

>  <mol_properties>  (16) 
{"1": {"label": "*0", "atom_type": "Ct"}, "2": {"label": "*1", "atom_type": "Cs"}, "9": {"label": "*4", "atom_type": "Cs"}, "10": {"label": "*3", "atom_type": "Cs"}, "15": {"label": "*2", "atom_type": "H0"}}

>  <type>  (16) 
unop_12

>  <geom_source>  (16) 
Heuristics

$$$$

     RDKit          3D

 20 18  0  0  0  0  0  0  0  0999 V2000
    1.1823   -0.3613    0.3816 C   0  0  0  0  0  3  0  0  0  0  0  0
    1.9929   -0.4659   -0.9028 C   0  0  0  0  0  0  0  0  0  0  0  0
   -1.7419    0.7541   -1.4143 C   0  0  0  0  0  0  0  0  0  0  0  0
   -1.9589   -0.8154    0.5468 C   0  0  0  0  0  0  0  0  0  0  0  0
   -1.2781    0.4338    0.0013 C   0  0  0  0  0  0  0  0  0  0  0  0
    1.9597    0.3091    1.4295 C   0  0  0  0  0  0  0  0  0  0  0  0
    2.5977    0.8603    2.2912 C   0  0  0  0  0  0  0  0  0  0  0  0
    0.9016   -1.3775    0.7303 H   0  0  0  0  0  0  0  0  0  0  0  0
    0.0248    0.3674    0.1371 H   0  0  0  0  0  0  0  0  0  0  0  0
    2.9180   -1.0574   -0.7309 H   0  0  0  0  0  0  0  0  0  0  0  0
    1.3850   -0.9727   -1.6811 H   0  0  0  0  0  0  0  0  0  0  0  0
    2.2648    0.5470   -1.2693 H   0  0  0  0  0  0  0  0  0  0  0  0
   -2.8354    0.9493   -1.4282 H   0  0  0  0  0  0  0  0  0  0  0  0
   -1.2110    1.6582   -1.7784 H   0  0  0  0  0  0  0  0  0  0  0  0
   -1.5079   -0.0922   -2.0941 H   0  0  0  0  0  0  0  0  0  0  0  0
   -1.5816   -1.0215    1.5700 H   0  0  0  0  0  0  0  0  0  0  0  0
   -3.0590   -0.6677    0.5924 H   0  0  0  0  0  0  0  0  0  0  0  0
   -1.7288   -1.6892   -0.0987 H   0  0  0  0  0  0  0  0  0  0  0  0
   -1.4821    1.2976    0.6700 H   0  0  0  0  0  0  0  0  0  0  0  0
    3.1579    1.3442    3.0475 H   0  0  0  0  0  0  0  0  0  0  0  0
  1  2  1  0
  1  6  1  0
  1  8  1  0
  2 10  1  0
  2 11  1  0
  2 12  1  0
  3  5  1  0
  3 13  1  0
  3 14  1  0
  3 15  1  0
  4  5  1  0
  4 16  1  0
  4 17  1  0
  4 18  1  0
  5  9  1  0
  5 19  1  0
  6  7  3  0
  7 20  1  0
M  RAD  1   1   2
M  END
>  <reaction>  (17) 
rxn_919

>  <mol_properties>  (17) 
{"1": {"label": "*0", "atom_type": "Ct"}, "2": {"label": "*1", "atom_type": "Cs"}, "9": {"label": "*4", "atom_type": "Cs"}, "10": {"label": "*3", "atom_type": "Cs"}, "15": {"label": "*2", "atom_type": "H0"}}

>  <type>  (17) 
unop_13

>  <geom_source>  (17) 
AutoTST

$$$$
