
     RDKit          3D

  9  8  0  0  0  0  0  0  0  0999 V2000
   -0.9895    0.3048    0.1041 C   0  0  0  0  0  0  0  0  0  0  0  0
    0.3761   -0.3562    0.0721 C   0  0  0  0  0  0  0  0  0  0  0  0
    0.3441   -1.6564   -0.4834 O   0  0  0  0  0  0  0  0  0  0  0  0
   -1.6997   -0.3114    0.6572 H   0  0  0  0  0  0  0  0  0  0  0  0
   -0.9320    1.2848    0.5822 H   0  0  0  0  0  0  0  0  0  0  0  0
   -1.3774    0.4507   -0.9077 H   0  0  0  0  0  0  0  0  0  0  0  0
    0.7581   -0.4813    1.0862 H   0  0  0  0  0  0  0  0  0  0  0  0
    1.0900    0.2787   -0.4681 H   0  0  0  0  0  0  0  0  0  0  0  0
    0.0089   -1.5959   -1.3792 H   0  0  0  0  0  0  0  0  0  0  0  0
  1  2  1  0
  1  4  1  0
  1  5  1  0
  1  6  1  0
  2  3  1  0
  2  7  1  0
  2  8  1  0
  3  9  1  0
M  END
>  <reaction>  (1) 
rxn_775

>  <mol_properties>  (1) 
{"1": {"label": "donator", "atom_type": "Cs"}, "6": {"label": "d_hydrogen", "atom_type": "H0"}}

>  <type>  (1) 
r1h

$$$$

     RDKit          3D

  5  4  0  0  0  0  0  0  0  0999 V2000
    0.0397    0.7134    0.0000 C   0  0  0  0  0  3  0  0  0  0  0  0
    0.0458   -0.5870    0.0000 C   0  0  0  0  0  0  0  0  0  0  0  0
   -0.6871    1.5118    0.0000 H   0  0  0  0  0  0  0  0  0  0  0  0
   -0.8806   -1.1637    0.0000 H   0  0  0  0  0  0  0  0  0  0  0  0
    0.9690   -1.1600    0.0000 H   0  0  0  0  0  0  0  0  0  0  0  0
  1  2  2  3
  1  3  1  0
  2  4  1  0
  2  5  1  0
M  RAD  1   1   2
M  END
>  <reaction>  (2) 
rxn_775

>  <mol_properties>  (2) 
{"0": {"label": "acceptor", "atom_type": "Cd"}}

>  <type>  (2) 
r2

$$$$

     RDKit          3D

  6  5  0  0  0  0  0  0  0  0999 V2000
    0.6594    0.0438   -0.0050 C   0  0  0  0  0  0  0  0  0  0  0  0
   -0.6594   -0.0438    0.0050 C   0  0  0  0  0  0  0  0  0  0  0  0
    1.1706    0.8681   -0.4881 H   0  0  0  0  0  0  0  0  0  0  0  0
    1.2824   -0.7051    0.4696 H   0  0  0  0  0  0  0  0  0  0  0  0
   -1.2824    0.7051   -0.4696 H   0  0  0  0  0  0  0  0  0  0  0  0
   -1.1706   -0.8681    0.4881 H   0  0  0  0  0  0  0  0  0  0  0  0
  1  2  2  3
  1  3  1  0
  1  4  1  0
  2  5  1  0
  2  6  1  0
M  END
>  <reaction>  (3) 
rxn_775

>  <mol_properties>  (3) 
{"0": {"label": "acceptor", "atom_type": "Cd"}, "5": {"label": "a_hydrogen", "atom_type": "H0"}}

>  <type>  (3) 
r2h

$$$$

     RDKit          3D

 14 12  0  0  0  0  0  0  0  0999 V2000
    0.9134   -1.3465    0.7865 C   0  0  0  0  0  3  0  0  0  0  0  0
    1.7341   -0.4526    1.2860 C   0  0  0  0  0  0  0  0  0  0  0  0
    0.9702   -2.4273    0.8517 H   0  0  0  0  0  0  0  0  0  0  0  0
    2.6183   -0.7287    1.8576 H   0  0  0  0  0  0  0  0  0  0  0  0
    1.5611    0.6107    1.1400 H   0  0  0  0  0  0  0  0  0  0  0  0
   -0.6947    0.1708   -1.9014 C   0  0  0  0  0  0  0  0  0  0  0  0
   -1.0698    0.0001   -0.4581 C   0  0  0  0  0  0  0  0  0  0  0  0
   -1.0197    1.2279    0.2032 O   0  0  0  0  0  0  0  0  0  0  0  0
    0.3050    0.6002   -1.9826 H   0  0  0  0  0  0  0  0  0  0  0  0
   -0.6987   -0.7952   -2.4078 H   0  0  0  0  0  0  0  0  0  0  0  0
   -1.3971    0.8344   -2.4116 H   0  0  0  0  0  0  0  0  0  0  0  0
   -0.2248   -0.7531    0.0633 H   0  0  0  0  0  0  0  0  0  0  0  0
   -2.0286   -0.5128   -0.3173 H   0  0  0  0  0  0  0  0  0  0  0  0
   -1.2675    1.0983    1.1200 H   0  0  0  0  0  0  0  0  0  0  0  0
  1  2  2  3
  1  3  1  0
  2  4  1  0
  2  5  1  0
  6  7  1  0
  6  9  1  0
  6 10  1  0
  6 11  1  0
  7  8  1  0
  7 12  1  0
  7 13  1  0
  8 14  1  0
M  RAD  1   1   2
M  END
>  <reaction>  (4) 
rxn_775

>  <mol_properties>  (4) 
{"0": {"label": "*3", "atom_type": "Cd"}, "1": {"label": "*4", "atom_type": "Cd"}, "6": {"label": "*1", "atom_type": "Cs"}, "7": {"label": "*0", "atom_type": "O2s"}, "11": {"label": "*2", "atom_type": "H0"}}

>  <type>  (4) 
ts

$$$$

     RDKit          3D

 14 12  0  0  0  0  0  0  0  0999 V2000
    1.2040   -1.1294    0.6014 C   0  0  0  0  0  0  0  0  0  0  0  0
    2.0608   -0.4785    1.3689 C   0  0  0  0  0  0  0  0  0  0  0  0
    0.8786   -2.1354    0.8390 H   0  0  0  0  0  0  0  0  0  0  0  0
    2.4724   -0.9246    2.2666 H   0  0  0  0  0  0  0  0  0  0  0  0
    2.3862    0.5274    1.1313 H   0  0  0  0  0  0  0  0  0  0  0  0
   -0.9644    0.0084   -1.8175 C   0  0  0  0  0  0  0  0  0  0  0  0
   -0.9644    0.0084   -0.3000 C   0  0  0  0  0  3  0  0  0  0  0  0
   -0.9644    1.3116    0.2493 O   0  0  0  0  0  0  0  0  0  0  0  0
   -0.1083    0.5660   -2.1998 H   0  0  0  0  0  0  0  0  0  0  0  0
   -0.9159   -1.0121   -2.2028 H   0  0  0  0  0  0  0  0  0  0  0  0
   -1.8758    0.4686   -2.2087 H   0  0  0  0  0  0  0  0  0  0  0  0
    0.1234   -0.5624    0.1522 H   0  0  0  0  0  0  0  0  0  0  0  0
   -1.8166   -0.5713    0.0773 H   0  0  0  0  0  0  0  0  0  0  0  0
   -1.7463    1.7716   -0.0598 H   0  0  0  0  0  0  0  0  0  0  0  0
  1  2  2  3
  1  3  1  0
  1 12  1  0
  2  4  1  0
  2  5  1  0
  6  7  1  0
  6  9  1  0
  6 10  1  0
  6 11  1  0
  7  8  1  0
  7 13  1  0
  8 14  1  0
M  RAD  1   7   2
M  END
>  <reaction>  (5) 
rxn_775

>  <mol_properties>  (5) 
{"0": {"label": "*3", "atom_type": "Cd"}, "1": {"label": "*4", "atom_type": "Cd"}, "6": {"label": "*1", "atom_type": "Cs"}, "7": {"label": "*0", "atom_type": "O2s"}, "11": {"label": "*2", "atom_type": "H0"}}

>  <type>  (5) 
unop_1

>  <geom_source>  (5) 
Heuristics

$$$$

     RDKit          3D

 14 12  0  0  0  0  0  0  0  0999 V2000
    1.1430   -1.0154    0.8840 C   0  0  0  0  0  0  0  0  0  0  0  0
    2.2787   -0.9759    0.2089 C   0  0  0  0  0  0  0  0  0  0  0  0
    1.1173   -1.2602    1.9393 H   0  0  0  0  0  0  0  0  0  0  0  0
    3.2297   -1.1868    0.6836 H   0  0  0  0  0  0  0  0  0  0  0  0
    2.3044   -0.7311   -0.8464 H   0  0  0  0  0  0  0  0  0  0  0  0
   -1.0253    0.1225   -1.5350 C   0  0  0  0  0  0  0  0  0  0  0  0
   -1.0253    0.1225   -0.0174 C   0  0  0  0  0  3  0  0  0  0  0  0
   -1.0253    1.4257    0.5319 O   0  0  0  0  0  0  0  0  0  0  0  0
   -0.1692    0.6801   -1.9173 H   0  0  0  0  0  0  0  0  0  0  0  0
   -0.9769   -0.8981   -1.9202 H   0  0  0  0  0  0  0  0  0  0  0  0
   -1.9367    0.5827   -1.9261 H   0  0  0  0  0  0  0  0  0  0  0  0
    0.0625   -0.4483    0.4348 H   0  0  0  0  0  0  0  0  0  0  0  0
   -1.8775   -0.4572    0.3598 H   0  0  0  0  0  0  0  0  0  0  0  0
   -1.8072    1.8857    0.2228 H   0  0  0  0  0  0  0  0  0  0  0  0
  1  2  2  3
  1  3  1  0
  1 12  1  0
  2  4  1  0
  2  5  1  0
  6  7  1  0
  6  9  1  0
  6 10  1  0
  6 11  1  0
  7  8  1  0
  7 13  1  0
  8 14  1  0
M  RAD  1   7   2
M  END
>  <reaction>  (6) 
rxn_775

>  <mol_properties>  (6) 
{"0": {"label": "*3", "atom_type": "Cd"}, "1": {"label": "*4", "atom_type": "Cd"}, "6": {"label": "*1", "atom_type": "Cs"}, "7": {"label": "*0", "atom_type": "O2s"}, "11": {"label": "*2", "atom_type": "H0"}}

>  <type>  (6) 
unop_2

>  <geom_source>  (6) 
Heuristics

$$$$

     RDKit          3D

 14 12  0  0  0  0  0  0  0  0999 V2000
    1.2643   -1.0683    0.5305 C   0  0  0  0  0  0  0  0  0  0  0  0
    1.8037   -0.7159    1.6845 C   0  0  0  0  0  0  0  0  0  0  0  0
    1.2515   -2.1004    0.2006 H   0  0  0  0  0  0  0  0  0  0  0  0
    2.2549   -1.4450    2.3472 H   0  0  0  0  0  0  0  0  0  0  0  0
    1.8166    0.3162    2.0144 H   0  0  0  0  0  0  0  0  0  0  0  0
   -0.9040    0.0696   -1.8884 C   0  0  0  0  0  0  0  0  0  0  0  0
   -0.9040    0.0696   -0.3709 C   0  0  0  0  0  3  0  0  0  0  0  0
   -0.9040    1.3728    0.1784 O   0  0  0  0  0  0  0  0  0  0  0  0
   -0.0480    0.6272   -2.2707 H   0  0  0  0  0  0  0  0  0  0  0  0
   -0.8556   -0.9510   -2.2737 H   0  0  0  0  0  0  0  0  0  0  0  0
   -1.8155    0.5298   -2.2796 H   0  0  0  0  0  0  0  0  0  0  0  0
    0.1837   -0.5012    0.0813 H   0  0  0  0  0  0  0  0  0  0  0  0
   -1.7562   -0.5101    0.0064 H   0  0  0  0  0  0  0  0  0  0  0  0
   -1.6860    1.8328   -0.1307 H   0  0  0  0  0  0  0  0  0  0  0  0
  1  2  2  3
  1  3  1  0
  1 12  1  0
  2  4  1  0
  2  5  1  0
  6  7  1  0
  6  9  1  0
  6 10  1  0
  6 11  1  0
  7  8  1  0
  7 13  1  0
  8 14  1  0
M  RAD  1   7   2
M  END
>  <reaction>  (7) 
rxn_775

>  <mol_properties>  (7) 
{"0": {"label": "*3", "atom_type": "Cd"}, "1": {"label": "*4", "atom_type": "Cd"}, "6": {"label": "*1", "atom_type": "Cs"}, "7": {"label": "*0", "atom_type": "O2s"}, "11": {"label": "*2", "atom_type": "H0"}}

>  <type>  (7) 
unop_3

>  <geom_source>  (7) 
Heuristics

$$$$

     RDKit          3D

 14 12  0  0  0  0  0  0  0  0999 V2000
    1.3100   -0.7612    0.8067 C   0  0  0  0  0  0  0  0  0  0  0  0
    1.6053   -2.0167    0.5182 C   0  0  0  0  0  0  0  0  0  0  0  0
    1.5914   -0.3140    1.7528 H   0  0  0  0  0  0  0  0  0  0  0  0
    2.1408   -2.6495    1.2161 H   0  0  0  0  0  0  0  0  0  0  0  0
    1.3238   -2.4639   -0.4279 H   0  0  0  0  0  0  0  0  0  0  0  0
   -0.8584    0.3767   -1.6122 C   0  0  0  0  0  0  0  0  0  0  0  0
   -0.8584    0.3767   -0.0947 C   0  0  0  0  0  3  0  0  0  0  0  0
   -0.8584    1.6799    0.4546 O   0  0  0  0  0  0  0  0  0  0  0  0
   -0.0023    0.9343   -1.9945 H   0  0  0  0  0  0  0  0  0  0  0  0
   -0.8099   -0.6438   -1.9974 H   0  0  0  0  0  0  0  0  0  0  0  0
   -1.7698    0.8369   -2.0034 H   0  0  0  0  0  0  0  0  0  0  0  0
    0.2294   -0.1941    0.3575 H   0  0  0  0  0  0  0  0  0  0  0  0
   -1.7106   -0.2030    0.2826 H   0  0  0  0  0  0  0  0  0  0  0  0
   -1.6403    2.1399    0.1456 H   0  0  0  0  0  0  0  0  0  0  0  0
  1  2  2  3
  1  3  1  0
  1 12  1  0
  2  4  1  0
  2  5  1  0
  6  7  1  0
  6  9  1  0
  6 10  1  0
  6 11  1  0
  7  8  1  0
  7 13  1  0
  8 14  1  0
M  RAD  1   7   2
M  END
>  <reaction>  (8) 
rxn_775

>  <mol_properties>  (8) 
{"0": {"label": "*3", "atom_type": "Cd"}, "1": {"label": "*4", "atom_type": "Cd"}, "6": {"label": "*1", "atom_type": "Cs"}, "7": {"label": "*0", "atom_type": "O2s"}, "11": {"label": "*2", "atom_type": "H0"}}

>  <type>  (8) 
unop_4

>  <geom_source>  (8) 
Heuristics

$$$$

     RDKit          3D

 14 12  0  0  0  0  0  0  0  0999 V2000
    1.3171   -0.9809    0.5073 C   0  0  0  0  0  0  0  0  0  0  0  0
    1.5490   -1.1026    1.8029 C   0  0  0  0  0  0  0  0  0  0  0  0
    2.0181   -1.3488   -0.2326 H   0  0  0  0  0  0  0  0  0  0  0  0
    2.4494   -1.5751    2.1772 H   0  0  0  0  0  0  0  0  0  0  0  0
    0.8480   -0.7347    2.5428 H   0  0  0  0  0  0  0  0  0  0  0  0
   -0.8512    0.1570   -1.9116 C   0  0  0  0  0  0  0  0  0  0  0  0
   -0.8512    0.1570   -0.3941 C   0  0  0  0  0  3  0  0  0  0  0  0
   -0.8512    1.4602    0.1553 O   0  0  0  0  0  0  0  0  0  0  0  0
    0.0048    0.7146   -2.2939 H   0  0  0  0  0  0  0  0  0  0  0  0
   -0.8028   -0.8636   -2.2968 H   0  0  0  0  0  0  0  0  0  0  0  0
   -1.7627    0.6172   -2.3028 H   0  0  0  0  0  0  0  0  0  0  0  0
    0.2365   -0.4138    0.0581 H   0  0  0  0  0  0  0  0  0  0  0  0
   -1.7034   -0.4227   -0.0168 H   0  0  0  0  0  0  0  0  0  0  0  0
   -1.6332    1.9202   -0.1538 H   0  0  0  0  0  0  0  0  0  0  0  0
  1  2  2  3
  1  3  1  0
  1 12  1  0
  2  4  1  0
  2  5  1  0
  6  7  1  0
  6  9  1  0
  6 10  1  0
  6 11  1  0
  7  8  1  0
  7 13  1  0
  8 14  1  0
M  RAD  1   7   2
M  END
>  <reaction>  (9) 
rxn_775

>  <mol_properties>  (9) 
{"0": {"label": "*3", "atom_type": "Cd"}, "1": {"label": "*4", "atom_type": "Cd"}, "6": {"label": "*1", "atom_type": "Cs"}, "7": {"label": "*0", "atom_type": "O2s"}, "11": {"label": "*2", "atom_type": "H0"}}

>  <type>  (9) 
unop_5

>  <geom_source>  (9) 
Heuristics

$$$$

     RDKit          3D

 14 12  0  0  0  0  0  0  0  0999 V2000
    1.3571   -0.7561    0.7029 C   0  0  0  0  0  0  0  0  0  0  0  0
    1.4103   -2.0549    0.9424 C   0  0  0  0  0  0  0  0  0  0  0  0
    1.7963   -0.0346    1.3816 H   0  0  0  0  0  0  0  0  0  0  0  0
    1.8952   -2.4504    1.8271 H   0  0  0  0  0  0  0  0  0  0  0  0
    0.9711   -2.7765    0.2637 H   0  0  0  0  0  0  0  0  0  0  0  0
   -0.8112    0.3817   -1.7160 C   0  0  0  0  0  0  0  0  0  0  0  0
   -0.8112    0.3817   -0.1985 C   0  0  0  0  0  3  0  0  0  0  0  0
   -0.8112    1.6849    0.3508 O   0  0  0  0  0  0  0  0  0  0  0  0
    0.0448    0.9393   -2.0984 H   0  0  0  0  0  0  0  0  0  0  0  0
   -0.7628   -0.6388   -2.1013 H   0  0  0  0  0  0  0  0  0  0  0  0
   -1.7227    0.8419   -2.1072 H   0  0  0  0  0  0  0  0  0  0  0  0
    0.2766   -0.1891    0.2537 H   0  0  0  0  0  0  0  0  0  0  0  0
   -1.6634   -0.1980    0.1787 H   0  0  0  0  0  0  0  0  0  0  0  0
   -1.5932    2.1449    0.0417 H   0  0  0  0  0  0  0  0  0  0  0  0
  1  2  2  3
  1  3  1  0
  1 12  1  0
  2  4  1  0
  2  5  1  0
  6  7  1  0
  6  9  1  0
  6 10  1  0
  6 11  1  0
  7  8  1  0
  7 13  1  0
  8 14  1  0
M  RAD  1   7   2
M  END
>  <reaction>  (10) 
rxn_775

>  <mol_properties>  (10) 
{"0": {"label": "*3", "atom_type": "Cd"}, "1": {"label": "*4", "atom_type": "Cd"}, "6": {"label": "*1", "atom_type": "Cs"}, "7": {"label": "*0", "atom_type": "O2s"}, "11": {"label": "*2", "atom_type": "H0"}}

>  <type>  (10) 
unop_6

>  <geom_source>  (10) 
Heuristics

$$$$

     RDKit          3D

 14 12  0  0  0  0  0  0  0  0999 V2000
    1.3751   -0.8034    0.6014 C   0  0  0  0  0  0  0  0  0  0  0  0
    1.3262   -1.8783    1.3689 C   0  0  0  0  0  0  0  0  0  0  0  0
    2.0180    0.0359    0.8390 H   0  0  0  0  0  0  0  0  0  0  0  0
    1.9271   -1.9636    2.2666 H   0  0  0  0  0  0  0  0  0  0  0  0
    0.6832   -2.7176    1.1313 H   0  0  0  0  0  0  0  0  0  0  0  0
   -0.7932    0.3345   -1.8175 C   0  0  0  0  0  0  0  0  0  0  0  0
   -0.7932    0.3345   -0.3000 C   0  0  0  0  0  3  0  0  0  0  0  0
   -0.7932    1.6377    0.2493 O   0  0  0  0  0  0  0  0  0  0  0  0
    0.0628    0.8921   -2.1998 H   0  0  0  0  0  0  0  0  0  0  0  0
   -0.7448   -0.6861   -2.2028 H   0  0  0  0  0  0  0  0  0  0  0  0
   -1.7047    0.7947   -2.2087 H   0  0  0  0  0  0  0  0  0  0  0  0
    0.2945   -0.2363    0.1522 H   0  0  0  0  0  0  0  0  0  0  0  0
   -1.6454   -0.2452    0.0773 H   0  0  0  0  0  0  0  0  0  0  0  0
   -1.5752    2.0977   -0.0598 H   0  0  0  0  0  0  0  0  0  0  0  0
  1  2  2  3
  1  3  1  0
  1 12  1  0
  2  4  1  0
  2  5  1  0
  6  7  1  0
  6  9  1  0
  6 10  1  0
  6 11  1  0
  7  8  1  0
  7 13  1  0
  8 14  1  0
M  RAD  1   7   2
M  END
>  <reaction>  (11) 
rxn_775

>  <mol_properties>  (11) 
{"0": {"label": "*3", "atom_type": "Cd"}, "1": {"label": "*4", "atom_type": "Cd"}, "6": {"label": "*1", "atom_type": "Cs"}, "7": {"label": "*0", "atom_type": "O2s"}, "11": {"label": "*2", "atom_type": "H0"}}

>  <type>  (11) 
unop_7

>  <geom_source>  (11) 
Heuristics

$$$$

     RDKit          3D

 14 12  0  0  0  0  0  0  0  0999 V2000
    1.1549   -1.1415    0.7029 C   0  0  0  0  0  0  0  0  0  0  0  0
    2.2539   -0.4474    0.9424 C   0  0  0  0  0  0  0  0  0  0  0  0
    0.8106   -1.9129    1.3816 H   0  0  0  0  0  0  0  0  0  0  0  0
    2.8548   -0.6218    1.8271 H   0  0  0  0  0  0  0  0  0  0  0  0
    2.5982    0.3240    0.2637 H   0  0  0  0  0  0  0  0  0  0  0  0
   -1.0134   -0.0036   -1.7160 C   0  0  0  0  0  0  0  0  0  0  0  0
   -1.0134   -0.0036   -0.1985 C   0  0  0  0  0  3  0  0  0  0  0  0
   -1.0134    1.2996    0.3508 O   0  0  0  0  0  0  0  0  0  0  0  0
   -0.1574    0.5540   -2.0984 H   0  0  0  0  0  0  0  0  0  0  0  0
   -0.9650   -1.0242   -2.1013 H   0  0  0  0  0  0  0  0  0  0  0  0
   -1.9249    0.4566   -2.1072 H   0  0  0  0  0  0  0  0  0  0  0  0
    0.0743   -0.5744    0.2537 H   0  0  0  0  0  0  0  0  0  0  0  0
   -1.8656   -0.5833    0.1787 H   0  0  0  0  0  0  0  0  0  0  0  0
   -1.7954    1.7596    0.0417 H   0  0  0  0  0  0  0  0  0  0  0  0
  1  2  2  3
  1  3  1  0
  1 12  1  0
  2  4  1  0
  2  5  1  0
  6  7  1  0
  6  9  1  0
  6 10  1  0
  6 11  1  0
  7  8  1  0
  7 13  1  0
  8 14  1  0
M  RAD  1   7   2
M  END
>  <reaction>  (12) 
rxn_775

>  <mol_properties>  (12) 
{"0": {"label": "*3", "atom_type": "Cd"}, "1": {"label": "*4", "atom_type": "Cd"}, "6": {"label": "*1", "atom_type": "Cs"}, "7": {"label": "*0", "atom_type": "O2s"}, "11": {"label": "*2", "atom_type": "H0"}}

>  <type>  (12) 
unop_8

>  <geom_source>  (12) 
Heuristics

$$$$

     RDKit          3D

 14 12  0  0  0  0  0  0  0  0999 V2000
    1.2466   -0.8180    0.8840 C   0  0  0  0  0  0  0  0  0  0  0  0
    1.8593   -1.7750    0.2089 C   0  0  0  0  0  0  0  0  0  0  0  0
    1.4335   -0.6578    1.9393 H   0  0  0  0  0  0  0  0  0  0  0  0
    2.5732   -2.4378    0.6836 H   0  0  0  0  0  0  0  0  0  0  0  0
    1.6725   -1.9353   -0.8464 H   0  0  0  0  0  0  0  0  0  0  0  0
   -0.9217    0.3199   -1.5350 C   0  0  0  0  0  0  0  0  0  0  0  0
   -0.9217    0.3199   -0.0174 C   0  0  0  0  0  3  0  0  0  0  0  0
   -0.9217    1.6231    0.5319 O   0  0  0  0  0  0  0  0  0  0  0  0
   -0.0657    0.8774   -1.9173 H   0  0  0  0  0  0  0  0  0  0  0  0
   -0.8733   -0.7007   -1.9202 H   0  0  0  0  0  0  0  0  0  0  0  0
   -1.8331    0.7800   -1.9261 H   0  0  0  0  0  0  0  0  0  0  0  0
    0.1661   -0.2510    0.4348 H   0  0  0  0  0  0  0  0  0  0  0  0
   -1.7739   -0.2598    0.3598 H   0  0  0  0  0  0  0  0  0  0  0  0
   -1.7037    2.0831    0.2228 H   0  0  0  0  0  0  0  0  0  0  0  0
  1  2  2  3
  1  3  1  0
  1 12  1  0
  2  4  1  0
  2  5  1  0
  6  7  1  0
  6  9  1  0
  6 10  1  0
  6 11  1  0
  7  8  1  0
  7 13  1  0
  8 14  1  0
M  RAD  1   7   2
M  END
>  <reaction>  (13) 
rxn_775

>  <mol_properties>  (13) 
{"0": {"label": "*3", "atom_type": "Cd"}, "1": {"label": "*4", "atom_type": "Cd"}, "6": {"label": "*1", "atom_type": "Cs"}, "7": {"label": "*0", "atom_type": "O2s"}, "11": {"label": "*2", "atom_type": "H0"}}

>  <type>  (13) 
unop_9

>  <geom_source>  (13) 
Heuristics

$$$$

     RDKit          3D

 14 12  0  0  0  0  0  0  0  0999 V2000
    1.1322   -1.0998    0.8067 C   0  0  0  0  0  0  0  0  0  0  0  0
    2.3333   -0.6295    0.5182 C   0  0  0  0  0  0  0  0  0  0  0  0
    0.9242   -1.5855    1.7528 H   0  0  0  0  0  0  0  0  0  0  0  0
    3.1582   -0.7107    1.2161 H   0  0  0  0  0  0  0  0  0  0  0  0
    2.5413   -0.1439   -0.4279 H   0  0  0  0  0  0  0  0  0  0  0  0
   -1.0361    0.0381   -1.6122 C   0  0  0  0  0  0  0  0  0  0  0  0
   -1.0361    0.0381   -0.0947 C   0  0  0  0  0  3  0  0  0  0  0  0
   -1.0361    1.3413    0.4546 O   0  0  0  0  0  0  0  0  0  0  0  0
   -0.1800    0.5956   -1.9945 H   0  0  0  0  0  0  0  0  0  0  0  0
   -0.9877   -0.9825   -1.9974 H   0  0  0  0  0  0  0  0  0  0  0  0
   -1.9475    0.4982   -2.0034 H   0  0  0  0  0  0  0  0  0  0  0  0
    0.0517   -0.5328    0.3575 H   0  0  0  0  0  0  0  0  0  0  0  0
   -1.8883   -0.5417    0.2826 H   0  0  0  0  0  0  0  0  0  0  0  0
   -1.8180    1.8013    0.1456 H   0  0  0  0  0  0  0  0  0  0  0  0
  1  2  2  3
  1  3  1  0
  1 12  1  0
  2  4  1  0
  2  5  1  0
  6  7  1  0
  6  9  1  0
  6 10  1  0
  6 11  1  0
  7  8  1  0
  7 13  1  0
  8 14  1  0
M  RAD  1   7   2
M  END
>  <reaction>  (14) 
rxn_775

>  <mol_properties>  (14) 
{"0": {"label": "*3", "atom_type": "Cd"}, "1": {"label": "*4", "atom_type": "Cd"}, "6": {"label": "*1", "atom_type": "Cs"}, "7": {"label": "*0", "atom_type": "O2s"}, "11": {"label": "*2", "atom_type": "H0"}}

>  <type>  (14) 
unop_10

>  <geom_source>  (14) 
Heuristics

$$$$

     RDKit          3D

 14 12  0  0  0  0  0  0  0  0999 V2000
    1.3590   -0.8878    0.5305 C   0  0  0  0  0  0  0  0  0  0  0  0
    1.3756   -1.5319    1.6845 C   0  0  0  0  0  0  0  0  0  0  0  0
    2.2011   -0.2908    0.2006 H   0  0  0  0  0  0  0  0  0  0  0  0
    2.2318   -1.4889    2.3472 H   0  0  0  0  0  0  0  0  0  0  0  0
    0.5335   -2.1288    2.0144 H   0  0  0  0  0  0  0  0  0  0  0  0
   -0.8093    0.2501   -1.8884 C   0  0  0  0  0  0  0  0  0  0  0  0
   -0.8093    0.2501   -0.3709 C   0  0  0  0  0  3  0  0  0  0  0  0
   -0.8093    1.5533    0.1784 O   0  0  0  0  0  0  0  0  0  0  0  0
    0.0467    0.8077   -2.2707 H   0  0  0  0  0  0  0  0  0  0  0  0
   -0.7609   -0.7705   -2.2737 H   0  0  0  0  0  0  0  0  0  0  0  0
   -1.7207    0.7103   -2.2796 H   0  0  0  0  0  0  0  0  0  0  0  0
    0.2785   -0.3207    0.0813 H   0  0  0  0  0  0  0  0  0  0  0  0
   -1.6615   -0.3296    0.0064 H   0  0  0  0  0  0  0  0  0  0  0  0
   -1.5913    2.0133   -0.1307 H   0  0  0  0  0  0  0  0  0  0  0  0
  1  2  2  3
  1  3  1  0
  1 12  1  0
  2  4  1  0
  2  5  1  0
  6  7  1  0
  6  9  1  0
  6 10  1  0
  6 11  1  0
  7  8  1  0
  7 13  1  0
  8 14  1  0
M  RAD  1   7   2
M  END
>  <reaction>  (15) 
rxn_775

>  <mol_properties>  (15) 
{"0": {"label": "*3", "atom_type": "Cd"}, "1": {"label": "*4", "atom_type": "Cd"}, "6": {"label": "*1", "atom_type": "Cs"}, "7": {"label": "*0", "atom_type": "O2s"}, "11": {"label": "*2", "atom_type": "H0"}}

>  <type>  (15) 
unop_11

>  <geom_source>  (15) 
Heuristics

$$$$

     RDKit          3D

 14 12  0  0  0  0  0  0  0  0999 V2000
    1.1850   -0.9116    0.9125 C   0  0  0  0  0  0  0  0  0  0  0  0
    2.1053   -1.3945    0.0960 C   0  0  0  0  0  0  0  0  0  0  0  0
    1.2940   -0.9687    1.9891 H   0  0  0  0  0  0  0  0  0  0  0  0
    3.0058   -1.8671    0.4703 H   0  0  0  0  0  0  0  0  0  0  0  0
    1.9964   -1.3374   -0.9807 H   0  0  0  0  0  0  0  0  0  0  0  0
   -0.9833    0.2263   -1.5064 C   0  0  0  0  0  0  0  0  0  0  0  0
   -0.9833    0.2263    0.0111 C   0  0  0  0  0  3  0  0  0  0  0  0
   -0.9833    1.5295    0.5604 O   0  0  0  0  0  0  0  0  0  0  0  0
   -0.1272    0.7839   -1.8888 H   0  0  0  0  0  0  0  0  0  0  0  0
   -0.9349   -0.7943   -1.8917 H   0  0  0  0  0  0  0  0  0  0  0  0
   -1.8947    0.6865   -1.8976 H   0  0  0  0  0  0  0  0  0  0  0  0
    0.1045   -0.3445    0.4633 H   0  0  0  0  0  0  0  0  0  0  0  0
   -1.8355   -0.3534    0.3884 H   0  0  0  0  0  0  0  0  0  0  0  0
   -1.7652    1.9895    0.2513 H   0  0  0  0  0  0  0  0  0  0  0  0
  1  2  2  3
  1  3  1  0
  1 12  1  0
  2  4  1  0
  2  5  1  0
  6  7  1  0
  6  9  1  0
  6 10  1  0
  6 11  1  0
  7  8  1  0
  7 13  1  0
  8 14  1  0
M  RAD  1   7   2
M  END
>  <reaction>  (16) 
rxn_775

>  <mol_properties>  (16) 
{"0": {"label": "*3", "atom_type": "Cd"}, "1": {"label": "*4", "atom_type": "Cd"}, "6": {"label": "*1", "atom_type": "Cs"}, "7": {"label": "*0", "atom_type": "O2s"}, "11": {"label": "*2", "atom_type": "H0"}}

>  <type>  (16) 
unop_12

>  <geom_source>  (16) 
Heuristics

$$$$

     RDKit          3D

 14 11  0  0  0  0  0  0  0  0999 V2000
   -0.0387    0.1663   -0.8102 O   0  0  0  0  0  1  0  0  0  0  0  0
   -2.1658   -0.0176    0.2979 C   0  0  0  0  0  0  0  0  0  0  0  0
   -0.8595   -0.7014   -0.0779 C   0  0  0  0  0  2  0  0  0  0  0  0
    2.4712    0.6494    0.0078 C   0  0  0  0  0  3  0  0  0  0  0  0
    1.5622   -0.1119    0.6115 C   0  0  0  0  0  3  0  0  0  0  0  0
   -2.7343    0.2513   -0.6174 H   0  0  0  0  0  0  0  0  0  0  0  0
   -2.7783   -0.7061    0.9164 H   0  0  0  0  0  0  0  0  0  0  0  0
   -1.9544    0.9010    0.8843 H   0  0  0  0  0  0  0  0  0  0  0  0
   -1.0526   -1.6419   -0.6419 H   0  0  0  0  0  0  0  0  0  0  0  0
    3.3154    1.0407    0.5661 H   0  0  0  0  0  0  0  0  0  0  0  0
    2.3719    0.8825   -1.0471 H   0  0  0  0  0  0  0  0  0  0  0  0
    1.6587   -0.3468    1.6666 H   0  0  0  0  0  0  0  0  0  0  0  0
    0.6082   -0.5531   -0.0231 H   0  0  0  0  0  0  0  0  0  0  0  0
   -0.4042    0.1876   -1.7330 H   0  0  0  0  0  0  0  0  0  0  0  0
  1 14  1  0
  2  6  1  0
  2  3  1  0
  2  8  1  0
  2  7  1  0
  3  9  1  0
  4  5  1  0
  4 11  1  0
  4 10  1  0
  5 12  1  0
  5 13  1  0
M  RAD  4   1   2   3   3   4   2   5   2
M  END
>  <reaction>  (17) 
rxn_775

>  <mol_properties>  (17) 
{"0": {"label": "*3", "atom_type": "Cd"}, "1": {"label": "*4", "atom_type": "Cd"}, "6": {"label": "*1", "atom_type": "Cs"}, "7": {"label": "*0", "atom_type": "O2s"}, "11": {"label": "*2", "atom_type": "H0"}}

>  <type>  (17) 
unop_13

>  <geom_source>  (17) 
AutoTST

$$$$
