
     RDKit          3D

 14 13  0  0  0  0  0  0  0  0999 V2000
   -0.7647   -1.2351   -0.0349 C   0  0  0  0  0  0  0  0  0  0  0  0
    0.0570   -0.0126    0.3624 C   0  0  0  0  0  0  0  0  0  0  0  0
    1.4161   -0.0194   -0.3307 C   0  0  0  0  0  0  0  0  0  0  0  0
   -0.7022    1.2765    0.0629 C   0  0  0  0  0  0  0  0  0  0  0  0
   -0.2387   -2.1618    0.2039 H   0  0  0  0  0  0  0  0  0  0  0  0
   -0.9625   -1.2315   -1.1108 H   0  0  0  0  0  0  0  0  0  0  0  0
   -1.7273   -1.2512    0.4806 H   0  0  0  0  0  0  0  0  0  0  0  0
    0.2295   -0.0590    1.4432 H   0  0  0  0  0  0  0  0  0  0  0  0
    1.2933    0.0259   -1.4168 H   0  0  0  0  0  0  0  0  0  0  0  0
    2.0206    0.8382   -0.0278 H   0  0  0  0  0  0  0  0  0  0  0  0
    1.9767   -0.9268   -0.0965 H   0  0  0  0  0  0  0  0  0  0  0  0
   -1.6638    1.3002    0.5800 H   0  0  0  0  0  0  0  0  0  0  0  0
   -0.8978    1.3663   -1.0096 H   0  0  0  0  0  0  0  0  0  0  0  0
   -0.1313    2.1545    0.3721 H   0  0  0  0  0  0  0  0  0  0  0  0
  1  2  1  0
  1  5  1  0
  1  6  1  0
  1  7  1  0
  2  3  1  0
  2  4  1  0
  2  8  1  0
  3  9  1  0
  3 10  1  0
  3 11  1  0
  4 12  1  0
  4 13  1  0
  4 14  1  0
M  END
>  <reaction>  (1) 
rxn_969

>  <mol_properties>  (1) 
{"1": {"label": "donator", "atom_type": "Cs"}, "7": {"label": "d_hydrogen", "atom_type": "H0"}}

>  <type>  (1) 
r1h

$$$$

     RDKit          3D

  8  7  0  0  0  0  0  0  0  0999 V2000
    1.4038   -0.4003    0.0140 C   0  0  0  0  0  0  0  0  0  0  0  0
    0.2804    0.0563    0.4920 C   0  0  0  0  0  3  0  0  0  0  0  0
   -1.0935    0.3323    0.0625 C   0  0  0  0  0  0  0  0  0  0  0  0
    1.4898   -0.7154   -1.0285 H   0  0  0  0  0  0  0  0  0  0  0  0
    2.2990   -0.4891    0.6210 H   0  0  0  0  0  0  0  0  0  0  0  0
   -1.3399    1.3883    0.1900 H   0  0  0  0  0  0  0  0  0  0  0  0
   -1.2285    0.0762   -0.9967 H   0  0  0  0  0  0  0  0  0  0  0  0
   -1.8111   -0.2482    0.6457 H   0  0  0  0  0  0  0  0  0  0  0  0
  1  2  2  3
  1  4  1  0
  1  5  1  0
  2  3  1  0
  3  6  1  0
  3  7  1  0
  3  8  1  0
M  RAD  1   2   2
M  END
>  <reaction>  (2) 
rxn_969

>  <mol_properties>  (2) 
{"1": {"label": "acceptor", "atom_type": "Cd"}}

>  <type>  (2) 
r2

$$$$

     RDKit          3D

  9  8  0  0  0  0  0  0  0  0999 V2000
    1.1303   -0.2933   -0.7510 C   0  0  0  0  0  0  0  0  0  0  0  0
    0.2866    0.4560   -0.0588 C   0  0  0  0  0  0  0  0  0  0  0  0
   -0.9719   -0.0331    0.5823 C   0  0  0  0  0  0  0  0  0  0  0  0
    2.0274    0.1230   -1.1916 H   0  0  0  0  0  0  0  0  0  0  0  0
    0.9532   -1.3530   -0.9023 H   0  0  0  0  0  0  0  0  0  0  0  0
    0.5065    1.5132    0.0659 H   0  0  0  0  0  0  0  0  0  0  0  0
   -0.9526    0.1426    1.6610 H   0  0  0  0  0  0  0  0  0  0  0  0
   -1.1182   -1.1002    0.4106 H   0  0  0  0  0  0  0  0  0  0  0  0
   -1.8412    0.5010    0.1901 H   0  0  0  0  0  0  0  0  0  0  0  0
  1  2  2  3
  1  4  1  0
  1  5  1  0
  2  3  1  0
  2  6  1  0
  3  7  1  0
  3  8  1  0
  3  9  1  0
M  END
>  <reaction>  (3) 
rxn_969

>  <mol_properties>  (3) 
{"1": {"label": "acceptor", "atom_type": "Cd"}, "8": {"label": "a_hydrogen", "atom_type": "H0"}}

>  <type>  (3) 
r2h

$$$$

     RDKit          3D

 22 20  0  0  0  0  0  0  0  0999 V2000
    2.2691   -0.8478   -0.3351 C   0  0  0  0  0  0  0  0  0  0  0  0
    1.3054   -0.6731    0.5412 C   0  0  0  0  0  3  0  0  0  0  0  0
    1.2252   -1.0019    1.9829 C   0  0  0  0  0  0  0  0  0  0  0  0
    3.2183   -1.3060   -0.0578 H   0  0  0  0  0  0  0  0  0  0  0  0
    2.1602   -0.5435   -1.3706 H   0  0  0  0  0  0  0  0  0  0  0  0
    0.3967   -1.6869    2.1790 H   0  0  0  0  0  0  0  0  0  0  0  0
    2.1490   -1.4695    2.3393 H   0  0  0  0  0  0  0  0  0  0  0  0
    1.0455   -0.1022    2.5765 H   0  0  0  0  0  0  0  0  0  0  0  0
   -0.6307    0.7290   -1.8890 C   0  0  0  0  0  0  0  0  0  0  0  0
   -0.9270    0.4837   -0.4265 C   0  0  0  0  0  0  0  0  0  0  0  0
   -1.0913    1.7535    0.3783 C   0  0  0  0  0  0  0  0  0  0  0  0
   -2.0259   -0.5290   -0.1938 C   0  0  0  0  0  0  0  0  0  0  0  0
    0.2309    1.3886   -2.0124 H   0  0  0  0  0  0  0  0  0  0  0  0
   -1.4853    1.2034   -2.3857 H   0  0  0  0  0  0  0  0  0  0  0  0
   -0.4223   -0.2067   -2.4123 H   0  0  0  0  0  0  0  0  0  0  0  0
    0.1209   -0.0601    0.0311 H   0  0  0  0  0  0  0  0  0  0  0  0
   -1.9750    2.3126    0.0497 H   0  0  0  0  0  0  0  0  0  0  0  0
   -1.2164    1.5357    1.4414 H   0  0  0  0  0  0  0  0  0  0  0  0
   -0.2239    2.4074    0.2654 H   0  0  0  0  0  0  0  0  0  0  0  0
   -1.8113   -1.4691   -0.7063 H   0  0  0  0  0  0  0  0  0  0  0  0
   -2.9861   -0.1565   -0.5693 H   0  0  0  0  0  0  0  0  0  0  0  0
   -2.1493   -0.7427    0.8703 H   0  0  0  0  0  0  0  0  0  0  0  0
  1  2  2  3
  1  4  1  0
  1  5  1  0
  2  3  1  0
  3  6  1  0
  3  7  1  0
  3  8  1  0
  9 10  1  0
  9 13  1  0
  9 14  1  0
  9 15  1  0
 10 11  1  0
 10 12  1  0
 10 16  1  0
 11 17  1  0
 11 18  1  0
 11 19  1  0
 12 20  1  0
 12 21  1  0
 12 22  1  0
M  RAD  1   2   2
M  END
>  <reaction>  (4) 
rxn_969

>  <mol_properties>  (4) 
{"0": {"label": "*4", "atom_type": "Cd"}, "1": {"label": "*3", "atom_type": "Cd"}, "8": {"label": "*0", "atom_type": "Cs"}, "9": {"label": "*1", "atom_type": "Cs"}, "15": {"label": "*2", "atom_type": "H0"}}

>  <type>  (4) 
ts

$$$$

     RDKit          3D

 22 20  0  0  0  0  0  0  0  0999 V2000
    2.2557    0.0263    1.1342 C   0  0  0  0  0  0  0  0  0  0  0  0
    1.4053   -0.6589    0.3860 C   0  0  0  0  0  0  0  0  0  0  0  0
    0.9878   -2.0727    0.6329 C   0  0  0  0  0  0  0  0  0  0  0  0
    2.7218   -0.4142    2.0093 H   0  0  0  0  0  0  0  0  0  0  0  0
    2.5174    1.0507    0.9008 H   0  0  0  0  0  0  0  0  0  0  0  0
    1.2370   -2.7067   -0.2220 H   0  0  0  0  0  0  0  0  0  0  0  0
    1.4745   -2.4833    1.5184 H   0  0  0  0  0  0  0  0  0  0  0  0
   -0.0942   -2.1401    0.7722 H   0  0  0  0  0  0  0  0  0  0  0  0
   -0.7935    0.5134   -1.9458 C   0  0  0  0  0  0  0  0  0  0  0  0
   -0.7935    0.5134   -0.4201 C   0  0  0  0  0  3  0  0  0  0  0  0
   -0.7935    1.9381    0.1260 C   0  0  0  0  0  0  0  0  0  0  0  0
   -1.9764   -0.2807    0.1260 C   0  0  0  0  0  0  0  0  0  0  0  0
    0.0671    1.0557   -2.3428 H   0  0  0  0  0  0  0  0  0  0  0  0
   -1.6975    0.9953   -2.3296 H   0  0  0  0  0  0  0  0  0  0  0  0
   -0.7640   -0.5034   -2.3428 H   0  0  0  0  0  0  0  0  0  0  0  0
    0.3101   -0.0750   -0.0155 H   0  0  0  0  0  0  0  0  0  0  0  0
   -1.6975    2.4689   -0.1867 H   0  0  0  0  0  0  0  0  0  0  0  0
   -0.7641    1.9449    1.2176 H   0  0  0  0  0  0  0  0  0  0  0  0
    0.0672    2.5029   -0.2382 H   0  0  0  0  0  0  0  0  0  0  0  0
   -1.9656   -1.3101   -0.2383 H   0  0  0  0  0  0  0  0  0  0  0  0
   -2.9210    0.1740   -0.1867 H   0  0  0  0  0  0  0  0  0  0  0  0
   -1.9656   -0.3090    1.2176 H   0  0  0  0  0  0  0  0  0  0  0  0
  1  2  2  3
  1  4  1  0
  1  5  1  0
  2  3  1  0
  2 16  1  0
  3  6  1  0
  3  7  1  0
  3  8  1  0
  9 10  1  0
  9 13  1  0
  9 14  1  0
  9 15  1  0
 10 11  1  0
 10 12  1  0
 11 17  1  0
 11 18  1  0
 11 19  1  0
 12 20  1  0
 12 21  1  0
 12 22  1  0
M  RAD  1  10   2
M  END
>  <reaction>  (5) 
rxn_969

>  <mol_properties>  (5) 
{"0": {"label": "*4", "atom_type": "Cd"}, "1": {"label": "*3", "atom_type": "Cd"}, "8": {"label": "*0", "atom_type": "Cs"}, "9": {"label": "*1", "atom_type": "Cs"}, "15": {"label": "*2", "atom_type": "H0"}}

>  <type>  (5) 
unop_1

>  <geom_source>  (5) 
Heuristics

$$$$

     RDKit          3D

 22 20  0  0  0  0  0  0  0  0999 V2000
    2.3866   -0.6531   -0.3391 C   0  0  0  0  0  0  0  0  0  0  0  0
    1.3056   -0.7341    0.4206 C   0  0  0  0  0  0  0  0  0  0  0  0
    1.2968   -1.1083    1.8677 C   0  0  0  0  0  0  0  0  0  0  0  0
    3.3744   -0.8620    0.0580 H   0  0  0  0  0  0  0  0  0  0  0  0
    2.3253   -0.3757   -1.3839 H   0  0  0  0  0  0  0  0  0  0  0  0
    0.6841   -1.9978    2.0357 H   0  0  0  0  0  0  0  0  0  0  0  0
    2.3043   -1.3111    2.2331 H   0  0  0  0  0  0  0  0  0  0  0  0
    0.8653   -0.3076    2.4738 H   0  0  0  0  0  0  0  0  0  0  0  0
   -0.8933    0.4382   -1.9112 C   0  0  0  0  0  0  0  0  0  0  0  0
   -0.8933    0.4382   -0.3855 C   0  0  0  0  0  3  0  0  0  0  0  0
   -0.8933    1.8628    0.1605 C   0  0  0  0  0  0  0  0  0  0  0  0
   -2.0761   -0.3559    0.1605 C   0  0  0  0  0  0  0  0  0  0  0  0
   -0.0326    0.9805   -2.3083 H   0  0  0  0  0  0  0  0  0  0  0  0
   -1.7973    0.9201   -2.2950 H   0  0  0  0  0  0  0  0  0  0  0  0
   -0.8637   -0.5787   -2.3083 H   0  0  0  0  0  0  0  0  0  0  0  0
    0.2104   -0.1502    0.0191 H   0  0  0  0  0  0  0  0  0  0  0  0
   -1.7972    2.3937   -0.1521 H   0  0  0  0  0  0  0  0  0  0  0  0
   -0.8638    1.8696    1.2521 H   0  0  0  0  0  0  0  0  0  0  0  0
   -0.0325    2.4276   -0.2037 H   0  0  0  0  0  0  0  0  0  0  0  0
   -2.0653   -1.3853   -0.2038 H   0  0  0  0  0  0  0  0  0  0  0  0
   -3.0207    0.0987   -0.1522 H   0  0  0  0  0  0  0  0  0  0  0  0
   -2.0653   -0.3842    1.2521 H   0  0  0  0  0  0  0  0  0  0  0  0
  1  2  2  3
  1  4  1  0
  1  5  1  0
  2  3  1  0
  2 16  1  0
  3  6  1  0
  3  7  1  0
  3  8  1  0
  9 10  1  0
  9 13  1  0
  9 14  1  0
  9 15  1  0
 10 11  1  0
 10 12  1  0
 11 17  1  0
 11 18  1  0
 11 19  1  0
 12 20  1  0
 12 21  1  0
 12 22  1  0
M  RAD  1  10   2
M  END
>  <reaction>  (6) 
rxn_969

>  <mol_properties>  (6) 
{"0": {"label": "*4", "atom_type": "Cd"}, "1": {"label": "*3", "atom_type": "Cd"}, "8": {"label": "*0", "atom_type": "Cs"}, "9": {"label": "*1", "atom_type": "Cs"}, "15": {"label": "*2", "atom_type": "H0"}}

>  <type>  (6) 
unop_2

>  <geom_source>  (6) 
Heuristics

$$$$

     RDKit          3D

 22 20  0  0  0  0  0  0  0  0999 V2000
    1.9187   -0.2436    1.6042 C   0  0  0  0  0  0  0  0  0  0  0  0
    1.3834   -0.6156    0.4521 C   0  0  0  0  0  0  0  0  0  0  0  0
    1.3995   -2.0065   -0.0950 C   0  0  0  0  0  0  0  0  0  0  0  0
    2.4233   -0.9548    2.2497 H   0  0  0  0  0  0  0  0  0  0  0  0
    1.8728    0.7831    1.9449 H   0  0  0  0  0  0  0  0  0  0  0  0
    1.9002   -2.0366   -1.0662 H   0  0  0  0  0  0  0  0  0  0  0  0
    1.9136   -2.6937    0.5781 H   0  0  0  0  0  0  0  0  0  0  0  0
    0.3823   -2.3745   -0.2518 H   0  0  0  0  0  0  0  0  0  0  0  0
   -0.8155    0.5567   -1.8797 C   0  0  0  0  0  0  0  0  0  0  0  0
   -0.8155    0.5567   -0.3540 C   0  0  0  0  0  3  0  0  0  0  0  0
   -0.8155    1.9813    0.1921 C   0  0  0  0  0  0  0  0  0  0  0  0
   -1.9983   -0.2374    0.1920 C   0  0  0  0  0  0  0  0  0  0  0  0
    0.0452    1.0990   -2.2768 H   0  0  0  0  0  0  0  0  0  0  0  0
   -1.7195    1.0386   -2.2635 H   0  0  0  0  0  0  0  0  0  0  0  0
   -0.7859   -0.4602   -2.2767 H   0  0  0  0  0  0  0  0  0  0  0  0
    0.2882   -0.0317    0.0506 H   0  0  0  0  0  0  0  0  0  0  0  0
   -1.7194    2.5122   -0.1206 H   0  0  0  0  0  0  0  0  0  0  0  0
   -0.7860    1.9881    1.2837 H   0  0  0  0  0  0  0  0  0  0  0  0
    0.0453    2.5461   -0.1722 H   0  0  0  0  0  0  0  0  0  0  0  0
   -1.9875   -1.2668   -0.1722 H   0  0  0  0  0  0  0  0  0  0  0  0
   -2.9429    0.2173   -0.1206 H   0  0  0  0  0  0  0  0  0  0  0  0
   -1.9875   -0.2657    1.2836 H   0  0  0  0  0  0  0  0  0  0  0  0
  1  2  2  3
  1  4  1  0
  1  5  1  0
  2  3  1  0
  2 16  1  0
  3  6  1  0
  3  7  1  0
  3  8  1  0
  9 10  1  0
  9 13  1  0
  9 14  1  0
  9 15  1  0
 10 11  1  0
 10 12  1  0
 11 17  1  0
 11 18  1  0
 11 19  1  0
 12 20  1  0
 12 21  1  0
 12 22  1  0
M  RAD  1  10   2
M  END
>  <reaction>  (7) 
rxn_969

>  <mol_properties>  (7) 
{"0": {"label": "*4", "atom_type": "Cd"}, "1": {"label": "*3", "atom_type": "Cd"}, "8": {"label": "*0", "atom_type": "Cs"}, "9": {"label": "*1", "atom_type": "Cs"}, "15": {"label": "*2", "atom_type": "H0"}}

>  <type>  (7) 
unop_3

>  <geom_source>  (7) 
Heuristics

$$$$

     RDKit          3D

 22 20  0  0  0  0  0  0  0  0999 V2000
    1.5816   -1.9487    0.0307 C   0  0  0  0  0  0  0  0  0  0  0  0
    1.3614   -0.6928    0.3863 C   0  0  0  0  0  0  0  0  0  0  0  0
    1.8112   -0.0701    1.6686 C   0  0  0  0  0  0  0  0  0  0  0  0
    2.1247   -2.6324    0.6746 H   0  0  0  0  0  0  0  0  0  0  0  0
    1.2282   -2.3399   -0.9151 H   0  0  0  0  0  0  0  0  0  0  0  0
    0.9577    0.3052    2.2391 H   0  0  0  0  0  0  0  0  0  0  0  0
    2.3527   -0.7842    2.2902 H   0  0  0  0  0  0  0  0  0  0  0  0
    2.4647    0.7850    1.4774 H   0  0  0  0  0  0  0  0  0  0  0  0
   -0.8374    0.4795   -1.9455 C   0  0  0  0  0  0  0  0  0  0  0  0
   -0.8374    0.4795   -0.4198 C   0  0  0  0  0  3  0  0  0  0  0  0
   -0.8374    1.9042    0.1263 C   0  0  0  0  0  0  0  0  0  0  0  0
   -2.0202   -0.3145    0.1262 C   0  0  0  0  0  0  0  0  0  0  0  0
    0.0233    1.0218   -2.3426 H   0  0  0  0  0  0  0  0  0  0  0  0
   -1.7414    0.9614   -2.3293 H   0  0  0  0  0  0  0  0  0  0  0  0
   -0.8079   -0.5373   -2.3425 H   0  0  0  0  0  0  0  0  0  0  0  0
    0.2663   -0.1089   -0.0152 H   0  0  0  0  0  0  0  0  0  0  0  0
   -1.7414    2.4350   -0.1864 H   0  0  0  0  0  0  0  0  0  0  0  0
   -0.8079    1.9110    1.2179 H   0  0  0  0  0  0  0  0  0  0  0  0
    0.0233    2.4690   -0.2379 H   0  0  0  0  0  0  0  0  0  0  0  0
   -2.0094   -1.3440   -0.2380 H   0  0  0  0  0  0  0  0  0  0  0  0
   -2.9648    0.1401   -0.1864 H   0  0  0  0  0  0  0  0  0  0  0  0
   -2.0095   -0.3429    1.2178 H   0  0  0  0  0  0  0  0  0  0  0  0
  1  2  2  3
  1  4  1  0
  1  5  1  0
  2  3  1  0
  2 16  1  0
  3  6  1  0
  3  7  1  0
  3  8  1  0
  9 10  1  0
  9 13  1  0
  9 14  1  0
  9 15  1  0
 10 11  1  0
 10 12  1  0
 11 17  1  0
 11 18  1  0
 11 19  1  0
 12 20  1  0
 12 21  1  0
 12 22  1  0
M  RAD  1  10   2
M  END
>  <reaction>  (8) 
rxn_969

>  <mol_properties>  (8) 
{"0": {"label": "*4", "atom_type": "Cd"}, "1": {"label": "*3", "atom_type": "Cd"}, "8": {"label": "*0", "atom_type": "Cs"}, "9": {"label": "*1", "atom_type": "Cs"}, "15": {"label": "*2", "atom_type": "H0"}}

>  <type>  (8) 
unop_4

>  <geom_source>  (8) 
Heuristics

$$$$

     RDKit          3D

 22 20  0  0  0  0  0  0  0  0999 V2000
    1.5073   -0.8036    1.8142 C   0  0  0  0  0  0  0  0  0  0  0  0
    1.2871   -0.6862    0.5142 C   0  0  0  0  0  0  0  0  0  0  0  0
    2.2031   -1.1746   -0.5613 C   0  0  0  0  0  0  0  0  0  0  0  0
    2.4035   -1.2814    2.1956 H   0  0  0  0  0  0  0  0  0  0  0  0
    0.8018   -0.4275    2.5445 H   0  0  0  0  0  0  0  0  0  0  0  0
    2.5225   -0.3502   -1.2040 H   0  0  0  0  0  0  0  0  0  0  0  0
    3.0920   -1.6485   -0.1430 H   0  0  0  0  0  0  0  0  0  0  0  0
    1.6967   -1.8992   -1.2040 H   0  0  0  0  0  0  0  0  0  0  0  0
   -0.9117    0.4861   -1.8176 C   0  0  0  0  0  0  0  0  0  0  0  0
   -0.9117    0.4861   -0.2919 C   0  0  0  0  0  3  0  0  0  0  0  0
   -0.9117    1.9107    0.2542 C   0  0  0  0  0  0  0  0  0  0  0  0
   -2.0946   -0.3080    0.2541 C   0  0  0  0  0  0  0  0  0  0  0  0
   -0.0511    1.0284   -2.2147 H   0  0  0  0  0  0  0  0  0  0  0  0
   -1.8157    0.9680   -2.2014 H   0  0  0  0  0  0  0  0  0  0  0  0
   -0.8822   -0.5308   -2.2146 H   0  0  0  0  0  0  0  0  0  0  0  0
    0.1919   -0.1023    0.1127 H   0  0  0  0  0  0  0  0  0  0  0  0
   -1.8157    2.4416   -0.0585 H   0  0  0  0  0  0  0  0  0  0  0  0
   -0.8823    1.9175    1.3458 H   0  0  0  0  0  0  0  0  0  0  0  0
   -0.0510    2.4755   -0.1101 H   0  0  0  0  0  0  0  0  0  0  0  0
   -2.0838   -1.3374   -0.1102 H   0  0  0  0  0  0  0  0  0  0  0  0
   -3.0392    0.1467   -0.0586 H   0  0  0  0  0  0  0  0  0  0  0  0
   -2.0838   -0.3363    1.3457 H   0  0  0  0  0  0  0  0  0  0  0  0
  1  2  2  3
  1  4  1  0
  1  5  1  0
  2  3  1  0
  2 16  1  0
  3  6  1  0
  3  7  1  0
  3  8  1  0
  9 10  1  0
  9 13  1  0
  9 14  1  0
  9 15  1  0
 10 11  1  0
 10 12  1  0
 11 17  1  0
 11 18  1  0
 11 19  1  0
 12 20  1  0
 12 21  1  0
 12 22  1  0
M  RAD  1  10   2
M  END
>  <reaction>  (9) 
rxn_969

>  <mol_properties>  (9) 
{"0": {"label": "*4", "atom_type": "Cd"}, "1": {"label": "*3", "atom_type": "Cd"}, "8": {"label": "*0", "atom_type": "Cs"}, "9": {"label": "*1", "atom_type": "Cs"}, "15": {"label": "*2", "atom_type": "H0"}}

>  <type>  (9) 
unop_5

>  <geom_source>  (9) 
Heuristics

$$$$

     RDKit          3D

 22 20  0  0  0  0  0  0  0  0999 V2000
    1.3498   -2.0537    0.5630 C   0  0  0  0  0  0  0  0  0  0  0  0
    1.3603   -0.7446    0.3668 C   0  0  0  0  0  0  0  0  0  0  0  0
    2.0339    0.2530    1.2530 C   0  0  0  0  0  0  0  0  0  0  0  0
    1.8502   -2.5024    1.4147 H   0  0  0  0  0  0  0  0  0  0  0  0
    0.8419   -2.7245   -0.1184 H   0  0  0  0  0  0  0  0  0  0  0  0
    1.3128    0.9758    1.6433 H   0  0  0  0  0  0  0  0  0  0  0  0
    2.5258   -0.2317    2.0972 H   0  0  0  0  0  0  0  0  0  0  0  0
    2.7840    0.8223    0.6980 H   0  0  0  0  0  0  0  0  0  0  0  0
   -0.8385    0.4277   -1.9650 C   0  0  0  0  0  0  0  0  0  0  0  0
   -0.8385    0.4277   -0.4393 C   0  0  0  0  0  3  0  0  0  0  0  0
   -0.8385    1.8524    0.1067 C   0  0  0  0  0  0  0  0  0  0  0  0
   -2.0214   -0.3664    0.1067 C   0  0  0  0  0  0  0  0  0  0  0  0
    0.0222    0.9700   -2.3621 H   0  0  0  0  0  0  0  0  0  0  0  0
   -1.7425    0.9096   -2.3488 H   0  0  0  0  0  0  0  0  0  0  0  0
   -0.8090   -0.5892   -2.3621 H   0  0  0  0  0  0  0  0  0  0  0  0
    0.2652   -0.1607   -0.0347 H   0  0  0  0  0  0  0  0  0  0  0  0
   -1.7425    2.3832   -0.2059 H   0  0  0  0  0  0  0  0  0  0  0  0
   -0.8091    1.8592    1.1983 H   0  0  0  0  0  0  0  0  0  0  0  0
    0.0222    2.4172   -0.2575 H   0  0  0  0  0  0  0  0  0  0  0  0
   -2.0106   -1.3958   -0.2576 H   0  0  0  0  0  0  0  0  0  0  0  0
   -2.9660    0.0883   -0.2060 H   0  0  0  0  0  0  0  0  0  0  0  0
   -2.0106   -0.3947    1.1983 H   0  0  0  0  0  0  0  0  0  0  0  0
  1  2  2  3
  1  4  1  0
  1  5  1  0
  2  3  1  0
  2 16  1  0
  3  6  1  0
  3  7  1  0
  3  8  1  0
  9 10  1  0
  9 13  1  0
  9 14  1  0
  9 15  1  0
 10 11  1  0
 10 12  1  0
 11 17  1  0
 11 18  1  0
 11 19  1  0
 12 20  1  0
 12 21  1  0
 12 22  1  0
M  RAD  1  10   2
M  END
>  <reaction>  (10) 
rxn_969

>  <mol_properties>  (10) 
{"0": {"label": "*4", "atom_type": "Cd"}, "1": {"label": "*3", "atom_type": "Cd"}, "8": {"label": "*0", "atom_type": "Cs"}, "9": {"label": "*1", "atom_type": "Cs"}, "15": {"label": "*2", "atom_type": "H0"}}

>  <type>  (10) 
unop_6

>  <geom_source>  (10) 
Heuristics

$$$$

     RDKit          3D

 22 20  0  0  0  0  0  0  0  0999 V2000
    1.2354   -1.8875    1.1342 C   0  0  0  0  0  0  0  0  0  0  0  0
    1.3303   -0.7996    0.3860 C   0  0  0  0  0  0  0  0  0  0  0  0
    2.2715    0.3351    0.6329 C   0  0  0  0  0  0  0  0  0  0  0  0
    1.8608   -2.0290    2.0093 H   0  0  0  0  0  0  0  0  0  0  0  0
    0.5307   -2.6758    0.9008 H   0  0  0  0  0  0  0  0  0  0  0  0
    1.7243    1.2710    0.7722 H   0  0  0  0  0  0  0  0  0  0  0  0
    2.8836    0.1599    1.5184 H   0  0  0  0  0  0  0  0  0  0  0  0
    2.9367    0.4815   -0.2220 H   0  0  0  0  0  0  0  0  0  0  0  0
   -0.8685    0.3727   -1.9458 C   0  0  0  0  0  0  0  0  0  0  0  0
   -0.8685    0.3727   -0.4201 C   0  0  0  0  0  3  0  0  0  0  0  0
   -0.8685    1.7974    0.1260 C   0  0  0  0  0  0  0  0  0  0  0  0
   -2.0514   -0.4213    0.1260 C   0  0  0  0  0  0  0  0  0  0  0  0
   -0.0079    0.9150   -2.3428 H   0  0  0  0  0  0  0  0  0  0  0  0
   -1.7725    0.8546   -2.3296 H   0  0  0  0  0  0  0  0  0  0  0  0
   -0.8390   -0.6441   -2.3428 H   0  0  0  0  0  0  0  0  0  0  0  0
    0.2351   -0.2157   -0.0155 H   0  0  0  0  0  0  0  0  0  0  0  0
   -1.7725    2.3282   -0.1867 H   0  0  0  0  0  0  0  0  0  0  0  0
   -0.8391    1.8042    1.2176 H   0  0  0  0  0  0  0  0  0  0  0  0
   -0.0078    2.3622   -0.2382 H   0  0  0  0  0  0  0  0  0  0  0  0
   -2.0406   -1.4508   -0.2383 H   0  0  0  0  0  0  0  0  0  0  0  0
   -2.9960    0.0333   -0.1867 H   0  0  0  0  0  0  0  0  0  0  0  0
   -2.0406   -0.4497    1.2176 H   0  0  0  0  0  0  0  0  0  0  0  0
  1  2  2  3
  1  4  1  0
  1  5  1  0
  2  3  1  0
  2 16  1  0
  3  6  1  0
  3  7  1  0
  3  8  1  0
  9 10  1  0
  9 13  1  0
  9 14  1  0
  9 15  1  0
 10 11  1  0
 10 12  1  0
 11 17  1  0
 11 18  1  0
 11 19  1  0
 12 20  1  0
 12 21  1  0
 12 22  1  0
M  RAD  1  10   2
M  END
>  <reaction>  (11) 
rxn_969

>  <mol_properties>  (11) 
{"0": {"label": "*4", "atom_type": "Cd"}, "1": {"label": "*3", "atom_type": "Cd"}, "8": {"label": "*0", "atom_type": "Cs"}, "9": {"label": "*1", "atom_type": "Cs"}, "15": {"label": "*2", "atom_type": "H0"}}

>  <type>  (11) 
unop_7

>  <geom_source>  (11) 
Heuristics

$$$$

     RDKit          3D

 22 20  0  0  0  0  0  0  0  0999 V2000
    2.4574    0.0239    0.5630 C   0  0  0  0  0  0  0  0  0  0  0  0
    1.3764   -0.7144    0.3668 C   0  0  0  0  0  0  0  0  0  0  0  0
    0.9235   -1.8297    1.2530 C   0  0  0  0  0  0  0  0  0  0  0  0
    3.1089   -0.1415    1.4147 H   0  0  0  0  0  0  0  0  0  0  0  0
    2.7314    0.8195   -0.1184 H   0  0  0  0  0  0  0  0  0  0  0  0
    0.8689   -2.7698    0.6980 H   0  0  0  0  0  0  0  0  0  0  0  0
    1.6001   -1.9679    2.0972 H   0  0  0  0  0  0  0  0  0  0  0  0
   -0.0785   -1.6339    1.6433 H   0  0  0  0  0  0  0  0  0  0  0  0
   -0.8225    0.4578   -1.9650 C   0  0  0  0  0  0  0  0  0  0  0  0
   -0.8225    0.4578   -0.4393 C   0  0  0  0  0  3  0  0  0  0  0  0
   -0.8225    1.8825    0.1067 C   0  0  0  0  0  0  0  0  0  0  0  0
   -2.0053   -0.3362    0.1067 C   0  0  0  0  0  0  0  0  0  0  0  0
    0.0382    1.0001   -2.3621 H   0  0  0  0  0  0  0  0  0  0  0  0
   -1.7265    0.9397   -2.3488 H   0  0  0  0  0  0  0  0  0  0  0  0
   -0.7929   -0.5590   -2.3621 H   0  0  0  0  0  0  0  0  0  0  0  0
    0.2812   -0.1306   -0.0347 H   0  0  0  0  0  0  0  0  0  0  0  0
   -1.7264    2.4133   -0.2059 H   0  0  0  0  0  0  0  0  0  0  0  0
   -0.7930    1.8893    1.1983 H   0  0  0  0  0  0  0  0  0  0  0  0
    0.0383    2.4473   -0.2575 H   0  0  0  0  0  0  0  0  0  0  0  0
   -1.9945   -1.3657   -0.2576 H   0  0  0  0  0  0  0  0  0  0  0  0
   -2.9499    0.1184   -0.2060 H   0  0  0  0  0  0  0  0  0  0  0  0
   -1.9945   -0.3645    1.1983 H   0  0  0  0  0  0  0  0  0  0  0  0
  1  2  2  3
  1  4  1  0
  1  5  1  0
  2  3  1  0
  2 16  1  0
  3  6  1  0
  3  7  1  0
  3  8  1  0
  9 10  1  0
  9 13  1  0
  9 14  1  0
  9 15  1  0
 10 11  1  0
 10 12  1  0
 11 17  1  0
 11 18  1  0
 11 19  1  0
 12 20  1  0
 12 21  1  0
 12 22  1  0
M  RAD  1  10   2
M  END
>  <reaction>  (12) 
rxn_969

>  <mol_properties>  (12) 
{"0": {"label": "*4", "atom_type": "Cd"}, "1": {"label": "*3", "atom_type": "Cd"}, "8": {"label": "*0", "atom_type": "Cs"}, "9": {"label": "*1", "atom_type": "Cs"}, "15": {"label": "*2", "atom_type": "H0"}}

>  <type>  (12) 
unop_8

>  <geom_source>  (12) 
Heuristics

$$$$

     RDKit          3D

 22 20  0  0  0  0  0  0  0  0999 V2000
    1.8724   -1.6175   -0.3391 C   0  0  0  0  0  0  0  0  0  0  0  0
    1.3372   -0.6748    0.4206 C   0  0  0  0  0  0  0  0  0  0  0  0
    1.6430   -0.4590    1.8677 C   0  0  0  0  0  0  0  0  0  0  0  0
    2.5964   -2.3213    0.0580 H   0  0  0  0  0  0  0  0  0  0  0  0
    1.6079   -1.7212   -1.3839 H   0  0  0  0  0  0  0  0  0  0  0  0
    0.7377   -0.5470    2.4738 H   0  0  0  0  0  0  0  0  0  0  0  0
    2.3729   -1.1824    2.2331 H   0  0  0  0  0  0  0  0  0  0  0  0
    2.0400    0.5455    2.0357 H   0  0  0  0  0  0  0  0  0  0  0  0
   -0.8617    0.4975   -1.9112 C   0  0  0  0  0  0  0  0  0  0  0  0
   -0.8617    0.4975   -0.3855 C   0  0  0  0  0  3  0  0  0  0  0  0
   -0.8617    1.9221    0.1605 C   0  0  0  0  0  0  0  0  0  0  0  0
   -2.0445   -0.2966    0.1605 C   0  0  0  0  0  0  0  0  0  0  0  0
   -0.0010    1.0398   -2.3083 H   0  0  0  0  0  0  0  0  0  0  0  0
   -1.7657    0.9794   -2.2950 H   0  0  0  0  0  0  0  0  0  0  0  0
   -0.8321   -0.5194   -2.3083 H   0  0  0  0  0  0  0  0  0  0  0  0
    0.2420   -0.0909    0.0191 H   0  0  0  0  0  0  0  0  0  0  0  0
   -1.7656    2.4530   -0.1521 H   0  0  0  0  0  0  0  0  0  0  0  0
   -0.8322    1.9289    1.2521 H   0  0  0  0  0  0  0  0  0  0  0  0
   -0.0009    2.4869   -0.2037 H   0  0  0  0  0  0  0  0  0  0  0  0
   -2.0337   -1.3260   -0.2038 H   0  0  0  0  0  0  0  0  0  0  0  0
   -2.9891    0.1580   -0.1522 H   0  0  0  0  0  0  0  0  0  0  0  0
   -2.0337   -0.3249    1.2521 H   0  0  0  0  0  0  0  0  0  0  0  0
  1  2  2  3
  1  4  1  0
  1  5  1  0
  2  3  1  0
  2 16  1  0
  3  6  1  0
  3  7  1  0
  3  8  1  0
  9 10  1  0
  9 13  1  0
  9 14  1  0
  9 15  1  0
 10 11  1  0
 10 12  1  0
 11 17  1  0
 11 18  1  0
 11 19  1  0
 12 20  1  0
 12 21  1  0
 12 22  1  0
M  RAD  1  10   2
M  END
>  <reaction>  (13) 
rxn_969

>  <mol_properties>  (13) 
{"0": {"label": "*4", "atom_type": "Cd"}, "1": {"label": "*3", "atom_type": "Cd"}, "8": {"label": "*0", "atom_type": "Cs"}, "9": {"label": "*1", "atom_type": "Cs"}, "15": {"label": "*2", "atom_type": "H0"}}

>  <type>  (13) 
unop_9

>  <geom_source>  (13) 
Heuristics

$$$$

     RDKit          3D

 22 20  0  0  0  0  0  0  0  0999 V2000
    2.4995   -0.2271    0.0307 C   0  0  0  0  0  0  0  0  0  0  0  0
    1.3340   -0.7443    0.3863 C   0  0  0  0  0  0  0  0  0  0  0  0
    1.0676   -1.4647    1.6686 C   0  0  0  0  0  0  0  0  0  0  0  0
    3.3698   -0.2969    0.6746 H   0  0  0  0  0  0  0  0  0  0  0  0
    2.6273    0.2844   -0.9151 H   0  0  0  0  0  0  0  0  0  0  0  0
    0.7219   -2.4839    1.4774 H   0  0  0  0  0  0  0  0  0  0  0  0
    1.9624   -1.5163    2.2902 H   0  0  0  0  0  0  0  0  0  0  0  0
    0.2804   -0.9652    2.2391 H   0  0  0  0  0  0  0  0  0  0  0  0
   -0.8648    0.4280   -1.9455 C   0  0  0  0  0  0  0  0  0  0  0  0
   -0.8648    0.4280   -0.4198 C   0  0  0  0  0  3  0  0  0  0  0  0
   -0.8648    1.8527    0.1263 C   0  0  0  0  0  0  0  0  0  0  0  0
   -2.0477   -0.3660    0.1262 C   0  0  0  0  0  0  0  0  0  0  0  0
   -0.0042    0.9703   -2.3426 H   0  0  0  0  0  0  0  0  0  0  0  0
   -1.7688    0.9099   -2.3293 H   0  0  0  0  0  0  0  0  0  0  0  0
   -0.8353   -0.5888   -2.3425 H   0  0  0  0  0  0  0  0  0  0  0  0
    0.2388   -0.1604   -0.0152 H   0  0  0  0  0  0  0  0  0  0  0  0
   -1.7688    2.3835   -0.1864 H   0  0  0  0  0  0  0  0  0  0  0  0
   -0.8354    1.8595    1.2179 H   0  0  0  0  0  0  0  0  0  0  0  0
   -0.0041    2.4175   -0.2379 H   0  0  0  0  0  0  0  0  0  0  0  0
   -2.0369   -1.3955   -0.2380 H   0  0  0  0  0  0  0  0  0  0  0  0
   -2.9923    0.0886   -0.1864 H   0  0  0  0  0  0  0  0  0  0  0  0
   -2.0369   -0.3944    1.2178 H   0  0  0  0  0  0  0  0  0  0  0  0
  1  2  2  3
  1  4  1  0
  1  5  1  0
  2  3  1  0
  2 16  1  0
  3  6  1  0
  3  7  1  0
  3  8  1  0
  9 10  1  0
  9 13  1  0
  9 14  1  0
  9 15  1  0
 10 11  1  0
 10 12  1  0
 11 17  1  0
 11 18  1  0
 11 19  1  0
 12 20  1  0
 12 21  1  0
 12 22  1  0
M  RAD  1  10   2
M  END
>  <reaction>  (14) 
rxn_969

>  <mol_properties>  (14) 
{"0": {"label": "*4", "atom_type": "Cd"}, "1": {"label": "*3", "atom_type": "Cd"}, "8": {"label": "*0", "atom_type": "Cs"}, "9": {"label": "*1", "atom_type": "Cs"}, "15": {"label": "*2", "atom_type": "H0"}}

>  <type>  (14) 
unop_10

>  <geom_source>  (14) 
Heuristics

$$$$

     RDKit          3D

 22 20  0  0  0  0  0  0  0  0999 V2000
    1.2716   -1.4572    1.6042 C   0  0  0  0  0  0  0  0  0  0  0  0
    1.2821   -0.8055    0.4521 C   0  0  0  0  0  0  0  0  0  0  0  0
    2.4460   -0.0436   -0.0950 C   0  0  0  0  0  0  0  0  0  0  0  0
    2.1434   -1.4798    2.2497 H   0  0  0  0  0  0  0  0  0  0  0  0
    0.3936   -1.9914    1.9449 H   0  0  0  0  0  0  0  0  0  0  0  0
    2.1846    1.0060   -0.2518 H   0  0  0  0  0  0  0  0  0  0  0  0
    3.3031   -0.0874    0.5781 H   0  0  0  0  0  0  0  0  0  0  0  0
    2.7501   -0.4426   -1.0662 H   0  0  0  0  0  0  0  0  0  0  0  0
   -0.9167    0.3668   -1.8797 C   0  0  0  0  0  0  0  0  0  0  0  0
   -0.9167    0.3668   -0.3540 C   0  0  0  0  0  3  0  0  0  0  0  0
   -0.9167    1.7915    0.1921 C   0  0  0  0  0  0  0  0  0  0  0  0
   -2.0995   -0.4273    0.1920 C   0  0  0  0  0  0  0  0  0  0  0  0
   -0.0560    0.9091   -2.2768 H   0  0  0  0  0  0  0  0  0  0  0  0
   -1.8207    0.8487   -2.2635 H   0  0  0  0  0  0  0  0  0  0  0  0
   -0.8872   -0.6501   -2.2767 H   0  0  0  0  0  0  0  0  0  0  0  0
    0.1870   -0.2216    0.0506 H   0  0  0  0  0  0  0  0  0  0  0  0
   -1.8207    2.3223   -0.1206 H   0  0  0  0  0  0  0  0  0  0  0  0
   -0.8872    1.7983    1.2837 H   0  0  0  0  0  0  0  0  0  0  0  0
   -0.0560    2.3563   -0.1722 H   0  0  0  0  0  0  0  0  0  0  0  0
   -2.0887   -1.4567   -0.1722 H   0  0  0  0  0  0  0  0  0  0  0  0
   -3.0441    0.0274   -0.1206 H   0  0  0  0  0  0  0  0  0  0  0  0
   -2.0888   -0.4556    1.2836 H   0  0  0  0  0  0  0  0  0  0  0  0
  1  2  2  3
  1  4  1  0
  1  5  1  0
  2  3  1  0
  2 16  1  0
  3  6  1  0
  3  7  1  0
  3  8  1  0
  9 10  1  0
  9 13  1  0
  9 14  1  0
  9 15  1  0
 10 11  1  0
 10 12  1  0
 11 17  1  0
 11 18  1  0
 11 19  1  0
 12 20  1  0
 12 21  1  0
 12 22  1  0
M  RAD  1  10   2
M  END
>  <reaction>  (15) 
rxn_969

>  <mol_properties>  (15) 
{"0": {"label": "*4", "atom_type": "Cd"}, "1": {"label": "*3", "atom_type": "Cd"}, "8": {"label": "*0", "atom_type": "Cs"}, "9": {"label": "*1", "atom_type": "Cs"}, "15": {"label": "*2", "atom_type": "H0"}}

>  <type>  (15) 
unop_11

>  <geom_source>  (15) 
Heuristics

$$$$

     RDKit          3D

 22 20  0  0  0  0  0  0  0  0999 V2000
    2.1593   -1.1512   -0.4700 C   0  0  0  0  0  0  0  0  0  0  0  0
    1.3090   -0.6979    0.4375 C   0  0  0  0  0  0  0  0  0  0  0  0
    1.4956   -0.7973    1.9172 C   0  0  0  0  0  0  0  0  0  0  0  0
    3.0829   -1.6436   -0.1843 H   0  0  0  0  0  0  0  0  0  0  0  0
    1.9650   -1.0476   -1.5301 H   0  0  0  0  0  0  0  0  0  0  0  0
    0.6747   -1.3544    2.3762 H   0  0  0  0  0  0  0  0  0  0  0  0
    2.4322   -1.2967    2.1682 H   0  0  0  0  0  0  0  0  0  0  0  0
    1.5005    0.1947    2.3762 H   0  0  0  0  0  0  0  0  0  0  0  0
   -0.8899    0.4744   -1.8943 C   0  0  0  0  0  0  0  0  0  0  0  0
   -0.8899    0.4744   -0.3686 C   0  0  0  0  0  3  0  0  0  0  0  0
   -0.8899    1.8991    0.1775 C   0  0  0  0  0  0  0  0  0  0  0  0
   -2.0727   -0.3196    0.1775 C   0  0  0  0  0  0  0  0  0  0  0  0
   -0.0292    1.0167   -2.2913 H   0  0  0  0  0  0  0  0  0  0  0  0
   -1.7939    0.9563   -2.2781 H   0  0  0  0  0  0  0  0  0  0  0  0
   -0.8603   -0.5424   -2.2913 H   0  0  0  0  0  0  0  0  0  0  0  0
    0.2138   -0.1140    0.0360 H   0  0  0  0  0  0  0  0  0  0  0  0
   -1.7938    2.4299   -0.1352 H   0  0  0  0  0  0  0  0  0  0  0  0
   -0.8604    1.9059    1.2691 H   0  0  0  0  0  0  0  0  0  0  0  0
   -0.0291    2.4639   -0.1867 H   0  0  0  0  0  0  0  0  0  0  0  0
   -2.0619   -1.3491   -0.1868 H   0  0  0  0  0  0  0  0  0  0  0  0
   -3.0173    0.1350   -0.1352 H   0  0  0  0  0  0  0  0  0  0  0  0
   -2.0619   -0.3480    1.2691 H   0  0  0  0  0  0  0  0  0  0  0  0
  1  2  2  3
  1  4  1  0
  1  5  1  0
  2  3  1  0
  2 16  1  0
  3  6  1  0
  3  7  1  0
  3  8  1  0
  9 10  1  0
  9 13  1  0
  9 14  1  0
  9 15  1  0
 10 11  1  0
 10 12  1  0
 11 17  1  0
 11 18  1  0
 11 19  1  0
 12 20  1  0
 12 21  1  0
 12 22  1  0
M  RAD  1  10   2
M  END
>  <reaction>  (16) 
rxn_969

>  <mol_properties>  (16) 
{"0": {"label": "*4", "atom_type": "Cd"}, "1": {"label": "*3", "atom_type": "Cd"}, "8": {"label": "*0", "atom_type": "Cs"}, "9": {"label": "*1", "atom_type": "Cs"}, "15": {"label": "*2", "atom_type": "H0"}}

>  <type>  (16) 
unop_12

>  <geom_source>  (16) 
Heuristics

$$$$

     RDKit          3D

 22 20  0  0  0  0  0  0  0  0999 V2000
   -1.0778    0.4921   -1.2807 C   0  0  0  0  0  0  0  0  0  0  0  0
   -2.0775   -1.6178   -0.3145 C   0  0  0  0  0  0  0  0  0  0  0  0
   -0.6515   -0.1170    1.1342 C   0  0  0  0  0  0  0  0  0  0  0  0
    1.9171    1.3185   -0.6357 C   0  0  0  0  0  0  0  0  0  0  0  0
   -0.8931   -0.6499   -0.2795 C   0  0  0  0  0  3  0  0  0  0  0  0
    1.4933    0.1617    0.2137 C   0  0  0  0  0  0  0  0  0  0  0  0
    2.1312   -0.1336    1.3480 C   0  0  0  0  0  0  0  0  0  0  0  0
    2.9654    1.1773   -0.9738 H   0  0  0  0  0  0  0  0  0  0  0  0
    1.8382    2.2632   -0.0573 H   0  0  0  0  0  0  0  0  0  0  0  0
    1.2579    1.3857   -1.5260 H   0  0  0  0  0  0  0  0  0  0  0  0
   -1.9743    1.0969   -1.0247 H   0  0  0  0  0  0  0  0  0  0  0  0
   -0.1829    1.1494   -1.2748 H   0  0  0  0  0  0  0  0  0  0  0  0
   -1.1974    0.0817   -2.3055 H   0  0  0  0  0  0  0  0  0  0  0  0
   -1.8953   -2.4647    0.3801 H   0  0  0  0  0  0  0  0  0  0  0  0
   -3.0155   -1.1005   -0.0185 H   0  0  0  0  0  0  0  0  0  0  0  0
   -2.1986   -2.0313   -1.3379 H   0  0  0  0  0  0  0  0  0  0  0  0
   -0.4671   -0.9617    1.8310 H   0  0  0  0  0  0  0  0  0  0  0  0
    0.2441    0.5393    1.1436 H   0  0  0  0  0  0  0  0  0  0  0  0
   -1.5303    0.4624    1.4904 H   0  0  0  0  0  0  0  0  0  0  0  0
    0.5322   -0.5344   -0.1436 H   0  0  0  0  0  0  0  0  0  0  0  0
    2.9762    0.4597    1.6844 H   0  0  0  0  0  0  0  0  0  0  0  0
    1.8057   -0.9772    1.9472 H   0  0  0  0  0  0  0  0  0  0  0  0
  1  5  1  0
  1 11  1  0
  1 12  1  0
  1 13  1  0
  2  5  1  0
  2 14  1  0
  2 15  1  0
  2 16  1  0
  3  5  1  0
  3 17  1  0
  3 18  1  0
  3 19  1  0
  4  6  1  0
  4  8  1  0
  4  9  1  0
  4 10  1  0
  6  7  2  3
  6 20  1  0
  7 21  1  0
  7 22  1  0
M  RAD  1   5   2
M  END
>  <reaction>  (17) 
rxn_969

>  <mol_properties>  (17) 
{"0": {"label": "*4", "atom_type": "Cd"}, "1": {"label": "*3", "atom_type": "Cd"}, "8": {"label": "*0", "atom_type": "Cs"}, "9": {"label": "*1", "atom_type": "Cs"}, "15": {"label": "*2", "atom_type": "H0"}}

>  <type>  (17) 
unop_13

>  <geom_source>  (17) 
AutoTST

$$$$
