
     RDKit          3D

 13 12  0  0  0  0  0  0  0  0999 V2000
    3.0977   -0.3549   -0.5105 C   0  0  0  0  0  0  0  0  0  0  0  0
    2.0556    0.4221   -0.2627 C   0  0  0  0  0  0  0  0  0  0  0  0
    0.6313   -0.0354   -0.2366 C   0  0  0  0  0  0  0  0  0  0  0  0
   -0.2567    0.6038   -1.2694 C   0  0  0  0  0  0  0  0  0  0  0  0
    0.1459    1.3456   -2.2891 C   0  0  0  0  0  0  0  0  0  0  0  0
    4.1081    0.0344   -0.5074 H   0  0  0  0  0  0  0  0  0  0  0  0
    2.9777   -1.4116   -0.7243 H   0  0  0  0  0  0  0  0  0  0  0  0
    2.2171    1.4781   -0.0618 H   0  0  0  0  0  0  0  0  0  0  0  0
    0.5865   -1.1233   -0.3540 H   0  0  0  0  0  0  0  0  0  0  0  0
    0.2065    0.1743    0.7521 H   0  0  0  0  0  0  0  0  0  0  0  0
   -1.3190    0.4126   -1.1445 H   0  0  0  0  0  0  0  0  0  0  0  0
    1.1948    1.5564   -2.4628 H   0  0  0  0  0  0  0  0  0  0  0  0
   -0.5644    1.7621   -2.9918 H   0  0  0  0  0  0  0  0  0  0  0  0
  1  2  2  3
  1  6  1  0
  1  7  1  0
  2  3  1  0
  2  8  1  0
  3  4  1  0
  3  9  1  0
  3 10  1  0
  4  5  2  3
  4 11  1  0
  5 12  1  0
  5 13  1  0
M  END
>  <reaction>  (1) 
rxn_1165

>  <mol_properties>  (1) 
{"2": {"label": "donator", "atom_type": "Cs"}, "8": {"label": "d_hydrogen", "atom_type": "H0"}}

>  <type>  (1) 
r1h

$$$$

     RDKit          3D

  6  5  0  0  0  0  0  0  0  0999 V2000
   -0.5121    0.0777    0.0308 C   0  0  0  0  0  0  0  0  0  0  0  0
    0.8172   -0.5443    0.0742 C   0  0  0  0  0  3  0  0  0  0  0  0
    2.3075   -0.1727   -0.1910 S   0  0  0  0  0  0  0  0  0  0  0  0
   -1.1498   -0.4890   -0.6522 H   0  0  0  0  0  0  0  0  0  0  0  0
   -0.4879    1.1268   -0.2798 H   0  0  0  0  0  0  0  0  0  0  0  0
   -0.9749    0.0014    1.0179 H   0  0  0  0  0  0  0  0  0  0  0  0
  1  2  1  0
  1  4  1  0
  1  5  1  0
  1  6  1  0
  2  3  2  0
M  RAD  1   2   2
M  END
>  <reaction>  (2) 
rxn_1165

>  <mol_properties>  (2) 
{"1": {"label": "acceptor", "atom_type": "CS"}}

>  <type>  (2) 
r2

$$$$

     RDKit          3D

  7  6  0  0  0  0  0  0  0  0999 V2000
   -0.6782    0.0507    0.0301 C   0  0  0  0  0  0  0  0  0  0  0  0
    0.8092    0.0996    0.0213 C   0  0  0  0  0  0  0  0  0  0  0  0
    1.7473    0.7521    1.1507 S   0  0  0  0  0  0  0  0  0  0  0  0
   -1.0667    0.5456   -0.8653 H   0  0  0  0  0  0  0  0  0  0  0  0
   -1.0112   -0.9904   -0.0239 H   0  0  0  0  0  0  0  0  0  0  0  0
   -1.0920    0.5225    0.9188 H   0  0  0  0  0  0  0  0  0  0  0  0
    1.2740   -0.3620   -0.8520 H   0  0  0  0  0  0  0  0  0  0  0  0
  1  2  1  0
  1  4  1  0
  1  5  1  0
  1  6  1  0
  2  3  2  0
  2  7  1  0
M  END
>  <reaction>  (3) 
rxn_1165

>  <mol_properties>  (3) 
{"0": {"label": "a_hydrogen", "atom_type": "H0"}, "2": {"label": "acceptor", "atom_type": "CS"}}

>  <type>  (3) 
r2h

$$$$

     RDKit          3D

 19 17  0  0  0  0  0  0  0  0999 V2000
    0.5964   -1.9396   -1.0906 C   0  0  0  0  0  0  0  0  0  0  0  0
    0.7646   -1.3667    0.0984 C   0  0  0  0  0  0  0  0  0  0  0  0
   -0.3233   -0.8788    0.9553 C   0  0  0  0  0  0  0  0  0  0  0  0
   -0.1955   -0.9396    2.4177 C   0  0  0  0  0  0  0  0  0  0  0  0
    0.8810   -1.2951    3.1171 C   0  0  0  0  0  0  0  0  0  0  0  0
    1.4405   -2.2428   -1.6964 H   0  0  0  0  0  0  0  0  0  0  0  0
   -0.3932   -2.1350   -1.4901 H   0  0  0  0  0  0  0  0  0  0  0  0
    1.7770   -1.1932    0.4522 H   0  0  0  0  0  0  0  0  0  0  0  0
   -0.3746    0.4023    0.7398 H   0  0  0  0  0  0  0  0  0  0  0  0
   -1.3130   -1.1698    0.5997 H   0  0  0  0  0  0  0  0  0  0  0  0
   -1.0766   -0.6159    2.9640 H   0  0  0  0  0  0  0  0  0  0  0  0
    1.7930   -1.6415    2.6468 H   0  0  0  0  0  0  0  0  0  0  0  0
    0.8736   -1.2609    4.1985 H   0  0  0  0  0  0  0  0  0  0  0  0
   -0.2667    1.9819   -1.0118 C   0  0  0  0  0  0  0  0  0  0  0  0
   -0.2509    1.7937    0.4539 C   0  0  0  0  0  3  0  0  0  0  0  0
    0.0627    2.7487    1.6707 S   0  0  0  0  0  0  0  0  0  0  0  0
    0.4319    1.2721   -1.4645 H   0  0  0  0  0  0  0  0  0  0  0  0
   -0.0126    2.9997   -1.3110 H   0  0  0  0  0  0  0  0  0  0  0  0
   -1.2568    1.7201   -1.3958 H   0  0  0  0  0  0  0  0  0  0  0  0
  1  2  2  3
  1  6  1  0
  1  7  1  0
  2  3  1  0
  2  8  1  0
  3  4  1  0
  3  9  1  0
  3 10  1  0
  4  5  2  3
  4 11  1  0
  5 12  1  0
  5 13  1  0
 14 15  1  0
 14 17  1  0
 14 18  1  0
 14 19  1  0
 15 16  2  0
M  RAD  1  15   2
M  END
>  <reaction>  (4) 
rxn_1165

>  <mol_properties>  (4) 
{"1": {"label": "*0", "atom_type": "Cd"}, "2": {"label": "*1", "atom_type": "Cs"}, "8": {"label": "*2", "atom_type": "H0"}, "14": {"label": "*3", "atom_type": "CS"}, "15": {"label": "*4", "atom_type": "S2d"}}

>  <type>  (4) 
ts

$$$$

     RDKit          3D

 19 17  0  0  0  0  0  0  0  0999 V2000
   -0.4903   -2.1544   -1.2938 C   0  0  0  0  0  0  0  0  0  0  0  0
   -0.4903   -2.1544    0.0295 C   0  0  0  0  0  0  0  0  0  0  0  0
   -0.4903   -0.9286    0.8875 C   0  0  0  0  0  3  0  0  0  0  0  0
    0.7194   -0.7742    1.7687 C   0  0  0  0  0  0  0  0  0  0  0  0
    1.8306   -1.4899    1.6963 C   0  0  0  0  0  0  0  0  0  0  0  0
   -0.4984   -3.0771   -1.8603 H   0  0  0  0  0  0  0  0  0  0  0  0
   -0.4839   -1.2289   -1.8597 H   0  0  0  0  0  0  0  0  0  0  0  0
   -0.4877   -3.1031    0.5600 H   0  0  0  0  0  0  0  0  0  0  0  0
   -0.6103    0.1434    0.1369 H   0  0  0  0  0  0  0  0  0  0  0  0
   -1.3782   -0.9421    1.5303 H   0  0  0  0  0  0  0  0  0  0  0  0
    0.6468    0.0108    2.5164 H   0  0  0  0  0  0  0  0  0  0  0  0
    1.9561   -2.2768    0.9614 H   0  0  0  0  0  0  0  0  0  0  0  0
    2.6588   -1.3056    2.3686 H   0  0  0  0  0  0  0  0  0  0  0  0
   -1.9305    2.0416   -0.3191 C   0  0  0  0  0  0  0  0  0  0  0  0
   -0.7301    1.2120   -0.6113 C   0  0  0  0  0  0  0  0  0  0  0  0
    0.7495    1.7546   -0.9242 S   0  0  0  0  0  0  0  0  0  0  0  0
   -2.7154    1.8207   -1.0490 H   0  0  0  0  0  0  0  0  0  0  0  0
   -1.7004    3.1048   -0.3383 H   0  0  0  0  0  0  0  0  0  0  0  0
   -2.3349    1.7693    0.6607 H   0  0  0  0  0  0  0  0  0  0  0  0
  1  2  2  3
  1  6  1  0
  1  7  1  0
  2  3  1  0
  2  8  1  0
  3  4  1  0
  3 10  1  0
  4  5  2  3
  4 11  1  0
  5 12  1  0
  5 13  1  0
  9 15  1  0
 14 15  1  0
 14 17  1  0
 14 18  1  0
 14 19  1  0
 15 16  2  0
M  RAD  1   3   2
M  END
>  <reaction>  (5) 
rxn_1165

>  <mol_properties>  (5) 
{"1": {"label": "*0", "atom_type": "Cd"}, "2": {"label": "*1", "atom_type": "Cs"}, "8": {"label": "*2", "atom_type": "H0"}, "14": {"label": "*3", "atom_type": "CS"}, "15": {"label": "*4", "atom_type": "S2d"}}

>  <type>  (5) 
unop_1

>  <geom_source>  (5) 
Heuristics

$$$$

     RDKit          3D

 19 17  0  0  0  0  0  0  0  0999 V2000
   -0.2536   -2.2440   -1.3553 C   0  0  0  0  0  0  0  0  0  0  0  0
   -0.2536   -2.2440   -0.0320 C   0  0  0  0  0  0  0  0  0  0  0  0
   -0.2536   -1.0181    0.8260 C   0  0  0  0  0  3  0  0  0  0  0  0
    0.9561   -0.8638    1.7072 C   0  0  0  0  0  0  0  0  0  0  0  0
    2.0673   -1.5795    1.6347 C   0  0  0  0  0  0  0  0  0  0  0  0
   -0.2618   -3.1667   -1.9218 H   0  0  0  0  0  0  0  0  0  0  0  0
   -0.2472   -1.3185   -1.9213 H   0  0  0  0  0  0  0  0  0  0  0  0
   -0.2510   -3.1927    0.4985 H   0  0  0  0  0  0  0  0  0  0  0  0
   -0.3737    0.0538    0.0754 H   0  0  0  0  0  0  0  0  0  0  0  0
   -1.1416   -1.0316    1.4687 H   0  0  0  0  0  0  0  0  0  0  0  0
    0.8834   -0.0788    2.4549 H   0  0  0  0  0  0  0  0  0  0  0  0
    2.1927   -2.3663    0.8999 H   0  0  0  0  0  0  0  0  0  0  0  0
    2.8955   -1.3952    2.3071 H   0  0  0  0  0  0  0  0  0  0  0  0
   -1.2621    0.9155   -1.9301 C   0  0  0  0  0  0  0  0  0  0  0  0
   -0.4934    1.1225   -0.6728 C   0  0  0  0  0  0  0  0  0  0  0  0
   -0.1693    2.5334    0.0242 S   0  0  0  0  0  0  0  0  0  0  0  0
   -0.6395    0.3858   -2.6577 H   0  0  0  0  0  0  0  0  0  0  0  0
   -1.6016    1.8578   -2.3549 H   0  0  0  0  0  0  0  0  0  0  0  0
   -2.1226    0.2690   -1.7317 H   0  0  0  0  0  0  0  0  0  0  0  0
  1  2  2  3
  1  6  1  0
  1  7  1  0
  2  3  1  0
  2  8  1  0
  3  4  1  0
  3 10  1  0
  4  5  2  3
  4 11  1  0
  5 12  1  0
  5 13  1  0
  9 15  1  0
 14 15  1  0
 14 17  1  0
 14 18  1  0
 14 19  1  0
 15 16  2  0
M  RAD  1   3   2
M  END
>  <reaction>  (6) 
rxn_1165

>  <mol_properties>  (6) 
{"1": {"label": "*0", "atom_type": "Cd"}, "2": {"label": "*1", "atom_type": "Cs"}, "8": {"label": "*2", "atom_type": "H0"}, "14": {"label": "*3", "atom_type": "CS"}, "15": {"label": "*4", "atom_type": "S2d"}}

>  <type>  (6) 
unop_2

>  <geom_source>  (6) 
Heuristics

$$$$

     RDKit          3D

 19 17  0  0  0  0  0  0  0  0999 V2000
   -0.4714   -2.0816   -1.1377 C   0  0  0  0  0  0  0  0  0  0  0  0
   -0.4714   -2.0816    0.1856 C   0  0  0  0  0  0  0  0  0  0  0  0
   -0.4714   -0.8557    1.0436 C   0  0  0  0  0  3  0  0  0  0  0  0
    0.7383   -0.7014    1.9248 C   0  0  0  0  0  0  0  0  0  0  0  0
    1.8495   -1.4171    1.8523 C   0  0  0  0  0  0  0  0  0  0  0  0
   -0.4796   -3.0043   -1.7042 H   0  0  0  0  0  0  0  0  0  0  0  0
   -0.4650   -1.1561   -1.7037 H   0  0  0  0  0  0  0  0  0  0  0  0
   -0.4688   -3.0303    0.7161 H   0  0  0  0  0  0  0  0  0  0  0  0
   -0.5915    0.2162    0.2930 H   0  0  0  0  0  0  0  0  0  0  0  0
   -1.3594   -0.8692    1.6863 H   0  0  0  0  0  0  0  0  0  0  0  0
    0.6656    0.0836    2.6725 H   0  0  0  0  0  0  0  0  0  0  0  0
    1.9749   -2.2039    1.1175 H   0  0  0  0  0  0  0  0  0  0  0  0
    2.6777   -1.2328    2.5247 H   0  0  0  0  0  0  0  0  0  0  0  0
   -1.4023    2.4272    0.2022 C   0  0  0  0  0  0  0  0  0  0  0  0
   -0.7112    1.2849   -0.4552 C   0  0  0  0  0  0  0  0  0  0  0  0
    0.4417    1.3830   -1.5699 S   0  0  0  0  0  0  0  0  0  0  0  0
   -2.4799    2.3546    0.0256 H   0  0  0  0  0  0  0  0  0  0  0  0
   -1.0347    3.3843   -0.1616 H   0  0  0  0  0  0  0  0  0  0  0  0
   -1.2624    2.3660    1.2858 H   0  0  0  0  0  0  0  0  0  0  0  0
  1  2  2  3
  1  6  1  0
  1  7  1  0
  2  3  1  0
  2  8  1  0
  3  4  1  0
  3 10  1  0
  4  5  2  3
  4 11  1  0
  5 12  1  0
  5 13  1  0
  9 15  1  0
 14 15  1  0
 14 17  1  0
 14 18  1  0
 14 19  1  0
 15 16  2  0
M  RAD  1   3   2
M  END
>  <reaction>  (7) 
rxn_1165

>  <mol_properties>  (7) 
{"1": {"label": "*0", "atom_type": "Cd"}, "2": {"label": "*1", "atom_type": "Cs"}, "8": {"label": "*2", "atom_type": "H0"}, "14": {"label": "*3", "atom_type": "CS"}, "15": {"label": "*4", "atom_type": "S2d"}}

>  <type>  (7) 
unop_3

>  <geom_source>  (7) 
Heuristics

$$$$

     RDKit          3D

 19 17  0  0  0  0  0  0  0  0999 V2000
   -0.1974   -2.2312   -1.3985 C   0  0  0  0  0  0  0  0  0  0  0  0
   -0.1974   -2.2312   -0.0753 C   0  0  0  0  0  0  0  0  0  0  0  0
   -0.1974   -1.0053    0.7827 C   0  0  0  0  0  3  0  0  0  0  0  0
    1.0124   -0.8510    1.6640 C   0  0  0  0  0  0  0  0  0  0  0  0
    2.1235   -1.5667    1.5915 C   0  0  0  0  0  0  0  0  0  0  0  0
   -0.2055   -3.1539   -1.9650 H   0  0  0  0  0  0  0  0  0  0  0  0
   -0.1910   -1.3057   -1.9645 H   0  0  0  0  0  0  0  0  0  0  0  0
   -0.1948   -3.1799    0.4553 H   0  0  0  0  0  0  0  0  0  0  0  0
   -0.3174    0.0666    0.0322 H   0  0  0  0  0  0  0  0  0  0  0  0
   -1.0853   -1.0188    1.4255 H   0  0  0  0  0  0  0  0  0  0  0  0
    0.9397   -0.0660    2.4117 H   0  0  0  0  0  0  0  0  0  0  0  0
    2.2490   -2.3535    0.8567 H   0  0  0  0  0  0  0  0  0  0  0  0
    2.9517   -1.3824    2.2639 H   0  0  0  0  0  0  0  0  0  0  0  0
    0.6501    1.3165   -1.7159 C   0  0  0  0  0  0  0  0  0  0  0  0
   -0.4372    1.1353   -0.7160 C   0  0  0  0  0  0  0  0  0  0  0  0
   -1.2532    2.3036    0.0260 S   0  0  0  0  0  0  0  0  0  0  0  0
    1.5612    0.8258   -1.3599 H   0  0  0  0  0  0  0  0  0  0  0  0
    0.8508    2.3685   -1.9072 H   0  0  0  0  0  0  0  0  0  0  0  0
    0.3758    0.8174   -2.6504 H   0  0  0  0  0  0  0  0  0  0  0  0
  1  2  2  3
  1  6  1  0
  1  7  1  0
  2  3  1  0
  2  8  1  0
  3  4  1  0
  3 10  1  0
  4  5  2  3
  4 11  1  0
  5 12  1  0
  5 13  1  0
  9 15  1  0
 14 15  1  0
 14 17  1  0
 14 18  1  0
 14 19  1  0
 15 16  2  0
M  RAD  1   3   2
M  END
>  <reaction>  (8) 
rxn_1165

>  <mol_properties>  (8) 
{"1": {"label": "*0", "atom_type": "Cd"}, "2": {"label": "*1", "atom_type": "Cs"}, "8": {"label": "*2", "atom_type": "H0"}, "14": {"label": "*3", "atom_type": "CS"}, "15": {"label": "*4", "atom_type": "S2d"}}

>  <type>  (8) 
unop_4

>  <geom_source>  (8) 
Heuristics

$$$$

     RDKit          3D

 19 17  0  0  0  0  0  0  0  0999 V2000
   -0.2365   -2.0312   -1.0292 C   0  0  0  0  0  0  0  0  0  0  0  0
   -0.2365   -2.0312    0.2940 C   0  0  0  0  0  0  0  0  0  0  0  0
   -0.2365   -0.8054    1.1520 C   0  0  0  0  0  3  0  0  0  0  0  0
    0.9732   -0.6510    2.0332 C   0  0  0  0  0  0  0  0  0  0  0  0
    2.0844   -1.3667    1.9608 C   0  0  0  0  0  0  0  0  0  0  0  0
   -0.2447   -2.9539   -1.5958 H   0  0  0  0  0  0  0  0  0  0  0  0
   -0.2301   -1.1057   -1.5952 H   0  0  0  0  0  0  0  0  0  0  0  0
   -0.2339   -2.9799    0.8246 H   0  0  0  0  0  0  0  0  0  0  0  0
   -0.3566    0.2666    0.4015 H   0  0  0  0  0  0  0  0  0  0  0  0
   -1.1244   -0.8189    1.7948 H   0  0  0  0  0  0  0  0  0  0  0  0
    0.9006    0.1340    2.7810 H   0  0  0  0  0  0  0  0  0  0  0  0
    2.2099   -2.1536    1.2259 H   0  0  0  0  0  0  0  0  0  0  0  0
    2.9126   -1.1824    2.6331 H   0  0  0  0  0  0  0  0  0  0  0  0
   -0.4881    2.6196    0.4048 C   0  0  0  0  0  0  0  0  0  0  0  0
   -0.4763    1.3352   -0.3467 C   0  0  0  0  0  0  0  0  0  0  0  0
   -0.5940    1.1628   -1.9398 S   0  0  0  0  0  0  0  0  0  0  0  0
   -1.3103    2.6144    1.1271 H   0  0  0  0  0  0  0  0  0  0  0  0
   -0.5891    3.4749   -0.2599 H   0  0  0  0  0  0  0  0  0  0  0  0
    0.4337    2.7121    0.9875 H   0  0  0  0  0  0  0  0  0  0  0  0
  1  2  2  3
  1  6  1  0
  1  7  1  0
  2  3  1  0
  2  8  1  0
  3  4  1  0
  3 10  1  0
  4  5  2  3
  4 11  1  0
  5 12  1  0
  5 13  1  0
  9 15  1  0
 14 15  1  0
 14 17  1  0
 14 18  1  0
 14 19  1  0
 15 16  2  0
M  RAD  1   3   2
M  END
>  <reaction>  (9) 
rxn_1165

>  <mol_properties>  (9) 
{"1": {"label": "*0", "atom_type": "Cd"}, "2": {"label": "*1", "atom_type": "Cs"}, "8": {"label": "*2", "atom_type": "H0"}, "14": {"label": "*3", "atom_type": "CS"}, "15": {"label": "*4", "atom_type": "S2d"}}

>  <type>  (9) 
unop_5

>  <geom_source>  (9) 
Heuristics

$$$$

     RDKit          3D

 19 17  0  0  0  0  0  0  0  0999 V2000
   -0.1032   -2.1930   -1.4028 C   0  0  0  0  0  0  0  0  0  0  0  0
   -0.1032   -2.1930   -0.0796 C   0  0  0  0  0  0  0  0  0  0  0  0
   -0.1032   -0.9672    0.7784 C   0  0  0  0  0  3  0  0  0  0  0  0
    1.1065   -0.8129    1.6596 C   0  0  0  0  0  0  0  0  0  0  0  0
    2.2176   -1.5286    1.5872 C   0  0  0  0  0  0  0  0  0  0  0  0
   -0.1114   -3.1158   -1.9693 H   0  0  0  0  0  0  0  0  0  0  0  0
   -0.0969   -1.2676   -1.9688 H   0  0  0  0  0  0  0  0  0  0  0  0
   -0.1007   -3.1418    0.4510 H   0  0  0  0  0  0  0  0  0  0  0  0
   -0.2233    0.1048    0.0279 H   0  0  0  0  0  0  0  0  0  0  0  0
   -0.9912   -0.9807    1.4212 H   0  0  0  0  0  0  0  0  0  0  0  0
    1.0338   -0.0278    2.4074 H   0  0  0  0  0  0  0  0  0  0  0  0
    2.3431   -2.3154    0.8523 H   0  0  0  0  0  0  0  0  0  0  0  0
    3.0459   -1.3443    2.2595 H   0  0  0  0  0  0  0  0  0  0  0  0
    0.9470    1.7542   -1.1819 C   0  0  0  0  0  0  0  0  0  0  0  0
   -0.3430    1.1734   -0.7203 C   0  0  0  0  0  0  0  0  0  0  0  0
   -1.6340    1.9926   -0.2269 S   0  0  0  0  0  0  0  0  0  0  0  0
    1.7630    1.3785   -0.5568 H   0  0  0  0  0  0  0  0  0  0  0  0
    0.9332    2.8417   -1.1524 H   0  0  0  0  0  0  0  0  0  0  0  0
    1.1580    1.4154   -2.2009 H   0  0  0  0  0  0  0  0  0  0  0  0
  1  2  2  3
  1  6  1  0
  1  7  1  0
  2  3  1  0
  2  8  1  0
  3  4  1  0
  3 10  1  0
  4  5  2  3
  4 11  1  0
  5 12  1  0
  5 13  1  0
  9 15  1  0
 14 15  1  0
 14 17  1  0
 14 18  1  0
 14 19  1  0
 15 16  2  0
M  RAD  1   3   2
M  END
>  <reaction>  (10) 
rxn_1165

>  <mol_properties>  (10) 
{"1": {"label": "*0", "atom_type": "Cd"}, "2": {"label": "*1", "atom_type": "Cs"}, "8": {"label": "*2", "atom_type": "H0"}, "14": {"label": "*3", "atom_type": "CS"}, "15": {"label": "*4", "atom_type": "S2d"}}

>  <type>  (10) 
unop_6

>  <geom_source>  (10) 
Heuristics

$$$$

     RDKit          3D

 19 17  0  0  0  0  0  0  0  0999 V2000
   -0.0157   -2.1278   -1.3317 C   0  0  0  0  0  0  0  0  0  0  0  0
   -0.0157   -2.1278   -0.0085 C   0  0  0  0  0  0  0  0  0  0  0  0
   -0.0157   -0.9020    0.8495 C   0  0  0  0  0  3  0  0  0  0  0  0
    1.1940   -0.7476    1.7307 C   0  0  0  0  0  0  0  0  0  0  0  0
    2.3051   -1.4633    1.6583 C   0  0  0  0  0  0  0  0  0  0  0  0
   -0.0239   -3.0506   -1.8983 H   0  0  0  0  0  0  0  0  0  0  0  0
   -0.0094   -1.2024   -1.8977 H   0  0  0  0  0  0  0  0  0  0  0  0
   -0.0132   -3.0766    0.5221 H   0  0  0  0  0  0  0  0  0  0  0  0
   -0.1358    0.1700    0.0990 H   0  0  0  0  0  0  0  0  0  0  0  0
   -0.9037   -0.9155    1.4923 H   0  0  0  0  0  0  0  0  0  0  0  0
    1.1213    0.0374    2.4785 H   0  0  0  0  0  0  0  0  0  0  0  0
    2.4306   -2.2502    0.9234 H   0  0  0  0  0  0  0  0  0  0  0  0
    3.1333   -1.2790    2.3306 H   0  0  0  0  0  0  0  0  0  0  0  0
    0.8765    2.1988   -0.5437 C   0  0  0  0  0  0  0  0  0  0  0  0
   -0.2555    1.2386   -0.6492 C   0  0  0  0  0  0  0  0  0  0  0  0
   -1.8169    1.6109   -0.7189 S   0  0  0  0  0  0  0  0  0  0  0  0
    1.4588    1.9817    0.3572 H   0  0  0  0  0  0  0  0  0  0  0  0
    0.5298    3.2297   -0.5167 H   0  0  0  0  0  0  0  0  0  0  0  0
    1.5554    2.0599   -1.3907 H   0  0  0  0  0  0  0  0  0  0  0  0
  1  2  2  3
  1  6  1  0
  1  7  1  0
  2  3  1  0
  2  8  1  0
  3  4  1  0
  3 10  1  0
  4  5  2  3
  4 11  1  0
  5 12  1  0
  5 13  1  0
  9 15  1  0
 14 15  1  0
 14 17  1  0
 14 18  1  0
 14 19  1  0
 15 16  2  0
M  RAD  1   3   2
M  END
>  <reaction>  (11) 
rxn_1165

>  <mol_properties>  (11) 
{"1": {"label": "*0", "atom_type": "Cd"}, "2": {"label": "*1", "atom_type": "Cs"}, "8": {"label": "*2", "atom_type": "H0"}, "14": {"label": "*3", "atom_type": "CS"}, "15": {"label": "*4", "atom_type": "S2d"}}

>  <type>  (11) 
unop_7

>  <geom_source>  (11) 
Heuristics

$$$$

     RDKit          3D

 19 17  0  0  0  0  0  0  0  0999 V2000
   -0.4085   -2.2101   -1.3784 C   0  0  0  0  0  0  0  0  0  0  0  0
   -0.4085   -2.2101   -0.0551 C   0  0  0  0  0  0  0  0  0  0  0  0
   -0.4085   -0.9843    0.8029 C   0  0  0  0  0  3  0  0  0  0  0  0
    0.8013   -0.8300    1.6841 C   0  0  0  0  0  0  0  0  0  0  0  0
    1.9124   -1.5456    1.6116 C   0  0  0  0  0  0  0  0  0  0  0  0
   -0.4166   -3.1329   -1.9449 H   0  0  0  0  0  0  0  0  0  0  0  0
   -0.4021   -1.2847   -1.9444 H   0  0  0  0  0  0  0  0  0  0  0  0
   -0.4059   -3.1589    0.4754 H   0  0  0  0  0  0  0  0  0  0  0  0
   -0.5285    0.0877    0.0523 H   0  0  0  0  0  0  0  0  0  0  0  0
   -1.2964   -0.9978    1.4456 H   0  0  0  0  0  0  0  0  0  0  0  0
    0.7286   -0.0449    2.4318 H   0  0  0  0  0  0  0  0  0  0  0  0
    2.0379   -2.3325    0.8768 H   0  0  0  0  0  0  0  0  0  0  0  0
    2.7406   -1.3614    2.2840 H   0  0  0  0  0  0  0  0  0  0  0  0
   -2.0515    1.5863   -0.9420 C   0  0  0  0  0  0  0  0  0  0  0  0
   -0.6482    1.1563   -0.6959 C   0  0  0  0  0  0  0  0  0  0  0  0
    0.6057    2.1181   -0.4061 S   0  0  0  0  0  0  0  0  0  0  0  0
   -2.3825    1.2171   -1.9177 H   0  0  0  0  0  0  0  0  0  0  0  0
   -2.1539    2.6688   -0.9054 H   0  0  0  0  0  0  0  0  0  0  0  0
   -2.7113    1.1280   -0.1988 H   0  0  0  0  0  0  0  0  0  0  0  0
  1  2  2  3
  1  6  1  0
  1  7  1  0
  2  3  1  0
  2  8  1  0
  3  4  1  0
  3 10  1  0
  4  5  2  3
  4 11  1  0
  5 12  1  0
  5 13  1  0
  9 15  1  0
 14 15  1  0
 14 17  1  0
 14 18  1  0
 14 19  1  0
 15 16  2  0
M  RAD  1   3   2
M  END
>  <reaction>  (12) 
rxn_1165

>  <mol_properties>  (12) 
{"1": {"label": "*0", "atom_type": "Cd"}, "2": {"label": "*1", "atom_type": "Cs"}, "8": {"label": "*2", "atom_type": "H0"}, "14": {"label": "*3", "atom_type": "CS"}, "15": {"label": "*4", "atom_type": "S2d"}}

>  <type>  (12) 
unop_8

>  <geom_source>  (12) 
Heuristics

$$$$

     RDKit          3D

 19 17  0  0  0  0  0  0  0  0999 V2000
   -0.2478   -2.2436   -1.3558 C   0  0  0  0  0  0  0  0  0  0  0  0
   -0.2478   -2.2436   -0.0325 C   0  0  0  0  0  0  0  0  0  0  0  0
   -0.2478   -1.0178    0.8255 C   0  0  0  0  0  3  0  0  0  0  0  0
    0.9620   -0.8634    1.7067 C   0  0  0  0  0  0  0  0  0  0  0  0
    2.0731   -1.5791    1.6343 C   0  0  0  0  0  0  0  0  0  0  0  0
   -0.2559   -3.1664   -1.9223 H   0  0  0  0  0  0  0  0  0  0  0  0
   -0.2414   -1.3182   -1.9217 H   0  0  0  0  0  0  0  0  0  0  0  0
   -0.2452   -3.1924    0.4980 H   0  0  0  0  0  0  0  0  0  0  0  0
   -0.3678    0.0542    0.0750 H   0  0  0  0  0  0  0  0  0  0  0  0
   -1.1357   -1.0313    1.4683 H   0  0  0  0  0  0  0  0  0  0  0  0
    0.8893   -0.0784    2.4544 H   0  0  0  0  0  0  0  0  0  0  0  0
    2.1986   -2.3660    0.8994 H   0  0  0  0  0  0  0  0  0  0  0  0
    2.9013   -1.3948    2.3066 H   0  0  0  0  0  0  0  0  0  0  0  0
    0.0904    0.9913   -2.0383 C   0  0  0  0  0  0  0  0  0  0  0  0
   -0.4875    1.1228   -0.6733 C   0  0  0  0  0  0  0  0  0  0  0  0
   -0.8515    2.4951    0.0788 S   0  0  0  0  0  0  0  0  0  0  0  0
    1.0377    0.4460   -1.9846 H   0  0  0  0  0  0  0  0  0  0  0  0
    0.2516    1.9616   -2.5032 H   0  0  0  0  0  0  0  0  0  0  0  0
   -0.5771    0.3893   -2.6627 H   0  0  0  0  0  0  0  0  0  0  0  0
  1  2  2  3
  1  6  1  0
  1  7  1  0
  2  3  1  0
  2  8  1  0
  3  4  1  0
  3 10  1  0
  4  5  2  3
  4 11  1  0
  5 12  1  0
  5 13  1  0
  9 15  1  0
 14 15  1  0
 14 17  1  0
 14 18  1  0
 14 19  1  0
 15 16  2  0
M  RAD  1   3   2
M  END
>  <reaction>  (13) 
rxn_1165

>  <mol_properties>  (13) 
{"1": {"label": "*0", "atom_type": "Cd"}, "2": {"label": "*1", "atom_type": "Cs"}, "8": {"label": "*2", "atom_type": "H0"}, "14": {"label": "*3", "atom_type": "CS"}, "15": {"label": "*4", "atom_type": "S2d"}}

>  <type>  (13) 
unop_9

>  <geom_source>  (13) 
Heuristics

$$$$

     RDKit          3D

 19 17  0  0  0  0  0  0  0  0999 V2000
   -0.3112   -2.2375   -1.3894 C   0  0  0  0  0  0  0  0  0  0  0  0
   -0.3112   -2.2375   -0.0661 C   0  0  0  0  0  0  0  0  0  0  0  0
   -0.3112   -1.0117    0.7919 C   0  0  0  0  0  3  0  0  0  0  0  0
    0.8985   -0.8573    1.6731 C   0  0  0  0  0  0  0  0  0  0  0  0
    2.0097   -1.5730    1.6006 C   0  0  0  0  0  0  0  0  0  0  0  0
   -0.3194   -3.1603   -1.9559 H   0  0  0  0  0  0  0  0  0  0  0  0
   -0.3048   -1.3121   -1.9554 H   0  0  0  0  0  0  0  0  0  0  0  0
   -0.3086   -3.1863    0.4644 H   0  0  0  0  0  0  0  0  0  0  0  0
   -0.4313    0.0603    0.0413 H   0  0  0  0  0  0  0  0  0  0  0  0
   -1.1992   -1.0252    1.4346 H   0  0  0  0  0  0  0  0  0  0  0  0
    0.8258   -0.0723    2.4208 H   0  0  0  0  0  0  0  0  0  0  0  0
    2.1351   -2.3599    0.8658 H   0  0  0  0  0  0  0  0  0  0  0  0
    2.8379   -1.3887    2.2730 H   0  0  0  0  0  0  0  0  0  0  0  0
   -1.7962    1.1795   -1.5202 C   0  0  0  0  0  0  0  0  0  0  0  0
   -0.5510    1.1289   -0.7069 C   0  0  0  0  0  0  0  0  0  0  0  0
    0.2377    2.3871   -0.0933 S   0  0  0  0  0  0  0  0  0  0  0  0
   -1.6199    0.7056   -2.4907 H   0  0  0  0  0  0  0  0  0  0  0  0
   -2.1402    2.2010   -1.6679 H   0  0  0  0  0  0  0  0  0  0  0  0
   -2.5793    0.5939   -1.0287 H   0  0  0  0  0  0  0  0  0  0  0  0
  1  2  2  3
  1  6  1  0
  1  7  1  0
  2  3  1  0
  2  8  1  0
  3  4  1  0
  3 10  1  0
  4  5  2  3
  4 11  1  0
  5 12  1  0
  5 13  1  0
  9 15  1  0
 14 15  1  0
 14 17  1  0
 14 18  1  0
 14 19  1  0
 15 16  2  0
M  RAD  1   3   2
M  END
>  <reaction>  (14) 
rxn_1165

>  <mol_properties>  (14) 
{"1": {"label": "*0", "atom_type": "Cd"}, "2": {"label": "*1", "atom_type": "Cs"}, "8": {"label": "*2", "atom_type": "H0"}, "14": {"label": "*3", "atom_type": "CS"}, "15": {"label": "*4", "atom_type": "S2d"}}

>  <type>  (14) 
unop_10

>  <geom_source>  (14) 
Heuristics

$$$$

     RDKit          3D

 19 17  0  0  0  0  0  0  0  0999 V2000
   -0.0176   -2.0561   -1.1740 C   0  0  0  0  0  0  0  0  0  0  0  0
   -0.0176   -2.0561    0.1493 C   0  0  0  0  0  0  0  0  0  0  0  0
   -0.0176   -0.8303    1.0073 C   0  0  0  0  0  3  0  0  0  0  0  0
    1.1921   -0.6760    1.8885 C   0  0  0  0  0  0  0  0  0  0  0  0
    2.3033   -1.3917    1.8160 C   0  0  0  0  0  0  0  0  0  0  0  0
   -0.0258   -2.9789   -1.7405 H   0  0  0  0  0  0  0  0  0  0  0  0
   -0.0113   -1.1307   -1.7400 H   0  0  0  0  0  0  0  0  0  0  0  0
   -0.0150   -3.0049    0.6798 H   0  0  0  0  0  0  0  0  0  0  0  0
   -0.1377    0.2417    0.2567 H   0  0  0  0  0  0  0  0  0  0  0  0
   -0.9056   -0.8438    1.6500 H   0  0  0  0  0  0  0  0  0  0  0  0
    1.1194    0.1091    2.6362 H   0  0  0  0  0  0  0  0  0  0  0  0
    2.4287   -2.1785    1.0812 H   0  0  0  0  0  0  0  0  0  0  0  0
    3.1315   -1.2074    2.4884 H   0  0  0  0  0  0  0  0  0  0  0  0
    0.3981    2.5280    0.0581 C   0  0  0  0  0  0  0  0  0  0  0  0
   -0.2574    1.3103   -0.4915 C   0  0  0  0  0  0  0  0  0  0  0  0
   -1.5761    1.2700   -1.4084 S   0  0  0  0  0  0  0  0  0  0  0  0
    0.4395    2.4613    1.1497 H   0  0  0  0  0  0  0  0  0  0  0  0
   -0.1264    3.4352   -0.2343 H   0  0  0  0  0  0  0  0  0  0  0  0
    1.4355    2.5739   -0.2877 H   0  0  0  0  0  0  0  0  0  0  0  0
  1  2  2  3
  1  6  1  0
  1  7  1  0
  2  3  1  0
  2  8  1  0
  3  4  1  0
  3 10  1  0
  4  5  2  3
  4 11  1  0
  5 12  1  0
  5 13  1  0
  9 15  1  0
 14 15  1  0
 14 17  1  0
 14 18  1  0
 14 19  1  0
 15 16  2  0
M  RAD  1   3   2
M  END
>  <reaction>  (15) 
rxn_1165

>  <mol_properties>  (15) 
{"1": {"label": "*0", "atom_type": "Cd"}, "2": {"label": "*1", "atom_type": "Cs"}, "8": {"label": "*2", "atom_type": "H0"}, "14": {"label": "*3", "atom_type": "CS"}, "15": {"label": "*4", "atom_type": "S2d"}}

>  <type>  (15) 
unop_11

>  <geom_source>  (15) 
Heuristics

$$$$

     RDKit          3D

 19 17  0  0  0  0  0  0  0  0999 V2000
   -0.2487   -2.2442   -1.3315 C   0  0  0  0  0  0  0  0  0  0  0  0
   -0.2487   -2.2442   -0.0083 C   0  0  0  0  0  0  0  0  0  0  0  0
   -0.2487   -1.0184    0.8497 C   0  0  0  0  0  3  0  0  0  0  0  0
    0.9610   -0.8641    1.7309 C   0  0  0  0  0  0  0  0  0  0  0  0
    2.0721   -1.5798    1.6585 C   0  0  0  0  0  0  0  0  0  0  0  0
   -0.2569   -3.1670   -1.8981 H   0  0  0  0  0  0  0  0  0  0  0  0
   -0.2424   -1.3188   -1.8975 H   0  0  0  0  0  0  0  0  0  0  0  0
   -0.2462   -3.1930    0.5222 H   0  0  0  0  0  0  0  0  0  0  0  0
   -0.3688    0.0536    0.0992 H   0  0  0  0  0  0  0  0  0  0  0  0
   -1.1367   -1.0319    1.4925 H   0  0  0  0  0  0  0  0  0  0  0  0
    0.8883   -0.0790    2.4786 H   0  0  0  0  0  0  0  0  0  0  0  0
    2.1976   -2.3666    0.9236 H   0  0  0  0  0  0  0  0  0  0  0  0
    2.9003   -1.3955    2.3308 H   0  0  0  0  0  0  0  0  0  0  0  0
   -0.5899    0.8486   -2.1083 C   0  0  0  0  0  0  0  0  0  0  0  0
   -0.4885    1.1222   -0.6490 C   0  0  0  0  0  0  0  0  0  0  0  0
   -0.5133    2.5671    0.0531 S   0  0  0  0  0  0  0  0  0  0  0  0
    0.2947    0.2965   -2.4403 H   0  0  0  0  0  0  0  0  0  0  0  0
   -0.6874    1.7661   -2.6848 H   0  0  0  0  0  0  0  0  0  0  0  0
   -1.4493    0.1989   -2.3008 H   0  0  0  0  0  0  0  0  0  0  0  0
  1  2  2  3
  1  6  1  0
  1  7  1  0
  2  3  1  0
  2  8  1  0
  3  4  1  0
  3 10  1  0
  4  5  2  3
  4 11  1  0
  5 12  1  0
  5 13  1  0
  9 15  1  0
 14 15  1  0
 14 17  1  0
 14 18  1  0
 14 19  1  0
 15 16  2  0
M  RAD  1   3   2
M  END
>  <reaction>  (16) 
rxn_1165

>  <mol_properties>  (16) 
{"1": {"label": "*0", "atom_type": "Cd"}, "2": {"label": "*1", "atom_type": "Cs"}, "8": {"label": "*2", "atom_type": "H0"}, "14": {"label": "*3", "atom_type": "CS"}, "15": {"label": "*4", "atom_type": "S2d"}}

>  <type>  (16) 
unop_12

>  <geom_source>  (16) 
Heuristics

$$$$

     RDKit          3D

 19 15  0  0  0  0  0  0  0  0999 V2000
    2.0401   -2.0422   -0.5735 S   0  0  0  0  0  1  0  0  0  0  0  0
    2.9207    0.1755    0.3225 C   0  0  0  0  0  0  0  0  0  0  0  0
   -0.7677   -0.1551   -0.4782 C   0  0  0  0  0  1  0  0  0  0  0  0
   -1.3083    1.2015   -0.1329 C   0  0  0  0  0  2  0  0  0  0  0  0
   -1.8495   -1.1932   -0.5265 C   0  0  0  0  0  2  0  0  0  0  0  0
    1.8270   -0.6547   -0.2713 C   0  0  0  0  0  3  0  0  0  0  0  0
   -0.5431    2.2863   -0.2607 C   0  0  0  0  0  3  0  0  0  0  0  0
   -2.4052   -1.6778    0.5875 C   0  0  0  0  0  3  0  0  0  0  0  0
    3.2319   -0.2420    1.3040 H   0  0  0  0  0  0  0  0  0  0  0  0
    2.5529    1.2110    0.4775 H   0  0  0  0  0  0  0  0  0  0  0  0
    3.7953    0.2074   -0.3621 H   0  0  0  0  0  0  0  0  0  0  0  0
    0.0438   -0.4531    0.2205 H   0  0  0  0  0  0  0  0  0  0  0  0
   -2.3261    1.3119    0.2321 H   0  0  0  0  0  0  0  0  0  0  0  0
   -2.1812   -1.5584   -1.4930 H   0  0  0  0  0  0  0  0  0  0  0  0
    0.7030   -0.1313   -0.5101 H   0  0  0  0  0  0  0  0  0  0  0  0
    0.4791    2.2093   -0.6193 H   0  0  0  0  0  0  0  0  0  0  0  0
   -0.9394    3.2638   -0.0054 H   0  0  0  0  0  0  0  0  0  0  0  0
   -3.1848   -2.4298    0.5229 H   0  0  0  0  0  0  0  0  0  0  0  0
   -2.0885   -1.3290    1.5660 H   0  0  0  0  0  0  0  0  0  0  0  0
  1  6  1  0
  2  6  1  0
  2 11  1  0
  2 10  1  0
  2  9  1  0
  3 12  1  0
  4  7  1  0
  4 13  1  0
  5  8  1  0
  5 14  1  0
  6 15  1  0
  7 16  1  0
  7 17  1  0
  8 18  1  0
  8 19  1  0
M  RAD  7   1   2   3   2   4   3   5   3   6   2   7   2   8   2
M  END
>  <reaction>  (17) 
rxn_1165

>  <mol_properties>  (17) 
{"1": {"label": "*0", "atom_type": "Cd"}, "2": {"label": "*1", "atom_type": "Cs"}, "8": {"label": "*2", "atom_type": "H0"}, "14": {"label": "*3", "atom_type": "CS"}, "15": {"label": "*4", "atom_type": "S2d"}}

>  <type>  (17) 
unop_13

>  <geom_source>  (17) 
AutoTST

$$$$
