
     RDKit          3D

 12 11  0  0  0  0  0  0  0  0999 V2000
    1.9877    0.1011    0.4814 C   0  0  0  0  0  0  0  0  0  0  0  0
    0.8179    0.5502    0.0525 C   0  0  0  0  0  0  0  0  0  0  0  0
   -0.2939   -0.2692   -0.5320 C   0  0  0  0  0  0  0  0  0  0  0  0
   -0.0292   -1.7631   -0.6328 C   0  0  0  0  0  0  0  0  0  0  0  0
    2.2522   -0.9490    0.4436 H   0  0  0  0  0  0  0  0  0  0  0  0
    2.7295    0.7757    0.8896 H   0  0  0  0  0  0  0  0  0  0  0  0
    0.6162    1.6164    0.1190 H   0  0  0  0  0  0  0  0  0  0  0  0
   -0.5268    0.1319   -1.5245 H   0  0  0  0  0  0  0  0  0  0  0  0
   -1.1959   -0.0938    0.0644 H   0  0  0  0  0  0  0  0  0  0  0  0
    0.1590   -2.1992    0.3502 H   0  0  0  0  0  0  0  0  0  0  0  0
    0.8382   -1.9701   -1.2626 H   0  0  0  0  0  0  0  0  0  0  0  0
   -0.8879   -2.2759   -1.0672 H   0  0  0  0  0  0  0  0  0  0  0  0
  1  2  2  3
  1  5  1  0
  1  6  1  0
  2  3  1  0
  2  7  1  0
  3  4  1  0
  3  8  1  0
  3  9  1  0
  4 10  1  0
  4 11  1  0
  4 12  1  0
M  END
>  <reaction>  (1) 
rxn_1060

>  <mol_properties>  (1) 
{"2": {"label": "donator", "atom_type": "Cs"}, "7": {"label": "d_hydrogen", "atom_type": "H0"}}

>  <type>  (1) 
r1h

$$$$

     RDKit          3D

  8  7  0  0  0  0  0  0  0  0999 V2000
   -1.0607    0.1793   -0.1423 C   0  0  0  0  0  0  0  0  0  0  0  0
    0.2796    0.0327    0.4820 C   0  0  0  0  0  3  0  0  0  0  0  0
    0.8817   -1.4663    1.0791 S   0  0  0  0  0  0  0  0  0  0  0  0
   -1.3043    1.2328   -0.2850 H   0  0  0  0  0  0  0  0  0  0  0  0
   -1.8444   -0.2641    0.4799 H   0  0  0  0  0  0  0  0  0  0  0  0
   -1.1164   -0.3100   -1.1237 H   0  0  0  0  0  0  0  0  0  0  0  0
    1.0449    0.7826    0.3391 H   0  0  0  0  0  0  0  0  0  0  0  0
   -0.2993   -2.0726    1.2718 H   0  0  0  0  0  0  0  0  0  0  0  0
  1  2  1  0
  1  4  1  0
  1  5  1  0
  1  6  1  0
  2  3  1  0
  2  7  1  0
  3  8  1  0
M  RAD  1   2   2
M  END
>  <reaction>  (2) 
rxn_1060

>  <mol_properties>  (2) 
{"1": {"label": "acceptor", "atom_type": "Cs"}}

>  <type>  (2) 
r2

$$$$

     RDKit          3D

  9  8  0  0  0  0  0  0  0  0999 V2000
   -0.8818   -0.3578    0.1297 C   0  0  0  0  0  0  0  0  0  0  0  0
    0.6153   -0.3021   -0.1188 C   0  0  0  0  0  0  0  0  0  0  0  0
    1.5354   -1.7170    0.5545 S   0  0  0  0  0  0  0  0  0  0  0  0
   -1.1018   -0.3317    1.1984 H   0  0  0  0  0  0  0  0  0  0  0  0
   -1.3114   -1.2723   -0.2799 H   0  0  0  0  0  0  0  0  0  0  0  0
   -1.3767    0.4976   -0.3363 H   0  0  0  0  0  0  0  0  0  0  0  0
    1.0467    0.6194    0.2718 H   0  0  0  0  0  0  0  0  0  0  0  0
    0.8295   -0.3275   -1.1882 H   0  0  0  0  0  0  0  0  0  0  0  0
    1.2306   -1.5077    1.8423 H   0  0  0  0  0  0  0  0  0  0  0  0
  1  2  1  0
  1  4  1  0
  1  5  1  0
  1  6  1  0
  2  3  1  0
  2  7  1  0
  2  8  1  0
  3  9  1  0
M  END
>  <reaction>  (3) 
rxn_1060

>  <mol_properties>  (3) 
{"1": {"label": "acceptor", "atom_type": "Cs"}, "8": {"label": "a_hydrogen", "atom_type": "H0"}}

>  <type>  (3) 
r2h

$$$$

     RDKit          3D

 20 18  0  0  0  0  0  0  0  0999 V2000
    1.9688    0.2242   -0.1013 C   0  0  0  0  0  0  0  0  0  0  0  0
    0.8560    0.1846    0.9093 C   0  0  0  0  0  3  0  0  0  0  0  0
    0.5598   -1.3436    1.7509 S   0  0  0  0  0  0  0  0  0  0  0  0
    2.0486    1.2202   -0.5410 H   0  0  0  0  0  0  0  0  0  0  0  0
    1.7788   -0.4878   -0.9085 H   0  0  0  0  0  0  0  0  0  0  0  0
    2.9318   -0.0301    0.3501 H   0  0  0  0  0  0  0  0  0  0  0  0
    0.8660    0.9895    1.6416 H   0  0  0  0  0  0  0  0  0  0  0  0
    0.5152   -2.1158    0.6546 H   0  0  0  0  0  0  0  0  0  0  0  0
   -1.1534   -1.2950   -2.3209 C   0  0  0  0  0  0  0  0  0  0  0  0
   -1.5561   -0.7792   -1.1556 C   0  0  0  0  0  0  0  0  0  0  0  0
   -1.2961    0.5756   -0.6717 C   0  0  0  0  0  0  0  0  0  0  0  0
   -0.8408    1.6249   -1.6562 C   0  0  0  0  0  0  0  0  0  0  0  0
   -0.6209   -0.7069   -3.0588 H   0  0  0  0  0  0  0  0  0  0  0  0
   -1.3654   -2.3246   -2.5782 H   0  0  0  0  0  0  0  0  0  0  0  0
   -2.0929   -1.4254   -0.4667 H   0  0  0  0  0  0  0  0  0  0  0  0
   -0.2997    0.4271    0.1607 H   0  0  0  0  0  0  0  0  0  0  0  0
   -2.0662    0.9295    0.0136 H   0  0  0  0  0  0  0  0  0  0  0  0
   -1.6087    1.8219   -2.4097 H   0  0  0  0  0  0  0  0  0  0  0  0
    0.0637    1.3155   -2.1835 H   0  0  0  0  0  0  0  0  0  0  0  0
   -0.6212    2.5640   -1.1463 H   0  0  0  0  0  0  0  0  0  0  0  0
  1  2  1  0
  1  4  1  0
  1  5  1  0
  1  6  1  0
  2  3  1  0
  2  7  1  0
  3  8  1  0
  9 10  2  3
  9 13  1  0
  9 14  1  0
 10 11  1  0
 10 15  1  0
 11 12  1  0
 11 16  1  0
 11 17  1  0
 12 18  1  0
 12 19  1  0
 12 20  1  0
M  RAD  1   2   2
M  END
>  <reaction>  (4) 
rxn_1060

>  <mol_properties>  (4) 
{"1": {"label": "*3", "atom_type": "Cs"}, "2": {"label": "*4", "atom_type": "S2s"}, "9": {"label": "*0", "atom_type": "Cd"}, "10": {"label": "*1", "atom_type": "Cs"}, "15": {"label": "*2", "atom_type": "H0"}}

>  <type>  (4) 
ts

$$$$

     RDKit          3D

 20 18  0  0  0  0  0  0  0  0999 V2000
    1.5846    1.4513    0.8100 C   0  0  0  0  0  0  0  0  0  0  0  0
    0.6567    0.2634    0.9951 C   0  0  0  0  0  0  0  0  0  0  0  0
    1.4102   -1.1418    1.8665 S   0  0  0  0  0  0  0  0  0  0  0  0
    1.0574    2.2729    0.3192 H   0  0  0  0  0  0  0  0  0  0  0  0
    2.4419    1.1844    0.1894 H   0  0  0  0  0  0  0  0  0  0  0  0
    1.9615    1.8053    1.7698 H   0  0  0  0  0  0  0  0  0  0  0  0
   -0.1987    0.5359    1.6151 H   0  0  0  0  0  0  0  0  0  0  0  0
    2.3725   -1.3898    0.9679 H   0  0  0  0  0  0  0  0  0  0  0  0
   -1.4244   -0.7784   -2.8100 C   0  0  0  0  0  0  0  0  0  0  0  0
   -1.4244   -0.7784   -1.4857 C   0  0  0  0  0  0  0  0  0  0  0  0
   -1.4244    0.4261   -0.5922 C   0  0  0  0  0  3  0  0  0  0  0  0
   -1.4244    1.7719   -1.2999 C   0  0  0  0  0  0  0  0  0  0  0  0
   -1.4244    0.1385   -3.3875 H   0  0  0  0  0  0  0  0  0  0  0  0
   -1.4244   -1.7057   -3.3687 H   0  0  0  0  0  0  0  0  0  0  0  0
   -1.4244   -1.7341   -0.9675 H   0  0  0  0  0  0  0  0  0  0  0  0
   -0.3811    0.3446    0.2035 H   0  0  0  0  0  0  0  0  0  0  0  0
   -2.2938    0.3582    0.0709 H   0  0  0  0  0  0  0  0  0  0  0  0
   -2.3068    1.8869   -1.9324 H   0  0  0  0  0  0  0  0  0  0  0  0
   -0.5419    1.8869   -1.9324 H   0  0  0  0  0  0  0  0  0  0  0  0
   -1.4244    2.5863   -0.5746 H   0  0  0  0  0  0  0  0  0  0  0  0
  1  2  1  0
  1  4  1  0
  1  5  1  0
  1  6  1  0
  2  3  1  0
  2  7  1  0
  2 16  1  0
  3  8  1  0
  9 10  2  3
  9 13  1  0
  9 14  1  0
 10 11  1  0
 10 15  1  0
 11 12  1  0
 11 17  1  0
 12 18  1  0
 12 19  1  0
 12 20  1  0
M  RAD  1  11   2
M  END
>  <reaction>  (5) 
rxn_1060

>  <mol_properties>  (5) 
{"1": {"label": "*3", "atom_type": "Cs"}, "2": {"label": "*4", "atom_type": "S2s"}, "9": {"label": "*0", "atom_type": "Cd"}, "10": {"label": "*1", "atom_type": "Cs"}, "15": {"label": "*2", "atom_type": "H0"}}

>  <type>  (5) 
unop_1

>  <geom_source>  (5) 
Heuristics

$$$$

     RDKit          3D

 20 18  0  0  0  0  0  0  0  0999 V2000
    2.0387   -0.5121    0.1385 C   0  0  0  0  0  0  0  0  0  0  0  0
    0.8942    0.2306    0.8054 C   0  0  0  0  0  0  0  0  0  0  0  0
    0.7070   -0.1257    2.5774 S   0  0  0  0  0  0  0  0  0  0  0  0
    2.1208   -0.2205   -0.9113 H   0  0  0  0  0  0  0  0  0  0  0  0
    1.8785   -1.5911    0.1756 H   0  0  0  0  0  0  0  0  0  0  0  0
    2.9856   -0.2954    0.6336 H   0  0  0  0  0  0  0  0  0  0  0  0
    1.0589    1.3083    0.7647 H   0  0  0  0  0  0  0  0  0  0  0  0
    0.4519   -1.4349    2.4511 H   0  0  0  0  0  0  0  0  0  0  0  0
   -1.1868   -0.8111   -2.9997 C   0  0  0  0  0  0  0  0  0  0  0  0
   -1.1868   -0.8111   -1.6754 C   0  0  0  0  0  0  0  0  0  0  0  0
   -1.1868    0.3934   -0.7819 C   0  0  0  0  0  3  0  0  0  0  0  0
   -1.1868    1.7391   -1.4896 C   0  0  0  0  0  0  0  0  0  0  0  0
   -1.1868    0.1058   -3.5771 H   0  0  0  0  0  0  0  0  0  0  0  0
   -1.1868   -1.7385   -3.5584 H   0  0  0  0  0  0  0  0  0  0  0  0
   -1.1868   -1.7669   -1.1572 H   0  0  0  0  0  0  0  0  0  0  0  0
   -0.1436    0.3118    0.0139 H   0  0  0  0  0  0  0  0  0  0  0  0
   -2.0562    0.3254   -0.1188 H   0  0  0  0  0  0  0  0  0  0  0  0
   -2.0693    1.8541   -2.1220 H   0  0  0  0  0  0  0  0  0  0  0  0
   -0.3044    1.8541   -2.1220 H   0  0  0  0  0  0  0  0  0  0  0  0
   -1.1868    2.5535   -0.7643 H   0  0  0  0  0  0  0  0  0  0  0  0
  1  2  1  0
  1  4  1  0
  1  5  1  0
  1  6  1  0
  2  3  1  0
  2  7  1  0
  2 16  1  0
  3  8  1  0
  9 10  2  3
  9 13  1  0
  9 14  1  0
 10 11  1  0
 10 15  1  0
 11 12  1  0
 11 17  1  0
 12 18  1  0
 12 19  1  0
 12 20  1  0
M  RAD  1  11   2
M  END
>  <reaction>  (6) 
rxn_1060

>  <mol_properties>  (6) 
{"1": {"label": "*3", "atom_type": "Cs"}, "2": {"label": "*4", "atom_type": "S2s"}, "9": {"label": "*0", "atom_type": "Cd"}, "10": {"label": "*1", "atom_type": "Cs"}, "15": {"label": "*2", "atom_type": "H0"}}

>  <type>  (6) 
unop_2

>  <geom_source>  (6) 
Heuristics

$$$$

     RDKit          3D

 20 18  0  0  0  0  0  0  0  0999 V2000
    1.0759    1.5841    1.5418 C   0  0  0  0  0  0  0  0  0  0  0  0
    0.5675    0.2056    1.1574 C   0  0  0  0  0  0  0  0  0  0  0  0
    1.8408   -1.0906    1.1786 S   0  0  0  0  0  0  0  0  0  0  0  0
    0.2540    2.3039    1.5498 H   0  0  0  0  0  0  0  0  0  0  0  0
    1.8244    1.9370    0.8300 H   0  0  0  0  0  0  0  0  0  0  0  0
    1.5335    1.5692    2.5313 H   0  0  0  0  0  0  0  0  0  0  0  0
   -0.1807   -0.1418    1.8712 H   0  0  0  0  0  0  0  0  0  0  0  0
    2.6246   -0.5605    0.2302 H   0  0  0  0  0  0  0  0  0  0  0  0
   -1.5135   -0.8362   -2.6478 C   0  0  0  0  0  0  0  0  0  0  0  0
   -1.5135   -0.8362   -1.3234 C   0  0  0  0  0  0  0  0  0  0  0  0
   -1.5135    0.3683   -0.4300 C   0  0  0  0  0  3  0  0  0  0  0  0
   -1.5135    1.7141   -1.1377 C   0  0  0  0  0  0  0  0  0  0  0  0
   -1.5135    0.0807   -3.2252 H   0  0  0  0  0  0  0  0  0  0  0  0
   -1.5135   -1.7635   -3.2065 H   0  0  0  0  0  0  0  0  0  0  0  0
   -1.5135   -1.7919   -0.8053 H   0  0  0  0  0  0  0  0  0  0  0  0
   -0.4703    0.2868    0.3658 H   0  0  0  0  0  0  0  0  0  0  0  0
   -2.3829    0.3004    0.2331 H   0  0  0  0  0  0  0  0  0  0  0  0
   -2.3960    1.8291   -1.7701 H   0  0  0  0  0  0  0  0  0  0  0  0
   -0.6311    1.8291   -1.7701 H   0  0  0  0  0  0  0  0  0  0  0  0
   -1.5135    2.5284   -0.4124 H   0  0  0  0  0  0  0  0  0  0  0  0
  1  2  1  0
  1  4  1  0
  1  5  1  0
  1  6  1  0
  2  3  1  0
  2  7  1  0
  2 16  1  0
  3  8  1  0
  9 10  2  3
  9 13  1  0
  9 14  1  0
 10 11  1  0
 10 15  1  0
 11 12  1  0
 11 17  1  0
 12 18  1  0
 12 19  1  0
 12 20  1  0
M  RAD  1  11   2
M  END
>  <reaction>  (7) 
rxn_1060

>  <mol_properties>  (7) 
{"1": {"label": "*3", "atom_type": "Cs"}, "2": {"label": "*4", "atom_type": "S2s"}, "9": {"label": "*0", "atom_type": "Cd"}, "10": {"label": "*1", "atom_type": "Cs"}, "15": {"label": "*2", "atom_type": "H0"}}

>  <type>  (7) 
unop_3

>  <geom_source>  (7) 
Heuristics

$$$$

     RDKit          3D

 20 18  0  0  0  0  0  0  0  0999 V2000
    1.1608   -1.4686    1.7312 C   0  0  0  0  0  0  0  0  0  0  0  0
    1.2149   -0.2124    0.8795 C   0  0  0  0  0  0  0  0  0  0  0  0
    0.4669    1.2488    1.6588 S   0  0  0  0  0  0  0  0  0  0  0  0
    1.6636   -2.2947    1.2228 H   0  0  0  0  0  0  0  0  0  0  0  0
    0.1285   -1.7688    1.9197 H   0  0  0  0  0  0  0  0  0  0  0  0
    1.6455   -1.3079    2.6945 H   0  0  0  0  0  0  0  0  0  0  0  0
    2.2486    0.0826    0.6935 H   0  0  0  0  0  0  0  0  0  0  0  0
   -0.7765    0.7594    1.7559 H   0  0  0  0  0  0  0  0  0  0  0  0
   -0.8662   -1.2542   -2.9256 C   0  0  0  0  0  0  0  0  0  0  0  0
   -0.8662   -1.2542   -1.6013 C   0  0  0  0  0  0  0  0  0  0  0  0
   -0.8662   -0.0497   -0.7078 C   0  0  0  0  0  3  0  0  0  0  0  0
   -0.8662    1.2961   -1.4155 C   0  0  0  0  0  0  0  0  0  0  0  0
   -0.8662   -0.3373   -3.5031 H   0  0  0  0  0  0  0  0  0  0  0  0
   -0.8662   -2.1815   -3.4843 H   0  0  0  0  0  0  0  0  0  0  0  0
   -0.8662   -2.2099   -1.0831 H   0  0  0  0  0  0  0  0  0  0  0  0
    0.1771   -0.1313    0.0879 H   0  0  0  0  0  0  0  0  0  0  0  0
   -1.7356   -0.1177   -0.0447 H   0  0  0  0  0  0  0  0  0  0  0  0
   -1.7486    1.4111   -2.0479 H   0  0  0  0  0  0  0  0  0  0  0  0
    0.0162    1.4111   -2.0479 H   0  0  0  0  0  0  0  0  0  0  0  0
   -0.8662    2.1104   -0.6902 H   0  0  0  0  0  0  0  0  0  0  0  0
  1  2  1  0
  1  4  1  0
  1  5  1  0
  1  6  1  0
  2  3  1  0
  2  7  1  0
  2 16  1  0
  3  8  1  0
  9 10  2  3
  9 13  1  0
  9 14  1  0
 10 11  1  0
 10 15  1  0
 11 12  1  0
 11 17  1  0
 12 18  1  0
 12 19  1  0
 12 20  1  0
M  RAD  1  11   2
M  END
>  <reaction>  (8) 
rxn_1060

>  <mol_properties>  (8) 
{"1": {"label": "*3", "atom_type": "Cs"}, "2": {"label": "*4", "atom_type": "S2s"}, "9": {"label": "*0", "atom_type": "Cd"}, "10": {"label": "*1", "atom_type": "Cs"}, "15": {"label": "*2", "atom_type": "H0"}}

>  <type>  (8) 
unop_4

>  <geom_source>  (8) 
Heuristics

$$$$

     RDKit          3D

 20 18  0  0  0  0  0  0  0  0999 V2000
    0.6361    1.1243    2.3109 C   0  0  0  0  0  0  0  0  0  0  0  0
    0.5664   -0.0662    1.3707 C   0  0  0  0  0  0  0  0  0  0  0  0
    2.0597   -0.3090    0.3642 S   0  0  0  0  0  0  0  0  0  0  0  0
   -0.2730    1.1865    2.9138 H   0  0  0  0  0  0  0  0  0  0  0  0
    0.7336    2.0575    1.7533 H   0  0  0  0  0  0  0  0  0  0  0  0
    1.4919    1.0422    2.9815 H   0  0  0  0  0  0  0  0  0  0  0  0
    0.4681   -0.9959    1.9330 H   0  0  0  0  0  0  0  0  0  0  0  0
    2.0003    0.8565   -0.2939 H   0  0  0  0  0  0  0  0  0  0  0  0
   -1.5146   -1.1080   -2.4345 C   0  0  0  0  0  0  0  0  0  0  0  0
   -1.5146   -1.1080   -1.1101 C   0  0  0  0  0  0  0  0  0  0  0  0
   -1.5146    0.0965   -0.2167 C   0  0  0  0  0  3  0  0  0  0  0  0
   -1.5146    1.4422   -0.9244 C   0  0  0  0  0  0  0  0  0  0  0  0
   -1.5146   -0.1911   -3.0119 H   0  0  0  0  0  0  0  0  0  0  0  0
   -1.5146   -2.0354   -2.9932 H   0  0  0  0  0  0  0  0  0  0  0  0
   -1.5146   -2.0638   -0.5920 H   0  0  0  0  0  0  0  0  0  0  0  0
   -0.4714    0.0149    0.5791 H   0  0  0  0  0  0  0  0  0  0  0  0
   -2.3840    0.0285    0.4464 H   0  0  0  0  0  0  0  0  0  0  0  0
   -2.3971    1.5572   -1.5568 H   0  0  0  0  0  0  0  0  0  0  0  0
   -0.6322    1.5572   -1.5568 H   0  0  0  0  0  0  0  0  0  0  0  0
   -1.5146    2.2566   -0.1991 H   0  0  0  0  0  0  0  0  0  0  0  0
  1  2  1  0
  1  4  1  0
  1  5  1  0
  1  6  1  0
  2  3  1  0
  2  7  1  0
  2 16  1  0
  3  8  1  0
  9 10  2  3
  9 13  1  0
  9 14  1  0
 10 11  1  0
 10 15  1  0
 11 12  1  0
 11 17  1  0
 12 18  1  0
 12 19  1  0
 12 20  1  0
M  RAD  1  11   2
M  END
>  <reaction>  (9) 
rxn_1060

>  <mol_properties>  (9) 
{"1": {"label": "*3", "atom_type": "Cs"}, "2": {"label": "*4", "atom_type": "S2s"}, "9": {"label": "*0", "atom_type": "Cd"}, "10": {"label": "*1", "atom_type": "Cs"}, "15": {"label": "*2", "atom_type": "H0"}}

>  <type>  (9) 
unop_5

>  <geom_source>  (9) 
Heuristics

$$$$

     RDKit          3D

 20 18  0  0  0  0  0  0  0  0999 V2000
    0.8166   -1.1077    2.3150 C   0  0  0  0  0  0  0  0  0  0  0  0
    1.1587   -0.3695    1.0326 C   0  0  0  0  0  0  0  0  0  0  0  0
    0.7494    1.4006    1.0602 S   0  0  0  0  0  0  0  0  0  0  0  0
    1.1265   -2.1532    2.2462 H   0  0  0  0  0  0  0  0  0  0  0  0
   -0.2584   -1.0879    2.5024 H   0  0  0  0  0  0  0  0  0  0  0  0
    1.3158   -0.6537    3.1714 H   0  0  0  0  0  0  0  0  0  0  0  0
    2.2339   -0.3933    0.8496 H   0  0  0  0  0  0  0  0  0  0  0  0
   -0.5729    1.2566    1.2209 H   0  0  0  0  0  0  0  0  0  0  0  0
   -0.9224   -1.4113   -2.7725 C   0  0  0  0  0  0  0  0  0  0  0  0
   -0.9224   -1.4113   -1.4482 C   0  0  0  0  0  0  0  0  0  0  0  0
   -0.9224   -0.2068   -0.5547 C   0  0  0  0  0  3  0  0  0  0  0  0
   -0.9224    1.1389   -1.2624 C   0  0  0  0  0  0  0  0  0  0  0  0
   -0.9224   -0.4944   -3.3500 H   0  0  0  0  0  0  0  0  0  0  0  0
   -0.9224   -2.3387   -3.3312 H   0  0  0  0  0  0  0  0  0  0  0  0
   -0.9224   -2.3671   -0.9300 H   0  0  0  0  0  0  0  0  0  0  0  0
    0.1208   -0.2884    0.2410 H   0  0  0  0  0  0  0  0  0  0  0  0
   -1.7918   -0.2748    0.1084 H   0  0  0  0  0  0  0  0  0  0  0  0
   -1.8049    1.2539   -1.8949 H   0  0  0  0  0  0  0  0  0  0  0  0
   -0.0400    1.2539   -1.8949 H   0  0  0  0  0  0  0  0  0  0  0  0
   -0.9224    1.9533   -0.5371 H   0  0  0  0  0  0  0  0  0  0  0  0
  1  2  1  0
  1  4  1  0
  1  5  1  0
  1  6  1  0
  2  3  1  0
  2  7  1  0
  2 16  1  0
  3  8  1  0
  9 10  2  3
  9 13  1  0
  9 14  1  0
 10 11  1  0
 10 15  1  0
 11 12  1  0
 11 17  1  0
 12 18  1  0
 12 19  1  0
 12 20  1  0
M  RAD  1  11   2
M  END
>  <reaction>  (10) 
rxn_1060

>  <mol_properties>  (10) 
{"1": {"label": "*3", "atom_type": "Cs"}, "2": {"label": "*4", "atom_type": "S2s"}, "9": {"label": "*0", "atom_type": "Cd"}, "10": {"label": "*1", "atom_type": "Cs"}, "15": {"label": "*2", "atom_type": "H0"}}

>  <type>  (10) 
unop_6

>  <geom_source>  (10) 
Heuristics

$$$$

     RDKit          3D

 20 18  0  0  0  0  0  0  0  0999 V2000
    0.5981   -0.4691    2.6729 C   0  0  0  0  0  0  0  0  0  0  0  0
    1.0194   -0.4376    1.2142 C   0  0  0  0  0  0  0  0  0  0  0  0
    1.1437    1.2331    0.5106 S   0  0  0  0  0  0  0  0  0  0  0  0
    0.5848   -1.4971    3.0428 H   0  0  0  0  0  0  0  0  0  0  0  0
   -0.4033   -0.0539    2.7995 H   0  0  0  0  0  0  0  0  0  0  0  0
    1.2838    0.1124    3.2897 H   0  0  0  0  0  0  0  0  0  0  0  0
    2.0203   -0.8546    1.0933 H   0  0  0  0  0  0  0  0  0  0  0  0
   -0.1431    1.5701    0.6705 H   0  0  0  0  0  0  0  0  0  0  0  0
   -1.0617   -1.4794   -2.5909 C   0  0  0  0  0  0  0  0  0  0  0  0
   -1.0617   -1.4794   -1.2666 C   0  0  0  0  0  0  0  0  0  0  0  0
   -1.0617   -0.2749   -0.3731 C   0  0  0  0  0  3  0  0  0  0  0  0
   -1.0617    1.0708   -1.0808 C   0  0  0  0  0  0  0  0  0  0  0  0
   -1.0617   -0.5625   -3.1684 H   0  0  0  0  0  0  0  0  0  0  0  0
   -1.0617   -2.4067   -3.1496 H   0  0  0  0  0  0  0  0  0  0  0  0
   -1.0617   -2.4351   -0.7484 H   0  0  0  0  0  0  0  0  0  0  0  0
   -0.0184   -0.3565    0.4226 H   0  0  0  0  0  0  0  0  0  0  0  0
   -1.9311   -0.3429    0.2900 H   0  0  0  0  0  0  0  0  0  0  0  0
   -1.9441    1.1859   -1.7132 H   0  0  0  0  0  0  0  0  0  0  0  0
   -0.1792    1.1859   -1.7132 H   0  0  0  0  0  0  0  0  0  0  0  0
   -1.0617    1.8852   -0.3555 H   0  0  0  0  0  0  0  0  0  0  0  0
  1  2  1  0
  1  4  1  0
  1  5  1  0
  1  6  1  0
  2  3  1  0
  2  7  1  0
  2 16  1  0
  3  8  1  0
  9 10  2  3
  9 13  1  0
  9 14  1  0
 10 11  1  0
 10 15  1  0
 11 12  1  0
 11 17  1  0
 12 18  1  0
 12 19  1  0
 12 20  1  0
M  RAD  1  11   2
M  END
>  <reaction>  (11) 
rxn_1060

>  <mol_properties>  (11) 
{"1": {"label": "*3", "atom_type": "Cs"}, "2": {"label": "*4", "atom_type": "S2s"}, "9": {"label": "*0", "atom_type": "Cd"}, "10": {"label": "*1", "atom_type": "Cs"}, "15": {"label": "*2", "atom_type": "H0"}}

>  <type>  (11) 
unop_7

>  <geom_source>  (11) 
Heuristics

$$$$

     RDKit          3D

 20 18  0  0  0  0  0  0  0  0999 V2000
    1.9379    0.9241    0.2945 C   0  0  0  0  0  0  0  0  0  0  0  0
    0.7220    0.2542    0.9103 C   0  0  0  0  0  0  0  0  0  0  0  0
    1.1066   -0.8658    2.2885 S   0  0  0  0  0  0  0  0  0  0  0  0
    1.6327    1.6132   -0.4965 H   0  0  0  0  0  0  0  0  0  0  0  0
    2.6104    0.1852   -0.1451 H   0  0  0  0  0  0  0  0  0  0  0  0
    2.4971    1.4834    1.0449 H   0  0  0  0  0  0  0  0  0  0  0  0
    0.0530    0.9971    1.3472 H   0  0  0  0  0  0  0  0  0  0  0  0
    1.8565   -1.7282    1.5893 H   0  0  0  0  0  0  0  0  0  0  0  0
   -1.3591   -0.7876   -2.8949 C   0  0  0  0  0  0  0  0  0  0  0  0
   -1.3591   -0.7876   -1.5705 C   0  0  0  0  0  0  0  0  0  0  0  0
   -1.3591    0.4169   -0.6771 C   0  0  0  0  0  3  0  0  0  0  0  0
   -1.3591    1.7627   -1.3848 C   0  0  0  0  0  0  0  0  0  0  0  0
   -1.3591    0.1293   -3.4723 H   0  0  0  0  0  0  0  0  0  0  0  0
   -1.3591   -1.7149   -3.4535 H   0  0  0  0  0  0  0  0  0  0  0  0
   -1.3591   -1.7433   -1.0523 H   0  0  0  0  0  0  0  0  0  0  0  0
   -0.3158    0.3354    0.1187 H   0  0  0  0  0  0  0  0  0  0  0  0
   -2.2284    0.3490   -0.0139 H   0  0  0  0  0  0  0  0  0  0  0  0
   -2.2415    1.8777   -2.0172 H   0  0  0  0  0  0  0  0  0  0  0  0
   -0.4766    1.8777   -2.0172 H   0  0  0  0  0  0  0  0  0  0  0  0
   -1.3591    2.5771   -0.6595 H   0  0  0  0  0  0  0  0  0  0  0  0
  1  2  1  0
  1  4  1  0
  1  5  1  0
  1  6  1  0
  2  3  1  0
  2  7  1  0
  2 16  1  0
  3  8  1  0
  9 10  2  3
  9 13  1  0
  9 14  1  0
 10 11  1  0
 10 15  1  0
 11 12  1  0
 11 17  1  0
 12 18  1  0
 12 19  1  0
 12 20  1  0
M  RAD  1  11   2
M  END
>  <reaction>  (12) 
rxn_1060

>  <mol_properties>  (12) 
{"1": {"label": "*3", "atom_type": "Cs"}, "2": {"label": "*4", "atom_type": "S2s"}, "9": {"label": "*0", "atom_type": "Cd"}, "10": {"label": "*1", "atom_type": "Cs"}, "15": {"label": "*2", "atom_type": "H0"}}

>  <type>  (12) 
unop_8

>  <geom_source>  (12) 
Heuristics

$$$$

     RDKit          3D

 20 18  0  0  0  0  0  0  0  0999 V2000
    1.5394   -1.4613    1.0667 C   0  0  0  0  0  0  0  0  0  0  0  0
    1.1739   -0.0145    0.7846 C   0  0  0  0  0  0  0  0  0  0  0  0
    0.3698    0.8355    2.1749 S   0  0  0  0  0  0  0  0  0  0  0  0
    2.0552   -1.8976    0.2081 H   0  0  0  0  0  0  0  0  0  0  0  0
    0.6471   -2.0589    1.2615 H   0  0  0  0  0  0  0  0  0  0  0  0
    2.1911   -1.5363    1.9376 H   0  0  0  0  0  0  0  0  0  0  0  0
    2.0690    0.5779    0.5897 H   0  0  0  0  0  0  0  0  0  0  0  0
   -0.7112    0.0467    2.2409 H   0  0  0  0  0  0  0  0  0  0  0  0
   -0.9072   -1.0563   -3.0205 C   0  0  0  0  0  0  0  0  0  0  0  0
   -0.9072   -1.0563   -1.6962 C   0  0  0  0  0  0  0  0  0  0  0  0
   -0.9072    0.1482   -0.8027 C   0  0  0  0  0  3  0  0  0  0  0  0
   -0.9072    1.4939   -1.5104 C   0  0  0  0  0  0  0  0  0  0  0  0
   -0.9072   -0.1394   -3.5980 H   0  0  0  0  0  0  0  0  0  0  0  0
   -0.9072   -1.9836   -3.5792 H   0  0  0  0  0  0  0  0  0  0  0  0
   -0.9072   -2.0120   -1.1780 H   0  0  0  0  0  0  0  0  0  0  0  0
    0.1361    0.0666   -0.0070 H   0  0  0  0  0  0  0  0  0  0  0  0
   -1.7766    0.0802   -0.1396 H   0  0  0  0  0  0  0  0  0  0  0  0
   -1.7896    1.6090   -2.1429 H   0  0  0  0  0  0  0  0  0  0  0  0
   -0.0247    1.6090   -2.1429 H   0  0  0  0  0  0  0  0  0  0  0  0
   -0.9072    2.3083   -0.7851 H   0  0  0  0  0  0  0  0  0  0  0  0
  1  2  1  0
  1  4  1  0
  1  5  1  0
  1  6  1  0
  2  3  1  0
  2  7  1  0
  2 16  1  0
  3  8  1  0
  9 10  2  3
  9 13  1  0
  9 14  1  0
 10 11  1  0
 10 15  1  0
 11 12  1  0
 11 17  1  0
 12 18  1  0
 12 19  1  0
 12 20  1  0
M  RAD  1  11   2
M  END
>  <reaction>  (13) 
rxn_1060

>  <mol_properties>  (13) 
{"1": {"label": "*3", "atom_type": "Cs"}, "2": {"label": "*4", "atom_type": "S2s"}, "9": {"label": "*0", "atom_type": "Cd"}, "10": {"label": "*1", "atom_type": "Cs"}, "15": {"label": "*2", "atom_type": "H0"}}

>  <type>  (13) 
unop_9

>  <geom_source>  (13) 
Heuristics

$$$$

     RDKit          3D

 20 18  0  0  0  0  0  0  0  0999 V2000
    2.0832    0.2096    0.0648 C   0  0  0  0  0  0  0  0  0  0  0  0
    0.7881    0.2464    0.8569 C   0  0  0  0  0  0  0  0  0  0  0  0
    0.9027   -0.5047    2.5075 S   0  0  0  0  0  0  0  0  0  0  0  0
    1.9557    0.7135   -0.8963 H   0  0  0  0  0  0  0  0  0  0  0  0
    2.3909   -0.8186   -0.1336 H   0  0  0  0  0  0  0  0  0  0  0  0
    2.8884    0.7022    0.6104 H   0  0  0  0  0  0  0  0  0  0  0  0
    0.4847    1.2762    1.0515 H   0  0  0  0  0  0  0  0  0  0  0  0
    1.2078   -1.7436    2.0986 H   0  0  0  0  0  0  0  0  0  0  0  0
   -1.2930   -0.7954   -2.9482 C   0  0  0  0  0  0  0  0  0  0  0  0
   -1.2930   -0.7954   -1.6239 C   0  0  0  0  0  0  0  0  0  0  0  0
   -1.2930    0.4091   -0.7304 C   0  0  0  0  0  3  0  0  0  0  0  0
   -1.2930    1.7549   -1.4381 C   0  0  0  0  0  0  0  0  0  0  0  0
   -1.2930    0.1216   -3.5257 H   0  0  0  0  0  0  0  0  0  0  0  0
   -1.2930   -1.7227   -3.5069 H   0  0  0  0  0  0  0  0  0  0  0  0
   -1.2930   -1.7511   -1.1057 H   0  0  0  0  0  0  0  0  0  0  0  0
   -0.2498    0.3276    0.0653 H   0  0  0  0  0  0  0  0  0  0  0  0
   -2.1624    0.3412   -0.0673 H   0  0  0  0  0  0  0  0  0  0  0  0
   -2.1755    1.8699   -2.0705 H   0  0  0  0  0  0  0  0  0  0  0  0
   -0.4106    1.8699   -2.0705 H   0  0  0  0  0  0  0  0  0  0  0  0
   -1.2930    2.5693   -0.7128 H   0  0  0  0  0  0  0  0  0  0  0  0
  1  2  1  0
  1  4  1  0
  1  5  1  0
  1  6  1  0
  2  3  1  0
  2  7  1  0
  2 16  1  0
  3  8  1  0
  9 10  2  3
  9 13  1  0
  9 14  1  0
 10 11  1  0
 10 15  1  0
 11 12  1  0
 11 17  1  0
 12 18  1  0
 12 19  1  0
 12 20  1  0
M  RAD  1  11   2
M  END
>  <reaction>  (14) 
rxn_1060

>  <mol_properties>  (14) 
{"1": {"label": "*3", "atom_type": "Cs"}, "2": {"label": "*4", "atom_type": "S2s"}, "9": {"label": "*0", "atom_type": "Cd"}, "10": {"label": "*1", "atom_type": "Cs"}, "15": {"label": "*2", "atom_type": "H0"}}

>  <type>  (14) 
unop_10

>  <geom_source>  (14) 
Heuristics

$$$$

     RDKit          3D

 20 18  0  0  0  0  0  0  0  0999 V2000
    0.5277    0.3120    2.7087 C   0  0  0  0  0  0  0  0  0  0  0  0
    0.7983   -0.3624    1.3752 C   0  0  0  0  0  0  0  0  0  0  0  0
    1.6355    0.6982    0.1602 S   0  0  0  0  0  0  0  0  0  0  0  0
    0.0631   -0.3917    3.4034 H   0  0  0  0  0  0  0  0  0  0  0  0
   -0.1487    1.1601    2.5875 H   0  0  0  0  0  0  0  0  0  0  0  0
    1.4521    0.6802    3.1543 H   0  0  0  0  0  0  0  0  0  0  0  0
    1.4738   -1.2096    1.5021 H   0  0  0  0  0  0  0  0  0  0  0  0
    0.6739    1.6267    0.0690 H   0  0  0  0  0  0  0  0  0  0  0  0
   -1.2828   -1.4042   -2.4300 C   0  0  0  0  0  0  0  0  0  0  0  0
   -1.2828   -1.4042   -1.1056 C   0  0  0  0  0  0  0  0  0  0  0  0
   -1.2828   -0.1997   -0.2122 C   0  0  0  0  0  3  0  0  0  0  0  0
   -1.2828    1.1461   -0.9199 C   0  0  0  0  0  0  0  0  0  0  0  0
   -1.2828   -0.4873   -3.0074 H   0  0  0  0  0  0  0  0  0  0  0  0
   -1.2828   -2.3315   -2.9887 H   0  0  0  0  0  0  0  0  0  0  0  0
   -1.2828   -2.3599   -0.5875 H   0  0  0  0  0  0  0  0  0  0  0  0
   -0.2396   -0.2812    0.5836 H   0  0  0  0  0  0  0  0  0  0  0  0
   -2.1522   -0.2677    0.4510 H   0  0  0  0  0  0  0  0  0  0  0  0
   -2.1653    1.2611   -1.5523 H   0  0  0  0  0  0  0  0  0  0  0  0
   -0.4004    1.2611   -1.5523 H   0  0  0  0  0  0  0  0  0  0  0  0
   -1.2828    1.9604   -0.1946 H   0  0  0  0  0  0  0  0  0  0  0  0
  1  2  1  0
  1  4  1  0
  1  5  1  0
  1  6  1  0
  2  3  1  0
  2  7  1  0
  2 16  1  0
  3  8  1  0
  9 10  2  3
  9 13  1  0
  9 14  1  0
 10 11  1  0
 10 15  1  0
 11 12  1  0
 11 17  1  0
 12 18  1  0
 12 19  1  0
 12 20  1  0
M  RAD  1  11   2
M  END
>  <reaction>  (15) 
rxn_1060

>  <mol_properties>  (15) 
{"1": {"label": "*3", "atom_type": "Cs"}, "2": {"label": "*4", "atom_type": "S2s"}, "9": {"label": "*0", "atom_type": "Cd"}, "10": {"label": "*1", "atom_type": "Cs"}, "15": {"label": "*2", "atom_type": "H0"}}

>  <type>  (15) 
unop_11

>  <geom_source>  (15) 
Heuristics

$$$$

     RDKit          3D

 20 18  0  0  0  0  0  0  0  0999 V2000
    1.8486   -1.1069    0.4926 C   0  0  0  0  0  0  0  0  0  0  0  0
    1.0445    0.1520    0.7663 C   0  0  0  0  0  0  0  0  0  0  0  0
    0.4890    0.3214    2.4881 S   0  0  0  0  0  0  0  0  0  0  0  0
    2.1857   -1.1244   -0.5465 H   0  0  0  0  0  0  0  0  0  0  0  0
    1.2463   -2.0006    0.6652 H   0  0  0  0  0  0  0  0  0  0  0  0
    2.7230   -1.1601    1.1417 H   0  0  0  0  0  0  0  0  0  0  0  0
    1.6507    1.0419    0.5914 H   0  0  0  0  0  0  0  0  0  0  0  0
   -0.2735   -0.7799    2.5193 H   0  0  0  0  0  0  0  0  0  0  0  0
   -1.0366   -0.8898   -3.0388 C   0  0  0  0  0  0  0  0  0  0  0  0
   -1.0366   -0.8898   -1.7145 C   0  0  0  0  0  0  0  0  0  0  0  0
   -1.0366    0.3147   -0.8210 C   0  0  0  0  0  3  0  0  0  0  0  0
   -1.0366    1.6604   -1.5287 C   0  0  0  0  0  0  0  0  0  0  0  0
   -1.0366    0.0271   -3.6163 H   0  0  0  0  0  0  0  0  0  0  0  0
   -1.0366   -1.8172   -3.5975 H   0  0  0  0  0  0  0  0  0  0  0  0
   -1.0366   -1.8456   -1.1963 H   0  0  0  0  0  0  0  0  0  0  0  0
    0.0066    0.2331   -0.0253 H   0  0  0  0  0  0  0  0  0  0  0  0
   -1.9060    0.2467   -0.1579 H   0  0  0  0  0  0  0  0  0  0  0  0
   -1.9191    1.7754   -2.1611 H   0  0  0  0  0  0  0  0  0  0  0  0
   -0.1542    1.7754   -2.1611 H   0  0  0  0  0  0  0  0  0  0  0  0
   -1.0366    2.4748   -0.8034 H   0  0  0  0  0  0  0  0  0  0  0  0
  1  2  1  0
  1  4  1  0
  1  5  1  0
  1  6  1  0
  2  3  1  0
  2  7  1  0
  2 16  1  0
  3  8  1  0
  9 10  2  3
  9 13  1  0
  9 14  1  0
 10 11  1  0
 10 15  1  0
 11 12  1  0
 11 17  1  0
 12 18  1  0
 12 19  1  0
 12 20  1  0
M  RAD  1  11   2
M  END
>  <reaction>  (16) 
rxn_1060

>  <mol_properties>  (16) 
{"1": {"label": "*3", "atom_type": "Cs"}, "2": {"label": "*4", "atom_type": "S2s"}, "9": {"label": "*0", "atom_type": "Cd"}, "10": {"label": "*1", "atom_type": "Cs"}, "15": {"label": "*2", "atom_type": "H0"}}

>  <type>  (16) 
unop_12

>  <geom_source>  (16) 
Heuristics

$$$$

     RDKit          3D

 20 18  0  0  0  0  0  0  0  0999 V2000
   -1.6464    1.7705   -0.8857 S   0  0  0  0  0  0  0  0  0  0  0  0
   -1.5145    0.6759    0.5619 C   0  0  0  0  0  0  0  0  0  0  0  0
   -2.6425   -0.3448    0.5642 C   0  0  0  0  0  0  0  0  0  0  0  0
    1.0691   -0.6832   -1.6050 C   0  0  0  0  0  0  0  0  0  0  0  0
    0.8003   -0.3920   -0.1331 C   0  0  0  0  0  3  0  0  0  0  0  0
    2.0582   -0.4743    0.6810 C   0  0  0  0  0  0  0  0  0  0  0  0
    2.9854    0.4842    0.6214 C   0  0  0  0  0  0  0  0  0  0  0  0
   -1.5547    1.2848    1.4899 H   0  0  0  0  0  0  0  0  0  0  0  0
   -0.3471    0.0384    0.5162 H   0  0  0  0  0  0  0  0  0  0  0  0
   -2.6016   -0.9586   -0.3601 H   0  0  0  0  0  0  0  0  0  0  0  0
   -3.6259    0.1677    0.6238 H   0  0  0  0  0  0  0  0  0  0  0  0
   -2.5334   -1.0143    1.4429 H   0  0  0  0  0  0  0  0  0  0  0  0
    0.1150   -0.6294   -2.1693 H   0  0  0  0  0  0  0  0  0  0  0  0
    1.7699    0.0683   -2.0257 H   0  0  0  0  0  0  0  0  0  0  0  0
    1.5007   -1.6999   -1.7250 H   0  0  0  0  0  0  0  0  0  0  0  0
    0.0580   -1.1216    0.2556 H   0  0  0  0  0  0  0  0  0  0  0  0
    2.1967   -1.3085    1.3624 H   0  0  0  0  0  0  0  0  0  0  0  0
    3.8786    0.4145    1.2337 H   0  0  0  0  0  0  0  0  0  0  0  0
    2.8605    1.3426   -0.0319 H   0  0  0  0  0  0  0  0  0  0  0  0
   -2.8264    2.3797   -0.4170 H   0  0  0  0  0  0  0  0  0  0  0  0
  1  2  1  0
  1 20  1  0
  2  3  1  0
  2  8  1  0
  2  9  1  0
  3 10  1  0
  3 11  1  0
  3 12  1  0
  4  5  1  0
  4 13  1  0
  4 14  1  0
  4 15  1  0
  5  6  1  0
  5 16  1  0
  6  7  2  3
  6 17  1  0
  7 18  1  0
  7 19  1  0
M  RAD  1   5   2
M  END
>  <reaction>  (17) 
rxn_1060

>  <mol_properties>  (17) 
{"1": {"label": "*3", "atom_type": "Cs"}, "2": {"label": "*4", "atom_type": "S2s"}, "9": {"label": "*0", "atom_type": "Cd"}, "10": {"label": "*1", "atom_type": "Cs"}, "15": {"label": "*2", "atom_type": "H0"}}

>  <type>  (17) 
unop_13

>  <geom_source>  (17) 
AutoTST

$$$$
