
     RDKit          3D

 12 11  0  0  0  0  0  0  0  0999 V2000
    2.1696    0.6854    1.1310 C   0  0  0  0  0  0  0  0  0  0  0  0
    1.2518    0.4145    0.4134 C   0  0  0  0  0  0  0  0  0  0  0  0
    0.1391    0.0443   -0.4683 C   0  0  0  0  0  0  0  0  0  0  0  0
   -0.2054   -1.4492   -0.3339 C   0  0  0  0  0  0  0  0  0  0  0  0
   -1.0375    0.8853   -0.2222 C   0  0  0  0  0  0  0  0  0  0  0  0
   -2.0160    1.5463   -0.0311 C   0  0  0  0  0  0  0  0  0  0  0  0
    2.9819    0.9356    1.7702 H   0  0  0  0  0  0  0  0  0  0  0  0
    0.4629    0.2285   -1.4981 H   0  0  0  0  0  0  0  0  0  0  0  0
   -0.5327   -1.6703    0.6812 H   0  0  0  0  0  0  0  0  0  0  0  0
    0.6727   -2.0535   -0.5593 H   0  0  0  0  0  0  0  0  0  0  0  0
   -1.0064   -1.7081   -1.0256 H   0  0  0  0  0  0  0  0  0  0  0  0
   -2.8802    2.1413    0.1426 H   0  0  0  0  0  0  0  0  0  0  0  0
  1  2  3  0
  1  7  1  0
  2  3  1  0
  3  4  1  0
  3  5  1  0
  3  8  1  0
  4  9  1  0
  4 10  1  0
  4 11  1  0
  5  6  3  0
  6 12  1  0
M  END
>  <reaction>  (1) 
rxn_1408

>  <mol_properties>  (1) 
{"2": {"label": "donator", "atom_type": "Cs"}, "7": {"label": "d_hydrogen", "atom_type": "H0"}}

>  <type>  (1) 
r1h

$$$$

     RDKit          3D

  9  8  0  0  0  0  0  0  0  0999 V2000
    1.8963   -0.1405   -0.2150 C   0  0  0  0  0  0  0  0  0  0  0  0
    0.6340    0.1486   -0.2254 C   0  0  0  0  0  3  0  0  0  0  0  0
   -0.6770    0.4501   -0.2373 C   0  0  0  0  0  0  0  0  0  0  0  0
   -1.6600   -0.2303    0.4662 C   0  0  0  0  0  0  0  0  0  0  0  0
    2.3274   -0.8354   -0.9313 H   0  0  0  0  0  0  0  0  0  0  0  0
    2.5751    0.2988    0.5117 H   0  0  0  0  0  0  0  0  0  0  0  0
   -0.9723    1.2966   -0.8520 H   0  0  0  0  0  0  0  0  0  0  0  0
   -2.6934    0.0777    0.4015 H   0  0  0  0  0  0  0  0  0  0  0  0
   -1.4140   -1.0782    1.0904 H   0  0  0  0  0  0  0  0  0  0  0  0
  1  2  2  3
  1  5  1  0
  1  6  1  0
  2  3  1  0
  3  4  2  3
  3  7  1  0
  4  8  1  0
  4  9  1  0
M  RAD  1   2   2
M  END
>  <reaction>  (2) 
rxn_1408

>  <mol_properties>  (2) 
{"1": {"label": "acceptor", "atom_type": "Cd"}}

>  <type>  (2) 
r2

$$$$

     RDKit          3D

 10  9  0  0  0  0  0  0  0  0999 V2000
    1.8334    0.0847   -0.1062 C   0  0  0  0  0  0  0  0  0  0  0  0
    0.5993   -0.4071   -0.0750 C   0  0  0  0  0  0  0  0  0  0  0  0
   -0.5993    0.4071    0.0750 C   0  0  0  0  0  0  0  0  0  0  0  0
   -1.8334   -0.0847    0.1062 C   0  0  0  0  0  0  0  0  0  0  0  0
    2.0179    1.1498   -0.0189 H   0  0  0  0  0  0  0  0  0  0  0  0
    2.6972   -0.5572   -0.2194 H   0  0  0  0  0  0  0  0  0  0  0  0
    0.4465   -1.4793   -0.1649 H   0  0  0  0  0  0  0  0  0  0  0  0
   -0.4465    1.4793    0.1649 H   0  0  0  0  0  0  0  0  0  0  0  0
   -2.0179   -1.1498    0.0189 H   0  0  0  0  0  0  0  0  0  0  0  0
   -2.6972    0.5572    0.2194 H   0  0  0  0  0  0  0  0  0  0  0  0
  1  2  2  3
  1  5  1  0
  1  6  1  0
  2  3  1  0
  2  7  1  0
  3  4  2  3
  3  8  1  0
  4  9  1  0
  4 10  1  0
M  END
>  <reaction>  (3) 
rxn_1408

>  <mol_properties>  (3) 
{"0": {"label": "a_hydrogen", "atom_type": "H0"}, "2": {"label": "acceptor", "atom_type": "Cd"}}

>  <type>  (3) 
r2h

$$$$

     RDKit          3D

 21 19  0  0  0  0  0  0  0  0999 V2000
   -0.6419   -0.0427   -3.0738 C   0  0  0  0  0  0  0  0  0  0  0  0
   -0.7718    0.0384   -1.8850 C   0  0  0  0  0  0  0  0  0  0  0  0
   -0.8822    0.1714   -0.4468 C   0  0  0  0  0  0  0  0  0  0  0  0
   -1.3338    1.5591    0.0091 C   0  0  0  0  0  0  0  0  0  0  0  0
   -1.6096   -0.9134    0.1806 C   0  0  0  0  0  0  0  0  0  0  0  0
   -2.1857   -1.7987    0.7469 C   0  0  0  0  0  0  0  0  0  0  0  0
   -0.5420   -0.1243   -4.1294 H   0  0  0  0  0  0  0  0  0  0  0  0
    0.2687    0.0816   -0.0333 H   0  0  0  0  0  0  0  0  0  0  0  0
   -2.3587    1.7546   -0.3076 H   0  0  0  0  0  0  0  0  0  0  0  0
   -0.6799    2.3168   -0.4215 H   0  0  0  0  0  0  0  0  0  0  0  0
   -1.2818    1.6246    1.0958 H   0  0  0  0  0  0  0  0  0  0  0  0
   -2.7043   -2.5899    1.2326 H   0  0  0  0  0  0  0  0  0  0  0  0
    2.5227    0.3268   -0.6247 C   0  0  0  0  0  0  0  0  0  0  0  0
    1.7156    0.1995    0.4045 C   0  0  0  0  0  3  0  0  0  0  0  0
    1.9068    0.2145    1.8331 C   0  0  0  0  0  0  0  0  0  0  0  0
    0.9821   -0.1314    2.7238 C   0  0  0  0  0  0  0  0  0  0  0  0
    2.1493    0.3074   -1.6430 H   0  0  0  0  0  0  0  0  0  0  0  0
    3.5972    0.4455   -0.4906 H   0  0  0  0  0  0  0  0  0  0  0  0
    2.8884    0.5429    2.1754 H   0  0  0  0  0  0  0  0  0  0  0  0
    1.1912   -0.0987    3.7849 H   0  0  0  0  0  0  0  0  0  0  0  0
   -0.0020   -0.4671    2.4176 H   0  0  0  0  0  0  0  0  0  0  0  0
  1  2  3  0
  1  7  1  0
  2  3  1  0
  3  4  1  0
  3  5  1  0
  3  8  1  0
  4  9  1  0
  4 10  1  0
  4 11  1  0
  5  6  3  0
  6 12  1  0
 13 14  2  3
 13 17  1  0
 13 18  1  0
 14 15  1  0
 15 16  2  3
 15 19  1  0
 16 20  1  0
 16 21  1  0
M  RAD  1  14   2
M  END
>  <reaction>  (4) 
rxn_1408

>  <mol_properties>  (4) 
{"1": {"label": "*0", "atom_type": "Ct"}, "2": {"label": "*1", "atom_type": "Cs"}, "7": {"label": "*2", "atom_type": "H0"}, "13": {"label": "*3", "atom_type": "Cd"}, "14": {"label": "*4", "atom_type": "Cd"}}

>  <type>  (4) 
ts

$$$$

     RDKit          3D

 21 19  0  0  0  0  0  0  0  0999 V2000
   -0.8581   -0.0738   -2.9666 C   0  0  0  0  0  0  0  0  0  0  0  0
   -0.8581   -0.0738   -1.7704 C   0  0  0  0  0  0  0  0  0  0  0  0
   -0.8581   -0.0338   -0.3039 C   0  0  0  0  0  3  0  0  0  0  0  0
   -1.4961    1.2655    0.2181 C   0  0  0  0  0  0  0  0  0  0  0  0
   -1.5199   -1.2150    0.2609 C   0  0  0  0  0  0  0  0  0  0  0  0
   -2.0682   -2.1603    0.7474 C   0  0  0  0  0  0  0  0  0  0  0  0
   -0.8581   -0.0738   -4.0300 H   0  0  0  0  0  0  0  0  0  0  0  0
    0.3955   -0.0610    0.0893 H   0  0  0  0  0  0  0  0  0  0  0  0
   -2.5394    1.3227   -0.0896 H   0  0  0  0  0  0  0  0  0  0  0  0
   -0.9635    2.1269   -0.1835 H   0  0  0  0  0  0  0  0  0  0  0  0
   -1.4489    1.2899    1.3064 H   0  0  0  0  0  0  0  0  0  0  0  0
   -2.5556   -3.0007    1.1799 H   0  0  0  0  0  0  0  0  0  0  0  0
    1.9414   -1.3520    0.7571 C   0  0  0  0  0  0  0  0  0  0  0  0
    1.6395   -0.0880    0.4794 C   0  0  0  0  0  0  0  0  0  0  0  0
    2.0965    1.0508    1.2646 C   0  0  0  0  0  0  0  0  0  0  0  0
    1.7945    2.3148    0.9869 C   0  0  0  0  0  0  0  0  0  0  0  0
    1.5801   -2.1689    0.1462 H   0  0  0  0  0  0  0  0  0  0  0  0
    2.5624   -1.6091    1.6082 H   0  0  0  0  0  0  0  0  0  0  0  0
    2.7211    0.8248    2.1246 H   0  0  0  0  0  0  0  0  0  0  0  0
    2.1558    3.1316    1.5978 H   0  0  0  0  0  0  0  0  0  0  0  0
    1.1735    2.5718    0.1358 H   0  0  0  0  0  0  0  0  0  0  0  0
  1  2  3  0
  1  7  1  0
  2  3  1  0
  3  4  1  0
  3  5  1  0
  4  9  1  0
  4 10  1  0
  4 11  1  0
  5  6  3  0
  6 12  1  0
  8 14  1  0
 13 14  2  3
 13 17  1  0
 13 18  1  0
 14 15  1  0
 15 16  2  3
 15 19  1  0
 16 20  1  0
 16 21  1  0
M  RAD  1   3   2
M  END
>  <reaction>  (5) 
rxn_1408

>  <mol_properties>  (5) 
{"1": {"label": "*0", "atom_type": "Ct"}, "2": {"label": "*1", "atom_type": "Cs"}, "7": {"label": "*2", "atom_type": "H0"}, "13": {"label": "*3", "atom_type": "Cd"}, "14": {"label": "*4", "atom_type": "Cd"}}

>  <type>  (5) 
unop_1

>  <geom_source>  (5) 
Heuristics

$$$$

     RDKit          3D

 21 19  0  0  0  0  0  0  0  0999 V2000
   -0.9674    0.0338   -2.6154 C   0  0  0  0  0  0  0  0  0  0  0  0
   -0.9674    0.0338   -1.4192 C   0  0  0  0  0  0  0  0  0  0  0  0
   -0.9674    0.0739    0.0473 C   0  0  0  0  0  3  0  0  0  0  0  0
   -1.6054    1.3731    0.5693 C   0  0  0  0  0  0  0  0  0  0  0  0
   -1.6292   -1.1074    0.6121 C   0  0  0  0  0  0  0  0  0  0  0  0
   -2.1775   -2.0527    1.0986 C   0  0  0  0  0  0  0  0  0  0  0  0
   -0.9674    0.0338   -3.6788 H   0  0  0  0  0  0  0  0  0  0  0  0
    0.2862    0.0466    0.4405 H   0  0  0  0  0  0  0  0  0  0  0  0
   -2.6487    1.4303    0.2616 H   0  0  0  0  0  0  0  0  0  0  0  0
   -1.0728    2.2345    0.1677 H   0  0  0  0  0  0  0  0  0  0  0  0
   -1.5582    1.3975    1.6575 H   0  0  0  0  0  0  0  0  0  0  0  0
   -2.6649   -2.8931    1.5311 H   0  0  0  0  0  0  0  0  0  0  0  0
    1.7598   -0.2262    2.1162 C   0  0  0  0  0  0  0  0  0  0  0  0
    1.5302    0.0196    0.8306 C   0  0  0  0  0  0  0  0  0  0  0  0
    2.5046    0.6185   -0.0717 C   0  0  0  0  0  0  0  0  0  0  0  0
    2.2750    0.8643   -1.3573 C   0  0  0  0  0  0  0  0  0  0  0  0
    1.0065   -0.6731    2.7516 H   0  0  0  0  0  0  0  0  0  0  0  0
    2.7131    0.0136    2.5742 H   0  0  0  0  0  0  0  0  0  0  0  0
    3.4703    0.8700    0.3586 H   0  0  0  0  0  0  0  0  0  0  0  0
    3.0283    1.3113   -1.9927 H   0  0  0  0  0  0  0  0  0  0  0  0
    1.3217    0.6246   -1.8153 H   0  0  0  0  0  0  0  0  0  0  0  0
  1  2  3  0
  1  7  1  0
  2  3  1  0
  3  4  1  0
  3  5  1  0
  4  9  1  0
  4 10  1  0
  4 11  1  0
  5  6  3  0
  6 12  1  0
  8 14  1  0
 13 14  2  3
 13 17  1  0
 13 18  1  0
 14 15  1  0
 15 16  2  3
 15 19  1  0
 16 20  1  0
 16 21  1  0
M  RAD  1   3   2
M  END
>  <reaction>  (6) 
rxn_1408

>  <mol_properties>  (6) 
{"1": {"label": "*0", "atom_type": "Ct"}, "2": {"label": "*1", "atom_type": "Cs"}, "7": {"label": "*2", "atom_type": "H0"}, "13": {"label": "*3", "atom_type": "Cd"}, "14": {"label": "*4", "atom_type": "Cd"}}

>  <type>  (6) 
unop_2

>  <geom_source>  (6) 
Heuristics

$$$$

     RDKit          3D

 21 19  0  0  0  0  0  0  0  0999 V2000
   -0.8271    0.0227   -3.0612 C   0  0  0  0  0  0  0  0  0  0  0  0
   -0.8271    0.0227   -1.8650 C   0  0  0  0  0  0  0  0  0  0  0  0
   -0.8271    0.0627   -0.3985 C   0  0  0  0  0  3  0  0  0  0  0  0
   -1.4651    1.3620    0.1235 C   0  0  0  0  0  0  0  0  0  0  0  0
   -1.4889   -1.1185    0.1663 C   0  0  0  0  0  0  0  0  0  0  0  0
   -2.0372   -2.0638    0.6528 C   0  0  0  0  0  0  0  0  0  0  0  0
   -0.8271    0.0227   -4.1247 H   0  0  0  0  0  0  0  0  0  0  0  0
    0.4265    0.0355   -0.0054 H   0  0  0  0  0  0  0  0  0  0  0  0
   -2.5084    1.4192   -0.1842 H   0  0  0  0  0  0  0  0  0  0  0  0
   -0.9325    2.2234   -0.2781 H   0  0  0  0  0  0  0  0  0  0  0  0
   -1.4179    1.3864    1.2117 H   0  0  0  0  0  0  0  0  0  0  0  0
   -2.5246   -2.9042    1.0853 H   0  0  0  0  0  0  0  0  0  0  0  0
    2.3072   -1.0759   -0.0450 C   0  0  0  0  0  0  0  0  0  0  0  0
    1.6705    0.0085    0.3848 C   0  0  0  0  0  0  0  0  0  0  0  0
    1.9705    0.6867    1.6387 C   0  0  0  0  0  0  0  0  0  0  0  0
    1.3338    1.7711    2.0685 C   0  0  0  0  0  0  0  0  0  0  0  0
    2.0518   -1.5487   -0.9843 H   0  0  0  0  0  0  0  0  0  0  0  0
    3.1072   -1.5257    0.5327 H   0  0  0  0  0  0  0  0  0  0  0  0
    2.7681    0.2591    2.2401 H   0  0  0  0  0  0  0  0  0  0  0  0
    1.5892    2.2439    3.0077 H   0  0  0  0  0  0  0  0  0  0  0  0
    0.5338    2.2209    1.4907 H   0  0  0  0  0  0  0  0  0  0  0  0
  1  2  3  0
  1  7  1  0
  2  3  1  0
  3  4  1  0
  3  5  1  0
  4  9  1  0
  4 10  1  0
  4 11  1  0
  5  6  3  0
  6 12  1  0
  8 14  1  0
 13 14  2  3
 13 17  1  0
 13 18  1  0
 14 15  1  0
 15 16  2  3
 15 19  1  0
 16 20  1  0
 16 21  1  0
M  RAD  1   3   2
M  END
>  <reaction>  (7) 
rxn_1408

>  <mol_properties>  (7) 
{"1": {"label": "*0", "atom_type": "Ct"}, "2": {"label": "*1", "atom_type": "Cs"}, "7": {"label": "*2", "atom_type": "H0"}, "13": {"label": "*3", "atom_type": "Cd"}, "14": {"label": "*4", "atom_type": "Cd"}}

>  <type>  (7) 
unop_3

>  <geom_source>  (7) 
Heuristics

$$$$

     RDKit          3D

 21 19  0  0  0  0  0  0  0  0999 V2000
   -0.9254    0.4020   -2.7213 C   0  0  0  0  0  0  0  0  0  0  0  0
   -0.9254    0.4020   -1.5252 C   0  0  0  0  0  0  0  0  0  0  0  0
   -0.9254    0.4420   -0.0586 C   0  0  0  0  0  3  0  0  0  0  0  0
   -1.5635    1.7413    0.4634 C   0  0  0  0  0  0  0  0  0  0  0  0
   -1.5873   -0.7392    0.5062 C   0  0  0  0  0  0  0  0  0  0  0  0
   -2.1355   -1.6845    0.9926 C   0  0  0  0  0  0  0  0  0  0  0  0
   -0.9254    0.4020   -3.7848 H   0  0  0  0  0  0  0  0  0  0  0  0
    0.3281    0.4148    0.3345 H   0  0  0  0  0  0  0  0  0  0  0  0
   -2.6067    1.7985    0.1556 H   0  0  0  0  0  0  0  0  0  0  0  0
   -1.0309    2.6027    0.0617 H   0  0  0  0  0  0  0  0  0  0  0  0
   -1.5163    1.7657    1.5516 H   0  0  0  0  0  0  0  0  0  0  0  0
   -2.6230   -2.5249    1.4252 H   0  0  0  0  0  0  0  0  0  0  0  0
    1.7636    1.0589    1.8555 C   0  0  0  0  0  0  0  0  0  0  0  0
    1.5721    0.3878    0.7246 C   0  0  0  0  0  0  0  0  0  0  0  0
    2.3501   -0.7779    0.3267 C   0  0  0  0  0  0  0  0  0  0  0  0
    2.1586   -1.4491   -0.8041 C   0  0  0  0  0  0  0  0  0  0  0  0
    1.1619    1.9208    2.1123 H   0  0  0  0  0  0  0  0  0  0  0  0
    2.5320    0.7649    2.5620 H   0  0  0  0  0  0  0  0  0  0  0  0
    3.1282   -1.0969    1.0149 H   0  0  0  0  0  0  0  0  0  0  0  0
    2.7603   -2.3110   -1.0610 H   0  0  0  0  0  0  0  0  0  0  0  0
    1.3902   -1.1551   -1.5107 H   0  0  0  0  0  0  0  0  0  0  0  0
  1  2  3  0
  1  7  1  0
  2  3  1  0
  3  4  1  0
  3  5  1  0
  4  9  1  0
  4 10  1  0
  4 11  1  0
  5  6  3  0
  6 12  1  0
  8 14  1  0
 13 14  2  3
 13 17  1  0
 13 18  1  0
 14 15  1  0
 15 16  2  3
 15 19  1  0
 16 20  1  0
 16 21  1  0
M  RAD  1   3   2
M  END
>  <reaction>  (8) 
rxn_1408

>  <mol_properties>  (8) 
{"1": {"label": "*0", "atom_type": "Ct"}, "2": {"label": "*1", "atom_type": "Cs"}, "7": {"label": "*2", "atom_type": "H0"}, "13": {"label": "*3", "atom_type": "Cd"}, "14": {"label": "*4", "atom_type": "Cd"}}

>  <type>  (8) 
unop_4

>  <geom_source>  (8) 
Heuristics

$$$$

     RDKit          3D

 21 19  0  0  0  0  0  0  0  0999 V2000
   -0.8141    0.1527   -3.0971 C   0  0  0  0  0  0  0  0  0  0  0  0
   -0.8141    0.1527   -1.9010 C   0  0  0  0  0  0  0  0  0  0  0  0
   -0.8141    0.1928   -0.4344 C   0  0  0  0  0  3  0  0  0  0  0  0
   -1.4521    1.4920    0.0876 C   0  0  0  0  0  0  0  0  0  0  0  0
   -1.4759   -0.9885    0.1304 C   0  0  0  0  0  0  0  0  0  0  0  0
   -2.0242   -1.9338    0.6168 C   0  0  0  0  0  0  0  0  0  0  0  0
   -0.8141    0.1527   -4.1606 H   0  0  0  0  0  0  0  0  0  0  0  0
    0.4395    0.1655   -0.0413 H   0  0  0  0  0  0  0  0  0  0  0  0
   -2.4954    1.5492   -0.2202 H   0  0  0  0  0  0  0  0  0  0  0  0
   -0.9195    2.3534   -0.3141 H   0  0  0  0  0  0  0  0  0  0  0  0
   -1.4049    1.5164    1.1758 H   0  0  0  0  0  0  0  0  0  0  0  0
   -2.5116   -2.7742    1.0494 H   0  0  0  0  0  0  0  0  0  0  0  0
    2.6543    0.0843   -0.5570 C   0  0  0  0  0  0  0  0  0  0  0  0
    1.6835    0.1385    0.3488 C   0  0  0  0  0  0  0  0  0  0  0  0
    1.9116    0.1709    1.7874 C   0  0  0  0  0  0  0  0  0  0  0  0
    0.9408    0.2251    2.6932 C   0  0  0  0  0  0  0  0  0  0  0  0
    2.4400    0.0618   -1.6174 H   0  0  0  0  0  0  0  0  0  0  0  0
    3.6981    0.0607   -0.2636 H   0  0  0  0  0  0  0  0  0  0  0  0
    2.9482    0.1484    2.1125 H   0  0  0  0  0  0  0  0  0  0  0  0
    1.1551    0.2475    3.7536 H   0  0  0  0  0  0  0  0  0  0  0  0
   -0.1030    0.2487    2.3998 H   0  0  0  0  0  0  0  0  0  0  0  0
  1  2  3  0
  1  7  1  0
  2  3  1  0
  3  4  1  0
  3  5  1  0
  4  9  1  0
  4 10  1  0
  4 11  1  0
  5  6  3  0
  6 12  1  0
  8 14  1  0
 13 14  2  3
 13 17  1  0
 13 18  1  0
 14 15  1  0
 15 16  2  3
 15 19  1  0
 16 20  1  0
 16 21  1  0
M  RAD  1   3   2
M  END
>  <reaction>  (9) 
rxn_1408

>  <mol_properties>  (9) 
{"1": {"label": "*0", "atom_type": "Ct"}, "2": {"label": "*1", "atom_type": "Cs"}, "7": {"label": "*2", "atom_type": "H0"}, "13": {"label": "*3", "atom_type": "Cd"}, "14": {"label": "*4", "atom_type": "Cd"}}

>  <type>  (9) 
unop_5

>  <geom_source>  (9) 
Heuristics

$$$$

     RDKit          3D

 21 19  0  0  0  0  0  0  0  0999 V2000
   -0.8832    0.4316   -2.8520 C   0  0  0  0  0  0  0  0  0  0  0  0
   -0.8832    0.4316   -1.6559 C   0  0  0  0  0  0  0  0  0  0  0  0
   -0.8832    0.4716   -0.1893 C   0  0  0  0  0  3  0  0  0  0  0  0
   -1.5212    1.7709    0.3327 C   0  0  0  0  0  0  0  0  0  0  0  0
   -1.5450   -0.7096    0.3755 C   0  0  0  0  0  0  0  0  0  0  0  0
   -2.0933   -1.6549    0.8619 C   0  0  0  0  0  0  0  0  0  0  0  0
   -0.8832    0.4316   -3.9155 H   0  0  0  0  0  0  0  0  0  0  0  0
    0.3704    0.4444    0.2038 H   0  0  0  0  0  0  0  0  0  0  0  0
   -2.5645    1.8281    0.0249 H   0  0  0  0  0  0  0  0  0  0  0  0
   -0.9886    2.6323   -0.0690 H   0  0  0  0  0  0  0  0  0  0  0  0
   -1.4740    1.7953    1.4209 H   0  0  0  0  0  0  0  0  0  0  0  0
   -2.5807   -2.4953    1.2945 H   0  0  0  0  0  0  0  0  0  0  0  0
    1.8320    1.4709    1.3741 C   0  0  0  0  0  0  0  0  0  0  0  0
    1.6144    0.4174    0.5939 C   0  0  0  0  0  0  0  0  0  0  0  0
    2.1923   -0.9001    0.8232 C   0  0  0  0  0  0  0  0  0  0  0  0
    1.9748   -1.9537    0.0431 C   0  0  0  0  0  0  0  0  0  0  0  0
    1.3818    2.4328    1.1667 H   0  0  0  0  0  0  0  0  0  0  0  0
    2.4702    1.4026    2.2482 H   0  0  0  0  0  0  0  0  0  0  0  0
    2.8370   -0.9999    1.6923 H   0  0  0  0  0  0  0  0  0  0  0  0
    2.4249   -2.9156    0.2504 H   0  0  0  0  0  0  0  0  0  0  0  0
    1.3365   -1.8853   -0.8310 H   0  0  0  0  0  0  0  0  0  0  0  0
  1  2  3  0
  1  7  1  0
  2  3  1  0
  3  4  1  0
  3  5  1  0
  4  9  1  0
  4 10  1  0
  4 11  1  0
  5  6  3  0
  6 12  1  0
  8 14  1  0
 13 14  2  3
 13 17  1  0
 13 18  1  0
 14 15  1  0
 15 16  2  3
 15 19  1  0
 16 20  1  0
 16 21  1  0
M  RAD  1   3   2
M  END
>  <reaction>  (10) 
rxn_1408

>  <mol_properties>  (10) 
{"1": {"label": "*0", "atom_type": "Ct"}, "2": {"label": "*1", "atom_type": "Cs"}, "7": {"label": "*2", "atom_type": "H0"}, "13": {"label": "*3", "atom_type": "Cd"}, "14": {"label": "*4", "atom_type": "Cd"}}

>  <type>  (10) 
unop_6

>  <geom_source>  (10) 
Heuristics

$$$$

     RDKit          3D

 21 19  0  0  0  0  0  0  0  0999 V2000
   -0.8441    0.3883   -2.9792 C   0  0  0  0  0  0  0  0  0  0  0  0
   -0.8441    0.3883   -1.7830 C   0  0  0  0  0  0  0  0  0  0  0  0
   -0.8441    0.4283   -0.3165 C   0  0  0  0  0  3  0  0  0  0  0  0
   -1.4821    1.7276    0.2055 C   0  0  0  0  0  0  0  0  0  0  0  0
   -1.5059   -0.7529    0.2483 C   0  0  0  0  0  0  0  0  0  0  0  0
   -2.0542   -1.6982    0.7348 C   0  0  0  0  0  0  0  0  0  0  0  0
   -0.8441    0.3883   -4.0426 H   0  0  0  0  0  0  0  0  0  0  0  0
    0.4095    0.4011    0.0767 H   0  0  0  0  0  0  0  0  0  0  0  0
   -2.5254    1.7848   -0.1022 H   0  0  0  0  0  0  0  0  0  0  0  0
   -0.9495    2.5890   -0.1961 H   0  0  0  0  0  0  0  0  0  0  0  0
   -1.4349    1.7520    1.2937 H   0  0  0  0  0  0  0  0  0  0  0  0
   -2.5416   -2.5386    1.1673 H   0  0  0  0  0  0  0  0  0  0  0  0
    2.0318    1.6307    0.6756 C   0  0  0  0  0  0  0  0  0  0  0  0
    1.6535    0.3741    0.4668 C   0  0  0  0  0  0  0  0  0  0  0  0
    2.0420   -0.7458    1.3137 C   0  0  0  0  0  0  0  0  0  0  0  0
    1.6637   -2.0025    1.1049 C   0  0  0  0  0  0  0  0  0  0  0  0
    1.7196    2.4334    0.0205 H   0  0  0  0  0  0  0  0  0  0  0  0
    2.6686    1.8958    1.5125 H   0  0  0  0  0  0  0  0  0  0  0  0
    2.6806   -0.5114    2.1612 H   0  0  0  0  0  0  0  0  0  0  0  0
    1.9759   -2.8051    1.7600 H   0  0  0  0  0  0  0  0  0  0  0  0
    1.0269   -2.2675    0.2680 H   0  0  0  0  0  0  0  0  0  0  0  0
  1  2  3  0
  1  7  1  0
  2  3  1  0
  3  4  1  0
  3  5  1  0
  4  9  1  0
  4 10  1  0
  4 11  1  0
  5  6  3  0
  6 12  1  0
  8 14  1  0
 13 14  2  3
 13 17  1  0
 13 18  1  0
 14 15  1  0
 15 16  2  3
 15 19  1  0
 16 20  1  0
 16 21  1  0
M  RAD  1   3   2
M  END
>  <reaction>  (11) 
rxn_1408

>  <mol_properties>  (11) 
{"1": {"label": "*0", "atom_type": "Ct"}, "2": {"label": "*1", "atom_type": "Cs"}, "7": {"label": "*2", "atom_type": "H0"}, "13": {"label": "*3", "atom_type": "Cd"}, "14": {"label": "*4", "atom_type": "Cd"}}

>  <type>  (11) 
unop_7

>  <geom_source>  (11) 
Heuristics

$$$$

     RDKit          3D

 21 19  0  0  0  0  0  0  0  0999 V2000
   -0.8995   -0.1077   -2.8373 C   0  0  0  0  0  0  0  0  0  0  0  0
   -0.8995   -0.1077   -1.6411 C   0  0  0  0  0  0  0  0  0  0  0  0
   -0.8995   -0.0676   -0.1746 C   0  0  0  0  0  3  0  0  0  0  0  0
   -1.5376    1.2316    0.3474 C   0  0  0  0  0  0  0  0  0  0  0  0
   -1.5614   -1.2489    0.3902 C   0  0  0  0  0  0  0  0  0  0  0  0
   -2.1096   -2.1941    0.8767 C   0  0  0  0  0  0  0  0  0  0  0  0
   -0.8995   -0.1077   -3.9007 H   0  0  0  0  0  0  0  0  0  0  0  0
    0.3541   -0.0949    0.2186 H   0  0  0  0  0  0  0  0  0  0  0  0
   -2.5808    1.2888    0.0397 H   0  0  0  0  0  0  0  0  0  0  0  0
   -1.0049    2.0930   -0.0542 H   0  0  0  0  0  0  0  0  0  0  0  0
   -1.4904    1.2560    1.4356 H   0  0  0  0  0  0  0  0  0  0  0  0
   -2.5970   -3.0346    1.3092 H   0  0  0  0  0  0  0  0  0  0  0  0
    1.7528   -1.1426    1.4455 C   0  0  0  0  0  0  0  0  0  0  0  0
    1.5980   -0.1219    0.6087 C   0  0  0  0  0  0  0  0  0  0  0  0
    2.2550    1.1687    0.7667 C   0  0  0  0  0  0  0  0  0  0  0  0
    2.1003    2.1894   -0.0701 C   0  0  0  0  0  0  0  0  0  0  0  0
    1.2449   -2.0854    1.2902 H   0  0  0  0  0  0  0  0  0  0  0  0
    2.3955   -1.0654    2.3156 H   0  0  0  0  0  0  0  0  0  0  0  0
    2.9060    1.2766    1.6301 H   0  0  0  0  0  0  0  0  0  0  0  0
    2.6082    3.1322    0.0852 H   0  0  0  0  0  0  0  0  0  0  0  0
    1.4576    2.1122   -0.9402 H   0  0  0  0  0  0  0  0  0  0  0  0
  1  2  3  0
  1  7  1  0
  2  3  1  0
  3  4  1  0
  3  5  1  0
  4  9  1  0
  4 10  1  0
  4 11  1  0
  5  6  3  0
  6 12  1  0
  8 14  1  0
 13 14  2  3
 13 17  1  0
 13 18  1  0
 14 15  1  0
 15 16  2  3
 15 19  1  0
 16 20  1  0
 16 21  1  0
M  RAD  1   3   2
M  END
>  <reaction>  (12) 
rxn_1408

>  <mol_properties>  (12) 
{"1": {"label": "*0", "atom_type": "Ct"}, "2": {"label": "*1", "atom_type": "Cs"}, "7": {"label": "*2", "atom_type": "H0"}, "13": {"label": "*3", "atom_type": "Cd"}, "14": {"label": "*4", "atom_type": "Cd"}}

>  <type>  (12) 
unop_8

>  <geom_source>  (12) 
Heuristics

$$$$

     RDKit          3D

 21 19  0  0  0  0  0  0  0  0999 V2000
   -0.9591    0.3068   -2.6228 C   0  0  0  0  0  0  0  0  0  0  0  0
   -0.9591    0.3068   -1.4267 C   0  0  0  0  0  0  0  0  0  0  0  0
   -0.9591    0.3468    0.0399 C   0  0  0  0  0  3  0  0  0  0  0  0
   -1.5972    1.6461    0.5619 C   0  0  0  0  0  0  0  0  0  0  0  0
   -1.6210   -0.8344    0.6046 C   0  0  0  0  0  0  0  0  0  0  0  0
   -2.1692   -1.7797    1.0911 C   0  0  0  0  0  0  0  0  0  0  0  0
   -0.9591    0.3068   -3.6863 H   0  0  0  0  0  0  0  0  0  0  0  0
    0.2945    0.3196    0.4330 H   0  0  0  0  0  0  0  0  0  0  0  0
   -2.6404    1.7033    0.2541 H   0  0  0  0  0  0  0  0  0  0  0  0
   -1.0645    2.5075    0.1602 H   0  0  0  0  0  0  0  0  0  0  0  0
   -1.5500    1.6705    1.6501 H   0  0  0  0  0  0  0  0  0  0  0  0
   -2.6566   -2.6201    1.5236 H   0  0  0  0  0  0  0  0  0  0  0  0
    1.7846    0.5938    2.0938 C   0  0  0  0  0  0  0  0  0  0  0  0
    1.5384    0.2926    0.8231 C   0  0  0  0  0  0  0  0  0  0  0  0
    2.4734   -0.4126   -0.0435 C   0  0  0  0  0  0  0  0  0  0  0  0
    2.2272   -0.7138   -1.3142 C   0  0  0  0  0  0  0  0  0  0  0  0
    1.0608    1.1195    2.7026 H   0  0  0  0  0  0  0  0  0  0  0  0
    2.7225    0.3221    2.5658 H   0  0  0  0  0  0  0  0  0  0  0  0
    3.4227   -0.6982    0.4015 H   0  0  0  0  0  0  0  0  0  0  0  0
    2.9511   -1.2395   -1.9230 H   0  0  0  0  0  0  0  0  0  0  0  0
    1.2894   -0.4421   -1.7861 H   0  0  0  0  0  0  0  0  0  0  0  0
  1  2  3  0
  1  7  1  0
  2  3  1  0
  3  4  1  0
  3  5  1  0
  4  9  1  0
  4 10  1  0
  4 11  1  0
  5  6  3  0
  6 12  1  0
  8 14  1  0
 13 14  2  3
 13 17  1  0
 13 18  1  0
 14 15  1  0
 15 16  2  3
 15 19  1  0
 16 20  1  0
 16 21  1  0
M  RAD  1   3   2
M  END
>  <reaction>  (13) 
rxn_1408

>  <mol_properties>  (13) 
{"1": {"label": "*0", "atom_type": "Ct"}, "2": {"label": "*1", "atom_type": "Cs"}, "7": {"label": "*2", "atom_type": "H0"}, "13": {"label": "*3", "atom_type": "Cd"}, "14": {"label": "*4", "atom_type": "Cd"}}

>  <type>  (13) 
unop_9

>  <geom_source>  (13) 
Heuristics

$$$$

     RDKit          3D

 21 19  0  0  0  0  0  0  0  0999 V2000
   -0.9397   -0.0685   -2.7085 C   0  0  0  0  0  0  0  0  0  0  0  0
   -0.9397   -0.0685   -1.5123 C   0  0  0  0  0  0  0  0  0  0  0  0
   -0.9397   -0.0284   -0.0458 C   0  0  0  0  0  3  0  0  0  0  0  0
   -1.5777    1.2708    0.4762 C   0  0  0  0  0  0  0  0  0  0  0  0
   -1.6016   -1.2097    0.5190 C   0  0  0  0  0  0  0  0  0  0  0  0
   -2.1498   -2.1549    1.0055 C   0  0  0  0  0  0  0  0  0  0  0  0
   -0.9397   -0.0685   -3.7719 H   0  0  0  0  0  0  0  0  0  0  0  0
    0.3139   -0.0557    0.3474 H   0  0  0  0  0  0  0  0  0  0  0  0
   -2.6210    1.3280    0.1685 H   0  0  0  0  0  0  0  0  0  0  0  0
   -1.0451    2.1322    0.0746 H   0  0  0  0  0  0  0  0  0  0  0  0
   -1.5305    1.2952    1.5644 H   0  0  0  0  0  0  0  0  0  0  0  0
   -2.6372   -2.9954    1.4380 H   0  0  0  0  0  0  0  0  0  0  0  0
    1.7102   -0.7015    1.9036 C   0  0  0  0  0  0  0  0  0  0  0  0
    1.5579   -0.0827    0.7375 C   0  0  0  0  0  0  0  0  0  0  0  0
    2.4043    1.0103    0.2778 C   0  0  0  0  0  0  0  0  0  0  0  0
    2.2519    1.6292   -0.8882 C   0  0  0  0  0  0  0  0  0  0  0  0
    1.0579   -1.5102    2.2061 H   0  0  0  0  0  0  0  0  0  0  0  0
    2.4962   -0.4164    2.5943 H   0  0  0  0  0  0  0  0  0  0  0  0
    3.2014    1.3188    0.9489 H   0  0  0  0  0  0  0  0  0  0  0  0
    2.9042    2.4378   -1.1907 H   0  0  0  0  0  0  0  0  0  0  0  0
    1.4660    1.3441   -1.5790 H   0  0  0  0  0  0  0  0  0  0  0  0
  1  2  3  0
  1  7  1  0
  2  3  1  0
  3  4  1  0
  3  5  1  0
  4  9  1  0
  4 10  1  0
  4 11  1  0
  5  6  3  0
  6 12  1  0
  8 14  1  0
 13 14  2  3
 13 17  1  0
 13 18  1  0
 14 15  1  0
 15 16  2  3
 15 19  1  0
 16 20  1  0
 16 21  1  0
M  RAD  1   3   2
M  END
>  <reaction>  (14) 
rxn_1408

>  <mol_properties>  (14) 
{"1": {"label": "*0", "atom_type": "Ct"}, "2": {"label": "*1", "atom_type": "Cs"}, "7": {"label": "*2", "atom_type": "H0"}, "13": {"label": "*3", "atom_type": "Cd"}, "14": {"label": "*4", "atom_type": "Cd"}}

>  <type>  (14) 
unop_10

>  <geom_source>  (14) 
Heuristics

$$$$

     RDKit          3D

 21 19  0  0  0  0  0  0  0  0999 V2000
   -0.8191    0.2851   -3.0684 C   0  0  0  0  0  0  0  0  0  0  0  0
   -0.8191    0.2851   -1.8722 C   0  0  0  0  0  0  0  0  0  0  0  0
   -0.8191    0.3251   -0.4057 C   0  0  0  0  0  3  0  0  0  0  0  0
   -1.4571    1.6243    0.1163 C   0  0  0  0  0  0  0  0  0  0  0  0
   -1.4810   -0.8561    0.1591 C   0  0  0  0  0  0  0  0  0  0  0  0
   -2.0292   -1.8014    0.6456 C   0  0  0  0  0  0  0  0  0  0  0  0
   -0.8191    0.2851   -4.1318 H   0  0  0  0  0  0  0  0  0  0  0  0
    0.4345    0.2979   -0.0125 H   0  0  0  0  0  0  0  0  0  0  0  0
   -2.5004    1.6816   -0.1914 H   0  0  0  0  0  0  0  0  0  0  0  0
   -0.9245    2.4858   -0.2853 H   0  0  0  0  0  0  0  0  0  0  0  0
   -1.4100    1.6488    1.2046 H   0  0  0  0  0  0  0  0  0  0  0  0
   -2.5166   -2.6418    1.0781 H   0  0  0  0  0  0  0  0  0  0  0  0
    2.3789    1.2896   -0.1096 C   0  0  0  0  0  0  0  0  0  0  0  0
    1.6785    0.2708    0.3776 C   0  0  0  0  0  0  0  0  0  0  0  0
    1.9389   -0.3549    1.6671 C   0  0  0  0  0  0  0  0  0  0  0  0
    1.2385   -1.3737    2.1544 C   0  0  0  0  0  0  0  0  0  0  0  0
    2.1510    1.7250   -1.0737 H   0  0  0  0  0  0  0  0  0  0  0  0
    3.2056    1.7210    0.4440 H   0  0  0  0  0  0  0  0  0  0  0  0
    2.7620    0.0559    2.2457 H   0  0  0  0  0  0  0  0  0  0  0  0
    1.4664   -1.8091    3.1185 H   0  0  0  0  0  0  0  0  0  0  0  0
    0.4118   -1.8051    1.6007 H   0  0  0  0  0  0  0  0  0  0  0  0
  1  2  3  0
  1  7  1  0
  2  3  1  0
  3  4  1  0
  3  5  1  0
  4  9  1  0
  4 10  1  0
  4 11  1  0
  5  6  3  0
  6 12  1  0
  8 14  1  0
 13 14  2  3
 13 17  1  0
 13 18  1  0
 14 15  1  0
 15 16  2  3
 15 19  1  0
 16 20  1  0
 16 21  1  0
M  RAD  1   3   2
M  END
>  <reaction>  (15) 
rxn_1408

>  <mol_properties>  (15) 
{"1": {"label": "*0", "atom_type": "Ct"}, "2": {"label": "*1", "atom_type": "Cs"}, "7": {"label": "*2", "atom_type": "H0"}, "13": {"label": "*3", "atom_type": "Cd"}, "14": {"label": "*4", "atom_type": "Cd"}}

>  <type>  (15) 
unop_11

>  <geom_source>  (15) 
Heuristics

$$$$

     RDKit          3D

 21 19  0  0  0  0  0  0  0  0999 V2000
   -0.9746    0.1716   -2.5839 C   0  0  0  0  0  0  0  0  0  0  0  0
   -0.9746    0.1716   -1.3877 C   0  0  0  0  0  0  0  0  0  0  0  0
   -0.9746    0.2117    0.0788 C   0  0  0  0  0  3  0  0  0  0  0  0
   -1.6127    1.5109    0.6008 C   0  0  0  0  0  0  0  0  0  0  0  0
   -1.6365   -0.9696    0.6436 C   0  0  0  0  0  0  0  0  0  0  0  0
   -2.1847   -1.9149    1.1301 C   0  0  0  0  0  0  0  0  0  0  0  0
   -0.9746    0.1716   -3.6473 H   0  0  0  0  0  0  0  0  0  0  0  0
    0.2790    0.1844    0.4720 H   0  0  0  0  0  0  0  0  0  0  0  0
   -2.6559    1.5681    0.2931 H   0  0  0  0  0  0  0  0  0  0  0  0
   -1.0800    2.3723    0.1992 H   0  0  0  0  0  0  0  0  0  0  0  0
   -1.5655    1.5353    1.6891 H   0  0  0  0  0  0  0  0  0  0  0  0
   -2.6721   -2.7553    1.5626 H   0  0  0  0  0  0  0  0  0  0  0  0
    1.8042    0.1843    2.1606 C   0  0  0  0  0  0  0  0  0  0  0  0
    1.5229    0.1574    0.8621 C   0  0  0  0  0  0  0  0  0  0  0  0
    2.5298    0.0981   -0.1891 C   0  0  0  0  0  0  0  0  0  0  0  0
    2.2486    0.0712   -1.4876 C   0  0  0  0  0  0  0  0  0  0  0  0
    1.0240    0.2284    2.9091 H   0  0  0  0  0  0  0  0  0  0  0  0
    2.8286    0.1630    2.5158 H   0  0  0  0  0  0  0  0  0  0  0  0
    3.5665    0.0756    0.1360 H   0  0  0  0  0  0  0  0  0  0  0  0
    3.0288    0.0271   -2.2361 H   0  0  0  0  0  0  0  0  0  0  0  0
    1.2241    0.0925   -1.8428 H   0  0  0  0  0  0  0  0  0  0  0  0
  1  2  3  0
  1  7  1  0
  2  3  1  0
  3  4  1  0
  3  5  1  0
  4  9  1  0
  4 10  1  0
  4 11  1  0
  5  6  3  0
  6 12  1  0
  8 14  1  0
 13 14  2  3
 13 17  1  0
 13 18  1  0
 14 15  1  0
 15 16  2  3
 15 19  1  0
 16 20  1  0
 16 21  1  0
M  RAD  1   3   2
M  END
>  <reaction>  (16) 
rxn_1408

>  <mol_properties>  (16) 
{"1": {"label": "*0", "atom_type": "Ct"}, "2": {"label": "*1", "atom_type": "Cs"}, "7": {"label": "*2", "atom_type": "H0"}, "13": {"label": "*3", "atom_type": "Cd"}, "14": {"label": "*4", "atom_type": "Cd"}}

>  <type>  (16) 
unop_12

>  <geom_source>  (16) 
Heuristics

$$$$

     RDKit          3D

 21 19  0  0  0  0  0  0  0  0999 V2000
   -1.4756   -0.9908    1.5003 C   0  0  0  0  0  0  0  0  0  0  0  0
   -1.2672   -0.0047    0.3546 C   0  0  0  0  0  3  0  0  0  0  0  0
    1.2629    0.1016   -0.0545 C   0  0  0  0  0  0  0  0  0  0  0  0
    1.8953    0.3635   -1.3663 C   0  0  0  0  0  0  0  0  0  0  0  0
    1.8784   -0.4400    0.9974 C   0  0  0  0  0  0  0  0  0  0  0  0
    3.1657    0.0923   -1.6708 C   0  0  0  0  0  0  0  0  0  0  0  0
   -1.7360    1.3347    0.7304 C   0  0  0  0  0  0  0  0  0  0  0  0
   -1.9715   -0.4543   -0.8523 C   0  0  0  0  0  0  0  0  0  0  0  0
   -2.1196    2.4353    1.0398 C   0  0  0  0  0  0  0  0  0  0  0  0
   -2.5487   -0.8246   -1.8442 C   0  0  0  0  0  0  0  0  0  0  0  0
   -1.0911   -1.9922    1.2114 H   0  0  0  0  0  0  0  0  0  0  0  0
   -0.9147   -0.6518    2.3973 H   0  0  0  0  0  0  0  0  0  0  0  0
   -2.5539   -1.0773    1.7585 H   0  0  0  0  0  0  0  0  0  0  0  0
    0.0828    0.4083    0.0681 H   0  0  0  0  0  0  0  0  0  0  0  0
    1.2734    0.8092   -2.1322 H   0  0  0  0  0  0  0  0  0  0  0  0
    2.9154   -0.7399    0.9786 H   0  0  0  0  0  0  0  0  0  0  0  0
    1.3257   -0.5906    1.9152 H   0  0  0  0  0  0  0  0  0  0  0  0
    3.5370    0.3214   -2.6613 H   0  0  0  0  0  0  0  0  0  0  0  0
    3.8537   -0.3517   -0.9671 H   0  0  0  0  0  0  0  0  0  0  0  0
   -2.4564    3.4011    1.3114 H   0  0  0  0  0  0  0  0  0  0  0  0
   -3.0554   -1.1495   -2.7145 H   0  0  0  0  0  0  0  0  0  0  0  0
  1  2  1  0
  1 11  1  0
  1 12  1  0
  1 13  1  0
  2  7  1  0
  2  8  1  0
  3  5  2  3
  3  4  1  0
  3 14  1  0
  4  6  2  3
  4 15  1  0
  5 16  1  0
  5 17  1  0
  6 18  1  0
  6 19  1  0
  7  9  3  0
  8 10  3  0
  9 20  1  0
 10 21  1  0
M  RAD  1   2   2
M  END
>  <reaction>  (17) 
rxn_1408

>  <mol_properties>  (17) 
{"1": {"label": "*0", "atom_type": "Ct"}, "2": {"label": "*1", "atom_type": "Cs"}, "7": {"label": "*2", "atom_type": "H0"}, "13": {"label": "*3", "atom_type": "Cd"}, "14": {"label": "*4", "atom_type": "Cd"}}

>  <type>  (17) 
unop_13

>  <geom_source>  (17) 
AutoTST

$$$$
