
     RDKit          3D

 10  9  0  0  0  0  0  0  0  0999 V2000
    2.2738    0.0217   -0.0992 C   0  0  0  0  0  0  0  0  0  0  0  0
    1.1083    0.2960   -0.0695 C   0  0  0  0  0  0  0  0  0  0  0  0
   -0.3173    0.6046   -0.0227 C   0  0  0  0  0  0  0  0  0  0  0  0
   -1.1561   -0.5495    0.5292 C   0  0  0  0  0  0  0  0  0  0  0  0
    3.3097   -0.2166   -0.1277 H   0  0  0  0  0  0  0  0  0  0  0  0
   -0.6542    0.8617   -1.0302 H   0  0  0  0  0  0  0  0  0  0  0  0
   -0.4633    1.4978    0.5900 H   0  0  0  0  0  0  0  0  0  0  0  0
   -0.8485   -0.7997    1.5447 H   0  0  0  0  0  0  0  0  0  0  0  0
   -2.2115   -0.2752    0.5459 H   0  0  0  0  0  0  0  0  0  0  0  0
   -1.0409   -1.4407   -0.0879 H   0  0  0  0  0  0  0  0  0  0  0  0
  1  2  3  0
  1  5  1  0
  2  3  1  0
  3  4  1  0
  3  6  1  0
  3  7  1  0
  4  8  1  0
  4  9  1  0
  4 10  1  0
M  END
>  <reaction>  (1) 
rxn_1260

>  <mol_properties>  (1) 
{"2": {"label": "donator", "atom_type": "Cs"}, "5": {"label": "d_hydrogen", "atom_type": "H0"}}

>  <type>  (1) 
r1h

$$$$

     RDKit          3D

 10  9  0  0  0  0  0  0  0  0999 V2000
    1.2930    0.1441    0.3288 C   0  0  0  0  0  0  0  0  0  0  0  0
   -0.0374   -0.1647    0.9100 C   0  0  0  0  0  3  0  0  0  0  0  0
   -1.2664    0.4569    0.3567 C   0  0  0  0  0  0  0  0  0  0  0  0
    1.4384    1.2242    0.2174 H   0  0  0  0  0  0  0  0  0  0  0  0
    2.1077   -0.2477    0.9385 H   0  0  0  0  0  0  0  0  0  0  0  0
    1.4057   -0.2836   -0.6789 H   0  0  0  0  0  0  0  0  0  0  0  0
   -0.1309   -0.9912    1.6030 H   0  0  0  0  0  0  0  0  0  0  0  0
   -1.5005    0.0716   -0.6471 H   0  0  0  0  0  0  0  0  0  0  0  0
   -2.1382    0.2713    0.9849 H   0  0  0  0  0  0  0  0  0  0  0  0
   -1.1497    1.5406    0.2456 H   0  0  0  0  0  0  0  0  0  0  0  0
  1  2  1  0
  1  4  1  0
  1  5  1  0
  1  6  1  0
  2  3  1  0
  2  7  1  0
  3  8  1  0
  3  9  1  0
  3 10  1  0
M  RAD  1   2   2
M  END
>  <reaction>  (2) 
rxn_1260

>  <mol_properties>  (2) 
{"1": {"label": "acceptor", "atom_type": "Cs"}}

>  <type>  (2) 
r2

$$$$

     RDKit          3D

 11 10  0  0  0  0  0  0  0  0999 V2000
   -1.2710    0.1907   -0.2084 C   0  0  0  0  0  0  0  0  0  0  0  0
    0.0202   -0.6130   -0.2928 C   0  0  0  0  0  0  0  0  0  0  0  0
    0.1086   -1.6953    0.7756 C   0  0  0  0  0  0  0  0  0  0  0  0
   -1.3607    0.6851    0.7620 H   0  0  0  0  0  0  0  0  0  0  0  0
   -2.1429   -0.4567   -0.3299 H   0  0  0  0  0  0  0  0  0  0  0  0
   -1.3158    0.9602   -0.9809 H   0  0  0  0  0  0  0  0  0  0  0  0
    0.8757    0.0616   -0.1992 H   0  0  0  0  0  0  0  0  0  0  0  0
    0.0997   -1.0712   -1.2825 H   0  0  0  0  0  0  0  0  0  0  0  0
   -0.7198   -2.4022    0.6850 H   0  0  0  0  0  0  0  0  0  0  0  0
    1.0395   -2.2596    0.6989 H   0  0  0  0  0  0  0  0  0  0  0  0
    0.0624   -1.2603    1.7770 H   0  0  0  0  0  0  0  0  0  0  0  0
  1  2  1  0
  1  4  1  0
  1  5  1  0
  1  6  1  0
  2  3  1  0
  2  7  1  0
  2  8  1  0
  3  9  1  0
  3 10  1  0
  3 11  1  0
M  END
>  <reaction>  (3) 
rxn_1260

>  <mol_properties>  (3) 
{"0": {"label": "a_hydrogen", "atom_type": "H0"}, "2": {"label": "acceptor", "atom_type": "Cs"}}

>  <type>  (3) 
r2h

$$$$

     RDKit          3D

 20 18  0  0  0  0  0  0  0  0999 V2000
   -1.5316   -0.3865   -1.9942 C   0  0  0  0  0  0  0  0  0  0  0  0
   -1.3341    0.1536   -0.9375 C   0  0  0  0  0  0  0  0  0  0  0  0
   -1.0313    0.7632    0.3191 C   0  0  0  0  0  0  0  0  0  0  0  0
   -0.4825    2.1748    0.2679 C   0  0  0  0  0  0  0  0  0  0  0  0
   -1.7267   -0.8535   -2.9292 H   0  0  0  0  0  0  0  0  0  0  0  0
   -0.0667    0.0397    0.8345 H   0  0  0  0  0  0  0  0  0  0  0  0
   -1.8319    0.6329    1.0472 H   0  0  0  0  0  0  0  0  0  0  0  0
   -1.2352    2.8830   -0.0864 H   0  0  0  0  0  0  0  0  0  0  0  0
   -0.1584    2.4915    1.2605 H   0  0  0  0  0  0  0  0  0  0  0  0
    0.3723    2.2308   -0.4072 H   0  0  0  0  0  0  0  0  0  0  0  0
    2.0578   -0.4377    0.2103 C   0  0  0  0  0  0  0  0  0  0  0  0
    0.9988   -0.7471    1.2308 C   0  0  0  0  0  3  0  0  0  0  0  0
    0.4282   -2.1370    1.2017 C   0  0  0  0  0  0  0  0  0  0  0  0
    1.6779   -0.6062   -0.8010 H   0  0  0  0  0  0  0  0  0  0  0  0
    2.3947    0.5978    0.2791 H   0  0  0  0  0  0  0  0  0  0  0  0
    2.9352   -1.0815    0.3418 H   0  0  0  0  0  0  0  0  0  0  0  0
    1.2172   -0.3729    2.2309 H   0  0  0  0  0  0  0  0  0  0  0  0
    1.1965   -2.8849    1.4299 H   0  0  0  0  0  0  0  0  0  0  0  0
   -0.3771   -2.2574    1.9281 H   0  0  0  0  0  0  0  0  0  0  0  0
    0.0289   -2.3681    0.2108 H   0  0  0  0  0  0  0  0  0  0  0  0
  1  2  3  0
  1  5  1  0
  2  3  1  0
  3  4  1  0
  3  6  1  0
  3  7  1  0
  4  8  1  0
  4  9  1  0
  4 10  1  0
 11 12  1  0
 11 14  1  0
 11 15  1  0
 11 16  1  0
 12 13  1  0
 12 17  1  0
 13 18  1  0
 13 19  1  0
 13 20  1  0
M  RAD  1  12   2
M  END
>  <reaction>  (4) 
rxn_1260

>  <mol_properties>  (4) 
{"1": {"label": "*0", "atom_type": "Ct"}, "2": {"label": "*1", "atom_type": "Cs"}, "5": {"label": "*2", "atom_type": "H0"}, "10": {"label": "*4", "atom_type": "Cs"}, "11": {"label": "*3", "atom_type": "Cs"}}

>  <type>  (4) 
ts

$$$$

     RDKit          3D

 20 18  0  0  0  0  0  0  0  0999 V2000
   -1.1899    0.3923   -2.6566 C   0  0  0  0  0  0  0  0  0  0  0  0
   -1.1899    0.3923   -1.4588 C   0  0  0  0  0  0  0  0  0  0  0  0
   -1.1899    0.4206    0.0003 C   0  0  0  0  0  0  0  0  0  0  0  0
   -1.1899    1.8419    0.5659 C   0  0  0  0  0  0  0  0  0  0  0  0
   -1.1899    0.3923   -3.7199 H   0  0  0  0  0  0  0  0  0  0  0  0
   -0.1394   -0.2335    0.4344 H   0  0  0  0  0  0  0  0  0  0  0  0
   -2.0655   -0.1245    0.3620 H   0  0  0  0  0  0  0  0  0  0  0  0
   -2.0722    2.3898    0.2344 H   0  0  0  0  0  0  0  0  0  0  0  0
   -1.1899    1.8147    1.6562 H   0  0  0  0  0  0  0  0  0  0  0  0
   -0.3077    2.3898    0.2344 H   0  0  0  0  0  0  0  0  0  0  0  0
    1.7863    0.0474    1.6938 C   0  0  0  0  0  0  0  0  0  0  0  0
    0.9118   -0.8880    0.8687 C   0  0  0  0  0  3  0  0  0  0  0  0
    1.6649   -2.1205    0.3846 C   0  0  0  0  0  0  0  0  0  0  0  0
    2.6415    0.3982    1.1110 H   0  0  0  0  0  0  0  0  0  0  0  0
    1.2298    0.9234    2.0311 H   0  0  0  0  0  0  0  0  0  0  0  0
    2.1771   -0.4618    2.5781 H   0  0  0  0  0  0  0  0  0  0  0  0
    0.0489   -1.1992    1.4639 H   0  0  0  0  0  0  0  0  0  0  0  0
    2.0518   -2.6981    1.2277 H   0  0  0  0  0  0  0  0  0  0  0  0
    1.0225   -2.7777   -0.2040 H   0  0  0  0  0  0  0  0  0  0  0  0
    2.5163   -1.8381   -0.2395 H   0  0  0  0  0  0  0  0  0  0  0  0
  1  2  3  0
  1  5  1  0
  2  3  1  0
  3  4  1  0
  3  6  1  0
  3  7  1  0
  4  8  1  0
  4  9  1  0
  4 10  1  0
 11 12  1  0
 11 14  1  0
 11 15  1  0
 11 16  1  0
 12 13  1  0
 12 17  1  0
 13 18  1  0
 13 19  1  0
 13 20  1  0
M  RAD  1  12   2
M  END
>  <reaction>  (5) 
rxn_1260

>  <mol_properties>  (5) 
{"1": {"label": "*0", "atom_type": "Ct"}, "2": {"label": "*1", "atom_type": "Cs"}, "5": {"label": "*2", "atom_type": "H0"}, "10": {"label": "*4", "atom_type": "Cs"}, "11": {"label": "*3", "atom_type": "Cs"}}

>  <type>  (5) 
unop_1

>  <geom_source>  (5) 
Heuristics

$$$$

     RDKit          3D

 20 18  0  0  0  0  0  0  0  0999 V2000
   -1.1038    0.5404   -2.5371 C   0  0  0  0  0  0  0  0  0  0  0  0
   -1.1038    0.5404   -1.3394 C   0  0  0  0  0  0  0  0  0  0  0  0
   -1.1038    0.5686    0.1198 C   0  0  0  0  0  0  0  0  0  0  0  0
   -1.1037    1.9900    0.6854 C   0  0  0  0  0  0  0  0  0  0  0  0
   -1.1038    0.5404   -3.6004 H   0  0  0  0  0  0  0  0  0  0  0  0
   -0.0532   -0.0855    0.5538 H   0  0  0  0  0  0  0  0  0  0  0  0
   -1.9793    0.0236    0.4815 H   0  0  0  0  0  0  0  0  0  0  0  0
   -1.9860    2.5379    0.3539 H   0  0  0  0  0  0  0  0  0  0  0  0
   -1.1037    1.9627    1.7756 H   0  0  0  0  0  0  0  0  0  0  0  0
   -0.2215    2.5379    0.3539 H   0  0  0  0  0  0  0  0  0  0  0  0
    2.1253   -0.6213   -0.0296 C   0  0  0  0  0  0  0  0  0  0  0  0
    0.9980   -0.7399    0.9881 C   0  0  0  0  0  3  0  0  0  0  0  0
    0.9049   -2.1314    1.6010 C   0  0  0  0  0  0  0  0  0  0  0  0
    1.9863   -1.3286   -0.8508 H   0  0  0  0  0  0  0  0  0  0  0  0
    2.1760    0.3815   -0.4570 H   0  0  0  0  0  0  0  0  0  0  0  0
    3.0921   -0.8378    0.4314 H   0  0  0  0  0  0  0  0  0  0  0  0
    1.1447   -0.0018    1.7815 H   0  0  0  0  0  0  0  0  0  0  0  0
    1.8333   -2.3955    2.1133 H   0  0  0  0  0  0  0  0  0  0  0  0
    0.0925   -2.1966    2.3267 H   0  0  0  0  0  0  0  0  0  0  0  0
    0.7274   -2.8863    0.8311 H   0  0  0  0  0  0  0  0  0  0  0  0
  1  2  3  0
  1  5  1  0
  2  3  1  0
  3  4  1  0
  3  6  1  0
  3  7  1  0
  4  8  1  0
  4  9  1  0
  4 10  1  0
 11 12  1  0
 11 14  1  0
 11 15  1  0
 11 16  1  0
 12 13  1  0
 12 17  1  0
 13 18  1  0
 13 19  1  0
 13 20  1  0
M  RAD  1  12   2
M  END
>  <reaction>  (6) 
rxn_1260

>  <mol_properties>  (6) 
{"1": {"label": "*0", "atom_type": "Ct"}, "2": {"label": "*1", "atom_type": "Cs"}, "5": {"label": "*2", "atom_type": "H0"}, "10": {"label": "*4", "atom_type": "Cs"}, "11": {"label": "*3", "atom_type": "Cs"}}

>  <type>  (6) 
unop_2

>  <geom_source>  (6) 
Heuristics

$$$$

     RDKit          3D

 20 18  0  0  0  0  0  0  0  0999 V2000
   -1.1875    0.3479   -2.6824 C   0  0  0  0  0  0  0  0  0  0  0  0
   -1.1875    0.3479   -1.4846 C   0  0  0  0  0  0  0  0  0  0  0  0
   -1.1875    0.3761   -0.0255 C   0  0  0  0  0  0  0  0  0  0  0  0
   -1.1875    1.7975    0.5401 C   0  0  0  0  0  0  0  0  0  0  0  0
   -1.1875    0.3479   -3.7457 H   0  0  0  0  0  0  0  0  0  0  0  0
   -0.1369   -0.2780    0.4086 H   0  0  0  0  0  0  0  0  0  0  0  0
   -2.0630   -0.1690    0.3362 H   0  0  0  0  0  0  0  0  0  0  0  0
   -2.0697    2.3453    0.2086 H   0  0  0  0  0  0  0  0  0  0  0  0
   -1.1875    1.7702    1.6304 H   0  0  0  0  0  0  0  0  0  0  0  0
   -0.3053    2.3453    0.2086 H   0  0  0  0  0  0  0  0  0  0  0  0
    1.3655   -0.3421    2.1727 C   0  0  0  0  0  0  0  0  0  0  0  0
    0.9143   -0.9325    0.8429 C   0  0  0  0  0  3  0  0  0  0  0  0
    2.0684   -1.5173    0.0388 C   0  0  0  0  0  0  0  0  0  0  0  0
    2.0916    0.4596    2.0178 H   0  0  0  0  0  0  0  0  0  0  0  0
    0.5256    0.0714    2.7336 H   0  0  0  0  0  0  0  0  0  0  0  0
    1.8422   -1.1025    2.7960 H   0  0  0  0  0  0  0  0  0  0  0  0
    0.1667   -1.7096    1.0246 H   0  0  0  0  0  0  0  0  0  0  0  0
    2.5673   -2.3147    0.5949 H   0  0  0  0  0  0  0  0  0  0  0  0
    1.7257   -1.9350   -0.9094 H   0  0  0  0  0  0  0  0  0  0  0  0
    2.8167   -0.7527   -0.1833 H   0  0  0  0  0  0  0  0  0  0  0  0
  1  2  3  0
  1  5  1  0
  2  3  1  0
  3  4  1  0
  3  6  1  0
  3  7  1  0
  4  8  1  0
  4  9  1  0
  4 10  1  0
 11 12  1  0
 11 14  1  0
 11 15  1  0
 11 16  1  0
 12 13  1  0
 12 17  1  0
 13 18  1  0
 13 19  1  0
 13 20  1  0
M  RAD  1  12   2
M  END
>  <reaction>  (7) 
rxn_1260

>  <mol_properties>  (7) 
{"1": {"label": "*0", "atom_type": "Ct"}, "2": {"label": "*1", "atom_type": "Cs"}, "5": {"label": "*2", "atom_type": "H0"}, "10": {"label": "*4", "atom_type": "Cs"}, "11": {"label": "*3", "atom_type": "Cs"}}

>  <type>  (7) 
unop_3

>  <geom_source>  (7) 
Heuristics

$$$$

     RDKit          3D

 20 18  0  0  0  0  0  0  0  0999 V2000
   -0.8245    0.5413   -2.7361 C   0  0  0  0  0  0  0  0  0  0  0  0
   -0.8245    0.5413   -1.5384 C   0  0  0  0  0  0  0  0  0  0  0  0
   -0.8245    0.5695   -0.0792 C   0  0  0  0  0  0  0  0  0  0  0  0
   -0.8245    1.9909    0.4864 C   0  0  0  0  0  0  0  0  0  0  0  0
   -0.8245    0.5413   -3.7994 H   0  0  0  0  0  0  0  0  0  0  0  0
    0.2261   -0.0846    0.3548 H   0  0  0  0  0  0  0  0  0  0  0  0
   -1.7000    0.0244    0.2825 H   0  0  0  0  0  0  0  0  0  0  0  0
   -1.7067    2.5387    0.1549 H   0  0  0  0  0  0  0  0  0  0  0  0
   -0.8245    1.9636    1.5767 H   0  0  0  0  0  0  0  0  0  0  0  0
    0.0577    2.5387    0.1549 H   0  0  0  0  0  0  0  0  0  0  0  0
    1.2152   -2.1803    0.2996 C   0  0  0  0  0  0  0  0  0  0  0  0
    1.2773   -0.7391    0.7891 C   0  0  0  0  0  3  0  0  0  0  0  0
    0.6023   -0.5492    2.1415 C   0  0  0  0  0  0  0  0  0  0  0  0
    0.1796   -2.5129    0.1947 H   0  0  0  0  0  0  0  0  0  0  0  0
    1.7034   -2.2962   -0.6695 H   0  0  0  0  0  0  0  0  0  0  0  0
    1.7076   -2.8540    1.0051 H   0  0  0  0  0  0  0  0  0  0  0  0
    2.3217   -0.4220    0.8558 H   0  0  0  0  0  0  0  0  0  0  0  0
    1.0754   -1.1715    2.9050 H   0  0  0  0  0  0  0  0  0  0  0  0
    0.6571    0.4885    2.4750 H   0  0  0  0  0  0  0  0  0  0  0  0
   -0.4525   -0.8304    2.0946 H   0  0  0  0  0  0  0  0  0  0  0  0
  1  2  3  0
  1  5  1  0
  2  3  1  0
  3  4  1  0
  3  6  1  0
  3  7  1  0
  4  8  1  0
  4  9  1  0
  4 10  1  0
 11 12  1  0
 11 14  1  0
 11 15  1  0
 11 16  1  0
 12 13  1  0
 12 17  1  0
 13 18  1  0
 13 19  1  0
 13 20  1  0
M  RAD  1  12   2
M  END
>  <reaction>  (8) 
rxn_1260

>  <mol_properties>  (8) 
{"1": {"label": "*0", "atom_type": "Ct"}, "2": {"label": "*1", "atom_type": "Cs"}, "5": {"label": "*2", "atom_type": "H0"}, "10": {"label": "*4", "atom_type": "Cs"}, "11": {"label": "*3", "atom_type": "Cs"}}

>  <type>  (8) 
unop_4

>  <geom_source>  (8) 
Heuristics

$$$$

     RDKit          3D

 20 18  0  0  0  0  0  0  0  0999 V2000
   -1.1404    0.2499   -2.7403 C   0  0  0  0  0  0  0  0  0  0  0  0
   -1.1404    0.2499   -1.5426 C   0  0  0  0  0  0  0  0  0  0  0  0
   -1.1404    0.2781   -0.0835 C   0  0  0  0  0  0  0  0  0  0  0  0
   -1.1404    1.6995    0.4821 C   0  0  0  0  0  0  0  0  0  0  0  0
   -1.1404    0.2499   -3.8036 H   0  0  0  0  0  0  0  0  0  0  0  0
   -0.0898   -0.3760    0.3506 H   0  0  0  0  0  0  0  0  0  0  0  0
   -2.0159   -0.2669    0.2782 H   0  0  0  0  0  0  0  0  0  0  0  0
   -2.0226    2.2474    0.1507 H   0  0  0  0  0  0  0  0  0  0  0  0
   -1.1404    1.6722    1.5724 H   0  0  0  0  0  0  0  0  0  0  0  0
   -0.2581    2.2474    0.1507 H   0  0  0  0  0  0  0  0  0  0  0  0
    0.9773   -1.0110    2.3080 C   0  0  0  0  0  0  0  0  0  0  0  0
    0.9614   -1.0305    0.7849 C   0  0  0  0  0  3  0  0  0  0  0  0
    2.2212   -0.4269    0.1773 C   0  0  0  0  0  0  0  0  0  0  0  0
    1.0612    0.0113    2.6847 H   0  0  0  0  0  0  0  0  0  0  0  0
    0.0675   -1.4470    2.7243 H   0  0  0  0  0  0  0  0  0  0  0  0
    1.8276   -1.5762    2.6971 H   0  0  0  0  0  0  0  0  0  0  0  0
    0.8459   -2.0601    0.4352 H   0  0  0  0  0  0  0  0  0  0  0  0
    3.1108   -0.9737    0.4992 H   0  0  0  0  0  0  0  0  0  0  0  0
    2.1912   -0.4499   -0.9134 H   0  0  0  0  0  0  0  0  0  0  0  0
    2.3443    0.6138    0.4869 H   0  0  0  0  0  0  0  0  0  0  0  0
  1  2  3  0
  1  5  1  0
  2  3  1  0
  3  4  1  0
  3  6  1  0
  3  7  1  0
  4  8  1  0
  4  9  1  0
  4 10  1  0
 11 12  1  0
 11 14  1  0
 11 15  1  0
 11 16  1  0
 12 13  1  0
 12 17  1  0
 13 18  1  0
 13 19  1  0
 13 20  1  0
M  RAD  1  12   2
M  END
>  <reaction>  (9) 
rxn_1260

>  <mol_properties>  (9) 
{"1": {"label": "*0", "atom_type": "Ct"}, "2": {"label": "*1", "atom_type": "Cs"}, "5": {"label": "*2", "atom_type": "H0"}, "10": {"label": "*4", "atom_type": "Cs"}, "11": {"label": "*3", "atom_type": "Cs"}}

>  <type>  (9) 
unop_5

>  <geom_source>  (9) 
Heuristics

$$$$

     RDKit          3D

 20 18  0  0  0  0  0  0  0  0999 V2000
   -0.8212    0.4384   -2.8182 C   0  0  0  0  0  0  0  0  0  0  0  0
   -0.8212    0.4384   -1.6205 C   0  0  0  0  0  0  0  0  0  0  0  0
   -0.8212    0.4667   -0.1613 C   0  0  0  0  0  0  0  0  0  0  0  0
   -0.8212    1.8881    0.4043 C   0  0  0  0  0  0  0  0  0  0  0  0
   -0.8212    0.4384   -3.8815 H   0  0  0  0  0  0  0  0  0  0  0  0
    0.2294   -0.1874    0.2727 H   0  0  0  0  0  0  0  0  0  0  0  0
   -1.6968   -0.0784    0.2004 H   0  0  0  0  0  0  0  0  0  0  0  0
   -1.7034    2.4359    0.0728 H   0  0  0  0  0  0  0  0  0  0  0  0
   -0.8212    1.8608    1.4945 H   0  0  0  0  0  0  0  0  0  0  0  0
    0.0610    2.4359    0.0728 H   0  0  0  0  0  0  0  0  0  0  0  0
    0.9206   -2.3097    0.8983 C   0  0  0  0  0  0  0  0  0  0  0  0
    1.2806   -0.8419    0.7070 C   0  0  0  0  0  3  0  0  0  0  0  0
    0.8813    0.0201    1.8978 C   0  0  0  0  0  0  0  0  0  0  0  0
   -0.1557   -2.4326    1.0410 H   0  0  0  0  0  0  0  0  0  0  0  0
    1.2142   -2.9104    0.0358 H   0  0  0  0  0  0  0  0  0  0  0  0
    1.4189   -2.7225    1.7789 H   0  0  0  0  0  0  0  0  0  0  0  0
    2.3567   -0.7503    0.5359 H   0  0  0  0  0  0  0  0  0  0  0  0
    1.3783   -0.3193    2.8099 H   0  0  0  0  0  0  0  0  0  0  0  0
    1.1470    1.0671    1.7422 H   0  0  0  0  0  0  0  0  0  0  0  0
   -0.1963   -0.0293    2.0720 H   0  0  0  0  0  0  0  0  0  0  0  0
  1  2  3  0
  1  5  1  0
  2  3  1  0
  3  4  1  0
  3  6  1  0
  3  7  1  0
  4  8  1  0
  4  9  1  0
  4 10  1  0
 11 12  1  0
 11 14  1  0
 11 15  1  0
 11 16  1  0
 12 13  1  0
 12 17  1  0
 13 18  1  0
 13 19  1  0
 13 20  1  0
M  RAD  1  12   2
M  END
>  <reaction>  (10) 
rxn_1260

>  <mol_properties>  (10) 
{"1": {"label": "*0", "atom_type": "Ct"}, "2": {"label": "*1", "atom_type": "Cs"}, "5": {"label": "*2", "atom_type": "H0"}, "10": {"label": "*4", "atom_type": "Cs"}, "11": {"label": "*3", "atom_type": "Cs"}}

>  <type>  (10) 
unop_6

>  <geom_source>  (10) 
Heuristics

$$$$

     RDKit          3D

 20 18  0  0  0  0  0  0  0  0999 V2000
   -0.8793    0.3194   -2.8569 C   0  0  0  0  0  0  0  0  0  0  0  0
   -0.8793    0.3194   -1.6592 C   0  0  0  0  0  0  0  0  0  0  0  0
   -0.8793    0.3476   -0.2001 C   0  0  0  0  0  0  0  0  0  0  0  0
   -0.8793    1.7690    0.3656 C   0  0  0  0  0  0  0  0  0  0  0  0
   -0.8793    0.3194   -3.9202 H   0  0  0  0  0  0  0  0  0  0  0  0
    0.1713   -0.3065    0.2340 H   0  0  0  0  0  0  0  0  0  0  0  0
   -1.7548   -0.1974    0.1617 H   0  0  0  0  0  0  0  0  0  0  0  0
   -1.7615    2.3169    0.0341 H   0  0  0  0  0  0  0  0  0  0  0  0
   -0.8793    1.7417    1.4558 H   0  0  0  0  0  0  0  0  0  0  0  0
    0.0030    2.3169    0.0341 H   0  0  0  0  0  0  0  0  0  0  0  0
    0.7701   -2.1298    1.5341 C   0  0  0  0  0  0  0  0  0  0  0  0
    1.2225   -0.9609    0.6683 C   0  0  0  0  0  3  0  0  0  0  0  0
    1.2778    0.3525    1.4380 C   0  0  0  0  0  0  0  0  0  0  0  0
   -0.2279   -1.9507    1.9417 H   0  0  0  0  0  0  0  0  0  0  0  0
    0.7368   -3.0608    0.9657 H   0  0  0  0  0  0  0  0  0  0  0  0
    1.4489   -2.2768    2.3777 H   0  0  0  0  0  0  0  0  0  0  0  0
    2.2087   -1.1789    0.2490 H   0  0  0  0  0  0  0  0  0  0  0  0
    1.9726    0.2837    2.2786 H   0  0  0  0  0  0  0  0  0  0  0  0
    1.6036    1.1770    0.8016 H   0  0  0  0  0  0  0  0  0  0  0  0
    0.2958    0.6098    1.8425 H   0  0  0  0  0  0  0  0  0  0  0  0
  1  2  3  0
  1  5  1  0
  2  3  1  0
  3  4  1  0
  3  6  1  0
  3  7  1  0
  4  8  1  0
  4  9  1  0
  4 10  1  0
 11 12  1  0
 11 14  1  0
 11 15  1  0
 11 16  1  0
 12 13  1  0
 12 17  1  0
 13 18  1  0
 13 19  1  0
 13 20  1  0
M  RAD  1  12   2
M  END
>  <reaction>  (11) 
rxn_1260

>  <mol_properties>  (11) 
{"1": {"label": "*0", "atom_type": "Ct"}, "2": {"label": "*1", "atom_type": "Cs"}, "5": {"label": "*2", "atom_type": "H0"}, "10": {"label": "*4", "atom_type": "Cs"}, "11": {"label": "*3", "atom_type": "Cs"}}

>  <type>  (11) 
unop_7

>  <geom_source>  (11) 
Heuristics

$$$$

     RDKit          3D

 20 18  0  0  0  0  0  0  0  0999 V2000
   -1.1895    0.4199   -2.6162 C   0  0  0  0  0  0  0  0  0  0  0  0
   -1.1895    0.4199   -1.4184 C   0  0  0  0  0  0  0  0  0  0  0  0
   -1.1895    0.4481    0.0407 C   0  0  0  0  0  0  0  0  0  0  0  0
   -1.1894    1.8695    0.6063 C   0  0  0  0  0  0  0  0  0  0  0  0
   -1.1895    0.4199   -3.6795 H   0  0  0  0  0  0  0  0  0  0  0  0
   -0.1389   -0.2060    0.4748 H   0  0  0  0  0  0  0  0  0  0  0  0
   -2.0650   -0.0970    0.4024 H   0  0  0  0  0  0  0  0  0  0  0  0
   -2.0717    2.4174    0.2748 H   0  0  0  0  0  0  0  0  0  0  0  0
   -1.1894    1.8422    1.6966 H   0  0  0  0  0  0  0  0  0  0  0  0
   -0.3072    2.4173    0.2748 H   0  0  0  0  0  0  0  0  0  0  0  0
    2.0846    0.1015    1.0534 C   0  0  0  0  0  0  0  0  0  0  0  0
    0.9123   -0.8605    0.9091 C   0  0  0  0  0  3  0  0  0  0  0  0
    1.3534   -2.3170    0.8422 C   0  0  0  0  0  0  0  0  0  0  0  0
    2.7718    0.0094    0.2088 H   0  0  0  0  0  0  0  0  0  0  0  0
    1.7490    1.1389    1.0995 H   0  0  0  0  0  0  0  0  0  0  0  0
    2.6517   -0.1076    1.9637 H   0  0  0  0  0  0  0  0  0  0  0  0
    0.2257   -0.7263    1.7495 H   0  0  0  0  0  0  0  0  0  0  0  0
    1.8974   -2.6023    1.7459 H   0  0  0  0  0  0  0  0  0  0  0  0
    0.5006   -2.9901    0.7390 H   0  0  0  0  0  0  0  0  0  0  0  0
    2.0175   -2.4854   -0.0090 H   0  0  0  0  0  0  0  0  0  0  0  0
  1  2  3  0
  1  5  1  0
  2  3  1  0
  3  4  1  0
  3  6  1  0
  3  7  1  0
  4  8  1  0
  4  9  1  0
  4 10  1  0
 11 12  1  0
 11 14  1  0
 11 15  1  0
 11 16  1  0
 12 13  1  0
 12 17  1  0
 13 18  1  0
 13 19  1  0
 13 20  1  0
M  RAD  1  12   2
M  END
>  <reaction>  (12) 
rxn_1260

>  <mol_properties>  (12) 
{"1": {"label": "*0", "atom_type": "Ct"}, "2": {"label": "*1", "atom_type": "Cs"}, "5": {"label": "*2", "atom_type": "H0"}, "10": {"label": "*4", "atom_type": "Cs"}, "11": {"label": "*3", "atom_type": "Cs"}}

>  <type>  (12) 
unop_8

>  <geom_source>  (12) 
Heuristics

$$$$

     RDKit          3D

 20 18  0  0  0  0  0  0  0  0999 V2000
   -0.8884    0.6018   -2.6382 C   0  0  0  0  0  0  0  0  0  0  0  0
   -0.8884    0.6018   -1.4405 C   0  0  0  0  0  0  0  0  0  0  0  0
   -0.8884    0.6300    0.0186 C   0  0  0  0  0  0  0  0  0  0  0  0
   -0.8884    2.0514    0.5842 C   0  0  0  0  0  0  0  0  0  0  0  0
   -0.8884    0.6018   -3.7015 H   0  0  0  0  0  0  0  0  0  0  0  0
    0.1622   -0.0241    0.4527 H   0  0  0  0  0  0  0  0  0  0  0  0
   -1.7639    0.0850    0.3803 H   0  0  0  0  0  0  0  0  0  0  0  0
   -1.7706    2.5993    0.2528 H   0  0  0  0  0  0  0  0  0  0  0  0
   -0.8884    2.0241    1.6745 H   0  0  0  0  0  0  0  0  0  0  0  0
   -0.0061    2.5993    0.2528 H   0  0  0  0  0  0  0  0  0  0  0  0
    1.5746   -1.7748   -0.1072 C   0  0  0  0  0  0  0  0  0  0  0  0
    1.2134   -0.6785    0.8870 C   0  0  0  0  0  3  0  0  0  0  0  0
    0.5161   -1.2192    2.1288 C   0  0  0  0  0  0  0  0  0  0  0  0
    0.6815   -2.3074   -0.4429 H   0  0  0  0  0  0  0  0  0  0  0  0
    2.0727   -1.3684   -0.9890 H   0  0  0  0  0  0  0  0  0  0  0  0
    2.2446   -2.5088    0.3471 H   0  0  0  0  0  0  0  0  0  0  0  0
    2.1194   -0.1423    1.1827 H   0  0  0  0  0  0  0  0  0  0  0  0
    1.1527   -1.9357    2.6535 H   0  0  0  0  0  0  0  0  0  0  0  0
    0.2656   -0.4198    2.8282 H   0  0  0  0  0  0  0  0  0  0  0  0
   -0.4104   -1.7343    1.8635 H   0  0  0  0  0  0  0  0  0  0  0  0
  1  2  3  0
  1  5  1  0
  2  3  1  0
  3  4  1  0
  3  6  1  0
  3  7  1  0
  4  8  1  0
  4  9  1  0
  4 10  1  0
 11 12  1  0
 11 14  1  0
 11 15  1  0
 11 16  1  0
 12 13  1  0
 12 17  1  0
 13 18  1  0
 13 19  1  0
 13 20  1  0
M  RAD  1  12   2
M  END
>  <reaction>  (13) 
rxn_1260

>  <mol_properties>  (13) 
{"1": {"label": "*0", "atom_type": "Ct"}, "2": {"label": "*1", "atom_type": "Cs"}, "5": {"label": "*2", "atom_type": "H0"}, "10": {"label": "*4", "atom_type": "Cs"}, "11": {"label": "*3", "atom_type": "Cs"}}

>  <type>  (13) 
unop_9

>  <geom_source>  (13) 
Heuristics

$$$$

     RDKit          3D

 20 18  0  0  0  0  0  0  0  0999 V2000
   -1.1681    0.4687   -2.5662 C   0  0  0  0  0  0  0  0  0  0  0  0
   -1.1681    0.4687   -1.3685 C   0  0  0  0  0  0  0  0  0  0  0  0
   -1.1681    0.4969    0.0907 C   0  0  0  0  0  0  0  0  0  0  0  0
   -1.1681    1.9183    0.6563 C   0  0  0  0  0  0  0  0  0  0  0  0
   -1.1681    0.4687   -3.6295 H   0  0  0  0  0  0  0  0  0  0  0  0
   -0.1175   -0.1572    0.5247 H   0  0  0  0  0  0  0  0  0  0  0  0
   -2.0436   -0.0481    0.4524 H   0  0  0  0  0  0  0  0  0  0  0  0
   -2.0503    2.4662    0.3248 H   0  0  0  0  0  0  0  0  0  0  0  0
   -1.1681    1.8910    1.7465 H   0  0  0  0  0  0  0  0  0  0  0  0
   -0.2858    2.4662    0.3248 H   0  0  0  0  0  0  0  0  0  0  0  0
    2.1986   -0.1486    0.4288 C   0  0  0  0  0  0  0  0  0  0  0  0
    0.9337   -0.8116    0.9590 C   0  0  0  0  0  3  0  0  0  0  0  0
    1.1280   -2.2931    1.2557 C   0  0  0  0  0  0  0  0  0  0  0  0
    2.5299   -0.6240   -0.4976 H   0  0  0  0  0  0  0  0  0  0  0  0
    2.0396    0.9111    0.2224 H   0  0  0  0  0  0  0  0  0  0  0  0
    3.0145   -0.2302    1.1510 H   0  0  0  0  0  0  0  0  0  0  0  0
    0.6070   -0.2982    1.8676 H   0  0  0  0  0  0  0  0  0  0  0  0
    1.9103   -2.4423    2.0040 H   0  0  0  0  0  0  0  0  0  0  0  0
    0.2121   -2.7500    1.6341 H   0  0  0  0  0  0  0  0  0  0  0  0
    1.4256   -2.8361    0.3553 H   0  0  0  0  0  0  0  0  0  0  0  0
  1  2  3  0
  1  5  1  0
  2  3  1  0
  3  4  1  0
  3  6  1  0
  3  7  1  0
  4  8  1  0
  4  9  1  0
  4 10  1  0
 11 12  1  0
 11 14  1  0
 11 15  1  0
 11 16  1  0
 12 13  1  0
 12 17  1  0
 13 18  1  0
 13 19  1  0
 13 20  1  0
M  RAD  1  12   2
M  END
>  <reaction>  (14) 
rxn_1260

>  <mol_properties>  (14) 
{"1": {"label": "*0", "atom_type": "Ct"}, "2": {"label": "*1", "atom_type": "Cs"}, "5": {"label": "*2", "atom_type": "H0"}, "10": {"label": "*4", "atom_type": "Cs"}, "11": {"label": "*3", "atom_type": "Cs"}}

>  <type>  (14) 
unop_10

>  <geom_source>  (14) 
Heuristics

$$$$

     RDKit          3D

 20 18  0  0  0  0  0  0  0  0999 V2000
   -0.9989    0.2278   -2.8296 C   0  0  0  0  0  0  0  0  0  0  0  0
   -0.9989    0.2278   -1.6319 C   0  0  0  0  0  0  0  0  0  0  0  0
   -0.9989    0.2560   -0.1727 C   0  0  0  0  0  0  0  0  0  0  0  0
   -0.9989    1.6774    0.3929 C   0  0  0  0  0  0  0  0  0  0  0  0
   -0.9989    0.2278   -3.8929 H   0  0  0  0  0  0  0  0  0  0  0  0
    0.0517   -0.3981    0.2613 H   0  0  0  0  0  0  0  0  0  0  0  0
   -1.8744   -0.2891    0.1890 H   0  0  0  0  0  0  0  0  0  0  0  0
   -1.8811    2.2253    0.0614 H   0  0  0  0  0  0  0  0  0  0  0  0
   -0.9989    1.6501    1.4832 H   0  0  0  0  0  0  0  0  0  0  0  0
   -0.1166    2.2252    0.0614 H   0  0  0  0  0  0  0  0  0  0  0  0
    0.7880   -1.6770    2.0489 C   0  0  0  0  0  0  0  0  0  0  0  0
    1.1029   -1.0526    0.6956 C   0  0  0  0  0  3  0  0  0  0  0  0
    1.7766    0.3081    0.8198 C   0  0  0  0  0  0  0  0  0  0  0  0
    0.1195   -1.0361    2.6288 H   0  0  0  0  0  0  0  0  0  0  0  0
    0.3063   -2.6501    1.9394 H   0  0  0  0  0  0  0  0  0  0  0  0
    1.6991   -1.8188    2.6353 H   0  0  0  0  0  0  0  0  0  0  0  0
    1.7471   -1.7269    0.1246 H   0  0  0  0  0  0  0  0  0  0  0  0
    2.7188    0.2289    1.3674 H   0  0  0  0  0  0  0  0  0  0  0  0
    1.9940    0.7389   -0.1590 H   0  0  0  0  0  0  0  0  0  0  0  0
    1.1392    1.0116    1.3610 H   0  0  0  0  0  0  0  0  0  0  0  0
  1  2  3  0
  1  5  1  0
  2  3  1  0
  3  4  1  0
  3  6  1  0
  3  7  1  0
  4  8  1  0
  4  9  1  0
  4 10  1  0
 11 12  1  0
 11 14  1  0
 11 15  1  0
 11 16  1  0
 12 13  1  0
 12 17  1  0
 13 18  1  0
 13 19  1  0
 13 20  1  0
M  RAD  1  12   2
M  END
>  <reaction>  (15) 
rxn_1260

>  <mol_properties>  (15) 
{"1": {"label": "*0", "atom_type": "Ct"}, "2": {"label": "*1", "atom_type": "Cs"}, "5": {"label": "*2", "atom_type": "H0"}, "10": {"label": "*4", "atom_type": "Cs"}, "11": {"label": "*3", "atom_type": "Cs"}}

>  <type>  (15) 
unop_11

>  <geom_source>  (15) 
Heuristics

$$$$

     RDKit          3D

 20 18  0  0  0  0  0  0  0  0999 V2000
   -0.9969    0.5995   -2.5608 C   0  0  0  0  0  0  0  0  0  0  0  0
   -0.9969    0.5995   -1.3630 C   0  0  0  0  0  0  0  0  0  0  0  0
   -0.9969    0.6277    0.0961 C   0  0  0  0  0  0  0  0  0  0  0  0
   -0.9969    2.0491    0.6617 C   0  0  0  0  0  0  0  0  0  0  0  0
   -0.9969    0.5995   -3.6241 H   0  0  0  0  0  0  0  0  0  0  0  0
    0.0537   -0.0264    0.5302 H   0  0  0  0  0  0  0  0  0  0  0  0
   -1.8724    0.0826    0.4578 H   0  0  0  0  0  0  0  0  0  0  0  0
   -1.8791    2.5970    0.3302 H   0  0  0  0  0  0  0  0  0  0  0  0
   -0.9969    2.0218    1.7520 H   0  0  0  0  0  0  0  0  0  0  0  0
   -0.1147    2.5969    0.3302 H   0  0  0  0  0  0  0  0  0  0  0  0
    1.9014   -1.2061   -0.2230 C   0  0  0  0  0  0  0  0  0  0  0  0
    1.1049   -0.6809    0.9645 C   0  0  0  0  0  3  0  0  0  0  0  0
    0.6575   -1.7902    1.9077 C   0  0  0  0  0  0  0  0  0  0  0  0
    1.3081   -1.9113   -0.8102 H   0  0  0  0  0  0  0  0  0  0  0  0
    2.2127   -0.3976   -0.8865 H   0  0  0  0  0  0  0  0  0  0  0  0
    2.8004   -1.7301    0.1107 H   0  0  0  0  0  0  0  0  0  0  0  0
    1.7095    0.0443    1.5162 H   0  0  0  0  0  0  0  0  0  0  0  0
    1.5173   -2.3326    2.3085 H   0  0  0  0  0  0  0  0  0  0  0  0
    0.0890   -1.3947    2.7511 H   0  0  0  0  0  0  0  0  0  0  0  0
    0.0250   -2.5137    1.3877 H   0  0  0  0  0  0  0  0  0  0  0  0
  1  2  3  0
  1  5  1  0
  2  3  1  0
  3  4  1  0
  3  6  1  0
  3  7  1  0
  4  8  1  0
  4  9  1  0
  4 10  1  0
 11 12  1  0
 11 14  1  0
 11 15  1  0
 11 16  1  0
 12 13  1  0
 12 17  1  0
 13 18  1  0
 13 19  1  0
 13 20  1  0
M  RAD  1  12   2
M  END
>  <reaction>  (16) 
rxn_1260

>  <mol_properties>  (16) 
{"1": {"label": "*0", "atom_type": "Ct"}, "2": {"label": "*1", "atom_type": "Cs"}, "5": {"label": "*2", "atom_type": "H0"}, "10": {"label": "*4", "atom_type": "Cs"}, "11": {"label": "*3", "atom_type": "Cs"}}

>  <type>  (16) 
unop_12

>  <geom_source>  (16) 
Heuristics

$$$$

     RDKit          3D

 20 18  0  0  0  0  0  0  0  0999 V2000
   -1.2032   -0.1304    0.0789 C   0  0  0  0  0  0  0  0  0  0  0  0
   -2.1260    0.3717    1.1841 C   0  0  0  0  0  0  0  0  0  0  0  0
   -1.5702    0.4781   -1.2702 C   0  0  0  0  0  0  0  0  0  0  0  0
    1.7904   -1.5661    0.4103 C   0  0  0  0  0  0  0  0  0  0  0  0
    1.3611   -0.1131    0.5520 C   0  0  0  0  0  3  0  0  0  0  0  0
    2.0492    0.7307   -0.4310 C   0  0  0  0  0  0  0  0  0  0  0  0
    2.6142    1.4249   -1.2386 C   0  0  0  0  0  0  0  0  0  0  0  0
   -1.2745   -1.2376    0.0148 H   0  0  0  0  0  0  0  0  0  0  0  0
    0.0116    0.1853    0.3677 H   0  0  0  0  0  0  0  0  0  0  0  0
   -1.8292   -0.0877    2.1501 H   0  0  0  0  0  0  0  0  0  0  0  0
   -2.0484    1.4758    1.2773 H   0  0  0  0  0  0  0  0  0  0  0  0
   -3.1789    0.0933    0.9649 H   0  0  0  0  0  0  0  0  0  0  0  0
   -0.8784    0.0942   -2.0488 H   0  0  0  0  0  0  0  0  0  0  0  0
   -2.6096    0.2022   -1.5488 H   0  0  0  0  0  0  0  0  0  0  0  0
   -1.4806    1.5844   -1.2298 H   0  0  0  0  0  0  0  0  0  0  0  0
    2.8828   -1.6674    0.5876 H   0  0  0  0  0  0  0  0  0  0  0  0
    1.5432   -1.9414   -0.6056 H   0  0  0  0  0  0  0  0  0  0  0  0
    1.2478   -2.1827    1.1568 H   0  0  0  0  0  0  0  0  0  0  0  0
    1.5883    0.2518    1.5758 H   0  0  0  0  0  0  0  0  0  0  0  0
    3.1103    2.0341   -1.9477 H   0  0  0  0  0  0  0  0  0  0  0  0
  1  2  1  0
  1  3  1  0
  1  8  1  0
  1  9  1  0
  2 10  1  0
  2 11  1  0
  2 12  1  0
  3 13  1  0
  3 14  1  0
  3 15  1  0
  4  5  1  0
  4 16  1  0
  4 17  1  0
  4 18  1  0
  5  6  1  0
  5 19  1  0
  6  7  3  0
  7 20  1  0
M  RAD  1   5   2
M  END
>  <reaction>  (17) 
rxn_1260

>  <mol_properties>  (17) 
{"1": {"label": "*0", "atom_type": "Ct"}, "2": {"label": "*1", "atom_type": "Cs"}, "5": {"label": "*2", "atom_type": "H0"}, "10": {"label": "*4", "atom_type": "Cs"}, "11": {"label": "*3", "atom_type": "Cs"}}

>  <type>  (17) 
unop_13

>  <geom_source>  (17) 
AutoTST

$$$$
