
     RDKit          3D

 11 10  0  0  0  0  0  0  0  0999 V2000
   -1.2710    0.1907   -0.2084 C   0  0  0  0  0  0  0  0  0  0  0  0
    0.0202   -0.6130   -0.2928 C   0  0  0  0  0  0  0  0  0  0  0  0
    0.1086   -1.6953    0.7756 C   0  0  0  0  0  0  0  0  0  0  0  0
   -1.3607    0.6851    0.7620 H   0  0  0  0  0  0  0  0  0  0  0  0
   -2.1429   -0.4567   -0.3299 H   0  0  0  0  0  0  0  0  0  0  0  0
   -1.3158    0.9602   -0.9809 H   0  0  0  0  0  0  0  0  0  0  0  0
    0.8757    0.0616   -0.1992 H   0  0  0  0  0  0  0  0  0  0  0  0
    0.0997   -1.0712   -1.2825 H   0  0  0  0  0  0  0  0  0  0  0  0
   -0.7198   -2.4022    0.6850 H   0  0  0  0  0  0  0  0  0  0  0  0
    1.0395   -2.2596    0.6989 H   0  0  0  0  0  0  0  0  0  0  0  0
    0.0624   -1.2603    1.7770 H   0  0  0  0  0  0  0  0  0  0  0  0
  1  2  1  0
  1  4  1  0
  1  5  1  0
  1  6  1  0
  2  3  1  0
  2  7  1  0
  2  8  1  0
  3  9  1  0
  3 10  1  0
  3 11  1  0
M  END
>  <reaction>  (1) 
rxn_940

>  <mol_properties>  (1) 
{"1": {"label": "donator", "atom_type": "Cs"}, "6": {"label": "d_hydrogen", "atom_type": "H0"}}

>  <type>  (1) 
r1h

$$$$

     RDKit          3D

 12 11  0  0  0  0  0  0  0  0999 V2000
   -0.9951    0.1196   -0.8321 C   0  0  0  0  0  0  0  0  0  0  0  0
   -0.3760    0.2571    0.5231 C   0  0  0  0  0  3  0  0  0  0  0  0
    0.9330   -0.1537    0.7810 C   0  0  0  0  0  0  0  0  0  0  0  0
    1.5987   -0.1880    1.9734 C   0  0  0  0  0  0  0  0  0  0  0  0
   -1.4483    0.9449    1.7152 S   0  0  0  0  0  0  0  0  0  0  0  0
   -1.9164   -0.4696   -0.7936 H   0  0  0  0  0  0  0  0  0  0  0  0
   -1.2565    1.0958   -1.2506 H   0  0  0  0  0  0  0  0  0  0  0  0
   -0.3088   -0.3780   -1.5170 H   0  0  0  0  0  0  0  0  0  0  0  0
    1.4783   -0.4898   -0.0971 H   0  0  0  0  0  0  0  0  0  0  0  0
    2.6278   -0.5153    2.0142 H   0  0  0  0  0  0  0  0  0  0  0  0
    1.1316    0.0690    2.9151 H   0  0  0  0  0  0  0  0  0  0  0  0
   -0.5306    1.3052    2.6211 H   0  0  0  0  0  0  0  0  0  0  0  0
  1  2  1  0
  1  6  1  0
  1  7  1  0
  1  8  1  0
  2  3  1  0
  2  5  1  0
  3  4  2  3
  3  9  1  0
  4 10  1  0
  4 11  1  0
  5 12  1  0
M  RAD  1   2   2
M  END
>  <reaction>  (2) 
rxn_940

>  <mol_properties>  (2) 
{"1": {"label": "acceptor", "atom_type": "Cs"}}

>  <type>  (2) 
r2

$$$$

     RDKit          3D

 13 12  0  0  0  0  0  0  0  0999 V2000
   -1.1828    0.8269   -0.1645 C   0  0  0  0  0  0  0  0  0  0  0  0
   -0.4827   -0.4584   -0.5736 C   0  0  1  0  0  0  0  0  0  0  0  0
   -0.9759   -1.7030    0.1030 C   0  0  0  0  0  0  0  0  0  0  0  0
   -2.0084   -1.7831    0.9287 C   0  0  0  0  0  0  0  0  0  0  0  0
   -0.4908   -0.7025   -2.3913 S   0  0  0  0  0  0  0  0  0  0  0  0
   -1.0941    0.9860    0.9125 H   0  0  0  0  0  0  0  0  0  0  0  0
   -0.7405    1.6784   -0.6793 H   0  0  0  0  0  0  0  0  0  0  0  0
   -2.2437    0.7943   -0.4195 H   0  0  0  0  0  0  0  0  0  0  0  0
    0.5870   -0.3637   -0.3637 H   0  0  0  0  0  0  0  0  0  0  0  0
   -0.4209   -2.6026   -0.1443 H   0  0  0  0  0  0  0  0  0  0  0  0
   -2.2982   -2.7315    1.3623 H   0  0  0  0  0  0  0  0  0  0  0  0
   -2.5999   -0.9190    1.2055 H   0  0  0  0  0  0  0  0  0  0  0  0
   -1.8040   -0.9489   -2.4971 H   0  0  0  0  0  0  0  0  0  0  0  0
  1  2  1  0
  1  6  1  0
  1  7  1  0
  1  8  1  0
  2  3  1  0
  2  5  1  0
  2  9  1  1
  3  4  2  3
  3 10  1  0
  4 11  1  0
  4 12  1  0
  5 13  1  0
M  END
>  <reaction>  (3) 
rxn_940

>  <mol_properties>  (3) 
{"1": {"label": "acceptor", "atom_type": "Cs"}, "12": {"label": "a_hydrogen", "atom_type": "H0"}}

>  <type>  (3) 
r2h

$$$$

     RDKit          3D

 23 21  0  0  0  0  0  0  0  0999 V2000
    0.9913    0.3722    1.6884 C   0  0  0  0  0  0  0  0  0  0  0  0
    0.3451   -0.4803    0.6222 C   0  0  1  0  0  0  0  0  0  0  0  0
    1.2030   -0.9800   -0.4625 C   0  0  0  0  0  0  0  0  0  0  0  0
    2.4727   -0.6378   -0.6789 C   0  0  0  0  0  0  0  0  0  0  0  0
   -0.8175   -1.7127    1.2461 S   0  0  0  0  0  0  0  0  0  0  0  0
    1.7203   -0.2031    2.2665 H   0  0  0  0  0  0  0  0  0  0  0  0
    1.5106    1.2230    1.2412 H   0  0  0  0  0  0  0  0  0  0  0  0
    0.2387    0.7541    2.3773 H   0  0  0  0  0  0  0  0  0  0  0  0
    0.7213   -1.6720   -1.1465 H   0  0  0  0  0  0  0  0  0  0  0  0
    3.0168   -1.0386   -1.5242 H   0  0  0  0  0  0  0  0  0  0  0  0
    3.0117    0.0369   -0.0254 H   0  0  0  0  0  0  0  0  0  0  0  0
    0.0855   -2.5926    1.7077 H   0  0  0  0  0  0  0  0  0  0  0  0
   -1.6808    0.4697   -1.8873 C   0  0  0  0  0  0  0  0  0  0  0  0
   -1.3120    1.2314   -0.6470 C   0  0  0  0  0  3  0  0  0  0  0  0
   -0.4320    2.4345   -0.8292 C   0  0  0  0  0  0  0  0  0  0  0  0
   -0.7875    0.2066   -2.4599 H   0  0  0  0  0  0  0  0  0  0  0  0
   -2.3225    1.0697   -2.5428 H   0  0  0  0  0  0  0  0  0  0  0  0
   -2.2159   -0.4508   -1.6488 H   0  0  0  0  0  0  0  0  0  0  0  0
   -0.4959    0.3236    0.0409 H   0  0  0  0  0  0  0  0  0  0  0  0
   -2.1328    1.3720    0.0555 H   0  0  0  0  0  0  0  0  0  0  0  0
   -0.9206    3.1899   -1.4561 H   0  0  0  0  0  0  0  0  0  0  0  0
   -0.1872    2.9050    0.1240 H   0  0  0  0  0  0  0  0  0  0  0  0
    0.5027    2.1578   -1.3251 H   0  0  0  0  0  0  0  0  0  0  0  0
  1  2  1  0
  1  6  1  0
  1  7  1  0
  1  8  1  0
  2  3  1  0
  2  5  1  0
  2 19  1  6
  3  4  2  3
  3  9  1  0
  4 10  1  0
  4 11  1  0
  5 12  1  0
 13 14  1  0
 13 16  1  0
 13 17  1  0
 13 18  1  0
 14 15  1  0
 14 20  1  0
 15 21  1  0
 15 22  1  0
 15 23  1  0
M  RAD  1  14   2
M  END
>  <reaction>  (4) 
rxn_940

>  <mol_properties>  (4) 
{"1": {"label": "*1", "atom_type": "Cs"}, "4": {"label": "*0", "atom_type": "S2s"}, "12": {"label": "*4", "atom_type": "Cs"}, "13": {"label": "*3", "atom_type": "Cs"}, "18": {"label": "*2", "atom_type": "H0"}}

>  <type>  (4) 
ts

$$$$

     RDKit          3D

 23 21  0  0  0  0  0  0  0  0999 V2000
    1.5542    0.6509    0.9972 C   0  0  0  0  0  0  0  0  0  0  0  0
    0.7020   -0.2839    0.1550 C   0  0  0  0  0  3  0  0  0  0  0  0
    1.4067   -1.4996   -0.3696 C   0  0  0  0  0  0  0  0  0  0  0  0
    2.6475   -1.8642   -0.0835 C   0  0  0  0  0  0  0  0  0  0  0  0
   -0.8336   -0.7895    1.0213 S   0  0  0  0  0  0  0  0  0  0  0  0
    1.9145    0.1495    1.8973 H   0  0  0  0  0  0  0  0  0  0  0  0
    2.4199    0.9977    0.4283 H   0  0  0  0  0  0  0  0  0  0  0  0
    0.9717    1.5174    1.3066 H   0  0  0  0  0  0  0  0  0  0  0  0
    0.8074   -2.1214   -1.0274 H   0  0  0  0  0  0  0  0  0  0  0  0
    3.0695   -2.7683   -0.5030 H   0  0  0  0  0  0  0  0  0  0  0  0
    3.2875   -1.2847    0.5704 H   0  0  0  0  0  0  0  0  0  0  0  0
   -0.2336   -1.5629    1.9370 H   0  0  0  0  0  0  0  0  0  0  0  0
   -1.3976    1.0278   -2.2422 C   0  0  0  0  0  0  0  0  0  0  0  0
   -1.3976    1.0278   -0.7189 C   0  0  0  0  0  0  0  0  0  0  0  0
   -1.3976    2.4336   -0.1322 C   0  0  0  0  0  0  0  0  0  0  0  0
   -0.5162    1.5421   -2.6329 H   0  0  0  0  0  0  0  0  0  0  0  0
   -2.2791    1.5421   -2.6329 H   0  0  0  0  0  0  0  0  0  0  0  0
   -1.3976    0.0129   -2.6434 H   0  0  0  0  0  0  0  0  0  0  0  0
   -0.3482    0.3722   -0.2821 H   0  0  0  0  0  0  0  0  0  0  0  0
   -2.2722    0.4814   -0.3549 H   0  0  0  0  0  0  0  0  0  0  0  0
   -2.2791    2.9922   -0.4563 H   0  0  0  0  0  0  0  0  0  0  0  0
   -1.3976    2.4129    0.9589 H   0  0  0  0  0  0  0  0  0  0  0  0
   -0.5162    2.9922   -0.4563 H   0  0  0  0  0  0  0  0  0  0  0  0
  1  2  1  0
  1  6  1  0
  1  7  1  0
  1  8  1  0
  2  3  1  0
  2  5  1  0
  3  4  2  3
  3  9  1  0
  4 10  1  0
  4 11  1  0
  5 12  1  0
 13 14  1  0
 13 16  1  0
 13 17  1  0
 13 18  1  0
 14 15  1  0
 14 19  1  0
 14 20  1  0
 15 21  1  0
 15 22  1  0
 15 23  1  0
M  RAD  1   2   2
M  END
>  <reaction>  (5) 
rxn_940

>  <mol_properties>  (5) 
{"1": {"label": "*1", "atom_type": "Cs"}, "4": {"label": "*0", "atom_type": "S2s"}, "12": {"label": "*4", "atom_type": "Cs"}, "13": {"label": "*3", "atom_type": "Cs"}, "18": {"label": "*2", "atom_type": "H0"}}

>  <type>  (5) 
unop_1

>  <geom_source>  (5) 
Heuristics

$$$$

     RDKit          3D

 23 21  0  0  0  0  0  0  0  0999 V2000
    1.6090   -0.3920   -0.9350 C   0  0  0  0  0  0  0  0  0  0  0  0
    0.4814   -0.5346    0.0737 C   0  0  0  0  0  3  0  0  0  0  0  0
    0.3351   -1.8956    0.6871 C   0  0  0  0  0  0  0  0  0  0  0  0
    1.1478   -2.9247    0.5008 C   0  0  0  0  0  0  0  0  0  0  0  0
    0.5741    0.7301    1.3988 S   0  0  0  0  0  0  0  0  0  0  0  0
    2.5788   -0.5731   -0.4678 H   0  0  0  0  0  0  0  0  0  0  0  0
    1.4844   -1.1051   -1.7531 H   0  0  0  0  0  0  0  0  0  0  0  0
    1.6197    0.6147   -1.3499 H   0  0  0  0  0  0  0  0  0  0  0  0
   -0.5168   -2.0033    1.3512 H   0  0  0  0  0  0  0  0  0  0  0  0
    0.9673   -3.8696    0.9969 H   0  0  0  0  0  0  0  0  0  0  0  0
    2.0147   -2.8712   -0.1463 H   0  0  0  0  0  0  0  0  0  0  0  0
    1.6666    0.2330    1.9952 H   0  0  0  0  0  0  0  0  0  0  0  0
   -1.6182    0.7771   -2.3236 C   0  0  0  0  0  0  0  0  0  0  0  0
   -1.6182    0.7771   -0.8002 C   0  0  0  0  0  0  0  0  0  0  0  0
   -1.6182    2.1829   -0.2135 C   0  0  0  0  0  0  0  0  0  0  0  0
   -0.7368    1.2914   -2.7142 H   0  0  0  0  0  0  0  0  0  0  0  0
   -2.4997    1.2914   -2.7142 H   0  0  0  0  0  0  0  0  0  0  0  0
   -1.6182   -0.2378   -2.7247 H   0  0  0  0  0  0  0  0  0  0  0  0
   -0.5688    0.1215   -0.3634 H   0  0  0  0  0  0  0  0  0  0  0  0
   -2.4928    0.2307   -0.4362 H   0  0  0  0  0  0  0  0  0  0  0  0
   -2.4997    2.7415   -0.5377 H   0  0  0  0  0  0  0  0  0  0  0  0
   -1.6182    2.1622    0.8776 H   0  0  0  0  0  0  0  0  0  0  0  0
   -0.7368    2.7415   -0.5377 H   0  0  0  0  0  0  0  0  0  0  0  0
  1  2  1  0
  1  6  1  0
  1  7  1  0
  1  8  1  0
  2  3  1  0
  2  5  1  0
  3  4  2  3
  3  9  1  0
  4 10  1  0
  4 11  1  0
  5 12  1  0
 13 14  1  0
 13 16  1  0
 13 17  1  0
 13 18  1  0
 14 15  1  0
 14 19  1  0
 14 20  1  0
 15 21  1  0
 15 22  1  0
 15 23  1  0
M  RAD  1   2   2
M  END
>  <reaction>  (6) 
rxn_940

>  <mol_properties>  (6) 
{"1": {"label": "*1", "atom_type": "Cs"}, "4": {"label": "*0", "atom_type": "S2s"}, "12": {"label": "*4", "atom_type": "Cs"}, "13": {"label": "*3", "atom_type": "Cs"}, "18": {"label": "*2", "atom_type": "H0"}}

>  <type>  (6) 
unop_2

>  <geom_source>  (6) 
Heuristics

$$$$

     RDKit          3D

 23 21  0  0  0  0  0  0  0  0999 V2000
    1.0367    0.3641    1.6670 C   0  0  0  0  0  0  0  0  0  0  0  0
    0.6116   -0.2175    0.3289 C   0  0  0  0  0  3  0  0  0  0  0  0
    1.7208   -0.7800   -0.5097 C   0  0  0  0  0  0  0  0  0  0  0  0
    2.9888   -0.8978   -0.1457 C   0  0  0  0  0  0  0  0  0  0  0  0
   -0.7179   -1.4681    0.5088 S   0  0  0  0  0  0  0  0  0  0  0  0
    1.4825   -0.4020    2.3041 H   0  0  0  0  0  0  0  0  0  0  0  0
    1.7708    1.1601    1.5234 H   0  0  0  0  0  0  0  0  0  0  0  0
    0.1754    0.7758    2.1908 H   0  0  0  0  0  0  0  0  0  0  0  0
    1.4143   -1.1270   -1.4915 H   0  0  0  0  0  0  0  0  0  0  0  0
    3.7199   -1.3285   -0.8176 H   0  0  0  0  0  0  0  0  0  0  0  0
    3.3481   -0.5732    0.8232 H   0  0  0  0  0  0  0  0  0  0  0  0
    0.0438   -2.4043    1.0918 H   0  0  0  0  0  0  0  0  0  0  0  0
   -1.4880    1.0942   -2.0683 C   0  0  0  0  0  0  0  0  0  0  0  0
   -1.4880    1.0942   -0.5450 C   0  0  0  0  0  0  0  0  0  0  0  0
   -1.4880    2.5000    0.0417 C   0  0  0  0  0  0  0  0  0  0  0  0
   -0.6066    1.6085   -2.4590 H   0  0  0  0  0  0  0  0  0  0  0  0
   -2.3695    1.6085   -2.4590 H   0  0  0  0  0  0  0  0  0  0  0  0
   -1.4880    0.0793   -2.4695 H   0  0  0  0  0  0  0  0  0  0  0  0
   -0.4386    0.4386   -0.1082 H   0  0  0  0  0  0  0  0  0  0  0  0
   -2.3625    0.5479   -0.1810 H   0  0  0  0  0  0  0  0  0  0  0  0
   -2.3695    3.0586   -0.2824 H   0  0  0  0  0  0  0  0  0  0  0  0
   -1.4880    2.4794    1.1328 H   0  0  0  0  0  0  0  0  0  0  0  0
   -0.6066    3.0586   -0.2824 H   0  0  0  0  0  0  0  0  0  0  0  0
  1  2  1  0
  1  6  1  0
  1  7  1  0
  1  8  1  0
  2  3  1  0
  2  5  1  0
  3  4  2  3
  3  9  1  0
  4 10  1  0
  4 11  1  0
  5 12  1  0
 13 14  1  0
 13 16  1  0
 13 17  1  0
 13 18  1  0
 14 15  1  0
 14 19  1  0
 14 20  1  0
 15 21  1  0
 15 22  1  0
 15 23  1  0
M  RAD  1   2   2
M  END
>  <reaction>  (7) 
rxn_940

>  <mol_properties>  (7) 
{"1": {"label": "*1", "atom_type": "Cs"}, "4": {"label": "*0", "atom_type": "S2s"}, "12": {"label": "*4", "atom_type": "Cs"}, "13": {"label": "*3", "atom_type": "Cs"}, "18": {"label": "*2", "atom_type": "H0"}}

>  <type>  (7) 
unop_3

>  <geom_source>  (7) 
Heuristics

$$$$

     RDKit          3D

 23 21  0  0  0  0  0  0  0  0999 V2000
    0.4144   -1.9663   -0.4352 C   0  0  0  0  0  0  0  0  0  0  0  0
    0.4751   -0.5371    0.0775 C   0  0  0  0  0  3  0  0  0  0  0  0
   -0.1926   -0.2989    1.3994 C   0  0  0  0  0  0  0  0  0  0  0  0
   -0.7275   -1.2260    2.1795 C   0  0  0  0  0  0  0  0  0  0  0  0
    2.1918    0.1065    0.1311 S   0  0  0  0  0  0  0  0  0  0  0  0
    0.9288   -2.6491    0.2436 H   0  0  0  0  0  0  0  0  0  0  0  0
   -0.6227   -2.2956   -0.5314 H   0  0  0  0  0  0  0  0  0  0  0  0
    0.8939   -2.0387   -1.4102 H   0  0  0  0  0  0  0  0  0  0  0  0
   -0.2042    0.7382    1.7200 H   0  0  0  0  0  0  0  0  0  0  0  0
   -1.1799   -0.9595    3.1260 H   0  0  0  0  0  0  0  0  0  0  0  0
   -0.7389   -2.2754    1.9116 H   0  0  0  0  0  0  0  0  0  0  0  0
    2.6031   -0.6664    1.1459 H   0  0  0  0  0  0  0  0  0  0  0  0
   -1.6245    0.7746   -2.3197 C   0  0  0  0  0  0  0  0  0  0  0  0
   -1.6245    0.7746   -0.7964 C   0  0  0  0  0  0  0  0  0  0  0  0
   -1.6245    2.1804   -0.2097 C   0  0  0  0  0  0  0  0  0  0  0  0
   -0.7430    1.2889   -2.7104 H   0  0  0  0  0  0  0  0  0  0  0  0
   -2.5059    1.2889   -2.7104 H   0  0  0  0  0  0  0  0  0  0  0  0
   -1.6245   -0.2403   -2.7209 H   0  0  0  0  0  0  0  0  0  0  0  0
   -0.5750    0.1190   -0.3596 H   0  0  0  0  0  0  0  0  0  0  0  0
   -2.4990    0.2283   -0.4324 H   0  0  0  0  0  0  0  0  0  0  0  0
   -2.5059    2.7390   -0.5338 H   0  0  0  0  0  0  0  0  0  0  0  0
   -1.6245    2.1597    0.8814 H   0  0  0  0  0  0  0  0  0  0  0  0
   -0.7430    2.7390   -0.5338 H   0  0  0  0  0  0  0  0  0  0  0  0
  1  2  1  0
  1  6  1  0
  1  7  1  0
  1  8  1  0
  2  3  1  0
  2  5  1  0
  3  4  2  3
  3  9  1  0
  4 10  1  0
  4 11  1  0
  5 12  1  0
 13 14  1  0
 13 16  1  0
 13 17  1  0
 13 18  1  0
 14 15  1  0
 14 19  1  0
 14 20  1  0
 15 21  1  0
 15 22  1  0
 15 23  1  0
M  RAD  1   2   2
M  END
>  <reaction>  (8) 
rxn_940

>  <mol_properties>  (8) 
{"1": {"label": "*1", "atom_type": "Cs"}, "4": {"label": "*0", "atom_type": "S2s"}, "12": {"label": "*4", "atom_type": "Cs"}, "13": {"label": "*3", "atom_type": "Cs"}, "18": {"label": "*2", "atom_type": "H0"}}

>  <type>  (8) 
unop_4

>  <geom_source>  (8) 
Heuristics

$$$$

     RDKit          3D

 23 21  0  0  0  0  0  0  0  0999 V2000
    0.3863   -0.3439    1.9750 C   0  0  0  0  0  0  0  0  0  0  0  0
    0.3962   -0.3501    0.4554 C   0  0  0  0  0  3  0  0  0  0  0  0
    1.6130    0.2519   -0.1825 C   0  0  0  0  0  0  0  0  0  0  0  0
    2.6916    0.6845    0.4529 C   0  0  0  0  0  0  0  0  0  0  0  0
    0.1074   -2.0259   -0.2318 S   0  0  0  0  0  0  0  0  0  0  0  0
    1.2109   -0.9366    2.3753 H   0  0  0  0  0  0  0  0  0  0  0  0
    0.4812    0.6758    2.3550 H   0  0  0  0  0  0  0  0  0  0  0  0
   -0.5441   -0.7690    2.3485 H   0  0  0  0  0  0  0  0  0  0  0  0
    1.5759    0.3059   -1.2661 H   0  0  0  0  0  0  0  0  0  0  0  0
    3.5294    1.0956   -0.0953 H   0  0  0  0  0  0  0  0  0  0  0  0
    2.7841    0.6496    1.5315 H   0  0  0  0  0  0  0  0  0  0  0  0
    1.2857   -2.5409    0.1462 H   0  0  0  0  0  0  0  0  0  0  0  0
   -1.7034    0.9616   -1.9419 C   0  0  0  0  0  0  0  0  0  0  0  0
   -1.7034    0.9616   -0.4185 C   0  0  0  0  0  0  0  0  0  0  0  0
   -1.7034    2.3674    0.1682 C   0  0  0  0  0  0  0  0  0  0  0  0
   -0.8220    1.4758   -2.3325 H   0  0  0  0  0  0  0  0  0  0  0  0
   -2.5849    1.4758   -2.3325 H   0  0  0  0  0  0  0  0  0  0  0  0
   -1.7034   -0.0533   -2.3430 H   0  0  0  0  0  0  0  0  0  0  0  0
   -0.6540    0.3059    0.0183 H   0  0  0  0  0  0  0  0  0  0  0  0
   -2.5779    0.4152   -0.0545 H   0  0  0  0  0  0  0  0  0  0  0  0
   -2.5849    2.9259   -0.1560 H   0  0  0  0  0  0  0  0  0  0  0  0
   -1.7034    2.3467    1.2593 H   0  0  0  0  0  0  0  0  0  0  0  0
   -0.8220    2.9259   -0.1560 H   0  0  0  0  0  0  0  0  0  0  0  0
  1  2  1  0
  1  6  1  0
  1  7  1  0
  1  8  1  0
  2  3  1  0
  2  5  1  0
  3  4  2  3
  3  9  1  0
  4 10  1  0
  4 11  1  0
  5 12  1  0
 13 14  1  0
 13 16  1  0
 13 17  1  0
 13 18  1  0
 14 15  1  0
 14 19  1  0
 14 20  1  0
 15 21  1  0
 15 22  1  0
 15 23  1  0
M  RAD  1   2   2
M  END
>  <reaction>  (9) 
rxn_940

>  <mol_properties>  (9) 
{"1": {"label": "*1", "atom_type": "Cs"}, "4": {"label": "*0", "atom_type": "S2s"}, "12": {"label": "*4", "atom_type": "Cs"}, "13": {"label": "*3", "atom_type": "Cs"}, "18": {"label": "*2", "atom_type": "H0"}}

>  <type>  (9) 
unop_5

>  <geom_source>  (9) 
Heuristics

$$$$

     RDKit          3D

 23 21  0  0  0  0  0  0  0  0999 V2000
    0.0698   -2.0933    0.2686 C   0  0  0  0  0  0  0  0  0  0  0  0
    0.4354   -0.6275    0.1039 C   0  0  0  0  0  3  0  0  0  0  0  0
    0.0499    0.2641    1.2469 C   0  0  0  0  0  0  0  0  0  0  0  0
   -0.4776   -0.1284    2.3967 C   0  0  0  0  0  0  0  0  0  0  0  0
    2.2133   -0.3969   -0.2829 S   0  0  0  0  0  0  0  0  0  0  0  0
    0.5833   -2.5319    1.1262 H   0  0  0  0  0  0  0  0  0  0  0  0
   -1.0062   -2.2056    0.4194 H   0  0  0  0  0  0  0  0  0  0  0  0
    0.3573   -2.6563   -0.6180 H   0  0  0  0  0  0  0  0  0  0  0  0
    0.2520    1.3185    1.0863 H   0  0  0  0  0  0  0  0  0  0  0  0
   -0.7140    0.5898    3.1712 H   0  0  0  0  0  0  0  0  0  0  0  0
   -0.6949   -1.1674    2.6119 H   0  0  0  0  0  0  0  0  0  0  0  0
    2.6707   -0.7569    0.9244 H   0  0  0  0  0  0  0  0  0  0  0  0
   -1.6642    0.6842   -2.2933 C   0  0  0  0  0  0  0  0  0  0  0  0
   -1.6642    0.6842   -0.7700 C   0  0  0  0  0  0  0  0  0  0  0  0
   -1.6642    2.0900   -0.1833 C   0  0  0  0  0  0  0  0  0  0  0  0
   -0.7828    1.1985   -2.6840 H   0  0  0  0  0  0  0  0  0  0  0  0
   -2.5457    1.1985   -2.6840 H   0  0  0  0  0  0  0  0  0  0  0  0
   -1.6642   -0.3307   -2.6945 H   0  0  0  0  0  0  0  0  0  0  0  0
   -0.6148    0.0286   -0.3332 H   0  0  0  0  0  0  0  0  0  0  0  0
   -2.5388    0.1379   -0.4060 H   0  0  0  0  0  0  0  0  0  0  0  0
   -2.5457    2.6486   -0.5074 H   0  0  0  0  0  0  0  0  0  0  0  0
   -1.6642    2.0694    0.9078 H   0  0  0  0  0  0  0  0  0  0  0  0
   -0.7828    2.6486   -0.5074 H   0  0  0  0  0  0  0  0  0  0  0  0
  1  2  1  0
  1  6  1  0
  1  7  1  0
  1  8  1  0
  2  3  1  0
  2  5  1  0
  3  4  2  3
  3  9  1  0
  4 10  1  0
  4 11  1  0
  5 12  1  0
 13 14  1  0
 13 16  1  0
 13 17  1  0
 13 18  1  0
 14 15  1  0
 14 19  1  0
 14 20  1  0
 15 21  1  0
 15 22  1  0
 15 23  1  0
M  RAD  1   2   2
M  END
>  <reaction>  (10) 
rxn_940

>  <mol_properties>  (10) 
{"1": {"label": "*1", "atom_type": "Cs"}, "4": {"label": "*0", "atom_type": "S2s"}, "12": {"label": "*4", "atom_type": "Cs"}, "13": {"label": "*3", "atom_type": "Cs"}, "18": {"label": "*2", "atom_type": "H0"}}

>  <type>  (10) 
unop_6

>  <geom_source>  (10) 
Heuristics

$$$$

     RDKit          3D

 23 21  0  0  0  0  0  0  0  0999 V2000
   -0.1060   -1.8531    1.0505 C   0  0  0  0  0  0  0  0  0  0  0  0
    0.3604   -0.6773    0.2083 C   0  0  0  0  0  3  0  0  0  0  0  0
    0.4225    0.6406    0.9219 C   0  0  0  0  0  0  0  0  0  0  0  0
    0.2062    0.8373    2.2137 C   0  0  0  0  0  0  0  0  0  0  0  0
    1.9668   -1.0080   -0.6127 S   0  0  0  0  0  0  0  0  0  0  0  0
    0.5789   -2.0378    1.8802 H   0  0  0  0  0  0  0  0  0  0  0  0
   -1.0990   -1.6599    1.4624 H   0  0  0  0  0  0  0  0  0  0  0  0
   -0.1506   -2.7572    0.4452 H   0  0  0  0  0  0  0  0  0  0  0  0
    0.6881    1.4840    0.2921 H   0  0  0  0  0  0  0  0  0  0  0  0
    0.2848    1.8274    2.6438 H   0  0  0  0  0  0  0  0  0  0  0  0
   -0.0564    0.0317    2.8884 H   0  0  0  0  0  0  0  0  0  0  0  0
    2.7075   -0.9778    0.5040 H   0  0  0  0  0  0  0  0  0  0  0  0
   -1.7392    0.6344   -2.1889 C   0  0  0  0  0  0  0  0  0  0  0  0
   -1.7392    0.6344   -0.6656 C   0  0  0  0  0  0  0  0  0  0  0  0
   -1.7392    2.0402   -0.0789 C   0  0  0  0  0  0  0  0  0  0  0  0
   -0.8577    1.1487   -2.5796 H   0  0  0  0  0  0  0  0  0  0  0  0
   -2.6206    1.1487   -2.5796 H   0  0  0  0  0  0  0  0  0  0  0  0
   -1.7392   -0.3805   -2.5901 H   0  0  0  0  0  0  0  0  0  0  0  0
   -0.6897   -0.0212   -0.2288 H   0  0  0  0  0  0  0  0  0  0  0  0
   -2.6137    0.0880   -0.3016 H   0  0  0  0  0  0  0  0  0  0  0  0
   -2.6206    2.5988   -0.4030 H   0  0  0  0  0  0  0  0  0  0  0  0
   -1.7392    2.0195    1.0122 H   0  0  0  0  0  0  0  0  0  0  0  0
   -0.8577    2.5988   -0.4030 H   0  0  0  0  0  0  0  0  0  0  0  0
  1  2  1  0
  1  6  1  0
  1  7  1  0
  1  8  1  0
  2  3  1  0
  2  5  1  0
  3  4  2  3
  3  9  1  0
  4 10  1  0
  4 11  1  0
  5 12  1  0
 13 14  1  0
 13 16  1  0
 13 17  1  0
 13 18  1  0
 14 15  1  0
 14 19  1  0
 14 20  1  0
 15 21  1  0
 15 22  1  0
 15 23  1  0
M  RAD  1   2   2
M  END
>  <reaction>  (11) 
rxn_940

>  <mol_properties>  (11) 
{"1": {"label": "*1", "atom_type": "Cs"}, "4": {"label": "*0", "atom_type": "S2s"}, "12": {"label": "*4", "atom_type": "Cs"}, "13": {"label": "*3", "atom_type": "Cs"}, "18": {"label": "*2", "atom_type": "H0"}}

>  <type>  (11) 
unop_7

>  <geom_source>  (11) 
Heuristics

$$$$

     RDKit          3D

 23 21  0  0  0  0  0  0  0  0999 V2000
    1.8252    0.5629    0.2152 C   0  0  0  0  0  0  0  0  0  0  0  0
    0.6682   -0.4084    0.0505 C   0  0  0  0  0  3  0  0  0  0  0  0
    1.0517   -1.8552   -0.0472 C   0  0  0  0  0  0  0  0  0  0  0  0
    2.2729   -2.3481    0.0949 C   0  0  0  0  0  0  0  0  0  0  0  0
   -0.6043   -0.1965    1.3543 S   0  0  0  0  0  0  0  0  0  0  0  0
    2.3676    0.3736    1.1434 H   0  0  0  0  0  0  0  0  0  0  0  0
    2.5267    0.4685   -0.6168 H   0  0  0  0  0  0  0  0  0  0  0  0
    1.4572    1.5873    0.2451 H   0  0  0  0  0  0  0  0  0  0  0  0
    0.2235   -2.5311   -0.2358 H   0  0  0  0  0  0  0  0  0  0  0  0
    2.4526   -3.4127    0.0182 H   0  0  0  0  0  0  0  0  0  0  0  0
    3.1340   -1.7206    0.2893 H   0  0  0  0  0  0  0  0  0  0  0  0
    0.1397   -0.6773    2.3603 H   0  0  0  0  0  0  0  0  0  0  0  0
   -1.4314    0.9033   -2.3467 C   0  0  0  0  0  0  0  0  0  0  0  0
   -1.4314    0.9033   -0.8234 C   0  0  0  0  0  0  0  0  0  0  0  0
   -1.4314    2.3091   -0.2367 C   0  0  0  0  0  0  0  0  0  0  0  0
   -0.5499    1.4175   -2.7374 H   0  0  0  0  0  0  0  0  0  0  0  0
   -2.3128    1.4175   -2.7374 H   0  0  0  0  0  0  0  0  0  0  0  0
   -1.4314   -0.1116   -2.7479 H   0  0  0  0  0  0  0  0  0  0  0  0
   -0.3819    0.2476   -0.3866 H   0  0  0  0  0  0  0  0  0  0  0  0
   -2.3059    0.3569   -0.4594 H   0  0  0  0  0  0  0  0  0  0  0  0
   -2.3128    2.8676   -0.5608 H   0  0  0  0  0  0  0  0  0  0  0  0
   -1.4314    2.2884    0.8544 H   0  0  0  0  0  0  0  0  0  0  0  0
   -0.5499    2.8676   -0.5608 H   0  0  0  0  0  0  0  0  0  0  0  0
  1  2  1  0
  1  6  1  0
  1  7  1  0
  1  8  1  0
  2  3  1  0
  2  5  1  0
  3  4  2  3
  3  9  1  0
  4 10  1  0
  4 11  1  0
  5 12  1  0
 13 14  1  0
 13 16  1  0
 13 17  1  0
 13 18  1  0
 14 15  1  0
 14 19  1  0
 14 20  1  0
 15 21  1  0
 15 22  1  0
 15 23  1  0
M  RAD  1   2   2
M  END
>  <reaction>  (12) 
rxn_940

>  <mol_properties>  (12) 
{"1": {"label": "*1", "atom_type": "Cs"}, "4": {"label": "*0", "atom_type": "S2s"}, "12": {"label": "*4", "atom_type": "Cs"}, "13": {"label": "*3", "atom_type": "Cs"}, "18": {"label": "*2", "atom_type": "H0"}}

>  <type>  (12) 
unop_8

>  <geom_source>  (12) 
Heuristics

$$$$

     RDKit          3D

 23 21  0  0  0  0  0  0  0  0999 V2000
    0.8326   -1.5584   -0.9085 C   0  0  0  0  0  0  0  0  0  0  0  0
    0.4663   -0.4824    0.1002 C   0  0  0  0  0  3  0  0  0  0  0  0
   -0.2415   -0.9679    1.3304 C   0  0  0  0  0  0  0  0  0  0  0  0
   -0.4765   -2.2328    1.6450 C   0  0  0  0  0  0  0  0  0  0  0  0
    1.9142    0.5337    0.5849 S   0  0  0  0  0  0  0  0  0  0  0  0
    1.5269   -2.2814   -0.4763 H   0  0  0  0  0  0  0  0  0  0  0  0
   -0.0599   -2.0951   -1.2380 H   0  0  0  0  0  0  0  0  0  0  0  0
    1.3116   -1.1128   -1.7790 H   0  0  0  0  0  0  0  0  0  0  0  0
   -0.5606   -0.1825    2.0084 H   0  0  0  0  0  0  0  0  0  0  0  0
   -0.9873   -2.4890    2.5642 H   0  0  0  0  0  0  0  0  0  0  0  0
   -0.1758   -3.0558    1.0083 H   0  0  0  0  0  0  0  0  0  0  0  0
    2.5370   -0.4272    1.2815 H   0  0  0  0  0  0  0  0  0  0  0  0
   -1.6333    0.8293   -2.2970 C   0  0  0  0  0  0  0  0  0  0  0  0
   -1.6333    0.8293   -0.7737 C   0  0  0  0  0  0  0  0  0  0  0  0
   -1.6333    2.2351   -0.1870 C   0  0  0  0  0  0  0  0  0  0  0  0
   -0.7519    1.3436   -2.6877 H   0  0  0  0  0  0  0  0  0  0  0  0
   -2.5148    1.3436   -2.6877 H   0  0  0  0  0  0  0  0  0  0  0  0
   -1.6333   -0.1856   -2.6982 H   0  0  0  0  0  0  0  0  0  0  0  0
   -0.5839    0.1737   -0.3369 H   0  0  0  0  0  0  0  0  0  0  0  0
   -2.5079    0.2830   -0.4097 H   0  0  0  0  0  0  0  0  0  0  0  0
   -2.5148    2.7937   -0.5111 H   0  0  0  0  0  0  0  0  0  0  0  0
   -1.6333    2.2144    0.9041 H   0  0  0  0  0  0  0  0  0  0  0  0
   -0.7519    2.7937   -0.5111 H   0  0  0  0  0  0  0  0  0  0  0  0
  1  2  1  0
  1  6  1  0
  1  7  1  0
  1  8  1  0
  2  3  1  0
  2  5  1  0
  3  4  2  3
  3  9  1  0
  4 10  1  0
  4 11  1  0
  5 12  1  0
 13 14  1  0
 13 16  1  0
 13 17  1  0
 13 18  1  0
 14 15  1  0
 14 19  1  0
 14 20  1  0
 15 21  1  0
 15 22  1  0
 15 23  1  0
M  RAD  1   2   2
M  END
>  <reaction>  (13) 
rxn_940

>  <mol_properties>  (13) 
{"1": {"label": "*1", "atom_type": "Cs"}, "4": {"label": "*0", "atom_type": "S2s"}, "12": {"label": "*4", "atom_type": "Cs"}, "13": {"label": "*3", "atom_type": "Cs"}, "18": {"label": "*2", "atom_type": "H0"}}

>  <type>  (13) 
unop_9

>  <geom_source>  (13) 
Heuristics

$$$$

     RDKit          3D

 23 21  0  0  0  0  0  0  0  0999 V2000
    1.8315    0.1735   -0.4799 C   0  0  0  0  0  0  0  0  0  0  0  0
    0.5737   -0.5079    0.0328 C   0  0  0  0  0  3  0  0  0  0  0  0
    0.7067   -1.9748    0.3165 C   0  0  0  0  0  0  0  0  0  0  0  0
    1.8251   -2.6815    0.2534 C   0  0  0  0  0  0  0  0  0  0  0  0
   -0.1239    0.3414    1.5012 S   0  0  0  0  0  0  0  0  0  0  0  0
    2.6343    0.1223    0.2580 H   0  0  0  0  0  0  0  0  0  0  0  0
    2.1795   -0.3046   -1.3984 H   0  0  0  0  0  0  0  0  0  0  0  0
    1.6341    1.2239   -0.6880 H   0  0  0  0  0  0  0  0  0  0  0  0
   -0.2159   -2.4636    0.6136 H   0  0  0  0  0  0  0  0  0  0  0  0
    1.8262   -3.7382    0.4877 H   0  0  0  0  0  0  0  0  0  0  0  0
    2.7739   -2.2440   -0.0319 H   0  0  0  0  0  0  0  0  0  0  0  0
    0.8550   -0.0079    2.3474 H   0  0  0  0  0  0  0  0  0  0  0  0
   -1.5259    0.8038   -2.3644 C   0  0  0  0  0  0  0  0  0  0  0  0
   -1.5259    0.8038   -0.8411 C   0  0  0  0  0  0  0  0  0  0  0  0
   -1.5259    2.2096   -0.2544 C   0  0  0  0  0  0  0  0  0  0  0  0
   -0.6445    1.3180   -2.7551 H   0  0  0  0  0  0  0  0  0  0  0  0
   -2.4074    1.3180   -2.7551 H   0  0  0  0  0  0  0  0  0  0  0  0
   -1.5259   -0.2111   -2.7656 H   0  0  0  0  0  0  0  0  0  0  0  0
   -0.4765    0.1482   -0.4043 H   0  0  0  0  0  0  0  0  0  0  0  0
   -2.4004    0.2574   -0.4771 H   0  0  0  0  0  0  0  0  0  0  0  0
   -2.4074    2.7682   -0.5785 H   0  0  0  0  0  0  0  0  0  0  0  0
   -1.5259    2.1889    0.8367 H   0  0  0  0  0  0  0  0  0  0  0  0
   -0.6445    2.7682   -0.5785 H   0  0  0  0  0  0  0  0  0  0  0  0
  1  2  1  0
  1  6  1  0
  1  7  1  0
  1  8  1  0
  2  3  1  0
  2  5  1  0
  3  4  2  3
  3  9  1  0
  4 10  1  0
  4 11  1  0
  5 12  1  0
 13 14  1  0
 13 16  1  0
 13 17  1  0
 13 18  1  0
 14 15  1  0
 14 19  1  0
 14 20  1  0
 15 21  1  0
 15 22  1  0
 15 23  1  0
M  RAD  1   2   2
M  END
>  <reaction>  (14) 
rxn_940

>  <mol_properties>  (14) 
{"1": {"label": "*1", "atom_type": "Cs"}, "4": {"label": "*0", "atom_type": "S2s"}, "12": {"label": "*4", "atom_type": "Cs"}, "13": {"label": "*3", "atom_type": "Cs"}, "18": {"label": "*2", "atom_type": "H0"}}

>  <type>  (14) 
unop_10

>  <geom_source>  (14) 
Heuristics

$$$$

     RDKit          3D

 23 21  0  0  0  0  0  0  0  0999 V2000
   -0.0318   -1.2331    1.7064 C   0  0  0  0  0  0  0  0  0  0  0  0
    0.3044   -0.5960    0.3682 C   0  0  0  0  0  3  0  0  0  0  0  0
    0.9629    0.7496    0.4437 C   0  0  0  0  0  0  0  0  0  0  0  0
    1.3539    1.3639    1.5500 C   0  0  0  0  0  0  0  0  0  0  0  0
    1.2997   -1.7086   -0.6973 S   0  0  0  0  0  0  0  0  0  0  0  0
    0.8712   -1.4170    2.2914 H   0  0  0  0  0  0  0  0  0  0  0  0
   -0.6894   -0.5819    2.2868 H   0  0  0  0  0  0  0  0  0  0  0  0
   -0.5333   -2.1877    1.5549 H   0  0  0  0  0  0  0  0  0  0  0  0
    1.1327    1.2247   -0.5175 H   0  0  0  0  0  0  0  0  0  0  0  0
    1.8328    2.3335    1.5052 H   0  0  0  0  0  0  0  0  0  0  0  0
    1.2142    0.9338    2.5342 H   0  0  0  0  0  0  0  0  0  0  0  0
    2.4210   -1.6423    0.0340 H   0  0  0  0  0  0  0  0  0  0  0  0
   -1.7952    0.7157   -2.0290 C   0  0  0  0  0  0  0  0  0  0  0  0
   -1.7952    0.7157   -0.5056 C   0  0  0  0  0  0  0  0  0  0  0  0
   -1.7952    2.1215    0.0811 C   0  0  0  0  0  0  0  0  0  0  0  0
   -0.9138    1.2299   -2.4196 H   0  0  0  0  0  0  0  0  0  0  0  0
   -2.6767    1.2299   -2.4196 H   0  0  0  0  0  0  0  0  0  0  0  0
   -1.7952   -0.2992   -2.4301 H   0  0  0  0  0  0  0  0  0  0  0  0
   -0.7458    0.0600   -0.0688 H   0  0  0  0  0  0  0  0  0  0  0  0
   -2.6697    0.1693   -0.1416 H   0  0  0  0  0  0  0  0  0  0  0  0
   -2.6767    2.6801   -0.2431 H   0  0  0  0  0  0  0  0  0  0  0  0
   -1.7952    2.1008    1.1722 H   0  0  0  0  0  0  0  0  0  0  0  0
   -0.9138    2.6800   -0.2431 H   0  0  0  0  0  0  0  0  0  0  0  0
  1  2  1  0
  1  6  1  0
  1  7  1  0
  1  8  1  0
  2  3  1  0
  2  5  1  0
  3  4  2  3
  3  9  1  0
  4 10  1  0
  4 11  1  0
  5 12  1  0
 13 14  1  0
 13 16  1  0
 13 17  1  0
 13 18  1  0
 14 15  1  0
 14 19  1  0
 14 20  1  0
 15 21  1  0
 15 22  1  0
 15 23  1  0
M  RAD  1   2   2
M  END
>  <reaction>  (15) 
rxn_940

>  <mol_properties>  (15) 
{"1": {"label": "*1", "atom_type": "Cs"}, "4": {"label": "*0", "atom_type": "S2s"}, "12": {"label": "*4", "atom_type": "Cs"}, "13": {"label": "*3", "atom_type": "Cs"}, "18": {"label": "*2", "atom_type": "H0"}}

>  <type>  (15) 
unop_11

>  <geom_source>  (15) 
Heuristics

$$$$

     RDKit          3D

 23 21  0  0  0  0  0  0  0  0999 V2000
    1.2481   -0.9996   -1.0798 C   0  0  0  0  0  0  0  0  0  0  0  0
    0.4468   -0.4990    0.1103 C   0  0  0  0  0  3  0  0  0  0  0  0
   -0.0343   -1.5607    1.0545 C   0  0  0  0  0  0  0  0  0  0  0  0
    0.2594   -2.8506    0.9903 C   0  0  0  0  0  0  0  0  0  0  0  0
    1.3395    0.7995    1.0488 S   0  0  0  0  0  0  0  0  0  0  0  0
    2.1651   -1.4950   -0.7553 H   0  0  0  0  0  0  0  0  0  0  0  0
    0.6621   -1.7125   -1.6643 H   0  0  0  0  0  0  0  0  0  0  0  0
    1.5269   -0.1676   -1.7245 H   0  0  0  0  0  0  0  0  0  0  0  0
   -0.6647   -1.1977    1.8602 H   0  0  0  0  0  0  0  0  0  0  0  0
   -0.1271   -3.5437    1.7263 H   0  0  0  0  0  0  0  0  0  0  0  0
    0.8874   -3.2657    0.2116 H   0  0  0  0  0  0  0  0  0  0  0  0
    2.2812   -0.0099    1.5533 H   0  0  0  0  0  0  0  0  0  0  0  0
   -1.6528    0.8127   -2.2869 C   0  0  0  0  0  0  0  0  0  0  0  0
   -1.6528    0.8127   -0.7636 C   0  0  0  0  0  0  0  0  0  0  0  0
   -1.6528    2.2185   -0.1768 C   0  0  0  0  0  0  0  0  0  0  0  0
   -0.7714    1.3270   -2.6775 H   0  0  0  0  0  0  0  0  0  0  0  0
   -2.5343    1.3269   -2.6775 H   0  0  0  0  0  0  0  0  0  0  0  0
   -1.6528   -0.2022   -2.6880 H   0  0  0  0  0  0  0  0  0  0  0  0
   -0.6034    0.1571   -0.3268 H   0  0  0  0  0  0  0  0  0  0  0  0
   -2.5273    0.2663   -0.3996 H   0  0  0  0  0  0  0  0  0  0  0  0
   -2.5343    2.7771   -0.5010 H   0  0  0  0  0  0  0  0  0  0  0  0
   -1.6528    2.1978    0.9143 H   0  0  0  0  0  0  0  0  0  0  0  0
   -0.7714    2.7771   -0.5010 H   0  0  0  0  0  0  0  0  0  0  0  0
  1  2  1  0
  1  6  1  0
  1  7  1  0
  1  8  1  0
  2  3  1  0
  2  5  1  0
  3  4  2  3
  3  9  1  0
  4 10  1  0
  4 11  1  0
  5 12  1  0
 13 14  1  0
 13 16  1  0
 13 17  1  0
 13 18  1  0
 14 15  1  0
 14 19  1  0
 14 20  1  0
 15 21  1  0
 15 22  1  0
 15 23  1  0
M  RAD  1   2   2
M  END
>  <reaction>  (16) 
rxn_940

>  <mol_properties>  (16) 
{"1": {"label": "*1", "atom_type": "Cs"}, "4": {"label": "*0", "atom_type": "S2s"}, "12": {"label": "*4", "atom_type": "Cs"}, "13": {"label": "*3", "atom_type": "Cs"}, "18": {"label": "*2", "atom_type": "H0"}}

>  <type>  (16) 
unop_12

>  <geom_source>  (16) 
Heuristics

$$$$

     RDKit          3D

 23 21  0  0  0  0  0  0  0  0999 V2000
    0.1162   -1.0847   -1.9401 S   0  0  0  0  0  0  0  0  0  0  0  0
    0.8046   -0.6212   -0.3144 C   0  0  0  0  0  3  0  0  0  0  0  0
    1.0336   -1.8737    0.5315 C   0  0  0  0  0  0  0  0  0  0  0  0
   -2.3247   -0.1388    0.8138 C   0  0  0  0  0  0  0  0  0  0  0  0
   -1.6814    1.6790   -0.8106 C   0  0  0  0  0  0  0  0  0  0  0  0
   -1.2328    0.8269    0.3702 C   0  0  0  0  0  0  0  0  0  0  0  0
    2.0821    0.1576   -0.4927 C   0  0  0  0  0  0  0  0  0  0  0  0
    2.6243    0.8437    0.5172 C   0  0  0  0  0  0  0  0  0  0  0  0
   -0.1068    0.1646    0.3075 H   0  0  0  0  0  0  0  0  0  0  0  0
    1.3751   -1.5922    1.5498 H   0  0  0  0  0  0  0  0  0  0  0  0
    0.0832   -2.4393    0.6304 H   0  0  0  0  0  0  0  0  0  0  0  0
    1.7978   -2.5300    0.0626 H   0  0  0  0  0  0  0  0  0  0  0  0
   -3.2260    0.4212    1.1428 H   0  0  0  0  0  0  0  0  0  0  0  0
   -2.5955   -0.8193   -0.0208 H   0  0  0  0  0  0  0  0  0  0  0  0
   -1.9518   -0.7494    1.6621 H   0  0  0  0  0  0  0  0  0  0  0  0
   -0.8534    2.3541   -1.1112 H   0  0  0  0  0  0  0  0  0  0  0  0
   -1.9409    1.0302   -1.6736 H   0  0  0  0  0  0  0  0  0  0  0  0
   -2.5631    2.2940   -0.5308 H   0  0  0  0  0  0  0  0  0  0  0  0
   -0.9403    1.4818    1.2190 H   0  0  0  0  0  0  0  0  0  0  0  0
    2.5640    0.1940   -1.4657 H   0  0  0  0  0  0  0  0  0  0  0  0
    2.1634    0.8505    1.5003 H   0  0  0  0  0  0  0  0  0  0  0  0
    3.5374    1.4090    0.3612 H   0  0  0  0  0  0  0  0  0  0  0  0
    1.2348   -1.8579   -2.3085 H   0  0  0  0  0  0  0  0  0  0  0  0
  1  2  1  0
  1 23  1  0
  2  3  1  0
  2  7  1  0
  3 10  1  0
  3 11  1  0
  3 12  1  0
  4  6  1  0
  4 13  1  0
  4 14  1  0
  4 15  1  0
  5  6  1  0
  5 16  1  0
  5 17  1  0
  5 18  1  0
  6  9  1  0
  6 19  1  0
  7  8  2  3
  7 20  1  0
  8 21  1  0
  8 22  1  0
M  RAD  1   2   2
M  END
>  <reaction>  (17) 
rxn_940

>  <mol_properties>  (17) 
{"1": {"label": "*1", "atom_type": "Cs"}, "4": {"label": "*0", "atom_type": "S2s"}, "12": {"label": "*4", "atom_type": "Cs"}, "13": {"label": "*3", "atom_type": "Cs"}, "18": {"label": "*2", "atom_type": "H0"}}

>  <type>  (17) 
unop_13

>  <geom_source>  (17) 
AutoTST

$$$$

     RDKit          3D

 23 21  0  0  0  0  0  0  0  0999 V2000
    1.6090   -0.3920   -0.9350 C   0  0  0  0  0  0  0  0  0  0  0  0
    0.4814   -0.5346    0.0737 C   0  0  0  0  0  3  0  0  0  0  0  0
    0.3351   -1.8956    0.6871 C   0  0  0  0  0  0  0  0  0  0  0  0
    1.1478   -2.9247    0.5008 C   0  0  0  0  0  0  0  0  0  0  0  0
    0.5741    0.7301    1.3988 S   0  0  0  0  0  0  0  0  0  0  0  0
    2.5788   -0.5731   -0.4678 H   0  0  0  0  0  0  0  0  0  0  0  0
    1.4844   -1.1051   -1.7531 H   0  0  0  0  0  0  0  0  0  0  0  0
    1.6198    0.6147   -1.3499 H   0  0  0  0  0  0  0  0  0  0  0  0
   -0.5168   -2.0033    1.3512 H   0  0  0  0  0  0  0  0  0  0  0  0
    0.9673   -3.8696    0.9969 H   0  0  0  0  0  0  0  0  0  0  0  0
    2.0147   -2.8712   -0.1463 H   0  0  0  0  0  0  0  0  0  0  0  0
    1.6666    0.2330    1.9952 H   0  0  0  0  0  0  0  0  0  0  0  0
   -1.6182    0.7771   -2.3236 C   0  0  0  0  0  0  0  0  0  0  0  0
   -1.6182    0.7771   -0.8002 C   0  0  0  0  0  0  0  0  0  0  0  0
   -1.6182    2.1829   -0.2135 C   0  0  0  0  0  0  0  0  0  0  0  0
   -0.7368    1.2914   -2.7142 H   0  0  0  0  0  0  0  0  0  0  0  0
   -2.4997    1.2914   -2.7142 H   0  0  0  0  0  0  0  0  0  0  0  0
   -1.6182   -0.2378   -2.7247 H   0  0  0  0  0  0  0  0  0  0  0  0
   -0.5688    0.1215   -0.3634 H   0  0  0  0  0  0  0  0  0  0  0  0
   -2.4928    0.2308   -0.4362 H   0  0  0  0  0  0  0  0  0  0  0  0
   -2.4997    2.7415   -0.5377 H   0  0  0  0  0  0  0  0  0  0  0  0
   -1.6182    2.1622    0.8776 H   0  0  0  0  0  0  0  0  0  0  0  0
   -0.7368    2.7415   -0.5377 H   0  0  0  0  0  0  0  0  0  0  0  0
  1  2  1  0
  1  6  1  0
  1  7  1  0
  1  8  1  0
  2  3  1  0
  2  5  1  0
  3  4  2  3
  3  9  1  0
  4 10  1  0
  4 11  1  0
  5 12  1  0
 13 14  1  0
 13 16  1  0
 13 17  1  0
 13 18  1  0
 14 15  1  0
 14 19  1  0
 14 20  1  0
 15 21  1  0
 15 22  1  0
 15 23  1  0
M  RAD  1   2   2
M  END
>  <reaction>  (18) 
rxn_940

>  <mol_properties>  (18) 
{"1": {"label": "*1", "atom_type": "Cs"}, "4": {"label": "*0", "atom_type": "S2s"}, "12": {"label": "*4", "atom_type": "Cs"}, "13": {"label": "*3", "atom_type": "Cs"}, "18": {"label": "*2", "atom_type": "H0"}}

>  <type>  (18) 
unop_14

>  <geom_source>  (18) 
gaussian_log

$$$$
