
     RDKit          3D

  9  8  0  0  0  0  0  0  0  0999 V2000
   -0.9895    0.3048    0.1041 C   0  0  0  0  0  0  0  0  0  0  0  0
    0.3761   -0.3562    0.0721 C   0  0  0  0  0  0  0  0  0  0  0  0
    0.3441   -1.6564   -0.4834 O   0  0  0  0  0  0  0  0  0  0  0  0
   -1.6997   -0.3114    0.6572 H   0  0  0  0  0  0  0  0  0  0  0  0
   -0.9320    1.2848    0.5822 H   0  0  0  0  0  0  0  0  0  0  0  0
   -1.3774    0.4507   -0.9077 H   0  0  0  0  0  0  0  0  0  0  0  0
    0.7581   -0.4813    1.0862 H   0  0  0  0  0  0  0  0  0  0  0  0
    1.0900    0.2787   -0.4681 H   0  0  0  0  0  0  0  0  0  0  0  0
    0.0089   -1.5959   -1.3792 H   0  0  0  0  0  0  0  0  0  0  0  0
  1  2  1  0
  1  4  1  0
  1  5  1  0
  1  6  1  0
  2  3  1  0
  2  7  1  0
  2  8  1  0
  3  9  1  0
M  END
>  <reaction>  (1) 
rxn_232

>  <mol_properties>  (1) 
{"0": {"label": "donator", "atom_type": "Cs"}, "3": {"label": "d_hydrogen", "atom_type": "H0"}}

>  <type>  (1) 
r1h

$$$$

     RDKit          3D

  4  3  0  0  0  0  0  0  0  0999 V2000
    0.0000    0.0000    0.0000 C   0  0  0  0  0  3  0  0  0  0  0  0
    1.0638   -0.1747    0.0540 H   0  0  0  0  0  0  0  0  0  0  0  0
   -0.6833   -0.8351   -0.0280 H   0  0  0  0  0  0  0  0  0  0  0  0
   -0.3805    1.0098   -0.0260 H   0  0  0  0  0  0  0  0  0  0  0  0
  1  2  1  0
  1  3  1  0
  1  4  1  0
M  RAD  1   1   2
M  END
>  <reaction>  (2) 
rxn_232

>  <mol_properties>  (2) 
{"0": {"label": "acceptor", "atom_type": "Cs"}}

>  <type>  (2) 
r2

$$$$

     RDKit          3D

  5  4  0  0  0  0  0  0  0  0999 V2000
    0.0000    0.0000    0.0000 C   0  0  0  0  0  0  0  0  0  0  0  0
   -0.6486   -0.7720   -0.4113 H   0  0  0  0  0  0  0  0  0  0  0  0
   -0.3482    0.9787   -0.3267 H   0  0  0  0  0  0  0  0  0  0  0  0
   -0.0223   -0.0487    1.0876 H   0  0  0  0  0  0  0  0  0  0  0  0
    1.0191   -0.1580   -0.3496 H   0  0  0  0  0  0  0  0  0  0  0  0
  1  2  1  0
  1  3  1  0
  1  4  1  0
  1  5  1  0
M  END
>  <reaction>  (3) 
rxn_232

>  <mol_properties>  (3) 
{"0": {"label": "a_hydrogen", "atom_type": "H0"}, "1": {"label": "acceptor", "atom_type": "Cs"}}

>  <type>  (3) 
r2h

$$$$

     RDKit          3D

 13 11  0  0  0  0  0  0  0  0999 V2000
    0.6104    0.3385    0.9417 C   0  0  0  0  0  0  0  0  0  0  0  0
    0.4046   -1.0048    0.2982 C   0  0  0  0  0  0  0  0  0  0  0  0
    0.4021   -0.9515   -1.1150 O   0  0  0  0  0  0  0  0  0  0  0  0
   -0.3903    1.1069    0.5312 H   0  0  0  0  0  0  0  0  0  0  0  0
    0.5278    0.3253    2.0277 H   0  0  0  0  0  0  0  0  0  0  0  0
    1.5133    0.8583    0.6180 H   0  0  0  0  0  0  0  0  0  0  0  0
   -0.5688   -1.4111    0.5800 H   0  0  0  0  0  0  0  0  0  0  0  0
    1.1635   -1.7176    0.6545 H   0  0  0  0  0  0  0  0  0  0  0  0
    1.2323   -0.5710   -1.4059 H   0  0  0  0  0  0  0  0  0  0  0  0
   -1.4508    1.8082    0.0661 C   0  0  0  0  0  3  0  0  0  0  0  0
   -2.2216    1.7010    0.8240 H   0  0  0  0  0  0  0  0  0  0  0  0
   -1.6895    1.3214   -0.8744 H   0  0  0  0  0  0  0  0  0  0  0  0
   -1.0923    2.8275   -0.0459 H   0  0  0  0  0  0  0  0  0  0  0  0
  1  2  1  0
  1  4  1  0
  1  5  1  0
  1  6  1  0
  2  3  1  0
  2  7  1  0
  2  8  1  0
  3  9  1  0
 10 11  1  0
 10 12  1  0
 10 13  1  0
M  RAD  1  10   2
M  END
>  <reaction>  (4) 
rxn_232

>  <mol_properties>  (4) 
{"0": {"label": "*1", "atom_type": "Cs"}, "1": {"label": "*0", "atom_type": "Cs"}, "3": {"label": "*2", "atom_type": "H0"}, "9": {"label": "*3", "atom_type": "Cs"}, "10": {"label": "*4", "atom_type": "H0"}}

>  <type>  (4) 
ts

$$$$

     RDKit          3D

 13 11  0  0  0  0  0  0  0  0999 V2000
    0.5032    0.3475    0.8968 C   0  0  0  0  0  3  0  0  0  0  0  0
    0.5032   -1.0509    0.3073 C   0  0  0  0  0  0  0  0  0  0  0  0
    0.5032   -1.0509   -1.1069 O   0  0  0  0  0  0  0  0  0  0  0  0
   -0.5241    1.0301    0.4584 H   0  0  0  0  0  0  0  0  0  0  0  0
    0.4548    0.3061    1.9869 H   0  0  0  0  0  0  0  0  0  0  0  0
    1.4146    0.8867    0.6247 H   0  0  0  0  0  0  0  0  0  0  0  0
   -0.4033   -1.5829    0.5993 H   0  0  0  0  0  0  0  0  0  0  0  0
    1.3554   -1.6237    0.6950 H   0  0  0  0  0  0  0  0  0  0  0  0
    1.2852   -0.5874   -1.4107 H   0  0  0  0  0  0  0  0  0  0  0  0
   -1.5495    1.7116    0.0209 C   0  0  0  0  0  0  0  0  0  0  0  0
   -2.1689    2.0164    0.8631 H   0  0  0  0  0  0  0  0  0  0  0  0
   -2.1416    1.7360   -0.8927 H   0  0  0  0  0  0  0  0  0  0  0  0
   -0.7916    2.4925    0.0581 H   0  0  0  0  0  0  0  0  0  0  0  0
  1  2  1  0
  1  5  1  0
  1  6  1  0
  2  3  1  0
  2  7  1  0
  2  8  1  0
  3  9  1  0
  4 10  1  0
 10 11  1  0
 10 12  1  0
 10 13  1  0
M  RAD  1   1   2
M  END
>  <reaction>  (5) 
rxn_232

>  <mol_properties>  (5) 
{"0": {"label": "*1", "atom_type": "Cs"}, "1": {"label": "*0", "atom_type": "Cs"}, "3": {"label": "*2", "atom_type": "H0"}, "9": {"label": "*3", "atom_type": "Cs"}, "10": {"label": "*4", "atom_type": "H0"}}

>  <type>  (5) 
unop_1

>  <geom_source>  (5) 
Heuristics

$$$$

     RDKit          3D

 13 11  0  0  0  0  0  0  0  0999 V2000
    0.5019    0.3559    0.8985 C   0  0  0  0  0  3  0  0  0  0  0  0
    0.5019   -1.0425    0.3090 C   0  0  0  0  0  0  0  0  0  0  0  0
    0.5019   -1.0425   -1.1052 O   0  0  0  0  0  0  0  0  0  0  0  0
   -0.5254    1.0385    0.4601 H   0  0  0  0  0  0  0  0  0  0  0  0
    0.4534    0.3145    1.9886 H   0  0  0  0  0  0  0  0  0  0  0  0
    1.4133    0.8951    0.6264 H   0  0  0  0  0  0  0  0  0  0  0  0
   -0.4046   -1.5745    0.6010 H   0  0  0  0  0  0  0  0  0  0  0  0
    1.3540   -1.6153    0.6967 H   0  0  0  0  0  0  0  0  0  0  0  0
    1.2838   -0.5790   -1.4090 H   0  0  0  0  0  0  0  0  0  0  0  0
   -1.5509    1.7200    0.0226 C   0  0  0  0  0  0  0  0  0  0  0  0
   -2.3770    1.0410   -0.1828 H   0  0  0  0  0  0  0  0  0  0  0  0
   -1.4844    2.4615   -0.7722 H   0  0  0  0  0  0  0  0  0  0  0  0
   -1.1630    2.2592    0.8855 H   0  0  0  0  0  0  0  0  0  0  0  0
  1  2  1  0
  1  5  1  0
  1  6  1  0
  2  3  1  0
  2  7  1  0
  2  8  1  0
  3  9  1  0
  4 10  1  0
 10 11  1  0
 10 12  1  0
 10 13  1  0
M  RAD  1   1   2
M  END
>  <reaction>  (6) 
rxn_232

>  <mol_properties>  (6) 
{"0": {"label": "*1", "atom_type": "Cs"}, "1": {"label": "*0", "atom_type": "Cs"}, "3": {"label": "*2", "atom_type": "H0"}, "9": {"label": "*3", "atom_type": "Cs"}, "10": {"label": "*4", "atom_type": "H0"}}

>  <type>  (6) 
unop_2

>  <geom_source>  (6) 
Heuristics

$$$$

     RDKit          3D

 13 11  0  0  0  0  0  0  0  0999 V2000
    0.5048    0.3469    0.9007 C   0  0  0  0  0  3  0  0  0  0  0  0
    0.5048   -1.0514    0.3113 C   0  0  0  0  0  0  0  0  0  0  0  0
    0.5048   -1.0514   -1.1029 O   0  0  0  0  0  0  0  0  0  0  0  0
   -0.5225    1.0296    0.4624 H   0  0  0  0  0  0  0  0  0  0  0  0
    0.4564    0.3055    1.9908 H   0  0  0  0  0  0  0  0  0  0  0  0
    1.4162    0.8861    0.6286 H   0  0  0  0  0  0  0  0  0  0  0  0
   -0.4017   -1.5834    0.6033 H   0  0  0  0  0  0  0  0  0  0  0  0
    1.3570   -1.6242    0.6990 H   0  0  0  0  0  0  0  0  0  0  0  0
    1.2867   -0.5879   -1.4068 H   0  0  0  0  0  0  0  0  0  0  0  0
   -1.5480    1.7111    0.0248 C   0  0  0  0  0  0  0  0  0  0  0  0
   -1.8518    2.4346    0.7798 H   0  0  0  0  0  0  0  0  0  0  0  0
   -2.4227    1.3781   -0.5317 H   0  0  0  0  0  0  0  0  0  0  0  0
   -0.9188    2.4635   -0.4483 H   0  0  0  0  0  0  0  0  0  0  0  0
  1  2  1  0
  1  5  1  0
  1  6  1  0
  2  3  1  0
  2  7  1  0
  2  8  1  0
  3  9  1  0
  4 10  1  0
 10 11  1  0
 10 12  1  0
 10 13  1  0
M  RAD  1   1   2
M  END
>  <reaction>  (7) 
rxn_232

>  <mol_properties>  (7) 
{"0": {"label": "*1", "atom_type": "Cs"}, "1": {"label": "*0", "atom_type": "Cs"}, "3": {"label": "*2", "atom_type": "H0"}, "9": {"label": "*3", "atom_type": "Cs"}, "10": {"label": "*4", "atom_type": "H0"}}

>  <type>  (7) 
unop_3

>  <geom_source>  (7) 
Heuristics

$$$$

     RDKit          3D

 13 11  0  0  0  0  0  0  0  0999 V2000
    0.5007    0.3524    0.8968 C   0  0  0  0  0  3  0  0  0  0  0  0
    0.5007   -1.0460    0.3074 C   0  0  0  0  0  0  0  0  0  0  0  0
    0.5007   -1.0460   -1.1068 O   0  0  0  0  0  0  0  0  0  0  0  0
   -0.5265    1.0350    0.4585 H   0  0  0  0  0  0  0  0  0  0  0  0
    0.4523    0.3109    1.9869 H   0  0  0  0  0  0  0  0  0  0  0  0
    1.4122    0.8916    0.6247 H   0  0  0  0  0  0  0  0  0  0  0  0
   -0.4058   -1.5780    0.5994 H   0  0  0  0  0  0  0  0  0  0  0  0
    1.3529   -1.6188    0.6951 H   0  0  0  0  0  0  0  0  0  0  0  0
    1.2827   -0.5825   -1.4106 H   0  0  0  0  0  0  0  0  0  0  0  0
   -1.5520    1.7165    0.0209 C   0  0  0  0  0  0  0  0  0  0  0  0
   -1.5024    1.7903   -1.0644 H   0  0  0  0  0  0  0  0  0  0  0  0
   -1.0007    2.5431    0.4666 H   0  0  0  0  0  0  0  0  0  0  0  0
   -2.4562    1.6308    0.6216 H   0  0  0  0  0  0  0  0  0  0  0  0
  1  2  1  0
  1  5  1  0
  1  6  1  0
  2  3  1  0
  2  7  1  0
  2  8  1  0
  3  9  1  0
  4 10  1  0
 10 11  1  0
 10 12  1  0
 10 13  1  0
M  RAD  1   1   2
M  END
>  <reaction>  (8) 
rxn_232

>  <mol_properties>  (8) 
{"0": {"label": "*1", "atom_type": "Cs"}, "1": {"label": "*0", "atom_type": "Cs"}, "3": {"label": "*2", "atom_type": "H0"}, "9": {"label": "*3", "atom_type": "Cs"}, "10": {"label": "*4", "atom_type": "H0"}}

>  <type>  (8) 
unop_4

>  <geom_source>  (8) 
Heuristics

$$$$

     RDKit          3D

 13 11  0  0  0  0  0  0  0  0999 V2000
    0.5100    0.3495    0.9003 C   0  0  0  0  0  3  0  0  0  0  0  0
    0.5100   -1.0489    0.3109 C   0  0  0  0  0  0  0  0  0  0  0  0
    0.5100   -1.0489   -1.1034 O   0  0  0  0  0  0  0  0  0  0  0  0
   -0.5173    1.0321    0.4620 H   0  0  0  0  0  0  0  0  0  0  0  0
    0.4615    0.3081    1.9904 H   0  0  0  0  0  0  0  0  0  0  0  0
    1.4214    0.8887    0.6282 H   0  0  0  0  0  0  0  0  0  0  0  0
   -0.3965   -1.5809    0.6029 H   0  0  0  0  0  0  0  0  0  0  0  0
    1.3621   -1.6217    0.6985 H   0  0  0  0  0  0  0  0  0  0  0  0
    1.2919   -0.5854   -1.4072 H   0  0  0  0  0  0  0  0  0  0  0  0
   -1.5428    1.7136    0.0244 C   0  0  0  0  0  0  0  0  0  0  0  0
   -1.5261    2.7127    0.4573 H   0  0  0  0  0  0  0  0  0  0  0  0
   -2.4637    1.2087    0.3121 H   0  0  0  0  0  0  0  0  0  0  0  0
   -1.5007    2.2084   -0.9447 H   0  0  0  0  0  0  0  0  0  0  0  0
  1  2  1  0
  1  5  1  0
  1  6  1  0
  2  3  1  0
  2  7  1  0
  2  8  1  0
  3  9  1  0
  4 10  1  0
 10 11  1  0
 10 12  1  0
 10 13  1  0
M  RAD  1   1   2
M  END
>  <reaction>  (9) 
rxn_232

>  <mol_properties>  (9) 
{"0": {"label": "*1", "atom_type": "Cs"}, "1": {"label": "*0", "atom_type": "Cs"}, "3": {"label": "*2", "atom_type": "H0"}, "9": {"label": "*3", "atom_type": "Cs"}, "10": {"label": "*4", "atom_type": "H0"}}

>  <type>  (9) 
unop_5

>  <geom_source>  (9) 
Heuristics

$$$$

     RDKit          3D

 13 11  0  0  0  0  0  0  0  0999 V2000
    0.5031    0.3501    0.8955 C   0  0  0  0  0  3  0  0  0  0  0  0
    0.5031   -1.0482    0.3060 C   0  0  0  0  0  0  0  0  0  0  0  0
    0.5031   -1.0482   -1.1082 O   0  0  0  0  0  0  0  0  0  0  0  0
   -0.5242    1.0328    0.4571 H   0  0  0  0  0  0  0  0  0  0  0  0
    0.4546    0.3087    1.9856 H   0  0  0  0  0  0  0  0  0  0  0  0
    1.4145    0.8893    0.6234 H   0  0  0  0  0  0  0  0  0  0  0  0
   -0.4034   -1.5803    0.5980 H   0  0  0  0  0  0  0  0  0  0  0  0
    1.3553   -1.6211    0.6937 H   0  0  0  0  0  0  0  0  0  0  0  0
    1.2850   -0.5848   -1.4120 H   0  0  0  0  0  0  0  0  0  0  0  0
   -1.5497    1.7142    0.0196 C   0  0  0  0  0  0  0  0  0  0  0  0
   -1.2742    2.2377   -0.8947 H   0  0  0  0  0  0  0  0  0  0  0  0
   -1.1946    2.2774    0.8813 H   0  0  0  0  0  0  0  0  0  0  0  0
   -2.6257    1.5781    0.1164 H   0  0  0  0  0  0  0  0  0  0  0  0
  1  2  1  0
  1  5  1  0
  1  6  1  0
  2  3  1  0
  2  7  1  0
  2  8  1  0
  3  9  1  0
  4 10  1  0
 10 11  1  0
 10 12  1  0
 10 13  1  0
M  RAD  1   1   2
M  END
>  <reaction>  (10) 
rxn_232

>  <mol_properties>  (10) 
{"0": {"label": "*1", "atom_type": "Cs"}, "1": {"label": "*0", "atom_type": "Cs"}, "3": {"label": "*2", "atom_type": "H0"}, "9": {"label": "*3", "atom_type": "Cs"}, "10": {"label": "*4", "atom_type": "H0"}}

>  <type>  (10) 
unop_6

>  <geom_source>  (10) 
Heuristics

$$$$

     RDKit          3D

 13 11  0  0  0  0  0  0  0  0999 V2000
    0.5063    0.3492    0.8939 C   0  0  0  0  0  3  0  0  0  0  0  0
    0.5063   -1.0492    0.3045 C   0  0  0  0  0  0  0  0  0  0  0  0
    0.5063   -1.0492   -1.1097 O   0  0  0  0  0  0  0  0  0  0  0  0
   -0.5210    1.0319    0.4556 H   0  0  0  0  0  0  0  0  0  0  0  0
    0.4579    0.3078    1.9840 H   0  0  0  0  0  0  0  0  0  0  0  0
    1.4177    0.8884    0.6218 H   0  0  0  0  0  0  0  0  0  0  0  0
   -0.4002   -1.5812    0.5965 H   0  0  0  0  0  0  0  0  0  0  0  0
    1.3585   -1.6220    0.6922 H   0  0  0  0  0  0  0  0  0  0  0  0
    1.2882   -0.5857   -1.4136 H   0  0  0  0  0  0  0  0  0  0  0  0
   -1.5465    1.7133    0.0180 C   0  0  0  0  0  0  0  0  0  0  0  0
   -1.1953    2.5969   -0.5128 H   0  0  0  0  0  0  0  0  0  0  0  0
   -1.5285    1.9030    1.0902 H   0  0  0  0  0  0  0  0  0  0  0  0
   -2.5556    1.6454   -0.3856 H   0  0  0  0  0  0  0  0  0  0  0  0
  1  2  1  0
  1  5  1  0
  1  6  1  0
  2  3  1  0
  2  7  1  0
  2  8  1  0
  3  9  1  0
  4 10  1  0
 10 11  1  0
 10 12  1  0
 10 13  1  0
M  RAD  1   1   2
M  END
>  <reaction>  (11) 
rxn_232

>  <mol_properties>  (11) 
{"0": {"label": "*1", "atom_type": "Cs"}, "1": {"label": "*0", "atom_type": "Cs"}, "3": {"label": "*2", "atom_type": "H0"}, "9": {"label": "*3", "atom_type": "Cs"}, "10": {"label": "*4", "atom_type": "H0"}}

>  <type>  (11) 
unop_7

>  <geom_source>  (11) 
Heuristics

$$$$

     RDKit          3D

 13 11  0  0  0  0  0  0  0  0999 V2000
    0.5039    0.3506    0.8950 C   0  0  0  0  0  3  0  0  0  0  0  0
    0.5039   -1.0478    0.3055 C   0  0  0  0  0  0  0  0  0  0  0  0
    0.5039   -1.0478   -1.1087 O   0  0  0  0  0  0  0  0  0  0  0  0
   -0.5234    1.0332    0.4566 H   0  0  0  0  0  0  0  0  0  0  0  0
    0.4555    0.3091    1.9851 H   0  0  0  0  0  0  0  0  0  0  0  0
    1.4153    0.8898    0.6229 H   0  0  0  0  0  0  0  0  0  0  0  0
   -0.4026   -1.5798    0.5975 H   0  0  0  0  0  0  0  0  0  0  0  0
    1.3561   -1.6206    0.6932 H   0  0  0  0  0  0  0  0  0  0  0  0
    1.2858   -0.5843   -1.4125 H   0  0  0  0  0  0  0  0  0  0  0  0
   -1.5489    1.7147    0.0191 C   0  0  0  0  0  0  0  0  0  0  0  0
   -2.3940    1.5698    0.6902 H   0  0  0  0  0  0  0  0  0  0  0  0
   -1.9099    2.0492   -0.9523 H   0  0  0  0  0  0  0  0  0  0  0  0
   -0.8374    2.4489    0.3938 H   0  0  0  0  0  0  0  0  0  0  0  0
  1  2  1  0
  1  5  1  0
  1  6  1  0
  2  3  1  0
  2  7  1  0
  2  8  1  0
  3  9  1  0
  4 10  1  0
 10 11  1  0
 10 12  1  0
 10 13  1  0
M  RAD  1   1   2
M  END
>  <reaction>  (12) 
rxn_232

>  <mol_properties>  (12) 
{"0": {"label": "*1", "atom_type": "Cs"}, "1": {"label": "*0", "atom_type": "Cs"}, "3": {"label": "*2", "atom_type": "H0"}, "9": {"label": "*3", "atom_type": "Cs"}, "10": {"label": "*4", "atom_type": "H0"}}

>  <type>  (12) 
unop_8

>  <geom_source>  (12) 
Heuristics

$$$$

     RDKit          3D

 13 11  0  0  0  0  0  0  0  0999 V2000
    0.4991    0.3545    0.8980 C   0  0  0  0  0  3  0  0  0  0  0  0
    0.4991   -1.0438    0.3085 C   0  0  0  0  0  0  0  0  0  0  0  0
    0.4991   -1.0438   -1.1057 O   0  0  0  0  0  0  0  0  0  0  0  0
   -0.5281    1.0372    0.4596 H   0  0  0  0  0  0  0  0  0  0  0  0
    0.4507    0.3131    1.9881 H   0  0  0  0  0  0  0  0  0  0  0  0
    1.4106    0.8938    0.6259 H   0  0  0  0  0  0  0  0  0  0  0  0
   -0.4073   -1.5758    0.6005 H   0  0  0  0  0  0  0  0  0  0  0  0
    1.3513   -1.6166    0.6962 H   0  0  0  0  0  0  0  0  0  0  0  0
    1.2811   -0.5803   -1.4095 H   0  0  0  0  0  0  0  0  0  0  0  0
   -1.5536    1.7187    0.0221 C   0  0  0  0  0  0  0  0  0  0  0  0
   -1.8194    1.3738   -0.9760 H   0  0  0  0  0  0  0  0  0  0  0  0
   -0.9991    2.6529   -0.0524 H   0  0  0  0  0  0  0  0  0  0  0  0
   -2.0489    1.8111    0.9874 H   0  0  0  0  0  0  0  0  0  0  0  0
  1  2  1  0
  1  5  1  0
  1  6  1  0
  2  3  1  0
  2  7  1  0
  2  8  1  0
  3  9  1  0
  4 10  1  0
 10 11  1  0
 10 12  1  0
 10 13  1  0
M  RAD  1   1   2
M  END
>  <reaction>  (13) 
rxn_232

>  <mol_properties>  (13) 
{"0": {"label": "*1", "atom_type": "Cs"}, "1": {"label": "*0", "atom_type": "Cs"}, "3": {"label": "*2", "atom_type": "H0"}, "9": {"label": "*3", "atom_type": "Cs"}, "10": {"label": "*4", "atom_type": "H0"}}

>  <type>  (13) 
unop_9

>  <geom_source>  (13) 
Heuristics

$$$$

     RDKit          3D

 13 11  0  0  0  0  0  0  0  0999 V2000
    0.5038    0.3539    0.8962 C   0  0  0  0  0  3  0  0  0  0  0  0
    0.5038   -1.0444    0.3068 C   0  0  0  0  0  0  0  0  0  0  0  0
    0.5038   -1.0444   -1.1074 O   0  0  0  0  0  0  0  0  0  0  0  0
   -0.5235    1.0366    0.4579 H   0  0  0  0  0  0  0  0  0  0  0  0
    0.4554    0.3125    1.9863 H   0  0  0  0  0  0  0  0  0  0  0  0
    1.4152    0.8931    0.6241 H   0  0  0  0  0  0  0  0  0  0  0  0
   -0.4027   -1.5765    0.5988 H   0  0  0  0  0  0  0  0  0  0  0  0
    1.3560   -1.6173    0.6945 H   0  0  0  0  0  0  0  0  0  0  0  0
    1.2858   -0.5810   -1.4113 H   0  0  0  0  0  0  0  0  0  0  0  0
   -1.5489    1.7181    0.0203 C   0  0  0  0  0  0  0  0  0  0  0  0
   -2.4698    1.2131    0.3081 H   0  0  0  0  0  0  0  0  0  0  0  0
   -1.7154    2.2823   -0.8960 H   0  0  0  0  0  0  0  0  0  0  0  0
   -0.9514    2.3780    0.6473 H   0  0  0  0  0  0  0  0  0  0  0  0
  1  2  1  0
  1  5  1  0
  1  6  1  0
  2  3  1  0
  2  7  1  0
  2  8  1  0
  3  9  1  0
  4 10  1  0
 10 11  1  0
 10 12  1  0
 10 13  1  0
M  RAD  1   1   2
M  END
>  <reaction>  (14) 
rxn_232

>  <mol_properties>  (14) 
{"0": {"label": "*1", "atom_type": "Cs"}, "1": {"label": "*0", "atom_type": "Cs"}, "3": {"label": "*2", "atom_type": "H0"}, "9": {"label": "*3", "atom_type": "Cs"}, "10": {"label": "*4", "atom_type": "H0"}}

>  <type>  (14) 
unop_10

>  <geom_source>  (14) 
Heuristics

$$$$

     RDKit          3D

 13 11  0  0  0  0  0  0  0  0999 V2000
    0.5101    0.3500    0.8949 C   0  0  0  0  0  3  0  0  0  0  0  0
    0.5101   -1.0484    0.3054 C   0  0  0  0  0  0  0  0  0  0  0  0
    0.5101   -1.0484   -1.1088 O   0  0  0  0  0  0  0  0  0  0  0  0
   -0.5171    1.0326    0.4565 H   0  0  0  0  0  0  0  0  0  0  0  0
    0.4617    0.3086    1.9850 H   0  0  0  0  0  0  0  0  0  0  0  0
    1.4215    0.8892    0.6228 H   0  0  0  0  0  0  0  0  0  0  0  0
   -0.3964   -1.5804    0.5974 H   0  0  0  0  0  0  0  0  0  0  0  0
    1.3623   -1.6212    0.6931 H   0  0  0  0  0  0  0  0  0  0  0  0
    1.2921   -0.5849   -1.4126 H   0  0  0  0  0  0  0  0  0  0  0  0
   -1.5426    1.7141    0.0190 C   0  0  0  0  0  0  0  0  0  0  0  0
   -1.2862    2.7718   -0.0188 H   0  0  0  0  0  0  0  0  0  0  0  0
   -1.9964    1.4848    0.9819 H   0  0  0  0  0  0  0  0  0  0  0  0
   -2.2170    1.8436   -0.8262 H   0  0  0  0  0  0  0  0  0  0  0  0
  1  2  1  0
  1  5  1  0
  1  6  1  0
  2  3  1  0
  2  7  1  0
  2  8  1  0
  3  9  1  0
  4 10  1  0
 10 11  1  0
 10 12  1  0
 10 13  1  0
M  RAD  1   1   2
M  END
>  <reaction>  (15) 
rxn_232

>  <mol_properties>  (15) 
{"0": {"label": "*1", "atom_type": "Cs"}, "1": {"label": "*0", "atom_type": "Cs"}, "3": {"label": "*2", "atom_type": "H0"}, "9": {"label": "*3", "atom_type": "Cs"}, "10": {"label": "*4", "atom_type": "H0"}}

>  <type>  (15) 
unop_11

>  <geom_source>  (15) 
Heuristics

$$$$

     RDKit          3D

 13 11  0  0  0  0  0  0  0  0999 V2000
    0.4995    0.3559    0.8990 C   0  0  0  0  0  3  0  0  0  0  0  0
    0.4995   -1.0425    0.3096 C   0  0  0  0  0  0  0  0  0  0  0  0
    0.4995   -1.0425   -1.1046 O   0  0  0  0  0  0  0  0  0  0  0  0
   -0.5278    1.0385    0.4607 H   0  0  0  0  0  0  0  0  0  0  0  0
    0.4511    0.3145    1.9891 H   0  0  0  0  0  0  0  0  0  0  0  0
    1.4109    0.8951    0.6269 H   0  0  0  0  0  0  0  0  0  0  0  0
   -0.4070   -1.5745    0.6016 H   0  0  0  0  0  0  0  0  0  0  0  0
    1.3517   -1.6153    0.6973 H   0  0  0  0  0  0  0  0  0  0  0  0
    1.2814   -0.5790   -1.4085 H   0  0  0  0  0  0  0  0  0  0  0  0
   -1.5533    1.7200    0.0231 C   0  0  0  0  0  0  0  0  0  0  0  0
   -2.1396    1.0996   -0.6529 H   0  0  0  0  0  0  0  0  0  0  0  0
   -1.2021    2.6036   -0.5077 H   0  0  0  0  0  0  0  0  0  0  0  0
   -1.5459    2.0578    1.0583 H   0  0  0  0  0  0  0  0  0  0  0  0
  1  2  1  0
  1  5  1  0
  1  6  1  0
  2  3  1  0
  2  7  1  0
  2  8  1  0
  3  9  1  0
  4 10  1  0
 10 11  1  0
 10 12  1  0
 10 13  1  0
M  RAD  1   1   2
M  END
>  <reaction>  (16) 
rxn_232

>  <mol_properties>  (16) 
{"0": {"label": "*1", "atom_type": "Cs"}, "1": {"label": "*0", "atom_type": "Cs"}, "3": {"label": "*2", "atom_type": "H0"}, "9": {"label": "*3", "atom_type": "Cs"}, "10": {"label": "*4", "atom_type": "H0"}}

>  <type>  (16) 
unop_12

>  <geom_source>  (16) 
Heuristics

$$$$

     RDKit          3D

 13 11  0  0  0  0  0  0  0  0999 V2000
   -2.6852    0.2910   -0.1907 O   0  0  0  0  0  0  0  0  0  0  0  0
   -1.5412   -0.4738    0.0750 C   0  0  0  0  0  0  0  0  0  0  0  0
    2.2064   -0.1378    0.0803 C   0  0  0  0  0  0  0  0  0  0  0  0
   -0.3223    0.4261    0.2176 C   0  0  0  0  0  3  0  0  0  0  0  0
   -1.6917   -1.0277    1.0249 H   0  0  0  0  0  0  0  0  0  0  0  0
   -1.3683   -1.2173   -0.7352 H   0  0  0  0  0  0  0  0  0  0  0  0
    2.6867    0.8581    0.1713 H   0  0  0  0  0  0  0  0  0  0  0  0
    2.7084   -0.8542    0.7627 H   0  0  0  0  0  0  0  0  0  0  0  0
    2.2967   -0.4978   -0.9652 H   0  0  0  0  0  0  0  0  0  0  0  0
    0.9483   -0.0435    0.3995 H   0  0  0  0  0  0  0  0  0  0  0  0
   -0.1261    0.9665   -0.7326 H   0  0  0  0  0  0  0  0  0  0  0  0
   -0.4763    1.1572    1.0393 H   0  0  0  0  0  0  0  0  0  0  0  0
   -2.6354    0.5533   -1.1470 H   0  0  0  0  0  0  0  0  0  0  0  0
  1  2  1  0
  1 13  1  0
  2  4  1  0
  2  5  1  0
  2  6  1  0
  3  7  1  0
  3  8  1  0
  3  9  1  0
  3 10  1  0
  4 11  1  0
  4 12  1  0
M  RAD  1   4   2
M  END
>  <reaction>  (17) 
rxn_232

>  <mol_properties>  (17) 
{"0": {"label": "*1", "atom_type": "Cs"}, "1": {"label": "*0", "atom_type": "Cs"}, "3": {"label": "*2", "atom_type": "H0"}, "9": {"label": "*3", "atom_type": "Cs"}, "10": {"label": "*4", "atom_type": "H0"}}

>  <type>  (17) 
unop_13

>  <geom_source>  (17) 
AutoTST

$$$$

     RDKit          3D

 13 11  0  0  0  0  0  0  0  0999 V2000
    0.5019    0.3559    0.8985 C   0  0  0  0  0  3  0  0  0  0  0  0
    0.5019   -1.0425    0.3090 C   0  0  0  0  0  0  0  0  0  0  0  0
    0.5019   -1.0425   -1.1052 O   0  0  0  0  0  0  0  0  0  0  0  0
   -0.5254    1.0385    0.4601 H   0  0  0  0  0  0  0  0  0  0  0  0
    0.4534    0.3145    1.9886 H   0  0  0  0  0  0  0  0  0  0  0  0
    1.4133    0.8951    0.6264 H   0  0  0  0  0  0  0  0  0  0  0  0
   -0.4046   -1.5745    0.6010 H   0  0  0  0  0  0  0  0  0  0  0  0
    1.3540   -1.6153    0.6967 H   0  0  0  0  0  0  0  0  0  0  0  0
    1.2838   -0.5790   -1.4090 H   0  0  0  0  0  0  0  0  0  0  0  0
   -1.5509    1.7200    0.0226 C   0  0  0  0  0  0  0  0  0  0  0  0
   -2.3770    1.0410   -0.1828 H   0  0  0  0  0  0  0  0  0  0  0  0
   -1.4844    2.4615   -0.7722 H   0  0  0  0  0  0  0  0  0  0  0  0
   -1.1630    2.2591    0.8855 H   0  0  0  0  0  0  0  0  0  0  0  0
  1  2  1  0
  1  5  1  0
  1  6  1  0
  2  3  1  0
  2  7  1  0
  2  8  1  0
  3  9  1  0
  4 10  1  0
 10 11  1  0
 10 12  1  0
 10 13  1  0
M  RAD  1   1   2
M  END
>  <reaction>  (18) 
rxn_232

>  <mol_properties>  (18) 
{"0": {"label": "*1", "atom_type": "Cs"}, "1": {"label": "*0", "atom_type": "Cs"}, "3": {"label": "*2", "atom_type": "H0"}, "9": {"label": "*3", "atom_type": "Cs"}, "10": {"label": "*4", "atom_type": "H0"}}

>  <type>  (18) 
unop_14

>  <geom_source>  (18) 
gaussian_log

$$$$
