
     RDKit          3D

 12 11  0  0  0  0  0  0  0  0999 V2000
    0.2765    1.4875   -0.3235 C   0  0  0  0  0  0  0  0  0  0  0  0
    0.0387    0.2116   -0.0470 C   0  0  0  0  0  0  0  0  0  0  0  0
    1.1382   -0.7557    0.2806 C   0  0  0  0  0  0  0  0  0  0  0  0
   -1.3481   -0.3618   -0.0405 C   0  0  0  0  0  0  0  0  0  0  0  0
    1.2833    1.8882   -0.3245 H   0  0  0  0  0  0  0  0  0  0  0  0
   -0.5275    2.1750   -0.5584 H   0  0  0  0  0  0  0  0  0  0  0  0
    0.9863   -1.1895    1.2731 H   0  0  0  0  0  0  0  0  0  0  0  0
    1.1431   -1.5878   -0.4293 H   0  0  0  0  0  0  0  0  0  0  0  0
    2.1177   -0.2788    0.2593 H   0  0  0  0  0  0  0  0  0  0  0  0
   -1.4296   -1.1802   -0.7616 H   0  0  0  0  0  0  0  0  0  0  0  0
   -1.5864   -0.7819    0.9408 H   0  0  0  0  0  0  0  0  0  0  0  0
   -2.0987    0.3891   -0.2854 H   0  0  0  0  0  0  0  0  0  0  0  0
  1  2  2  3
  1  5  1  0
  1  6  1  0
  2  3  1  0
  2  4  1  0
  3  7  1  0
  3  8  1  0
  3  9  1  0
  4 10  1  0
  4 11  1  0
  4 12  1  0
M  END
>  <reaction>  (1) 
rxn_409

>  <mol_properties>  (1) 
{"2": {"label": "donator", "atom_type": "Cs"}, "6": {"label": "d_hydrogen", "atom_type": "H0"}}

>  <type>  (1) 
r1h

$$$$

     RDKit          3D

 14 13  0  0  0  0  0  0  0  0999 V2000
   -0.0263    1.3824   -0.7006 C   0  0  0  0  0  0  0  0  0  0  0  0
   -0.2039   -0.0453   -0.3213 C   0  0  0  0  0  3  0  0  0  0  0  0
   -1.1121   -0.3782    0.8104 C   0  0  0  0  0  0  0  0  0  0  0  0
    0.8313   -1.0381   -0.7322 C   0  0  0  0  0  0  0  0  0  0  0  0
    0.3307   -2.3541   -0.9005 O   0  0  0  0  0  0  0  0  0  0  0  0
    0.6071    1.9181    0.0231 H   0  0  0  0  0  0  0  0  0  0  0  0
   -0.9831    1.9109   -0.7211 H   0  0  0  0  0  0  0  0  0  0  0  0
    0.4475    1.4899   -1.6787 H   0  0  0  0  0  0  0  0  0  0  0  0
   -2.0864    0.1051    0.6984 H   0  0  0  0  0  0  0  0  0  0  0  0
   -1.2623   -1.4541    0.9003 H   0  0  0  0  0  0  0  0  0  0  0  0
   -0.6968   -0.0235    1.7662 H   0  0  0  0  0  0  0  0  0  0  0  0
    1.6088   -1.1338    0.0391 H   0  0  0  0  0  0  0  0  0  0  0  0
    1.3350   -0.6925   -1.6447 H   0  0  0  0  0  0  0  0  0  0  0  0
   -0.3997   -2.3102   -1.5208 H   0  0  0  0  0  0  0  0  0  0  0  0
  1  2  1  0
  1  6  1  0
  1  7  1  0
  1  8  1  0
  2  3  1  0
  2  4  1  0
  3  9  1  0
  3 10  1  0
  3 11  1  0
  4  5  1  0
  4 12  1  0
  4 13  1  0
  5 14  1  0
M  RAD  1   2   2
M  END
>  <reaction>  (2) 
rxn_409

>  <mol_properties>  (2) 
{"1": {"label": "acceptor", "atom_type": "Cs"}}

>  <type>  (2) 
r2

$$$$

     RDKit          3D

 15 14  0  0  0  0  0  0  0  0999 V2000
   -0.6986    1.3249   -0.1641 C   0  0  0  0  0  0  0  0  0  0  0  0
   -0.2590   -0.0344    0.3671 C   0  0  0  0  0  0  0  0  0  0  0  0
   -0.4734   -0.1429    1.8733 C   0  0  0  0  0  0  0  0  0  0  0  0
   -0.9841   -1.1722   -0.3462 C   0  0  0  0  0  0  0  0  0  0  0  0
   -0.7805   -1.1911   -1.7444 O   0  0  0  0  0  0  0  0  0  0  0  0
   -0.1246    2.1306    0.2976 H   0  0  0  0  0  0  0  0  0  0  0  0
   -1.7557    1.4964    0.0581 H   0  0  0  0  0  0  0  0  0  0  0  0
   -0.5709    1.3852   -1.2449 H   0  0  0  0  0  0  0  0  0  0  0  0
    0.8141   -0.1541    0.1667 H   0  0  0  0  0  0  0  0  0  0  0  0
   -1.5346   -0.0466    2.1192 H   0  0  0  0  0  0  0  0  0  0  0  0
    0.0611    0.6480    2.4019 H   0  0  0  0  0  0  0  0  0  0  0  0
   -0.1249   -1.1023    2.2618 H   0  0  0  0  0  0  0  0  0  0  0  0
   -0.6918   -2.1316    0.1011 H   0  0  0  0  0  0  0  0  0  0  0  0
   -2.0629   -1.0627   -0.2056 H   0  0  0  0  0  0  0  0  0  0  0  0
    0.1528   -1.3298   -1.9125 H   0  0  0  0  0  0  0  0  0  0  0  0
  1  2  1  0
  1  6  1  0
  1  7  1  0
  1  8  1  0
  2  3  1  0
  2  4  1  0
  2  9  1  0
  3 10  1  0
  3 11  1  0
  3 12  1  0
  4  5  1  0
  4 13  1  0
  4 14  1  0
  5 15  1  0
M  END
>  <reaction>  (3) 
rxn_409

>  <mol_properties>  (3) 
{"1": {"label": "acceptor", "atom_type": "Cs"}, "14": {"label": "a_hydrogen", "atom_type": "H0"}}

>  <type>  (3) 
r2h

$$$$

     RDKit          3D

 26 24  0  0  0  0  0  0  0  0999 V2000
   -0.5881    1.7042    1.8012 C   0  0  0  0  0  0  0  0  0  0  0  0
   -0.8540    0.3807    1.1358 C   0  0  0  0  0  3  0  0  0  0  0  0
   -1.3089   -0.7199    2.0577 C   0  0  0  0  0  0  0  0  0  0  0  0
   -1.6466    0.4632   -0.1502 C   0  0  0  0  0  0  0  0  0  0  0  0
   -1.1213    1.3696   -1.0916 O   0  0  0  0  0  0  0  0  0  0  0  0
   -1.5103    2.1074    2.2375 H   0  0  0  0  0  0  0  0  0  0  0  0
   -0.2154    2.4338    1.0825 H   0  0  0  0  0  0  0  0  0  0  0  0
    0.1398    1.6002    2.6087 H   0  0  0  0  0  0  0  0  0  0  0  0
   -2.3006   -0.5003    2.4710 H   0  0  0  0  0  0  0  0  0  0  0  0
   -1.3737   -1.6792    1.5387 H   0  0  0  0  0  0  0  0  0  0  0  0
   -0.6242   -0.8356    2.9003 H   0  0  0  0  0  0  0  0  0  0  0  0
   -2.6624    0.8119    0.0753 H   0  0  0  0  0  0  0  0  0  0  0  0
   -1.7453   -0.5411   -0.5836 H   0  0  0  0  0  0  0  0  0  0  0  0
   -0.3290    0.9751   -1.4732 H   0  0  0  0  0  0  0  0  0  0  0  0
    1.6508   -0.1330   -2.1518 C   0  0  0  0  0  0  0  0  0  0  0  0
    1.4082   -0.8991   -1.0787 C   0  0  0  0  0  0  0  0  0  0  0  0
    1.5821   -0.4071    0.2866 C   0  0  0  0  0  0  0  0  0  0  0  0
    0.8641   -2.2938   -1.2138 C   0  0  0  0  0  0  0  0  0  0  0  0
    2.0667    0.8630   -2.0493 H   0  0  0  0  0  0  0  0  0  0  0  0
    1.4757   -0.4951   -3.1571 H   0  0  0  0  0  0  0  0  0  0  0  0
    0.3779   -0.0309    0.7086 H   0  0  0  0  0  0  0  0  0  0  0  0
    1.8452   -1.1613    1.0258 H   0  0  0  0  0  0  0  0  0  0  0  0
    2.1656    0.5046    0.3887 H   0  0  0  0  0  0  0  0  0  0  0  0
    1.5706   -3.0186   -0.8012 H   0  0  0  0  0  0  0  0  0  0  0  0
   -0.0654   -2.4005   -0.6482 H   0  0  0  0  0  0  0  0  0  0  0  0
    0.6687   -2.5554   -2.2530 H   0  0  0  0  0  0  0  0  0  0  0  0
  1  2  1  0
  1  6  1  0
  1  7  1  0
  1  8  1  0
  2  3  1  0
  2  4  1  0
  3  9  1  0
  3 10  1  0
  3 11  1  0
  4  5  1  0
  4 12  1  0
  4 13  1  0
  5 14  1  0
 15 16  2  3
 15 19  1  0
 15 20  1  0
 16 17  1  0
 16 18  1  0
 17 21  1  0
 17 22  1  0
 17 23  1  0
 18 24  1  0
 18 25  1  0
 18 26  1  0
M  RAD  1   2   2
M  END
>  <reaction>  (4) 
rxn_409

>  <mol_properties>  (4) 
{"1": {"label": "*3", "atom_type": "Cs"}, "3": {"label": "*4", "atom_type": "Cs"}, "15": {"label": "*0", "atom_type": "Cd"}, "16": {"label": "*1", "atom_type": "Cs"}, "20": {"label": "*2", "atom_type": "H0"}}

>  <type>  (4) 
ts

$$$$

     RDKit          3D

 26 24  0  0  0  0  0  0  0  0999 V2000
   -0.5087    0.3426    2.4402 C   0  0  0  0  0  0  0  0  0  0  0  0
   -0.9858    0.2543    0.9954 C   0  0  0  0  0  3  0  0  0  0  0  0
   -2.4056   -0.2958    0.9072 C   0  0  0  0  0  0  0  0  0  0  0  0
   -0.9078    1.6103    0.2992 C   0  0  0  0  0  0  0  0  0  0  0  0
    0.3923    2.1632    0.2704 O   0  0  0  0  0  0  0  0  0  0  0  0
   -1.1759    0.9845    3.0226 H   0  0  0  0  0  0  0  0  0  0  0  0
    0.4946    0.7644    2.4984 H   0  0  0  0  0  0  0  0  0  0  0  0
   -0.4978   -0.6426    2.9104 H   0  0  0  0  0  0  0  0  0  0  0  0
   -3.1079    0.3661    1.4216 H   0  0  0  0  0  0  0  0  0  0  0  0
   -2.7359   -0.3946   -0.1292 H   0  0  0  0  0  0  0  0  0  0  0  0
   -2.4736   -1.2784    1.3768 H   0  0  0  0  0  0  0  0  0  0  0  0
   -1.5254    2.3337    0.8384 H   0  0  0  0  0  0  0  0  0  0  0  0
   -1.3155    1.5254   -0.7169 H   0  0  0  0  0  0  0  0  0  0  0  0
    0.9593    1.5774   -0.2336 H   0  0  0  0  0  0  0  0  0  0  0  0
    1.1249   -1.1206   -2.6988 C   0  0  0  0  0  0  0  0  0  0  0  0
    1.1249   -1.1206   -1.3718 C   0  0  0  0  0  0  0  0  0  0  0  0
    1.1249    0.1483   -0.5706 C   0  0  0  0  0  0  0  0  0  0  0  0
    1.1249   -2.3894   -0.5706 C   0  0  0  0  0  0  0  0  0  0  0  0
    1.1249   -0.1965   -3.2647 H   0  0  0  0  0  0  0  0  0  0  0  0
    1.1249   -2.0447   -3.2647 H   0  0  0  0  0  0  0  0  0  0  0  0
    0.0716    0.2012    0.2108 H   0  0  0  0  0  0  0  0  0  0  0  0
    2.0026    0.1924    0.0806 H   0  0  0  0  0  0  0  0  0  0  0  0
    1.1249    1.0312   -1.2091 H   0  0  0  0  0  0  0  0  0  0  0  0
    2.0026   -2.4335    0.0806 H   0  0  0  0  0  0  0  0  0  0  0  0
    0.2472   -2.4335    0.0806 H   0  0  0  0  0  0  0  0  0  0  0  0
    1.1249   -3.2724   -1.2091 H   0  0  0  0  0  0  0  0  0  0  0  0
  1  2  1  0
  1  6  1  0
  1  7  1  0
  1  8  1  0
  2  3  1  0
  2  4  1  0
  3  9  1  0
  3 10  1  0
  3 11  1  0
  4  5  1  0
  4 12  1  0
  4 13  1  0
  5 14  1  0
 15 16  2  3
 15 19  1  0
 15 20  1  0
 16 17  1  0
 16 18  1  0
 17 21  1  0
 17 22  1  0
 17 23  1  0
 18 24  1  0
 18 25  1  0
 18 26  1  0
M  RAD  1   2   2
M  END
>  <reaction>  (5) 
rxn_409

>  <mol_properties>  (5) 
{"1": {"label": "*3", "atom_type": "Cs"}, "3": {"label": "*4", "atom_type": "Cs"}, "15": {"label": "*0", "atom_type": "Cd"}, "16": {"label": "*1", "atom_type": "Cs"}, "20": {"label": "*2", "atom_type": "H0"}}

>  <type>  (5) 
unop_1

>  <geom_source>  (5) 
Heuristics

$$$$

     RDKit          3D

 26 24  0  0  0  0  0  0  0  0999 V2000
   -1.4588   -0.8364    1.0441 C   0  0  0  0  0  0  0  0  0  0  0  0
   -1.0673    0.5877    0.6677 C   0  0  0  0  0  3  0  0  0  0  0  0
   -2.2896    1.4311    0.3201 C   0  0  0  0  0  0  0  0  0  0  0  0
   -0.2703    1.2593    1.7827 C   0  0  0  0  0  0  0  0  0  0  0  0
    0.9219    0.5802    2.1209 O   0  0  0  0  0  0  0  0  0  0  0  0
   -2.1415   -0.8301    1.8987 H   0  0  0  0  0  0  0  0  0  0  0  0
   -0.5842   -1.4252    1.3204 H   0  0  0  0  0  0  0  0  0  0  0  0
   -1.9646   -1.3359    0.2156 H   0  0  0  0  0  0  0  0  0  0  0  0
   -2.9577    1.5148    1.1819 H   0  0  0  0  0  0  0  0  0  0  0  0
   -2.0085    2.4412    0.0145 H   0  0  0  0  0  0  0  0  0  0  0  0
   -2.8571    0.9790   -0.4949 H   0  0  0  0  0  0  0  0  0  0  0  0
   -0.8686    1.2806    2.6975 H   0  0  0  0  0  0  0  0  0  0  0  0
   -0.0581    2.3007    1.5064 H   0  0  0  0  0  0  0  0  0  0  0  0
    1.4966    0.5773    1.3538 H   0  0  0  0  0  0  0  0  0  0  0  0
    1.0435   -0.7872   -3.0265 C   0  0  0  0  0  0  0  0  0  0  0  0
    1.0435   -0.7872   -1.6994 C   0  0  0  0  0  0  0  0  0  0  0  0
    1.0435    0.4817   -0.8982 C   0  0  0  0  0  0  0  0  0  0  0  0
    1.0435   -2.0561   -0.8982 C   0  0  0  0  0  0  0  0  0  0  0  0
    1.0435    0.1369   -3.5923 H   0  0  0  0  0  0  0  0  0  0  0  0
    1.0435   -1.7113   -3.5923 H   0  0  0  0  0  0  0  0  0  0  0  0
   -0.0098    0.5345   -0.1168 H   0  0  0  0  0  0  0  0  0  0  0  0
    1.9212    0.5257   -0.2470 H   0  0  0  0  0  0  0  0  0  0  0  0
    1.0435    1.3646   -1.5367 H   0  0  0  0  0  0  0  0  0  0  0  0
    1.9212   -2.1002   -0.2470 H   0  0  0  0  0  0  0  0  0  0  0  0
    0.1657   -2.1002   -0.2470 H   0  0  0  0  0  0  0  0  0  0  0  0
    1.0435   -2.9390   -1.5367 H   0  0  0  0  0  0  0  0  0  0  0  0
  1  2  1  0
  1  6  1  0
  1  7  1  0
  1  8  1  0
  2  3  1  0
  2  4  1  0
  3  9  1  0
  3 10  1  0
  3 11  1  0
  4  5  1  0
  4 12  1  0
  4 13  1  0
  5 14  1  0
 15 16  2  3
 15 19  1  0
 15 20  1  0
 16 17  1  0
 16 18  1  0
 17 21  1  0
 17 22  1  0
 17 23  1  0
 18 24  1  0
 18 25  1  0
 18 26  1  0
M  RAD  1   2   2
M  END
>  <reaction>  (6) 
rxn_409

>  <mol_properties>  (6) 
{"1": {"label": "*3", "atom_type": "Cs"}, "3": {"label": "*4", "atom_type": "Cs"}, "15": {"label": "*0", "atom_type": "Cd"}, "16": {"label": "*1", "atom_type": "Cs"}, "20": {"label": "*2", "atom_type": "H0"}}

>  <type>  (6) 
unop_2

>  <geom_source>  (6) 
Heuristics

$$$$

     RDKit          3D

 26 24  0  0  0  0  0  0  0  0999 V2000
   -0.4502    1.0895    2.3594 C   0  0  0  0  0  0  0  0  0  0  0  0
   -0.8145    0.2887    1.1148 C   0  0  0  0  0  3  0  0  0  0  0  0
   -1.8011   -0.8290    1.4371 C   0  0  0  0  0  0  0  0  0  0  0  0
   -1.3842    1.1878    0.0210 C   0  0  0  0  0  0  0  0  0  0  0  0
   -0.5032    2.2125   -0.3920 O   0  0  0  0  0  0  0  0  0  0  0  0
   -1.3477    1.5253    2.8076 H   0  0  0  0  0  0  0  0  0  0  0  0
    0.2313    1.9049    2.1173 H   0  0  0  0  0  0  0  0  0  0  0  0
    0.0235    0.4537    3.1099 H   0  0  0  0  0  0  0  0  0  0  0  0
   -2.7384   -0.4167    1.8211 H   0  0  0  0  0  0  0  0  0  0  0  0
   -2.0350   -1.4271    0.5537 H   0  0  0  0  0  0  0  0  0  0  0  0
   -1.3981   -1.4981    2.1990 H   0  0  0  0  0  0  0  0  0  0  0  0
   -2.2764    1.6973    0.3949 H   0  0  0  0  0  0  0  0  0  0  0  0
   -1.6931    0.5737   -0.8354 H   0  0  0  0  0  0  0  0  0  0  0  0
    0.2788    1.8058   -0.7686 H   0  0  0  0  0  0  0  0  0  0  0  0
    1.2962   -1.0862   -2.5794 C   0  0  0  0  0  0  0  0  0  0  0  0
    1.2962   -1.0862   -1.2524 C   0  0  0  0  0  0  0  0  0  0  0  0
    1.2962    0.1827   -0.4511 C   0  0  0  0  0  0  0  0  0  0  0  0
    1.2962   -2.3551   -0.4511 C   0  0  0  0  0  0  0  0  0  0  0  0
    1.2962   -0.1621   -3.1453 H   0  0  0  0  0  0  0  0  0  0  0  0
    1.2962   -2.0103   -3.1453 H   0  0  0  0  0  0  0  0  0  0  0  0
    0.2429    0.2356    0.3303 H   0  0  0  0  0  0  0  0  0  0  0  0
    2.1739    0.2267    0.2001 H   0  0  0  0  0  0  0  0  0  0  0  0
    1.2962    1.0656   -1.0896 H   0  0  0  0  0  0  0  0  0  0  0  0
    2.1739   -2.3992    0.2001 H   0  0  0  0  0  0  0  0  0  0  0  0
    0.4185   -2.3992    0.2001 H   0  0  0  0  0  0  0  0  0  0  0  0
    1.2962   -3.2380   -1.0896 H   0  0  0  0  0  0  0  0  0  0  0  0
  1  2  1  0
  1  6  1  0
  1  7  1  0
  1  8  1  0
  2  3  1  0
  2  4  1  0
  3  9  1  0
  3 10  1  0
  3 11  1  0
  4  5  1  0
  4 12  1  0
  4 13  1  0
  5 14  1  0
 15 16  2  3
 15 19  1  0
 15 20  1  0
 16 17  1  0
 16 18  1  0
 17 21  1  0
 17 22  1  0
 17 23  1  0
 18 24  1  0
 18 25  1  0
 18 26  1  0
M  RAD  1   2   2
M  END
>  <reaction>  (7) 
rxn_409

>  <mol_properties>  (7) 
{"1": {"label": "*3", "atom_type": "Cs"}, "3": {"label": "*4", "atom_type": "Cs"}, "15": {"label": "*0", "atom_type": "Cd"}, "16": {"label": "*1", "atom_type": "Cs"}, "20": {"label": "*2", "atom_type": "H0"}}

>  <type>  (7) 
unop_3

>  <geom_source>  (7) 
Heuristics

$$$$

     RDKit          3D

 26 24  0  0  0  0  0  0  0  0999 V2000
   -1.9662    0.7087   -0.1291 C   0  0  0  0  0  0  0  0  0  0  0  0
   -0.7174    0.7582    0.7432 C   0  0  0  0  0  3  0  0  0  0  0  0
   -0.2139    2.1871    0.9195 C   0  0  0  0  0  0  0  0  0  0  0  0
   -0.9653    0.1206    2.1075 C   0  0  0  0  0  0  0  0  0  0  0  0
   -1.3674   -1.2324    2.0407 O   0  0  0  0  0  0  0  0  0  0  0  0
   -2.7627    1.3147    0.3121 H   0  0  0  0  0  0  0  0  0  0  0  0
   -2.3382   -0.3112   -0.2264 H   0  0  0  0  0  0  0  0  0  0  0  0
   -1.7626    1.0995   -1.1279 H   0  0  0  0  0  0  0  0  0  0  0  0
   -0.9649    2.8006    1.4249 H   0  0  0  0  0  0  0  0  0  0  0  0
    0.7019    2.2212    1.5136 H   0  0  0  0  0  0  0  0  0  0  0  0
   -0.0054    2.6497   -0.0465 H   0  0  0  0  0  0  0  0  0  0  0  0
   -1.7790    0.6467    2.6141 H   0  0  0  0  0  0  0  0  0  0  0  0
   -0.0681    0.2279    2.7316 H   0  0  0  0  0  0  0  0  0  0  0  0
   -0.6594   -1.7392    1.6400 H   0  0  0  0  0  0  0  0  0  0  0  0
    1.3934   -0.6167   -2.9510 C   0  0  0  0  0  0  0  0  0  0  0  0
    1.3934   -0.6167   -1.6240 C   0  0  0  0  0  0  0  0  0  0  0  0
    1.3934    0.6522   -0.8227 C   0  0  0  0  0  0  0  0  0  0  0  0
    1.3934   -1.8855   -0.8227 C   0  0  0  0  0  0  0  0  0  0  0  0
    1.3934    0.3075   -3.5169 H   0  0  0  0  0  0  0  0  0  0  0  0
    1.3934   -1.5408   -3.5169 H   0  0  0  0  0  0  0  0  0  0  0  0
    0.3401    0.7051   -0.0413 H   0  0  0  0  0  0  0  0  0  0  0  0
    2.2711    0.6963   -0.1716 H   0  0  0  0  0  0  0  0  0  0  0  0
    1.3934    1.5351   -1.4612 H   0  0  0  0  0  0  0  0  0  0  0  0
    2.2711   -1.9296   -0.1715 H   0  0  0  0  0  0  0  0  0  0  0  0
    0.5156   -1.9296   -0.1716 H   0  0  0  0  0  0  0  0  0  0  0  0
    1.3934   -2.7685   -1.4612 H   0  0  0  0  0  0  0  0  0  0  0  0
  1  2  1  0
  1  6  1  0
  1  7  1  0
  1  8  1  0
  2  3  1  0
  2  4  1  0
  3  9  1  0
  3 10  1  0
  3 11  1  0
  4  5  1  0
  4 12  1  0
  4 13  1  0
  5 14  1  0
 15 16  2  3
 15 19  1  0
 15 20  1  0
 16 17  1  0
 16 18  1  0
 17 21  1  0
 17 22  1  0
 17 23  1  0
 18 24  1  0
 18 25  1  0
 18 26  1  0
M  RAD  1   2   2
M  END
>  <reaction>  (8) 
rxn_409

>  <mol_properties>  (8) 
{"1": {"label": "*3", "atom_type": "Cs"}, "3": {"label": "*4", "atom_type": "Cs"}, "15": {"label": "*0", "atom_type": "Cd"}, "16": {"label": "*1", "atom_type": "Cs"}, "20": {"label": "*2", "atom_type": "H0"}}

>  <type>  (8) 
unop_4

>  <geom_source>  (8) 
Heuristics

$$$$

     RDKit          3D

 26 24  0  0  0  0  0  0  0  0999 V2000
   -0.5669    1.7736    1.9036 C   0  0  0  0  0  0  0  0  0  0  0  0
   -0.6174    0.4697    1.1160 C   0  0  0  0  0  3  0  0  0  0  0  0
   -0.5822   -0.7438    2.0394 C   0  0  0  0  0  0  0  0  0  0  0  0
   -1.8514    0.4076    0.2201 C   0  0  0  0  0  0  0  0  0  0  0  0
   -1.9277    1.4597   -0.7202 O   0  0  0  0  0  0  0  0  0  0  0  0
   -1.4093    1.8310    2.5989 H   0  0  0  0  0  0  0  0  0  0  0  0
   -0.6227    2.6366    1.2402 H   0  0  0  0  0  0  0  0  0  0  0  0
    0.3535    1.8441    2.4865 H   0  0  0  0  0  0  0  0  0  0  0  0
   -1.4539   -0.7509    2.6997 H   0  0  0  0  0  0  0  0  0  0  0  0
   -0.5810   -1.6792    1.4756 H   0  0  0  0  0  0  0  0  0  0  0  0
    0.3088   -0.7297    2.6691 H   0  0  0  0  0  0  0  0  0  0  0  0
   -2.7526    0.4926    0.8333 H   0  0  0  0  0  0  0  0  0  0  0  0
   -1.8901   -0.5669   -0.2847 H   0  0  0  0  0  0  0  0  0  0  0  0
   -1.1738    1.3951   -1.3085 H   0  0  0  0  0  0  0  0  0  0  0  0
    1.4933   -0.9052   -2.5782 C   0  0  0  0  0  0  0  0  0  0  0  0
    1.4933   -0.9052   -1.2512 C   0  0  0  0  0  0  0  0  0  0  0  0
    1.4933    0.3637   -0.4499 C   0  0  0  0  0  0  0  0  0  0  0  0
    1.4933   -2.1741   -0.4499 C   0  0  0  0  0  0  0  0  0  0  0  0
    1.4933    0.0189   -3.1440 H   0  0  0  0  0  0  0  0  0  0  0  0
    1.4933   -1.8293   -3.1440 H   0  0  0  0  0  0  0  0  0  0  0  0
    0.4400    0.4166    0.3315 H   0  0  0  0  0  0  0  0  0  0  0  0
    2.3711    0.4077    0.2013 H   0  0  0  0  0  0  0  0  0  0  0  0
    1.4933    1.2466   -1.0884 H   0  0  0  0  0  0  0  0  0  0  0  0
    2.3710   -2.2182    0.2013 H   0  0  0  0  0  0  0  0  0  0  0  0
    0.6156   -2.2182    0.2013 H   0  0  0  0  0  0  0  0  0  0  0  0
    1.4933   -3.0570   -1.0884 H   0  0  0  0  0  0  0  0  0  0  0  0
  1  2  1  0
  1  6  1  0
  1  7  1  0
  1  8  1  0
  2  3  1  0
  2  4  1  0
  3  9  1  0
  3 10  1  0
  3 11  1  0
  4  5  1  0
  4 12  1  0
  4 13  1  0
  5 14  1  0
 15 16  2  3
 15 19  1  0
 15 20  1  0
 16 17  1  0
 16 18  1  0
 17 21  1  0
 17 22  1  0
 17 23  1  0
 18 24  1  0
 18 25  1  0
 18 26  1  0
M  RAD  1   2   2
M  END
>  <reaction>  (9) 
rxn_409

>  <mol_properties>  (9) 
{"1": {"label": "*3", "atom_type": "Cs"}, "3": {"label": "*4", "atom_type": "Cs"}, "15": {"label": "*0", "atom_type": "Cd"}, "16": {"label": "*1", "atom_type": "Cs"}, "20": {"label": "*2", "atom_type": "H0"}}

>  <type>  (9) 
unop_5

>  <geom_source>  (9) 
Heuristics

$$$$

     RDKit          3D

 26 24  0  0  0  0  0  0  0  0999 V2000
   -1.7896    1.4218    0.0297 C   0  0  0  0  0  0  0  0  0  0  0  0
   -0.6592    0.7404    0.7918 C   0  0  0  0  0  3  0  0  0  0  0  0
    0.3228    1.7573    1.3643 C   0  0  0  0  0  0  0  0  0  0  0  0
   -1.1977   -0.1501    1.9082 C   0  0  0  0  0  0  0  0  0  0  0  0
   -2.0638   -1.1712    1.4564 O   0  0  0  0  0  0  0  0  0  0  0  0
   -2.3312    2.1088    0.6863 H   0  0  0  0  0  0  0  0  0  0  0  0
   -2.5038    0.6917   -0.3510 H   0  0  0  0  0  0  0  0  0  0  0  0
   -1.4027    1.9989   -0.8123 H   0  0  0  0  0  0  0  0  0  0  0  0
   -0.1773    2.4145    2.0812 H   0  0  0  0  0  0  0  0  0  0  0  0
    1.1534    1.2698    1.8792 H   0  0  0  0  0  0  0  0  0  0  0  0
    0.7388    2.3856    0.5750 H   0  0  0  0  0  0  0  0  0  0  0  0
   -1.7881    0.4527    2.6036 H   0  0  0  0  0  0  0  0  0  0  0  0
   -0.3592   -0.5759    2.4753 H   0  0  0  0  0  0  0  0  0  0  0  0
   -1.5702   -1.7512    0.8744 H   0  0  0  0  0  0  0  0  0  0  0  0
    1.4515   -0.6345   -2.9024 C   0  0  0  0  0  0  0  0  0  0  0  0
    1.4515   -0.6345   -1.5754 C   0  0  0  0  0  0  0  0  0  0  0  0
    1.4515    0.6344   -0.7741 C   0  0  0  0  0  0  0  0  0  0  0  0
    1.4515   -1.9034   -0.7741 C   0  0  0  0  0  0  0  0  0  0  0  0
    1.4515    0.2896   -3.4683 H   0  0  0  0  0  0  0  0  0  0  0  0
    1.4515   -1.5586   -3.4683 H   0  0  0  0  0  0  0  0  0  0  0  0
    0.3983    0.6872    0.0073 H   0  0  0  0  0  0  0  0  0  0  0  0
    2.3293    0.6784   -0.1229 H   0  0  0  0  0  0  0  0  0  0  0  0
    1.4515    1.5173   -1.4126 H   0  0  0  0  0  0  0  0  0  0  0  0
    2.3293   -1.9475   -0.1229 H   0  0  0  0  0  0  0  0  0  0  0  0
    0.5738   -1.9475   -0.1229 H   0  0  0  0  0  0  0  0  0  0  0  0
    1.4515   -2.7863   -1.4126 H   0  0  0  0  0  0  0  0  0  0  0  0
  1  2  1  0
  1  6  1  0
  1  7  1  0
  1  8  1  0
  2  3  1  0
  2  4  1  0
  3  9  1  0
  3 10  1  0
  3 11  1  0
  4  5  1  0
  4 12  1  0
  4 13  1  0
  5 14  1  0
 15 16  2  3
 15 19  1  0
 15 20  1  0
 16 17  1  0
 16 18  1  0
 17 21  1  0
 17 22  1  0
 17 23  1  0
 18 24  1  0
 18 25  1  0
 18 26  1  0
M  RAD  1   2   2
M  END
>  <reaction>  (10) 
rxn_409

>  <mol_properties>  (10) 
{"1": {"label": "*3", "atom_type": "Cs"}, "3": {"label": "*4", "atom_type": "Cs"}, "15": {"label": "*0", "atom_type": "Cd"}, "16": {"label": "*1", "atom_type": "Cs"}, "20": {"label": "*2", "atom_type": "H0"}}

>  <type>  (10) 
unop_6

>  <geom_source>  (10) 
Heuristics

$$$$

     RDKit          3D

 26 24  0  0  0  0  0  0  0  0999 V2000
   -1.4254    1.9555    0.4855 C   0  0  0  0  0  0  0  0  0  0  0  0
   -0.6129    0.7205    0.8565 C   0  0  0  0  0  3  0  0  0  0  0  0
    0.5688    1.0763    1.7527 C   0  0  0  0  0  0  0  0  0  0  0  0
   -1.4822   -0.3351    1.5343 C   0  0  0  0  0  0  0  0  0  0  0  0
   -2.5652   -0.7775    0.7417 O   0  0  0  0  0  0  0  0  0  0  0  0
   -1.7986    2.4503    1.3868 H   0  0  0  0  0  0  0  0  0  0  0  0
   -2.2852    1.6908   -0.1299 H   0  0  0  0  0  0  0  0  0  0  0  0
   -0.8155    2.6757   -0.0634 H   0  0  0  0  0  0  0  0  0  0  0  0
    0.2212    1.5086    2.6952 H   0  0  0  0  0  0  0  0  0  0  0  0
    1.1736    0.1982    1.9896 H   0  0  0  0  0  0  0  0  0  0  0  0
    1.2167    1.8108    1.2716 H   0  0  0  0  0  0  0  0  0  0  0  0
   -1.9298    0.0861    2.4386 H   0  0  0  0  0  0  0  0  0  0  0  0
   -0.8564   -1.1829    1.8436 H   0  0  0  0  0  0  0  0  0  0  0  0
   -2.2131   -1.1951   -0.0459 H   0  0  0  0  0  0  0  0  0  0  0  0
    1.4978   -0.6543   -2.8377 C   0  0  0  0  0  0  0  0  0  0  0  0
    1.4978   -0.6543   -1.5107 C   0  0  0  0  0  0  0  0  0  0  0  0
    1.4978    0.6145   -0.7094 C   0  0  0  0  0  0  0  0  0  0  0  0
    1.4978   -1.9232   -0.7094 C   0  0  0  0  0  0  0  0  0  0  0  0
    1.4978    0.2698   -3.4036 H   0  0  0  0  0  0  0  0  0  0  0  0
    1.4978   -1.5785   -3.4036 H   0  0  0  0  0  0  0  0  0  0  0  0
    0.4445    0.6674    0.0720 H   0  0  0  0  0  0  0  0  0  0  0  0
    2.3755    0.6586   -0.0582 H   0  0  0  0  0  0  0  0  0  0  0  0
    1.4978    1.4974   -1.3479 H   0  0  0  0  0  0  0  0  0  0  0  0
    2.3755   -1.9673   -0.0582 H   0  0  0  0  0  0  0  0  0  0  0  0
    0.6201   -1.9673   -0.0582 H   0  0  0  0  0  0  0  0  0  0  0  0
    1.4978   -2.8061   -1.3479 H   0  0  0  0  0  0  0  0  0  0  0  0
  1  2  1  0
  1  6  1  0
  1  7  1  0
  1  8  1  0
  2  3  1  0
  2  4  1  0
  3  9  1  0
  3 10  1  0
  3 11  1  0
  4  5  1  0
  4 12  1  0
  4 13  1  0
  5 14  1  0
 15 16  2  3
 15 19  1  0
 15 20  1  0
 16 17  1  0
 16 18  1  0
 17 21  1  0
 17 22  1  0
 17 23  1  0
 18 24  1  0
 18 25  1  0
 18 26  1  0
M  RAD  1   2   2
M  END
>  <reaction>  (11) 
rxn_409

>  <mol_properties>  (11) 
{"1": {"label": "*3", "atom_type": "Cs"}, "3": {"label": "*4", "atom_type": "Cs"}, "15": {"label": "*0", "atom_type": "Cd"}, "16": {"label": "*1", "atom_type": "Cs"}, "20": {"label": "*2", "atom_type": "H0"}}

>  <type>  (11) 
unop_7

>  <geom_source>  (11) 
Heuristics

$$$$

     RDKit          3D

 26 24  0  0  0  0  0  0  0  0999 V2000
   -0.7267   -0.3256    2.1941 C   0  0  0  0  0  0  0  0  0  0  0  0
   -1.0853    0.3170    0.8594 C   0  0  0  0  0  3  0  0  0  0  0  0
   -2.5918    0.3099    0.6214 C   0  0  0  0  0  0  0  0  0  0  0  0
   -0.5493    1.7430    0.7660 C   0  0  0  0  0  0  0  0  0  0  0  0
    0.8540    1.8356    0.9037 O   0  0  0  0  0  0  0  0  0  0  0  0
   -1.2191    0.2028    3.0154 H   0  0  0  0  0  0  0  0  0  0  0  0
    0.3482   -0.2904    2.3718 H   0  0  0  0  0  0  0  0  0  0  0  0
   -1.0487   -1.3683    2.2263 H   0  0  0  0  0  0  0  0  0  0  0  0
   -3.1061    0.8933    1.3903 H   0  0  0  0  0  0  0  0  0  0  0  0
   -2.8482    0.7365   -0.3507 H   0  0  0  0  0  0  0  0  0  0  0  0
   -2.9881   -0.7061    0.6578 H   0  0  0  0  0  0  0  0  0  0  0  0
   -0.9668    2.3440    1.5784 H   0  0  0  0  0  0  0  0  0  0  0  0
   -0.8769    2.1974   -0.1785 H   0  0  0  0  0  0  0  0  0  0  0  0
    1.2613    1.3552    0.1812 H   0  0  0  0  0  0  0  0  0  0  0  0
    1.0254   -1.0579   -2.8348 C   0  0  0  0  0  0  0  0  0  0  0  0
    1.0254   -1.0579   -1.5078 C   0  0  0  0  0  0  0  0  0  0  0  0
    1.0254    0.2110   -0.7065 C   0  0  0  0  0  0  0  0  0  0  0  0
    1.0254   -2.3267   -0.7065 C   0  0  0  0  0  0  0  0  0  0  0  0
    1.0254   -0.1337   -3.4007 H   0  0  0  0  0  0  0  0  0  0  0  0
    1.0254   -1.9820   -3.4007 H   0  0  0  0  0  0  0  0  0  0  0  0
   -0.0278    0.2639    0.0749 H   0  0  0  0  0  0  0  0  0  0  0  0
    1.9032    0.2551   -0.0553 H   0  0  0  0  0  0  0  0  0  0  0  0
    1.0254    1.0939   -1.3450 H   0  0  0  0  0  0  0  0  0  0  0  0
    1.9032   -2.3708   -0.0553 H   0  0  0  0  0  0  0  0  0  0  0  0
    0.1477   -2.3708   -0.0553 H   0  0  0  0  0  0  0  0  0  0  0  0
    1.0254   -3.2096   -1.3450 H   0  0  0  0  0  0  0  0  0  0  0  0
  1  2  1  0
  1  6  1  0
  1  7  1  0
  1  8  1  0
  2  3  1  0
  2  4  1  0
  3  9  1  0
  3 10  1  0
  3 11  1  0
  4  5  1  0
  4 12  1  0
  4 13  1  0
  5 14  1  0
 15 16  2  3
 15 19  1  0
 15 20  1  0
 16 17  1  0
 16 18  1  0
 17 21  1  0
 17 22  1  0
 17 23  1  0
 18 24  1  0
 18 25  1  0
 18 26  1  0
M  RAD  1   2   2
M  END
>  <reaction>  (12) 
rxn_409

>  <mol_properties>  (12) 
{"1": {"label": "*3", "atom_type": "Cs"}, "3": {"label": "*4", "atom_type": "Cs"}, "15": {"label": "*0", "atom_type": "Cd"}, "16": {"label": "*1", "atom_type": "Cs"}, "20": {"label": "*2", "atom_type": "H0"}}

>  <type>  (12) 
unop_8

>  <geom_source>  (12) 
Heuristics

$$$$

     RDKit          3D

 26 24  0  0  0  0  0  0  0  0999 V2000
   -1.9497    0.0005    0.0197 C   0  0  0  0  0  0  0  0  0  0  0  0
   -0.8136    0.7626    0.6917 C   0  0  0  0  0  3  0  0  0  0  0  0
   -0.9645    2.2692    0.5081 C   0  0  0  0  0  0  0  0  0  0  0  0
   -0.7188    0.4252    2.1771 C   0  0  0  0  0  0  0  0  0  0  0  0
   -0.5052   -0.9470    2.4383 O   0  0  0  0  0  0  0  0  0  0  0  0
   -2.9136    0.3143    0.4305 H   0  0  0  0  0  0  0  0  0  0  0  0
   -1.8525   -1.0732    0.1800 H   0  0  0  0  0  0  0  0  0  0  0  0
   -1.9666    0.1897   -1.0554 H   0  0  0  0  0  0  0  0  0  0  0  0
   -1.8884    2.6235    0.9737 H   0  0  0  0  0  0  0  0  0  0  0  0
   -0.1319    2.8152    0.9571 H   0  0  0  0  0  0  0  0  0  0  0  0
   -1.0066    2.5314   -0.5503 H   0  0  0  0  0  0  0  0  0  0  0  0
   -1.6618    0.6771    2.6698 H   0  0  0  0  0  0  0  0  0  0  0  0
    0.0666    1.0352    2.6429 H   0  0  0  0  0  0  0  0  0  0  0  0
    0.3376   -1.1999    2.0583 H   0  0  0  0  0  0  0  0  0  0  0  0
    1.2971   -0.6123   -3.0025 C   0  0  0  0  0  0  0  0  0  0  0  0
    1.2971   -0.6123   -1.6755 C   0  0  0  0  0  0  0  0  0  0  0  0
    1.2971    0.6566   -0.8743 C   0  0  0  0  0  0  0  0  0  0  0  0
    1.2971   -1.8812   -0.8743 C   0  0  0  0  0  0  0  0  0  0  0  0
    1.2971    0.3118   -3.5684 H   0  0  0  0  0  0  0  0  0  0  0  0
    1.2971   -1.5364   -3.5684 H   0  0  0  0  0  0  0  0  0  0  0  0
    0.2438    0.7095   -0.0929 H   0  0  0  0  0  0  0  0  0  0  0  0
    2.1748    0.7007   -0.2231 H   0  0  0  0  0  0  0  0  0  0  0  0
    1.2971    1.5395   -1.5128 H   0  0  0  0  0  0  0  0  0  0  0  0
    2.1748   -1.9252   -0.2231 H   0  0  0  0  0  0  0  0  0  0  0  0
    0.4194   -1.9252   -0.2231 H   0  0  0  0  0  0  0  0  0  0  0  0
    1.2971   -2.7641   -1.5128 H   0  0  0  0  0  0  0  0  0  0  0  0
  1  2  1  0
  1  6  1  0
  1  7  1  0
  1  8  1  0
  2  3  1  0
  2  4  1  0
  3  9  1  0
  3 10  1  0
  3 11  1  0
  4  5  1  0
  4 12  1  0
  4 13  1  0
  5 14  1  0
 15 16  2  3
 15 19  1  0
 15 20  1  0
 16 17  1  0
 16 18  1  0
 17 21  1  0
 17 22  1  0
 17 23  1  0
 18 24  1  0
 18 25  1  0
 18 26  1  0
M  RAD  1   2   2
M  END
>  <reaction>  (13) 
rxn_409

>  <mol_properties>  (13) 
{"1": {"label": "*3", "atom_type": "Cs"}, "3": {"label": "*4", "atom_type": "Cs"}, "15": {"label": "*0", "atom_type": "Cd"}, "16": {"label": "*1", "atom_type": "Cs"}, "20": {"label": "*2", "atom_type": "H0"}}

>  <type>  (13) 
unop_9

>  <geom_source>  (13) 
Heuristics

$$$$

     RDKit          3D

 26 24  0  0  0  0  0  0  0  0999 V2000
   -1.0745   -0.7571    1.6865 C   0  0  0  0  0  0  0  0  0  0  0  0
   -1.1152    0.4391    0.7429 C   0  0  0  0  0  3  0  0  0  0  0  0
   -2.5478    0.8746    0.4523 C   0  0  0  0  0  0  0  0  0  0  0  0
   -0.3156    1.6143    1.2986 C   0  0  0  0  0  0  0  0  0  0  0  0
    1.0467    1.3190    1.5305 O   0  0  0  0  0  0  0  0  0  0  0  0
   -1.5710   -0.5142    2.6303 H   0  0  0  0  0  0  0  0  0  0  0  0
   -0.0480   -1.0444    1.9139 H   0  0  0  0  0  0  0  0  0  0  0  0
   -1.5863   -1.6175    1.2510 H   0  0  0  0  0  0  0  0  0  0  0  0
   -3.0478    1.1925    1.3715 H   0  0  0  0  0  0  0  0  0  0  0  0
   -2.5805    1.7082   -0.2526 H   0  0  0  0  0  0  0  0  0  0  0  0
   -3.1274    0.0530    0.0285 H   0  0  0  0  0  0  0  0  0  0  0  0
   -0.7243    1.9078    2.2693 H   0  0  0  0  0  0  0  0  0  0  0  0
   -0.4162    2.4774    0.6271 H   0  0  0  0  0  0  0  0  0  0  0  0
    1.4554    1.0976    0.6923 H   0  0  0  0  0  0  0  0  0  0  0  0
    0.9955   -0.9357   -2.9513 C   0  0  0  0  0  0  0  0  0  0  0  0
    0.9955   -0.9357   -1.6243 C   0  0  0  0  0  0  0  0  0  0  0  0
    0.9955    0.3331   -0.8230 C   0  0  0  0  0  0  0  0  0  0  0  0
    0.9955   -2.2046   -0.8230 C   0  0  0  0  0  0  0  0  0  0  0  0
    0.9955   -0.0116   -3.5172 H   0  0  0  0  0  0  0  0  0  0  0  0
    0.9955   -1.8598   -3.5172 H   0  0  0  0  0  0  0  0  0  0  0  0
   -0.0578    0.3860   -0.0416 H   0  0  0  0  0  0  0  0  0  0  0  0
    1.8732    0.3772   -0.1719 H   0  0  0  0  0  0  0  0  0  0  0  0
    0.9955    1.2161   -1.4615 H   0  0  0  0  0  0  0  0  0  0  0  0
    1.8732   -2.2487   -0.1719 H   0  0  0  0  0  0  0  0  0  0  0  0
    0.1178   -2.2487   -0.1719 H   0  0  0  0  0  0  0  0  0  0  0  0
    0.9955   -3.0875   -1.4615 H   0  0  0  0  0  0  0  0  0  0  0  0
  1  2  1  0
  1  6  1  0
  1  7  1  0
  1  8  1  0
  2  3  1  0
  2  4  1  0
  3  9  1  0
  3 10  1  0
  3 11  1  0
  4  5  1  0
  4 12  1  0
  4 13  1  0
  5 14  1  0
 15 16  2  3
 15 19  1  0
 15 20  1  0
 16 17  1  0
 16 18  1  0
 17 21  1  0
 17 22  1  0
 17 23  1  0
 18 24  1  0
 18 25  1  0
 18 26  1  0
M  RAD  1   2   2
M  END
>  <reaction>  (14) 
rxn_409

>  <mol_properties>  (14) 
{"1": {"label": "*3", "atom_type": "Cs"}, "3": {"label": "*4", "atom_type": "Cs"}, "15": {"label": "*0", "atom_type": "Cd"}, "16": {"label": "*1", "atom_type": "Cs"}, "20": {"label": "*2", "atom_type": "H0"}}

>  <type>  (14) 
unop_10

>  <geom_source>  (14) 
Heuristics

$$$$

     RDKit          3D

 26 24  0  0  0  0  0  0  0  0999 V2000
   -0.9506    2.1194    1.1680 C   0  0  0  0  0  0  0  0  0  0  0  0
   -0.5703    0.6566    0.9718 C   0  0  0  0  0  3  0  0  0  0  0  0
    0.3828    0.1749    2.0608 C   0  0  0  0  0  0  0  0  0  0  0  0
   -1.8055   -0.2387    0.9266 C   0  0  0  0  0  0  0  0  0  0  0  0
   -2.7133    0.0926   -0.1045 O   0  0  0  0  0  0  0  0  0  0  0  0
   -1.4239    2.2619    2.1437 H   0  0  0  0  0  0  0  0  0  0  0  0
   -1.6550    2.4489    0.4043 H   0  0  0  0  0  0  0  0  0  0  0  0
   -0.0693    2.7625    1.1265 H   0  0  0  0  0  0  0  0  0  0  0  0
   -0.0918    0.2387    3.0440 H   0  0  0  0  0  0  0  0  0  0  0  0
    0.6856   -0.8623    1.9014 H   0  0  0  0  0  0  0  0  0  0  0  0
    1.2850    0.7879    2.0893 H   0  0  0  0  0  0  0  0  0  0  0  0
   -2.3663   -0.1348    1.8594 H   0  0  0  0  0  0  0  0  0  0  0  0
   -1.4951   -1.2891    0.8470 H   0  0  0  0  0  0  0  0  0  0  0  0
   -2.2718   -0.0280   -0.9467 H   0  0  0  0  0  0  0  0  0  0  0  0
    1.5404   -0.7183   -2.7224 C   0  0  0  0  0  0  0  0  0  0  0  0
    1.5404   -0.7183   -1.3954 C   0  0  0  0  0  0  0  0  0  0  0  0
    1.5404    0.5506   -0.5941 C   0  0  0  0  0  0  0  0  0  0  0  0
    1.5404   -1.9872   -0.5941 C   0  0  0  0  0  0  0  0  0  0  0  0
    1.5404    0.2058   -3.2883 H   0  0  0  0  0  0  0  0  0  0  0  0
    1.5404   -1.6424   -3.2883 H   0  0  0  0  0  0  0  0  0  0  0  0
    0.4871    0.6035    0.1873 H   0  0  0  0  0  0  0  0  0  0  0  0
    2.4181    0.5946    0.0571 H   0  0  0  0  0  0  0  0  0  0  0  0
    1.5404    1.4335   -1.2326 H   0  0  0  0  0  0  0  0  0  0  0  0
    2.4181   -2.0313    0.0571 H   0  0  0  0  0  0  0  0  0  0  0  0
    0.6627   -2.0313    0.0571 H   0  0  0  0  0  0  0  0  0  0  0  0
    1.5404   -2.8701   -1.2326 H   0  0  0  0  0  0  0  0  0  0  0  0
  1  2  1  0
  1  6  1  0
  1  7  1  0
  1  8  1  0
  2  3  1  0
  2  4  1  0
  3  9  1  0
  3 10  1  0
  3 11  1  0
  4  5  1  0
  4 12  1  0
  4 13  1  0
  5 14  1  0
 15 16  2  3
 15 19  1  0
 15 20  1  0
 16 17  1  0
 16 18  1  0
 17 21  1  0
 17 22  1  0
 17 23  1  0
 18 24  1  0
 18 25  1  0
 18 26  1  0
M  RAD  1   2   2
M  END
>  <reaction>  (15) 
rxn_409

>  <mol_properties>  (15) 
{"1": {"label": "*3", "atom_type": "Cs"}, "3": {"label": "*4", "atom_type": "Cs"}, "15": {"label": "*0", "atom_type": "Cd"}, "16": {"label": "*1", "atom_type": "Cs"}, "20": {"label": "*2", "atom_type": "H0"}}

>  <type>  (15) 
unop_11

>  <geom_source>  (15) 
Heuristics

$$$$

     RDKit          3D

 26 24  0  0  0  0  0  0  0  0999 V2000
   -1.7707   -0.5544    0.4385 C   0  0  0  0  0  0  0  0  0  0  0  0
   -0.9484    0.7108    0.6535 C   0  0  0  0  0  3  0  0  0  0  0  0
   -1.7420    1.9623    0.2928 C   0  0  0  0  0  0  0  0  0  0  0  0
   -0.4436    0.8095    2.0905 C   0  0  0  0  0  0  0  0  0  0  0  0
    0.3647   -0.2794    2.4876 O   0  0  0  0  0  0  0  0  0  0  0  0
   -2.6813   -0.5237    1.0437 H   0  0  0  0  0  0  0  0  0  0  0  0
   -1.2087   -1.4428    0.7264 H   0  0  0  0  0  0  0  0  0  0  0  0
   -2.0673   -0.6563   -0.6072 H   0  0  0  0  0  0  0  0  0  0  0  0
   -2.6234    2.0575    0.9332 H   0  0  0  0  0  0  0  0  0  0  0  0
   -1.1425    2.8676    0.4110 H   0  0  0  0  0  0  0  0  0  0  0  0
   -2.0881    1.9209   -0.7412 H   0  0  0  0  0  0  0  0  0  0  0  0
   -1.2945    0.8124    2.7771 H   0  0  0  0  0  0  0  0  0  0  0  0
    0.0906    1.7591    2.2277 H   0  0  0  0  0  0  0  0  0  0  0  0
    1.1481   -0.2920    1.9354 H   0  0  0  0  0  0  0  0  0  0  0  0
    1.1623   -0.6641   -3.0407 C   0  0  0  0  0  0  0  0  0  0  0  0
    1.1623   -0.6641   -1.7137 C   0  0  0  0  0  0  0  0  0  0  0  0
    1.1623    0.6048   -0.9124 C   0  0  0  0  0  0  0  0  0  0  0  0
    1.1623   -1.9330   -0.9124 C   0  0  0  0  0  0  0  0  0  0  0  0
    1.1623    0.2600   -3.6066 H   0  0  0  0  0  0  0  0  0  0  0  0
    1.1623   -1.5882   -3.6066 H   0  0  0  0  0  0  0  0  0  0  0  0
    0.1090    0.6577   -0.1310 H   0  0  0  0  0  0  0  0  0  0  0  0
    2.0400    0.6488   -0.2612 H   0  0  0  0  0  0  0  0  0  0  0  0
    1.1623    1.4877   -1.5509 H   0  0  0  0  0  0  0  0  0  0  0  0
    2.0400   -1.9771   -0.2612 H   0  0  0  0  0  0  0  0  0  0  0  0
    0.2846   -1.9771   -0.2612 H   0  0  0  0  0  0  0  0  0  0  0  0
    1.1623   -2.8159   -1.5509 H   0  0  0  0  0  0  0  0  0  0  0  0
  1  2  1  0
  1  6  1  0
  1  7  1  0
  1  8  1  0
  2  3  1  0
  2  4  1  0
  3  9  1  0
  3 10  1  0
  3 11  1  0
  4  5  1  0
  4 12  1  0
  4 13  1  0
  5 14  1  0
 15 16  2  3
 15 19  1  0
 15 20  1  0
 16 17  1  0
 16 18  1  0
 17 21  1  0
 17 22  1  0
 17 23  1  0
 18 24  1  0
 18 25  1  0
 18 26  1  0
M  RAD  1   2   2
M  END
>  <reaction>  (16) 
rxn_409

>  <mol_properties>  (16) 
{"1": {"label": "*3", "atom_type": "Cs"}, "3": {"label": "*4", "atom_type": "Cs"}, "15": {"label": "*0", "atom_type": "Cd"}, "16": {"label": "*1", "atom_type": "Cs"}, "20": {"label": "*2", "atom_type": "H0"}}

>  <type>  (16) 
unop_12

>  <geom_source>  (16) 
Heuristics

$$$$

     RDKit          3D

 26 24  0  0  0  0  0  0  0  0999 V2000
   -2.8860    1.5086   -0.7280 O   0  0  0  0  0  0  0  0  0  0  0  0
   -1.2994   -0.2428   -0.2074 C   0  0  0  0  0  0  0  0  0  0  0  0
   -1.5179    1.2140   -0.6449 C   0  0  0  0  0  0  0  0  0  0  0  0
   -1.8856   -1.2258   -1.2271 C   0  0  0  0  0  0  0  0  0  0  0  0
   -1.8756   -0.4983    1.1899 C   0  0  0  0  0  0  0  0  0  0  0  0
    2.3100    1.4024    0.2703 C   0  0  0  0  0  0  0  0  0  0  0  0
    2.3916   -0.0918    0.3857 C   0  0  0  0  0  0  0  0  0  0  0  0
    1.1297   -0.8945    0.4797 C   0  0  0  0  0  0  0  0  0  0  0  0
    3.5829   -0.7034    0.4046 C   0  0  0  0  0  3  0  0  0  0  0  0
    0.0045   -0.4527   -0.1496 H   0  0  0  0  0  0  0  0  0  0  0  0
   -1.0374    1.3760   -1.6357 H   0  0  0  0  0  0  0  0  0  0  0  0
   -1.0303    1.8948    0.0882 H   0  0  0  0  0  0  0  0  0  0  0  0
   -2.9887   -1.1133   -1.2977 H   0  0  0  0  0  0  0  0  0  0  0  0
   -1.6507   -2.2687   -0.9261 H   0  0  0  0  0  0  0  0  0  0  0  0
   -1.4394   -1.0473   -2.2283 H   0  0  0  0  0  0  0  0  0  0  0  0
   -1.4223    0.2021    1.9229 H   0  0  0  0  0  0  0  0  0  0  0  0
   -1.6406   -1.5347    1.5128 H   0  0  0  0  0  0  0  0  0  0  0  0
   -2.9784   -0.3631    1.1951 H   0  0  0  0  0  0  0  0  0  0  0  0
    1.2517    1.7397    0.2698 H   0  0  0  0  0  0  0  0  0  0  0  0
    2.8317    1.8758    1.1289 H   0  0  0  0  0  0  0  0  0  0  0  0
    2.7874    1.7341   -0.6760 H   0  0  0  0  0  0  0  0  0  0  0  0
    3.6513   -1.7842    0.4878 H   0  0  0  0  0  0  0  0  0  0  0  0
    4.5028   -0.1300    0.3370 H   0  0  0  0  0  0  0  0  0  0  0  0
    1.0553   -1.5983   -0.3762 H   0  0  0  0  0  0  0  0  0  0  0  0
    1.0997   -1.4558    1.4375 H   0  0  0  0  0  0  0  0  0  0  0  0
   -2.9463    2.4572   -1.0132 H   0  0  0  0  0  0  0  0  0  0  0  0
  1  3  1  0
  1 26  1  0
  2  4  1  0
  2  5  1  0
  2  3  1  0
  2 10  1  0
  3 11  1  0
  3 12  1  0
  4 13  1  0
  4 14  1  0
  4 15  1  0
  5 16  1  0
  5 17  1  0
  5 18  1  0
  6  7  1  0
  6 19  1  0
  6 20  1  0
  6 21  1  0
  7  8  2  3
  7  9  1  0
  8 24  1  0
  8 25  1  0
  9 22  1  0
  9 23  1  0
M  RAD  1   9   2
M  END
>  <reaction>  (17) 
rxn_409

>  <mol_properties>  (17) 
{"1": {"label": "*3", "atom_type": "Cs"}, "3": {"label": "*4", "atom_type": "Cs"}, "15": {"label": "*0", "atom_type": "Cd"}, "16": {"label": "*1", "atom_type": "Cs"}, "20": {"label": "*2", "atom_type": "H0"}}

>  <type>  (17) 
unop_13

>  <geom_source>  (17) 
AutoTST

$$$$
