
     RDKit          3D

  9  8  0  0  0  0  0  0  0  0999 V2000
    1.1303   -0.2933   -0.7510 C   0  0  0  0  0  0  0  0  0  0  0  0
    0.2866    0.4560   -0.0588 C   0  0  0  0  0  0  0  0  0  0  0  0
   -0.9719   -0.0331    0.5823 C   0  0  0  0  0  0  0  0  0  0  0  0
    2.0274    0.1230   -1.1916 H   0  0  0  0  0  0  0  0  0  0  0  0
    0.9532   -1.3530   -0.9023 H   0  0  0  0  0  0  0  0  0  0  0  0
    0.5065    1.5132    0.0659 H   0  0  0  0  0  0  0  0  0  0  0  0
   -0.9526    0.1426    1.6610 H   0  0  0  0  0  0  0  0  0  0  0  0
   -1.1182   -1.1002    0.4106 H   0  0  0  0  0  0  0  0  0  0  0  0
   -1.8412    0.5010    0.1901 H   0  0  0  0  0  0  0  0  0  0  0  0
  1  2  2  3
  1  4  1  0
  1  5  1  0
  2  3  1  0
  2  6  1  0
  3  7  1  0
  3  8  1  0
  3  9  1  0
M  END
>  <reaction>  (1) 
rxn_761

>  <mol_properties>  (1) 
{"1": {"label": "donator", "atom_type": "Cd"}, "5": {"label": "d_hydrogen", "atom_type": "H0"}}

>  <type>  (1) 
r1h

$$$$

     RDKit          3D

  7  6  0  0  0  0  0  0  0  0999 V2000
   -0.6201    0.0189   -0.0017 C   0  0  0  0  0  0  0  0  0  0  0  0
    0.8589   -0.0553    0.0500 C   0  0  0  0  0  3  0  0  0  0  0  0
   -1.0738   -0.9730   -0.0559 H   0  0  0  0  0  0  0  0  0  0  0  0
   -0.9680    0.5706   -0.8872 H   0  0  0  0  0  0  0  0  0  0  0  0
   -1.0303    0.5369    0.8678 H   0  0  0  0  0  0  0  0  0  0  0  0
    1.3939   -0.8386   -0.4695 H   0  0  0  0  0  0  0  0  0  0  0  0
    1.4394    0.7404    0.4965 H   0  0  0  0  0  0  0  0  0  0  0  0
  1  2  1  0
  1  3  1  0
  1  4  1  0
  1  5  1  0
  2  6  1  0
  2  7  1  0
M  RAD  1   2   2
M  END
>  <reaction>  (2) 
rxn_761

>  <mol_properties>  (2) 
{"1": {"label": "acceptor", "atom_type": "Cs"}}

>  <type>  (2) 
r2

$$$$

     RDKit          3D

  8  7  0  0  0  0  0  0  0  0999 V2000
    0.7610    0.0250    0.0051 C   0  0  0  0  0  0  0  0  0  0  0  0
   -0.7610   -0.0250   -0.0051 C   0  0  0  0  0  0  0  0  0  0  0  0
    1.1904   -0.9237   -0.3217 H   0  0  0  0  0  0  0  0  0  0  0  0
    1.1359    0.8041   -0.6609 H   0  0  0  0  0  0  0  0  0  0  0  0
    1.1435    0.2336    1.0058 H   0  0  0  0  0  0  0  0  0  0  0  0
   -1.1435   -0.2336   -1.0058 H   0  0  0  0  0  0  0  0  0  0  0  0
   -1.1904    0.9237    0.3216 H   0  0  0  0  0  0  0  0  0  0  0  0
   -1.1359   -0.8041    0.6609 H   0  0  0  0  0  0  0  0  0  0  0  0
  1  2  1  0
  1  3  1  0
  1  4  1  0
  1  5  1  0
  2  6  1  0
  2  7  1  0
  2  8  1  0
M  END
>  <reaction>  (3) 
rxn_761

>  <mol_properties>  (3) 
{"0": {"label": "a_hydrogen", "atom_type": "H0"}, "2": {"label": "acceptor", "atom_type": "Cs"}}

>  <type>  (3) 
r2h

$$$$

     RDKit          3D

 16 14  0  0  0  0  0  0  0  0999 V2000
   -1.4328    1.5386   -0.6660 C   0  0  0  0  0  0  0  0  0  0  0  0
   -0.2980    0.9186   -0.4287 C   0  0  0  0  0  3  0  0  0  0  0  0
    1.0900    1.4332   -0.3541 C   0  0  0  0  0  0  0  0  0  0  0  0
   -2.3782    1.0072   -0.6839 H   0  0  0  0  0  0  0  0  0  0  0  0
   -1.4694    2.6104   -0.8553 H   0  0  0  0  0  0  0  0  0  0  0  0
   -0.3963   -0.4296   -0.2059 H   0  0  0  0  0  0  0  0  0  0  0  0
    1.5204    1.2454    0.6326 H   0  0  0  0  0  0  0  0  0  0  0  0
    1.1272    2.5099   -0.5462 H   0  0  0  0  0  0  0  0  0  0  0  0
    1.7300    0.9317   -1.0842 H   0  0  0  0  0  0  0  0  0  0  0  0
    0.4741   -1.9316    1.2485 C   0  0  0  0  0  0  0  0  0  0  0  0
   -0.4546   -1.7034    0.0838 C   0  0  0  0  0  0  0  0  0  0  0  0
    0.4669   -2.9771    1.5712 H   0  0  0  0  0  0  0  0  0  0  0  0
    0.1856   -1.3222    2.1073 H   0  0  0  0  0  0  0  0  0  0  0  0
    1.5042   -1.6783    0.9894 H   0  0  0  0  0  0  0  0  0  0  0  0
   -1.5080   -1.8692    0.3048 H   0  0  0  0  0  0  0  0  0  0  0  0
   -0.1608   -2.2032   -0.8379 H   0  0  0  0  0  0  0  0  0  0  0  0
  1  2  2  3
  1  4  1  0
  1  5  1  0
  2  3  1  0
  3  7  1  0
  3  8  1  0
  3  9  1  0
  6 11  1  0
 10 11  1  0
 10 12  1  0
 10 13  1  0
 10 14  1  0
 11 15  1  0
 11 16  1  0
M  RAD  1   2   2
M  END
>  <reaction>  (4) 
rxn_761

>  <mol_properties>  (4) 
{"0": {"label": "*4", "atom_type": "Cd"}, "1": {"label": "*3", "atom_type": "Cd"}, "5": {"label": "*2", "atom_type": "H0"}, "9": {"label": "*0", "atom_type": "Cs"}, "10": {"label": "*1", "atom_type": "Cs"}}

>  <type>  (4) 
ts

$$$$

     RDKit          3D

 16 14  0  0  0  0  0  0  0  0999 V2000
   -0.2562    0.7171   -1.9629 C   0  0  0  0  0  0  0  0  0  0  0  0
   -0.2562    0.7171   -0.6391 C   0  0  0  0  0  0  0  0  0  0  0  0
   -0.2562    1.9393    0.2214 C   0  0  0  0  0  0  0  0  0  0  0  0
   -0.2562   -0.2056   -2.5293 H   0  0  0  0  0  0  0  0  0  0  0  0
   -0.2562    1.6427   -2.5289 H   0  0  0  0  0  0  0  0  0  0  0  0
   -0.2562   -0.4260   -0.0109 H   0  0  0  0  0  0  0  0  0  0  0  0
   -1.1339    1.9564    0.8726 H   0  0  0  0  0  0  0  0  0  0  0  0
   -0.2562    2.8497   -0.3792 H   0  0  0  0  0  0  0  0  0  0  0  0
    0.6215    1.9564    0.8726 H   0  0  0  0  0  0  0  0  0  0  0  0
    0.9728   -1.7161    1.5077 C   0  0  0  0  0  0  0  0  0  0  0  0
   -0.2562   -1.5739    0.6199 C   0  0  0  0  0  3  0  0  0  0  0  0
    0.7213   -2.1879    2.4592 H   0  0  0  0  0  0  0  0  0  0  0  0
    1.4166   -0.7437    1.7283 H   0  0  0  0  0  0  0  0  0  0  0  0
    1.7390   -2.3278    1.0281 H   0  0  0  0  0  0  0  0  0  0  0  0
   -1.0224   -0.9622    1.0996 H   0  0  0  0  0  0  0  0  0  0  0  0
   -0.6999   -2.5463    0.3994 H   0  0  0  0  0  0  0  0  0  0  0  0
  1  2  2  3
  1  4  1  0
  1  5  1  0
  2  3  1  0
  2  6  1  0
  3  7  1  0
  3  8  1  0
  3  9  1  0
 10 11  1  0
 10 12  1  0
 10 13  1  0
 10 14  1  0
 11 15  1  0
 11 16  1  0
M  RAD  1  11   2
M  END
>  <reaction>  (5) 
rxn_761

>  <mol_properties>  (5) 
{"0": {"label": "*4", "atom_type": "Cd"}, "1": {"label": "*3", "atom_type": "Cd"}, "5": {"label": "*2", "atom_type": "H0"}, "9": {"label": "*0", "atom_type": "Cs"}, "10": {"label": "*1", "atom_type": "Cs"}}

>  <type>  (5) 
unop_1

>  <geom_source>  (5) 
Heuristics

$$$$

     RDKit          3D

 16 14  0  0  0  0  0  0  0  0999 V2000
   -0.1540    0.9197   -1.5992 C   0  0  0  0  0  0  0  0  0  0  0  0
   -0.1540    0.9197   -0.2755 C   0  0  0  0  0  0  0  0  0  0  0  0
   -0.1540    2.1419    0.5851 C   0  0  0  0  0  0  0  0  0  0  0  0
   -0.1540   -0.0030   -2.1657 H   0  0  0  0  0  0  0  0  0  0  0  0
   -0.1540    1.8453   -2.1652 H   0  0  0  0  0  0  0  0  0  0  0  0
   -0.1540   -0.2234    0.3528 H   0  0  0  0  0  0  0  0  0  0  0  0
   -1.0317    2.1590    1.2363 H   0  0  0  0  0  0  0  0  0  0  0  0
   -0.1540    3.0524   -0.0155 H   0  0  0  0  0  0  0  0  0  0  0  0
    0.7238    2.1590    1.2363 H   0  0  0  0  0  0  0  0  0  0  0  0
    0.5556   -2.4471    0.1725 C   0  0  0  0  0  0  0  0  0  0  0  0
   -0.1540   -1.3712    0.9835 C   0  0  0  0  0  3  0  0  0  0  0  0
    0.8375   -3.2945    0.8000 H   0  0  0  0  0  0  0  0  0  0  0  0
    1.4661   -2.0597   -0.2881 H   0  0  0  0  0  0  0  0  0  0  0  0
   -0.0835   -2.8262   -0.6269 H   0  0  0  0  0  0  0  0  0  0  0  0
    0.4851   -0.9921    1.7829 H   0  0  0  0  0  0  0  0  0  0  0  0
   -1.0644   -1.7586    1.4441 H   0  0  0  0  0  0  0  0  0  0  0  0
  1  2  2  3
  1  4  1  0
  1  5  1  0
  2  3  1  0
  2  6  1  0
  3  7  1  0
  3  8  1  0
  3  9  1  0
 10 11  1  0
 10 12  1  0
 10 13  1  0
 10 14  1  0
 11 15  1  0
 11 16  1  0
M  RAD  1  11   2
M  END
>  <reaction>  (6) 
rxn_761

>  <mol_properties>  (6) 
{"0": {"label": "*4", "atom_type": "Cd"}, "1": {"label": "*3", "atom_type": "Cd"}, "5": {"label": "*2", "atom_type": "H0"}, "9": {"label": "*0", "atom_type": "Cs"}, "10": {"label": "*1", "atom_type": "Cs"}}

>  <type>  (6) 
unop_2

>  <geom_source>  (6) 
Heuristics

$$$$

     RDKit          3D

 16 14  0  0  0  0  0  0  0  0999 V2000
   -0.1443    0.6677   -2.0558 C   0  0  0  0  0  0  0  0  0  0  0  0
   -0.1443    0.6677   -0.7320 C   0  0  0  0  0  0  0  0  0  0  0  0
   -0.1443    1.8899    0.1285 C   0  0  0  0  0  0  0  0  0  0  0  0
   -0.1443   -0.2550   -2.6222 H   0  0  0  0  0  0  0  0  0  0  0  0
   -0.1443    1.5933   -2.6218 H   0  0  0  0  0  0  0  0  0  0  0  0
   -0.1443   -0.4755   -0.1038 H   0  0  0  0  0  0  0  0  0  0  0  0
   -1.0220    1.9070    0.7797 H   0  0  0  0  0  0  0  0  0  0  0  0
   -0.1443    2.8003   -0.4721 H   0  0  0  0  0  0  0  0  0  0  0  0
    0.7335    1.9070    0.7797 H   0  0  0  0  0  0  0  0  0  0  0  0
    0.5653   -1.5154    1.8700 C   0  0  0  0  0  0  0  0  0  0  0  0
   -0.1443   -1.6233    0.5270 C   0  0  0  0  0  3  0  0  0  0  0  0
    0.1628   -2.2311    2.5890 H   0  0  0  0  0  0  0  0  0  0  0  0
    0.4524   -0.5179    2.2984 H   0  0  0  0  0  0  0  0  0  0  0  0
    1.6340   -1.7130    1.7701 H   0  0  0  0  0  0  0  0  0  0  0  0
   -1.2130   -1.4256    0.6269 H   0  0  0  0  0  0  0  0  0  0  0  0
   -0.0314   -2.6208    0.0987 H   0  0  0  0  0  0  0  0  0  0  0  0
  1  2  2  3
  1  4  1  0
  1  5  1  0
  2  3  1  0
  2  6  1  0
  3  7  1  0
  3  8  1  0
  3  9  1  0
 10 11  1  0
 10 12  1  0
 10 13  1  0
 10 14  1  0
 11 15  1  0
 11 16  1  0
M  RAD  1  11   2
M  END
>  <reaction>  (7) 
rxn_761

>  <mol_properties>  (7) 
{"0": {"label": "*4", "atom_type": "Cd"}, "1": {"label": "*3", "atom_type": "Cd"}, "5": {"label": "*2", "atom_type": "H0"}, "9": {"label": "*0", "atom_type": "Cs"}, "10": {"label": "*1", "atom_type": "Cs"}}

>  <type>  (7) 
unop_3

>  <geom_source>  (7) 
Heuristics

$$$$

     RDKit          3D

 16 14  0  0  0  0  0  0  0  0999 V2000
    0.2642    0.8637   -1.6984 C   0  0  0  0  0  0  0  0  0  0  0  0
    0.2642    0.8637   -0.3747 C   0  0  0  0  0  0  0  0  0  0  0  0
    0.2642    2.0859    0.4858 C   0  0  0  0  0  0  0  0  0  0  0  0
    0.2642   -0.0590   -2.2649 H   0  0  0  0  0  0  0  0  0  0  0  0
    0.2642    1.7893   -2.2644 H   0  0  0  0  0  0  0  0  0  0  0  0
    0.2642   -0.2795    0.2536 H   0  0  0  0  0  0  0  0  0  0  0  0
   -0.6135    2.1030    1.1371 H   0  0  0  0  0  0  0  0  0  0  0  0
    0.2642    2.9963   -0.1148 H   0  0  0  0  0  0  0  0  0  0  0  0
    1.1419    2.1030    1.1371 H   0  0  0  0  0  0  0  0  0  0  0  0
   -0.9648   -2.2530    0.5285 C   0  0  0  0  0  0  0  0  0  0  0  0
    0.2642   -1.4273    0.8843 C   0  0  0  0  0  3  0  0  0  0  0  0
   -1.2797   -2.8758    1.3676 H   0  0  0  0  0  0  0  0  0  0  0  0
   -0.7664   -2.9138   -0.3172 H   0  0  0  0  0  0  0  0  0  0  0  0
   -1.8066   -1.6134    0.2576 H   0  0  0  0  0  0  0  0  0  0  0  0
    1.1060   -2.0669    1.1552 H   0  0  0  0  0  0  0  0  0  0  0  0
    0.0658   -0.7665    1.7300 H   0  0  0  0  0  0  0  0  0  0  0  0
  1  2  2  3
  1  4  1  0
  1  5  1  0
  2  3  1  0
  2  6  1  0
  3  7  1  0
  3  8  1  0
  3  9  1  0
 10 11  1  0
 10 12  1  0
 10 13  1  0
 10 14  1  0
 11 15  1  0
 11 16  1  0
M  RAD  1  11   2
M  END
>  <reaction>  (8) 
rxn_761

>  <mol_properties>  (8) 
{"0": {"label": "*4", "atom_type": "Cd"}, "1": {"label": "*3", "atom_type": "Cd"}, "5": {"label": "*2", "atom_type": "H0"}, "9": {"label": "*0", "atom_type": "Cs"}, "10": {"label": "*1", "atom_type": "Cs"}}

>  <type>  (8) 
unop_4

>  <geom_source>  (8) 
Heuristics

$$$$

     RDKit          3D

 16 14  0  0  0  0  0  0  0  0999 V2000
   -0.0000    0.6518   -2.0882 C   0  0  0  0  0  0  0  0  0  0  0  0
   -0.0000    0.6518   -0.7645 C   0  0  0  0  0  0  0  0  0  0  0  0
   -0.0000    1.8739    0.0960 C   0  0  0  0  0  0  0  0  0  0  0  0
   -0.0000   -0.2710   -2.6547 H   0  0  0  0  0  0  0  0  0  0  0  0
   -0.0000    1.5774   -2.6542 H   0  0  0  0  0  0  0  0  0  0  0  0
    0.0000   -0.4914   -0.1363 H   0  0  0  0  0  0  0  0  0  0  0  0
   -0.8777    1.8911    0.7472 H   0  0  0  0  0  0  0  0  0  0  0  0
   -0.0000    2.7844   -0.5046 H   0  0  0  0  0  0  0  0  0  0  0  0
    0.8777    1.8911    0.7472 H   0  0  0  0  0  0  0  0  0  0  0  0
    0.0000   -1.4398    2.0042 C   0  0  0  0  0  0  0  0  0  0  0  0
    0.0000   -1.6392    0.4945 C   0  0  0  0  0  3  0  0  0  0  0  0
    0.0000   -2.3963    2.5298 H   0  0  0  0  0  0  0  0  0  0  0  0
   -0.8808   -0.8837    2.3300 H   0  0  0  0  0  0  0  0  0  0  0  0
    0.8808   -0.8837    2.3300 H   0  0  0  0  0  0  0  0  0  0  0  0
   -0.8808   -2.1952    0.1687 H   0  0  0  0  0  0  0  0  0  0  0  0
    0.8808   -2.1952    0.1687 H   0  0  0  0  0  0  0  0  0  0  0  0
  1  2  2  3
  1  4  1  0
  1  5  1  0
  2  3  1  0
  2  6  1  0
  3  7  1  0
  3  8  1  0
  3  9  1  0
 10 11  1  0
 10 12  1  0
 10 13  1  0
 10 14  1  0
 11 15  1  0
 11 16  1  0
M  RAD  1  11   2
M  END
>  <reaction>  (9) 
rxn_761

>  <mol_properties>  (9) 
{"0": {"label": "*4", "atom_type": "Cd"}, "1": {"label": "*3", "atom_type": "Cd"}, "5": {"label": "*2", "atom_type": "H0"}, "9": {"label": "*0", "atom_type": "Cs"}, "10": {"label": "*1", "atom_type": "Cs"}}

>  <type>  (9) 
unop_5

>  <geom_source>  (9) 
Heuristics

$$$$

     RDKit          3D

 16 14  0  0  0  0  0  0  0  0999 V2000
    0.3011    0.7891   -1.8319 C   0  0  0  0  0  0  0  0  0  0  0  0
    0.3011    0.7891   -0.5082 C   0  0  0  0  0  0  0  0  0  0  0  0
    0.3011    2.0113    0.3523 C   0  0  0  0  0  0  0  0  0  0  0  0
    0.3011   -0.1336   -2.3984 H   0  0  0  0  0  0  0  0  0  0  0  0
    0.3011    1.7147   -2.3979 H   0  0  0  0  0  0  0  0  0  0  0  0
    0.3011   -0.3540    0.1200 H   0  0  0  0  0  0  0  0  0  0  0  0
   -0.5766    2.0284    1.0035 H   0  0  0  0  0  0  0  0  0  0  0  0
    0.3011    2.9218   -0.2483 H   0  0  0  0  0  0  0  0  0  0  0  0
    1.1788    2.0284    1.0035 H   0  0  0  0  0  0  0  0  0  0  0  0
   -1.1180   -1.9859    1.0168 C   0  0  0  0  0  0  0  0  0  0  0  0
    0.3011   -1.5018    0.7508 C   0  0  0  0  0  3  0  0  0  0  0  0
   -1.2015   -2.4438    2.0040 H   0  0  0  0  0  0  0  0  0  0  0  0
   -1.4271   -2.7297    0.2804 H   0  0  0  0  0  0  0  0  0  0  0  0
   -1.8320   -1.1615    0.9735 H   0  0  0  0  0  0  0  0  0  0  0  0
    1.0151   -2.3261    0.7941 H   0  0  0  0  0  0  0  0  0  0  0  0
    0.6102   -0.7580    1.4873 H   0  0  0  0  0  0  0  0  0  0  0  0
  1  2  2  3
  1  4  1  0
  1  5  1  0
  2  3  1  0
  2  6  1  0
  3  7  1  0
  3  8  1  0
  3  9  1  0
 10 11  1  0
 10 12  1  0
 10 13  1  0
 10 14  1  0
 11 15  1  0
 11 16  1  0
M  RAD  1  11   2
M  END
>  <reaction>  (10) 
rxn_761

>  <mol_properties>  (10) 
{"0": {"label": "*4", "atom_type": "Cd"}, "1": {"label": "*3", "atom_type": "Cd"}, "5": {"label": "*2", "atom_type": "H0"}, "9": {"label": "*0", "atom_type": "Cs"}, "10": {"label": "*1", "atom_type": "Cs"}}

>  <type>  (10) 
unop_6

>  <geom_source>  (10) 
Heuristics

$$$$

     RDKit          3D

 16 14  0  0  0  0  0  0  0  0999 V2000
    0.2562    0.7171   -1.9629 C   0  0  0  0  0  0  0  0  0  0  0  0
    0.2562    0.7171   -0.6391 C   0  0  0  0  0  0  0  0  0  0  0  0
    0.2562    1.9393    0.2214 C   0  0  0  0  0  0  0  0  0  0  0  0
    0.2562   -0.2056   -2.5293 H   0  0  0  0  0  0  0  0  0  0  0  0
    0.2562    1.6427   -2.5289 H   0  0  0  0  0  0  0  0  0  0  0  0
    0.2562   -0.4260   -0.0109 H   0  0  0  0  0  0  0  0  0  0  0  0
   -0.6215    1.9564    0.8726 H   0  0  0  0  0  0  0  0  0  0  0  0
    0.2562    2.8497   -0.3792 H   0  0  0  0  0  0  0  0  0  0  0  0
    1.1339    1.9564    0.8726 H   0  0  0  0  0  0  0  0  0  0  0  0
   -0.9728   -1.7161    1.5077 C   0  0  0  0  0  0  0  0  0  0  0  0
    0.2562   -1.5739    0.6199 C   0  0  0  0  0  3  0  0  0  0  0  0
   -0.7213   -2.1879    2.4592 H   0  0  0  0  0  0  0  0  0  0  0  0
   -1.7390   -2.3278    1.0281 H   0  0  0  0  0  0  0  0  0  0  0  0
   -1.4166   -0.7437    1.7283 H   0  0  0  0  0  0  0  0  0  0  0  0
    0.6999   -2.5463    0.3994 H   0  0  0  0  0  0  0  0  0  0  0  0
    1.0224   -0.9622    1.0996 H   0  0  0  0  0  0  0  0  0  0  0  0
  1  2  2  3
  1  4  1  0
  1  5  1  0
  2  3  1  0
  2  6  1  0
  3  7  1  0
  3  8  1  0
  3  9  1  0
 10 11  1  0
 10 12  1  0
 10 13  1  0
 10 14  1  0
 11 15  1  0
 11 16  1  0
M  RAD  1  11   2
M  END
>  <reaction>  (11) 
rxn_761

>  <mol_properties>  (11) 
{"0": {"label": "*4", "atom_type": "Cd"}, "1": {"label": "*3", "atom_type": "Cd"}, "5": {"label": "*2", "atom_type": "H0"}, "9": {"label": "*0", "atom_type": "Cs"}, "10": {"label": "*1", "atom_type": "Cs"}}

>  <type>  (11) 
unop_7

>  <geom_source>  (11) 
Heuristics

$$$$

     RDKit          3D

 16 14  0  0  0  0  0  0  0  0999 V2000
   -0.3011    0.7891   -1.8319 C   0  0  0  0  0  0  0  0  0  0  0  0
   -0.3011    0.7891   -0.5082 C   0  0  0  0  0  0  0  0  0  0  0  0
   -0.3011    2.0113    0.3523 C   0  0  0  0  0  0  0  0  0  0  0  0
   -0.3011   -0.1336   -2.3984 H   0  0  0  0  0  0  0  0  0  0  0  0
   -0.3011    1.7147   -2.3979 H   0  0  0  0  0  0  0  0  0  0  0  0
   -0.3011   -0.3540    0.1200 H   0  0  0  0  0  0  0  0  0  0  0  0
   -1.1788    2.0284    1.0035 H   0  0  0  0  0  0  0  0  0  0  0  0
   -0.3011    2.9218   -0.2483 H   0  0  0  0  0  0  0  0  0  0  0  0
    0.5766    2.0284    1.0035 H   0  0  0  0  0  0  0  0  0  0  0  0
    1.1180   -1.9858    1.0168 C   0  0  0  0  0  0  0  0  0  0  0  0
   -0.3011   -1.5018    0.7508 C   0  0  0  0  0  3  0  0  0  0  0  0
    1.2015   -2.4438    2.0040 H   0  0  0  0  0  0  0  0  0  0  0  0
    1.8320   -1.1615    0.9735 H   0  0  0  0  0  0  0  0  0  0  0  0
    1.4271   -2.7297    0.2804 H   0  0  0  0  0  0  0  0  0  0  0  0
   -0.6102   -0.7580    1.4873 H   0  0  0  0  0  0  0  0  0  0  0  0
   -1.0151   -2.3261    0.7941 H   0  0  0  0  0  0  0  0  0  0  0  0
  1  2  2  3
  1  4  1  0
  1  5  1  0
  2  3  1  0
  2  6  1  0
  3  7  1  0
  3  8  1  0
  3  9  1  0
 10 11  1  0
 10 12  1  0
 10 13  1  0
 10 14  1  0
 11 15  1  0
 11 16  1  0
M  RAD  1  11   2
M  END
>  <reaction>  (12) 
rxn_761

>  <mol_properties>  (12) 
{"0": {"label": "*4", "atom_type": "Cd"}, "1": {"label": "*3", "atom_type": "Cd"}, "5": {"label": "*2", "atom_type": "H0"}, "9": {"label": "*0", "atom_type": "Cs"}, "10": {"label": "*1", "atom_type": "Cs"}}

>  <type>  (12) 
unop_8

>  <geom_source>  (12) 
Heuristics

$$$$

     RDKit          3D

 16 14  0  0  0  0  0  0  0  0999 V2000
    0.1540    0.9197   -1.5992 C   0  0  0  0  0  0  0  0  0  0  0  0
    0.1540    0.9197   -0.2755 C   0  0  0  0  0  0  0  0  0  0  0  0
    0.1540    2.1419    0.5851 C   0  0  0  0  0  0  0  0  0  0  0  0
    0.1540   -0.0030   -2.1657 H   0  0  0  0  0  0  0  0  0  0  0  0
    0.1540    1.8453   -2.1652 H   0  0  0  0  0  0  0  0  0  0  0  0
    0.1540   -0.2234    0.3528 H   0  0  0  0  0  0  0  0  0  0  0  0
   -0.7238    2.1590    1.2363 H   0  0  0  0  0  0  0  0  0  0  0  0
    0.1540    3.0524   -0.0155 H   0  0  0  0  0  0  0  0  0  0  0  0
    1.0317    2.1590    1.2363 H   0  0  0  0  0  0  0  0  0  0  0  0
   -0.5556   -2.4471    0.1725 C   0  0  0  0  0  0  0  0  0  0  0  0
    0.1540   -1.3712    0.9835 C   0  0  0  0  0  3  0  0  0  0  0  0
   -0.8375   -3.2945    0.8000 H   0  0  0  0  0  0  0  0  0  0  0  0
    0.0835   -2.8263   -0.6269 H   0  0  0  0  0  0  0  0  0  0  0  0
   -1.4661   -2.0597   -0.2881 H   0  0  0  0  0  0  0  0  0  0  0  0
    1.0644   -1.7586    1.4441 H   0  0  0  0  0  0  0  0  0  0  0  0
   -0.4851   -0.9921    1.7829 H   0  0  0  0  0  0  0  0  0  0  0  0
  1  2  2  3
  1  4  1  0
  1  5  1  0
  2  3  1  0
  2  6  1  0
  3  7  1  0
  3  8  1  0
  3  9  1  0
 10 11  1  0
 10 12  1  0
 10 13  1  0
 10 14  1  0
 11 15  1  0
 11 16  1  0
M  RAD  1  11   2
M  END
>  <reaction>  (13) 
rxn_761

>  <mol_properties>  (13) 
{"0": {"label": "*4", "atom_type": "Cd"}, "1": {"label": "*3", "atom_type": "Cd"}, "5": {"label": "*2", "atom_type": "H0"}, "9": {"label": "*0", "atom_type": "Cs"}, "10": {"label": "*1", "atom_type": "Cs"}}

>  <type>  (13) 
unop_9

>  <geom_source>  (13) 
Heuristics

$$$$

     RDKit          3D

 16 14  0  0  0  0  0  0  0  0999 V2000
   -0.2642    0.8637   -1.6984 C   0  0  0  0  0  0  0  0  0  0  0  0
   -0.2642    0.8637   -0.3747 C   0  0  0  0  0  0  0  0  0  0  0  0
   -0.2642    2.0859    0.4858 C   0  0  0  0  0  0  0  0  0  0  0  0
   -0.2642   -0.0590   -2.2649 H   0  0  0  0  0  0  0  0  0  0  0  0
   -0.2642    1.7893   -2.2644 H   0  0  0  0  0  0  0  0  0  0  0  0
   -0.2642   -0.2795    0.2536 H   0  0  0  0  0  0  0  0  0  0  0  0
   -1.1419    2.1030    1.1371 H   0  0  0  0  0  0  0  0  0  0  0  0
   -0.2642    2.9963   -0.1148 H   0  0  0  0  0  0  0  0  0  0  0  0
    0.6135    2.1030    1.1371 H   0  0  0  0  0  0  0  0  0  0  0  0
    0.9648   -2.2530    0.5285 C   0  0  0  0  0  0  0  0  0  0  0  0
   -0.2642   -1.4273    0.8843 C   0  0  0  0  0  3  0  0  0  0  0  0
    1.2797   -2.8759    1.3676 H   0  0  0  0  0  0  0  0  0  0  0  0
    1.8066   -1.6134    0.2576 H   0  0  0  0  0  0  0  0  0  0  0  0
    0.7664   -2.9138   -0.3172 H   0  0  0  0  0  0  0  0  0  0  0  0
   -0.0658   -0.7665    1.7300 H   0  0  0  0  0  0  0  0  0  0  0  0
   -1.1060   -2.0669    1.1552 H   0  0  0  0  0  0  0  0  0  0  0  0
  1  2  2  3
  1  4  1  0
  1  5  1  0
  2  3  1  0
  2  6  1  0
  3  7  1  0
  3  8  1  0
  3  9  1  0
 10 11  1  0
 10 12  1  0
 10 13  1  0
 10 14  1  0
 11 15  1  0
 11 16  1  0
M  RAD  1  11   2
M  END
>  <reaction>  (14) 
rxn_761

>  <mol_properties>  (14) 
{"0": {"label": "*4", "atom_type": "Cd"}, "1": {"label": "*3", "atom_type": "Cd"}, "5": {"label": "*2", "atom_type": "H0"}, "9": {"label": "*0", "atom_type": "Cs"}, "10": {"label": "*1", "atom_type": "Cs"}}

>  <type>  (14) 
unop_10

>  <geom_source>  (14) 
Heuristics

$$$$

     RDKit          3D

 16 14  0  0  0  0  0  0  0  0999 V2000
    0.1443    0.6677   -2.0558 C   0  0  0  0  0  0  0  0  0  0  0  0
    0.1443    0.6677   -0.7320 C   0  0  0  0  0  0  0  0  0  0  0  0
    0.1443    1.8899    0.1285 C   0  0  0  0  0  0  0  0  0  0  0  0
    0.1443   -0.2550   -2.6222 H   0  0  0  0  0  0  0  0  0  0  0  0
    0.1443    1.5933   -2.6218 H   0  0  0  0  0  0  0  0  0  0  0  0
    0.1443   -0.4755   -0.1038 H   0  0  0  0  0  0  0  0  0  0  0  0
   -0.7335    1.9070    0.7797 H   0  0  0  0  0  0  0  0  0  0  0  0
    0.1443    2.8003   -0.4721 H   0  0  0  0  0  0  0  0  0  0  0  0
    1.0220    1.9070    0.7797 H   0  0  0  0  0  0  0  0  0  0  0  0
   -0.5653   -1.5154    1.8700 C   0  0  0  0  0  0  0  0  0  0  0  0
    0.1443   -1.6233    0.5270 C   0  0  0  0  0  3  0  0  0  0  0  0
   -0.1628   -2.2311    2.5890 H   0  0  0  0  0  0  0  0  0  0  0  0
   -1.6340   -1.7130    1.7701 H   0  0  0  0  0  0  0  0  0  0  0  0
   -0.4524   -0.5179    2.2984 H   0  0  0  0  0  0  0  0  0  0  0  0
    0.0314   -2.6208    0.0987 H   0  0  0  0  0  0  0  0  0  0  0  0
    1.2130   -1.4256    0.6269 H   0  0  0  0  0  0  0  0  0  0  0  0
  1  2  2  3
  1  4  1  0
  1  5  1  0
  2  3  1  0
  2  6  1  0
  3  7  1  0
  3  8  1  0
  3  9  1  0
 10 11  1  0
 10 12  1  0
 10 13  1  0
 10 14  1  0
 11 15  1  0
 11 16  1  0
M  RAD  1  11   2
M  END
>  <reaction>  (15) 
rxn_761

>  <mol_properties>  (15) 
{"0": {"label": "*4", "atom_type": "Cd"}, "1": {"label": "*3", "atom_type": "Cd"}, "5": {"label": "*2", "atom_type": "H0"}, "9": {"label": "*0", "atom_type": "Cs"}, "10": {"label": "*1", "atom_type": "Cs"}}

>  <type>  (15) 
unop_11

>  <geom_source>  (15) 
Heuristics

$$$$

     RDKit          3D

 16 14  0  0  0  0  0  0  0  0999 V2000
   -0.0000    0.9406   -1.5626 C   0  0  0  0  0  0  0  0  0  0  0  0
   -0.0000    0.9406   -0.2388 C   0  0  0  0  0  0  0  0  0  0  0  0
   -0.0000    2.1628    0.6217 C   0  0  0  0  0  0  0  0  0  0  0  0
   -0.0000    0.0179   -2.1290 H   0  0  0  0  0  0  0  0  0  0  0  0
   -0.0000    1.8662   -2.1286 H   0  0  0  0  0  0  0  0  0  0  0  0
   -0.0000   -0.2025    0.3894 H   0  0  0  0  0  0  0  0  0  0  0  0
   -0.8777    2.1799    1.2729 H   0  0  0  0  0  0  0  0  0  0  0  0
   -0.0000    3.0733    0.0211 H   0  0  0  0  0  0  0  0  0  0  0  0
    0.8777    2.1799    1.2729 H   0  0  0  0  0  0  0  0  0  0  0  0
    0.0000   -2.5178    0.0425 C   0  0  0  0  0  0  0  0  0  0  0  0
    0.0000   -1.3503    1.0202 C   0  0  0  0  0  3  0  0  0  0  0  0
   -0.0000   -3.4743    0.5682 H   0  0  0  0  0  0  0  0  0  0  0  0
    0.8808   -2.4948   -0.6015 H   0  0  0  0  0  0  0  0  0  0  0  0
   -0.8808   -2.4948   -0.6015 H   0  0  0  0  0  0  0  0  0  0  0  0
    0.8808   -1.3733    1.6642 H   0  0  0  0  0  0  0  0  0  0  0  0
   -0.8808   -1.3733    1.6642 H   0  0  0  0  0  0  0  0  0  0  0  0
  1  2  2  3
  1  4  1  0
  1  5  1  0
  2  3  1  0
  2  6  1  0
  3  7  1  0
  3  8  1  0
  3  9  1  0
 10 11  1  0
 10 12  1  0
 10 13  1  0
 10 14  1  0
 11 15  1  0
 11 16  1  0
M  RAD  1  11   2
M  END
>  <reaction>  (16) 
rxn_761

>  <mol_properties>  (16) 
{"0": {"label": "*4", "atom_type": "Cd"}, "1": {"label": "*3", "atom_type": "Cd"}, "5": {"label": "*2", "atom_type": "H0"}, "9": {"label": "*0", "atom_type": "Cs"}, "10": {"label": "*1", "atom_type": "Cs"}}

>  <type>  (16) 
unop_12

>  <geom_source>  (16) 
Heuristics

$$$$

     RDKit          3D

 16 14  0  0  0  0  0  0  0  0999 V2000
   -1.2793    0.7921    0.0405 C   0  0  0  0  0  3  0  0  0  0  0  0
   -2.4672   -0.1457    0.1593 C   0  0  0  0  0  0  0  0  0  0  0  0
    2.1215    0.3252    0.7371 C   0  0  0  0  0  0  0  0  0  0  0  0
    1.3969   -1.0695   -1.1699 C   0  0  0  0  0  0  0  0  0  0  0  0
    1.1049   -0.1469   -0.2525 C   0  0  0  0  0  0  0  0  0  0  0  0
   -1.3166    1.5524    0.8489 H   0  0  0  0  0  0  0  0  0  0  0  0
   -1.3008    1.3052   -0.9441 H   0  0  0  0  0  0  0  0  0  0  0  0
   -0.1206    0.0776    0.1492 H   0  0  0  0  0  0  0  0  0  0  0  0
   -3.4128    0.4297    0.0716 H   0  0  0  0  0  0  0  0  0  0  0  0
   -2.4254   -0.9060   -0.6484 H   0  0  0  0  0  0  0  0  0  0  0  0
   -2.4412   -0.6589    1.1432 H   0  0  0  0  0  0  0  0  0  0  0  0
    2.9853    0.7797    0.2075 H   0  0  0  0  0  0  0  0  0  0  0  0
    1.6603    1.0880    1.3974 H   0  0  0  0  0  0  0  0  0  0  0  0
    2.4720   -0.5264    1.3578 H   0  0  0  0  0  0  0  0  0  0  0  0
    2.3886   -1.5085   -1.2258 H   0  0  0  0  0  0  0  0  0  0  0  0
    0.6344   -1.3881   -1.8719 H   0  0  0  0  0  0  0  0  0  0  0  0
  1  2  1  0
  1  6  1  0
  1  7  1  0
  2  9  1  0
  2 10  1  0
  2 11  1  0
  3  5  1  0
  3 12  1  0
  3 13  1  0
  3 14  1  0
  4  5  2  3
  4 15  1  0
  4 16  1  0
  5  8  1  0
M  RAD  1   1   2
M  END
>  <reaction>  (17) 
rxn_761

>  <mol_properties>  (17) 
{"0": {"label": "*4", "atom_type": "Cd"}, "1": {"label": "*3", "atom_type": "Cd"}, "5": {"label": "*2", "atom_type": "H0"}, "9": {"label": "*0", "atom_type": "Cs"}, "10": {"label": "*1", "atom_type": "Cs"}}

>  <type>  (17) 
unop_13

>  <geom_source>  (17) 
AutoTST

$$$$
