
     RDKit          3D

 12 11  0  0  0  0  0  0  0  0999 V2000
    1.2394   -0.3763   -0.3020 C   0  0  0  0  0  0  0  0  0  0  0  0
    0.1007    0.3023    0.4464 C   0  0  0  0  0  0  0  0  0  0  0  0
   -0.1187    2.0399   -0.0725 S   0  0  0  0  0  0  0  0  0  0  0  0
   -1.1974   -0.4877    0.3552 C   0  0  0  0  0  0  0  0  0  0  0  0
    2.1681    0.1849   -0.2048 H   0  0  0  0  0  0  0  0  0  0  0  0
    1.0031   -0.4606   -1.3656 H   0  0  0  0  0  0  0  0  0  0  0  0
    1.3994   -1.3856    0.0860 H   0  0  0  0  0  0  0  0  0  0  0  0
    0.3796    0.4050    1.4981 H   0  0  0  0  0  0  0  0  0  0  0  0
   -0.4500    1.7779   -1.3452 H   0  0  0  0  0  0  0  0  0  0  0  0
   -1.0545   -1.4978    0.7479 H   0  0  0  0  0  0  0  0  0  0  0  0
   -1.5206   -0.5759   -0.6849 H   0  0  0  0  0  0  0  0  0  0  0  0
   -1.9957   -0.0054    0.9183 H   0  0  0  0  0  0  0  0  0  0  0  0
  1  2  1  0
  1  5  1  0
  1  6  1  0
  1  7  1  0
  2  4  1  0
  2  3  1  0
  2  8  1  0
  3  9  1  0
  4 10  1  0
  4 11  1  0
  4 12  1  0
M  END
>  <reaction>  (1) 
rxn_1910

>  <mol_properties>  (1) 
{"1": {"label": "donator", "atom_type": "Cs"}, "7": {"label": "d_hydrogen", "atom_type": "H0"}}

>  <type>  (1) 
r1h

$$$$

     RDKit          3D

 10  9  0  0  0  0  0  0  0  0999 V2000
    1.2930    0.1441    0.3288 C   0  0  0  0  0  0  0  0  0  0  0  0
   -0.0374   -0.1647    0.9100 C   0  0  0  0  0  3  0  0  0  0  0  0
   -1.2664    0.4569    0.3567 C   0  0  0  0  0  0  0  0  0  0  0  0
    1.4384    1.2242    0.2174 H   0  0  0  0  0  0  0  0  0  0  0  0
    2.1077   -0.2477    0.9385 H   0  0  0  0  0  0  0  0  0  0  0  0
    1.4057   -0.2836   -0.6789 H   0  0  0  0  0  0  0  0  0  0  0  0
   -0.1309   -0.9912    1.6030 H   0  0  0  0  0  0  0  0  0  0  0  0
   -1.5005    0.0716   -0.6471 H   0  0  0  0  0  0  0  0  0  0  0  0
   -2.1382    0.2713    0.9849 H   0  0  0  0  0  0  0  0  0  0  0  0
   -1.1497    1.5406    0.2456 H   0  0  0  0  0  0  0  0  0  0  0  0
  1  2  1  0
  1  4  1  0
  1  5  1  0
  1  6  1  0
  2  3  1  0
  2  7  1  0
  3  8  1  0
  3  9  1  0
  3 10  1  0
M  RAD  1   2   2
M  END
>  <reaction>  (2) 
rxn_1910

>  <mol_properties>  (2) 
{"1": {"label": "acceptor", "atom_type": "Cs"}}

>  <type>  (2) 
r2

$$$$

     RDKit          3D

 11 10  0  0  0  0  0  0  0  0999 V2000
   -1.2710    0.1907   -0.2084 C   0  0  0  0  0  0  0  0  0  0  0  0
    0.0202   -0.6130   -0.2928 C   0  0  0  0  0  0  0  0  0  0  0  0
    0.1086   -1.6953    0.7756 C   0  0  0  0  0  0  0  0  0  0  0  0
   -1.3607    0.6851    0.7620 H   0  0  0  0  0  0  0  0  0  0  0  0
   -2.1429   -0.4567   -0.3299 H   0  0  0  0  0  0  0  0  0  0  0  0
   -1.3158    0.9602   -0.9809 H   0  0  0  0  0  0  0  0  0  0  0  0
    0.8757    0.0616   -0.1992 H   0  0  0  0  0  0  0  0  0  0  0  0
    0.0997   -1.0712   -1.2825 H   0  0  0  0  0  0  0  0  0  0  0  0
   -0.7198   -2.4022    0.6850 H   0  0  0  0  0  0  0  0  0  0  0  0
    1.0395   -2.2596    0.6989 H   0  0  0  0  0  0  0  0  0  0  0  0
    0.0624   -1.2603    1.7770 H   0  0  0  0  0  0  0  0  0  0  0  0
  1  2  1  0
  1  4  1  0
  1  5  1  0
  1  6  1  0
  2  3  1  0
  2  7  1  0
  2  8  1  0
  3  9  1  0
  3 10  1  0
  3 11  1  0
M  END
>  <reaction>  (3) 
rxn_1910

>  <mol_properties>  (3) 
{"0": {"label": "a_hydrogen", "atom_type": "H0"}, "2": {"label": "acceptor", "atom_type": "Cs"}}

>  <type>  (3) 
r2h

$$$$

     RDKit          3D

 22 20  0  0  0  0  0  0  0  0999 V2000
    0.4091    0.6233   -1.9484 C   0  0  0  0  0  0  0  0  0  0  0  0
    0.4570    0.7525   -0.4468 C   0  0  0  0  0  0  0  0  0  0  0  0
    1.7458   -0.2215    0.3417 S   0  0  0  0  0  0  0  0  0  0  0  0
    0.3208    2.1619    0.0740 C   0  0  0  0  0  0  0  0  0  0  0  0
    0.4157   -0.4221   -2.2566 H   0  0  0  0  0  0  0  0  0  0  0  0
    1.2706    1.1170   -2.4130 H   0  0  0  0  0  0  0  0  0  0  0  0
   -0.4937    1.0983   -2.3422 H   0  0  0  0  0  0  0  0  0  0  0  0
   -0.6501    0.1268   -0.0226 H   0  0  0  0  0  0  0  0  0  0  0  0
    2.7959    0.2756   -0.3355 H   0  0  0  0  0  0  0  0  0  0  0  0
   -0.5867    2.6269   -0.3213 H   0  0  0  0  0  0  0  0  0  0  0  0
    1.1725    2.7788   -0.2337 H   0  0  0  0  0  0  0  0  0  0  0  0
    0.2742    2.1790    1.1629 H   0  0  0  0  0  0  0  0  0  0  0  0
   -1.6640   -0.5513    1.8857 C   0  0  0  0  0  0  0  0  0  0  0  0
   -1.7712   -0.5047    0.3846 C   0  0  0  0  0  3  0  0  0  0  0  0
   -1.7463   -1.8323   -0.3246 C   0  0  0  0  0  0  0  0  0  0  0  0
   -0.7718   -1.1004    2.1973 H   0  0  0  0  0  0  0  0  0  0  0  0
   -1.6110    0.4500    2.3163 H   0  0  0  0  0  0  0  0  0  0  0  0
   -2.5295   -1.0573    2.3282 H   0  0  0  0  0  0  0  0  0  0  0  0
   -2.5546    0.1650    0.0273 H   0  0  0  0  0  0  0  0  0  0  0  0
   -2.5940   -2.4582   -0.0232 H   0  0  0  0  0  0  0  0  0  0  0  0
   -1.7948   -1.7104   -1.4078 H   0  0  0  0  0  0  0  0  0  0  0  0
   -0.8323   -2.3828   -0.0869 H   0  0  0  0  0  0  0  0  0  0  0  0
  1  2  1  0
  1  5  1  0
  1  6  1  0
  1  7  1  0
  2  4  1  0
  2  3  1  0
  2  8  1  0
  3  9  1  0
  4 10  1  0
  4 11  1  0
  4 12  1  0
 13 14  1  0
 13 16  1  0
 13 17  1  0
 13 18  1  0
 14 15  1  0
 14 19  1  0
 15 20  1  0
 15 21  1  0
 15 22  1  0
M  RAD  1  14   2
M  END
>  <reaction>  (4) 
rxn_1910

>  <mol_properties>  (4) 
{"1": {"label": "*1", "atom_type": "Cs"}, "2": {"label": "*0", "atom_type": "S2s"}, "7": {"label": "*2", "atom_type": "H0"}, "12": {"label": "*4", "atom_type": "Cs"}, "13": {"label": "*3", "atom_type": "Cs"}}

>  <type>  (4) 
ts

$$$$

     RDKit          3D

 22 20  0  0  0  0  0  0  0  0999 V2000
    0.5311    0.7165   -1.9426 C   0  0  0  0  0  0  0  0  0  0  0  0
    0.5311    0.7165   -0.4203 C   0  0  0  0  0  0  0  0  0  0  0  0
    1.8861   -0.2999    0.2633 S   0  0  0  0  0  0  0  0  0  0  0  0
    0.5311    2.1265    0.1538 C   0  0  0  0  0  0  0  0  0  0  0  0
    0.5025   -0.2977   -2.3393 H   0  0  0  0  0  0  0  0  0  0  0  0
    1.4295    1.2062   -2.3262 H   0  0  0  0  0  0  0  0  0  0  0  0
   -0.3359    1.2639   -2.3214 H   0  0  0  0  0  0  0  0  0  0  0  0
   -0.5368    0.0846    0.0047 H   0  0  0  0  0  0  0  0  0  0  0  0
    2.8924    0.4356   -0.2313 H   0  0  0  0  0  0  0  0  0  0  0  0
   -0.3359    2.6837   -0.2104 H   0  0  0  0  0  0  0  0  0  0  0  0
    1.4295    2.6664   -0.1552 H   0  0  0  0  0  0  0  0  0  0  0  0
    0.5025    2.1114    1.2427 H   0  0  0  0  0  0  0  0  0  0  0  0
   -1.1843   -1.7439    1.2737 C   0  0  0  0  0  0  0  0  0  0  0  0
   -1.6052   -0.5475    0.4299 C   0  0  0  0  0  3  0  0  0  0  0  0
   -3.0383   -0.6602   -0.0741 C   0  0  0  0  0  0  0  0  0  0  0  0
   -1.2539   -2.6709    0.6993 H   0  0  0  0  0  0  0  0  0  0  0  0
   -0.1559   -1.6450    1.6252 H   0  0  0  0  0  0  0  0  0  0  0  0
   -1.8286   -1.8501    2.1498 H   0  0  0  0  0  0  0  0  0  0  0  0
   -1.4969    0.3684    1.0174 H   0  0  0  0  0  0  0  0  0  0  0  0
   -3.7411   -0.7322    0.7595 H   0  0  0  0  0  0  0  0  0  0  0  0
   -3.3211    0.2052   -0.6759 H   0  0  0  0  0  0  0  0  0  0  0  0
   -3.1664   -1.5530   -0.6910 H   0  0  0  0  0  0  0  0  0  0  0  0
  1  2  1  0
  1  5  1  0
  1  6  1  0
  1  7  1  0
  2  4  1  0
  2  3  1  0
  2  8  1  0
  3  9  1  0
  4 10  1  0
  4 11  1  0
  4 12  1  0
 13 14  1  0
 13 16  1  0
 13 17  1  0
 13 18  1  0
 14 15  1  0
 14 19  1  0
 15 20  1  0
 15 21  1  0
 15 22  1  0
M  RAD  1  14   2
M  END
>  <reaction>  (5) 
rxn_1910

>  <mol_properties>  (5) 
{"1": {"label": "*1", "atom_type": "Cs"}, "2": {"label": "*0", "atom_type": "S2s"}, "7": {"label": "*2", "atom_type": "H0"}, "12": {"label": "*4", "atom_type": "Cs"}, "13": {"label": "*3", "atom_type": "Cs"}}

>  <type>  (5) 
unop_1

>  <geom_source>  (5) 
Heuristics

$$$$

     RDKit          3D

 22 20  0  0  0  0  0  0  0  0999 V2000
    0.6050    0.5999   -1.8429 C   0  0  0  0  0  0  0  0  0  0  0  0
    0.6050    0.5999   -0.3206 C   0  0  0  0  0  0  0  0  0  0  0  0
    1.9600   -0.4165    0.3630 S   0  0  0  0  0  0  0  0  0  0  0  0
    0.6050    2.0099    0.2535 C   0  0  0  0  0  0  0  0  0  0  0  0
    0.5764   -0.4143   -2.2396 H   0  0  0  0  0  0  0  0  0  0  0  0
    1.5034    1.0896   -2.2265 H   0  0  0  0  0  0  0  0  0  0  0  0
   -0.2620    1.1473   -2.2217 H   0  0  0  0  0  0  0  0  0  0  0  0
   -0.4629   -0.0320    0.1044 H   0  0  0  0  0  0  0  0  0  0  0  0
    2.9663    0.3190   -0.1316 H   0  0  0  0  0  0  0  0  0  0  0  0
   -0.2620    2.5671   -0.1107 H   0  0  0  0  0  0  0  0  0  0  0  0
    1.5034    2.5498   -0.0555 H   0  0  0  0  0  0  0  0  0  0  0  0
    0.5764    1.9948    1.3424 H   0  0  0  0  0  0  0  0  0  0  0  0
   -1.9253   -1.7318   -0.4830 C   0  0  0  0  0  0  0  0  0  0  0  0
   -1.5313   -0.6642    0.5296 C   0  0  0  0  0  3  0  0  0  0  0  0
   -2.7357    0.0599    1.1174 C   0  0  0  0  0  0  0  0  0  0  0  0
   -2.4790   -1.2939   -1.3170 H   0  0  0  0  0  0  0  0  0  0  0  0
   -1.0500   -2.2389   -0.8925 H   0  0  0  0  0  0  0  0  0  0  0  0
   -2.5659   -2.4885   -0.0236 H   0  0  0  0  0  0  0  0  0  0  0  0
   -0.9532   -1.1233    1.3363 H   0  0  0  0  0  0  0  0  0  0  0  0
   -3.4019   -0.6403    1.6273 H   0  0  0  0  0  0  0  0  0  0  0  0
   -2.4336    0.8201    1.8398 H   0  0  0  0  0  0  0  0  0  0  0  0
   -3.3150    0.5544    0.3338 H   0  0  0  0  0  0  0  0  0  0  0  0
  1  2  1  0
  1  5  1  0
  1  6  1  0
  1  7  1  0
  2  4  1  0
  2  3  1  0
  2  8  1  0
  3  9  1  0
  4 10  1  0
  4 11  1  0
  4 12  1  0
 13 14  1  0
 13 16  1  0
 13 17  1  0
 13 18  1  0
 14 15  1  0
 14 19  1  0
 15 20  1  0
 15 21  1  0
 15 22  1  0
M  RAD  1  14   2
M  END
>  <reaction>  (6) 
rxn_1910

>  <mol_properties>  (6) 
{"1": {"label": "*1", "atom_type": "Cs"}, "2": {"label": "*0", "atom_type": "S2s"}, "7": {"label": "*2", "atom_type": "H0"}, "12": {"label": "*4", "atom_type": "Cs"}, "13": {"label": "*3", "atom_type": "Cs"}}

>  <type>  (6) 
unop_2

>  <geom_source>  (6) 
Heuristics

$$$$

     RDKit          3D

 22 20  0  0  0  0  0  0  0  0999 V2000
    0.4982    0.7311   -1.9643 C   0  0  0  0  0  0  0  0  0  0  0  0
    0.4982    0.7311   -0.4420 C   0  0  0  0  0  0  0  0  0  0  0  0
    1.8533   -0.2853    0.2417 S   0  0  0  0  0  0  0  0  0  0  0  0
    0.4982    2.1411    0.1321 C   0  0  0  0  0  0  0  0  0  0  0  0
    0.4697   -0.2832   -2.3609 H   0  0  0  0  0  0  0  0  0  0  0  0
    1.3967    1.2208   -2.3479 H   0  0  0  0  0  0  0  0  0  0  0  0
   -0.3687    1.2785   -2.3431 H   0  0  0  0  0  0  0  0  0  0  0  0
   -0.5696    0.0992   -0.0170 H   0  0  0  0  0  0  0  0  0  0  0  0
    2.8595    0.4502   -0.2530 H   0  0  0  0  0  0  0  0  0  0  0  0
   -0.3687    2.6983   -0.2321 H   0  0  0  0  0  0  0  0  0  0  0  0
    1.3967    2.6810   -0.1768 H   0  0  0  0  0  0  0  0  0  0  0  0
    0.4697    2.1260    1.2210 H   0  0  0  0  0  0  0  0  0  0  0  0
   -1.3383   -1.1901    1.7494 C   0  0  0  0  0  0  0  0  0  0  0  0
   -1.6381   -0.5330    0.4082 C   0  0  0  0  0  3  0  0  0  0  0  0
   -2.6733   -1.3013   -0.4032 C   0  0  0  0  0  0  0  0  0  0  0  0
   -0.9542   -2.2037    1.6107 H   0  0  0  0  0  0  0  0  0  0  0  0
   -0.5953   -0.6258    2.3155 H   0  0  0  0  0  0  0  0  0  0  0  0
   -2.2415   -1.2609    2.3603 H   0  0  0  0  0  0  0  0  0  0  0  0
   -1.9908    0.4887    0.5742 H   0  0  0  0  0  0  0  0  0  0  0  0
   -3.6186   -1.3757    0.1398 H   0  0  0  0  0  0  0  0  0  0  0  0
   -2.8745   -0.8156   -1.3595 H   0  0  0  0  0  0  0  0  0  0  0  0
   -2.3313   -2.3184   -0.6098 H   0  0  0  0  0  0  0  0  0  0  0  0
  1  2  1  0
  1  5  1  0
  1  6  1  0
  1  7  1  0
  2  4  1  0
  2  3  1  0
  2  8  1  0
  3  9  1  0
  4 10  1  0
  4 11  1  0
  4 12  1  0
 13 14  1  0
 13 16  1  0
 13 17  1  0
 13 18  1  0
 14 15  1  0
 14 19  1  0
 15 20  1  0
 15 21  1  0
 15 22  1  0
M  RAD  1  14   2
M  END
>  <reaction>  (7) 
rxn_1910

>  <mol_properties>  (7) 
{"1": {"label": "*1", "atom_type": "Cs"}, "2": {"label": "*0", "atom_type": "S2s"}, "7": {"label": "*2", "atom_type": "H0"}, "12": {"label": "*4", "atom_type": "Cs"}, "13": {"label": "*3", "atom_type": "Cs"}}

>  <type>  (7) 
unop_3

>  <geom_source>  (7) 
Heuristics

$$$$

     RDKit          3D

 22 20  0  0  0  0  0  0  0  0999 V2000
    0.5041    0.3953   -2.0046 C   0  0  0  0  0  0  0  0  0  0  0  0
    0.5041    0.3953   -0.4822 C   0  0  0  0  0  0  0  0  0  0  0  0
    1.8591   -0.6211    0.2014 S   0  0  0  0  0  0  0  0  0  0  0  0
    0.5041    1.8053    0.0918 C   0  0  0  0  0  0  0  0  0  0  0  0
    0.4755   -0.6189   -2.4012 H   0  0  0  0  0  0  0  0  0  0  0  0
    1.4025    0.8851   -2.3882 H   0  0  0  0  0  0  0  0  0  0  0  0
   -0.3629    0.9428   -2.3834 H   0  0  0  0  0  0  0  0  0  0  0  0
   -0.5638   -0.2365   -0.0572 H   0  0  0  0  0  0  0  0  0  0  0  0
    2.8654    0.1144   -0.2933 H   0  0  0  0  0  0  0  0  0  0  0  0
   -0.3629    2.3626   -0.2723 H   0  0  0  0  0  0  0  0  0  0  0  0
    1.4025    2.3452   -0.2171 H   0  0  0  0  0  0  0  0  0  0  0  0
    0.4755    1.7902    1.1808 H   0  0  0  0  0  0  0  0  0  0  0  0
   -2.8788   -0.1609   -0.1472 C   0  0  0  0  0  0  0  0  0  0  0  0
   -1.6322   -0.8687    0.3680 C   0  0  0  0  0  3  0  0  0  0  0  0
   -1.1751   -0.3409    1.7218 C   0  0  0  0  0  0  0  0  0  0  0  0
   -2.7006    0.9112   -0.2607 H   0  0  0  0  0  0  0  0  0  0  0  0
   -3.1905   -0.5524   -1.1170 H   0  0  0  0  0  0  0  0  0  0  0  0
   -3.7133   -0.2844    0.5474 H   0  0  0  0  0  0  0  0  0  0  0  0
   -1.8278   -1.9420    0.4429 H   0  0  0  0  0  0  0  0  0  0  0  0
   -1.9558   -0.4700    2.4753 H   0  0  0  0  0  0  0  0  0  0  0  0
   -0.2818   -0.8597    2.0738 H   0  0  0  0  0  0  0  0  0  0  0  0
   -0.9431    0.7255    1.6673 H   0  0  0  0  0  0  0  0  0  0  0  0
  1  2  1  0
  1  5  1  0
  1  6  1  0
  1  7  1  0
  2  4  1  0
  2  3  1  0
  2  8  1  0
  3  9  1  0
  4 10  1  0
  4 11  1  0
  4 12  1  0
 13 14  1  0
 13 16  1  0
 13 17  1  0
 13 18  1  0
 14 15  1  0
 14 19  1  0
 15 20  1  0
 15 21  1  0
 15 22  1  0
M  RAD  1  14   2
M  END
>  <reaction>  (8) 
rxn_1910

>  <mol_properties>  (8) 
{"1": {"label": "*1", "atom_type": "Cs"}, "2": {"label": "*0", "atom_type": "S2s"}, "7": {"label": "*2", "atom_type": "H0"}, "12": {"label": "*4", "atom_type": "Cs"}, "13": {"label": "*3", "atom_type": "Cs"}}

>  <type>  (8) 
unop_4

>  <geom_source>  (8) 
Heuristics

$$$$

     RDKit          3D

 22 20  0  0  0  0  0  0  0  0999 V2000
    0.4103    0.7329   -2.0129 C   0  0  0  0  0  0  0  0  0  0  0  0
    0.4103    0.7329   -0.4905 C   0  0  0  0  0  0  0  0  0  0  0  0
    1.7653   -0.2836    0.1931 S   0  0  0  0  0  0  0  0  0  0  0  0
    0.4103    2.1428    0.0835 C   0  0  0  0  0  0  0  0  0  0  0  0
    0.3817   -0.2814   -2.4095 H   0  0  0  0  0  0  0  0  0  0  0  0
    1.3087    1.2226   -2.3965 H   0  0  0  0  0  0  0  0  0  0  0  0
   -0.4566    1.2803   -2.3917 H   0  0  0  0  0  0  0  0  0  0  0  0
   -0.6576    0.1010   -0.0656 H   0  0  0  0  0  0  0  0  0  0  0  0
    2.7716    0.4519   -0.3016 H   0  0  0  0  0  0  0  0  0  0  0  0
   -0.4566    2.7001   -0.2807 H   0  0  0  0  0  0  0  0  0  0  0  0
    1.3087    2.6828   -0.2254 H   0  0  0  0  0  0  0  0  0  0  0  0
    0.3817    2.1277    1.1725 H   0  0  0  0  0  0  0  0  0  0  0  0
   -1.7383   -0.5385    1.8829 C   0  0  0  0  0  0  0  0  0  0  0  0
   -1.7260   -0.5312    0.3596 C   0  0  0  0  0  3  0  0  0  0  0  0
   -1.7551   -1.9338   -0.2340 C   0  0  0  0  0  0  0  0  0  0  0  0
   -0.8726   -1.0757    2.2780 H   0  0  0  0  0  0  0  0  0  0  0  0
   -1.7170    0.4742    2.2891 H   0  0  0  0  0  0  0  0  0  0  0  0
   -2.6350   -1.0332    2.2640 H   0  0  0  0  0  0  0  0  0  0  0  0
   -2.5841    0.0378   -0.0086 H   0  0  0  0  0  0  0  0  0  0  0  0
   -2.6523   -2.4725    0.0803 H   0  0  0  0  0  0  0  0  0  0  0  0
   -1.7458   -1.9079   -1.3250 H   0  0  0  0  0  0  0  0  0  0  0  0
   -0.8900   -2.5150    0.0943 H   0  0  0  0  0  0  0  0  0  0  0  0
  1  2  1  0
  1  5  1  0
  1  6  1  0
  1  7  1  0
  2  4  1  0
  2  3  1  0
  2  8  1  0
  3  9  1  0
  4 10  1  0
  4 11  1  0
  4 12  1  0
 13 14  1  0
 13 16  1  0
 13 17  1  0
 13 18  1  0
 14 15  1  0
 14 19  1  0
 15 20  1  0
 15 21  1  0
 15 22  1  0
M  RAD  1  14   2
M  END
>  <reaction>  (9) 
rxn_1910

>  <mol_properties>  (9) 
{"1": {"label": "*1", "atom_type": "Cs"}, "2": {"label": "*0", "atom_type": "S2s"}, "7": {"label": "*2", "atom_type": "H0"}, "12": {"label": "*4", "atom_type": "Cs"}, "13": {"label": "*3", "atom_type": "Cs"}}

>  <type>  (9) 
unop_5

>  <geom_source>  (9) 
Heuristics

$$$$

     RDKit          3D

 22 20  0  0  0  0  0  0  0  0999 V2000
    0.4293    0.4305   -2.0730 C   0  0  0  0  0  0  0  0  0  0  0  0
    0.4293    0.4305   -0.5507 C   0  0  0  0  0  0  0  0  0  0  0  0
    1.7843   -0.5859    0.1330 S   0  0  0  0  0  0  0  0  0  0  0  0
    0.4293    1.8405    0.0234 C   0  0  0  0  0  0  0  0  0  0  0  0
    0.4007   -0.5837   -2.4696 H   0  0  0  0  0  0  0  0  0  0  0  0
    1.3277    0.9202   -2.4566 H   0  0  0  0  0  0  0  0  0  0  0  0
   -0.4377    0.9779   -2.4518 H   0  0  0  0  0  0  0  0  0  0  0  0
   -0.6386   -0.2014   -0.1257 H   0  0  0  0  0  0  0  0  0  0  0  0
    2.7906    0.1496   -0.3617 H   0  0  0  0  0  0  0  0  0  0  0  0
   -0.4377    2.3977   -0.3408 H   0  0  0  0  0  0  0  0  0  0  0  0
    1.3277    2.3804   -0.2855 H   0  0  0  0  0  0  0  0  0  0  0  0
    0.4007    1.8254    1.1123 H   0  0  0  0  0  0  0  0  0  0  0  0
   -2.8514    0.1584    0.4638 C   0  0  0  0  0  0  0  0  0  0  0  0
   -1.7070   -0.8336    0.2995 C   0  0  0  0  0  3  0  0  0  0  0  0
   -0.7754   -0.8594    1.5045 C   0  0  0  0  0  0  0  0  0  0  0  0
   -2.4716    1.1737    0.6017 H   0  0  0  0  0  0  0  0  0  0  0  0
   -3.5071    0.1624   -0.4085 H   0  0  0  0  0  0  0  0  0  0  0  0
   -3.4590   -0.0875    1.3381 H   0  0  0  0  0  0  0  0  0  0  0  0
   -2.1142   -1.8346    0.1327 H   0  0  0  0  0  0  0  0  0  0  0  0
   -1.3176   -1.1373    2.4116 H   0  0  0  0  0  0  0  0  0  0  0  0
    0.0371   -1.5751    1.3681 H   0  0  0  0  0  0  0  0  0  0  0  0
   -0.3301    0.1238    1.6751 H   0  0  0  0  0  0  0  0  0  0  0  0
  1  2  1  0
  1  5  1  0
  1  6  1  0
  1  7  1  0
  2  4  1  0
  2  3  1  0
  2  8  1  0
  3  9  1  0
  4 10  1  0
  4 11  1  0
  4 12  1  0
 13 14  1  0
 13 16  1  0
 13 17  1  0
 13 18  1  0
 14 15  1  0
 14 19  1  0
 15 20  1  0
 15 21  1  0
 15 22  1  0
M  RAD  1  14   2
M  END
>  <reaction>  (10) 
rxn_1910

>  <mol_properties>  (10) 
{"1": {"label": "*1", "atom_type": "Cs"}, "2": {"label": "*0", "atom_type": "S2s"}, "7": {"label": "*2", "atom_type": "H0"}, "12": {"label": "*4", "atom_type": "Cs"}, "13": {"label": "*3", "atom_type": "Cs"}}

>  <type>  (10) 
unop_6

>  <geom_source>  (10) 
Heuristics

$$$$

     RDKit          3D

 22 20  0  0  0  0  0  0  0  0999 V2000
    0.3650    0.5166   -2.1064 C   0  0  0  0  0  0  0  0  0  0  0  0
    0.3650    0.5166   -0.5840 C   0  0  0  0  0  0  0  0  0  0  0  0
    1.7200   -0.4998    0.0996 S   0  0  0  0  0  0  0  0  0  0  0  0
    0.3650    1.9265   -0.0100 C   0  0  0  0  0  0  0  0  0  0  0  0
    0.3364   -0.4977   -2.5030 H   0  0  0  0  0  0  0  0  0  0  0  0
    1.2634    1.0063   -2.4900 H   0  0  0  0  0  0  0  0  0  0  0  0
   -0.5020    1.0640   -2.4852 H   0  0  0  0  0  0  0  0  0  0  0  0
   -0.7029   -0.1153   -0.1591 H   0  0  0  0  0  0  0  0  0  0  0  0
    2.7263    0.2357   -0.3951 H   0  0  0  0  0  0  0  0  0  0  0  0
   -0.5020    2.4838   -0.3742 H   0  0  0  0  0  0  0  0  0  0  0  0
    1.2634    2.4665   -0.3189 H   0  0  0  0  0  0  0  0  0  0  0  0
    0.3364    1.9115    1.0790 H   0  0  0  0  0  0  0  0  0  0  0  0
   -2.6174    0.1974    1.1099 C   0  0  0  0  0  0  0  0  0  0  0  0
   -1.7713   -0.7475    0.2661 C   0  0  0  0  0  3  0  0  0  0  0  0
   -0.6394   -1.3880    1.0592 C   0  0  0  0  0  0  0  0  0  0  0  0
   -2.0086    1.0078    1.5181 H   0  0  0  0  0  0  0  0  0  0  0  0
   -3.4221    0.6459    0.5250 H   0  0  0  0  0  0  0  0  0  0  0  0
   -3.0703   -0.3308    1.9524 H   0  0  0  0  0  0  0  0  0  0  0  0
   -2.4091   -1.5298   -0.1545 H   0  0  0  0  0  0  0  0  0  0  0  0
   -1.0300   -1.9662    1.9001 H   0  0  0  0  0  0  0  0  0  0  0  0
   -0.0452   -2.0607    0.4384 H   0  0  0  0  0  0  0  0  0  0  0  0
    0.0318   -0.6276    1.4658 H   0  0  0  0  0  0  0  0  0  0  0  0
  1  2  1  0
  1  5  1  0
  1  6  1  0
  1  7  1  0
  2  4  1  0
  2  3  1  0
  2  8  1  0
  3  9  1  0
  4 10  1  0
  4 11  1  0
  4 12  1  0
 13 14  1  0
 13 16  1  0
 13 17  1  0
 13 18  1  0
 14 15  1  0
 14 19  1  0
 15 20  1  0
 15 21  1  0
 15 22  1  0
M  RAD  1  14   2
M  END
>  <reaction>  (11) 
rxn_1910

>  <mol_properties>  (11) 
{"1": {"label": "*1", "atom_type": "Cs"}, "2": {"label": "*0", "atom_type": "S2s"}, "7": {"label": "*2", "atom_type": "H0"}, "12": {"label": "*4", "atom_type": "Cs"}, "13": {"label": "*3", "atom_type": "Cs"}}

>  <type>  (11) 
unop_7

>  <geom_source>  (11) 
Heuristics

$$$$

     RDKit          3D

 22 20  0  0  0  0  0  0  0  0999 V2000
    0.5504    0.7063   -1.9093 C   0  0  0  0  0  0  0  0  0  0  0  0
    0.5504    0.7063   -0.3869 C   0  0  0  0  0  0  0  0  0  0  0  0
    1.9054   -0.3102    0.2967 S   0  0  0  0  0  0  0  0  0  0  0  0
    0.5504    2.1162    0.1871 C   0  0  0  0  0  0  0  0  0  0  0  0
    0.5218   -0.3080   -2.3059 H   0  0  0  0  0  0  0  0  0  0  0  0
    1.4488    1.1960   -2.2929 H   0  0  0  0  0  0  0  0  0  0  0  0
   -0.3166    1.2537   -2.2881 H   0  0  0  0  0  0  0  0  0  0  0  0
   -0.5175    0.0744    0.0380 H   0  0  0  0  0  0  0  0  0  0  0  0
    2.9117    0.4253   -0.1980 H   0  0  0  0  0  0  0  0  0  0  0  0
   -0.3166    2.6735   -0.1771 H   0  0  0  0  0  0  0  0  0  0  0  0
    1.4488    2.6562   -0.1218 H   0  0  0  0  0  0  0  0  0  0  0  0
    0.5218    2.1011    1.2761 H   0  0  0  0  0  0  0  0  0  0  0  0
   -1.2672   -2.0383    0.6275 C   0  0  0  0  0  0  0  0  0  0  0  0
   -1.5859   -0.5578    0.4632 C   0  0  0  0  0  3  0  0  0  0  0  0
   -3.0820   -0.2863    0.3716 C   0  0  0  0  0  0  0  0  0  0  0  0
   -1.6504   -2.6165   -0.2168 H   0  0  0  0  0  0  0  0  0  0  0  0
   -0.1918   -2.2126    0.6913 H   0  0  0  0  0  0  0  0  0  0  0  0
   -1.7254   -2.4381    1.5354 H   0  0  0  0  0  0  0  0  0  0  0  0
   -1.1655    0.0005    1.3043 H   0  0  0  0  0  0  0  0  0  0  0  0
   -3.5974   -0.6309    1.2714 H   0  0  0  0  0  0  0  0  0  0  0  0
   -3.2901    0.7785    0.2543 H   0  0  0  0  0  0  0  0  0  0  0  0
   -3.5224   -0.8092   -0.4809 H   0  0  0  0  0  0  0  0  0  0  0  0
  1  2  1  0
  1  5  1  0
  1  6  1  0
  1  7  1  0
  2  4  1  0
  2  3  1  0
  2  8  1  0
  3  9  1  0
  4 10  1  0
  4 11  1  0
  4 12  1  0
 13 14  1  0
 13 16  1  0
 13 17  1  0
 13 18  1  0
 14 15  1  0
 14 19  1  0
 15 20  1  0
 15 21  1  0
 15 22  1  0
M  RAD  1  14   2
M  END
>  <reaction>  (12) 
rxn_1910

>  <mol_properties>  (12) 
{"1": {"label": "*1", "atom_type": "Cs"}, "2": {"label": "*0", "atom_type": "S2s"}, "7": {"label": "*2", "atom_type": "H0"}, "12": {"label": "*4", "atom_type": "Cs"}, "13": {"label": "*3", "atom_type": "Cs"}}

>  <type>  (12) 
unop_8

>  <geom_source>  (12) 
Heuristics

$$$$

     RDKit          3D

 22 20  0  0  0  0  0  0  0  0999 V2000
    0.5706    0.4200   -1.9240 C   0  0  0  0  0  0  0  0  0  0  0  0
    0.5706    0.4200   -0.4017 C   0  0  0  0  0  0  0  0  0  0  0  0
    1.9256   -0.5965    0.2819 S   0  0  0  0  0  0  0  0  0  0  0  0
    0.5706    1.8299    0.1724 C   0  0  0  0  0  0  0  0  0  0  0  0
    0.5420   -0.5943   -2.3207 H   0  0  0  0  0  0  0  0  0  0  0  0
    1.4690    0.9097   -2.3076 H   0  0  0  0  0  0  0  0  0  0  0  0
   -0.2964    0.9674   -2.3028 H   0  0  0  0  0  0  0  0  0  0  0  0
   -0.4973   -0.2119    0.0233 H   0  0  0  0  0  0  0  0  0  0  0  0
    2.9319    0.1390   -0.2127 H   0  0  0  0  0  0  0  0  0  0  0  0
   -0.2964    2.3872   -0.1918 H   0  0  0  0  0  0  0  0  0  0  0  0
    1.4690    2.3699   -0.1366 H   0  0  0  0  0  0  0  0  0  0  0  0
    0.5420    1.8149    1.2613 H   0  0  0  0  0  0  0  0  0  0  0  0
   -2.6912   -0.6755   -0.5641 C   0  0  0  0  0  0  0  0  0  0  0  0
   -1.5657   -0.8441    0.4485 C   0  0  0  0  0  3  0  0  0  0  0  0
   -1.7466    0.0359    1.6787 C   0  0  0  0  0  0  0  0  0  0  0  0
   -2.7525    0.3587   -0.9115 H   0  0  0  0  0  0  0  0  0  0  0  0
   -2.5440   -1.3133   -1.4374 H   0  0  0  0  0  0  0  0  0  0  0  0
   -3.6567   -0.9320   -0.1213 H   0  0  0  0  0  0  0  0  0  0  0  0
   -1.5065   -1.8919    0.7559 H   0  0  0  0  0  0  0  0  0  0  0  0
   -2.6824   -0.1982    2.1922 H   0  0  0  0  0  0  0  0  0  0  0  0
   -0.9314   -0.0988    2.3917 H   0  0  0  0  0  0  0  0  0  0  0  0
   -1.7781    1.0925    1.4020 H   0  0  0  0  0  0  0  0  0  0  0  0
  1  2  1  0
  1  5  1  0
  1  6  1  0
  1  7  1  0
  2  4  1  0
  2  3  1  0
  2  8  1  0
  3  9  1  0
  4 10  1  0
  4 11  1  0
  4 12  1  0
 13 14  1  0
 13 16  1  0
 13 17  1  0
 13 18  1  0
 14 15  1  0
 14 19  1  0
 15 20  1  0
 15 21  1  0
 15 22  1  0
M  RAD  1  14   2
M  END
>  <reaction>  (13) 
rxn_1910

>  <mol_properties>  (13) 
{"1": {"label": "*1", "atom_type": "Cs"}, "2": {"label": "*0", "atom_type": "S2s"}, "7": {"label": "*2", "atom_type": "H0"}, "12": {"label": "*4", "atom_type": "Cs"}, "13": {"label": "*3", "atom_type": "Cs"}}

>  <type>  (13) 
unop_9

>  <geom_source>  (13) 
Heuristics

$$$$

     RDKit          3D

 22 20  0  0  0  0  0  0  0  0999 V2000
    0.5773    0.6730   -1.8678 C   0  0  0  0  0  0  0  0  0  0  0  0
    0.5773    0.6730   -0.3455 C   0  0  0  0  0  0  0  0  0  0  0  0
    1.9323   -0.3434    0.3381 S   0  0  0  0  0  0  0  0  0  0  0  0
    0.5773    2.0830    0.2286 C   0  0  0  0  0  0  0  0  0  0  0  0
    0.5487   -0.3412   -2.2645 H   0  0  0  0  0  0  0  0  0  0  0  0
    1.4757    1.1627   -2.2514 H   0  0  0  0  0  0  0  0  0  0  0  0
   -0.2897    1.2204   -2.2466 H   0  0  0  0  0  0  0  0  0  0  0  0
   -0.4906    0.0411    0.0795 H   0  0  0  0  0  0  0  0  0  0  0  0
    2.9386    0.3921   -0.1565 H   0  0  0  0  0  0  0  0  0  0  0  0
   -0.2897    2.6402   -0.1356 H   0  0  0  0  0  0  0  0  0  0  0  0
    1.4757    2.6229   -0.0804 H   0  0  0  0  0  0  0  0  0  0  0  0
    0.5487    2.0679    1.3175 H   0  0  0  0  0  0  0  0  0  0  0  0
   -1.5387   -2.0245   -0.0105 C   0  0  0  0  0  0  0  0  0  0  0  0
   -1.5590   -0.5911    0.5047 C   0  0  0  0  0  3  0  0  0  0  0  0
   -2.9701   -0.0849    0.7755 C   0  0  0  0  0  0  0  0  0  0  0  0
   -2.0992   -2.1119   -0.9444 H   0  0  0  0  0  0  0  0  0  0  0  0
   -0.5203   -2.3688   -0.1984 H   0  0  0  0  0  0  0  0  0  0  0  0
   -1.9943   -2.7058    0.7122 H   0  0  0  0  0  0  0  0  0  0  0  0
   -0.9665   -0.5253    1.4215 H   0  0  0  0  0  0  0  0  0  0  0  0
   -3.4708   -0.7051    1.5229 H   0  0  0  0  0  0  0  0  0  0  0  0
   -2.9640    0.9425    1.1434 H   0  0  0  0  0  0  0  0  0  0  0  0
   -3.5757   -0.1112   -0.1336 H   0  0  0  0  0  0  0  0  0  0  0  0
  1  2  1  0
  1  5  1  0
  1  6  1  0
  1  7  1  0
  2  4  1  0
  2  3  1  0
  2  8  1  0
  3  9  1  0
  4 10  1  0
  4 11  1  0
  4 12  1  0
 13 14  1  0
 13 16  1  0
 13 17  1  0
 13 18  1  0
 14 15  1  0
 14 19  1  0
 15 20  1  0
 15 21  1  0
 15 22  1  0
M  RAD  1  14   2
M  END
>  <reaction>  (14) 
rxn_1910

>  <mol_properties>  (14) 
{"1": {"label": "*1", "atom_type": "Cs"}, "2": {"label": "*0", "atom_type": "S2s"}, "7": {"label": "*2", "atom_type": "H0"}, "12": {"label": "*4", "atom_type": "Cs"}, "13": {"label": "*3", "atom_type": "Cs"}}

>  <type>  (14) 
unop_10

>  <geom_source>  (14) 
Heuristics

$$$$

     RDKit          3D

 22 20  0  0  0  0  0  0  0  0999 V2000
    0.3427    0.6377   -2.0857 C   0  0  0  0  0  0  0  0  0  0  0  0
    0.3427    0.6377   -0.5633 C   0  0  0  0  0  0  0  0  0  0  0  0
    1.6977   -0.3788    0.1203 S   0  0  0  0  0  0  0  0  0  0  0  0
    0.3427    2.0476    0.0107 C   0  0  0  0  0  0  0  0  0  0  0  0
    0.3141   -0.3766   -2.4823 H   0  0  0  0  0  0  0  0  0  0  0  0
    1.2411    1.1274   -2.4693 H   0  0  0  0  0  0  0  0  0  0  0  0
   -0.5243    1.1851   -2.4645 H   0  0  0  0  0  0  0  0  0  0  0  0
   -0.7252    0.0058   -0.1384 H   0  0  0  0  0  0  0  0  0  0  0  0
    2.7040    0.3567   -0.3744 H   0  0  0  0  0  0  0  0  0  0  0  0
   -0.5243    2.6049   -0.3535 H   0  0  0  0  0  0  0  0  0  0  0  0
    1.2411    2.5876   -0.2982 H   0  0  0  0  0  0  0  0  0  0  0  0
    0.3141    2.0326    1.0997 H   0  0  0  0  0  0  0  0  0  0  0  0
   -2.2253   -0.0473    1.6280 C   0  0  0  0  0  0  0  0  0  0  0  0
   -1.7936   -0.6264    0.2868 C   0  0  0  0  0  3  0  0  0  0  0  0
   -0.8924   -1.8454    0.4368 C   0  0  0  0  0  0  0  0  0  0  0  0
   -1.3585    0.2610    2.2176 H   0  0  0  0  0  0  0  0  0  0  0  0
   -2.8696    0.8242    1.5000 H   0  0  0  0  0  0  0  0  0  0  0  0
   -2.7758   -0.7873    2.2140 H   0  0  0  0  0  0  0  0  0  0  0  0
   -2.6792   -0.8978   -0.2945 H   0  0  0  0  0  0  0  0  0  0  0  0
   -1.4009   -2.6420    0.9853 H   0  0  0  0  0  0  0  0  0  0  0  0
   -0.5940   -2.2455   -0.5336 H   0  0  0  0  0  0  0  0  0  0  0  0
    0.0164   -1.5937    0.9889 H   0  0  0  0  0  0  0  0  0  0  0  0
  1  2  1  0
  1  5  1  0
  1  6  1  0
  1  7  1  0
  2  4  1  0
  2  3  1  0
  2  8  1  0
  3  9  1  0
  4 10  1  0
  4 11  1  0
  4 12  1  0
 13 14  1  0
 13 16  1  0
 13 17  1  0
 13 18  1  0
 14 15  1  0
 14 19  1  0
 15 20  1  0
 15 21  1  0
 15 22  1  0
M  RAD  1  14   2
M  END
>  <reaction>  (15) 
rxn_1910

>  <mol_properties>  (15) 
{"1": {"label": "*1", "atom_type": "Cs"}, "2": {"label": "*0", "atom_type": "S2s"}, "7": {"label": "*2", "atom_type": "H0"}, "12": {"label": "*4", "atom_type": "Cs"}, "13": {"label": "*3", "atom_type": "Cs"}}

>  <type>  (15) 
unop_11

>  <geom_source>  (15) 
Heuristics

$$$$

     RDKit          3D

 22 20  0  0  0  0  0  0  0  0999 V2000
    0.6084    0.5002   -1.8611 C   0  0  0  0  0  0  0  0  0  0  0  0
    0.6084    0.5002   -0.3388 C   0  0  0  0  0  0  0  0  0  0  0  0
    1.9634   -0.5162    0.3448 S   0  0  0  0  0  0  0  0  0  0  0  0
    0.6084    1.9102    0.2353 C   0  0  0  0  0  0  0  0  0  0  0  0
    0.5798   -0.5140   -2.2578 H   0  0  0  0  0  0  0  0  0  0  0  0
    1.5068    0.9899   -2.2447 H   0  0  0  0  0  0  0  0  0  0  0  0
   -0.2586    1.0476   -2.2399 H   0  0  0  0  0  0  0  0  0  0  0  0
   -0.4595   -0.1317    0.0862 H   0  0  0  0  0  0  0  0  0  0  0  0
    2.9697    0.2193   -0.1498 H   0  0  0  0  0  0  0  0  0  0  0  0
   -0.2586    2.4674   -0.1289 H   0  0  0  0  0  0  0  0  0  0  0  0
    1.5068    2.4501   -0.0737 H   0  0  0  0  0  0  0  0  0  0  0  0
    0.5798    1.8951    1.3242 H   0  0  0  0  0  0  0  0  0  0  0  0
   -2.3414   -1.2452   -0.6833 C   0  0  0  0  0  0  0  0  0  0  0  0
   -1.5279   -0.7639    0.5114 C   0  0  0  0  0  3  0  0  0  0  0  0
   -2.3245    0.1502    1.4337 C   0  0  0  0  0  0  0  0  0  0  0  0
   -2.6892   -0.4016   -1.2844 H   0  0  0  0  0  0  0  0  0  0  0  0
   -1.7543   -1.8979   -1.3315 H   0  0  0  0  0  0  0  0  0  0  0  0
   -3.2227   -1.8025   -0.3567 H   0  0  0  0  0  0  0  0  0  0  0  0
   -1.1668   -1.6270    1.0774 H   0  0  0  0  0  0  0  0  0  0  0  0
   -3.2053   -0.3632    1.8269 H   0  0  0  0  0  0  0  0  0  0  0  0
   -1.7256    0.4842    2.2826 H   0  0  0  0  0  0  0  0  0  0  0  0
   -2.6718    1.0377    0.8993 H   0  0  0  0  0  0  0  0  0  0  0  0
  1  2  1  0
  1  5  1  0
  1  6  1  0
  1  7  1  0
  2  4  1  0
  2  3  1  0
  2  8  1  0
  3  9  1  0
  4 10  1  0
  4 11  1  0
  4 12  1  0
 13 14  1  0
 13 16  1  0
 13 17  1  0
 13 18  1  0
 14 15  1  0
 14 19  1  0
 15 20  1  0
 15 21  1  0
 15 22  1  0
M  RAD  1  14   2
M  END
>  <reaction>  (16) 
rxn_1910

>  <mol_properties>  (16) 
{"1": {"label": "*1", "atom_type": "Cs"}, "2": {"label": "*0", "atom_type": "S2s"}, "7": {"label": "*2", "atom_type": "H0"}, "12": {"label": "*4", "atom_type": "Cs"}, "13": {"label": "*3", "atom_type": "Cs"}}

>  <type>  (16) 
unop_12

>  <geom_source>  (16) 
Heuristics

$$$$

     RDKit          3D

 22 20  0  0  0  0  0  0  0  0999 V2000
   -1.9814   -1.0460    1.4445 S   0  0  0  0  0  0  0  0  0  0  0  0
    1.1655    0.1327    0.5443 C   0  0  0  0  0  0  0  0  0  0  0  0
    1.9100    1.2814   -0.1274 C   0  0  0  0  0  0  0  0  0  0  0  0
    2.0080   -1.1380    0.5656 C   0  0  0  0  0  0  0  0  0  0  0  0
   -1.8125    1.1567   -0.2036 C   0  0  0  0  0  0  0  0  0  0  0  0
   -1.6501   -1.1166   -1.2846 C   0  0  0  0  0  0  0  0  0  0  0  0
   -1.3023   -0.2751   -0.0604 C   0  0  0  0  0  3  0  0  0  0  0  0
    0.9075    0.4206    1.5862 H   0  0  0  0  0  0  0  0  0  0  0  0
    0.0600   -0.0988   -0.1077 H   0  0  0  0  0  0  0  0  0  0  0  0
    1.2679    2.1869   -0.1282 H   0  0  0  0  0  0  0  0  0  0  0  0
    2.8477    1.5090    0.4232 H   0  0  0  0  0  0  0  0  0  0  0  0
    2.1542    1.0184   -1.1785 H   0  0  0  0  0  0  0  0  0  0  0  0
    1.4356   -1.9521    1.0573 H   0  0  0  0  0  0  0  0  0  0  0  0
    2.9480   -0.9693    1.1330 H   0  0  0  0  0  0  0  0  0  0  0  0
    2.2543   -1.4529   -0.4707 H   0  0  0  0  0  0  0  0  0  0  0  0
   -2.9203    1.1702   -0.2883 H   0  0  0  0  0  0  0  0  0  0  0  0
   -1.5092    1.7541    0.6814 H   0  0  0  0  0  0  0  0  0  0  0  0
   -1.3718    1.6278   -1.1074 H   0  0  0  0  0  0  0  0  0  0  0  0
   -2.7517   -1.1810   -1.4151 H   0  0  0  0  0  0  0  0  0  0  0  0
   -1.2387   -2.1406   -1.1632 H   0  0  0  0  0  0  0  0  0  0  0  0
   -1.2003   -0.6665   -2.1946 H   0  0  0  0  0  0  0  0  0  0  0  0
   -1.2205   -0.2208    2.2940 H   0  0  0  0  0  0  0  0  0  0  0  0
  1  7  1  0
  1 22  1  0
  2  3  1  0
  2  4  1  0
  2  8  1  0
  2  9  1  0
  3 10  1  0
  3 11  1  0
  3 12  1  0
  4 13  1  0
  4 14  1  0
  4 15  1  0
  5  7  1  0
  5 16  1  0
  5 17  1  0
  5 18  1  0
  6  7  1  0
  6 19  1  0
  6 20  1  0
  6 21  1  0
M  RAD  1   7   2
M  END
>  <reaction>  (17) 
rxn_1910

>  <mol_properties>  (17) 
{"1": {"label": "*1", "atom_type": "Cs"}, "2": {"label": "*0", "atom_type": "S2s"}, "7": {"label": "*2", "atom_type": "H0"}, "12": {"label": "*4", "atom_type": "Cs"}, "13": {"label": "*3", "atom_type": "Cs"}}

>  <type>  (17) 
unop_13

>  <geom_source>  (17) 
AutoTST

$$$$
