
     RDKit          3D

  7  6  0  0  0  0  0  0  0  0999 V2000
   -0.6782    0.0507    0.0301 C   0  0  0  0  0  0  0  0  0  0  0  0
    0.8092    0.0996    0.0213 C   0  0  0  0  0  0  0  0  0  0  0  0
    1.7473    0.7521    1.1507 S   0  0  0  0  0  0  0  0  0  0  0  0
   -1.0667    0.5456   -0.8653 H   0  0  0  0  0  0  0  0  0  0  0  0
   -1.0112   -0.9904   -0.0239 H   0  0  0  0  0  0  0  0  0  0  0  0
   -1.0920    0.5225    0.9188 H   0  0  0  0  0  0  0  0  0  0  0  0
    1.2740   -0.3620   -0.8520 H   0  0  0  0  0  0  0  0  0  0  0  0
  1  2  1  0
  1  4  1  0
  1  5  1  0
  1  6  1  0
  2  3  2  0
  2  7  1  0
M  END
>  <reaction>  (1) 
rxn_1977

>  <mol_properties>  (1) 
{"0": {"label": "donator", "atom_type": "Cs"}, "3": {"label": "d_hydrogen", "atom_type": "H0"}}

>  <type>  (1) 
r1h

$$$$

     RDKit          3D

  9  8  0  0  0  0  0  0  0  0999 V2000
   -1.2704   -0.1236    0.1096 C   0  0  0  0  0  0  0  0  0  0  0  0
    0.0713   -0.5323    0.5887 C   0  0  0  0  0  0  0  0  0  0  0  0
    0.9521   -1.3639   -0.0464 C   0  0  0  0  0  0  0  0  0  0  0  0
    0.6900   -2.1109   -1.5335 S   0  0  0  0  0  1  0  0  0  0  0  0
   -1.3201    0.9657    0.0241 H   0  0  0  0  0  0  0  0  0  0  0  0
   -1.5103   -0.5706   -0.8526 H   0  0  0  0  0  0  0  0  0  0  0  0
   -2.0312   -0.4112    0.8411 H   0  0  0  0  0  0  0  0  0  0  0  0
    0.3863   -0.1265    1.5468 H   0  0  0  0  0  0  0  0  0  0  0  0
    1.8971   -1.5543    0.4552 H   0  0  0  0  0  0  0  0  0  0  0  0
  1  2  1  0
  1  5  1  0
  1  6  1  0
  1  7  1  0
  2  3  2  3
  2  8  1  0
  3  4  1  0
  3  9  1  0
M  RAD  1   4   2
M  END
>  <reaction>  (2) 
rxn_1977

>  <mol_properties>  (2) 
{"1": {"label": "acceptor", "atom_type": "Cs"}}

>  <type>  (2) 
r2

$$$$

     RDKit          3D

 10  9  0  0  0  0  0  0  0  0999 V2000
   -1.1508    0.0666    0.2839 C   0  0  0  0  0  0  0  0  0  0  0  0
    0.1022   -0.3749   -0.4771 C   0  0  0  0  0  0  0  0  0  0  0  0
    1.3428    0.1620    0.1542 C   0  0  0  0  0  0  0  0  0  0  0  0
    2.5613   -0.6971    0.7526 S   0  0  0  0  0  0  0  0  0  0  0  0
   -1.2137    1.1546    0.3481 H   0  0  0  0  0  0  0  0  0  0  0  0
   -2.0472   -0.2935   -0.2212 H   0  0  0  0  0  0  0  0  0  0  0  0
   -1.1467   -0.3334    1.2987 H   0  0  0  0  0  0  0  0  0  0  0  0
    0.1602   -1.4616   -0.5369 H   0  0  0  0  0  0  0  0  0  0  0  0
    0.0536    0.0174   -1.4997 H   0  0  0  0  0  0  0  0  0  0  0  0
    1.3824    1.2528    0.2110 H   0  0  0  0  0  0  0  0  0  0  0  0
  1  2  1  0
  1  5  1  0
  1  6  1  0
  1  7  1  0
  2  3  1  0
  2  8  1  0
  2  9  1  0
  3  4  2  0
  3 10  1  0
M  END
>  <reaction>  (3) 
rxn_1977

>  <mol_properties>  (3) 
{"1": {"label": "acceptor", "atom_type": "Cs"}, "9": {"label": "a_hydrogen", "atom_type": "H0"}}

>  <type>  (3) 
r2h

$$$$

     RDKit          3D

 16 14  0  0  0  0  0  0  0  0999 V2000
   -2.2878    0.2034   -0.1353 C   0  0  0  0  0  0  0  0  0  0  0  0
   -1.3160    0.8503    0.8098 C   0  0  0  0  0  0  0  0  0  0  0  0
   -0.7989    0.1345    1.9491 C   0  0  0  0  0  0  0  0  0  0  0  0
   -0.7617   -1.4843    2.1212 S   0  0  0  0  0  0  0  0  0  0  0  0
   -1.9386   -0.7816   -0.4438 H   0  0  0  0  0  0  0  0  0  0  0  0
   -3.2542    0.0705    0.3572 H   0  0  0  0  0  0  0  0  0  0  0  0
   -2.4344    0.8207   -1.0212 H   0  0  0  0  0  0  0  0  0  0  0  0
   -1.4770    1.9126    0.9906 H   0  0  0  0  0  0  0  0  0  0  0  0
   -0.3298    0.7571    2.7112 H   0  0  0  0  0  0  0  0  0  0  0  0
    0.8292    0.9454   -0.8112 C   0  0  0  0  0  0  0  0  0  0  0  0
    1.1395   -0.4251   -1.0430 C   0  0  0  0  0  0  0  0  0  0  0  0
    0.5494   -1.3156   -2.2863 S   0  0  0  0  0  1  0  0  0  0  0  0
   -0.2046    0.9098    0.0777 H   0  0  0  0  0  0  0  0  0  0  0  0
    1.5234    1.5172   -0.1998 H   0  0  0  0  0  0  0  0  0  0  0  0
    0.3634    1.4883   -1.6281 H   0  0  0  0  0  0  0  0  0  0  0  0
    1.7916   -0.9026   -0.3136 H   0  0  0  0  0  0  0  0  0  0  0  0
  1  2  1  0
  1  5  1  0
  1  6  1  0
  1  7  1  0
  2  3  1  0
  2  8  1  0
  2 13  1  0
  3  4  2  0
  3  9  1  0
 10 11  2  3
 10 14  1  0
 10 15  1  0
 11 12  1  0
 11 16  1  0
M  RAD  1  12   2
M  END
>  <reaction>  (4) 
rxn_1977

>  <mol_properties>  (4) 
{"1": {"label": "*1", "atom_type": "Cs"}, "2": {"label": "*0", "atom_type": "CS"}, "9": {"label": "*3", "atom_type": "Cd"}, "10": {"label": "*4", "atom_type": "Cd"}, "12": {"label": "*2", "atom_type": "H0"}}

>  <type>  (4) 
ts

$$$$

     RDKit          3D

 16 14  0  0  0  0  0  0  0  0999 V2000
   -0.7736   -0.2445    3.1566 C   0  0  0  0  0  0  0  0  0  0  0  0
   -1.1905   -0.2246    1.6835 C   0  0  0  0  0  0  0  0  0  0  0  0
   -1.1989    1.1634    1.1364 C   0  0  0  0  0  0  0  0  0  0  0  0
   -0.3194    1.7142   -0.0900 S   0  0  0  0  0  0  0  0  0  0  0  0
    0.2485    0.1181    3.2730 H   0  0  0  0  0  0  0  0  0  0  0  0
   -1.4281    0.3844    3.7631 H   0  0  0  0  0  0  0  0  0  0  0  0
   -0.8224   -1.2598    3.5503 H   0  0  0  0  0  0  0  0  0  0  0  0
   -2.2087   -0.6217    1.5969 H   0  0  0  0  0  0  0  0  0  0  0  0
   -1.8717    1.8483    1.6586 H   0  0  0  0  0  0  0  0  0  0  0  0
    0.9078   -0.1602    0.1142 C   0  0  0  0  0  0  0  0  0  0  0  0
    0.9078   -1.3587   -0.7680 C   0  0  0  0  0  0  0  0  0  0  0  0
    0.9078   -1.3587   -2.3747 S   0  0  0  0  0  1  0  0  0  0  0  0
   -0.1435   -0.1925    0.9005 H   0  0  0  0  0  0  0  0  0  0  0  0
    1.7840   -0.1871    0.7694 H   0  0  0  0  0  0  0  0  0  0  0  0
    0.9078    0.7636   -0.4605 H   0  0  0  0  0  0  0  0  0  0  0  0
    0.9079   -2.3131   -0.2381 H   0  0  0  0  0  0  0  0  0  0  0  0
  1  2  1  0
  1  5  1  0
  1  6  1  0
  1  7  1  0
  2  3  1  0
  2  8  1  0
  2 13  1  0
  3  4  2  0
  3  9  1  0
 10 11  2  3
 10 14  1  0
 10 15  1  0
 11 12  1  0
 11 16  1  0
M  RAD  1  12   2
M  END
>  <reaction>  (5) 
rxn_1977

>  <mol_properties>  (5) 
{"1": {"label": "*1", "atom_type": "Cs"}, "2": {"label": "*0", "atom_type": "CS"}, "9": {"label": "*3", "atom_type": "Cd"}, "10": {"label": "*4", "atom_type": "Cd"}, "12": {"label": "*2", "atom_type": "H0"}}

>  <type>  (5) 
unop_1

>  <geom_source>  (5) 
Heuristics

$$$$

     RDKit          3D

 16 14  0  0  0  0  0  0  0  0999 V2000
   -1.8926   -1.2505    1.2422 C   0  0  0  0  0  0  0  0  0  0  0  0
   -1.4777    0.1920    0.9399 C   0  0  0  0  0  0  0  0  0  0  0  0
   -0.7886    0.8183    2.1055 C   0  0  0  0  0  0  0  0  0  0  0  0
    0.7091    1.3991    2.1333 S   0  0  0  0  0  0  0  0  0  0  0  0
   -1.0164   -1.8728    1.4284 H   0  0  0  0  0  0  0  0  0  0  0  0
   -2.5386   -1.3020    2.1208 H   0  0  0  0  0  0  0  0  0  0  0  0
   -2.4378   -1.6725    0.3979 H   0  0  0  0  0  0  0  0  0  0  0  0
   -2.3762    0.7834    0.7284 H   0  0  0  0  0  0  0  0  0  0  0  0
   -1.3898    0.8530    3.0176 H   0  0  0  0  0  0  0  0  0  0  0  0
    0.6207    0.2564   -0.6295 C   0  0  0  0  0  0  0  0  0  0  0  0
    0.6207   -0.9421   -1.5117 C   0  0  0  0  0  0  0  0  0  0  0  0
    0.6207   -0.9421   -3.1183 S   0  0  0  0  0  1  0  0  0  0  0  0
   -0.4306    0.2241    0.1568 H   0  0  0  0  0  0  0  0  0  0  0  0
    1.4969    0.2295    0.0258 H   0  0  0  0  0  0  0  0  0  0  0  0
    0.6207    1.1802   -1.2041 H   0  0  0  0  0  0  0  0  0  0  0  0
    0.6207   -1.8965   -0.9817 H   0  0  0  0  0  0  0  0  0  0  0  0
  1  2  1  0
  1  5  1  0
  1  6  1  0
  1  7  1  0
  2  3  1  0
  2  8  1  0
  2 13  1  0
  3  4  2  0
  3  9  1  0
 10 11  2  3
 10 14  1  0
 10 15  1  0
 11 12  1  0
 11 16  1  0
M  RAD  1  12   2
M  END
>  <reaction>  (6) 
rxn_1977

>  <mol_properties>  (6) 
{"1": {"label": "*1", "atom_type": "Cs"}, "2": {"label": "*0", "atom_type": "CS"}, "9": {"label": "*3", "atom_type": "Cd"}, "10": {"label": "*4", "atom_type": "Cd"}, "12": {"label": "*2", "atom_type": "H0"}}

>  <type>  (6) 
unop_2

>  <geom_source>  (6) 
Heuristics

$$$$

     RDKit          3D

 16 14  0  0  0  0  0  0  0  0999 V2000
   -0.6065    0.5760    3.2287 C   0  0  0  0  0  0  0  0  0  0  0  0
   -0.8966   -0.1195    1.8959 C   0  0  0  0  0  0  0  0  0  0  0  0
   -1.5236    0.8153    0.9166 C   0  0  0  0  0  0  0  0  0  0  0  0
   -0.9353    1.2342   -0.5185 S   0  0  0  0  0  0  0  0  0  0  0  0
    0.1168    1.3812    3.0941 H   0  0  0  0  0  0  0  0  0  0  0  0
   -1.5140    1.0033    3.6594 H   0  0  0  0  0  0  0  0  0  0  0  0
   -0.1959   -0.1353    3.9455 H   0  0  0  0  0  0  0  0  0  0  0  0
   -1.6020   -0.9405    2.0695 H   0  0  0  0  0  0  0  0  0  0  0  0
   -2.4685    1.2501    1.2519 H   0  0  0  0  0  0  0  0  0  0  0  0
    1.2018   -0.0551    0.3266 C   0  0  0  0  0  0  0  0  0  0  0  0
    1.2018   -1.2535   -0.5556 C   0  0  0  0  0  0  0  0  0  0  0  0
    1.2018   -1.2535   -2.1623 S   0  0  0  0  0  1  0  0  0  0  0  0
    0.1504   -0.0873    1.1129 H   0  0  0  0  0  0  0  0  0  0  0  0
    2.0779   -0.0819    0.9818 H   0  0  0  0  0  0  0  0  0  0  0  0
    1.2018    0.8687   -0.2481 H   0  0  0  0  0  0  0  0  0  0  0  0
    1.2018   -2.2080   -0.0257 H   0  0  0  0  0  0  0  0  0  0  0  0
  1  2  1  0
  1  5  1  0
  1  6  1  0
  1  7  1  0
  2  3  1  0
  2  8  1  0
  2 13  1  0
  3  4  2  0
  3  9  1  0
 10 11  2  3
 10 14  1  0
 10 15  1  0
 11 12  1  0
 11 16  1  0
M  RAD  1  12   2
M  END
>  <reaction>  (7) 
rxn_1977

>  <mol_properties>  (7) 
{"1": {"label": "*1", "atom_type": "Cs"}, "2": {"label": "*0", "atom_type": "CS"}, "9": {"label": "*3", "atom_type": "Cd"}, "10": {"label": "*4", "atom_type": "Cd"}, "12": {"label": "*2", "atom_type": "H0"}}

>  <type>  (7) 
unop_3

>  <geom_source>  (7) 
Heuristics

$$$$

     RDKit          3D

 16 14  0  0  0  0  0  0  0  0999 V2000
   -2.2020    0.8815    0.0661 C   0  0  0  0  0  0  0  0  0  0  0  0
   -0.9066    0.8886    0.8822 C   0  0  0  0  0  0  0  0  0  0  0  0
   -1.1009    0.2612    2.2218 C   0  0  0  0  0  0  0  0  0  0  0  0
   -0.3348   -1.0296    2.7946 S   0  0  0  0  0  0  0  0  0  0  0  0
   -2.5240   -0.1406   -0.1375 H   0  0  0  0  0  0  0  0  0  0  0  0
   -3.0082    1.3921    0.5963 H   0  0  0  0  0  0  0  0  0  0  0  0
   -2.0517    1.3883   -0.8872 H   0  0  0  0  0  0  0  0  0  0  0  0
   -0.5942    1.9268    1.0441 H   0  0  0  0  0  0  0  0  0  0  0  0
   -1.8598    0.7475    2.8400 H   0  0  0  0  0  0  0  0  0  0  0  0
    1.1918    0.9530   -0.6872 C   0  0  0  0  0  0  0  0  0  0  0  0
    1.1918   -0.2455   -1.5694 C   0  0  0  0  0  0  0  0  0  0  0  0
    1.1918   -0.2455   -3.1760 S   0  0  0  0  0  1  0  0  0  0  0  0
    0.1405    0.9207    0.0991 H   0  0  0  0  0  0  0  0  0  0  0  0
    2.0680    0.9261   -0.0319 H   0  0  0  0  0  0  0  0  0  0  0  0
    1.1918    1.8768   -1.2618 H   0  0  0  0  0  0  0  0  0  0  0  0
    1.1918   -1.1999   -1.0394 H   0  0  0  0  0  0  0  0  0  0  0  0
  1  2  1  0
  1  5  1  0
  1  6  1  0
  1  7  1  0
  2  3  1  0
  2  8  1  0
  2 13  1  0
  3  4  2  0
  3  9  1  0
 10 11  2  3
 10 14  1  0
 10 15  1  0
 11 12  1  0
 11 16  1  0
M  RAD  1  12   2
M  END
>  <reaction>  (8) 
rxn_1977

>  <mol_properties>  (8) 
{"1": {"label": "*1", "atom_type": "Cs"}, "2": {"label": "*0", "atom_type": "CS"}, "9": {"label": "*3", "atom_type": "Cd"}, "10": {"label": "*4", "atom_type": "Cd"}, "12": {"label": "*2", "atom_type": "H0"}}

>  <type>  (8) 
unop_4

>  <geom_source>  (8) 
Heuristics

$$$$

     RDKit          3D

 16 14  0  0  0  0  0  0  0  0999 V2000
   -0.5258    1.4875    2.8501 C   0  0  0  0  0  0  0  0  0  0  0  0
   -0.4936    0.2667    1.9267 C   0  0  0  0  0  0  0  0  0  0  0  0
   -1.7349    0.1701    1.1047 C   0  0  0  0  0  0  0  0  0  0  0  0
   -1.8251    0.1926   -0.4992 S   0  0  0  0  0  0  0  0  0  0  0  0
   -0.5599    2.4099    2.2689 H   0  0  0  0  0  0  0  0  0  0  0  0
   -1.3985    1.4668    3.5055 H   0  0  0  0  0  0  0  0  0  0  0  0
    0.3658    1.5118    3.4769 H   0  0  0  0  0  0  0  0  0  0  0  0
   -0.4295   -0.6405    2.5389 H   0  0  0  0  0  0  0  0  0  0  0  0
   -2.6557    0.0936    1.6884 H   0  0  0  0  0  0  0  0  0  0  0  0
    1.6048    0.3311    0.3573 C   0  0  0  0  0  0  0  0  0  0  0  0
    1.6048   -0.8674   -0.5249 C   0  0  0  0  0  0  0  0  0  0  0  0
    1.6048   -0.8674   -2.1315 S   0  0  0  0  0  1  0  0  0  0  0  0
    0.5534    0.2988    1.1436 H   0  0  0  0  0  0  0  0  0  0  0  0
    2.4810    0.3042    1.0126 H   0  0  0  0  0  0  0  0  0  0  0  0
    1.6048    1.2549   -0.2173 H   0  0  0  0  0  0  0  0  0  0  0  0
    1.6048   -1.8218    0.0051 H   0  0  0  0  0  0  0  0  0  0  0  0
  1  2  1  0
  1  5  1  0
  1  6  1  0
  1  7  1  0
  2  3  1  0
  2  8  1  0
  2 13  1  0
  3  4  2  0
  3  9  1  0
 10 11  2  3
 10 14  1  0
 10 15  1  0
 11 12  1  0
 11 16  1  0
M  RAD  1  12   2
M  END
>  <reaction>  (9) 
rxn_1977

>  <mol_properties>  (9) 
{"1": {"label": "*1", "atom_type": "Cs"}, "2": {"label": "*0", "atom_type": "CS"}, "9": {"label": "*3", "atom_type": "Cd"}, "10": {"label": "*4", "atom_type": "Cd"}, "12": {"label": "*2", "atom_type": "H0"}}

>  <type>  (9) 
unop_5

>  <geom_source>  (9) 
Heuristics

$$$$

     RDKit          3D

 16 14  0  0  0  0  0  0  0  0999 V2000
   -1.9045    1.6731    0.3995 C   0  0  0  0  0  0  0  0  0  0  0  0
   -0.7116    0.9665    1.0491 C   0  0  0  0  0  0  0  0  0  0  0  0
   -1.1451    0.0753    2.1643 C   0  0  0  0  0  0  0  0  0  0  0  0
   -0.9229   -1.5129    2.2622 S   0  0  0  0  0  0  0  0  0  0  0  0
   -2.5806    0.9484   -0.0560 H   0  0  0  0  0  0  0  0  0  0  0  0
   -2.4704    2.2517    1.1320 H   0  0  0  0  0  0  0  0  0  0  0  0
   -1.5624    2.3563   -0.3780 H   0  0  0  0  0  0  0  0  0  0  0  0
   -0.0377    1.7216    1.4705 H   0  0  0  0  0  0  0  0  0  0  0  0
   -1.6776    0.5887    2.9689 H   0  0  0  0  0  0  0  0  0  0  0  0
    1.3868    1.0309   -0.5202 C   0  0  0  0  0  0  0  0  0  0  0  0
    1.3868   -0.1675   -1.4024 C   0  0  0  0  0  0  0  0  0  0  0  0
    1.3868   -0.1675   -3.0091 S   0  0  0  0  0  1  0  0  0  0  0  0
    0.3354    0.9987    0.2661 H   0  0  0  0  0  0  0  0  0  0  0  0
    2.2630    1.0041    0.1350 H   0  0  0  0  0  0  0  0  0  0  0  0
    1.3868    1.9547   -1.0949 H   0  0  0  0  0  0  0  0  0  0  0  0
    1.3868   -1.1219   -0.8725 H   0  0  0  0  0  0  0  0  0  0  0  0
  1  2  1  0
  1  5  1  0
  1  6  1  0
  1  7  1  0
  2  3  1  0
  2  8  1  0
  2 13  1  0
  3  4  2  0
  3  9  1  0
 10 11  2  3
 10 14  1  0
 10 15  1  0
 11 12  1  0
 11 16  1  0
M  RAD  1  12   2
M  END
>  <reaction>  (10) 
rxn_1977

>  <mol_properties>  (10) 
{"1": {"label": "*1", "atom_type": "Cs"}, "2": {"label": "*0", "atom_type": "CS"}, "9": {"label": "*3", "atom_type": "Cd"}, "10": {"label": "*4", "atom_type": "Cd"}, "12": {"label": "*2", "atom_type": "H0"}}

>  <type>  (10) 
unop_6

>  <geom_source>  (10) 
Heuristics

$$$$

     RDKit          3D

 16 14  0  0  0  0  0  0  0  0999 V2000
   -1.4158    2.1785    1.0687 C   0  0  0  0  0  0  0  0  0  0  0  0
   -0.5274    0.9513    1.2898 C   0  0  0  0  0  0  0  0  0  0  0  0
   -1.2642   -0.1368    1.9962 C   0  0  0  0  0  0  0  0  0  0  0  0
   -1.5422   -1.6197    1.4440 S   0  0  0  0  0  0  0  0  0  0  0  0
   -2.2586    1.9329    0.4214 H   0  0  0  0  0  0  0  0  0  0  0  0
   -1.8119    2.5573    2.0128 H   0  0  0  0  0  0  0  0  0  0  0  0
   -0.8454    2.9789    0.5973 H   0  0  0  0  0  0  0  0  0  0  0  0
    0.3242    1.2375    1.9180 H   0  0  0  0  0  0  0  0  0  0  0  0
   -1.6518    0.1467    2.9780 H   0  0  0  0  0  0  0  0  0  0  0  0
    1.5710    1.0157   -0.2795 C   0  0  0  0  0  0  0  0  0  0  0  0
    1.5710   -0.1828   -1.1617 C   0  0  0  0  0  0  0  0  0  0  0  0
    1.5710   -0.1828   -2.7684 S   0  0  0  0  0  1  0  0  0  0  0  0
    0.5196    0.9834    0.5068 H   0  0  0  0  0  0  0  0  0  0  0  0
    2.4471    0.9888    0.3757 H   0  0  0  0  0  0  0  0  0  0  0  0
    1.5710    1.9395   -0.8542 H   0  0  0  0  0  0  0  0  0  0  0  0
    1.5710   -1.1372   -0.6318 H   0  0  0  0  0  0  0  0  0  0  0  0
  1  2  1  0
  1  5  1  0
  1  6  1  0
  1  7  1  0
  2  3  1  0
  2  8  1  0
  2 13  1  0
  3  4  2  0
  3  9  1  0
 10 11  2  3
 10 14  1  0
 10 15  1  0
 11 12  1  0
 11 16  1  0
M  RAD  1  12   2
M  END
>  <reaction>  (11) 
rxn_1977

>  <mol_properties>  (11) 
{"1": {"label": "*1", "atom_type": "Cs"}, "2": {"label": "*0", "atom_type": "CS"}, "9": {"label": "*3", "atom_type": "Cd"}, "10": {"label": "*4", "atom_type": "Cd"}, "12": {"label": "*2", "atom_type": "H0"}}

>  <type>  (11) 
unop_7

>  <geom_source>  (11) 
Heuristics

$$$$

     RDKit          3D

 16 14  0  0  0  0  0  0  0  0999 V2000
   -1.0583   -0.9289    2.7410 C   0  0  0  0  0  0  0  0  0  0  0  0
   -1.3727   -0.1954    1.4344 C   0  0  0  0  0  0  0  0  0  0  0  0
   -0.9422    1.2319    1.4915 C   0  0  0  0  0  0  0  0  0  0  0  0
    0.1241    1.9495    0.5274 S   0  0  0  0  0  0  0  0  0  0  0  0
    0.0177   -0.9585    2.9174 H   0  0  0  0  0  0  0  0  0  0  0  0
   -1.5289   -0.4381    3.5951 H   0  0  0  0  0  0  0  0  0  0  0  0
   -1.4253   -1.9544    2.6974 H   0  0  0  0  0  0  0  0  0  0  0  0
   -2.4567   -0.2089    1.2712 H   0  0  0  0  0  0  0  0  0  0  0  0
   -1.4093    1.8106    2.2923 H   0  0  0  0  0  0  0  0  0  0  0  0
    0.7257   -0.1310   -0.1349 C   0  0  0  0  0  0  0  0  0  0  0  0
    0.7257   -1.3295   -1.0171 C   0  0  0  0  0  0  0  0  0  0  0  0
    0.7257   -1.3295   -2.6238 S   0  0  0  0  0  1  0  0  0  0  0  0
   -0.3257   -0.1633    0.6513 H   0  0  0  0  0  0  0  0  0  0  0  0
    1.6018   -0.1579    0.5203 H   0  0  0  0  0  0  0  0  0  0  0  0
    0.7257    0.7928   -0.7096 H   0  0  0  0  0  0  0  0  0  0  0  0
    0.7257   -2.2839   -0.4872 H   0  0  0  0  0  0  0  0  0  0  0  0
  1  2  1  0
  1  5  1  0
  1  6  1  0
  1  7  1  0
  2  3  1  0
  2  8  1  0
  2 13  1  0
  3  4  2  0
  3  9  1  0
 10 11  2  3
 10 14  1  0
 10 15  1  0
 11 12  1  0
 11 16  1  0
M  RAD  1  12   2
M  END
>  <reaction>  (12) 
rxn_1977

>  <mol_properties>  (12) 
{"1": {"label": "*1", "atom_type": "Cs"}, "2": {"label": "*0", "atom_type": "CS"}, "9": {"label": "*3", "atom_type": "Cd"}, "10": {"label": "*4", "atom_type": "Cd"}, "12": {"label": "*2", "atom_type": "H0"}}

>  <type>  (12) 
unop_8

>  <geom_source>  (12) 
Heuristics

$$$$

     RDKit          3D

 16 14  0  0  0  0  0  0  0  0999 V2000
   -2.2941    0.0117    0.1120 C   0  0  0  0  0  0  0  0  0  0  0  0
   -1.1255    0.7341    0.7878 C   0  0  0  0  0  0  0  0  0  0  0  0
   -1.0395    0.3964    2.2385 C   0  0  0  0  0  0  0  0  0  0  0  0
    0.1995   -0.3001    2.9874 S   0  0  0  0  0  0  0  0  0  0  0  0
   -2.1526   -1.0692    0.1491 H   0  0  0  0  0  0  0  0  0  0  0  0
   -3.2420    0.2470    0.5998 H   0  0  0  0  0  0  0  0  0  0  0  0
   -2.3701    0.3103   -0.9336 H   0  0  0  0  0  0  0  0  0  0  0  0
   -1.2824    1.8162    0.7077 H   0  0  0  0  0  0  0  0  0  0  0  0
   -1.9344    0.6492    2.8127 H   0  0  0  0  0  0  0  0  0  0  0  0
    0.9728    0.7986   -0.7815 C   0  0  0  0  0  0  0  0  0  0  0  0
    0.9728   -0.3999   -1.6637 C   0  0  0  0  0  0  0  0  0  0  0  0
    0.9728   -0.3999   -3.2704 S   0  0  0  0  0  1  0  0  0  0  0  0
   -0.0785    0.7663    0.0048 H   0  0  0  0  0  0  0  0  0  0  0  0
    1.8490    0.7717   -0.1263 H   0  0  0  0  0  0  0  0  0  0  0  0
    0.9728    1.7224   -1.3562 H   0  0  0  0  0  0  0  0  0  0  0  0
    0.9729   -1.3543   -1.1338 H   0  0  0  0  0  0  0  0  0  0  0  0
  1  2  1  0
  1  5  1  0
  1  6  1  0
  1  7  1  0
  2  3  1  0
  2  8  1  0
  2 13  1  0
  3  4  2  0
  3  9  1  0
 10 11  2  3
 10 14  1  0
 10 15  1  0
 11 12  1  0
 11 16  1  0
M  RAD  1  12   2
M  END
>  <reaction>  (13) 
rxn_1977

>  <mol_properties>  (13) 
{"1": {"label": "*1", "atom_type": "Cs"}, "2": {"label": "*0", "atom_type": "CS"}, "9": {"label": "*3", "atom_type": "Cd"}, "10": {"label": "*4", "atom_type": "Cd"}, "12": {"label": "*2", "atom_type": "H0"}}

>  <type>  (13) 
unop_9

>  <geom_source>  (13) 
Heuristics

$$$$

     RDKit          3D

 16 14  0  0  0  0  0  0  0  0999 V2000
   -1.4673   -1.3095    2.0519 C   0  0  0  0  0  0  0  0  0  0  0  0
   -1.4772   -0.0553    1.1738 C   0  0  0  0  0  0  0  0  0  0  0  0
   -0.7923    1.0876    1.8452 C   0  0  0  0  0  0  0  0  0  0  0  0
    0.4989    1.8787    1.3085 S   0  0  0  0  0  0  0  0  0  0  0  0
   -0.4457   -1.6484    2.2287 H   0  0  0  0  0  0  0  0  0  0  0  0
   -1.9344   -1.1200    3.0202 H   0  0  0  0  0  0  0  0  0  0  0  0
   -2.0153   -2.1165    1.5656 H   0  0  0  0  0  0  0  0  0  0  0  0
   -2.5163    0.2420    0.9903 H   0  0  0  0  0  0  0  0  0  0  0  0
   -1.2329    1.3758    2.8029 H   0  0  0  0  0  0  0  0  0  0  0  0
    0.6212    0.0092   -0.3955 C   0  0  0  0  0  0  0  0  0  0  0  0
    0.6212   -1.1893   -1.2777 C   0  0  0  0  0  0  0  0  0  0  0  0
    0.6212   -1.1893   -2.8844 S   0  0  0  0  0  1  0  0  0  0  0  0
   -0.4302   -0.0231    0.3908 H   0  0  0  0  0  0  0  0  0  0  0  0
    1.4974   -0.0177    0.2597 H   0  0  0  0  0  0  0  0  0  0  0  0
    0.6212    0.9329   -0.9702 H   0  0  0  0  0  0  0  0  0  0  0  0
    0.6212   -2.1437   -0.7478 H   0  0  0  0  0  0  0  0  0  0  0  0
  1  2  1  0
  1  5  1  0
  1  6  1  0
  1  7  1  0
  2  3  1  0
  2  8  1  0
  2 13  1  0
  3  4  2  0
  3  9  1  0
 10 11  2  3
 10 14  1  0
 10 15  1  0
 11 12  1  0
 11 16  1  0
M  RAD  1  12   2
M  END
>  <reaction>  (14) 
rxn_1977

>  <mol_properties>  (14) 
{"1": {"label": "*1", "atom_type": "Cs"}, "2": {"label": "*0", "atom_type": "CS"}, "9": {"label": "*3", "atom_type": "Cd"}, "10": {"label": "*4", "atom_type": "Cd"}, "12": {"label": "*2", "atom_type": "H0"}}

>  <type>  (14) 
unop_10

>  <geom_source>  (14) 
Heuristics

$$$$

     RDKit          3D

 16 14  0  0  0  0  0  0  0  0999 V2000
   -0.8463    2.1674    1.9731 C   0  0  0  0  0  0  0  0  0  0  0  0
   -0.3828    0.7519    1.6184 C   0  0  0  0  0  0  0  0  0  0  0  0
   -1.5186   -0.2153    1.6342 C   0  0  0  0  0  0  0  0  0  0  0  0
   -2.0389   -1.1011    0.3990 S   0  0  0  0  0  0  0  0  0  0  0  0
   -1.5529    2.5393    1.2300 H   0  0  0  0  0  0  0  0  0  0  0  0
   -1.3353    2.1924    2.9488 H   0  0  0  0  0  0  0  0  0  0  0  0
    0.0048    2.8477    2.0052 H   0  0  0  0  0  0  0  0  0  0  0  0
    0.3470    0.4192    2.3658 H   0  0  0  0  0  0  0  0  0  0  0  0
   -2.0329   -0.2890    2.5957 H   0  0  0  0  0  0  0  0  0  0  0  0
    1.7156    0.8164    0.0491 C   0  0  0  0  0  0  0  0  0  0  0  0
    1.7156   -0.3821   -0.8331 C   0  0  0  0  0  0  0  0  0  0  0  0
    1.7156   -0.3821   -2.4398 S   0  0  0  0  0  1  0  0  0  0  0  0
    0.6642    0.7841    0.8354 H   0  0  0  0  0  0  0  0  0  0  0  0
    2.5918    0.7895    0.7043 H   0  0  0  0  0  0  0  0  0  0  0  0
    1.7156    1.7402   -0.5256 H   0  0  0  0  0  0  0  0  0  0  0  0
    1.7156   -1.3365   -0.3032 H   0  0  0  0  0  0  0  0  0  0  0  0
  1  2  1  0
  1  5  1  0
  1  6  1  0
  1  7  1  0
  2  3  1  0
  2  8  1  0
  2 13  1  0
  3  4  2  0
  3  9  1  0
 10 11  2  3
 10 14  1  0
 10 15  1  0
 11 12  1  0
 11 16  1  0
M  RAD  1  12   2
M  END
>  <reaction>  (15) 
rxn_1977

>  <mol_properties>  (15) 
{"1": {"label": "*1", "atom_type": "Cs"}, "2": {"label": "*0", "atom_type": "CS"}, "9": {"label": "*3", "atom_type": "Cd"}, "10": {"label": "*4", "atom_type": "Cd"}, "12": {"label": "*2", "atom_type": "H0"}}

>  <type>  (15) 
unop_11

>  <geom_source>  (15) 
Heuristics

$$$$

     RDKit          3D

 16 14  0  0  0  0  0  0  0  0999 V2000
   -2.1909   -0.7591    0.5314 C   0  0  0  0  0  0  0  0  0  0  0  0
   -1.3446    0.4887    0.7979 C   0  0  0  0  0  0  0  0  0  0  0  0
   -0.9102    0.5605    2.2234 C   0  0  0  0  0  0  0  0  0  0  0  0
    0.6029    0.5817    2.7632 S   0  0  0  0  0  0  0  0  0  0  0  0
   -1.6070   -1.6646    0.7015 H   0  0  0  0  0  0  0  0  0  0  0  0
   -3.0660   -0.7920    1.1832 H   0  0  0  0  0  0  0  0  0  0  0  0
   -2.5395   -0.7667   -0.5013 H   0  0  0  0  0  0  0  0  0  0  0  0
   -1.9491    1.3793    0.5899 H   0  0  0  0  0  0  0  0  0  0  0  0
   -1.7323    0.5836    2.9432 H   0  0  0  0  0  0  0  0  0  0  0  0
    0.7538    0.5531   -0.7715 C   0  0  0  0  0  0  0  0  0  0  0  0
    0.7538   -0.6453   -1.6536 C   0  0  0  0  0  0  0  0  0  0  0  0
    0.7538   -0.6453   -3.2603 S   0  0  0  0  0  1  0  0  0  0  0  0
   -0.2976    0.5209    0.0148 H   0  0  0  0  0  0  0  0  0  0  0  0
    1.6299    0.5262   -0.1162 H   0  0  0  0  0  0  0  0  0  0  0  0
    0.7538    1.4769   -1.3461 H   0  0  0  0  0  0  0  0  0  0  0  0
    0.7538   -1.5998   -1.1237 H   0  0  0  0  0  0  0  0  0  0  0  0
  1  2  1  0
  1  5  1  0
  1  6  1  0
  1  7  1  0
  2  3  1  0
  2  8  1  0
  2 13  1  0
  3  4  2  0
  3  9  1  0
 10 11  2  3
 10 14  1  0
 10 15  1  0
 11 12  1  0
 11 16  1  0
M  RAD  1  12   2
M  END
>  <reaction>  (16) 
rxn_1977

>  <mol_properties>  (16) 
{"1": {"label": "*1", "atom_type": "Cs"}, "2": {"label": "*0", "atom_type": "CS"}, "9": {"label": "*3", "atom_type": "Cd"}, "10": {"label": "*4", "atom_type": "Cd"}, "12": {"label": "*2", "atom_type": "H0"}}

>  <type>  (16) 
unop_12

>  <geom_source>  (16) 
Heuristics

$$$$

     RDKit          3D

 16 14  0  0  0  0  0  0  0  0999 V2000
   -1.1333    1.5645    1.6417 S   0  0  0  0  0  1  0  0  0  0  0  0
    3.8716    0.9253   -0.0084 S   0  0  0  0  0  0  0  0  0  0  0  0
   -0.9408   -0.0659   -0.3203 C   0  0  0  0  0  0  0  0  0  0  0  0
   -1.7597   -1.2605    0.1601 C   0  0  0  0  0  0  0  0  0  0  0  0
   -1.4348    1.2199    0.2798 C   0  0  0  0  0  0  0  0  0  0  0  0
    1.6694   -0.3286   -0.2735 C   0  0  0  0  0  0  0  0  0  0  0  0
    2.4368    0.9146    0.0426 C   0  0  0  0  0  0  0  0  0  0  0  0
   -1.0228   -0.0004   -1.4265 H   0  0  0  0  0  0  0  0  0  0  0  0
    0.4051   -0.2604    0.0023 H   0  0  0  0  0  0  0  0  0  0  0  0
   -2.8323   -1.1206   -0.0937 H   0  0  0  0  0  0  0  0  0  0  0  0
   -1.3919   -2.1826   -0.3365 H   0  0  0  0  0  0  0  0  0  0  0  0
   -1.6533   -1.3854    1.2584 H   0  0  0  0  0  0  0  0  0  0  0  0
   -1.9078    1.9587   -0.3591 H   0  0  0  0  0  0  0  0  0  0  0  0
    1.9021    1.8182    0.3136 H   0  0  0  0  0  0  0  0  0  0  0  0
    1.8628   -0.6549   -1.3178 H   0  0  0  0  0  0  0  0  0  0  0  0
    1.9289   -1.1421    0.4374 H   0  0  0  0  0  0  0  0  0  0  0  0
  1  5  1  0
  2  7  2  0
  3  4  1  0
  3  5  2  3
  3  8  1  0
  4 10  1  0
  4 11  1  0
  4 12  1  0
  5 13  1  0
  6  7  1  0
  6  9  1  0
  6 15  1  0
  6 16  1  0
  7 14  1  0
M  RAD  1   1   2
M  END
>  <reaction>  (17) 
rxn_1977

>  <mol_properties>  (17) 
{"1": {"label": "*1", "atom_type": "Cs"}, "2": {"label": "*0", "atom_type": "CS"}, "9": {"label": "*3", "atom_type": "Cd"}, "10": {"label": "*4", "atom_type": "Cd"}, "12": {"label": "*2", "atom_type": "H0"}}

>  <type>  (17) 
unop_13

>  <geom_source>  (17) 
AutoTST

$$$$
