
     RDKit          3D

  6  5  0  0  0  0  0  0  0  0999 V2000
   -0.3669    0.0060    0.0609 C   0  0  0  0  0  0  0  0  0  0  0  0
    0.9818   -0.0507    0.4695 O   0  0  0  0  0  0  0  0  0  0  0  0
   -0.6066    0.9462   -0.4488 H   0  0  0  0  0  0  0  0  0  0  0  0
   -0.5221   -0.8115   -0.6420 H   0  0  0  0  0  0  0  0  0  0  0  0
   -1.0602   -0.1268    0.8992 H   0  0  0  0  0  0  0  0  0  0  0  0
    1.1451    0.6595    1.0897 H   0  0  0  0  0  0  0  0  0  0  0  0
  1  2  1  0
  1  3  1  0
  1  4  1  0
  1  5  1  0
  2  6  1  0
M  END
>  <reaction>  (1) 
rxn_389

>  <mol_properties>  (1) 
{"1": {"label": "donator", "atom_type": "O2s"}, "5": {"label": "d_hydrogen", "atom_type": "H0"}}

>  <type>  (1) 
r1h

$$$$

     RDKit          3D

  7  6  0  0  0  0  0  0  0  0999 V2000
   -0.6201    0.0189   -0.0017 C   0  0  0  0  0  0  0  0  0  0  0  0
    0.8589   -0.0553    0.0500 C   0  0  0  0  0  3  0  0  0  0  0  0
   -1.0738   -0.9730   -0.0559 H   0  0  0  0  0  0  0  0  0  0  0  0
   -0.9680    0.5706   -0.8872 H   0  0  0  0  0  0  0  0  0  0  0  0
   -1.0303    0.5369    0.8678 H   0  0  0  0  0  0  0  0  0  0  0  0
    1.3939   -0.8386   -0.4695 H   0  0  0  0  0  0  0  0  0  0  0  0
    1.4394    0.7404    0.4965 H   0  0  0  0  0  0  0  0  0  0  0  0
  1  2  1  0
  1  3  1  0
  1  4  1  0
  1  5  1  0
  2  6  1  0
  2  7  1  0
M  RAD  1   2   2
M  END
>  <reaction>  (2) 
rxn_389

>  <mol_properties>  (2) 
{"1": {"label": "acceptor", "atom_type": "Cs"}}

>  <type>  (2) 
r2

$$$$

     RDKit          3D

  8  7  0  0  0  0  0  0  0  0999 V2000
    0.7610    0.0250    0.0051 C   0  0  0  0  0  0  0  0  0  0  0  0
   -0.7610   -0.0250   -0.0051 C   0  0  0  0  0  0  0  0  0  0  0  0
    1.1904   -0.9237   -0.3217 H   0  0  0  0  0  0  0  0  0  0  0  0
    1.1359    0.8041   -0.6609 H   0  0  0  0  0  0  0  0  0  0  0  0
    1.1435    0.2336    1.0058 H   0  0  0  0  0  0  0  0  0  0  0  0
   -1.1435   -0.2336   -1.0058 H   0  0  0  0  0  0  0  0  0  0  0  0
   -1.1904    0.9237    0.3216 H   0  0  0  0  0  0  0  0  0  0  0  0
   -1.1359   -0.8041    0.6609 H   0  0  0  0  0  0  0  0  0  0  0  0
  1  2  1  0
  1  3  1  0
  1  4  1  0
  1  5  1  0
  2  6  1  0
  2  7  1  0
  2  8  1  0
M  END
>  <reaction>  (3) 
rxn_389

>  <mol_properties>  (3) 
{"0": {"label": "a_hydrogen", "atom_type": "H0"}, "2": {"label": "acceptor", "atom_type": "Cs"}}

>  <type>  (3) 
r2h

$$$$

     RDKit          3D

 13 11  0  0  0  0  0  0  0  0999 V2000
   -0.0121   -1.3351   -1.1218 C   0  0  0  0  0  0  0  0  0  0  0  0
   -0.8508   -1.1604   -0.0256 O   0  0  0  0  0  0  0  0  0  0  0  0
    1.0389   -1.4709   -0.8367 H   0  0  0  0  0  0  0  0  0  0  0  0
   -0.3427   -2.2540   -1.6183 H   0  0  0  0  0  0  0  0  0  0  0  0
   -0.0868   -0.5181   -1.8507 H   0  0  0  0  0  0  0  0  0  0  0  0
   -0.4555   -0.1397    0.5826 H   0  0  0  0  0  0  0  0  0  0  0  0
    0.2853    1.8876   -0.0517 C   0  0  0  0  0  0  0  0  0  0  0  0
    0.0156    0.9206    1.0675 C   0  0  0  0  0  3  0  0  0  0  0  0
    0.6581    2.8391    0.3404 H   0  0  0  0  0  0  0  0  0  0  0  0
   -0.6215    2.0986   -0.6204 H   0  0  0  0  0  0  0  0  0  0  0  0
    1.0391    1.5032   -0.7409 H   0  0  0  0  0  0  0  0  0  0  0  0
   -0.7780    1.2234    1.7493 H   0  0  0  0  0  0  0  0  0  0  0  0
    0.9006    0.5858    1.6066 H   0  0  0  0  0  0  0  0  0  0  0  0
  1  2  1  0
  1  3  1  0
  1  4  1  0
  1  5  1  0
  2  6  1  0
  7  8  1  0
  7  9  1  0
  7 10  1  0
  7 11  1  0
  8 12  1  0
  8 13  1  0
M  RAD  1   8   2
M  END
>  <reaction>  (4) 
rxn_389

>  <mol_properties>  (4) 
{"0": {"label": "*0", "atom_type": "Cs"}, "1": {"label": "*1", "atom_type": "O2s"}, "5": {"label": "*2", "atom_type": "H0"}, "6": {"label": "*4", "atom_type": "Cs"}, "7": {"label": "*3", "atom_type": "Cs"}}

>  <type>  (4) 
ts

$$$$

     RDKit          3D

 13 11  0  0  0  0  0  0  0  0999 V2000
    0.2982   -1.2069   -1.6489 C   0  0  0  0  0  0  0  0  0  0  0  0
    0.2982   -1.2069   -0.2385 O   0  0  0  0  0  0  0  0  0  0  0  0
    1.1890   -0.7215   -2.0636 H   0  0  0  0  0  0  0  0  0  0  0  0
    0.2982   -2.2483   -1.9680 H   0  0  0  0  0  0  0  0  0  0  0  0
   -0.5926   -0.7215   -2.0636 H   0  0  0  0  0  0  0  0  0  0  0  0
    0.2982   -0.1193    0.1302 H   0  0  0  0  0  0  0  0  0  0  0  0
   -0.9308    1.4164    1.4000 C   0  0  0  0  0  0  0  0  0  0  0  0
    0.2982    1.1211    0.5507 C   0  0  0  0  0  3  0  0  0  0  0  0
   -0.6792    2.0472    2.2544 H   0  0  0  0  0  0  0  0  0  0  0  0
   -1.3745    0.4974    1.7871 H   0  0  0  0  0  0  0  0  0  0  0  0
   -1.6970    1.9348    0.8208 H   0  0  0  0  0  0  0  0  0  0  0  0
    1.0644    0.6027    1.1299 H   0  0  0  0  0  0  0  0  0  0  0  0
    0.7420    2.0401    0.1636 H   0  0  0  0  0  0  0  0  0  0  0  0
  1  2  1  0
  1  3  1  0
  1  4  1  0
  1  5  1  0
  2  6  1  0
  7  8  1  0
  7  9  1  0
  7 10  1  0
  7 11  1  0
  8 12  1  0
  8 13  1  0
M  RAD  1   8   2
M  END
>  <reaction>  (5) 
rxn_389

>  <mol_properties>  (5) 
{"0": {"label": "*0", "atom_type": "Cs"}, "1": {"label": "*1", "atom_type": "O2s"}, "5": {"label": "*2", "atom_type": "H0"}, "6": {"label": "*4", "atom_type": "Cs"}, "7": {"label": "*3", "atom_type": "Cs"}}

>  <type>  (5) 
unop_1

>  <geom_source>  (5) 
Heuristics

$$$$

     RDKit          3D

 13 11  0  0  0  0  0  0  0  0999 V2000
    0.1792   -1.3652   -1.1908 C   0  0  0  0  0  0  0  0  0  0  0  0
    0.1792   -1.3652    0.2195 O   0  0  0  0  0  0  0  0  0  0  0  0
    1.0700   -0.8798   -1.6056 H   0  0  0  0  0  0  0  0  0  0  0  0
    0.1792   -2.4066   -1.5100 H   0  0  0  0  0  0  0  0  0  0  0  0
   -0.7116   -0.8798   -1.6056 H   0  0  0  0  0  0  0  0  0  0  0  0
    0.1792   -0.2776    0.5882 H   0  0  0  0  0  0  0  0  0  0  0  0
   -0.5303    1.8805    0.0221 C   0  0  0  0  0  0  0  0  0  0  0  0
    0.1792    0.9628    1.0087 C   0  0  0  0  0  3  0  0  0  0  0  0
   -0.8123    2.8244    0.4919 H   0  0  0  0  0  0  0  0  0  0  0  0
   -1.4408    1.4185   -0.3637 H   0  0  0  0  0  0  0  0  0  0  0  0
    0.1088    2.1140   -0.8312 H   0  0  0  0  0  0  0  0  0  0  0  0
   -0.4599    0.7292    1.8621 H   0  0  0  0  0  0  0  0  0  0  0  0
    1.0897    1.4248    1.3945 H   0  0  0  0  0  0  0  0  0  0  0  0
  1  2  1  0
  1  3  1  0
  1  4  1  0
  1  5  1  0
  2  6  1  0
  7  8  1  0
  7  9  1  0
  7 10  1  0
  7 11  1  0
  8 12  1  0
  8 13  1  0
M  RAD  1   8   2
M  END
>  <reaction>  (6) 
rxn_389

>  <mol_properties>  (6) 
{"0": {"label": "*0", "atom_type": "Cs"}, "1": {"label": "*1", "atom_type": "O2s"}, "5": {"label": "*2", "atom_type": "H0"}, "6": {"label": "*4", "atom_type": "Cs"}, "7": {"label": "*3", "atom_type": "Cs"}}

>  <type>  (6) 
unop_2

>  <geom_source>  (6) 
Heuristics

$$$$

     RDKit          3D

 13 11  0  0  0  0  0  0  0  0999 V2000
    0.1679   -1.1692   -1.7654 C   0  0  0  0  0  0  0  0  0  0  0  0
    0.1679   -1.1692   -0.3550 O   0  0  0  0  0  0  0  0  0  0  0  0
    1.0587   -0.6838   -2.1802 H   0  0  0  0  0  0  0  0  0  0  0  0
    0.1679   -2.2106   -2.0846 H   0  0  0  0  0  0  0  0  0  0  0  0
   -0.7229   -0.6838   -2.1802 H   0  0  0  0  0  0  0  0  0  0  0  0
    0.1679   -0.0815    0.0137 H   0  0  0  0  0  0  0  0  0  0  0  0
   -0.5416    1.2873    1.7754 C   0  0  0  0  0  0  0  0  0  0  0  0
    0.1679    1.1588    0.4342 C   0  0  0  0  0  3  0  0  0  0  0  0
   -0.1391    2.1177    2.3582 H   0  0  0  0  0  0  0  0  0  0  0  0
   -0.4287    0.3800    2.3715 H   0  0  0  0  0  0  0  0  0  0  0  0
   -1.6104    1.4645    1.6425 H   0  0  0  0  0  0  0  0  0  0  0  0
    1.2366    0.9817    0.5671 H   0  0  0  0  0  0  0  0  0  0  0  0
    0.0550    2.0661   -0.1619 H   0  0  0  0  0  0  0  0  0  0  0  0
  1  2  1  0
  1  3  1  0
  1  4  1  0
  1  5  1  0
  2  6  1  0
  7  8  1  0
  7  9  1  0
  7 10  1  0
  7 11  1  0
  8 12  1  0
  8 13  1  0
M  RAD  1   8   2
M  END
>  <reaction>  (7) 
rxn_389

>  <mol_properties>  (7) 
{"0": {"label": "*0", "atom_type": "Cs"}, "1": {"label": "*1", "atom_type": "O2s"}, "5": {"label": "*2", "atom_type": "H0"}, "6": {"label": "*4", "atom_type": "Cs"}, "7": {"label": "*3", "atom_type": "Cs"}}

>  <type>  (7) 
unop_3

>  <geom_source>  (7) 
Heuristics

$$$$

     RDKit          3D

 13 11  0  0  0  0  0  0  0  0999 V2000
   -0.3076   -1.3211   -1.3160 C   0  0  0  0  0  0  0  0  0  0  0  0
   -0.3076   -1.3211    0.0944 O   0  0  0  0  0  0  0  0  0  0  0  0
    0.5832   -0.8357   -1.7307 H   0  0  0  0  0  0  0  0  0  0  0  0
   -0.3075   -2.3625   -1.6351 H   0  0  0  0  0  0  0  0  0  0  0  0
   -1.1984   -0.8358   -1.7307 H   0  0  0  0  0  0  0  0  0  0  0  0
   -0.3076   -0.2335    0.4631 H   0  0  0  0  0  0  0  0  0  0  0  0
    0.9214    1.7578    0.3889 C   0  0  0  0  0  0  0  0  0  0  0  0
   -0.3076    1.0069    0.8836 C   0  0  0  0  0  3  0  0  0  0  0  0
    1.2364    2.5176    1.1063 H   0  0  0  0  0  0  0  0  0  0  0  0
    0.7231    2.2606   -0.5592 H   0  0  0  0  0  0  0  0  0  0  0  0
    1.7633    1.0806    0.2340 H   0  0  0  0  0  0  0  0  0  0  0  0
   -1.1494    1.6840    1.0386 H   0  0  0  0  0  0  0  0  0  0  0  0
   -0.1092    0.5041    1.8318 H   0  0  0  0  0  0  0  0  0  0  0  0
  1  2  1  0
  1  3  1  0
  1  4  1  0
  1  5  1  0
  2  6  1  0
  7  8  1  0
  7  9  1  0
  7 10  1  0
  7 11  1  0
  8 12  1  0
  8 13  1  0
M  RAD  1   8   2
M  END
>  <reaction>  (8) 
rxn_389

>  <mol_properties>  (8) 
{"0": {"label": "*0", "atom_type": "Cs"}, "1": {"label": "*1", "atom_type": "O2s"}, "5": {"label": "*2", "atom_type": "H0"}, "6": {"label": "*4", "atom_type": "Cs"}, "7": {"label": "*3", "atom_type": "Cs"}}

>  <type>  (8) 
unop_4

>  <geom_source>  (8) 
Heuristics

$$$$

     RDKit          3D

 13 11  0  0  0  0  0  0  0  0999 V2000
   -0.0000   -1.1575   -1.8059 C   0  0  0  0  0  0  0  0  0  0  0  0
   -0.0000   -1.1575   -0.3955 O   0  0  0  0  0  0  0  0  0  0  0  0
    0.8908   -0.6721   -2.2206 H   0  0  0  0  0  0  0  0  0  0  0  0
    0.0000   -2.1989   -2.1250 H   0  0  0  0  0  0  0  0  0  0  0  0
   -0.8908   -0.6721   -2.2206 H   0  0  0  0  0  0  0  0  0  0  0  0
   -0.0000   -0.0699   -0.0268 H   0  0  0  0  0  0  0  0  0  0  0  0
   -0.0000    1.2380    1.9150 C   0  0  0  0  0  0  0  0  0  0  0  0
   -0.0000    1.1705    0.3937 C   0  0  0  0  0  3  0  0  0  0  0  0
   -0.0000    2.2716    2.2654 H   0  0  0  0  0  0  0  0  0  0  0  0
    0.8808    0.7474    2.3330 H   0  0  0  0  0  0  0  0  0  0  0  0
   -0.8808    0.7474    2.3330 H   0  0  0  0  0  0  0  0  0  0  0  0
    0.8808    1.6610   -0.0243 H   0  0  0  0  0  0  0  0  0  0  0  0
   -0.8808    1.6610   -0.0243 H   0  0  0  0  0  0  0  0  0  0  0  0
  1  2  1  0
  1  3  1  0
  1  4  1  0
  1  5  1  0
  2  6  1  0
  7  8  1  0
  7  9  1  0
  7 10  1  0
  7 11  1  0
  8 12  1  0
  8 13  1  0
M  RAD  1   8   2
M  END
>  <reaction>  (9) 
rxn_389

>  <mol_properties>  (9) 
{"0": {"label": "*0", "atom_type": "Cs"}, "1": {"label": "*1", "atom_type": "O2s"}, "5": {"label": "*2", "atom_type": "H0"}, "6": {"label": "*4", "atom_type": "Cs"}, "7": {"label": "*3", "atom_type": "Cs"}}

>  <type>  (9) 
unop_5

>  <geom_source>  (9) 
Heuristics

$$$$

     RDKit          3D

 13 11  0  0  0  0  0  0  0  0999 V2000
   -0.3505   -1.2628   -1.4842 C   0  0  0  0  0  0  0  0  0  0  0  0
   -0.3505   -1.2628   -0.0738 O   0  0  0  0  0  0  0  0  0  0  0  0
    0.5403   -0.7774   -1.8989 H   0  0  0  0  0  0  0  0  0  0  0  0
   -0.3505   -2.3042   -1.8033 H   0  0  0  0  0  0  0  0  0  0  0  0
   -1.2413   -0.7775   -1.8989 H   0  0  0  0  0  0  0  0  0  0  0  0
   -0.3505   -0.1752    0.2949 H   0  0  0  0  0  0  0  0  0  0  0  0
    1.0686    1.5882    0.8927 C   0  0  0  0  0  0  0  0  0  0  0  0
   -0.3505    1.0652    0.7154 C   0  0  0  0  0  3  0  0  0  0  0  0
    1.1521    2.2116    1.7847 H   0  0  0  0  0  0  0  0  0  0  0  0
    1.3777    2.1920    0.0376 H   0  0  0  0  0  0  0  0  0  0  0  0
    1.7826    0.7691    0.9941 H   0  0  0  0  0  0  0  0  0  0  0  0
   -1.0645    1.8844    0.6140 H   0  0  0  0  0  0  0  0  0  0  0  0
   -0.6596    0.4615    1.5705 H   0  0  0  0  0  0  0  0  0  0  0  0
  1  2  1  0
  1  3  1  0
  1  4  1  0
  1  5  1  0
  2  6  1  0
  7  8  1  0
  7  9  1  0
  7 10  1  0
  7 11  1  0
  8 12  1  0
  8 13  1  0
M  RAD  1   8   2
M  END
>  <reaction>  (10) 
rxn_389

>  <mol_properties>  (10) 
{"0": {"label": "*0", "atom_type": "Cs"}, "1": {"label": "*1", "atom_type": "O2s"}, "5": {"label": "*2", "atom_type": "H0"}, "6": {"label": "*4", "atom_type": "Cs"}, "7": {"label": "*3", "atom_type": "Cs"}}

>  <type>  (10) 
unop_6

>  <geom_source>  (10) 
Heuristics

$$$$

     RDKit          3D

 13 11  0  0  0  0  0  0  0  0999 V2000
   -0.2982   -1.2069   -1.6489 C   0  0  0  0  0  0  0  0  0  0  0  0
   -0.2982   -1.2069   -0.2385 O   0  0  0  0  0  0  0  0  0  0  0  0
    0.5926   -0.7215   -2.0636 H   0  0  0  0  0  0  0  0  0  0  0  0
   -0.2982   -2.2483   -1.9680 H   0  0  0  0  0  0  0  0  0  0  0  0
   -1.1890   -0.7215   -2.0636 H   0  0  0  0  0  0  0  0  0  0  0  0
   -0.2982   -0.1193    0.1302 H   0  0  0  0  0  0  0  0  0  0  0  0
    0.9308    1.4164    1.4000 C   0  0  0  0  0  0  0  0  0  0  0  0
   -0.2982    1.1211    0.5507 C   0  0  0  0  0  3  0  0  0  0  0  0
    0.6792    2.0472    2.2544 H   0  0  0  0  0  0  0  0  0  0  0  0
    1.6970    1.9348    0.8208 H   0  0  0  0  0  0  0  0  0  0  0  0
    1.3745    0.4974    1.7871 H   0  0  0  0  0  0  0  0  0  0  0  0
   -0.7420    2.0401    0.1636 H   0  0  0  0  0  0  0  0  0  0  0  0
   -1.0644    0.6027    1.1299 H   0  0  0  0  0  0  0  0  0  0  0  0
  1  2  1  0
  1  3  1  0
  1  4  1  0
  1  5  1  0
  2  6  1  0
  7  8  1  0
  7  9  1  0
  7 10  1  0
  7 11  1  0
  8 12  1  0
  8 13  1  0
M  RAD  1   8   2
M  END
>  <reaction>  (11) 
rxn_389

>  <mol_properties>  (11) 
{"0": {"label": "*0", "atom_type": "Cs"}, "1": {"label": "*1", "atom_type": "O2s"}, "5": {"label": "*2", "atom_type": "H0"}, "6": {"label": "*4", "atom_type": "Cs"}, "7": {"label": "*3", "atom_type": "Cs"}}

>  <type>  (11) 
unop_7

>  <geom_source>  (11) 
Heuristics

$$$$

     RDKit          3D

 13 11  0  0  0  0  0  0  0  0999 V2000
    0.3505   -1.2628   -1.4842 C   0  0  0  0  0  0  0  0  0  0  0  0
    0.3505   -1.2628   -0.0738 O   0  0  0  0  0  0  0  0  0  0  0  0
    1.2413   -0.7774   -1.8989 H   0  0  0  0  0  0  0  0  0  0  0  0
    0.3505   -2.3042   -1.8033 H   0  0  0  0  0  0  0  0  0  0  0  0
   -0.5403   -0.7775   -1.8989 H   0  0  0  0  0  0  0  0  0  0  0  0
    0.3505   -0.1752    0.2949 H   0  0  0  0  0  0  0  0  0  0  0  0
   -1.0686    1.5882    0.8927 C   0  0  0  0  0  0  0  0  0  0  0  0
    0.3505    1.0652    0.7154 C   0  0  0  0  0  3  0  0  0  0  0  0
   -1.1521    2.2116    1.7847 H   0  0  0  0  0  0  0  0  0  0  0  0
   -1.7826    0.7691    0.9942 H   0  0  0  0  0  0  0  0  0  0  0  0
   -1.3777    2.1919    0.0376 H   0  0  0  0  0  0  0  0  0  0  0  0
    0.6596    0.4615    1.5705 H   0  0  0  0  0  0  0  0  0  0  0  0
    1.0645    1.8844    0.6140 H   0  0  0  0  0  0  0  0  0  0  0  0
  1  2  1  0
  1  3  1  0
  1  4  1  0
  1  5  1  0
  2  6  1  0
  7  8  1  0
  7  9  1  0
  7 10  1  0
  7 11  1  0
  8 12  1  0
  8 13  1  0
M  RAD  1   8   2
M  END
>  <reaction>  (12) 
rxn_389

>  <mol_properties>  (12) 
{"0": {"label": "*0", "atom_type": "Cs"}, "1": {"label": "*1", "atom_type": "O2s"}, "5": {"label": "*2", "atom_type": "H0"}, "6": {"label": "*4", "atom_type": "Cs"}, "7": {"label": "*3", "atom_type": "Cs"}}

>  <type>  (12) 
unop_8

>  <geom_source>  (12) 
Heuristics

$$$$

     RDKit          3D

 13 11  0  0  0  0  0  0  0  0999 V2000
   -0.1792   -1.3652   -1.1908 C   0  0  0  0  0  0  0  0  0  0  0  0
   -0.1792   -1.3652    0.2195 O   0  0  0  0  0  0  0  0  0  0  0  0
    0.7116   -0.8798   -1.6056 H   0  0  0  0  0  0  0  0  0  0  0  0
   -0.1792   -2.4066   -1.5100 H   0  0  0  0  0  0  0  0  0  0  0  0
   -1.0700   -0.8798   -1.6056 H   0  0  0  0  0  0  0  0  0  0  0  0
   -0.1792   -0.2776    0.5882 H   0  0  0  0  0  0  0  0  0  0  0  0
    0.5303    1.8805    0.0221 C   0  0  0  0  0  0  0  0  0  0  0  0
   -0.1792    0.9628    1.0087 C   0  0  0  0  0  3  0  0  0  0  0  0
    0.8123    2.8244    0.4919 H   0  0  0  0  0  0  0  0  0  0  0  0
   -0.1088    2.1140   -0.8312 H   0  0  0  0  0  0  0  0  0  0  0  0
    1.4408    1.4185   -0.3637 H   0  0  0  0  0  0  0  0  0  0  0  0
   -1.0897    1.4248    1.3945 H   0  0  0  0  0  0  0  0  0  0  0  0
    0.4599    0.7292    1.8621 H   0  0  0  0  0  0  0  0  0  0  0  0
  1  2  1  0
  1  3  1  0
  1  4  1  0
  1  5  1  0
  2  6  1  0
  7  8  1  0
  7  9  1  0
  7 10  1  0
  7 11  1  0
  8 12  1  0
  8 13  1  0
M  RAD  1   8   2
M  END
>  <reaction>  (13) 
rxn_389

>  <mol_properties>  (13) 
{"0": {"label": "*0", "atom_type": "Cs"}, "1": {"label": "*1", "atom_type": "O2s"}, "5": {"label": "*2", "atom_type": "H0"}, "6": {"label": "*4", "atom_type": "Cs"}, "7": {"label": "*3", "atom_type": "Cs"}}

>  <type>  (13) 
unop_9

>  <geom_source>  (13) 
Heuristics

$$$$

     RDKit          3D

 13 11  0  0  0  0  0  0  0  0999 V2000
    0.3076   -1.3211   -1.3160 C   0  0  0  0  0  0  0  0  0  0  0  0
    0.3076   -1.3211    0.0944 O   0  0  0  0  0  0  0  0  0  0  0  0
    1.1984   -0.8357   -1.7307 H   0  0  0  0  0  0  0  0  0  0  0  0
    0.3076   -2.3625   -1.6351 H   0  0  0  0  0  0  0  0  0  0  0  0
   -0.5833   -0.8358   -1.7307 H   0  0  0  0  0  0  0  0  0  0  0  0
    0.3076   -0.2335    0.4631 H   0  0  0  0  0  0  0  0  0  0  0  0
   -0.9214    1.7578    0.3889 C   0  0  0  0  0  0  0  0  0  0  0  0
    0.3076    1.0069    0.8836 C   0  0  0  0  0  3  0  0  0  0  0  0
   -1.2364    2.5176    1.1063 H   0  0  0  0  0  0  0  0  0  0  0  0
   -1.7633    1.0806    0.2340 H   0  0  0  0  0  0  0  0  0  0  0  0
   -0.7231    2.2606   -0.5592 H   0  0  0  0  0  0  0  0  0  0  0  0
    0.1092    0.5041    1.8318 H   0  0  0  0  0  0  0  0  0  0  0  0
    1.1494    1.6840    1.0386 H   0  0  0  0  0  0  0  0  0  0  0  0
  1  2  1  0
  1  3  1  0
  1  4  1  0
  1  5  1  0
  2  6  1  0
  7  8  1  0
  7  9  1  0
  7 10  1  0
  7 11  1  0
  8 12  1  0
  8 13  1  0
M  RAD  1   8   2
M  END
>  <reaction>  (14) 
rxn_389

>  <mol_properties>  (14) 
{"0": {"label": "*0", "atom_type": "Cs"}, "1": {"label": "*1", "atom_type": "O2s"}, "5": {"label": "*2", "atom_type": "H0"}, "6": {"label": "*4", "atom_type": "Cs"}, "7": {"label": "*3", "atom_type": "Cs"}}

>  <type>  (14) 
unop_10

>  <geom_source>  (14) 
Heuristics

$$$$

     RDKit          3D

 13 11  0  0  0  0  0  0  0  0999 V2000
   -0.1679   -1.1692   -1.7654 C   0  0  0  0  0  0  0  0  0  0  0  0
   -0.1679   -1.1692   -0.3550 O   0  0  0  0  0  0  0  0  0  0  0  0
    0.7229   -0.6838   -2.1802 H   0  0  0  0  0  0  0  0  0  0  0  0
   -0.1679   -2.2106   -2.0846 H   0  0  0  0  0  0  0  0  0  0  0  0
   -1.0587   -0.6838   -2.1802 H   0  0  0  0  0  0  0  0  0  0  0  0
   -0.1679   -0.0815    0.0137 H   0  0  0  0  0  0  0  0  0  0  0  0
    0.5416    1.2873    1.7754 C   0  0  0  0  0  0  0  0  0  0  0  0
   -0.1679    1.1588    0.4342 C   0  0  0  0  0  3  0  0  0  0  0  0
    0.1391    2.1177    2.3582 H   0  0  0  0  0  0  0  0  0  0  0  0
    1.6104    1.4645    1.6425 H   0  0  0  0  0  0  0  0  0  0  0  0
    0.4288    0.3800    2.3715 H   0  0  0  0  0  0  0  0  0  0  0  0
   -0.0550    2.0661   -0.1619 H   0  0  0  0  0  0  0  0  0  0  0  0
   -1.2366    0.9817    0.5671 H   0  0  0  0  0  0  0  0  0  0  0  0
  1  2  1  0
  1  3  1  0
  1  4  1  0
  1  5  1  0
  2  6  1  0
  7  8  1  0
  7  9  1  0
  7 10  1  0
  7 11  1  0
  8 12  1  0
  8 13  1  0
M  RAD  1   8   2
M  END
>  <reaction>  (15) 
rxn_389

>  <mol_properties>  (15) 
{"0": {"label": "*0", "atom_type": "Cs"}, "1": {"label": "*1", "atom_type": "O2s"}, "5": {"label": "*2", "atom_type": "H0"}, "6": {"label": "*4", "atom_type": "Cs"}, "7": {"label": "*3", "atom_type": "Cs"}}

>  <type>  (15) 
unop_11

>  <geom_source>  (15) 
Heuristics

$$$$

     RDKit          3D

 13 11  0  0  0  0  0  0  0  0999 V2000
    0.0000   -1.3817   -1.1446 C   0  0  0  0  0  0  0  0  0  0  0  0
    0.0000   -1.3817    0.2658 O   0  0  0  0  0  0  0  0  0  0  0  0
    0.8908   -0.8963   -1.5593 H   0  0  0  0  0  0  0  0  0  0  0  0
    0.0000   -2.4231   -1.4637 H   0  0  0  0  0  0  0  0  0  0  0  0
   -0.8908   -0.8963   -1.5593 H   0  0  0  0  0  0  0  0  0  0  0  0
    0.0000   -0.2940    0.6345 H   0  0  0  0  0  0  0  0  0  0  0  0
    0.0000    1.9250   -0.1117 C   0  0  0  0  0  0  0  0  0  0  0  0
    0.0000    0.9463    1.0550 C   0  0  0  0  0  3  0  0  0  0  0  0
    0.0000    2.9586    0.2387 H   0  0  0  0  0  0  0  0  0  0  0  0
   -0.8808    1.7898   -0.7418 H   0  0  0  0  0  0  0  0  0  0  0  0
    0.8808    1.7898   -0.7418 H   0  0  0  0  0  0  0  0  0  0  0  0
   -0.8808    1.0815    1.6851 H   0  0  0  0  0  0  0  0  0  0  0  0
    0.8808    1.0815    1.6851 H   0  0  0  0  0  0  0  0  0  0  0  0
  1  2  1  0
  1  3  1  0
  1  4  1  0
  1  5  1  0
  2  6  1  0
  7  8  1  0
  7  9  1  0
  7 10  1  0
  7 11  1  0
  8 12  1  0
  8 13  1  0
M  RAD  1   8   2
M  END
>  <reaction>  (16) 
rxn_389

>  <mol_properties>  (16) 
{"0": {"label": "*0", "atom_type": "Cs"}, "1": {"label": "*1", "atom_type": "O2s"}, "5": {"label": "*2", "atom_type": "H0"}, "6": {"label": "*4", "atom_type": "Cs"}, "7": {"label": "*3", "atom_type": "Cs"}}

>  <type>  (16) 
unop_12

>  <geom_source>  (16) 
Heuristics

$$$$

     RDKit          3D

 13 11  0  0  0  0  0  0  0  0999 V2000
    1.1930    0.2488    0.0917 O   0  0  0  0  0  0  0  0  0  0  0  0
   -1.0188   -0.6612   -0.0833 C   0  0  0  0  0  3  0  0  0  0  0  0
   -2.1752    0.3184    0.0114 C   0  0  0  0  0  0  0  0  0  0  0  0
    2.5864    0.2593    0.0613 C   0  0  0  0  0  0  0  0  0  0  0  0
   -0.9279   -1.2299    0.8661 H   0  0  0  0  0  0  0  0  0  0  0  0
   -1.1943   -1.3718   -0.9183 H   0  0  0  0  0  0  0  0  0  0  0  0
    0.0502   -0.0341   -0.2927 H   0  0  0  0  0  0  0  0  0  0  0  0
   -3.1216   -0.2319    0.1964 H   0  0  0  0  0  0  0  0  0  0  0  0
   -1.9969    1.0289    0.8456 H   0  0  0  0  0  0  0  0  0  0  0  0
   -2.2631    0.8871   -0.9380 H   0  0  0  0  0  0  0  0  0  0  0  0
    2.9450   -0.4562   -0.7069 H   0  0  0  0  0  0  0  0  0  0  0  0
    2.9802   -0.0370    1.0553 H   0  0  0  0  0  0  0  0  0  0  0  0
    2.9432    1.2797   -0.1885 H   0  0  0  0  0  0  0  0  0  0  0  0
  1  4  1  0
  1  7  1  0
  2  3  1  0
  2  5  1  0
  2  6  1  0
  3  8  1  0
  3  9  1  0
  3 10  1  0
  4 11  1  0
  4 12  1  0
  4 13  1  0
M  RAD  1   2   2
M  END
>  <reaction>  (17) 
rxn_389

>  <mol_properties>  (17) 
{"0": {"label": "*0", "atom_type": "Cs"}, "1": {"label": "*1", "atom_type": "O2s"}, "5": {"label": "*2", "atom_type": "H0"}, "6": {"label": "*4", "atom_type": "Cs"}, "7": {"label": "*3", "atom_type": "Cs"}}

>  <type>  (17) 
unop_13

>  <geom_source>  (17) 
AutoTST

$$$$
