
     RDKit          3D

 10  9  0  0  0  0  0  0  0  0999 V2000
   -1.1508    0.0666    0.2839 C   0  0  0  0  0  0  0  0  0  0  0  0
    0.1022   -0.3749   -0.4771 C   0  0  0  0  0  0  0  0  0  0  0  0
    1.3428    0.1620    0.1542 C   0  0  0  0  0  0  0  0  0  0  0  0
    2.5613   -0.6971    0.7526 S   0  0  0  0  0  0  0  0  0  0  0  0
   -1.2137    1.1546    0.3481 H   0  0  0  0  0  0  0  0  0  0  0  0
   -2.0472   -0.2935   -0.2212 H   0  0  0  0  0  0  0  0  0  0  0  0
   -1.1467   -0.3334    1.2987 H   0  0  0  0  0  0  0  0  0  0  0  0
    0.1602   -1.4616   -0.5369 H   0  0  0  0  0  0  0  0  0  0  0  0
    0.0536    0.0174   -1.4997 H   0  0  0  0  0  0  0  0  0  0  0  0
    1.3824    1.2528    0.2110 H   0  0  0  0  0  0  0  0  0  0  0  0
  1  2  1  0
  1  5  1  0
  1  6  1  0
  1  7  1  0
  2  3  1  0
  2  8  1  0
  2  9  1  0
  3  4  2  0
  3 10  1  0
M  END
>  <reaction>  (1) 
rxn_2009

>  <mol_properties>  (1) 
{"1": {"label": "donator", "atom_type": "Cs"}, "7": {"label": "d_hydrogen", "atom_type": "H0"}}

>  <type>  (1) 
r1h

$$$$

     RDKit          3D

 11 10  0  0  0  0  0  0  0  0999 V2000
   -0.9580    1.1013   -2.2955 C   0  0  0  0  0  0  0  0  0  0  0  0
   -0.5129    0.5941   -1.2929 C   0  0  0  0  0  0  0  0  0  0  0  0
   -0.0301   -0.0160   -0.1357 C   0  0  0  0  0  3  0  0  0  0  0  0
   -0.6593   -1.2845    0.3661 C   0  0  0  0  0  0  0  0  0  0  0  0
    1.0691    0.5292    0.5269 C   0  0  0  0  0  0  0  0  0  0  0  0
    2.0168    0.9794    1.1266 C   0  0  0  0  0  0  0  0  0  0  0  0
   -1.3415    1.5561   -3.1769 H   0  0  0  0  0  0  0  0  0  0  0  0
   -1.7166   -1.3186    0.1054 H   0  0  0  0  0  0  0  0  0  0  0  0
   -0.1742   -2.1550   -0.0865 H   0  0  0  0  0  0  0  0  0  0  0  0
   -0.5505   -1.3663    1.4470 H   0  0  0  0  0  0  0  0  0  0  0  0
    2.8514    1.3842    1.6465 H   0  0  0  0  0  0  0  0  0  0  0  0
  1  2  3  0
  1  7  1  0
  2  3  1  0
  3  4  1  0
  3  5  1  0
  4  8  1  0
  4  9  1  0
  4 10  1  0
  5  6  3  0
  6 11  1  0
M  RAD  1   3   2
M  END
>  <reaction>  (2) 
rxn_2009

>  <mol_properties>  (2) 
{"2": {"label": "acceptor", "atom_type": "Cs"}}

>  <type>  (2) 
r2

$$$$

     RDKit          3D

 12 11  0  0  0  0  0  0  0  0999 V2000
    2.1696    0.6854    1.1310 C   0  0  0  0  0  0  0  0  0  0  0  0
    1.2518    0.4145    0.4134 C   0  0  0  0  0  0  0  0  0  0  0  0
    0.1391    0.0443   -0.4683 C   0  0  0  0  0  0  0  0  0  0  0  0
   -0.2054   -1.4492   -0.3339 C   0  0  0  0  0  0  0  0  0  0  0  0
   -1.0375    0.8853   -0.2222 C   0  0  0  0  0  0  0  0  0  0  0  0
   -2.0160    1.5463   -0.0311 C   0  0  0  0  0  0  0  0  0  0  0  0
    2.9819    0.9356    1.7702 H   0  0  0  0  0  0  0  0  0  0  0  0
    0.4629    0.2285   -1.4981 H   0  0  0  0  0  0  0  0  0  0  0  0
   -0.5327   -1.6703    0.6812 H   0  0  0  0  0  0  0  0  0  0  0  0
    0.6727   -2.0535   -0.5593 H   0  0  0  0  0  0  0  0  0  0  0  0
   -1.0064   -1.7081   -1.0256 H   0  0  0  0  0  0  0  0  0  0  0  0
   -2.8802    2.1413    0.1426 H   0  0  0  0  0  0  0  0  0  0  0  0
  1  2  3  0
  1  7  1  0
  2  3  1  0
  3  4  1  0
  3  5  1  0
  3  8  1  0
  4  9  1  0
  4 10  1  0
  4 11  1  0
  5  6  3  0
  6 12  1  0
M  END
>  <reaction>  (3) 
rxn_2009

>  <mol_properties>  (3) 
{"2": {"label": "acceptor", "atom_type": "Cs"}, "11": {"label": "a_hydrogen", "atom_type": "H0"}}

>  <type>  (3) 
r2h

$$$$

     RDKit          3D

 21 19  0  0  0  0  0  0  0  0999 V2000
   -1.5096   -2.5704   -1.7544 C   0  0  0  0  0  0  0  0  0  0  0  0
   -1.1446   -1.8862   -0.8380 C   0  0  0  0  0  0  0  0  0  0  0  0
   -0.6825   -1.0176    0.2015 C   0  0  0  0  0  3  0  0  0  0  0  0
   -1.5636    0.1740    0.5323 C   0  0  0  0  0  0  0  0  0  0  0  0
   -0.0392   -1.6471    1.3145 C   0  0  0  0  0  0  0  0  0  0  0  0
    0.5596   -2.1063    2.2478 C   0  0  0  0  0  0  0  0  0  0  0  0
   -1.8433   -3.1913   -2.5510 H   0  0  0  0  0  0  0  0  0  0  0  0
   -1.9157    0.6460   -0.3837 H   0  0  0  0  0  0  0  0  0  0  0  0
   -2.4291   -0.1468    1.1150 H   0  0  0  0  0  0  0  0  0  0  0  0
   -1.0003    0.9018    1.1166 H   0  0  0  0  0  0  0  0  0  0  0  0
    1.0690   -2.5289    3.0805 H   0  0  0  0  0  0  0  0  0  0  0  0
    0.5929    1.1195   -1.9914 C   0  0  0  0  0  0  0  0  0  0  0  0
    1.3507    0.2644   -1.0148 C   0  0  0  0  0  0  0  0  0  0  0  0
    2.0825    0.8377    0.0799 C   0  0  0  0  0  0  0  0  0  0  0  0
    1.9236    2.3550    0.6700 S   0  0  0  0  0  0  0  0  0  0  0  0
    1.2825    1.5830   -2.7011 H   0  0  0  0  0  0  0  0  0  0  0  0
   -0.1177    0.5143   -2.5564 H   0  0  0  0  0  0  0  0  0  0  0  0
    0.0614    1.9212   -1.4802 H   0  0  0  0  0  0  0  0  0  0  0  0
    0.3969   -0.3963   -0.3753 H   0  0  0  0  0  0  0  0  0  0  0  0
    1.8297   -0.6141   -1.4486 H   0  0  0  0  0  0  0  0  0  0  0  0
    2.7688    0.1542    0.5780 H   0  0  0  0  0  0  0  0  0  0  0  0
  1  2  3  0
  1  7  1  0
  2  3  1  0
  3  4  1  0
  3  5  1  0
  4  8  1  0
  4  9  1  0
  4 10  1  0
  5  6  3  0
  6 11  1  0
 12 13  1  0
 12 16  1  0
 12 17  1  0
 12 18  1  0
 13 14  1  0
 13 19  1  0
 13 20  1  0
 14 15  2  0
 14 21  1  0
M  RAD  1   3   2
M  END
>  <reaction>  (4) 
rxn_2009

>  <mol_properties>  (4) 
{"1": {"label": "*4", "atom_type": "Ct"}, "2": {"label": "*3", "atom_type": "Cs"}, "12": {"label": "*1", "atom_type": "Cs"}, "13": {"label": "*0", "atom_type": "CS"}, "18": {"label": "*2", "atom_type": "H0"}}

>  <type>  (4) 
ts

$$$$

     RDKit          3D

 21 20  0  0  0  0  0  0  0  0999 V2000
    0.1676   -3.2303    1.3921 C   0  0  0  0  0  0  0  0  0  0  0  0
   -0.2384   -2.3081    0.7475 C   0  0  0  0  0  0  0  0  0  0  0  0
   -0.7603   -1.2022   -0.0630 C   0  0  0  0  0  0  0  0  0  0  0  0
   -2.1802   -1.5060   -0.5721 C   0  0  0  0  0  0  0  0  0  0  0  0
   -0.7206    0.0645    0.6761 C   0  0  0  0  0  0  0  0  0  0  0  0
   -0.7140    1.1076    1.2616 C   0  0  0  0  0  0  0  0  0  0  0  0
    0.5285   -4.0502    1.9651 H   0  0  0  0  0  0  0  0  0  0  0  0
   -2.1765   -2.4295   -1.1503 H   0  0  0  0  0  0  0  0  0  0  0  0
   -2.8648   -1.6199    0.2673 H   0  0  0  0  0  0  0  0  0  0  0  0
   -2.5301   -0.6893   -1.2027 H   0  0  0  0  0  0  0  0  0  0  0  0
   -0.7081    2.0349    1.7821 H   0  0  0  0  0  0  0  0  0  0  0  0
    1.2999    0.1197   -2.5337 C   0  0  0  0  0  0  0  0  0  0  0  0
    1.2999    0.1197   -1.0026 C   0  0  0  0  0  0  0  0  0  0  0  0
    1.2999    1.5079   -0.4559 C   0  0  0  0  0  3  0  0  0  0  0  0
    0.1804    2.1636    0.4916 S   0  0  0  0  0  0  0  0  0  0  0  0
    2.1551    0.6699   -2.9308 H   0  0  0  0  0  0  0  0  0  0  0  0
    1.3507   -0.9012   -2.9123 H   0  0  0  0  0  0  0  0  0  0  0  0
    0.3904    0.5821   -2.9193 H   0  0  0  0  0  0  0  0  0  0  0  0
    0.2722   -0.5397   -0.5339 H   0  0  0  0  0  0  0  0  0  0  0  0
    2.2102   -0.3770   -0.6471 H   0  0  0  0  0  0  0  0  0  0  0  0
    2.1553    2.1131   -0.7662 H   0  0  0  0  0  0  0  0  0  0  0  0
  1  2  3  0
  1  7  1  0
  2  3  1  0
  3  4  1  0
  3  5  2  0
  4  8  1  0
  4  9  1  0
  4 10  1  0
  5  6  2  0
  6 15  1  0
  6 11  1  0
 12 13  1  0
 12 16  1  0
 12 17  1  0
 12 18  1  0
 13 14  1  0
 13 19  1  0
 13 20  1  0
 14 15  1  0
 14 21  1  0
M  RAD  1  14   2
M  END
>  <reaction>  (5) 
rxn_2009

>  <mol_properties>  (5) 
{"1": {"label": "*4", "atom_type": "Ct"}, "2": {"label": "*3", "atom_type": "Cs"}, "12": {"label": "*1", "atom_type": "Cs"}, "13": {"label": "*0", "atom_type": "CS"}, "18": {"label": "*2", "atom_type": "H0"}}

>  <type>  (5) 
unop_1

>  <geom_source>  (5) 
Heuristics

$$$$

     RDKit          3D

 21 19  0  0  0  0  0  0  0  0999 V2000
   -1.3828   -2.7721   -1.6109 C   0  0  0  0  0  0  0  0  0  0  0  0
   -1.0850   -1.9367   -0.8084 C   0  0  0  0  0  0  0  0  0  0  0  0
   -0.7533   -0.8920    0.1668 C   0  0  0  0  0  3  0  0  0  0  0  0
   -2.0207   -0.1880    0.6822 C   0  0  0  0  0  0  0  0  0  0  0  0
    0.0427   -1.4315    1.2748 C   0  0  0  0  0  0  0  0  0  0  0  0
    0.6790   -1.8485    2.1979 C   0  0  0  0  0  0  0  0  0  0  0  0
   -1.6476   -3.5149   -2.3245 H   0  0  0  0  0  0  0  0  0  0  0  0
   -2.5738    0.2378   -0.1544 H   0  0  0  0  0  0  0  0  0  0  0  0
   -2.6616   -0.8991    1.2016 H   0  0  0  0  0  0  0  0  0  0  0  0
   -1.7467    0.6083    1.3735 H   0  0  0  0  0  0  0  0  0  0  0  0
    1.2448   -2.2193    3.0185 H   0  0  0  0  0  0  0  0  0  0  0  0
    1.3069    0.4299   -2.3038 C   0  0  0  0  0  0  0  0  0  0  0  0
    1.3069    0.4299   -0.7727 C   0  0  0  0  0  0  0  0  0  0  0  0
    1.3069    1.8180   -0.2261 C   0  0  0  0  0  0  0  0  0  0  0  0
    0.1874    2.4737    0.7215 S   0  0  0  0  0  0  0  0  0  0  0  0
    2.1621    0.9800   -2.7009 H   0  0  0  0  0  0  0  0  0  0  0  0
    1.3578   -0.5911   -2.6825 H   0  0  0  0  0  0  0  0  0  0  0  0
    0.3974    0.8922   -2.6895 H   0  0  0  0  0  0  0  0  0  0  0  0
    0.2793   -0.2295   -0.3041 H   0  0  0  0  0  0  0  0  0  0  0  0
    2.2173   -0.0668   -0.4173 H   0  0  0  0  0  0  0  0  0  0  0  0
    2.1624    2.4233   -0.5364 H   0  0  0  0  0  0  0  0  0  0  0  0
  1  2  3  0
  1  7  1  0
  2  3  1  0
  3  4  1  0
  3  5  1  0
  4  8  1  0
  4  9  1  0
  4 10  1  0
  5  6  3  0
  6 11  1  0
 12 13  1  0
 12 16  1  0
 12 17  1  0
 12 18  1  0
 13 14  1  0
 13 19  1  0
 13 20  1  0
 14 15  2  0
 14 21  1  0
M  RAD  1   3   2
M  END
>  <reaction>  (6) 
rxn_2009

>  <mol_properties>  (6) 
{"1": {"label": "*4", "atom_type": "Ct"}, "2": {"label": "*3", "atom_type": "Cs"}, "12": {"label": "*1", "atom_type": "Cs"}, "13": {"label": "*0", "atom_type": "CS"}, "18": {"label": "*2", "atom_type": "H0"}}

>  <type>  (6) 
unop_2

>  <geom_source>  (6) 
Heuristics

$$$$

     RDKit          3D

 21 20  0  0  0  0  0  0  0  0999 V2000
    0.0905   -2.3514    2.3125 C   0  0  0  0  0  0  0  0  0  0  0  0
   -0.2302   -1.8524    1.2738 C   0  0  0  0  0  0  0  0  0  0  0  0
   -0.6299   -1.2770   -0.0152 C   0  0  0  0  0  0  0  0  0  0  0  0
   -1.5848   -2.2162   -0.7727 C   0  0  0  0  0  0  0  0  0  0  0  0
   -1.2201    0.0551    0.1565 C   0  0  0  0  0  0  0  0  0  0  0  0
   -1.7194    1.1362    0.2698 C   0  0  0  0  0  0  0  0  0  0  0  0
    0.3757   -2.7950    3.2360 H   0  0  0  0  0  0  0  0  0  0  0  0
   -1.1096   -3.1852   -0.9223 H   0  0  0  0  0  0  0  0  0  0  0  0
   -2.5024   -2.3591   -0.2035 H   0  0  0  0  0  0  0  0  0  0  0  0
   -1.8357   -1.7861   -1.7417 H   0  0  0  0  0  0  0  0  0  0  0  0
   -2.1632    2.0973    0.3705 H   0  0  0  0  0  0  0  0  0  0  0  0
    1.4303    0.0448   -2.4858 C   0  0  0  0  0  0  0  0  0  0  0  0
    1.4303    0.0448   -0.9548 C   0  0  0  0  0  0  0  0  0  0  0  0
    1.4303    1.4330   -0.4081 C   0  0  0  0  0  3  0  0  0  0  0  0
    0.3108    2.0887    0.5394 S   0  0  0  0  0  0  0  0  0  0  0  0
    2.2855    0.5950   -2.8830 H   0  0  0  0  0  0  0  0  0  0  0  0
    1.4812   -0.9761   -2.8645 H   0  0  0  0  0  0  0  0  0  0  0  0
    0.5208    0.5072   -2.8715 H   0  0  0  0  0  0  0  0  0  0  0  0
    0.4027   -0.6145   -0.4861 H   0  0  0  0  0  0  0  0  0  0  0  0
    2.3407   -0.4519   -0.5993 H   0  0  0  0  0  0  0  0  0  0  0  0
    2.2858    2.0383   -0.7184 H   0  0  0  0  0  0  0  0  0  0  0  0
  1  2  3  0
  1  7  1  0
  2  3  1  0
  3  4  1  0
  3  5  2  0
  4  8  1  0
  4  9  1  0
  4 10  1  0
  5  6  2  0
  6 15  1  0
  6 11  1  0
 12 13  1  0
 12 16  1  0
 12 17  1  0
 12 18  1  0
 13 14  1  0
 13 19  1  0
 13 20  1  0
 14 15  1  0
 14 21  1  0
M  RAD  1  14   2
M  END
>  <reaction>  (7) 
rxn_2009

>  <mol_properties>  (7) 
{"1": {"label": "*4", "atom_type": "Ct"}, "2": {"label": "*3", "atom_type": "Cs"}, "12": {"label": "*1", "atom_type": "Cs"}, "13": {"label": "*0", "atom_type": "CS"}, "18": {"label": "*2", "atom_type": "H0"}}

>  <type>  (7) 
unop_3

>  <geom_source>  (7) 
Heuristics

$$$$

     RDKit          3D

 21 19  0  0  0  0  0  0  0  0999 V2000
   -2.6763    0.1538   -0.6944 C   0  0  0  0  0  0  0  0  0  0  0  0
   -1.6991   -0.4152   -0.3047 C   0  0  0  0  0  0  0  0  0  0  0  0
   -0.4890   -1.0795    0.1920 C   0  0  0  0  0  3  0  0  0  0  0  0
    0.0080   -0.4305    1.4956 C   0  0  0  0  0  0  0  0  0  0  0  0
   -0.7054   -2.5203    0.3647 C   0  0  0  0  0  0  0  0  0  0  0  0
   -0.8597   -3.6949    0.5294 C   0  0  0  0  0  0  0  0  0  0  0  0
   -3.5452    0.6597   -1.0410 H   0  0  0  0  0  0  0  0  0  0  0  0
    0.1989    0.6296    1.3320 H   0  0  0  0  0  0  0  0  0  0  0  0
   -0.7421   -0.5356    2.2783 H   0  0  0  0  0  0  0  0  0  0  0  0
    0.9276   -0.9143    1.8229 H   0  0  0  0  0  0  0  0  0  0  0  0
   -0.9968   -4.7393    0.6759 H   0  0  0  0  0  0  0  0  0  0  0  0
    1.5712    0.2423   -2.2786 C   0  0  0  0  0  0  0  0  0  0  0  0
    1.5712    0.2423   -0.7475 C   0  0  0  0  0  0  0  0  0  0  0  0
    1.5712    1.6305   -0.2008 C   0  0  0  0  0  0  0  0  0  0  0  0
    0.4517    2.2862    0.7467 S   0  0  0  0  0  0  0  0  0  0  0  0
    2.4264    0.7925   -2.6757 H   0  0  0  0  0  0  0  0  0  0  0  0
    1.6221   -0.7786   -2.6572 H   0  0  0  0  0  0  0  0  0  0  0  0
    0.6617    0.7047   -2.6642 H   0  0  0  0  0  0  0  0  0  0  0  0
    0.5436   -0.4170   -0.2789 H   0  0  0  0  0  0  0  0  0  0  0  0
    2.4816   -0.2544   -0.3921 H   0  0  0  0  0  0  0  0  0  0  0  0
    2.4267    2.2358   -0.5112 H   0  0  0  0  0  0  0  0  0  0  0  0
  1  2  3  0
  1  7  1  0
  2  3  1  0
  3  4  1  0
  3  5  1  0
  4  8  1  0
  4  9  1  0
  4 10  1  0
  5  6  3  0
  6 11  1  0
 12 13  1  0
 12 16  1  0
 12 17  1  0
 12 18  1  0
 13 14  1  0
 13 19  1  0
 13 20  1  0
 14 15  2  0
 14 21  1  0
M  RAD  1   3   2
M  END
>  <reaction>  (8) 
rxn_2009

>  <mol_properties>  (8) 
{"1": {"label": "*4", "atom_type": "Ct"}, "2": {"label": "*3", "atom_type": "Cs"}, "12": {"label": "*1", "atom_type": "Cs"}, "13": {"label": "*0", "atom_type": "CS"}, "18": {"label": "*2", "atom_type": "H0"}}

>  <type>  (8) 
unop_4

>  <geom_source>  (8) 
Heuristics

$$$$

     RDKit          3D

 21 19  0  0  0  0  0  0  0  0999 V2000
   -0.3568   -1.1504    2.7331 C   0  0  0  0  0  0  0  0  0  0  0  0
   -0.4373   -1.1633    1.5398 C   0  0  0  0  0  0  0  0  0  0  0  0
   -0.5155   -1.2135    0.0756 C   0  0  0  0  0  3  0  0  0  0  0  0
   -0.4307   -2.6615   -0.4377 C   0  0  0  0  0  0  0  0  0  0  0  0
   -1.7256   -0.5455   -0.4160 C   0  0  0  0  0  0  0  0  0  0  0  0
   -2.7123   -0.0208   -0.8427 C   0  0  0  0  0  0  0  0  0  0  0  0
   -0.2852   -1.1390    3.7941 H   0  0  0  0  0  0  0  0  0  0  0  0
    0.4939   -3.1231   -0.0925 H   0  0  0  0  0  0  0  0  0  0  0  0
   -1.2736   -3.2427   -0.0661 H   0  0  0  0  0  0  0  0  0  0  0  0
   -0.4510   -2.6700   -1.5270 H   0  0  0  0  0  0  0  0  0  0  0  0
   -3.5895    0.4456   -1.2221 H   0  0  0  0  0  0  0  0  0  0  0  0
    1.5447    0.1084   -2.3950 C   0  0  0  0  0  0  0  0  0  0  0  0
    1.5447    0.1084   -0.8639 C   0  0  0  0  0  0  0  0  0  0  0  0
    1.5447    1.4966   -0.3172 C   0  0  0  0  0  0  0  0  0  0  0  0
    0.4252    2.1523    0.6303 S   0  0  0  0  0  0  0  0  0  0  0  0
    2.3999    0.6586   -2.7921 H   0  0  0  0  0  0  0  0  0  0  0  0
    1.5955   -0.9125   -2.7737 H   0  0  0  0  0  0  0  0  0  0  0  0
    0.6352    0.5708   -2.7807 H   0  0  0  0  0  0  0  0  0  0  0  0
    0.5170   -0.5510   -0.3953 H   0  0  0  0  0  0  0  0  0  0  0  0
    2.4551   -0.3883   -0.5085 H   0  0  0  0  0  0  0  0  0  0  0  0
    2.4002    2.1018   -0.6276 H   0  0  0  0  0  0  0  0  0  0  0  0
  1  2  3  0
  1  7  1  0
  2  3  1  0
  3  4  1  0
  3  5  1  0
  4  8  1  0
  4  9  1  0
  4 10  1  0
  5  6  3  0
  6 11  1  0
 12 13  1  0
 12 16  1  0
 12 17  1  0
 12 18  1  0
 13 14  1  0
 13 19  1  0
 13 20  1  0
 14 15  2  0
 14 21  1  0
M  RAD  1   3   2
M  END
>  <reaction>  (9) 
rxn_2009

>  <mol_properties>  (9) 
{"1": {"label": "*4", "atom_type": "Ct"}, "2": {"label": "*3", "atom_type": "Cs"}, "12": {"label": "*1", "atom_type": "Cs"}, "13": {"label": "*0", "atom_type": "CS"}, "18": {"label": "*2", "atom_type": "H0"}}

>  <type>  (9) 
unop_5

>  <geom_source>  (9) 
Heuristics

$$$$

     RDKit          3D

 21 19  0  0  0  0  0  0  0  0999 V2000
   -2.4773    0.6495    0.4307 C   0  0  0  0  0  0  0  0  0  0  0  0
   -1.6000   -0.1505    0.2851 C   0  0  0  0  0  0  0  0  0  0  0  0
   -0.4997   -1.1082    0.1282 C   0  0  0  0  0  3  0  0  0  0  0  0
    0.4963   -1.0091    1.2968 C   0  0  0  0  0  0  0  0  0  0  0  0
   -1.0037   -2.4774   -0.0258 C   0  0  0  0  0  0  0  0  0  0  0  0
   -1.3871   -3.6049   -0.1377 C   0  0  0  0  0  0  0  0  0  0  0  0
   -3.2572    1.3607    0.5602 H   0  0  0  0  0  0  0  0  0  0  0  0
    0.8858    0.0060    1.3662 H   0  0  0  0  0  0  0  0  0  0  0  0
    0.0028   -1.2609    2.2345 H   0  0  0  0  0  0  0  0  0  0  0  0
    1.3232   -1.7006    1.1381 H   0  0  0  0  0  0  0  0  0  0  0  0
   -1.7279   -4.6073   -0.2373 H   0  0  0  0  0  0  0  0  0  0  0  0
    1.5605    0.2137   -2.3424 C   0  0  0  0  0  0  0  0  0  0  0  0
    1.5605    0.2137   -0.8114 C   0  0  0  0  0  0  0  0  0  0  0  0
    1.5605    1.6019   -0.2647 C   0  0  0  0  0  0  0  0  0  0  0  0
    0.4409    2.2576    0.6828 S   0  0  0  0  0  0  0  0  0  0  0  0
    2.4157    0.7638   -2.7396 H   0  0  0  0  0  0  0  0  0  0  0  0
    1.6113   -0.8072   -2.7211 H   0  0  0  0  0  0  0  0  0  0  0  0
    0.6510    0.6761   -2.7281 H   0  0  0  0  0  0  0  0  0  0  0  0
    0.5328   -0.4457   -0.3427 H   0  0  0  0  0  0  0  0  0  0  0  0
    2.4708   -0.2830   -0.4559 H   0  0  0  0  0  0  0  0  0  0  0  0
    2.4159    2.2071   -0.5750 H   0  0  0  0  0  0  0  0  0  0  0  0
  1  2  3  0
  1  7  1  0
  2  3  1  0
  3  4  1  0
  3  5  1  0
  4  8  1  0
  4  9  1  0
  4 10  1  0
  5  6  3  0
  6 11  1  0
 12 13  1  0
 12 16  1  0
 12 17  1  0
 12 18  1  0
 13 14  1  0
 13 19  1  0
 13 20  1  0
 14 15  2  0
 14 21  1  0
M  RAD  1   3   2
M  END
>  <reaction>  (10) 
rxn_2009

>  <mol_properties>  (10) 
{"1": {"label": "*4", "atom_type": "Ct"}, "2": {"label": "*3", "atom_type": "Cs"}, "12": {"label": "*1", "atom_type": "Cs"}, "13": {"label": "*0", "atom_type": "CS"}, "18": {"label": "*2", "atom_type": "H0"}}

>  <type>  (10) 
unop_6

>  <geom_source>  (10) 
Heuristics

$$$$

     RDKit          3D

 21 19  0  0  0  0  0  0  0  0999 V2000
   -1.9223    0.6049    1.5850 C   0  0  0  0  0  0  0  0  0  0  0  0
   -1.3069   -0.1648    0.9071 C   0  0  0  0  0  0  0  0  0  0  0  0
   -0.5191   -1.1001    0.0966 C   0  0  0  0  0  3  0  0  0  0  0  0
    0.6928   -1.6331    0.8807 C   0  0  0  0  0  0  0  0  0  0  0  0
   -1.3507   -2.1987   -0.4075 C   0  0  0  0  0  0  0  0  0  0  0  0
   -2.0024   -3.1137   -0.8185 C   0  0  0  0  0  0  0  0  0  0  0  0
   -2.4695    1.2892    2.1878 H   0  0  0  0  0  0  0  0  0  0  0  0
    1.3151   -0.8017    1.2104 H   0  0  0  0  0  0  0  0  0  0  0  0
    0.3598   -2.1910    1.7549 H   0  0  0  0  0  0  0  0  0  0  0  0
    1.2830   -2.2935    0.2462 H   0  0  0  0  0  0  0  0  0  0  0  0
   -2.5817   -3.9272   -1.1839 H   0  0  0  0  0  0  0  0  0  0  0  0
    1.5411    0.2217   -2.3741 C   0  0  0  0  0  0  0  0  0  0  0  0
    1.5411    0.2217   -0.8430 C   0  0  0  0  0  0  0  0  0  0  0  0
    1.5411    1.6099   -0.2963 C   0  0  0  0  0  0  0  0  0  0  0  0
    0.4215    2.2656    0.6512 S   0  0  0  0  0  0  0  0  0  0  0  0
    2.3963    0.7719   -2.7712 H   0  0  0  0  0  0  0  0  0  0  0  0
    1.5919   -0.7992   -2.7527 H   0  0  0  0  0  0  0  0  0  0  0  0
    0.6316    0.6841   -2.7597 H   0  0  0  0  0  0  0  0  0  0  0  0
    0.5134   -0.4376   -0.3743 H   0  0  0  0  0  0  0  0  0  0  0  0
    2.4514   -0.2750   -0.4876 H   0  0  0  0  0  0  0  0  0  0  0  0
    2.3965    2.2152   -0.6066 H   0  0  0  0  0  0  0  0  0  0  0  0
  1  2  3  0
  1  7  1  0
  2  3  1  0
  3  4  1  0
  3  5  1  0
  4  8  1  0
  4  9  1  0
  4 10  1  0
  5  6  3  0
  6 11  1  0
 12 13  1  0
 12 16  1  0
 12 17  1  0
 12 18  1  0
 13 14  1  0
 13 19  1  0
 13 20  1  0
 14 15  2  0
 14 21  1  0
M  RAD  1   3   2
M  END
>  <reaction>  (11) 
rxn_2009

>  <mol_properties>  (11) 
{"1": {"label": "*4", "atom_type": "Ct"}, "2": {"label": "*3", "atom_type": "Cs"}, "12": {"label": "*1", "atom_type": "Cs"}, "13": {"label": "*0", "atom_type": "CS"}, "18": {"label": "*2", "atom_type": "H0"}}

>  <type>  (11) 
unop_7

>  <geom_source>  (11) 
Heuristics

$$$$

     RDKit          3D

 21 19  0  0  0  0  0  0  0  0999 V2000
   -0.1116   -3.6217    0.2357 C   0  0  0  0  0  0  0  0  0  0  0  0
   -0.4206   -2.4715    0.1238 C   0  0  0  0  0  0  0  0  0  0  0  0
   -0.8327   -1.0723   -0.0331 C   0  0  0  0  0  3  0  0  0  0  0  0
   -2.3605   -0.9534   -0.1714 C   0  0  0  0  0  0  0  0  0  0  0  0
   -0.3328   -0.2433    1.0693 C   0  0  0  0  0  0  0  0  0  0  0  0
    0.0490    0.4523    1.9644 C   0  0  0  0  0  0  0  0  0  0  0  0
    0.1632   -4.6442    0.3351 H   0  0  0  0  0  0  0  0  0  0  0  0
   -2.7027   -1.5455   -1.0196 H   0  0  0  0  0  0  0  0  0  0  0  0
   -2.8497   -1.3171    0.7312 H   0  0  0  0  0  0  0  0  0  0  0  0
   -2.6383    0.0887   -0.3261 H   0  0  0  0  0  0  0  0  0  0  0  0
    0.3884    1.0707    2.7602 H   0  0  0  0  0  0  0  0  0  0  0  0
    1.2276    0.2496   -2.5037 C   0  0  0  0  0  0  0  0  0  0  0  0
    1.2276    0.2496   -0.9727 C   0  0  0  0  0  0  0  0  0  0  0  0
    1.2276    1.6378   -0.4260 C   0  0  0  0  0  0  0  0  0  0  0  0
    0.1080    2.2935    0.5216 S   0  0  0  0  0  0  0  0  0  0  0  0
    2.0828    0.7998   -2.9008 H   0  0  0  0  0  0  0  0  0  0  0  0
    1.2784   -0.7713   -2.8824 H   0  0  0  0  0  0  0  0  0  0  0  0
    0.3181    0.7120   -2.8894 H   0  0  0  0  0  0  0  0  0  0  0  0
    0.1999   -0.4098   -0.5040 H   0  0  0  0  0  0  0  0  0  0  0  0
    2.1379   -0.2471   -0.6172 H   0  0  0  0  0  0  0  0  0  0  0  0
    2.0830    2.2430   -0.7363 H   0  0  0  0  0  0  0  0  0  0  0  0
  1  2  3  0
  1  7  1  0
  2  3  1  0
  3  4  1  0
  3  5  1  0
  4  8  1  0
  4  9  1  0
  4 10  1  0
  5  6  3  0
  6 11  1  0
 12 13  1  0
 12 16  1  0
 12 17  1  0
 12 18  1  0
 13 14  1  0
 13 19  1  0
 13 20  1  0
 14 15  2  0
 14 21  1  0
M  RAD  1   3   2
M  END
>  <reaction>  (12) 
rxn_2009

>  <mol_properties>  (12) 
{"1": {"label": "*4", "atom_type": "Ct"}, "2": {"label": "*3", "atom_type": "Cs"}, "12": {"label": "*1", "atom_type": "Cs"}, "13": {"label": "*0", "atom_type": "CS"}, "18": {"label": "*2", "atom_type": "H0"}}

>  <type>  (12) 
unop_8

>  <geom_source>  (12) 
Heuristics

$$$$

     RDKit          3D

 21 19  0  0  0  0  0  0  0  0999 V2000
   -2.5059   -0.7278   -1.5128 C   0  0  0  0  0  0  0  0  0  0  0  0
   -1.6148   -0.8679   -0.7272 C   0  0  0  0  0  0  0  0  0  0  0  0
   -0.5269   -1.0017    0.2480 C   0  0  0  0  0  3  0  0  0  0  0  0
   -0.7066   -0.0226    1.4213 C   0  0  0  0  0  0  0  0  0  0  0  0
   -0.4054   -2.3842    0.7235 C   0  0  0  0  0  0  0  0  0  0  0  0
   -0.2946   -3.5002    1.1396 C   0  0  0  0  0  0  0  0  0  0  0  0
   -3.2981   -0.6032   -2.2112 H   0  0  0  0  0  0  0  0  0  0  0  0
   -0.7548    0.9994    1.0466 H   0  0  0  0  0  0  0  0  0  0  0  0
   -1.6281   -0.2436    1.9584 H   0  0  0  0  0  0  0  0  0  0  0  0
    0.1322   -0.1128    2.1106 H   0  0  0  0  0  0  0  0  0  0  0  0
   -0.1961   -4.4924    1.5095 H   0  0  0  0  0  0  0  0  0  0  0  0
    1.5333    0.3202   -2.2226 C   0  0  0  0  0  0  0  0  0  0  0  0
    1.5333    0.3202   -0.6915 C   0  0  0  0  0  0  0  0  0  0  0  0
    1.5333    1.7084   -0.1449 C   0  0  0  0  0  0  0  0  0  0  0  0
    0.4138    2.3641    0.8027 S   0  0  0  0  0  0  0  0  0  0  0  0
    2.3885    0.8703   -2.6197 H   0  0  0  0  0  0  0  0  0  0  0  0
    1.5841   -0.7007   -2.6013 H   0  0  0  0  0  0  0  0  0  0  0  0
    0.6238    0.7826   -2.6083 H   0  0  0  0  0  0  0  0  0  0  0  0
    0.5056   -0.3392   -0.2229 H   0  0  0  0  0  0  0  0  0  0  0  0
    2.4437   -0.1765   -0.3361 H   0  0  0  0  0  0  0  0  0  0  0  0
    2.3888    2.3136   -0.4552 H   0  0  0  0  0  0  0  0  0  0  0  0
  1  2  3  0
  1  7  1  0
  2  3  1  0
  3  4  1  0
  3  5  1  0
  4  8  1  0
  4  9  1  0
  4 10  1  0
  5  6  3  0
  6 11  1  0
 12 13  1  0
 12 16  1  0
 12 17  1  0
 12 18  1  0
 13 14  1  0
 13 19  1  0
 13 20  1  0
 14 15  2  0
 14 21  1  0
M  RAD  1   3   2
M  END
>  <reaction>  (13) 
rxn_2009

>  <mol_properties>  (13) 
{"1": {"label": "*4", "atom_type": "Ct"}, "2": {"label": "*3", "atom_type": "Cs"}, "12": {"label": "*1", "atom_type": "Cs"}, "13": {"label": "*0", "atom_type": "CS"}, "18": {"label": "*2", "atom_type": "H0"}}

>  <type>  (13) 
unop_9

>  <geom_source>  (13) 
Heuristics

$$$$

     RDKit          3D

 21 19  0  0  0  0  0  0  0  0999 V2000
   -0.6797   -3.4500   -0.8587 C   0  0  0  0  0  0  0  0  0  0  0  0
   -0.7312   -2.3305   -0.4405 C   0  0  0  0  0  0  0  0  0  0  0  0
   -0.8308   -0.9537    0.0562 C   0  0  0  0  0  3  0  0  0  0  0  0
   -2.2986   -0.5391    0.2589 C   0  0  0  0  0  0  0  0  0  0  0  0
   -0.0531   -0.7743    1.2872 C   0  0  0  0  0  0  0  0  0  0  0  0
    0.5600   -0.6047    2.3002 C   0  0  0  0  0  0  0  0  0  0  0  0
   -0.6339   -4.4453   -1.2305 H   0  0  0  0  0  0  0  0  0  0  0  0
   -2.8455   -0.6436   -0.6776 H   0  0  0  0  0  0  0  0  0  0  0  0
   -2.7677   -1.1709    1.0120 H   0  0  0  0  0  0  0  0  0  0  0  0
   -2.3482    0.4978    0.5896 H   0  0  0  0  0  0  0  0  0  0  0  0
    1.1051   -0.4540    3.2008 H   0  0  0  0  0  0  0  0  0  0  0  0
    1.2295    0.3682   -2.4144 C   0  0  0  0  0  0  0  0  0  0  0  0
    1.2295    0.3682   -0.8834 C   0  0  0  0  0  0  0  0  0  0  0  0
    1.2295    1.7564   -0.3367 C   0  0  0  0  0  0  0  0  0  0  0  0
    0.1099    2.4121    0.6109 S   0  0  0  0  0  0  0  0  0  0  0  0
    2.0847    0.9184   -2.8115 H   0  0  0  0  0  0  0  0  0  0  0  0
    1.2803   -0.6527   -2.7931 H   0  0  0  0  0  0  0  0  0  0  0  0
    0.3200    0.8306   -2.8001 H   0  0  0  0  0  0  0  0  0  0  0  0
    0.2018   -0.2912   -0.4147 H   0  0  0  0  0  0  0  0  0  0  0  0
    2.1398   -0.1285   -0.5279 H   0  0  0  0  0  0  0  0  0  0  0  0
    2.0849    2.3616   -0.6470 H   0  0  0  0  0  0  0  0  0  0  0  0
  1  2  3  0
  1  7  1  0
  2  3  1  0
  3  4  1  0
  3  5  1  0
  4  8  1  0
  4  9  1  0
  4 10  1  0
  5  6  3  0
  6 11  1  0
 12 13  1  0
 12 16  1  0
 12 17  1  0
 12 18  1  0
 13 14  1  0
 13 19  1  0
 13 20  1  0
 14 15  2  0
 14 21  1  0
M  RAD  1   3   2
M  END
>  <reaction>  (14) 
rxn_2009

>  <mol_properties>  (14) 
{"1": {"label": "*4", "atom_type": "Ct"}, "2": {"label": "*3", "atom_type": "Cs"}, "12": {"label": "*1", "atom_type": "Cs"}, "13": {"label": "*0", "atom_type": "CS"}, "18": {"label": "*2", "atom_type": "H0"}}

>  <type>  (14) 
unop_10

>  <geom_source>  (14) 
Heuristics

$$$$

     RDKit          3D

 21 19  0  0  0  0  0  0  0  0999 V2000
   -1.1307   -0.0276    2.4529 C   0  0  0  0  0  0  0  0  0  0  0  0
   -0.8688   -0.5095    1.3899 C   0  0  0  0  0  0  0  0  0  0  0  0
   -0.5123   -1.1126    0.1009 C   0  0  0  0  0  3  0  0  0  0  0  0
    0.4820   -2.2724    0.2842 C   0  0  0  0  0  0  0  0  0  0  0  0
   -1.7067   -1.5474   -0.6318 C   0  0  0  0  0  0  0  0  0  0  0  0
   -2.6627   -1.9253   -1.2434 C   0  0  0  0  0  0  0  0  0  0  0  0
   -1.3635    0.4008    3.3980 H   0  0  0  0  0  0  0  0  0  0  0  0
    1.3761   -1.9163    0.7950 H   0  0  0  0  0  0  0  0  0  0  0  0
    0.0301   -3.0654    0.8786 H   0  0  0  0  0  0  0  0  0  0  0  0
    0.7615   -2.6776   -0.6878 H   0  0  0  0  0  0  0  0  0  0  0  0
   -3.5126   -2.2613   -1.7872 H   0  0  0  0  0  0  0  0  0  0  0  0
    1.5479    0.2093   -2.3698 C   0  0  0  0  0  0  0  0  0  0  0  0
    1.5479    0.2093   -0.8387 C   0  0  0  0  0  0  0  0  0  0  0  0
    1.5479    1.5975   -0.2920 C   0  0  0  0  0  0  0  0  0  0  0  0
    0.4283    2.2532    0.6555 S   0  0  0  0  0  0  0  0  0  0  0  0
    2.4031    0.7595   -2.7669 H   0  0  0  0  0  0  0  0  0  0  0  0
    1.5987   -0.8116   -2.7484 H   0  0  0  0  0  0  0  0  0  0  0  0
    0.6384    0.6717   -2.7554 H   0  0  0  0  0  0  0  0  0  0  0  0
    0.5202   -0.4501   -0.3700 H   0  0  0  0  0  0  0  0  0  0  0  0
    2.4582   -0.2874   -0.4833 H   0  0  0  0  0  0  0  0  0  0  0  0
    2.4033    2.2027   -0.6023 H   0  0  0  0  0  0  0  0  0  0  0  0
  1  2  3  0
  1  7  1  0
  2  3  1  0
  3  4  1  0
  3  5  1  0
  4  8  1  0
  4  9  1  0
  4 10  1  0
  5  6  3  0
  6 11  1  0
 12 13  1  0
 12 16  1  0
 12 17  1  0
 12 18  1  0
 13 14  1  0
 13 19  1  0
 13 20  1  0
 14 15  2  0
 14 21  1  0
M  RAD  1   3   2
M  END
>  <reaction>  (15) 
rxn_2009

>  <mol_properties>  (15) 
{"1": {"label": "*4", "atom_type": "Ct"}, "2": {"label": "*3", "atom_type": "Cs"}, "12": {"label": "*1", "atom_type": "Cs"}, "13": {"label": "*0", "atom_type": "CS"}, "18": {"label": "*2", "atom_type": "H0"}}

>  <type>  (15) 
unop_11

>  <geom_source>  (15) 
Heuristics

$$$$

     RDKit          3D

 21 19  0  0  0  0  0  0  0  0999 V2000
   -2.0388   -1.7812   -1.8425 C   0  0  0  0  0  0  0  0  0  0  0  0
   -1.3958   -1.4075   -0.9056 C   0  0  0  0  0  0  0  0  0  0  0  0
   -0.6294   -0.9157    0.2447 C   0  0  0  0  0  3  0  0  0  0  0  0
   -1.4677    0.0489    1.1016 C   0  0  0  0  0  0  0  0  0  0  0  0
   -0.1075   -2.0253    1.0502 C   0  0  0  0  0  0  0  0  0  0  0  0
    0.3168   -2.9108    1.7334 C   0  0  0  0  0  0  0  0  0  0  0  0
   -2.6103   -2.1134   -2.6755 H   0  0  0  0  0  0  0  0  0  0  0  0
   -1.8107    0.8837    0.4912 H   0  0  0  0  0  0  0  0  0  0  0  0
   -2.3354   -0.4674    1.5101 H   0  0  0  0  0  0  0  0  0  0  0  0
   -0.8658    0.4305    1.9257 H   0  0  0  0  0  0  0  0  0  0  0  0
    0.6940   -3.6980    2.3407 H   0  0  0  0  0  0  0  0  0  0  0  0
    1.4308    0.4061   -2.2259 C   0  0  0  0  0  0  0  0  0  0  0  0
    1.4308    0.4061   -0.6948 C   0  0  0  0  0  0  0  0  0  0  0  0
    1.4308    1.7943   -0.1482 C   0  0  0  0  0  0  0  0  0  0  0  0
    0.3112    2.4500    0.7994 S   0  0  0  0  0  0  0  0  0  0  0  0
    2.2860    0.9563   -2.6230 H   0  0  0  0  0  0  0  0  0  0  0  0
    1.4816   -0.6148   -2.6046 H   0  0  0  0  0  0  0  0  0  0  0  0
    0.5213    0.8685   -2.6116 H   0  0  0  0  0  0  0  0  0  0  0  0
    0.4031   -0.2532   -0.2262 H   0  0  0  0  0  0  0  0  0  0  0  0
    2.3411   -0.0906   -0.3394 H   0  0  0  0  0  0  0  0  0  0  0  0
    2.2862    2.3996   -0.4585 H   0  0  0  0  0  0  0  0  0  0  0  0
  1  2  3  0
  1  7  1  0
  2  3  1  0
  3  4  1  0
  3  5  1  0
  4  8  1  0
  4  9  1  0
  4 10  1  0
  5  6  3  0
  6 11  1  0
 12 13  1  0
 12 16  1  0
 12 17  1  0
 12 18  1  0
 13 14  1  0
 13 19  1  0
 13 20  1  0
 14 15  2  0
 14 21  1  0
M  RAD  1   3   2
M  END
>  <reaction>  (16) 
rxn_2009

>  <mol_properties>  (16) 
{"1": {"label": "*4", "atom_type": "Ct"}, "2": {"label": "*3", "atom_type": "Cs"}, "12": {"label": "*1", "atom_type": "Cs"}, "13": {"label": "*0", "atom_type": "CS"}, "18": {"label": "*2", "atom_type": "H0"}}

>  <type>  (16) 
unop_12

>  <geom_source>  (16) 
Heuristics

$$$$

     RDKit          3D

 21 19  0  0  0  0  0  0  0  0999 V2000
   -1.1564   -1.3536   -2.5283 S   0  0  0  0  0  1  0  0  0  0  0  0
    1.0627   -0.0735    0.0579 C   0  0  0  0  0  0  0  0  0  0  0  0
    1.7771   -1.2371    0.7416 C   0  0  0  0  0  0  0  0  0  0  0  0
   -2.1982    0.4177    0.7164 C   0  0  0  0  0  0  0  0  0  0  0  0
   -1.4780   -0.6381   -0.1123 C   0  0  0  0  0  0  0  0  0  0  0  0
   -1.8544   -0.5566   -1.5616 C   0  0  0  0  0  0  0  0  0  0  0  0
    1.8295    0.3838   -1.1075 C   0  0  0  0  0  0  0  0  0  0  0  0
    0.8903    1.0429    0.9955 C   0  0  0  0  0  0  0  0  0  0  0  0
    2.4585    0.7582   -2.0658 C   0  0  0  0  0  0  0  0  0  0  0  0
    0.7471    1.9592    1.7663 C   0  0  0  0  0  0  0  0  0  0  0  0
   -0.1231   -0.4752   -0.3458 H   0  0  0  0  0  0  0  0  0  0  0  0
    2.7859   -0.9306    1.0961 H   0  0  0  0  0  0  0  0  0  0  0  0
    1.8871   -2.0848    0.0319 H   0  0  0  0  0  0  0  0  0  0  0  0
    1.1819   -1.5900    1.6109 H   0  0  0  0  0  0  0  0  0  0  0  0
   -1.8749    0.3367    1.7750 H   0  0  0  0  0  0  0  0  0  0  0  0
   -3.2977    0.2667    0.6636 H   0  0  0  0  0  0  0  0  0  0  0  0
   -1.9446    1.4330    0.3445 H   0  0  0  0  0  0  0  0  0  0  0  0
   -1.7102   -1.6497    0.2867 H   0  0  0  0  0  0  0  0  0  0  0  0
   -2.6147    0.1407   -1.9011 H   0  0  0  0  0  0  0  0  0  0  0  0
    3.0106    1.0868   -2.9067 H   0  0  0  0  0  0  0  0  0  0  0  0
    0.6215    2.7633    2.4427 H   0  0  0  0  0  0  0  0  0  0  0  0
  1  6  1  0
  2  3  1  0
  2  7  1  0
  2  8  1  0
  2 11  1  0
  3 12  1  0
  3 13  1  0
  3 14  1  0
  4  5  1  0
  4 15  1  0
  4 16  1  0
  4 17  1  0
  5  6  2  3
  5 18  1  0
  6 19  1  0
  7  9  3  0
  8 10  3  0
  9 20  1  0
 10 21  1  0
M  RAD  1   1   2
M  END
>  <reaction>  (17) 
rxn_2009

>  <mol_properties>  (17) 
{"1": {"label": "*4", "atom_type": "Ct"}, "2": {"label": "*3", "atom_type": "Cs"}, "12": {"label": "*1", "atom_type": "Cs"}, "13": {"label": "*0", "atom_type": "CS"}, "18": {"label": "*2", "atom_type": "H0"}}

>  <type>  (17) 
unop_13

>  <geom_source>  (17) 
AutoTST

$$$$
