
     RDKit          3D

  5  4  0  0  0  0  0  0  0  0999 V2000
    0.0000    0.0000    0.0000 C   0  0  0  0  0  0  0  0  0  0  0  0
   -0.6486   -0.7720   -0.4113 H   0  0  0  0  0  0  0  0  0  0  0  0
   -0.3482    0.9787   -0.3267 H   0  0  0  0  0  0  0  0  0  0  0  0
   -0.0223   -0.0487    1.0876 H   0  0  0  0  0  0  0  0  0  0  0  0
    1.0191   -0.1580   -0.3496 H   0  0  0  0  0  0  0  0  0  0  0  0
  1  2  1  0
  1  3  1  0
  1  4  1  0
  1  5  1  0
M  END
>  <reaction>  (1) 
rxn_317

>  <mol_properties>  (1) 
{"0": {"label": "donator", "atom_type": "Cs"}, "1": {"label": "d_hydrogen", "atom_type": "H0"}}

>  <type>  (1) 
r1h

$$$$

     RDKit          3D

 11 11  0  0  0  0  0  0  0  0999 V2000
    0.1524   -1.5397    0.0698 C   0  0  0  0  0  3  0  0  0  0  0  0
   -1.1218   -1.0406    0.0516 C   0  0  0  0  0  0  0  0  0  0  0  0
   -1.2464    0.3470   -0.0114 C   0  0  0  0  0  0  0  0  0  0  0  0
   -0.1137    1.1487   -0.0521 C   0  0  0  0  0  0  0  0  0  0  0  0
    1.1542    0.5837   -0.0308 C   0  0  0  0  0  0  0  0  0  0  0  0
    1.3041   -0.8014    0.0319 C   0  0  0  0  0  0  0  0  0  0  0  0
   -1.9955   -1.6793    0.0840 H   0  0  0  0  0  0  0  0  0  0  0  0
   -2.2319    0.7966   -0.0284 H   0  0  0  0  0  0  0  0  0  0  0  0
   -0.2203    2.2248   -0.1009 H   0  0  0  0  0  0  0  0  0  0  0  0
    2.0325    1.2173   -0.0630 H   0  0  0  0  0  0  0  0  0  0  0  0
    2.2862   -1.2570    0.0492 H   0  0  0  0  0  0  0  0  0  0  0  0
  1  2  2  0
  1  6  1  0
  2  3  1  0
  2  7  1  0
  3  4  2  0
  3  8  1  0
  4  5  1  0
  4  9  1  0
  5  6  2  0
  5 10  1  0
  6 11  1  0
M  RAD  1   1   2
M  END
>  <reaction>  (2) 
rxn_317

>  <mol_properties>  (2) 
{"0": {"label": "acceptor", "atom_type": "Cd"}}

>  <type>  (2) 
r2

$$$$

     RDKit          3D

 12 12  0  0  0  0  0  0  0  0999 V2000
   -1.2385    0.6248   -0.0199 C   0  0  0  0  0  0  0  0  0  0  0  0
   -0.0779    1.3848   -0.0298 C   0  0  0  0  0  0  0  0  0  0  0  0
    1.1605    0.7600   -0.0100 C   0  0  0  0  0  0  0  0  0  0  0  0
    1.2385   -0.6248    0.0199 C   0  0  0  0  0  0  0  0  0  0  0  0
    0.0779   -1.3848    0.0298 C   0  0  0  0  0  0  0  0  0  0  0  0
   -1.1606   -0.7600    0.0100 C   0  0  0  0  0  0  0  0  0  0  0  0
   -2.2052    1.1125   -0.0354 H   0  0  0  0  0  0  0  0  0  0  0  0
   -0.1387    2.4657   -0.0531 H   0  0  0  0  0  0  0  0  0  0  0  0
    2.0664    1.3532   -0.0177 H   0  0  0  0  0  0  0  0  0  0  0  0
    2.2052   -1.1125    0.0354 H   0  0  0  0  0  0  0  0  0  0  0  0
    0.1387   -2.4657    0.0531 H   0  0  0  0  0  0  0  0  0  0  0  0
   -2.0664   -1.3532    0.0177 H   0  0  0  0  0  0  0  0  0  0  0  0
  1  2  2  0
  1  6  1  0
  1  7  1  0
  2  3  1  0
  2  8  1  0
  3  4  2  0
  3  9  1  0
  4  5  1  0
  4 10  1  0
  5  6  2  0
  5 11  1  0
  6 12  1  0
M  END
>  <reaction>  (3) 
rxn_317

>  <mol_properties>  (3) 
{"0": {"label": "acceptor", "atom_type": "Cd"}, "11": {"label": "a_hydrogen", "atom_type": "H0"}}

>  <type>  (3) 
r2h

$$$$

     RDKit          3D

 16 15  0  0  0  0  0  0  0  0999 V2000
    0.0482   -0.6491   -0.2573 C   0  0  0  0  0  3  0  0  0  0  0  0
    0.6470    0.4189   -0.8893 C   0  0  0  0  0  0  0  0  0  0  0  0
    0.4868    1.6880   -0.3439 C   0  0  0  0  0  0  0  0  0  0  0  0
   -0.2629    1.8576    0.8119 C   0  0  0  0  0  0  0  0  0  0  0  0
   -0.8560    0.7651    1.4293 C   0  0  0  0  0  0  0  0  0  0  0  0
   -0.7008   -0.5075    0.8905 C   0  0  0  0  0  0  0  0  0  0  0  0
    1.2304    0.2766   -1.7913 H   0  0  0  0  0  0  0  0  0  0  0  0
    0.9475    2.5442   -0.8217 H   0  0  0  0  0  0  0  0  0  0  0  0
   -0.3857    2.8471    1.2339 H   0  0  0  0  0  0  0  0  0  0  0  0
   -1.4402    0.9031    2.3311 H   0  0  0  0  0  0  0  0  0  0  0  0
   -1.1602   -1.3665    1.3654 H   0  0  0  0  0  0  0  0  0  0  0  0
    0.3498   -3.0869   -1.2950 C   0  0  0  0  0  0  0  0  0  0  0  0
    0.2030   -1.9007   -0.7921 H   0  0  0  0  0  0  0  0  0  0  0  0
    1.4056   -3.1739   -1.5369 H   0  0  0  0  0  0  0  0  0  0  0  0
    0.0371   -3.7739   -0.5131 H   0  0  0  0  0  0  0  0  0  0  0  0
   -0.2931   -3.1184   -2.1703 H   0  0  0  0  0  0  0  0  0  0  0  0
  1  2  2  0
  1  6  1  0
  2  3  1  0
  2  7  1  0
  3  4  2  0
  3  8  1  0
  4  5  1  0
  4  9  1  0
  5  6  2  0
  5 10  1  0
  6 11  1  0
 12 13  1  0
 12 14  1  0
 12 15  1  0
 12 16  1  0
M  RAD  1   1   2
M  END
>  <reaction>  (4) 
rxn_317

>  <mol_properties>  (4) 
{"0": {"label": "*3", "atom_type": "Cd"}, "1": {"label": "*4", "atom_type": "Cd"}, "11": {"label": "*1", "atom_type": "Cs"}, "12": {"label": "*2", "atom_type": "H0"}, "13": {"label": "*0", "atom_type": "H0"}}

>  <type>  (4) 
ts

$$$$

     RDKit          3D

 16 15  0  0  0  0  0  0  0  0999 V2000
   -0.2305   -0.2155   -0.8116 C   0  0  0  0  0  0  0  0  0  0  0  0
   -1.2709    0.2382   -0.0141 C   0  0  0  0  0  0  0  0  0  0  0  0
   -0.9988    0.9897    1.1199 C   0  0  0  0  0  0  0  0  0  0  0  0
    0.3137    1.2874    1.4563 C   0  0  0  0  0  0  0  0  0  0  0  0
    1.3542    0.8337    0.6587 C   0  0  0  0  0  0  0  0  0  0  0  0
    1.0821    0.0822   -0.4753 C   0  0  0  0  0  0  0  0  0  0  0  0
   -2.2955    0.0058   -0.2766 H   0  0  0  0  0  0  0  0  0  0  0  0
   -1.8110    1.3438    1.7424 H   0  0  0  0  0  0  0  0  0  0  0  0
    0.5261    1.8740    2.3414 H   0  0  0  0  0  0  0  0  0  0  0  0
    2.3787    1.0661    0.9212 H   0  0  0  0  0  0  0  0  0  0  0  0
    1.8942   -0.2719   -1.0979 H   0  0  0  0  0  0  0  0  0  0  0  0
   -0.2305   -2.6726   -1.6803 C   0  0  0  0  0  3  0  0  0  0  0  0
   -0.2305   -1.4406   -1.2448 H   0  0  0  0  0  0  0  0  0  0  0  0
    0.6586   -3.1859   -1.3174 H   0  0  0  0  0  0  0  0  0  0  0  0
   -1.1196   -3.1859   -1.3174 H   0  0  0  0  0  0  0  0  0  0  0  0
   -0.2305   -2.6726   -2.7693 H   0  0  0  0  0  0  0  0  0  0  0  0
  1  2  2  0
  1  6  1  0
  1 13  1  0
  2  3  1  0
  2  7  1  0
  3  4  2  0
  3  8  1  0
  4  5  1  0
  4  9  1  0
  5  6  2  0
  5 10  1  0
  6 11  1  0
 12 14  1  0
 12 15  1  0
 12 16  1  0
M  RAD  1  12   2
M  END
>  <reaction>  (5) 
rxn_317

>  <mol_properties>  (5) 
{"0": {"label": "*3", "atom_type": "Cd"}, "1": {"label": "*4", "atom_type": "Cd"}, "11": {"label": "*1", "atom_type": "Cs"}, "12": {"label": "*2", "atom_type": "H0"}, "13": {"label": "*0", "atom_type": "H0"}}

>  <type>  (5) 
unop_1

>  <geom_source>  (5) 
Heuristics

$$$$

     RDKit          3D

 16 15  0  0  0  0  0  0  0  0999 V2000
    0.2814   -0.6023   -0.3555 C   0  0  0  0  0  0  0  0  0  0  0  0
   -0.3193    0.3984   -1.1053 C   0  0  0  0  0  0  0  0  0  0  0  0
   -0.6515    1.6066   -0.5098 C   0  0  0  0  0  0  0  0  0  0  0  0
   -0.3831    1.8140    0.8354 C   0  0  0  0  0  0  0  0  0  0  0  0
    0.2177    0.8132    1.5851 C   0  0  0  0  0  0  0  0  0  0  0  0
    0.5499   -0.3950    0.9897 C   0  0  0  0  0  0  0  0  0  0  0  0
   -0.5289    0.2366   -2.1552 H   0  0  0  0  0  0  0  0  0  0  0  0
   -1.1204    2.3878   -1.0950 H   0  0  0  0  0  0  0  0  0  0  0  0
   -0.6424    2.7570    1.3001 H   0  0  0  0  0  0  0  0  0  0  0  0
    0.4272    0.9750    2.6351 H   0  0  0  0  0  0  0  0  0  0  0  0
    1.0188   -1.1762    1.5749 H   0  0  0  0  0  0  0  0  0  0  0  0
    0.2814   -3.0594   -1.2242 C   0  0  0  0  0  3  0  0  0  0  0  0
    0.2814   -1.8274   -0.7886 H   0  0  0  0  0  0  0  0  0  0  0  0
    1.1705   -3.5728   -0.8612 H   0  0  0  0  0  0  0  0  0  0  0  0
   -0.6077   -3.5728   -0.8612 H   0  0  0  0  0  0  0  0  0  0  0  0
    0.2814   -3.0594   -2.3131 H   0  0  0  0  0  0  0  0  0  0  0  0
  1  2  2  0
  1  6  1  0
  1 13  1  0
  2  3  1  0
  2  7  1  0
  3  4  2  0
  3  8  1  0
  4  5  1  0
  4  9  1  0
  5  6  2  0
  5 10  1  0
  6 11  1  0
 12 14  1  0
 12 15  1  0
 12 16  1  0
M  RAD  1  12   2
M  END
>  <reaction>  (6) 
rxn_317

>  <mol_properties>  (6) 
{"0": {"label": "*3", "atom_type": "Cd"}, "1": {"label": "*4", "atom_type": "Cd"}, "11": {"label": "*1", "atom_type": "Cs"}, "12": {"label": "*2", "atom_type": "H0"}, "13": {"label": "*0", "atom_type": "H0"}}

>  <type>  (6) 
unop_2

>  <geom_source>  (6) 
Heuristics

$$$$

     RDKit          3D

 16 15  0  0  0  0  0  0  0  0999 V2000
   -0.4678   -0.4025   -0.5467 C   0  0  0  0  0  0  0  0  0  0  0  0
   -1.0685   -0.0953    0.6654 C   0  0  0  0  0  0  0  0  0  0  0  0
   -0.5162    0.8769    1.4866 C   0  0  0  0  0  0  0  0  0  0  0  0
    0.6368    1.5419    1.0957 C   0  0  0  0  0  0  0  0  0  0  0  0
    1.2375    1.2348   -0.1165 C   0  0  0  0  0  0  0  0  0  0  0  0
    0.6852    0.2626   -0.9377 C   0  0  0  0  0  0  0  0  0  0  0  0
   -1.9685   -0.6144    0.9706 H   0  0  0  0  0  0  0  0  0  0  0  0
   -0.9851    1.1166    2.4328 H   0  0  0  0  0  0  0  0  0  0  0  0
    1.0679    2.3008    1.7367 H   0  0  0  0  0  0  0  0  0  0  0  0
    2.1375    1.7538   -0.4217 H   0  0  0  0  0  0  0  0  0  0  0  0
    1.1541    0.0228   -1.8839 H   0  0  0  0  0  0  0  0  0  0  0  0
   -0.4678   -2.8595   -1.4154 C   0  0  0  0  0  3  0  0  0  0  0  0
   -0.4678   -1.6276   -0.9799 H   0  0  0  0  0  0  0  0  0  0  0  0
    0.4213   -3.3729   -1.0525 H   0  0  0  0  0  0  0  0  0  0  0  0
   -1.3569   -3.3729   -1.0525 H   0  0  0  0  0  0  0  0  0  0  0  0
   -0.4678   -2.8595   -2.5044 H   0  0  0  0  0  0  0  0  0  0  0  0
  1  2  2  0
  1  6  1  0
  1 13  1  0
  2  3  1  0
  2  7  1  0
  3  4  2  0
  3  8  1  0
  4  5  1  0
  4  9  1  0
  5  6  2  0
  5 10  1  0
  6 11  1  0
 12 14  1  0
 12 15  1  0
 12 16  1  0
M  RAD  1  12   2
M  END
>  <reaction>  (7) 
rxn_317

>  <mol_properties>  (7) 
{"0": {"label": "*3", "atom_type": "Cd"}, "1": {"label": "*4", "atom_type": "Cd"}, "11": {"label": "*1", "atom_type": "Cs"}, "12": {"label": "*2", "atom_type": "H0"}, "13": {"label": "*0", "atom_type": "H0"}}

>  <type>  (7) 
unop_3

>  <geom_source>  (7) 
Heuristics

$$$$

     RDKit          3D

 16 15  0  0  0  0  0  0  0  0999 V2000
   -0.3389   -0.4156   -0.6035 C   0  0  0  0  0  0  0  0  0  0  0  0
    0.7016    0.4386   -0.9387 C   0  0  0  0  0  0  0  0  0  0  0  0
    1.1017    1.4263   -0.0504 C   0  0  0  0  0  0  0  0  0  0  0  0
    0.4613    1.5598    1.1730 C   0  0  0  0  0  0  0  0  0  0  0  0
   -0.5792    0.7056    1.5081 C   0  0  0  0  0  0  0  0  0  0  0  0
   -0.9793   -0.2821    0.6199 C   0  0  0  0  0  0  0  0  0  0  0  0
    1.2014    0.3344   -1.8936 H   0  0  0  0  0  0  0  0  0  0  0  0
    1.9138    2.0930   -0.3120 H   0  0  0  0  0  0  0  0  0  0  0  0
    0.7736    2.3307    1.8663 H   0  0  0  0  0  0  0  0  0  0  0  0
   -1.0790    0.8097    2.4630 H   0  0  0  0  0  0  0  0  0  0  0  0
   -1.7914   -0.9489    0.8815 H   0  0  0  0  0  0  0  0  0  0  0  0
   -0.3389   -2.8727   -1.4722 C   0  0  0  0  0  3  0  0  0  0  0  0
   -0.3389   -1.6407   -1.0367 H   0  0  0  0  0  0  0  0  0  0  0  0
    0.5502   -3.3860   -1.1093 H   0  0  0  0  0  0  0  0  0  0  0  0
   -1.2280   -3.3860   -1.1093 H   0  0  0  0  0  0  0  0  0  0  0  0
   -0.3389   -2.8727   -2.5612 H   0  0  0  0  0  0  0  0  0  0  0  0
  1  2  2  0
  1  6  1  0
  1 13  1  0
  2  3  1  0
  2  7  1  0
  3  4  2  0
  3  8  1  0
  4  5  1  0
  4  9  1  0
  5  6  2  0
  5 10  1  0
  6 11  1  0
 12 14  1  0
 12 15  1  0
 12 16  1  0
M  RAD  1  12   2
M  END
>  <reaction>  (8) 
rxn_317

>  <mol_properties>  (8) 
{"0": {"label": "*3", "atom_type": "Cd"}, "1": {"label": "*4", "atom_type": "Cd"}, "11": {"label": "*1", "atom_type": "Cs"}, "12": {"label": "*2", "atom_type": "H0"}, "13": {"label": "*0", "atom_type": "H0"}}

>  <type>  (8) 
unop_4

>  <geom_source>  (8) 
Heuristics

$$$$

     RDKit          3D

 16 15  0  0  0  0  0  0  0  0999 V2000
   -0.0000   -0.6869   -0.2428 C   0  0  0  0  0  0  0  0  0  0  0  0
   -0.0000   -0.4334    1.1211 C   0  0  0  0  0  0  0  0  0  0  0  0
   -0.0000    0.8746    1.5835 C   0  0  0  0  0  0  0  0  0  0  0  0
    0.0000    1.9290    0.6820 C   0  0  0  0  0  0  0  0  0  0  0  0
    0.0000    1.6755   -0.6819 C   0  0  0  0  0  0  0  0  0  0  0  0
    0.0000    0.3676   -1.1444 C   0  0  0  0  0  0  0  0  0  0  0  0
   -0.0000   -1.2564    1.8248 H   0  0  0  0  0  0  0  0  0  0  0  0
   -0.0000    1.0724    2.6481 H   0  0  0  0  0  0  0  0  0  0  0  0
    0.0000    2.9500    1.0430 H   0  0  0  0  0  0  0  0  0  0  0  0
    0.0000    2.4986   -1.3856 H   0  0  0  0  0  0  0  0  0  0  0  0
    0.0000    0.1697   -2.2090 H   0  0  0  0  0  0  0  0  0  0  0  0
   -0.0000   -3.1440   -1.1116 C   0  0  0  0  0  3  0  0  0  0  0  0
   -0.0000   -1.9120   -0.6760 H   0  0  0  0  0  0  0  0  0  0  0  0
    0.8891   -3.6573   -0.7486 H   0  0  0  0  0  0  0  0  0  0  0  0
   -0.8891   -3.6573   -0.7486 H   0  0  0  0  0  0  0  0  0  0  0  0
   -0.0000   -3.1440   -2.2005 H   0  0  0  0  0  0  0  0  0  0  0  0
  1  2  2  0
  1  6  1  0
  1 13  1  0
  2  3  1  0
  2  7  1  0
  3  4  2  0
  3  8  1  0
  4  5  1  0
  4  9  1  0
  5  6  2  0
  5 10  1  0
  6 11  1  0
 12 14  1  0
 12 15  1  0
 12 16  1  0
M  RAD  1  12   2
M  END
>  <reaction>  (9) 
rxn_317

>  <mol_properties>  (9) 
{"0": {"label": "*3", "atom_type": "Cd"}, "1": {"label": "*4", "atom_type": "Cd"}, "11": {"label": "*1", "atom_type": "Cs"}, "12": {"label": "*2", "atom_type": "H0"}, "13": {"label": "*0", "atom_type": "H0"}}

>  <type>  (9) 
unop_5

>  <geom_source>  (9) 
Heuristics

$$$$

     RDKit          3D

 16 15  0  0  0  0  0  0  0  0999 V2000
   -0.1285   -0.2517   -0.8060 C   0  0  0  0  0  0  0  0  0  0  0  0
    1.0730    0.4022   -0.5748 C   0  0  0  0  0  0  0  0  0  0  0  0
    1.2246    1.1965    0.5525 C   0  0  0  0  0  0  0  0  0  0  0  0
    0.1749    1.3368    1.4486 C   0  0  0  0  0  0  0  0  0  0  0  0
   -1.0266    0.6828    1.2173 C   0  0  0  0  0  0  0  0  0  0  0  0
   -1.1782   -0.1115    0.0901 C   0  0  0  0  0  0  0  0  0  0  0  0
    1.8924    0.2927   -1.2742 H   0  0  0  0  0  0  0  0  0  0  0  0
    2.1624    1.7069    0.7330 H   0  0  0  0  0  0  0  0  0  0  0  0
    0.2933    1.9567    2.3285 H   0  0  0  0  0  0  0  0  0  0  0  0
   -1.8459    0.7923    1.9167 H   0  0  0  0  0  0  0  0  0  0  0  0
   -2.1160   -0.6219   -0.0904 H   0  0  0  0  0  0  0  0  0  0  0  0
   -0.1285   -2.7088   -1.6747 C   0  0  0  0  0  3  0  0  0  0  0  0
   -0.1285   -1.4768   -1.2391 H   0  0  0  0  0  0  0  0  0  0  0  0
    0.7606   -3.2222   -1.3117 H   0  0  0  0  0  0  0  0  0  0  0  0
   -1.0176   -3.2222   -1.3117 H   0  0  0  0  0  0  0  0  0  0  0  0
   -0.1285   -2.7088   -2.7636 H   0  0  0  0  0  0  0  0  0  0  0  0
  1  2  2  0
  1  6  1  0
  1 13  1  0
  2  3  1  0
  2  7  1  0
  3  4  2  0
  3  8  1  0
  4  5  1  0
  4  9  1  0
  5  6  2  0
  5 10  1  0
  6 11  1  0
 12 14  1  0
 12 15  1  0
 12 16  1  0
M  RAD  1  12   2
M  END
>  <reaction>  (10) 
rxn_317

>  <mol_properties>  (10) 
{"0": {"label": "*3", "atom_type": "Cd"}, "1": {"label": "*4", "atom_type": "Cd"}, "11": {"label": "*1", "atom_type": "Cs"}, "12": {"label": "*2", "atom_type": "H0"}, "13": {"label": "*0", "atom_type": "H0"}}

>  <type>  (10) 
unop_6

>  <geom_source>  (10) 
Heuristics

$$$$

     RDKit          3D

 16 15  0  0  0  0  0  0  0  0999 V2000
    0.2305   -0.2155   -0.8116 C   0  0  0  0  0  0  0  0  0  0  0  0
    1.2709    0.2382   -0.0141 C   0  0  0  0  0  0  0  0  0  0  0  0
    0.9988    0.9897    1.1199 C   0  0  0  0  0  0  0  0  0  0  0  0
   -0.3137    1.2874    1.4563 C   0  0  0  0  0  0  0  0  0  0  0  0
   -1.3542    0.8337    0.6587 C   0  0  0  0  0  0  0  0  0  0  0  0
   -1.0821    0.0822   -0.4753 C   0  0  0  0  0  0  0  0  0  0  0  0
    2.2955    0.0058   -0.2766 H   0  0  0  0  0  0  0  0  0  0  0  0
    1.8110    1.3438    1.7424 H   0  0  0  0  0  0  0  0  0  0  0  0
   -0.5261    1.8740    2.3414 H   0  0  0  0  0  0  0  0  0  0  0  0
   -2.3787    1.0661    0.9212 H   0  0  0  0  0  0  0  0  0  0  0  0
   -1.8942   -0.2719   -1.0979 H   0  0  0  0  0  0  0  0  0  0  0  0
    0.2305   -2.6726   -1.6803 C   0  0  0  0  0  3  0  0  0  0  0  0
    0.2305   -1.4406   -1.2448 H   0  0  0  0  0  0  0  0  0  0  0  0
    1.1196   -3.1859   -1.3174 H   0  0  0  0  0  0  0  0  0  0  0  0
   -0.6586   -3.1859   -1.3174 H   0  0  0  0  0  0  0  0  0  0  0  0
    0.2305   -2.6726   -2.7693 H   0  0  0  0  0  0  0  0  0  0  0  0
  1  2  2  0
  1  6  1  0
  1 13  1  0
  2  3  1  0
  2  7  1  0
  3  4  2  0
  3  8  1  0
  4  5  1  0
  4  9  1  0
  5  6  2  0
  5 10  1  0
  6 11  1  0
 12 14  1  0
 12 15  1  0
 12 16  1  0
M  RAD  1  12   2
M  END
>  <reaction>  (11) 
rxn_317

>  <mol_properties>  (11) 
{"0": {"label": "*3", "atom_type": "Cd"}, "1": {"label": "*4", "atom_type": "Cd"}, "11": {"label": "*1", "atom_type": "Cs"}, "12": {"label": "*2", "atom_type": "H0"}, "13": {"label": "*0", "atom_type": "H0"}}

>  <type>  (11) 
unop_7

>  <geom_source>  (11) 
Heuristics

$$$$

     RDKit          3D

 16 15  0  0  0  0  0  0  0  0999 V2000
    0.1285   -0.2517   -0.8060 C   0  0  0  0  0  0  0  0  0  0  0  0
   -1.0730    0.4022   -0.5748 C   0  0  0  0  0  0  0  0  0  0  0  0
   -1.2246    1.1965    0.5525 C   0  0  0  0  0  0  0  0  0  0  0  0
   -0.1749    1.3368    1.4486 C   0  0  0  0  0  0  0  0  0  0  0  0
    1.0265    0.6828    1.2173 C   0  0  0  0  0  0  0  0  0  0  0  0
    1.1782   -0.1115    0.0901 C   0  0  0  0  0  0  0  0  0  0  0  0
   -1.8924    0.2927   -1.2742 H   0  0  0  0  0  0  0  0  0  0  0  0
   -2.1624    1.7069    0.7330 H   0  0  0  0  0  0  0  0  0  0  0  0
   -0.2933    1.9567    2.3285 H   0  0  0  0  0  0  0  0  0  0  0  0
    1.8459    0.7923    1.9167 H   0  0  0  0  0  0  0  0  0  0  0  0
    2.1160   -0.6219   -0.0904 H   0  0  0  0  0  0  0  0  0  0  0  0
    0.1285   -2.7088   -1.6747 C   0  0  0  0  0  3  0  0  0  0  0  0
    0.1285   -1.4768   -1.2391 H   0  0  0  0  0  0  0  0  0  0  0  0
    1.0176   -3.2222   -1.3117 H   0  0  0  0  0  0  0  0  0  0  0  0
   -0.7606   -3.2222   -1.3117 H   0  0  0  0  0  0  0  0  0  0  0  0
    0.1285   -2.7088   -2.7636 H   0  0  0  0  0  0  0  0  0  0  0  0
  1  2  2  0
  1  6  1  0
  1 13  1  0
  2  3  1  0
  2  7  1  0
  3  4  2  0
  3  8  1  0
  4  5  1  0
  4  9  1  0
  5  6  2  0
  5 10  1  0
  6 11  1  0
 12 14  1  0
 12 15  1  0
 12 16  1  0
M  RAD  1  12   2
M  END
>  <reaction>  (12) 
rxn_317

>  <mol_properties>  (12) 
{"0": {"label": "*3", "atom_type": "Cd"}, "1": {"label": "*4", "atom_type": "Cd"}, "11": {"label": "*1", "atom_type": "Cs"}, "12": {"label": "*2", "atom_type": "H0"}, "13": {"label": "*0", "atom_type": "H0"}}

>  <type>  (12) 
unop_8

>  <geom_source>  (12) 
Heuristics

$$$$

     RDKit          3D

 16 15  0  0  0  0  0  0  0  0999 V2000
   -0.2814   -0.6023   -0.3555 C   0  0  0  0  0  0  0  0  0  0  0  0
    0.3193    0.3984   -1.1053 C   0  0  0  0  0  0  0  0  0  0  0  0
    0.6515    1.6066   -0.5098 C   0  0  0  0  0  0  0  0  0  0  0  0
    0.3831    1.8140    0.8354 C   0  0  0  0  0  0  0  0  0  0  0  0
   -0.2177    0.8132    1.5851 C   0  0  0  0  0  0  0  0  0  0  0  0
   -0.5499   -0.3950    0.9897 C   0  0  0  0  0  0  0  0  0  0  0  0
    0.5289    0.2366   -2.1552 H   0  0  0  0  0  0  0  0  0  0  0  0
    1.1204    2.3878   -1.0950 H   0  0  0  0  0  0  0  0  0  0  0  0
    0.6424    2.7570    1.3001 H   0  0  0  0  0  0  0  0  0  0  0  0
   -0.4272    0.9750    2.6351 H   0  0  0  0  0  0  0  0  0  0  0  0
   -1.0188   -1.1762    1.5749 H   0  0  0  0  0  0  0  0  0  0  0  0
   -0.2814   -3.0594   -1.2242 C   0  0  0  0  0  3  0  0  0  0  0  0
   -0.2814   -1.8274   -0.7886 H   0  0  0  0  0  0  0  0  0  0  0  0
    0.6077   -3.5728   -0.8612 H   0  0  0  0  0  0  0  0  0  0  0  0
   -1.1705   -3.5728   -0.8612 H   0  0  0  0  0  0  0  0  0  0  0  0
   -0.2814   -3.0594   -2.3131 H   0  0  0  0  0  0  0  0  0  0  0  0
  1  2  2  0
  1  6  1  0
  1 13  1  0
  2  3  1  0
  2  7  1  0
  3  4  2  0
  3  8  1  0
  4  5  1  0
  4  9  1  0
  5  6  2  0
  5 10  1  0
  6 11  1  0
 12 14  1  0
 12 15  1  0
 12 16  1  0
M  RAD  1  12   2
M  END
>  <reaction>  (13) 
rxn_317

>  <mol_properties>  (13) 
{"0": {"label": "*3", "atom_type": "Cd"}, "1": {"label": "*4", "atom_type": "Cd"}, "11": {"label": "*1", "atom_type": "Cs"}, "12": {"label": "*2", "atom_type": "H0"}, "13": {"label": "*0", "atom_type": "H0"}}

>  <type>  (13) 
unop_9

>  <geom_source>  (13) 
Heuristics

$$$$

     RDKit          3D

 16 15  0  0  0  0  0  0  0  0999 V2000
    0.3389   -0.4156   -0.6035 C   0  0  0  0  0  0  0  0  0  0  0  0
   -0.7016    0.4386   -0.9387 C   0  0  0  0  0  0  0  0  0  0  0  0
   -1.1017    1.4263   -0.0504 C   0  0  0  0  0  0  0  0  0  0  0  0
   -0.4613    1.5598    1.1730 C   0  0  0  0  0  0  0  0  0  0  0  0
    0.5792    0.7056    1.5081 C   0  0  0  0  0  0  0  0  0  0  0  0
    0.9793   -0.2821    0.6199 C   0  0  0  0  0  0  0  0  0  0  0  0
   -1.2014    0.3344   -1.8936 H   0  0  0  0  0  0  0  0  0  0  0  0
   -1.9138    2.0930   -0.3120 H   0  0  0  0  0  0  0  0  0  0  0  0
   -0.7736    2.3307    1.8663 H   0  0  0  0  0  0  0  0  0  0  0  0
    1.0790    0.8097    2.4630 H   0  0  0  0  0  0  0  0  0  0  0  0
    1.7914   -0.9489    0.8815 H   0  0  0  0  0  0  0  0  0  0  0  0
    0.3389   -2.8727   -1.4722 C   0  0  0  0  0  3  0  0  0  0  0  0
    0.3389   -1.6407   -1.0367 H   0  0  0  0  0  0  0  0  0  0  0  0
    1.2280   -3.3860   -1.1093 H   0  0  0  0  0  0  0  0  0  0  0  0
   -0.5502   -3.3860   -1.1093 H   0  0  0  0  0  0  0  0  0  0  0  0
    0.3389   -2.8727   -2.5612 H   0  0  0  0  0  0  0  0  0  0  0  0
  1  2  2  0
  1  6  1  0
  1 13  1  0
  2  3  1  0
  2  7  1  0
  3  4  2  0
  3  8  1  0
  4  5  1  0
  4  9  1  0
  5  6  2  0
  5 10  1  0
  6 11  1  0
 12 14  1  0
 12 15  1  0
 12 16  1  0
M  RAD  1  12   2
M  END
>  <reaction>  (14) 
rxn_317

>  <mol_properties>  (14) 
{"0": {"label": "*3", "atom_type": "Cd"}, "1": {"label": "*4", "atom_type": "Cd"}, "11": {"label": "*1", "atom_type": "Cs"}, "12": {"label": "*2", "atom_type": "H0"}, "13": {"label": "*0", "atom_type": "H0"}}

>  <type>  (14) 
unop_10

>  <geom_source>  (14) 
Heuristics

$$$$

     RDKit          3D

 16 15  0  0  0  0  0  0  0  0999 V2000
    0.4678   -0.4025   -0.5467 C   0  0  0  0  0  0  0  0  0  0  0  0
    1.0685   -0.0953    0.6654 C   0  0  0  0  0  0  0  0  0  0  0  0
    0.5162    0.8769    1.4866 C   0  0  0  0  0  0  0  0  0  0  0  0
   -0.6368    1.5419    1.0957 C   0  0  0  0  0  0  0  0  0  0  0  0
   -1.2375    1.2348   -0.1165 C   0  0  0  0  0  0  0  0  0  0  0  0
   -0.6852    0.2626   -0.9377 C   0  0  0  0  0  0  0  0  0  0  0  0
    1.9685   -0.6144    0.9706 H   0  0  0  0  0  0  0  0  0  0  0  0
    0.9851    1.1166    2.4328 H   0  0  0  0  0  0  0  0  0  0  0  0
   -1.0679    2.3008    1.7367 H   0  0  0  0  0  0  0  0  0  0  0  0
   -2.1375    1.7538   -0.4217 H   0  0  0  0  0  0  0  0  0  0  0  0
   -1.1541    0.0228   -1.8839 H   0  0  0  0  0  0  0  0  0  0  0  0
    0.4678   -2.8595   -1.4154 C   0  0  0  0  0  3  0  0  0  0  0  0
    0.4678   -1.6276   -0.9799 H   0  0  0  0  0  0  0  0  0  0  0  0
    1.3569   -3.3729   -1.0525 H   0  0  0  0  0  0  0  0  0  0  0  0
   -0.4213   -3.3729   -1.0525 H   0  0  0  0  0  0  0  0  0  0  0  0
    0.4678   -2.8595   -2.5044 H   0  0  0  0  0  0  0  0  0  0  0  0
  1  2  2  0
  1  6  1  0
  1 13  1  0
  2  3  1  0
  2  7  1  0
  3  4  2  0
  3  8  1  0
  4  5  1  0
  4  9  1  0
  5  6  2  0
  5 10  1  0
  6 11  1  0
 12 14  1  0
 12 15  1  0
 12 16  1  0
M  RAD  1  12   2
M  END
>  <reaction>  (15) 
rxn_317

>  <mol_properties>  (15) 
{"0": {"label": "*3", "atom_type": "Cd"}, "1": {"label": "*4", "atom_type": "Cd"}, "11": {"label": "*1", "atom_type": "Cs"}, "12": {"label": "*2", "atom_type": "H0"}, "13": {"label": "*0", "atom_type": "H0"}}

>  <type>  (15) 
unop_11

>  <geom_source>  (15) 
Heuristics

$$$$

     RDKit          3D

 16 15  0  0  0  0  0  0  0  0999 V2000
    0.0000   -0.6869   -0.2428 C   0  0  0  0  0  0  0  0  0  0  0  0
    0.0000    0.3676   -1.1444 C   0  0  0  0  0  0  0  0  0  0  0  0
    0.0000    1.6755   -0.6819 C   0  0  0  0  0  0  0  0  0  0  0  0
   -0.0000    1.9290    0.6820 C   0  0  0  0  0  0  0  0  0  0  0  0
   -0.0000    0.8746    1.5835 C   0  0  0  0  0  0  0  0  0  0  0  0
   -0.0000   -0.4334    1.1211 C   0  0  0  0  0  0  0  0  0  0  0  0
    0.0000    0.1697   -2.2090 H   0  0  0  0  0  0  0  0  0  0  0  0
    0.0000    2.4986   -1.3856 H   0  0  0  0  0  0  0  0  0  0  0  0
   -0.0000    2.9500    1.0430 H   0  0  0  0  0  0  0  0  0  0  0  0
   -0.0000    1.0724    2.6481 H   0  0  0  0  0  0  0  0  0  0  0  0
   -0.0000   -1.2564    1.8248 H   0  0  0  0  0  0  0  0  0  0  0  0
    0.0000   -3.1440   -1.1116 C   0  0  0  0  0  3  0  0  0  0  0  0
    0.0000   -1.9120   -0.6760 H   0  0  0  0  0  0  0  0  0  0  0  0
    0.8891   -3.6573   -0.7486 H   0  0  0  0  0  0  0  0  0  0  0  0
   -0.8891   -3.6573   -0.7486 H   0  0  0  0  0  0  0  0  0  0  0  0
    0.0000   -3.1440   -2.2005 H   0  0  0  0  0  0  0  0  0  0  0  0
  1  2  2  0
  1  6  1  0
  1 13  1  0
  2  3  1  0
  2  7  1  0
  3  4  2  0
  3  8  1  0
  4  5  1  0
  4  9  1  0
  5  6  2  0
  5 10  1  0
  6 11  1  0
 12 14  1  0
 12 15  1  0
 12 16  1  0
M  RAD  1  12   2
M  END
>  <reaction>  (16) 
rxn_317

>  <mol_properties>  (16) 
{"0": {"label": "*3", "atom_type": "Cd"}, "1": {"label": "*4", "atom_type": "Cd"}, "11": {"label": "*1", "atom_type": "Cs"}, "12": {"label": "*2", "atom_type": "H0"}, "13": {"label": "*0", "atom_type": "H0"}}

>  <type>  (16) 
unop_12

>  <geom_source>  (16) 
Heuristics

$$$$

     RDKit          3D

 16 15  0  0  0  0  0  0  0  0999 V2000
   -2.4164    0.2017   -0.2991 C   0  0  0  0  0  0  0  0  0  0  0  0
   -1.6828    1.3182    0.1168 C   0  0  0  0  0  0  0  0  0  0  0  0
   -1.7891   -1.0434   -0.4162 C   0  0  0  0  0  0  0  0  0  0  0  0
   -0.3221    1.1892    0.4154 C   0  0  0  0  0  0  0  0  0  0  0  0
   -0.4283   -1.1717   -0.1175 C   0  0  0  0  0  0  0  0  0  0  0  0
    0.3046   -0.0555    0.2982 C   0  0  0  0  0  0  0  0  0  0  0  0
    2.8702   -0.2783    0.1051 C   0  0  0  0  0  3  0  0  0  0  0  0
   -2.1679    2.2814    0.2075 H   0  0  0  0  0  0  0  0  0  0  0  0
   -3.4691    0.3012   -0.5302 H   0  0  0  0  0  0  0  0  0  0  0  0
   -2.3564   -1.9072   -0.7379 H   0  0  0  0  0  0  0  0  0  0  0  0
    0.2468    2.0514    0.7372 H   0  0  0  0  0  0  0  0  0  0  0  0
    0.0585   -2.1338   -0.2075 H   0  0  0  0  0  0  0  0  0  0  0  0
    1.5659   -0.1748    0.5751 H   0  0  0  0  0  0  0  0  0  0  0  0
    3.6916   -0.5569    0.7967 H   0  0  0  0  0  0  0  0  0  0  0  0
    2.9092    0.8122   -0.0951 H   0  0  0  0  0  0  0  0  0  0  0  0
    2.9853   -0.8337   -0.8484 H   0  0  0  0  0  0  0  0  0  0  0  0
  1  2  2  0
  1  3  1  0
  1  9  1  0
  2  4  1  0
  2  8  1  0
  3  5  2  0
  3 10  1  0
  4  6  2  0
  4 11  1  0
  5  6  1  0
  5 12  1  0
  6 13  1  0
  7 14  1  0
  7 15  1  0
  7 16  1  0
M  RAD  1   7   2
M  END
>  <reaction>  (17) 
rxn_317

>  <mol_properties>  (17) 
{"0": {"label": "*3", "atom_type": "Cd"}, "1": {"label": "*4", "atom_type": "Cd"}, "11": {"label": "*1", "atom_type": "Cs"}, "12": {"label": "*2", "atom_type": "H0"}, "13": {"label": "*0", "atom_type": "H0"}}

>  <type>  (17) 
unop_13

>  <geom_source>  (17) 
AutoTST

$$$$
