
     RDKit          3D

  9  8  0  0  0  0  0  0  0  0999 V2000
    1.1303   -0.2933   -0.7510 C   0  0  0  0  0  0  0  0  0  0  0  0
    0.2866    0.4560   -0.0588 C   0  0  0  0  0  0  0  0  0  0  0  0
   -0.9719   -0.0331    0.5823 C   0  0  0  0  0  0  0  0  0  0  0  0
    2.0274    0.1230   -1.1916 H   0  0  0  0  0  0  0  0  0  0  0  0
    0.9532   -1.3530   -0.9023 H   0  0  0  0  0  0  0  0  0  0  0  0
    0.5065    1.5132    0.0659 H   0  0  0  0  0  0  0  0  0  0  0  0
   -0.9526    0.1426    1.6610 H   0  0  0  0  0  0  0  0  0  0  0  0
   -1.1182   -1.1002    0.4106 H   0  0  0  0  0  0  0  0  0  0  0  0
   -1.8412    0.5010    0.1901 H   0  0  0  0  0  0  0  0  0  0  0  0
  1  2  2  3
  1  4  1  0
  1  5  1  0
  2  3  1  0
  2  6  1  0
  3  7  1  0
  3  8  1  0
  3  9  1  0
M  END
>  <reaction>  (1) 
rxn_56

>  <mol_properties>  (1) 
{"2": {"label": "donator", "atom_type": "Cs"}, "6": {"label": "d_hydrogen", "atom_type": "H0"}}

>  <type>  (1) 
r1h

$$$$

     RDKit          3D

  2  1  0  0  0  0  0  0  0  0999 V2000
    0.0000    0.0000    0.6715 S   0  0  0  0  0  1  0  0  0  0  0  0
    0.0000    0.0000   -0.6715 H   0  0  0  0  0  0  0  0  0  0  0  0
  1  2  1  0
M  RAD  1   1   2
M  END
>  <reaction>  (2) 
rxn_56

>  <mol_properties>  (2) 
{"0": {"label": "acceptor", "atom_type": "S2s"}}

>  <type>  (2) 
r2

$$$$

     RDKit          3D

  3  2  0  0  0  0  0  0  0  0999 V2000
   -0.0007    0.6157    0.0000 S   0  0  0  0  0  0  0  0  0  0  0  0
   -0.9686   -0.3090    0.0000 H   0  0  0  0  0  0  0  0  0  0  0  0
    0.9693   -0.3067    0.0000 H   0  0  0  0  0  0  0  0  0  0  0  0
  1  2  1  0
  1  3  1  0
M  END
>  <reaction>  (3) 
rxn_56

>  <mol_properties>  (3) 
{"0": {"label": "a_hydrogen", "atom_type": "H0"}, "1": {"label": "acceptor", "atom_type": "S2s"}}

>  <type>  (3) 
r2h

$$$$

     RDKit          3D

 11  9  0  0  0  0  0  0  0  0999 V2000
    0.7920   -0.8216   -2.2480 C   0  0  0  0  0  0  0  0  0  0  0  0
    1.2419   -0.7752   -0.9869 C   0  0  0  0  0  0  0  0  0  0  0  0
    1.2317    0.4142   -0.1711 C   0  0  0  0  0  0  0  0  0  0  0  0
    0.7981   -1.7422   -2.8163 H   0  0  0  0  0  0  0  0  0  0  0  0
    0.4152    0.0660   -2.7438 H   0  0  0  0  0  0  0  0  0  0  0  0
    1.6010   -1.6882   -0.5227 H   0  0  0  0  0  0  0  0  0  0  0  0
    0.0834    0.3608    0.5861 H   0  0  0  0  0  0  0  0  0  0  0  0
    1.0732    1.3594   -0.6822 H   0  0  0  0  0  0  0  0  0  0  0  0
    1.9413    0.4616    0.6496 H   0  0  0  0  0  0  0  0  0  0  0  0
   -1.2792    0.3204    1.3419 S   0  0  0  0  0  1  0  0  0  0  0  0
   -1.7970   -0.3440    0.2993 H   0  0  0  0  0  0  0  0  0  0  0  0
  1  2  2  3
  1  4  1  0
  1  5  1  0
  2  3  1  0
  2  6  1  0
  3  7  1  0
  3  8  1  0
  3  9  1  0
 10 11  1  0
M  RAD  1  10   2
M  END
>  <reaction>  (4) 
rxn_56

>  <mol_properties>  (4) 
{"1": {"label": "*0", "atom_type": "Cd"}, "2": {"label": "*1", "atom_type": "Cs"}, "6": {"label": "*2", "atom_type": "H0"}, "9": {"label": "*3", "atom_type": "S2s"}, "10": {"label": "*4", "atom_type": "H0"}}

>  <type>  (4) 
ts

$$$$

     RDKit          3D

 11  9  0  0  0  0  0  0  0  0999 V2000
    1.0223   -0.8022   -2.4092 C   0  0  0  0  0  0  0  0  0  0  0  0
    1.0223   -0.8022   -1.0854 C   0  0  0  0  0  0  0  0  0  0  0  0
    1.0223    0.4200   -0.2249 C   0  0  0  0  0  0  0  0  0  0  0  0
    1.0223   -1.7249   -2.9756 H   0  0  0  0  0  0  0  0  0  0  0  0
    1.0223    0.1234   -2.9752 H   0  0  0  0  0  0  0  0  0  0  0  0
    1.0223   -1.7548   -0.5619 H   0  0  0  0  0  0  0  0  0  0  0  0
   -0.0309    0.4406    0.5566 H   0  0  0  0  0  0  0  0  0  0  0  0
    1.0223    1.3305   -0.8255 H   0  0  0  0  0  0  0  0  0  0  0  0
    1.9000    0.4371    0.4263 H   0  0  0  0  0  0  0  0  0  0  0  0
   -1.3208    0.4657    1.5136 S   0  0  0  0  0  1  0  0  0  0  0  0
   -0.5756    0.4749    2.6256 H   0  0  0  0  0  0  0  0  0  0  0  0
  1  2  2  3
  1  4  1  0
  1  5  1  0
  2  3  1  0
  2  6  1  0
  3  7  1  0
  3  8  1  0
  3  9  1  0
 10 11  1  0
M  RAD  1  10   2
M  END
>  <reaction>  (5) 
rxn_56

>  <mol_properties>  (5) 
{"1": {"label": "*0", "atom_type": "Cd"}, "2": {"label": "*1", "atom_type": "Cs"}, "6": {"label": "*2", "atom_type": "H0"}, "9": {"label": "*3", "atom_type": "S2s"}, "10": {"label": "*4", "atom_type": "H0"}}

>  <type>  (5) 
unop_1

>  <geom_source>  (5) 
Heuristics

$$$$

     RDKit          3D

 11  9  0  0  0  0  0  0  0  0999 V2000
    1.0332   -0.7841   -2.3950 C   0  0  0  0  0  0  0  0  0  0  0  0
    1.0332   -0.7841   -1.0712 C   0  0  0  0  0  0  0  0  0  0  0  0
    1.0332    0.4381   -0.2107 C   0  0  0  0  0  0  0  0  0  0  0  0
    1.0332   -1.7068   -2.9615 H   0  0  0  0  0  0  0  0  0  0  0  0
    1.0332    0.1415   -2.9610 H   0  0  0  0  0  0  0  0  0  0  0  0
    1.0332   -1.7367   -0.5477 H   0  0  0  0  0  0  0  0  0  0  0  0
   -0.0201    0.4586    0.5707 H   0  0  0  0  0  0  0  0  0  0  0  0
    1.0332    1.3485   -0.8113 H   0  0  0  0  0  0  0  0  0  0  0  0
    1.9109    0.4552    0.4405 H   0  0  0  0  0  0  0  0  0  0  0  0
   -1.3099    0.4838    1.5278 S   0  0  0  0  0  1  0  0  0  0  0  0
   -1.3735   -0.8521    1.5850 H   0  0  0  0  0  0  0  0  0  0  0  0
  1  2  2  3
  1  4  1  0
  1  5  1  0
  2  3  1  0
  2  6  1  0
  3  7  1  0
  3  8  1  0
  3  9  1  0
 10 11  1  0
M  RAD  1  10   2
M  END
>  <reaction>  (6) 
rxn_56

>  <mol_properties>  (6) 
{"1": {"label": "*0", "atom_type": "Cd"}, "2": {"label": "*1", "atom_type": "Cs"}, "6": {"label": "*2", "atom_type": "H0"}, "9": {"label": "*3", "atom_type": "S2s"}, "10": {"label": "*4", "atom_type": "H0"}}

>  <type>  (6) 
unop_2

>  <geom_source>  (6) 
Heuristics

$$$$

     RDKit          3D

 11  9  0  0  0  0  0  0  0  0999 V2000
    1.0237   -0.8111   -2.4071 C   0  0  0  0  0  0  0  0  0  0  0  0
    1.0237   -0.8111   -1.0834 C   0  0  0  0  0  0  0  0  0  0  0  0
    1.0237    0.4111   -0.2228 C   0  0  0  0  0  0  0  0  0  0  0  0
    1.0237   -1.7338   -2.9736 H   0  0  0  0  0  0  0  0  0  0  0  0
    1.0237    0.1145   -2.9731 H   0  0  0  0  0  0  0  0  0  0  0  0
    1.0237   -1.7638   -0.5598 H   0  0  0  0  0  0  0  0  0  0  0  0
   -0.0296    0.4316    0.5586 H   0  0  0  0  0  0  0  0  0  0  0  0
    1.0237    1.3215   -0.8234 H   0  0  0  0  0  0  0  0  0  0  0  0
    1.9014    0.4282    0.4284 H   0  0  0  0  0  0  0  0  0  0  0  0
   -1.3195    0.4568    1.5156 S   0  0  0  0  0  1  0  0  0  0  0  0
   -0.6750    1.1333    2.4743 H   0  0  0  0  0  0  0  0  0  0  0  0
  1  2  2  3
  1  4  1  0
  1  5  1  0
  2  3  1  0
  2  6  1  0
  3  7  1  0
  3  8  1  0
  3  9  1  0
 10 11  1  0
M  RAD  1  10   2
M  END
>  <reaction>  (7) 
rxn_56

>  <mol_properties>  (7) 
{"1": {"label": "*0", "atom_type": "Cd"}, "2": {"label": "*1", "atom_type": "Cs"}, "6": {"label": "*2", "atom_type": "H0"}, "9": {"label": "*3", "atom_type": "S2s"}, "10": {"label": "*4", "atom_type": "H0"}}

>  <type>  (7) 
unop_3

>  <geom_source>  (7) 
Heuristics

$$$$

     RDKit          3D

 11  9  0  0  0  0  0  0  0  0999 V2000
    1.0437   -0.8019   -2.3803 C   0  0  0  0  0  0  0  0  0  0  0  0
    1.0437   -0.8019   -1.0566 C   0  0  0  0  0  0  0  0  0  0  0  0
    1.0437    0.4202   -0.1961 C   0  0  0  0  0  0  0  0  0  0  0  0
    1.0437   -1.7247   -2.9468 H   0  0  0  0  0  0  0  0  0  0  0  0
    1.0437    0.1237   -2.9463 H   0  0  0  0  0  0  0  0  0  0  0  0
    1.0437   -1.7546   -0.5330 H   0  0  0  0  0  0  0  0  0  0  0  0
   -0.0095    0.4408    0.5854 H   0  0  0  0  0  0  0  0  0  0  0  0
    1.0437    1.3307   -0.7966 H   0  0  0  0  0  0  0  0  0  0  0  0
    1.9214    0.4374    0.4552 H   0  0  0  0  0  0  0  0  0  0  0  0
   -1.2994    0.4659    1.5424 S   0  0  0  0  0  1  0  0  0  0  0  0
   -2.1478    0.4588    0.5070 H   0  0  0  0  0  0  0  0  0  0  0  0
  1  2  2  3
  1  4  1  0
  1  5  1  0
  2  3  1  0
  2  6  1  0
  3  7  1  0
  3  8  1  0
  3  9  1  0
 10 11  1  0
M  RAD  1  10   2
M  END
>  <reaction>  (8) 
rxn_56

>  <mol_properties>  (8) 
{"1": {"label": "*0", "atom_type": "Cd"}, "2": {"label": "*1", "atom_type": "Cs"}, "6": {"label": "*2", "atom_type": "H0"}, "9": {"label": "*3", "atom_type": "S2s"}, "10": {"label": "*4", "atom_type": "H0"}}

>  <type>  (8) 
unop_4

>  <geom_source>  (8) 
Heuristics

$$$$

     RDKit          3D

 11  9  0  0  0  0  0  0  0  0999 V2000
    1.0275   -0.8177   -2.4017 C   0  0  0  0  0  0  0  0  0  0  0  0
    1.0275   -0.8177   -1.0780 C   0  0  0  0  0  0  0  0  0  0  0  0
    1.0275    0.4045   -0.2175 C   0  0  0  0  0  0  0  0  0  0  0  0
    1.0275   -1.7404   -2.9682 H   0  0  0  0  0  0  0  0  0  0  0  0
    1.0275    0.1079   -2.9677 H   0  0  0  0  0  0  0  0  0  0  0  0
    1.0275   -1.7703   -0.5545 H   0  0  0  0  0  0  0  0  0  0  0  0
   -0.0257    0.4251    0.5640 H   0  0  0  0  0  0  0  0  0  0  0  0
    1.0275    1.3150   -0.8181 H   0  0  0  0  0  0  0  0  0  0  0  0
    1.9053    0.4216    0.4338 H   0  0  0  0  0  0  0  0  0  0  0  0
   -1.3156    0.4502    1.5210 S   0  0  0  0  0  1  0  0  0  0  0  0
   -0.9584    1.6131    2.0797 H   0  0  0  0  0  0  0  0  0  0  0  0
  1  2  2  3
  1  4  1  0
  1  5  1  0
  2  3  1  0
  2  6  1  0
  3  7  1  0
  3  8  1  0
  3  9  1  0
 10 11  1  0
M  RAD  1  10   2
M  END
>  <reaction>  (9) 
rxn_56

>  <mol_properties>  (9) 
{"1": {"label": "*0", "atom_type": "Cd"}, "2": {"label": "*1", "atom_type": "Cs"}, "6": {"label": "*2", "atom_type": "H0"}, "9": {"label": "*3", "atom_type": "S2s"}, "10": {"label": "*4", "atom_type": "H0"}}

>  <type>  (9) 
unop_5

>  <geom_source>  (9) 
Heuristics

$$$$

     RDKit          3D

 11  9  0  0  0  0  0  0  0  0999 V2000
    1.0422   -0.8109   -2.3821 C   0  0  0  0  0  0  0  0  0  0  0  0
    1.0422   -0.8109   -1.0584 C   0  0  0  0  0  0  0  0  0  0  0  0
    1.0422    0.4112   -0.1979 C   0  0  0  0  0  0  0  0  0  0  0  0
    1.0422   -1.7337   -2.9486 H   0  0  0  0  0  0  0  0  0  0  0  0
    1.0422    0.1147   -2.9481 H   0  0  0  0  0  0  0  0  0  0  0  0
    1.0422   -1.7636   -0.5348 H   0  0  0  0  0  0  0  0  0  0  0  0
   -0.0110    0.4318    0.5836 H   0  0  0  0  0  0  0  0  0  0  0  0
    1.0422    1.3217   -0.7985 H   0  0  0  0  0  0  0  0  0  0  0  0
    1.9199    0.4284    0.4534 H   0  0  0  0  0  0  0  0  0  0  0  0
   -1.3009    0.4569    1.5406 S   0  0  0  0  0  1  0  0  0  0  0  0
   -2.0366    1.1193    0.6395 H   0  0  0  0  0  0  0  0  0  0  0  0
  1  2  2  3
  1  4  1  0
  1  5  1  0
  2  3  1  0
  2  6  1  0
  3  7  1  0
  3  8  1  0
  3  9  1  0
 10 11  1  0
M  RAD  1  10   2
M  END
>  <reaction>  (10) 
rxn_56

>  <mol_properties>  (10) 
{"1": {"label": "*0", "atom_type": "Cd"}, "2": {"label": "*1", "atom_type": "Cs"}, "6": {"label": "*2", "atom_type": "H0"}, "9": {"label": "*3", "atom_type": "S2s"}, "10": {"label": "*4", "atom_type": "H0"}}

>  <type>  (10) 
unop_6

>  <geom_source>  (10) 
Heuristics

$$$$

     RDKit          3D

 11  9  0  0  0  0  0  0  0  0999 V2000
    1.0382   -0.8175   -2.3873 C   0  0  0  0  0  0  0  0  0  0  0  0
    1.0382   -0.8175   -1.0636 C   0  0  0  0  0  0  0  0  0  0  0  0
    1.0382    0.4046   -0.2030 C   0  0  0  0  0  0  0  0  0  0  0  0
    1.0382   -1.7403   -2.9538 H   0  0  0  0  0  0  0  0  0  0  0  0
    1.0382    0.1081   -2.9533 H   0  0  0  0  0  0  0  0  0  0  0  0
    1.0382   -1.7702   -0.5400 H   0  0  0  0  0  0  0  0  0  0  0  0
   -0.0150    0.4252    0.5784 H   0  0  0  0  0  0  0  0  0  0  0  0
    1.0382    1.3151   -0.8036 H   0  0  0  0  0  0  0  0  0  0  0  0
    1.9160    0.4218    0.4482 H   0  0  0  0  0  0  0  0  0  0  0  0
   -1.3049    0.4503    1.5354 S   0  0  0  0  0  1  0  0  0  0  0  0
   -1.7445    1.6050    1.0204 H   0  0  0  0  0  0  0  0  0  0  0  0
  1  2  2  3
  1  4  1  0
  1  5  1  0
  2  3  1  0
  2  6  1  0
  3  7  1  0
  3  8  1  0
  3  9  1  0
 10 11  1  0
M  RAD  1  10   2
M  END
>  <reaction>  (11) 
rxn_56

>  <mol_properties>  (11) 
{"1": {"label": "*0", "atom_type": "Cd"}, "2": {"label": "*1", "atom_type": "Cs"}, "6": {"label": "*2", "atom_type": "H0"}, "9": {"label": "*3", "atom_type": "S2s"}, "10": {"label": "*4", "atom_type": "H0"}}

>  <type>  (11) 
unop_7

>  <geom_source>  (11) 
Heuristics

$$$$

     RDKit          3D

 11  9  0  0  0  0  0  0  0  0999 V2000
    1.0238   -0.7932   -2.4074 C   0  0  0  0  0  0  0  0  0  0  0  0
    1.0238   -0.7932   -1.0836 C   0  0  0  0  0  0  0  0  0  0  0  0
    1.0238    0.4290   -0.2231 C   0  0  0  0  0  0  0  0  0  0  0  0
    1.0238   -1.7159   -2.9738 H   0  0  0  0  0  0  0  0  0  0  0  0
    1.0238    0.1324   -2.9734 H   0  0  0  0  0  0  0  0  0  0  0  0
    1.0238   -1.7458   -0.5601 H   0  0  0  0  0  0  0  0  0  0  0  0
   -0.0294    0.4496    0.5584 H   0  0  0  0  0  0  0  0  0  0  0  0
    1.0238    1.3395   -0.8237 H   0  0  0  0  0  0  0  0  0  0  0  0
    1.9016    0.4461    0.4281 H   0  0  0  0  0  0  0  0  0  0  0  0
   -1.3193    0.4747    1.5154 S   0  0  0  0  0  1  0  0  0  0  0  0
   -0.6868   -0.1857    2.4930 H   0  0  0  0  0  0  0  0  0  0  0  0
  1  2  2  3
  1  4  1  0
  1  5  1  0
  2  3  1  0
  2  6  1  0
  3  7  1  0
  3  8  1  0
  3  9  1  0
 10 11  1  0
M  RAD  1  10   2
M  END
>  <reaction>  (12) 
rxn_56

>  <mol_properties>  (12) 
{"1": {"label": "*0", "atom_type": "Cd"}, "2": {"label": "*1", "atom_type": "Cs"}, "6": {"label": "*2", "atom_type": "H0"}, "9": {"label": "*3", "atom_type": "S2s"}, "10": {"label": "*4", "atom_type": "H0"}}

>  <type>  (12) 
unop_8

>  <geom_source>  (12) 
Heuristics

$$$$

     RDKit          3D

 11  9  0  0  0  0  0  0  0  0999 V2000
    1.0424   -0.7930   -2.3824 C   0  0  0  0  0  0  0  0  0  0  0  0
    1.0424   -0.7930   -1.0586 C   0  0  0  0  0  0  0  0  0  0  0  0
    1.0424    0.4292   -0.1981 C   0  0  0  0  0  0  0  0  0  0  0  0
    1.0424   -1.7157   -2.9489 H   0  0  0  0  0  0  0  0  0  0  0  0
    1.0424    0.1326   -2.9484 H   0  0  0  0  0  0  0  0  0  0  0  0
    1.0424   -1.7456   -0.5351 H   0  0  0  0  0  0  0  0  0  0  0  0
   -0.0109    0.4497    0.5833 H   0  0  0  0  0  0  0  0  0  0  0  0
    1.0424    1.3397   -0.7987 H   0  0  0  0  0  0  0  0  0  0  0  0
    1.9201    0.4463    0.4531 H   0  0  0  0  0  0  0  0  0  0  0  0
   -1.3008    0.4749    1.5404 S   0  0  0  0  0  1  0  0  0  0  0  0
   -2.0484   -0.1996    0.6583 H   0  0  0  0  0  0  0  0  0  0  0  0
  1  2  2  3
  1  4  1  0
  1  5  1  0
  2  3  1  0
  2  6  1  0
  3  7  1  0
  3  8  1  0
  3  9  1  0
 10 11  1  0
M  RAD  1  10   2
M  END
>  <reaction>  (13) 
rxn_56

>  <mol_properties>  (13) 
{"1": {"label": "*0", "atom_type": "Cd"}, "2": {"label": "*1", "atom_type": "Cs"}, "6": {"label": "*2", "atom_type": "H0"}, "9": {"label": "*3", "atom_type": "S2s"}, "10": {"label": "*4", "atom_type": "H0"}}

>  <type>  (13) 
unop_9

>  <geom_source>  (13) 
Heuristics

$$$$

     RDKit          3D

 11  9  0  0  0  0  0  0  0  0999 V2000
    1.0278   -0.7865   -2.4022 C   0  0  0  0  0  0  0  0  0  0  0  0
    1.0278   -0.7865   -1.0784 C   0  0  0  0  0  0  0  0  0  0  0  0
    1.0278    0.4356   -0.2179 C   0  0  0  0  0  0  0  0  0  0  0  0
    1.0278   -1.7093   -2.9687 H   0  0  0  0  0  0  0  0  0  0  0  0
    1.0278    0.1390   -2.9682 H   0  0  0  0  0  0  0  0  0  0  0  0
    1.0278   -1.7392   -0.5549 H   0  0  0  0  0  0  0  0  0  0  0  0
   -0.0254    0.4562    0.5636 H   0  0  0  0  0  0  0  0  0  0  0  0
    1.0278    1.3461   -0.8185 H   0  0  0  0  0  0  0  0  0  0  0  0
    1.9055    0.4527    0.4333 H   0  0  0  0  0  0  0  0  0  0  0  0
   -1.3153    0.4813    1.5206 S   0  0  0  0  0  1  0  0  0  0  0  0
   -0.9789   -0.6714    2.1122 H   0  0  0  0  0  0  0  0  0  0  0  0
  1  2  2  3
  1  4  1  0
  1  5  1  0
  2  3  1  0
  2  6  1  0
  3  7  1  0
  3  8  1  0
  3  9  1  0
 10 11  1  0
M  RAD  1  10   2
M  END
>  <reaction>  (14) 
rxn_56

>  <mol_properties>  (14) 
{"1": {"label": "*0", "atom_type": "Cd"}, "2": {"label": "*1", "atom_type": "Cs"}, "6": {"label": "*2", "atom_type": "H0"}, "9": {"label": "*3", "atom_type": "S2s"}, "10": {"label": "*4", "atom_type": "H0"}}

>  <type>  (14) 
unop_10

>  <geom_source>  (14) 
Heuristics

$$$$

     RDKit          3D

 11  9  0  0  0  0  0  0  0  0999 V2000
    1.0329   -0.8200   -2.3945 C   0  0  0  0  0  0  0  0  0  0  0  0
    1.0329   -0.8200   -1.0707 C   0  0  0  0  0  0  0  0  0  0  0  0
    1.0329    0.4022   -0.2102 C   0  0  0  0  0  0  0  0  0  0  0  0
    1.0329   -1.7427   -2.9610 H   0  0  0  0  0  0  0  0  0  0  0  0
    1.0329    0.1056   -2.9605 H   0  0  0  0  0  0  0  0  0  0  0  0
    1.0329   -1.7726   -0.5472 H   0  0  0  0  0  0  0  0  0  0  0  0
   -0.0204    0.4227    0.5712 H   0  0  0  0  0  0  0  0  0  0  0  0
    1.0329    1.3126   -0.8108 H   0  0  0  0  0  0  0  0  0  0  0  0
    1.9106    0.4193    0.4410 H   0  0  0  0  0  0  0  0  0  0  0  0
   -1.3103    0.4479    1.5283 S   0  0  0  0  0  1  0  0  0  0  0  0
   -1.3499    1.7858    1.5475 H   0  0  0  0  0  0  0  0  0  0  0  0
  1  2  2  3
  1  4  1  0
  1  5  1  0
  2  3  1  0
  2  6  1  0
  3  7  1  0
  3  8  1  0
  3  9  1  0
 10 11  1  0
M  RAD  1  10   2
M  END
>  <reaction>  (15) 
rxn_56

>  <mol_properties>  (15) 
{"1": {"label": "*0", "atom_type": "Cd"}, "2": {"label": "*1", "atom_type": "Cs"}, "6": {"label": "*2", "atom_type": "H0"}, "9": {"label": "*3", "atom_type": "S2s"}, "10": {"label": "*4", "atom_type": "H0"}}

>  <type>  (15) 
unop_11

>  <geom_source>  (15) 
Heuristics

$$$$

     RDKit          3D

 11  9  0  0  0  0  0  0  0  0999 V2000
    1.0385   -0.7864   -2.3878 C   0  0  0  0  0  0  0  0  0  0  0  0
    1.0385   -0.7864   -1.0640 C   0  0  0  0  0  0  0  0  0  0  0  0
    1.0385    0.4357   -0.2035 C   0  0  0  0  0  0  0  0  0  0  0  0
    1.0385   -1.7092   -2.9542 H   0  0  0  0  0  0  0  0  0  0  0  0
    1.0385    0.1392   -2.9538 H   0  0  0  0  0  0  0  0  0  0  0  0
    1.0385   -1.7391   -0.5405 H   0  0  0  0  0  0  0  0  0  0  0  0
   -0.0147    0.4563    0.5780 H   0  0  0  0  0  0  0  0  0  0  0  0
    1.0385    1.3462   -0.8041 H   0  0  0  0  0  0  0  0  0  0  0  0
    1.9162    0.4529    0.4477 H   0  0  0  0  0  0  0  0  0  0  0  0
   -1.3046    0.4814    1.5350 S   0  0  0  0  0  1  0  0  0  0  0  0
   -1.7649   -0.6794    1.0529 H   0  0  0  0  0  0  0  0  0  0  0  0
  1  2  2  3
  1  4  1  0
  1  5  1  0
  2  3  1  0
  2  6  1  0
  3  7  1  0
  3  8  1  0
  3  9  1  0
 10 11  1  0
M  RAD  1  10   2
M  END
>  <reaction>  (16) 
rxn_56

>  <mol_properties>  (16) 
{"1": {"label": "*0", "atom_type": "Cd"}, "2": {"label": "*1", "atom_type": "Cs"}, "6": {"label": "*2", "atom_type": "H0"}, "9": {"label": "*3", "atom_type": "S2s"}, "10": {"label": "*4", "atom_type": "H0"}}

>  <type>  (16) 
unop_12

>  <geom_source>  (16) 
Heuristics

$$$$
