
     RDKit          3D

  7  6  0  0  0  0  0  0  0  0999 V2000
    1.6964   -0.0938    0.0583 C   0  0  0  0  0  0  0  0  0  0  0  0
    0.5019   -0.0278    0.0173 C   0  0  0  0  0  0  0  0  0  0  0  0
   -0.9505    0.0525   -0.0327 C   0  0  0  0  0  0  0  0  0  0  0  0
    2.7574   -0.1524    0.0947 H   0  0  0  0  0  0  0  0  0  0  0  0
   -1.2692    0.9972   -0.4754 H   0  0  0  0  0  0  0  0  0  0  0  0
   -1.3749   -0.0147    0.9700 H   0  0  0  0  0  0  0  0  0  0  0  0
   -1.3610   -0.7611   -0.6323 H   0  0  0  0  0  0  0  0  0  0  0  0
  1  2  3  0
  1  4  1  0
  2  3  1  0
  3  5  1  0
  3  6  1  0
  3  7  1  0
M  END
>  <reaction>  (1) 
rxn_1236

>  <mol_properties>  (1) 
{"2": {"label": "donator", "atom_type": "Cs"}, "4": {"label": "d_hydrogen", "atom_type": "H0"}}

>  <type>  (1) 
r1h

$$$$

     RDKit          3D

  8  7  0  0  0  0  0  0  0  0999 V2000
   -1.0607    0.1793   -0.1423 C   0  0  0  0  0  0  0  0  0  0  0  0
    0.2796    0.0327    0.4820 C   0  0  0  0  0  3  0  0  0  0  0  0
    0.8817   -1.4663    1.0791 S   0  0  0  0  0  0  0  0  0  0  0  0
   -1.3043    1.2328   -0.2850 H   0  0  0  0  0  0  0  0  0  0  0  0
   -1.8444   -0.2641    0.4799 H   0  0  0  0  0  0  0  0  0  0  0  0
   -1.1164   -0.3100   -1.1237 H   0  0  0  0  0  0  0  0  0  0  0  0
    1.0449    0.7826    0.3391 H   0  0  0  0  0  0  0  0  0  0  0  0
   -0.2993   -2.0726    1.2718 H   0  0  0  0  0  0  0  0  0  0  0  0
  1  2  1  0
  1  4  1  0
  1  5  1  0
  1  6  1  0
  2  3  1  0
  2  7  1  0
  3  8  1  0
M  RAD  1   2   2
M  END
>  <reaction>  (2) 
rxn_1236

>  <mol_properties>  (2) 
{"1": {"label": "acceptor", "atom_type": "Cs"}}

>  <type>  (2) 
r2

$$$$

     RDKit          3D

  9  8  0  0  0  0  0  0  0  0999 V2000
   -0.8818   -0.3578    0.1297 C   0  0  0  0  0  0  0  0  0  0  0  0
    0.6153   -0.3021   -0.1188 C   0  0  0  0  0  0  0  0  0  0  0  0
    1.5354   -1.7170    0.5545 S   0  0  0  0  0  0  0  0  0  0  0  0
   -1.1018   -0.3317    1.1984 H   0  0  0  0  0  0  0  0  0  0  0  0
   -1.3114   -1.2723   -0.2799 H   0  0  0  0  0  0  0  0  0  0  0  0
   -1.3767    0.4976   -0.3363 H   0  0  0  0  0  0  0  0  0  0  0  0
    1.0467    0.6194    0.2718 H   0  0  0  0  0  0  0  0  0  0  0  0
    0.8295   -0.3275   -1.1882 H   0  0  0  0  0  0  0  0  0  0  0  0
    1.2306   -1.5077    1.8423 H   0  0  0  0  0  0  0  0  0  0  0  0
  1  2  1  0
  1  4  1  0
  1  5  1  0
  1  6  1  0
  2  3  1  0
  2  7  1  0
  2  8  1  0
  3  9  1  0
M  END
>  <reaction>  (3) 
rxn_1236

>  <mol_properties>  (3) 
{"0": {"label": "a_hydrogen", "atom_type": "H0"}, "2": {"label": "acceptor", "atom_type": "Cs"}}

>  <type>  (3) 
r2h

$$$$

     RDKit          3D

 15 13  0  0  0  0  0  0  0  0999 V2000
    0.3284   -1.5654   -2.5180 C   0  0  0  0  0  0  0  0  0  0  0  0
   -0.3049   -1.6053   -1.4946 C   0  0  0  0  0  0  0  0  0  0  0  0
   -1.0139   -1.5684   -0.2647 C   0  0  0  0  0  3  0  0  0  0  0  0
    0.8716   -1.5666   -3.4320 H   0  0  0  0  0  0  0  0  0  0  0  0
   -0.6296   -0.4194    0.3352 H   0  0  0  0  0  0  0  0  0  0  0  0
   -0.7115   -2.3202    0.4601 H   0  0  0  0  0  0  0  0  0  0  0  0
   -2.0929   -1.4753   -0.3600 H   0  0  0  0  0  0  0  0  0  0  0  0
   -0.6688    1.7382   -0.2878 C   0  0  0  0  0  0  0  0  0  0  0  0
   -0.1610    0.7687    0.7458 C   0  0  0  0  0  0  0  0  0  0  0  0
    1.5919    0.5721    0.9052 S   0  0  0  0  0  0  0  0  0  0  0  0
   -1.7607    1.7445   -0.2976 H   0  0  0  0  0  0  0  0  0  0  0  0
   -0.3239    1.4521   -1.2839 H   0  0  0  0  0  0  0  0  0  0  0  0
   -0.3200    2.7539   -0.0860 H   0  0  0  0  0  0  0  0  0  0  0  0
   -0.5855    0.8967    1.7404 H   0  0  0  0  0  0  0  0  0  0  0  0
    1.8361    0.3437   -0.3943 H   0  0  0  0  0  0  0  0  0  0  0  0
  1  2  3  0
  1  4  1  0
  2  3  1  0
  3  6  1  0
  3  7  1  0
  5  9  1  0
  8  9  1  0
  8 11  1  0
  8 12  1  0
  8 13  1  0
  9 10  1  0
  9 14  1  0
 10 15  1  0
M  RAD  1   3   2
M  END
>  <reaction>  (4) 
rxn_1236

>  <mol_properties>  (4) 
{"1": {"label": "*4", "atom_type": "Ct"}, "2": {"label": "*3", "atom_type": "Cs"}, "4": {"label": "*2", "atom_type": "H0"}, "8": {"label": "*1", "atom_type": "Cs"}, "9": {"label": "*0", "atom_type": "S2s"}}

>  <type>  (4) 
ts

$$$$

     RDKit          3D

 15 13  0  0  0  0  0  0  0  0999 V2000
   -0.2720   -1.9947   -2.6533 C   0  0  0  0  0  0  0  0  0  0  0  0
   -0.2720   -1.9947   -1.4563 C   0  0  0  0  0  0  0  0  0  0  0  0
   -0.2720   -1.9947   -0.0008 C   0  0  0  0  0  3  0  0  0  0  0  0
   -0.2720   -1.9947   -3.7166 H   0  0  0  0  0  0  0  0  0  0  0  0
   -0.1605   -0.7752    0.4616 H   0  0  0  0  0  0  0  0  0  0  0  0
    0.5617   -2.5833    0.3845 H   0  0  0  0  0  0  0  0  0  0  0  0
   -1.1986   -2.4224    0.3845 H   0  0  0  0  0  0  0  0  0  0  0  0
   -1.2457    0.8188    1.7801 C   0  0  0  0  0  0  0  0  0  0  0  0
   -0.0492    0.4432    0.9236 C   0  0  0  0  0  0  0  0  0  0  0  0
    0.9525    1.8590    0.3811 S   0  0  0  0  0  0  0  0  0  0  0  0
   -1.7771   -0.0787    2.1055 H   0  0  0  0  0  0  0  0  0  0  0  0
   -1.9473    1.4400    1.2205 H   0  0  0  0  0  0  0  0  0  0  0  0
   -0.9334    1.3763    2.6635 H   0  0  0  0  0  0  0  0  0  0  0  0
    0.6482   -0.1782    1.4873 H   0  0  0  0  0  0  0  0  0  0  0  0
   -0.0049    2.4688   -0.3308 H   0  0  0  0  0  0  0  0  0  0  0  0
  1  2  3  0
  1  4  1  0
  2  3  1  0
  3  6  1  0
  3  7  1  0
  5  9  1  0
  8  9  1  0
  8 11  1  0
  8 12  1  0
  8 13  1  0
  9 10  1  0
  9 14  1  0
 10 15  1  0
M  RAD  1   3   2
M  END
>  <reaction>  (5) 
rxn_1236

>  <mol_properties>  (5) 
{"1": {"label": "*4", "atom_type": "Ct"}, "2": {"label": "*3", "atom_type": "Cs"}, "4": {"label": "*2", "atom_type": "H0"}, "8": {"label": "*1", "atom_type": "Cs"}, "9": {"label": "*0", "atom_type": "S2s"}}

>  <type>  (5) 
unop_1

>  <geom_source>  (5) 
Heuristics

$$$$

     RDKit          3D

 15 13  0  0  0  0  0  0  0  0999 V2000
   -0.5369   -1.8177   -2.8080 C   0  0  0  0  0  0  0  0  0  0  0  0
   -0.5369   -1.8177   -1.6110 C   0  0  0  0  0  0  0  0  0  0  0  0
   -0.5369   -1.8177   -0.1556 C   0  0  0  0  0  3  0  0  0  0  0  0
   -0.5369   -1.8177   -3.8713 H   0  0  0  0  0  0  0  0  0  0  0  0
   -0.4254   -0.5981    0.3068 H   0  0  0  0  0  0  0  0  0  0  0  0
    0.2968   -2.4062    0.2298 H   0  0  0  0  0  0  0  0  0  0  0  0
   -1.4635   -2.2454    0.2298 H   0  0  0  0  0  0  0  0  0  0  0  0
   -0.9325    1.6288   -0.1834 C   0  0  0  0  0  0  0  0  0  0  0  0
   -0.3141    0.6203    0.7688 C   0  0  0  0  0  0  0  0  0  0  0  0
    1.2128    1.1921    1.5710 S   0  0  0  0  0  0  0  0  0  0  0  0
   -1.8660    1.2392   -0.5963 H   0  0  0  0  0  0  0  0  0  0  0  0
   -0.2605    1.8428   -1.0164 H   0  0  0  0  0  0  0  0  0  0  0  0
   -1.1448    2.5684    0.3274 H   0  0  0  0  0  0  0  0  0  0  0  0
   -0.9901    0.4093    1.5987 H   0  0  0  0  0  0  0  0  0  0  0  0
    1.9361    1.3379    0.4526 H   0  0  0  0  0  0  0  0  0  0  0  0
  1  2  3  0
  1  4  1  0
  2  3  1  0
  3  6  1  0
  3  7  1  0
  5  9  1  0
  8  9  1  0
  8 11  1  0
  8 12  1  0
  8 13  1  0
  9 10  1  0
  9 14  1  0
 10 15  1  0
M  RAD  1   3   2
M  END
>  <reaction>  (6) 
rxn_1236

>  <mol_properties>  (6) 
{"1": {"label": "*4", "atom_type": "Ct"}, "2": {"label": "*3", "atom_type": "Cs"}, "4": {"label": "*2", "atom_type": "H0"}, "8": {"label": "*1", "atom_type": "Cs"}, "9": {"label": "*0", "atom_type": "S2s"}}

>  <type>  (6) 
unop_2

>  <geom_source>  (6) 
Heuristics

$$$$

     RDKit          3D

 15 13  0  0  0  0  0  0  0  0999 V2000
   -0.0551   -1.9983   -2.5943 C   0  0  0  0  0  0  0  0  0  0  0  0
   -0.0551   -1.9983   -1.3973 C   0  0  0  0  0  0  0  0  0  0  0  0
   -0.0551   -1.9983    0.0581 C   0  0  0  0  0  3  0  0  0  0  0  0
   -0.0551   -1.9983   -3.6576 H   0  0  0  0  0  0  0  0  0  0  0  0
    0.0563   -0.7787    0.5206 H   0  0  0  0  0  0  0  0  0  0  0  0
    0.7786   -2.5869    0.4435 H   0  0  0  0  0  0  0  0  0  0  0  0
   -0.9817   -2.4260    0.4435 H   0  0  0  0  0  0  0  0  0  0  0  0
   -0.5296    0.5858    2.3237 C   0  0  0  0  0  0  0  0  0  0  0  0
    0.1677    0.4396    0.9826 C   0  0  0  0  0  0  0  0  0  0  0  0
    0.2665    1.9793    0.0226 S   0  0  0  0  0  0  0  0  0  0  0  0
   -0.5163   -0.3634    2.8647 H   0  0  0  0  0  0  0  0  0  0  0  0
   -1.5717    0.8825    2.1921 H   0  0  0  0  0  0  0  0  0  0  0  0
   -0.0396    1.3418    2.9378 H   0  0  0  0  0  0  0  0  0  0  0  0
    1.2082    0.1421    1.1199 H   0  0  0  0  0  0  0  0  0  0  0  0
   -1.0530    2.1677   -0.1138 H   0  0  0  0  0  0  0  0  0  0  0  0
  1  2  3  0
  1  4  1  0
  2  3  1  0
  3  6  1  0
  3  7  1  0
  5  9  1  0
  8  9  1  0
  8 11  1  0
  8 12  1  0
  8 13  1  0
  9 10  1  0
  9 14  1  0
 10 15  1  0
M  RAD  1   3   2
M  END
>  <reaction>  (7) 
rxn_1236

>  <mol_properties>  (7) 
{"1": {"label": "*4", "atom_type": "Ct"}, "2": {"label": "*3", "atom_type": "Cs"}, "4": {"label": "*2", "atom_type": "H0"}, "8": {"label": "*1", "atom_type": "Cs"}, "9": {"label": "*0", "atom_type": "S2s"}}

>  <type>  (7) 
unop_3

>  <geom_source>  (7) 
Heuristics

$$$$

     RDKit          3D

 15 13  0  0  0  0  0  0  0  0999 V2000
   -0.3805   -1.2976   -3.1456 C   0  0  0  0  0  0  0  0  0  0  0  0
   -0.3805   -1.2976   -1.9485 C   0  0  0  0  0  0  0  0  0  0  0  0
   -0.3805   -1.2976   -0.4931 C   0  0  0  0  0  3  0  0  0  0  0  0
   -0.3805   -1.2976   -4.2088 H   0  0  0  0  0  0  0  0  0  0  0  0
   -0.2690   -0.0780   -0.0307 H   0  0  0  0  0  0  0  0  0  0  0  0
    0.4532   -1.8861   -0.1077 H   0  0  0  0  0  0  0  0  0  0  0  0
   -1.3071   -1.7253   -0.1077 H   0  0  0  0  0  0  0  0  0  0  0  0
    1.1326    1.7907   -0.0363 C   0  0  0  0  0  0  0  0  0  0  0  0
   -0.1577    1.1404    0.4313 C   0  0  0  0  0  0  0  0  0  0  0  0
   -0.0268    0.2929    2.0333 S   0  0  0  0  0  0  0  0  0  0  0  0
    0.9730    2.3163   -0.9807 H   0  0  0  0  0  0  0  0  0  0  0  0
    1.9116    1.0431   -0.1956 H   0  0  0  0  0  0  0  0  0  0  0  0
    1.4985    2.5058    0.7010 H   0  0  0  0  0  0  0  0  0  0  0  0
   -0.9329    1.8918    0.5880 H   0  0  0  0  0  0  0  0  0  0  0  0
    0.8874   -0.6129    1.6608 H   0  0  0  0  0  0  0  0  0  0  0  0
  1  2  3  0
  1  4  1  0
  2  3  1  0
  3  6  1  0
  3  7  1  0
  5  9  1  0
  8  9  1  0
  8 11  1  0
  8 12  1  0
  8 13  1  0
  9 10  1  0
  9 14  1  0
 10 15  1  0
M  RAD  1   3   2
M  END
>  <reaction>  (8) 
rxn_1236

>  <mol_properties>  (8) 
{"1": {"label": "*4", "atom_type": "Ct"}, "2": {"label": "*3", "atom_type": "Cs"}, "4": {"label": "*2", "atom_type": "H0"}, "8": {"label": "*1", "atom_type": "Cs"}, "9": {"label": "*0", "atom_type": "S2s"}}

>  <type>  (8) 
unop_4

>  <geom_source>  (8) 
Heuristics

$$$$

     RDKit          3D

 15 13  0  0  0  0  0  0  0  0999 V2000
    0.2863   -1.8126   -2.6904 C   0  0  0  0  0  0  0  0  0  0  0  0
    0.2863   -1.8126   -1.4934 C   0  0  0  0  0  0  0  0  0  0  0  0
    0.2863   -1.8126   -0.0380 C   0  0  0  0  0  3  0  0  0  0  0  0
    0.2863   -1.8126   -3.7537 H   0  0  0  0  0  0  0  0  0  0  0  0
    0.3977   -0.5930    0.4244 H   0  0  0  0  0  0  0  0  0  0  0  0
    1.1200   -2.4012    0.3474 H   0  0  0  0  0  0  0  0  0  0  0  0
   -0.6403   -2.2403    0.3474 H   0  0  0  0  0  0  0  0  0  0  0  0
    0.5105    0.6404    2.4050 C   0  0  0  0  0  0  0  0  0  0  0  0
    0.5091    0.6253    0.8864 C   0  0  0  0  0  0  0  0  0  0  0  0
   -0.7778    1.6631    0.1323 S   0  0  0  0  0  0  0  0  0  0  0  0
    1.3322    0.0322    2.7906 H   0  0  0  0  0  0  0  0  0  0  0  0
   -0.4221    0.2342    2.8007 H   0  0  0  0  0  0  0  0  0  0  0  0
    0.6228    1.6561    2.7850 H   0  0  0  0  0  0  0  0  0  0  0  0
    1.4436    1.0313    0.4964 H   0  0  0  0  0  0  0  0  0  0  0  0
   -1.8300    1.0097    0.6433 H   0  0  0  0  0  0  0  0  0  0  0  0
  1  2  3  0
  1  4  1  0
  2  3  1  0
  3  6  1  0
  3  7  1  0
  5  9  1  0
  8  9  1  0
  8 11  1  0
  8 12  1  0
  8 13  1  0
  9 10  1  0
  9 14  1  0
 10 15  1  0
M  RAD  1   3   2
M  END
>  <reaction>  (9) 
rxn_1236

>  <mol_properties>  (9) 
{"1": {"label": "*4", "atom_type": "Ct"}, "2": {"label": "*3", "atom_type": "Cs"}, "4": {"label": "*2", "atom_type": "H0"}, "8": {"label": "*1", "atom_type": "Cs"}, "9": {"label": "*0", "atom_type": "S2s"}}

>  <type>  (9) 
unop_5

>  <geom_source>  (9) 
Heuristics

$$$$

     RDKit          3D

 15 13  0  0  0  0  0  0  0  0999 V2000
   -0.1284   -1.2348   -3.1823 C   0  0  0  0  0  0  0  0  0  0  0  0
   -0.1284   -1.2348   -1.9853 C   0  0  0  0  0  0  0  0  0  0  0  0
   -0.1284   -1.2348   -0.5299 C   0  0  0  0  0  3  0  0  0  0  0  0
   -0.1284   -1.2348   -4.2456 H   0  0  0  0  0  0  0  0  0  0  0  0
   -0.0169   -0.0152   -0.0674 H   0  0  0  0  0  0  0  0  0  0  0  0
    0.7053   -1.8234   -0.1445 H   0  0  0  0  0  0  0  0  0  0  0  0
   -1.0550   -1.6625   -0.1445 H   0  0  0  0  0  0  0  0  0  0  0  0
    1.5508    1.5873    0.5890 C   0  0  0  0  0  0  0  0  0  0  0  0
    0.0944    1.2032    0.3945 C   0  0  0  0  0  0  0  0  0  0  0  0
   -0.6283    0.2914    1.7903 S   0  0  0  0  0  0  0  0  0  0  0  0
    1.9084    2.1673   -0.2650 H   0  0  0  0  0  0  0  0  0  0  0  0
    2.1802    0.7002    0.6795 H   0  0  0  0  0  0  0  0  0  0  0  0
    1.6795    2.1845    1.4921 H   0  0  0  0  0  0  0  0  0  0  0  0
   -0.5298    2.0932    0.3037 H   0  0  0  0  0  0  0  0  0  0  0  0
    0.1856   -0.7710    1.7260 H   0  0  0  0  0  0  0  0  0  0  0  0
  1  2  3  0
  1  4  1  0
  2  3  1  0
  3  6  1  0
  3  7  1  0
  5  9  1  0
  8  9  1  0
  8 11  1  0
  8 12  1  0
  8 13  1  0
  9 10  1  0
  9 14  1  0
 10 15  1  0
M  RAD  1   3   2
M  END
>  <reaction>  (10) 
rxn_1236

>  <mol_properties>  (10) 
{"1": {"label": "*4", "atom_type": "Ct"}, "2": {"label": "*3", "atom_type": "Cs"}, "4": {"label": "*2", "atom_type": "H0"}, "8": {"label": "*1", "atom_type": "Cs"}, "9": {"label": "*0", "atom_type": "S2s"}}

>  <type>  (10) 
unop_6

>  <geom_source>  (10) 
Heuristics

$$$$

     RDKit          3D

 15 13  0  0  0  0  0  0  0  0999 V2000
    0.1380   -1.2778   -3.1211 C   0  0  0  0  0  0  0  0  0  0  0  0
    0.1380   -1.2778   -1.9240 C   0  0  0  0  0  0  0  0  0  0  0  0
    0.1380   -1.2778   -0.4686 C   0  0  0  0  0  3  0  0  0  0  0  0
    0.1380   -1.2778   -4.1844 H   0  0  0  0  0  0  0  0  0  0  0  0
    0.2494   -0.0583   -0.0062 H   0  0  0  0  0  0  0  0  0  0  0  0
    0.9717   -1.8664   -0.0833 H   0  0  0  0  0  0  0  0  0  0  0  0
   -0.7886   -1.7055   -0.0833 H   0  0  0  0  0  0  0  0  0  0  0  0
    1.6055    1.3126    1.3123 C   0  0  0  0  0  0  0  0  0  0  0  0
    0.3608    1.1601    0.4558 C   0  0  0  0  0  0  0  0  0  0  0  0
   -1.0772    0.4924    1.3435 S   0  0  0  0  0  0  0  0  0  0  0  0
    2.4160    1.7569    0.7297 H   0  0  0  0  0  0  0  0  0  0  0  0
    1.9482    0.3436    1.6796 H   0  0  0  0  0  0  0  0  0  0  0  0
    1.4096    1.9492    2.1754 H   0  0  0  0  0  0  0  0  0  0  0  0
    0.0232    2.1312    0.0906 H   0  0  0  0  0  0  0  0  0  0  0  0
   -0.5349   -0.6915    1.6589 H   0  0  0  0  0  0  0  0  0  0  0  0
  1  2  3  0
  1  4  1  0
  2  3  1  0
  3  6  1  0
  3  7  1  0
  5  9  1  0
  8  9  1  0
  8 11  1  0
  8 12  1  0
  8 13  1  0
  9 10  1  0
  9 14  1  0
 10 15  1  0
M  RAD  1   3   2
M  END
>  <reaction>  (11) 
rxn_1236

>  <mol_properties>  (11) 
{"1": {"label": "*4", "atom_type": "Ct"}, "2": {"label": "*3", "atom_type": "Cs"}, "4": {"label": "*2", "atom_type": "H0"}, "8": {"label": "*1", "atom_type": "Cs"}, "9": {"label": "*0", "atom_type": "S2s"}}

>  <type>  (11) 
unop_7

>  <geom_source>  (11) 
Heuristics

$$$$

     RDKit          3D

 15 13  0  0  0  0  0  0  0  0999 V2000
   -0.3714   -1.9593   -2.7193 C   0  0  0  0  0  0  0  0  0  0  0  0
   -0.3714   -1.9593   -1.5223 C   0  0  0  0  0  0  0  0  0  0  0  0
   -0.3714   -1.9593   -0.0668 C   0  0  0  0  0  3  0  0  0  0  0  0
   -0.3714   -1.9593   -3.7826 H   0  0  0  0  0  0  0  0  0  0  0  0
   -0.2599   -0.7397    0.3956 H   0  0  0  0  0  0  0  0  0  0  0  0
    0.4623   -2.5479    0.3185 H   0  0  0  0  0  0  0  0  0  0  0  0
   -1.2980   -2.3870    0.3185 H   0  0  0  0  0  0  0  0  0  0  0  0
   -1.5112    1.1204    1.0521 C   0  0  0  0  0  0  0  0  0  0  0  0
   -0.1486    0.4787    0.8576 C   0  0  0  0  0  0  0  0  0  0  0  0
    1.2341    1.6575    0.8376 S   0  0  0  0  0  0  0  0  0  0  0  0
   -2.2893    0.3547    1.0968 H   0  0  0  0  0  0  0  0  0  0  0  0
   -1.7484    1.7921    0.2251 H   0  0  0  0  0  0  0  0  0  0  0  0
   -1.5413    1.6998    1.9751 H   0  0  0  0  0  0  0  0  0  0  0  0
    0.0830   -0.1922    1.6862 H   0  0  0  0  0  0  0  0  0  0  0  0
    0.8424    2.3451   -0.2435 H   0  0  0  0  0  0  0  0  0  0  0  0
  1  2  3  0
  1  4  1  0
  2  3  1  0
  3  6  1  0
  3  7  1  0
  5  9  1  0
  8  9  1  0
  8 11  1  0
  8 12  1  0
  8 13  1  0
  9 10  1  0
  9 14  1  0
 10 15  1  0
M  RAD  1   3   2
M  END
>  <reaction>  (12) 
rxn_1236

>  <mol_properties>  (12) 
{"1": {"label": "*4", "atom_type": "Ct"}, "2": {"label": "*3", "atom_type": "Cs"}, "4": {"label": "*2", "atom_type": "H0"}, "8": {"label": "*1", "atom_type": "Cs"}, "9": {"label": "*0", "atom_type": "S2s"}}

>  <type>  (12) 
unop_8

>  <geom_source>  (12) 
Heuristics

$$$$

     RDKit          3D

 15 13  0  0  0  0  0  0  0  0999 V2000
   -0.5568   -1.4508   -3.0344 C   0  0  0  0  0  0  0  0  0  0  0  0
   -0.5568   -1.4508   -1.8374 C   0  0  0  0  0  0  0  0  0  0  0  0
   -0.5568   -1.4508   -0.3820 C   0  0  0  0  0  3  0  0  0  0  0  0
   -0.5568   -1.4508   -4.0977 H   0  0  0  0  0  0  0  0  0  0  0  0
   -0.4454   -0.2312    0.0805 H   0  0  0  0  0  0  0  0  0  0  0  0
    0.2769   -2.0393    0.0034 H   0  0  0  0  0  0  0  0  0  0  0  0
   -1.4834   -1.8785    0.0034 H   0  0  0  0  0  0  0  0  0  0  0  0
    0.4570    1.8669   -0.4098 C   0  0  0  0  0  0  0  0  0  0  0  0
   -0.3340    0.9872    0.5424 C   0  0  0  0  0  0  0  0  0  0  0  0
    0.5774    0.4990    2.0367 S   0  0  0  0  0  0  0  0  0  0  0  0
   -0.1618    2.1572   -1.2621 H   0  0  0  0  0  0  0  0  0  0  0  0
    1.3316    1.3390   -0.7942 H   0  0  0  0  0  0  0  0  0  0  0  0
    0.8034    2.7712    0.0913 H   0  0  0  0  0  0  0  0  0  0  0  0
   -1.2072    1.5192    0.9228 H   0  0  0  0  0  0  0  0  0  0  0  0
    1.5512   -0.1798    1.4155 H   0  0  0  0  0  0  0  0  0  0  0  0
  1  2  3  0
  1  4  1  0
  2  3  1  0
  3  6  1  0
  3  7  1  0
  5  9  1  0
  8  9  1  0
  8 11  1  0
  8 12  1  0
  8 13  1  0
  9 10  1  0
  9 14  1  0
 10 15  1  0
M  RAD  1   3   2
M  END
>  <reaction>  (13) 
rxn_1236

>  <mol_properties>  (13) 
{"1": {"label": "*4", "atom_type": "Ct"}, "2": {"label": "*3", "atom_type": "Cs"}, "4": {"label": "*2", "atom_type": "H0"}, "8": {"label": "*1", "atom_type": "Cs"}, "9": {"label": "*0", "atom_type": "S2s"}}

>  <type>  (13) 
unop_9

>  <geom_source>  (13) 
Heuristics

$$$$

     RDKit          3D

 15 13  0  0  0  0  0  0  0  0999 V2000
   -0.4464   -1.9108   -2.7616 C   0  0  0  0  0  0  0  0  0  0  0  0
   -0.4464   -1.9108   -1.5645 C   0  0  0  0  0  0  0  0  0  0  0  0
   -0.4464   -1.9108   -0.1091 C   0  0  0  0  0  3  0  0  0  0  0  0
   -0.4464   -1.9108   -3.8248 H   0  0  0  0  0  0  0  0  0  0  0  0
   -0.3349   -0.6912    0.3533 H   0  0  0  0  0  0  0  0  0  0  0  0
    0.3873   -2.4994    0.2763 H   0  0  0  0  0  0  0  0  0  0  0  0
   -1.3730   -2.3385    0.2763 H   0  0  0  0  0  0  0  0  0  0  0  0
   -1.3746    1.4006    0.3478 C   0  0  0  0  0  0  0  0  0  0  0  0
   -0.2236    0.5271    0.8153 C   0  0  0  0  0  0  0  0  0  0  0  0
    1.2838    1.4472    1.2432 S   0  0  0  0  0  0  0  0  0  0  0  0
   -2.2587    0.7903    0.1487 H   0  0  0  0  0  0  0  0  0  0  0  0
   -1.1164    1.9276   -0.5725 H   0  0  0  0  0  0  0  0  0  0  0  0
   -1.6301    2.1457    1.1016 H   0  0  0  0  0  0  0  0  0  0  0  0
   -0.4872    0.0021    1.7346 H   0  0  0  0  0  0  0  0  0  0  0  0
    1.5059    1.9646    0.0275 H   0  0  0  0  0  0  0  0  0  0  0  0
  1  2  3  0
  1  4  1  0
  2  3  1  0
  3  6  1  0
  3  7  1  0
  5  9  1  0
  8  9  1  0
  8 11  1  0
  8 12  1  0
  8 13  1  0
  9 10  1  0
  9 14  1  0
 10 15  1  0
M  RAD  1   3   2
M  END
>  <reaction>  (14) 
rxn_1236

>  <mol_properties>  (14) 
{"1": {"label": "*4", "atom_type": "Ct"}, "2": {"label": "*3", "atom_type": "Cs"}, "4": {"label": "*2", "atom_type": "H0"}, "8": {"label": "*1", "atom_type": "Cs"}, "9": {"label": "*0", "atom_type": "S2s"}}

>  <type>  (14) 
unop_10

>  <geom_source>  (14) 
Heuristics

$$$$

     RDKit          3D

 15 13  0  0  0  0  0  0  0  0999 V2000
    0.3445   -1.4655   -2.9474 C   0  0  0  0  0  0  0  0  0  0  0  0
    0.3445   -1.4655   -1.7503 C   0  0  0  0  0  0  0  0  0  0  0  0
    0.3445   -1.4655   -0.2949 C   0  0  0  0  0  3  0  0  0  0  0  0
    0.3445   -1.4655   -4.0107 H   0  0  0  0  0  0  0  0  0  0  0  0
    0.4559   -0.2459    0.1675 H   0  0  0  0  0  0  0  0  0  0  0  0
    1.1782   -2.0540    0.0905 H   0  0  0  0  0  0  0  0  0  0  0  0
   -0.5821   -1.8932    0.0905 H   0  0  0  0  0  0  0  0  0  0  0  0
    1.2795    0.9898    1.9707 C   0  0  0  0  0  0  0  0  0  0  0  0
    0.5673    0.9725    0.6295 C   0  0  0  0  0  0  0  0  0  0  0  0
   -1.2457    0.9460    0.7490 S   0  0  0  0  0  0  0  0  0  0  0  0
    2.3609    1.0483    1.8263 H   0  0  0  0  0  0  0  0  0  0  0  0
    1.0653    0.0827    2.5386 H   0  0  0  0  0  0  0  0  0  0  0  0
    0.9629    1.8442    2.5695 H   0  0  0  0  0  0  0  0  0  0  0  0
    0.7856    1.8806    0.0657 H   0  0  0  0  0  0  0  0  0  0  0  0
   -1.3467   -0.2272    1.3880 H   0  0  0  0  0  0  0  0  0  0  0  0
  1  2  3  0
  1  4  1  0
  2  3  1  0
  3  6  1  0
  3  7  1  0
  5  9  1  0
  8  9  1  0
  8 11  1  0
  8 12  1  0
  8 13  1  0
  9 10  1  0
  9 14  1  0
 10 15  1  0
M  RAD  1   3   2
M  END
>  <reaction>  (15) 
rxn_1236

>  <mol_properties>  (15) 
{"1": {"label": "*4", "atom_type": "Ct"}, "2": {"label": "*3", "atom_type": "Cs"}, "4": {"label": "*2", "atom_type": "H0"}, "8": {"label": "*1", "atom_type": "Cs"}, "9": {"label": "*0", "atom_type": "S2s"}}

>  <type>  (15) 
unop_11

>  <geom_source>  (15) 
Heuristics

$$$$

     RDKit          3D

 15 13  0  0  0  0  0  0  0  0999 V2000
   -0.6029   -1.6514   -2.9012 C   0  0  0  0  0  0  0  0  0  0  0  0
   -0.6029   -1.6514   -1.7041 C   0  0  0  0  0  0  0  0  0  0  0  0
   -0.6029   -1.6514   -0.2487 C   0  0  0  0  0  3  0  0  0  0  0  0
   -0.6029   -1.6514   -3.9644 H   0  0  0  0  0  0  0  0  0  0  0  0
   -0.4914   -0.4319    0.2137 H   0  0  0  0  0  0  0  0  0  0  0  0
    0.2308   -2.2400    0.1367 H   0  0  0  0  0  0  0  0  0  0  0  0
   -1.5295   -2.0791    0.1367 H   0  0  0  0  0  0  0  0  0  0  0  0
   -0.2877    1.7974   -0.4539 C   0  0  0  0  0  0  0  0  0  0  0  0
   -0.3801    0.7865    0.6757 C   0  0  0  0  0  0  0  0  0  0  0  0
    1.0075    0.8497    1.8473 S   0  0  0  0  0  0  0  0  0  0  0  0
   -1.1708    1.7340   -1.0941 H   0  0  0  0  0  0  0  0  0  0  0  0
    0.5908    1.6109   -1.0743 H   0  0  0  0  0  0  0  0  0  0  0  0
   -0.2144    2.8128   -0.0637 H   0  0  0  0  0  0  0  0  0  0  0  0
   -1.2600    0.9768    1.2918 H   0  0  0  0  0  0  0  0  0  0  0  0
    1.9715    0.5382    0.9704 H   0  0  0  0  0  0  0  0  0  0  0  0
  1  2  3  0
  1  4  1  0
  2  3  1  0
  3  6  1  0
  3  7  1  0
  5  9  1  0
  8  9  1  0
  8 11  1  0
  8 12  1  0
  8 13  1  0
  9 10  1  0
  9 14  1  0
 10 15  1  0
M  RAD  1   3   2
M  END
>  <reaction>  (16) 
rxn_1236

>  <mol_properties>  (16) 
{"1": {"label": "*4", "atom_type": "Ct"}, "2": {"label": "*3", "atom_type": "Cs"}, "4": {"label": "*2", "atom_type": "H0"}, "8": {"label": "*1", "atom_type": "Cs"}, "9": {"label": "*0", "atom_type": "S2s"}}

>  <type>  (16) 
unop_12

>  <geom_source>  (16) 
Heuristics

$$$$

     RDKit          3D

 15 13  0  0  0  0  0  0  0  0999 V2000
    0.7420   -0.3796   -1.9646 S   0  0  0  0  0  0  0  0  0  0  0  0
    1.0375   -0.7440   -0.2070 C   0  0  0  0  0  3  0  0  0  0  0  0
    2.3069   -0.0582    0.2744 C   0  0  0  0  0  0  0  0  0  0  0  0
   -1.3573   -0.3437    0.7474 C   0  0  0  0  0  0  0  0  0  0  0  0
   -2.2976    0.5783    0.1100 C   0  0  0  0  0  0  0  0  0  0  0  0
   -3.0722    1.3381   -0.4153 C   0  0  0  0  0  0  0  0  0  0  0  0
    1.1374   -1.8423   -0.0783 H   0  0  0  0  0  0  0  0  0  0  0  0
   -0.0419   -0.3001    0.5419 H   0  0  0  0  0  0  0  0  0  0  0  0
    3.1796   -0.4074   -0.3173 H   0  0  0  0  0  0  0  0  0  0  0  0
    2.2082    1.0429    0.1723 H   0  0  0  0  0  0  0  0  0  0  0  0
    2.4762   -0.3029    1.3438 H   0  0  0  0  0  0  0  0  0  0  0  0
   -1.6636   -1.3891    0.5371 H   0  0  0  0  0  0  0  0  0  0  0  0
   -1.3560   -0.1721    1.8436 H   0  0  0  0  0  0  0  0  0  0  0  0
    0.4530    0.9750   -1.7116 H   0  0  0  0  0  0  0  0  0  0  0  0
   -3.7522    2.0051   -0.8764 H   0  0  0  0  0  0  0  0  0  0  0  0
  1  2  1  0
  1 14  1  0
  2  3  1  0
  2  7  1  0
  3  9  1  0
  3 10  1  0
  3 11  1  0
  4  5  1  0
  4  8  1  0
  4 12  1  0
  4 13  1  0
  5  6  3  0
  6 15  1  0
M  RAD  1   2   2
M  END
>  <reaction>  (17) 
rxn_1236

>  <mol_properties>  (17) 
{"1": {"label": "*4", "atom_type": "Ct"}, "2": {"label": "*3", "atom_type": "Cs"}, "4": {"label": "*2", "atom_type": "H0"}, "8": {"label": "*1", "atom_type": "Cs"}, "9": {"label": "*0", "atom_type": "S2s"}}

>  <type>  (17) 
unop_13

>  <geom_source>  (17) 
AutoTST

$$$$
