
     RDKit          3D

  9  8  0  0  0  0  0  0  0  0999 V2000
    1.1303   -0.2933   -0.7510 C   0  0  0  0  0  0  0  0  0  0  0  0
    0.2866    0.4560   -0.0588 C   0  0  0  0  0  0  0  0  0  0  0  0
   -0.9719   -0.0331    0.5823 C   0  0  0  0  0  0  0  0  0  0  0  0
    2.0274    0.1230   -1.1916 H   0  0  0  0  0  0  0  0  0  0  0  0
    0.9532   -1.3530   -0.9023 H   0  0  0  0  0  0  0  0  0  0  0  0
    0.5065    1.5132    0.0659 H   0  0  0  0  0  0  0  0  0  0  0  0
   -0.9526    0.1426    1.6610 H   0  0  0  0  0  0  0  0  0  0  0  0
   -1.1182   -1.1002    0.4106 H   0  0  0  0  0  0  0  0  0  0  0  0
   -1.8412    0.5010    0.1901 H   0  0  0  0  0  0  0  0  0  0  0  0
  1  2  2  3
  1  4  1  0
  1  5  1  0
  2  3  1  0
  2  6  1  0
  3  7  1  0
  3  8  1  0
  3  9  1  0
M  END
>  <reaction>  (1) 
rxn_176

>  <mol_properties>  (1) 
{"2": {"label": "donator", "atom_type": "Cs"}, "6": {"label": "d_hydrogen", "atom_type": "H0"}}

>  <type>  (1) 
r1h

$$$$

     RDKit          3D

 11 11  0  0  0  0  0  0  0  0999 V2000
    0.1524   -1.5397    0.0698 C   0  0  0  0  0  3  0  0  0  0  0  0
   -1.1218   -1.0406    0.0516 C   0  0  0  0  0  0  0  0  0  0  0  0
   -1.2464    0.3470   -0.0114 C   0  0  0  0  0  0  0  0  0  0  0  0
   -0.1137    1.1487   -0.0521 C   0  0  0  0  0  0  0  0  0  0  0  0
    1.1542    0.5837   -0.0308 C   0  0  0  0  0  0  0  0  0  0  0  0
    1.3041   -0.8014    0.0319 C   0  0  0  0  0  0  0  0  0  0  0  0
   -1.9955   -1.6793    0.0840 H   0  0  0  0  0  0  0  0  0  0  0  0
   -2.2319    0.7966   -0.0284 H   0  0  0  0  0  0  0  0  0  0  0  0
   -0.2203    2.2248   -0.1009 H   0  0  0  0  0  0  0  0  0  0  0  0
    2.0325    1.2173   -0.0630 H   0  0  0  0  0  0  0  0  0  0  0  0
    2.2862   -1.2570    0.0492 H   0  0  0  0  0  0  0  0  0  0  0  0
  1  2  2  0
  1  6  1  0
  2  3  1  0
  2  7  1  0
  3  4  2  0
  3  8  1  0
  4  5  1  0
  4  9  1  0
  5  6  2  0
  5 10  1  0
  6 11  1  0
M  RAD  1   1   2
M  END
>  <reaction>  (2) 
rxn_176

>  <mol_properties>  (2) 
{"0": {"label": "acceptor", "atom_type": "Cd"}}

>  <type>  (2) 
r2

$$$$

     RDKit          3D

 12 12  0  0  0  0  0  0  0  0999 V2000
   -1.2385    0.6248   -0.0199 C   0  0  0  0  0  0  0  0  0  0  0  0
   -0.0779    1.3848   -0.0298 C   0  0  0  0  0  0  0  0  0  0  0  0
    1.1605    0.7600   -0.0100 C   0  0  0  0  0  0  0  0  0  0  0  0
    1.2385   -0.6248    0.0199 C   0  0  0  0  0  0  0  0  0  0  0  0
    0.0779   -1.3848    0.0298 C   0  0  0  0  0  0  0  0  0  0  0  0
   -1.1606   -0.7600    0.0100 C   0  0  0  0  0  0  0  0  0  0  0  0
   -2.2052    1.1125   -0.0354 H   0  0  0  0  0  0  0  0  0  0  0  0
   -0.1387    2.4657   -0.0531 H   0  0  0  0  0  0  0  0  0  0  0  0
    2.0664    1.3532   -0.0177 H   0  0  0  0  0  0  0  0  0  0  0  0
    2.2052   -1.1125    0.0354 H   0  0  0  0  0  0  0  0  0  0  0  0
    0.1387   -2.4657    0.0531 H   0  0  0  0  0  0  0  0  0  0  0  0
   -2.0664   -1.3532    0.0177 H   0  0  0  0  0  0  0  0  0  0  0  0
  1  2  2  0
  1  6  1  0
  1  7  1  0
  2  3  1  0
  2  8  1  0
  3  4  2  0
  3  9  1  0
  4  5  1  0
  4 10  1  0
  5  6  2  0
  5 11  1  0
  6 12  1  0
M  END
>  <reaction>  (3) 
rxn_176

>  <mol_properties>  (3) 
{"0": {"label": "a_hydrogen", "atom_type": "H0"}, "1": {"label": "acceptor", "atom_type": "Cd"}}

>  <type>  (3) 
r2h

$$$$

     RDKit          3D

 20 19  0  0  0  0  0  0  0  0999 V2000
    1.2374   -0.4386   -3.5238 C   0  0  0  0  0  0  0  0  0  0  0  0
    1.3675   -1.2054   -2.4445 C   0  0  0  0  0  0  0  0  0  0  0  0
    2.1175   -0.8366   -1.2341 C   0  0  0  0  0  0  0  0  0  0  0  0
    0.6462   -0.7541   -4.3739 H   0  0  0  0  0  0  0  0  0  0  0  0
    1.7269    0.5269   -3.5928 H   0  0  0  0  0  0  0  0  0  0  0  0
    0.8563   -2.1640   -2.4213 H   0  0  0  0  0  0  0  0  0  0  0  0
    1.3050   -0.4717   -0.3854 H   0  0  0  0  0  0  0  0  0  0  0  0
    2.7791    0.0185   -1.3656 H   0  0  0  0  0  0  0  0  0  0  0  0
    2.6312   -1.6692   -0.7552 H   0  0  0  0  0  0  0  0  0  0  0  0
    0.2347    0.0239    0.5246 C   0  0  0  0  0  3  0  0  0  0  0  0
    0.4335    0.1310    1.8813 C   0  0  0  0  0  0  0  0  0  0  0  0
   -0.6223    0.5974    2.6589 C   0  0  0  0  0  0  0  0  0  0  0  0
   -1.8286    0.9383    2.0622 C   0  0  0  0  0  0  0  0  0  0  0  0
   -1.9935    0.8180    0.6891 C   0  0  0  0  0  0  0  0  0  0  0  0
   -0.9453    0.3526   -0.0993 C   0  0  0  0  0  0  0  0  0  0  0  0
    1.3789   -0.1375    2.3374 H   0  0  0  0  0  0  0  0  0  0  0  0
   -0.5014    0.6941    3.7312 H   0  0  0  0  0  0  0  0  0  0  0  0
   -2.6463    1.3007    2.6723 H   0  0  0  0  0  0  0  0  0  0  0  0
   -2.9374    1.0865    0.2303 H   0  0  0  0  0  0  0  0  0  0  0  0
   -1.0540    0.2523   -1.1733 H   0  0  0  0  0  0  0  0  0  0  0  0
  1  2  2  3
  1  4  1  0
  1  5  1  0
  2  3  1  0
  2  6  1  0
  3  7  1  0
  3  8  1  0
  3  9  1  0
 10 11  2  0
 10 15  1  0
 11 12  1  0
 11 16  1  0
 12 13  2  0
 12 17  1  0
 13 14  1  0
 13 18  1  0
 14 15  2  0
 14 19  1  0
 15 20  1  0
M  RAD  1  10   2
M  END
>  <reaction>  (4) 
rxn_176

>  <mol_properties>  (4) 
{"1": {"label": "*0", "atom_type": "Cd"}, "2": {"label": "*1", "atom_type": "Cs"}, "6": {"label": "*2", "atom_type": "H0"}, "9": {"label": "*3", "atom_type": "Cd"}, "10": {"label": "*4", "atom_type": "Cd"}}

>  <type>  (4) 
ts

$$$$

     RDKit          3D

 20 19  0  0  0  0  0  0  0  0999 V2000
    1.8619   -1.5425   -3.3543 C   0  0  0  0  0  0  0  0  0  0  0  0
    1.8619   -1.5425   -2.0306 C   0  0  0  0  0  0  0  0  0  0  0  0
    1.8619   -0.3203   -1.1701 C   0  0  0  0  0  3  0  0  0  0  0  0
    1.8619   -2.4653   -3.9208 H   0  0  0  0  0  0  0  0  0  0  0  0
    1.8619   -0.6169   -3.9203 H   0  0  0  0  0  0  0  0  0  0  0  0
    1.8619   -2.4952   -1.5070 H   0  0  0  0  0  0  0  0  0  0  0  0
    0.8086   -0.2998   -0.3886 H   0  0  0  0  0  0  0  0  0  0  0  0
    1.8619    0.5901   -1.7706 H   0  0  0  0  0  0  0  0  0  0  0  0
    2.7396   -0.3032   -0.5188 H   0  0  0  0  0  0  0  0  0  0  0  0
   -0.2348   -0.2795    0.3856 C   0  0  0  0  0  0  0  0  0  0  0  0
   -0.0758   -0.2613    1.7636 C   0  0  0  0  0  0  0  0  0  0  0  0
   -0.8372    0.6017    2.5383 C   0  0  0  0  0  0  0  0  0  0  0  0
   -1.7575    1.4464    1.9351 C   0  0  0  0  0  0  0  0  0  0  0  0
   -1.9165    1.4282    0.5570 C   0  0  0  0  0  0  0  0  0  0  0  0
   -1.1551    0.5653   -0.2177 C   0  0  0  0  0  0  0  0  0  0  0  0
    0.6426   -0.9206    2.2345 H   0  0  0  0  0  0  0  0  0  0  0  0
   -0.7131    0.6159    3.6140 H   0  0  0  0  0  0  0  0  0  0  0  0
   -2.3518    2.1200    2.5398 H   0  0  0  0  0  0  0  0  0  0  0  0
   -2.6349    2.0876    0.0861 H   0  0  0  0  0  0  0  0  0  0  0  0
   -1.2792    0.5511   -1.2934 H   0  0  0  0  0  0  0  0  0  0  0  0
  1  2  2  3
  1  4  1  0
  1  5  1  0
  2  3  1  0
  2  6  1  0
  3  8  1  0
  3  9  1  0
  7 10  1  0
 10 11  2  0
 10 15  1  0
 11 12  1  0
 11 16  1  0
 12 13  2  0
 12 17  1  0
 13 14  1  0
 13 18  1  0
 14 15  2  0
 14 19  1  0
 15 20  1  0
M  RAD  1   3   2
M  END
>  <reaction>  (5) 
rxn_176

>  <mol_properties>  (5) 
{"1": {"label": "*0", "atom_type": "Cd"}, "2": {"label": "*1", "atom_type": "Cs"}, "6": {"label": "*2", "atom_type": "H0"}, "9": {"label": "*3", "atom_type": "Cd"}, "10": {"label": "*4", "atom_type": "Cd"}}

>  <type>  (5) 
unop_1

>  <geom_source>  (5) 
Heuristics

$$$$

     RDKit          3D

 20 19  0  0  0  0  0  0  0  0999 V2000
    1.9242   -0.9676   -3.5644 C   0  0  0  0  0  0  0  0  0  0  0  0
    1.9242   -0.9676   -2.2406 C   0  0  0  0  0  0  0  0  0  0  0  0
    1.9242    0.2546   -1.3801 C   0  0  0  0  0  3  0  0  0  0  0  0
    1.9242   -1.8903   -4.1308 H   0  0  0  0  0  0  0  0  0  0  0  0
    1.9242   -0.0420   -4.1304 H   0  0  0  0  0  0  0  0  0  0  0  0
    1.9242   -1.9202   -1.7171 H   0  0  0  0  0  0  0  0  0  0  0  0
    0.8710    0.2751   -0.5986 H   0  0  0  0  0  0  0  0  0  0  0  0
    1.9242    1.1650   -1.9807 H   0  0  0  0  0  0  0  0  0  0  0  0
    2.8019    0.2717   -0.7289 H   0  0  0  0  0  0  0  0  0  0  0  0
   -0.1724    0.2955    0.1755 C   0  0  0  0  0  0  0  0  0  0  0  0
   -0.7402   -0.8950    0.6059 C   0  0  0  0  0  0  0  0  0  0  0  0
   -1.5957   -0.9005    1.6979 C   0  0  0  0  0  0  0  0  0  0  0  0
   -1.8836    0.2844    2.3596 C   0  0  0  0  0  0  0  0  0  0  0  0
   -1.3158    1.4748    1.9292 C   0  0  0  0  0  0  0  0  0  0  0  0
   -0.4603    1.4803    0.8372 C   0  0  0  0  0  0  0  0  0  0  0  0
   -0.5155   -1.8198    0.0894 H   0  0  0  0  0  0  0  0  0  0  0  0
   -2.0389   -1.8296    2.0338 H   0  0  0  0  0  0  0  0  0  0  0  0
   -2.5514    0.2801    3.2120 H   0  0  0  0  0  0  0  0  0  0  0  0
   -1.5405    2.3996    2.4457 H   0  0  0  0  0  0  0  0  0  0  0  0
   -0.0171    2.4095    0.5013 H   0  0  0  0  0  0  0  0  0  0  0  0
  1  2  2  3
  1  4  1  0
  1  5  1  0
  2  3  1  0
  2  6  1  0
  3  8  1  0
  3  9  1  0
  7 10  1  0
 10 11  2  0
 10 15  1  0
 11 12  1  0
 11 16  1  0
 12 13  2  0
 12 17  1  0
 13 14  1  0
 13 18  1  0
 14 15  2  0
 14 19  1  0
 15 20  1  0
M  RAD  1   3   2
M  END
>  <reaction>  (6) 
rxn_176

>  <mol_properties>  (6) 
{"1": {"label": "*0", "atom_type": "Cd"}, "2": {"label": "*1", "atom_type": "Cs"}, "6": {"label": "*2", "atom_type": "H0"}, "9": {"label": "*3", "atom_type": "Cd"}, "10": {"label": "*4", "atom_type": "Cd"}}

>  <type>  (6) 
unop_2

>  <geom_source>  (6) 
Heuristics

$$$$

     RDKit          3D

 20 19  0  0  0  0  0  0  0  0999 V2000
    2.0866   -1.4234   -3.1700 C   0  0  0  0  0  0  0  0  0  0  0  0
    2.0866   -1.4234   -1.8463 C   0  0  0  0  0  0  0  0  0  0  0  0
    2.0866   -0.2012   -0.9858 C   0  0  0  0  0  3  0  0  0  0  0  0
    2.0866   -2.3462   -3.7365 H   0  0  0  0  0  0  0  0  0  0  0  0
    2.0866   -0.4978   -3.7360 H   0  0  0  0  0  0  0  0  0  0  0  0
    2.0866   -2.3761   -1.3228 H   0  0  0  0  0  0  0  0  0  0  0  0
    1.0333   -0.1807   -0.2043 H   0  0  0  0  0  0  0  0  0  0  0  0
    2.0866    0.7092   -1.5864 H   0  0  0  0  0  0  0  0  0  0  0  0
    2.9643   -0.1841   -0.3345 H   0  0  0  0  0  0  0  0  0  0  0  0
   -0.0101   -0.1604    0.5699 C   0  0  0  0  0  0  0  0  0  0  0  0
    0.0583    0.4575    1.8101 C   0  0  0  0  0  0  0  0  0  0  0  0
   -1.0425    1.1405    2.3064 C   0  0  0  0  0  0  0  0  0  0  0  0
   -2.2117    1.2057    1.5626 C   0  0  0  0  0  0  0  0  0  0  0  0
   -2.2800    0.5878    0.3223 C   0  0  0  0  0  0  0  0  0  0  0  0
   -1.1793   -0.0952   -0.1740 C   0  0  0  0  0  0  0  0  0  0  0  0
    0.9709    0.4066    2.3907 H   0  0  0  0  0  0  0  0  0  0  0  0
   -0.9891    1.6228    3.2745 H   0  0  0  0  0  0  0  0  0  0  0  0
   -3.0709    1.7388    1.9500 H   0  0  0  0  0  0  0  0  0  0  0  0
   -3.1927    0.6387   -0.2583 H   0  0  0  0  0  0  0  0  0  0  0  0
   -1.2327   -0.5775   -1.1421 H   0  0  0  0  0  0  0  0  0  0  0  0
  1  2  2  3
  1  4  1  0
  1  5  1  0
  2  3  1  0
  2  6  1  0
  3  8  1  0
  3  9  1  0
  7 10  1  0
 10 11  2  0
 10 15  1  0
 11 12  1  0
 11 16  1  0
 12 13  2  0
 12 17  1  0
 13 14  1  0
 13 18  1  0
 14 15  2  0
 14 19  1  0
 15 20  1  0
M  RAD  1   3   2
M  END
>  <reaction>  (7) 
rxn_176

>  <mol_properties>  (7) 
{"1": {"label": "*0", "atom_type": "Cd"}, "2": {"label": "*1", "atom_type": "Cs"}, "6": {"label": "*2", "atom_type": "H0"}, "9": {"label": "*3", "atom_type": "Cd"}, "10": {"label": "*4", "atom_type": "Cd"}}

>  <type>  (7) 
unop_3

>  <geom_source>  (7) 
Heuristics

$$$$

     RDKit          3D

 20 19  0  0  0  0  0  0  0  0999 V2000
    2.0429   -1.4074   -3.2704 C   0  0  0  0  0  0  0  0  0  0  0  0
    2.0429   -1.4074   -1.9466 C   0  0  0  0  0  0  0  0  0  0  0  0
    2.0429   -0.1852   -1.0861 C   0  0  0  0  0  3  0  0  0  0  0  0
    2.0429   -2.3301   -3.8368 H   0  0  0  0  0  0  0  0  0  0  0  0
    2.0429   -0.4818   -3.8364 H   0  0  0  0  0  0  0  0  0  0  0  0
    2.0429   -2.3600   -1.4231 H   0  0  0  0  0  0  0  0  0  0  0  0
    0.9897   -0.1646   -0.3046 H   0  0  0  0  0  0  0  0  0  0  0  0
    2.0429    0.7253   -1.6867 H   0  0  0  0  0  0  0  0  0  0  0  0
    2.9206   -0.1681   -0.4349 H   0  0  0  0  0  0  0  0  0  0  0  0
   -0.0538   -0.1443    0.4695 C   0  0  0  0  0  0  0  0  0  0  0  0
   -1.3267   -0.1407   -0.0820 C   0  0  0  0  0  0  0  0  0  0  0  0
   -2.3615    0.5180    0.5659 C   0  0  0  0  0  0  0  0  0  0  0  0
   -2.1234    1.1732    1.7653 C   0  0  0  0  0  0  0  0  0  0  0  0
   -0.8505    1.1696    2.3168 C   0  0  0  0  0  0  0  0  0  0  0  0
    0.1844    0.5109    1.6690 C   0  0  0  0  0  0  0  0  0  0  0  0
   -1.5126   -0.6522   -1.0182 H   0  0  0  0  0  0  0  0  0  0  0  0
   -3.3551    0.5208    0.1354 H   0  0  0  0  0  0  0  0  0  0  0  0
   -2.9312    1.6874    2.2711 H   0  0  0  0  0  0  0  0  0  0  0  0
   -0.6646    1.6811    3.2530 H   0  0  0  0  0  0  0  0  0  0  0  0
    1.1780    0.5081    2.0995 H   0  0  0  0  0  0  0  0  0  0  0  0
  1  2  2  3
  1  4  1  0
  1  5  1  0
  2  3  1  0
  2  6  1  0
  3  8  1  0
  3  9  1  0
  7 10  1  0
 10 11  2  0
 10 15  1  0
 11 12  1  0
 11 16  1  0
 12 13  2  0
 12 17  1  0
 13 14  1  0
 13 18  1  0
 14 15  2  0
 14 19  1  0
 15 20  1  0
M  RAD  1   3   2
M  END
>  <reaction>  (8) 
rxn_176

>  <mol_properties>  (8) 
{"1": {"label": "*0", "atom_type": "Cd"}, "2": {"label": "*1", "atom_type": "Cs"}, "6": {"label": "*2", "atom_type": "H0"}, "9": {"label": "*3", "atom_type": "Cd"}, "10": {"label": "*4", "atom_type": "Cd"}}

>  <type>  (8) 
unop_4

>  <geom_source>  (8) 
Heuristics

$$$$

     RDKit          3D

 20 19  0  0  0  0  0  0  0  0999 V2000
    2.0953   -0.9857   -3.3886 C   0  0  0  0  0  0  0  0  0  0  0  0
    2.0953   -0.9857   -2.0648 C   0  0  0  0  0  0  0  0  0  0  0  0
    2.0953    0.2365   -1.2043 C   0  0  0  0  0  3  0  0  0  0  0  0
    2.0953   -1.9084   -3.9551 H   0  0  0  0  0  0  0  0  0  0  0  0
    2.0953   -0.0601   -3.9546 H   0  0  0  0  0  0  0  0  0  0  0  0
    2.0953   -1.9383   -1.5413 H   0  0  0  0  0  0  0  0  0  0  0  0
    1.0421    0.2571   -0.4229 H   0  0  0  0  0  0  0  0  0  0  0  0
    2.0953    1.1470   -1.8049 H   0  0  0  0  0  0  0  0  0  0  0  0
    2.9730    0.2536   -0.5531 H   0  0  0  0  0  0  0  0  0  0  0  0
   -0.0014    0.2774    0.3513 C   0  0  0  0  0  0  0  0  0  0  0  0
   -0.1911    1.3323    1.2321 C   0  0  0  0  0  0  0  0  0  0  0  0
   -1.3051    1.3540    2.0587 C   0  0  0  0  0  0  0  0  0  0  0  0
   -2.2293    0.3209    2.0043 C   0  0  0  0  0  0  0  0  0  0  0  0
   -2.0396   -0.7340    1.1235 C   0  0  0  0  0  0  0  0  0  0  0  0
   -0.9256   -0.7557    0.2970 C   0  0  0  0  0  0  0  0  0  0  0  0
    0.5304    2.1387    1.2745 H   0  0  0  0  0  0  0  0  0  0  0  0
   -1.4531    2.1773    2.7462 H   0  0  0  0  0  0  0  0  0  0  0  0
   -3.0989    0.3378    2.6495 H   0  0  0  0  0  0  0  0  0  0  0  0
   -2.7611   -1.5404    1.0811 H   0  0  0  0  0  0  0  0  0  0  0  0
   -0.7776   -1.5791   -0.3906 H   0  0  0  0  0  0  0  0  0  0  0  0
  1  2  2  3
  1  4  1  0
  1  5  1  0
  2  3  1  0
  2  6  1  0
  3  8  1  0
  3  9  1  0
  7 10  1  0
 10 11  2  0
 10 15  1  0
 11 12  1  0
 11 16  1  0
 12 13  2  0
 12 17  1  0
 13 14  1  0
 13 18  1  0
 14 15  2  0
 14 19  1  0
 15 20  1  0
M  RAD  1   3   2
M  END
>  <reaction>  (9) 
rxn_176

>  <mol_properties>  (9) 
{"1": {"label": "*0", "atom_type": "Cd"}, "2": {"label": "*1", "atom_type": "Cs"}, "6": {"label": "*2", "atom_type": "H0"}, "9": {"label": "*3", "atom_type": "Cd"}, "10": {"label": "*4", "atom_type": "Cd"}}

>  <type>  (9) 
unop_5

>  <geom_source>  (9) 
Heuristics

$$$$

     RDKit          3D

 20 19  0  0  0  0  0  0  0  0999 V2000
    1.8455   -1.4917   -3.4201 C   0  0  0  0  0  0  0  0  0  0  0  0
    1.8455   -1.4917   -2.0963 C   0  0  0  0  0  0  0  0  0  0  0  0
    1.8455   -0.2695   -1.2358 C   0  0  0  0  0  3  0  0  0  0  0  0
    1.8455   -2.4144   -3.9865 H   0  0  0  0  0  0  0  0  0  0  0  0
    1.8455   -0.5661   -3.9861 H   0  0  0  0  0  0  0  0  0  0  0  0
    1.8455   -2.4443   -1.5728 H   0  0  0  0  0  0  0  0  0  0  0  0
    0.7923   -0.2489   -0.4543 H   0  0  0  0  0  0  0  0  0  0  0  0
    1.8455    0.6410   -1.8364 H   0  0  0  0  0  0  0  0  0  0  0  0
    2.7232   -0.2524   -0.5846 H   0  0  0  0  0  0  0  0  0  0  0  0
   -0.2512   -0.2286    0.3198 C   0  0  0  0  0  0  0  0  0  0  0  0
   -1.4228    0.3766   -0.1110 C   0  0  0  0  0  0  0  0  0  0  0  0
   -2.1594    1.1627    0.7631 C   0  0  0  0  0  0  0  0  0  0  0  0
   -1.7245    1.3436    2.0679 C   0  0  0  0  0  0  0  0  0  0  0  0
   -0.5528    0.7384    2.4987 C   0  0  0  0  0  0  0  0  0  0  0  0
    0.1838   -0.0477    1.6247 C   0  0  0  0  0  0  0  0  0  0  0  0
   -1.7623    0.2353   -1.1295 H   0  0  0  0  0  0  0  0  0  0  0  0
   -3.0740    1.6350    0.4268 H   0  0  0  0  0  0  0  0  0  0  0  0
   -2.2995    1.9572    2.7502 H   0  0  0  0  0  0  0  0  0  0  0  0
   -0.2133    0.8797    3.5172 H   0  0  0  0  0  0  0  0  0  0  0  0
    1.0984   -0.5200    1.9609 H   0  0  0  0  0  0  0  0  0  0  0  0
  1  2  2  3
  1  4  1  0
  1  5  1  0
  2  3  1  0
  2  6  1  0
  3  8  1  0
  3  9  1  0
  7 10  1  0
 10 11  2  0
 10 15  1  0
 11 12  1  0
 11 16  1  0
 12 13  2  0
 12 17  1  0
 13 14  1  0
 13 18  1  0
 14 15  2  0
 14 19  1  0
 15 20  1  0
M  RAD  1   3   2
M  END
>  <reaction>  (10) 
rxn_176

>  <mol_properties>  (10) 
{"1": {"label": "*0", "atom_type": "Cd"}, "2": {"label": "*1", "atom_type": "Cs"}, "6": {"label": "*2", "atom_type": "H0"}, "9": {"label": "*3", "atom_type": "Cd"}, "10": {"label": "*4", "atom_type": "Cd"}}

>  <type>  (10) 
unop_6

>  <geom_source>  (10) 
Heuristics

$$$$

     RDKit          3D

 20 19  0  0  0  0  0  0  0  0999 V2000
    1.6776   -1.3643   -3.6074 C   0  0  0  0  0  0  0  0  0  0  0  0
    1.6776   -1.3643   -2.2836 C   0  0  0  0  0  0  0  0  0  0  0  0
    1.6776   -0.1422   -1.4231 C   0  0  0  0  0  3  0  0  0  0  0  0
    1.6776   -2.2871   -4.1739 H   0  0  0  0  0  0  0  0  0  0  0  0
    1.6776   -0.4387   -4.1734 H   0  0  0  0  0  0  0  0  0  0  0  0
    1.6776   -2.3170   -1.7601 H   0  0  0  0  0  0  0  0  0  0  0  0
    0.6243   -0.1216   -0.6417 H   0  0  0  0  0  0  0  0  0  0  0  0
    1.6776    0.7683   -2.0237 H   0  0  0  0  0  0  0  0  0  0  0  0
    2.5553   -0.1250   -0.7719 H   0  0  0  0  0  0  0  0  0  0  0  0
   -0.4191   -0.1013    0.1325 C   0  0  0  0  0  0  0  0  0  0  0  0
   -1.3247    0.9463    0.0486 C   0  0  0  0  0  0  0  0  0  0  0  0
   -1.8077    1.5400    1.2056 C   0  0  0  0  0  0  0  0  0  0  0  0
   -1.3850    1.0863    2.4466 C   0  0  0  0  0  0  0  0  0  0  0  0
   -0.4794    0.0387    2.5305 C   0  0  0  0  0  0  0  0  0  0  0  0
    0.0036   -0.5551    1.3735 C   0  0  0  0  0  0  0  0  0  0  0  0
   -1.6547    1.3005   -0.9201 H   0  0  0  0  0  0  0  0  0  0  0  0
   -2.5146    2.3577    1.1401 H   0  0  0  0  0  0  0  0  0  0  0  0
   -1.7620    1.5497    3.3497 H   0  0  0  0  0  0  0  0  0  0  0  0
   -0.1495   -0.3155    3.4991 H   0  0  0  0  0  0  0  0  0  0  0  0
    0.7105   -1.3727    1.4390 H   0  0  0  0  0  0  0  0  0  0  0  0
  1  2  2  3
  1  4  1  0
  1  5  1  0
  2  3  1  0
  2  6  1  0
  3  8  1  0
  3  9  1  0
  7 10  1  0
 10 11  2  0
 10 15  1  0
 11 12  1  0
 11 16  1  0
 12 13  2  0
 12 17  1  0
 13 14  1  0
 13 18  1  0
 14 15  2  0
 14 19  1  0
 15 20  1  0
M  RAD  1   3   2
M  END
>  <reaction>  (11) 
rxn_176

>  <mol_properties>  (11) 
{"1": {"label": "*0", "atom_type": "Cd"}, "2": {"label": "*1", "atom_type": "Cs"}, "6": {"label": "*2", "atom_type": "H0"}, "9": {"label": "*3", "atom_type": "Cd"}, "10": {"label": "*4", "atom_type": "Cd"}}

>  <type>  (11) 
unop_7

>  <geom_source>  (11) 
Heuristics

$$$$

     RDKit          3D

 20 19  0  0  0  0  0  0  0  0999 V2000
    1.7428   -1.3923   -3.5611 C   0  0  0  0  0  0  0  0  0  0  0  0
    1.7428   -1.3923   -2.2374 C   0  0  0  0  0  0  0  0  0  0  0  0
    1.7428   -0.1702   -1.3769 C   0  0  0  0  0  3  0  0  0  0  0  0
    1.7428   -2.3151   -4.1276 H   0  0  0  0  0  0  0  0  0  0  0  0
    1.7428   -0.4667   -4.1271 H   0  0  0  0  0  0  0  0  0  0  0  0
    1.7428   -2.3450   -1.7139 H   0  0  0  0  0  0  0  0  0  0  0  0
    0.6895   -0.1496   -0.5954 H   0  0  0  0  0  0  0  0  0  0  0  0
    1.7428    0.7403   -1.9775 H   0  0  0  0  0  0  0  0  0  0  0  0
    2.6205   -0.1530   -0.7256 H   0  0  0  0  0  0  0  0  0  0  0  0
   -0.3539   -0.1293    0.1788 C   0  0  0  0  0  0  0  0  0  0  0  0
   -0.2962   -0.7127    1.4361 C   0  0  0  0  0  0  0  0  0  0  0  0
   -0.8777   -0.0766    2.5232 C   0  0  0  0  0  0  0  0  0  0  0  0
   -1.5168    1.1428    2.3531 C   0  0  0  0  0  0  0  0  0  0  0  0
   -1.5745    1.7262    1.0957 C   0  0  0  0  0  0  0  0  0  0  0  0
   -0.9930    1.0902    0.0086 C   0  0  0  0  0  0  0  0  0  0  0  0
    0.2027   -1.6646    1.5689 H   0  0  0  0  0  0  0  0  0  0  0  0
   -0.8327   -0.5320    3.5046 H   0  0  0  0  0  0  0  0  0  0  0  0
   -1.9707    1.6393    3.2017 H   0  0  0  0  0  0  0  0  0  0  0  0
   -2.0734    2.6781    0.9629 H   0  0  0  0  0  0  0  0  0  0  0  0
   -1.0381    1.5456   -0.9728 H   0  0  0  0  0  0  0  0  0  0  0  0
  1  2  2  3
  1  4  1  0
  1  5  1  0
  2  3  1  0
  2  6  1  0
  3  8  1  0
  3  9  1  0
  7 10  1  0
 10 11  2  0
 10 15  1  0
 11 12  1  0
 11 16  1  0
 12 13  2  0
 12 17  1  0
 13 14  1  0
 13 18  1  0
 14 15  2  0
 14 19  1  0
 15 20  1  0
M  RAD  1   3   2
M  END
>  <reaction>  (12) 
rxn_176

>  <mol_properties>  (12) 
{"1": {"label": "*0", "atom_type": "Cd"}, "2": {"label": "*1", "atom_type": "Cs"}, "6": {"label": "*2", "atom_type": "H0"}, "9": {"label": "*3", "atom_type": "Cd"}, "10": {"label": "*4", "atom_type": "Cd"}}

>  <type>  (12) 
unop_8

>  <geom_source>  (12) 
Heuristics

$$$$

     RDKit          3D

 20 19  0  0  0  0  0  0  0  0999 V2000
    2.1493   -1.1852   -3.2553 C   0  0  0  0  0  0  0  0  0  0  0  0
    2.1493   -1.1852   -1.9316 C   0  0  0  0  0  0  0  0  0  0  0  0
    2.1493    0.0370   -1.0711 C   0  0  0  0  0  3  0  0  0  0  0  0
    2.1493   -2.1079   -3.8218 H   0  0  0  0  0  0  0  0  0  0  0  0
    2.1493   -0.2596   -3.8213 H   0  0  0  0  0  0  0  0  0  0  0  0
    2.1493   -2.1378   -1.4081 H   0  0  0  0  0  0  0  0  0  0  0  0
    1.0960    0.0575   -0.2896 H   0  0  0  0  0  0  0  0  0  0  0  0
    2.1493    0.9474   -1.6717 H   0  0  0  0  0  0  0  0  0  0  0  0
    3.0270    0.0541   -0.4199 H   0  0  0  0  0  0  0  0  0  0  0  0
    0.0526    0.0779    0.4846 C   0  0  0  0  0  0  0  0  0  0  0  0
   -1.1298   -0.5182    0.0708 C   0  0  0  0  0  0  0  0  0  0  0  0
   -2.3253   -0.1951    0.6961 C   0  0  0  0  0  0  0  0  0  0  0  0
   -2.3384    0.7242    1.7350 C   0  0  0  0  0  0  0  0  0  0  0  0
   -1.1560    1.3203    2.1487 C   0  0  0  0  0  0  0  0  0  0  0  0
    0.0395    0.9971    1.5235 C   0  0  0  0  0  0  0  0  0  0  0  0
   -1.1196   -1.2358   -0.7401 H   0  0  0  0  0  0  0  0  0  0  0  0
   -3.2482   -0.6604    0.3731 H   0  0  0  0  0  0  0  0  0  0  0  0
   -3.2716    0.9764    2.2230 H   0  0  0  0  0  0  0  0  0  0  0  0
   -1.1663    2.0378    2.9596 H   0  0  0  0  0  0  0  0  0  0  0  0
    0.9624    1.4624    1.8464 H   0  0  0  0  0  0  0  0  0  0  0  0
  1  2  2  3
  1  4  1  0
  1  5  1  0
  2  3  1  0
  2  6  1  0
  3  8  1  0
  3  9  1  0
  7 10  1  0
 10 11  2  0
 10 15  1  0
 11 12  1  0
 11 16  1  0
 12 13  2  0
 12 17  1  0
 13 14  1  0
 13 18  1  0
 14 15  2  0
 14 19  1  0
 15 20  1  0
M  RAD  1   3   2
M  END
>  <reaction>  (13) 
rxn_176

>  <mol_properties>  (13) 
{"1": {"label": "*0", "atom_type": "Cd"}, "2": {"label": "*1", "atom_type": "Cs"}, "6": {"label": "*2", "atom_type": "H0"}, "9": {"label": "*3", "atom_type": "Cd"}, "10": {"label": "*4", "atom_type": "Cd"}}

>  <type>  (13) 
unop_9

>  <geom_source>  (13) 
Heuristics

$$$$

     RDKit          3D

 20 19  0  0  0  0  0  0  0  0999 V2000
    1.7719   -1.1453   -3.6425 C   0  0  0  0  0  0  0  0  0  0  0  0
    1.7719   -1.1453   -2.3187 C   0  0  0  0  0  0  0  0  0  0  0  0
    1.7719    0.0768   -1.4582 C   0  0  0  0  0  3  0  0  0  0  0  0
    1.7719   -2.0681   -4.2090 H   0  0  0  0  0  0  0  0  0  0  0  0
    1.7719   -0.2197   -4.2085 H   0  0  0  0  0  0  0  0  0  0  0  0
    1.7719   -2.0980   -1.7952 H   0  0  0  0  0  0  0  0  0  0  0  0
    0.7186    0.0974   -0.6768 H   0  0  0  0  0  0  0  0  0  0  0  0
    1.7719    0.9873   -2.0588 H   0  0  0  0  0  0  0  0  0  0  0  0
    2.6496    0.0940   -0.8070 H   0  0  0  0  0  0  0  0  0  0  0  0
   -0.3248    0.1177    0.0974 C   0  0  0  0  0  0  0  0  0  0  0  0
   -0.5331   -0.9081    1.0078 C   0  0  0  0  0  0  0  0  0  0  0  0
   -1.1585   -0.6451    2.2179 C   0  0  0  0  0  0  0  0  0  0  0  0
   -1.5757    0.6436    2.5175 C   0  0  0  0  0  0  0  0  0  0  0  0
   -1.3673    1.6694    1.6071 C   0  0  0  0  0  0  0  0  0  0  0  0
   -0.7419    1.4065    0.3970 C   0  0  0  0  0  0  0  0  0  0  0  0
   -0.2075   -1.9140    0.7740 H   0  0  0  0  0  0  0  0  0  0  0  0
   -1.3211   -1.4458    2.9286 H   0  0  0  0  0  0  0  0  0  0  0  0
   -2.0639    0.8488    3.4621 H   0  0  0  0  0  0  0  0  0  0  0  0
   -1.6929    2.6753    1.8409 H   0  0  0  0  0  0  0  0  0  0  0  0
   -0.5793    2.2072   -0.3137 H   0  0  0  0  0  0  0  0  0  0  0  0
  1  2  2  3
  1  4  1  0
  1  5  1  0
  2  3  1  0
  2  6  1  0
  3  8  1  0
  3  9  1  0
  7 10  1  0
 10 11  2  0
 10 15  1  0
 11 12  1  0
 11 16  1  0
 12 13  2  0
 12 17  1  0
 13 14  1  0
 13 18  1  0
 14 15  2  0
 14 19  1  0
 15 20  1  0
M  RAD  1   3   2
M  END
>  <reaction>  (14) 
rxn_176

>  <mol_properties>  (14) 
{"1": {"label": "*0", "atom_type": "Cd"}, "2": {"label": "*1", "atom_type": "Cs"}, "6": {"label": "*2", "atom_type": "H0"}, "9": {"label": "*3", "atom_type": "Cd"}, "10": {"label": "*4", "atom_type": "Cd"}}

>  <type>  (14) 
unop_10

>  <geom_source>  (14) 
Heuristics

$$$$

     RDKit          3D

 20 19  0  0  0  0  0  0  0  0999 V2000
    1.7125   -1.0617   -3.6838 C   0  0  0  0  0  0  0  0  0  0  0  0
    1.7125   -1.0617   -2.3600 C   0  0  0  0  0  0  0  0  0  0  0  0
    1.7125    0.1605   -1.4995 C   0  0  0  0  0  3  0  0  0  0  0  0
    1.7125   -1.9844   -4.2502 H   0  0  0  0  0  0  0  0  0  0  0  0
    1.7125   -0.1361   -4.2498 H   0  0  0  0  0  0  0  0  0  0  0  0
    1.7125   -2.0143   -1.8365 H   0  0  0  0  0  0  0  0  0  0  0  0
    0.6592    0.1810   -0.7180 H   0  0  0  0  0  0  0  0  0  0  0  0
    1.7125    1.0709   -2.1001 H   0  0  0  0  0  0  0  0  0  0  0  0
    2.5902    0.1776   -0.8483 H   0  0  0  0  0  0  0  0  0  0  0  0
   -0.3842    0.2013    0.0561 C   0  0  0  0  0  0  0  0  0  0  0  0
   -0.9305    1.4135    0.4523 C   0  0  0  0  0  0  0  0  0  0  0  0
   -1.4661    1.5501    1.7247 C   0  0  0  0  0  0  0  0  0  0  0  0
   -1.4555    0.4746    2.6009 C   0  0  0  0  0  0  0  0  0  0  0  0
   -0.9093   -0.7375    2.2047 C   0  0  0  0  0  0  0  0  0  0  0  0
   -0.3736   -0.8742    0.9323 C   0  0  0  0  0  0  0  0  0  0  0  0
   -0.9387    2.2530   -0.2316 H   0  0  0  0  0  0  0  0  0  0  0  0
   -1.8925    2.4962    2.0339 H   0  0  0  0  0  0  0  0  0  0  0  0
   -1.8736    0.5812    3.5941 H   0  0  0  0  0  0  0  0  0  0  0  0
   -0.9010   -1.5770    2.8887 H   0  0  0  0  0  0  0  0  0  0  0  0
    0.0527   -1.8203    0.6231 H   0  0  0  0  0  0  0  0  0  0  0  0
  1  2  2  3
  1  4  1  0
  1  5  1  0
  2  3  1  0
  2  6  1  0
  3  8  1  0
  3  9  1  0
  7 10  1  0
 10 11  2  0
 10 15  1  0
 11 12  1  0
 11 16  1  0
 12 13  2  0
 12 17  1  0
 13 14  1  0
 13 18  1  0
 14 15  2  0
 14 19  1  0
 15 20  1  0
M  RAD  1   3   2
M  END
>  <reaction>  (15) 
rxn_176

>  <mol_properties>  (15) 
{"1": {"label": "*0", "atom_type": "Cd"}, "2": {"label": "*1", "atom_type": "Cs"}, "6": {"label": "*2", "atom_type": "H0"}, "9": {"label": "*3", "atom_type": "Cd"}, "10": {"label": "*4", "atom_type": "Cd"}}

>  <type>  (15) 
unop_11

>  <geom_source>  (15) 
Heuristics

$$$$

     RDKit          3D

 20 19  0  0  0  0  0  0  0  0999 V2000
    2.0953   -0.9857   -3.3886 C   0  0  0  0  0  0  0  0  0  0  0  0
    2.0953   -0.9857   -2.0648 C   0  0  0  0  0  0  0  0  0  0  0  0
    2.0953    0.2365   -1.2043 C   0  0  0  0  0  3  0  0  0  0  0  0
    2.0953   -1.9084   -3.9551 H   0  0  0  0  0  0  0  0  0  0  0  0
    2.0953   -0.0601   -3.9546 H   0  0  0  0  0  0  0  0  0  0  0  0
    2.0953   -1.9383   -1.5413 H   0  0  0  0  0  0  0  0  0  0  0  0
    1.0421    0.2571   -0.4229 H   0  0  0  0  0  0  0  0  0  0  0  0
    2.0953    1.1470   -1.8049 H   0  0  0  0  0  0  0  0  0  0  0  0
    2.9730    0.2536   -0.5531 H   0  0  0  0  0  0  0  0  0  0  0  0
   -0.0014    0.2774    0.3513 C   0  0  0  0  0  0  0  0  0  0  0  0
   -0.9256   -0.7557    0.2970 C   0  0  0  0  0  0  0  0  0  0  0  0
   -2.0396   -0.7340    1.1235 C   0  0  0  0  0  0  0  0  0  0  0  0
   -2.2293    0.3209    2.0043 C   0  0  0  0  0  0  0  0  0  0  0  0
   -1.3051    1.3540    2.0587 C   0  0  0  0  0  0  0  0  0  0  0  0
   -0.1911    1.3323    1.2321 C   0  0  0  0  0  0  0  0  0  0  0  0
   -0.7776   -1.5791   -0.3906 H   0  0  0  0  0  0  0  0  0  0  0  0
   -2.7611   -1.5404    1.0811 H   0  0  0  0  0  0  0  0  0  0  0  0
   -3.0989    0.3378    2.6495 H   0  0  0  0  0  0  0  0  0  0  0  0
   -1.4531    2.1773    2.7462 H   0  0  0  0  0  0  0  0  0  0  0  0
    0.5304    2.1387    1.2745 H   0  0  0  0  0  0  0  0  0  0  0  0
  1  2  2  3
  1  4  1  0
  1  5  1  0
  2  3  1  0
  2  6  1  0
  3  8  1  0
  3  9  1  0
  7 10  1  0
 10 11  2  0
 10 15  1  0
 11 12  1  0
 11 16  1  0
 12 13  2  0
 12 17  1  0
 13 14  1  0
 13 18  1  0
 14 15  2  0
 14 19  1  0
 15 20  1  0
M  RAD  1   3   2
M  END
>  <reaction>  (16) 
rxn_176

>  <mol_properties>  (16) 
{"1": {"label": "*0", "atom_type": "Cd"}, "2": {"label": "*1", "atom_type": "Cs"}, "6": {"label": "*2", "atom_type": "H0"}, "9": {"label": "*3", "atom_type": "Cd"}, "10": {"label": "*4", "atom_type": "Cd"}}

>  <type>  (16) 
unop_12

>  <geom_source>  (16) 
Heuristics

$$$$

     RDKit          3D

 20 19  0  0  0  0  0  0  0  0999 V2000
   -0.5613    0.8237    0.6285 C   0  0  0  0  0  0  0  0  0  0  0  0
   -1.7208    1.2895    1.2576 C   0  0  0  0  0  0  0  0  0  0  0  0
   -0.6378   -0.2310   -0.2870 C   0  0  0  0  0  0  0  0  0  0  0  0
   -2.9570    0.7002    0.9708 C   0  0  0  0  0  0  0  0  0  0  0  0
   -1.8734   -0.8203   -0.5738 C   0  0  0  0  0  0  0  0  0  0  0  0
   -3.0333   -0.3548    0.0550 C   0  0  0  0  0  0  0  0  0  0  0  0
    2.7819   -0.7866   -0.4397 C   0  0  0  0  0  0  0  0  0  0  0  0
    1.7165   -0.2771   -1.3564 C   0  0  0  0  0  0  0  0  0  0  0  0
    3.3076   -0.0002    0.5007 C   0  0  0  0  0  3  0  0  0  0  0  0
    0.3954    1.2787    0.8495 H   0  0  0  0  0  0  0  0  0  0  0  0
   -1.6617    2.1056    1.9660 H   0  0  0  0  0  0  0  0  0  0  0  0
    0.3605   -0.6318   -0.8284 H   0  0  0  0  0  0  0  0  0  0  0  0
   -3.8541    1.0604    1.4574 H   0  0  0  0  0  0  0  0  0  0  0  0
   -1.9312   -1.6362   -1.2823 H   0  0  0  0  0  0  0  0  0  0  0  0
   -3.9894   -0.8108   -0.1669 H   0  0  0  0  0  0  0  0  0  0  0  0
    3.1227   -1.8136   -0.5328 H   0  0  0  0  0  0  0  0  0  0  0  0
    2.1138    0.5548   -1.9755 H   0  0  0  0  0  0  0  0  0  0  0  0
    1.3677   -1.0934   -2.0230 H   0  0  0  0  0  0  0  0  0  0  0  0
    2.9779    1.0281    0.6169 H   0  0  0  0  0  0  0  0  0  0  0  0
    4.0760   -0.3850    1.1633 H   0  0  0  0  0  0  0  0  0  0  0  0
  1  2  2  0
  1  3  1  0
  1 10  1  0
  2  4  1  0
  2 11  1  0
  3  5  2  0
  3 12  1  0
  4  6  2  0
  4 13  1  0
  5  6  1  0
  5 14  1  0
  6 15  1  0
  7  8  2  3
  7  9  1  0
  7 16  1  0
  8 17  1  0
  8 18  1  0
  9 19  1  0
  9 20  1  0
M  RAD  1   9   2
M  END
>  <reaction>  (17) 
rxn_176

>  <mol_properties>  (17) 
{"1": {"label": "*0", "atom_type": "Cd"}, "2": {"label": "*1", "atom_type": "Cs"}, "6": {"label": "*2", "atom_type": "H0"}, "9": {"label": "*3", "atom_type": "Cd"}, "10": {"label": "*4", "atom_type": "Cd"}}

>  <type>  (17) 
unop_13

>  <geom_source>  (17) 
AutoTST

$$$$
