
     RDKit          3D

 11 10  0  0  0  0  0  0  0  0999 V2000
   -1.2710    0.1907   -0.2084 C   0  0  0  0  0  0  0  0  0  0  0  0
    0.0202   -0.6130   -0.2928 C   0  0  0  0  0  0  0  0  0  0  0  0
    0.1086   -1.6953    0.7756 C   0  0  0  0  0  0  0  0  0  0  0  0
   -1.3607    0.6851    0.7620 H   0  0  0  0  0  0  0  0  0  0  0  0
   -2.1429   -0.4567   -0.3299 H   0  0  0  0  0  0  0  0  0  0  0  0
   -1.3158    0.9602   -0.9809 H   0  0  0  0  0  0  0  0  0  0  0  0
    0.8757    0.0616   -0.1992 H   0  0  0  0  0  0  0  0  0  0  0  0
    0.0997   -1.0712   -1.2825 H   0  0  0  0  0  0  0  0  0  0  0  0
   -0.7198   -2.4022    0.6850 H   0  0  0  0  0  0  0  0  0  0  0  0
    1.0395   -2.2596    0.6989 H   0  0  0  0  0  0  0  0  0  0  0  0
    0.0624   -1.2603    1.7770 H   0  0  0  0  0  0  0  0  0  0  0  0
  1  2  1  0
  1  4  1  0
  1  5  1  0
  1  6  1  0
  2  3  1  0
  2  7  1  0
  2  8  1  0
  3  9  1  0
  3 10  1  0
  3 11  1  0
M  END
>  <reaction>  (1) 
rxn_920

>  <mol_properties>  (1) 
{"1": {"label": "donator", "atom_type": "Cs"}, "6": {"label": "d_hydrogen", "atom_type": "H0"}}

>  <type>  (1) 
r1h

$$$$

     RDKit          3D

 12 11  0  0  0  0  0  0  0  0999 V2000
    2.5164   -0.5559   -0.0242 C   0  0  0  0  0  0  0  0  0  0  0  0
    1.3287   -0.2938   -0.0132 C   0  0  0  0  0  0  0  0  0  0  0  0
   -0.0146    0.0027   -0.0006 C   0  0  0  0  0  3  0  0  0  0  0  0
   -1.0396   -1.0729   -0.1642 C   0  0  0  0  0  0  0  0  0  0  0  0
   -0.4887    1.4091    0.1769 C   0  0  0  0  0  0  0  0  0  0  0  0
    3.5543   -0.7850   -0.0339 H   0  0  0  0  0  0  0  0  0  0  0  0
   -1.7064   -1.1056    0.7044 H   0  0  0  0  0  0  0  0  0  0  0  0
   -0.5831   -2.0533   -0.2854 H   0  0  0  0  0  0  0  0  0  0  0  0
   -1.6716   -0.8741   -1.0367 H   0  0  0  0  0  0  0  0  0  0  0  0
   -1.0951    1.7228   -0.6798 H   0  0  0  0  0  0  0  0  0  0  0  0
    0.3401    2.1059    0.2861 H   0  0  0  0  0  0  0  0  0  0  0  0
   -1.1300    1.4913    1.0613 H   0  0  0  0  0  0  0  0  0  0  0  0
  1  2  3  0
  1  6  1  0
  2  3  1  0
  3  4  1  0
  3  5  1  0
  4  7  1  0
  4  8  1  0
  4  9  1  0
  5 10  1  0
  5 11  1  0
  5 12  1  0
M  RAD  1   3   2
M  END
>  <reaction>  (2) 
rxn_920

>  <mol_properties>  (2) 
{"2": {"label": "acceptor", "atom_type": "Cs"}}

>  <type>  (2) 
r2

$$$$

     RDKit          3D

 13 12  0  0  0  0  0  0  0  0999 V2000
    2.2975   -0.6134    0.7685 C   0  0  0  0  0  0  0  0  0  0  0  0
    1.1676   -0.5248    0.3802 C   0  0  0  0  0  0  0  0  0  0  0  0
   -0.2109   -0.3926   -0.0948 C   0  0  0  0  0  0  0  0  0  0  0  0
   -0.2501    0.2584   -1.4808 C   0  0  0  0  0  0  0  0  0  0  0  0
   -1.0633    0.3831    0.9141 C   0  0  0  0  0  0  0  0  0  0  0  0
    3.2999   -0.6974    1.1133 H   0  0  0  0  0  0  0  0  0  0  0  0
   -0.6209   -1.4038   -0.1814 H   0  0  0  0  0  0  0  0  0  0  0  0
    0.3402   -0.3102   -2.1992 H   0  0  0  0  0  0  0  0  0  0  0  0
    0.1511    1.2724   -1.4369 H   0  0  0  0  0  0  0  0  0  0  0  0
   -1.2791    0.3109   -1.8407 H   0  0  0  0  0  0  0  0  0  0  0  0
   -0.6861    1.4008    1.0287 H   0  0  0  0  0  0  0  0  0  0  0  0
   -1.0492   -0.0971    1.8924 H   0  0  0  0  0  0  0  0  0  0  0  0
   -2.0971    0.4363    0.5680 H   0  0  0  0  0  0  0  0  0  0  0  0
  1  2  3  0
  1  6  1  0
  2  3  1  0
  3  4  1  0
  3  5  1  0
  3  7  1  0
  4  8  1  0
  4  9  1  0
  4 10  1  0
  5 11  1  0
  5 12  1  0
  5 13  1  0
M  END
>  <reaction>  (3) 
rxn_920

>  <mol_properties>  (3) 
{"2": {"label": "acceptor", "atom_type": "Cs"}, "12": {"label": "a_hydrogen", "atom_type": "H0"}}

>  <type>  (3) 
r2h

$$$$

     RDKit          3D

 23 21  0  0  0  0  0  0  0  0999 V2000
    2.3262    0.2975   -1.0637 C   0  0  0  0  0  0  0  0  0  0  0  0
    1.5309   -0.0869   -0.2473 C   0  0  0  0  0  0  0  0  0  0  0  0
    0.5388   -0.5140    0.6976 C   0  0  0  0  0  0  0  0  0  0  0  0
    0.7313    0.0383    2.0981 C   0  0  0  0  0  0  0  0  0  0  0  0
    0.2270   -1.9985    0.6479 C   0  0  0  0  0  0  0  0  0  0  0  0
    3.0412    0.6286   -1.7774 H   0  0  0  0  0  0  0  0  0  0  0  0
   -0.1500   -0.1721    2.7080 H   0  0  0  0  0  0  0  0  0  0  0  0
    0.8877    1.1170    2.0767 H   0  0  0  0  0  0  0  0  0  0  0  0
    1.5972   -0.4194    2.5850 H   0  0  0  0  0  0  0  0  0  0  0  0
    1.0602   -2.5880    1.0410 H   0  0  0  0  0  0  0  0  0  0  0  0
    0.0353   -2.3255   -0.3743 H   0  0  0  0  0  0  0  0  0  0  0  0
   -0.6561   -2.2161    1.2527 H   0  0  0  0  0  0  0  0  0  0  0  0
   -1.8233    0.1021   -1.5939 C   0  0  0  0  0  0  0  0  0  0  0  0
   -1.6908    0.6898   -0.2178 C   0  0  0  0  0  3  0  0  0  0  0  0
   -1.3180    2.1430   -0.1407 C   0  0  0  0  0  0  0  0  0  0  0  0
   -0.8956    0.2306   -2.1581 H   0  0  0  0  0  0  0  0  0  0  0  0
   -2.6225    0.5938   -2.1613 H   0  0  0  0  0  0  0  0  0  0  0  0
   -2.0527   -0.9640   -1.5566 H   0  0  0  0  0  0  0  0  0  0  0  0
   -0.5529    0.0471    0.2891 H   0  0  0  0  0  0  0  0  0  0  0  0
   -2.4717    0.3869    0.4792 H   0  0  0  0  0  0  0  0  0  0  0  0
   -2.0823    2.7752   -0.6080 H   0  0  0  0  0  0  0  0  0  0  0  0
   -1.2012    2.4749    0.8921 H   0  0  0  0  0  0  0  0  0  0  0  0
   -0.3765    2.3270   -0.6654 H   0  0  0  0  0  0  0  0  0  0  0  0
  1  2  3  0
  1  6  1  0
  2  3  1  0
  3  4  1  0
  3  5  1  0
  3 19  1  0
  4  7  1  0
  4  8  1  0
  4  9  1  0
  5 10  1  0
  5 11  1  0
  5 12  1  0
 13 14  1  0
 13 16  1  0
 13 17  1  0
 13 18  1  0
 14 15  1  0
 14 20  1  0
 15 21  1  0
 15 22  1  0
 15 23  1  0
M  RAD  1  14   2
M  END
>  <reaction>  (4) 
rxn_920

>  <mol_properties>  (4) 
{"1": {"label": "*0", "atom_type": "Ct"}, "2": {"label": "*1", "atom_type": "Cs"}, "12": {"label": "*4", "atom_type": "Cs"}, "13": {"label": "*3", "atom_type": "Cs"}, "18": {"label": "*2", "atom_type": "H0"}}

>  <type>  (4) 
ts

$$$$

     RDKit          3D

 23 21  0  0  0  0  0  0  0  0999 V2000
    2.0551    0.9104    1.6441 C   0  0  0  0  0  0  0  0  0  0  0  0
    1.4047    0.1596    0.9742 C   0  0  0  0  0  0  0  0  0  0  0  0
    0.6150   -0.7755    0.1709 C   0  0  0  0  0  3  0  0  0  0  0  0
   -0.5670   -1.3232    0.9766 C   0  0  0  0  0  0  0  0  0  0  0  0
    1.4949   -1.9049   -0.3733 C   0  0  0  0  0  0  0  0  0  0  0  0
    2.6323    1.5767    2.2387 H   0  0  0  0  0  0  0  0  0  0  0  0
   -1.1710   -1.9843    0.3527 H   0  0  0  0  0  0  0  0  0  0  0  0
   -1.2015   -0.5160    1.3424 H   0  0  0  0  0  0  0  0  0  0  0  0
   -0.2105   -1.8927    1.8367 H   0  0  0  0  0  0  0  0  0  0  0  0
    1.9122   -2.4916    0.4469 H   0  0  0  0  0  0  0  0  0  0  0  0
    2.3213   -1.5099   -0.9640 H   0  0  0  0  0  0  0  0  0  0  0  0
    0.9028   -2.5694   -1.0051 H   0  0  0  0  0  0  0  0  0  0  0  0
   -1.4850    0.5364   -2.2265 C   0  0  0  0  0  0  0  0  0  0  0  0
   -1.4850    0.5364   -0.7031 C   0  0  0  0  0  0  0  0  0  0  0  0
   -1.4850    1.9423   -0.1164 C   0  0  0  0  0  0  0  0  0  0  0  0
   -0.6036    1.0507   -2.6171 H   0  0  0  0  0  0  0  0  0  0  0  0
   -2.3665    1.0507   -2.6171 H   0  0  0  0  0  0  0  0  0  0  0  0
   -1.4850   -0.4785   -2.6276 H   0  0  0  0  0  0  0  0  0  0  0  0
   -0.4356   -0.1192   -0.2663 H   0  0  0  0  0  0  0  0  0  0  0  0
   -2.3595   -0.0099   -0.3391 H   0  0  0  0  0  0  0  0  0  0  0  0
   -2.3665    2.5008   -0.4406 H   0  0  0  0  0  0  0  0  0  0  0  0
   -1.4850    1.9216    0.9747 H   0  0  0  0  0  0  0  0  0  0  0  0
   -0.6036    2.5008   -0.4406 H   0  0  0  0  0  0  0  0  0  0  0  0
  1  2  3  0
  1  6  1  0
  2  3  1  0
  3  4  1  0
  3  5  1  0
  4  7  1  0
  4  8  1  0
  4  9  1  0
  5 10  1  0
  5 11  1  0
  5 12  1  0
 13 14  1  0
 13 16  1  0
 13 17  1  0
 13 18  1  0
 14 15  1  0
 14 19  1  0
 14 20  1  0
 15 21  1  0
 15 22  1  0
 15 23  1  0
M  RAD  1   3   2
M  END
>  <reaction>  (5) 
rxn_920

>  <mol_properties>  (5) 
{"1": {"label": "*0", "atom_type": "Ct"}, "2": {"label": "*1", "atom_type": "Cs"}, "12": {"label": "*4", "atom_type": "Cs"}, "13": {"label": "*3", "atom_type": "Cs"}, "18": {"label": "*2", "atom_type": "H0"}}

>  <type>  (5) 
unop_1

>  <geom_source>  (5) 
Heuristics

$$$$

     RDKit          3D

 23 21  0  0  0  0  0  0  0  0999 V2000
    2.4024   -0.4012   -1.2391 C   0  0  0  0  0  0  0  0  0  0  0  0
    1.5234   -0.5299   -0.4352 C   0  0  0  0  0  0  0  0  0  0  0  0
    0.4655   -0.6937    0.5635 C   0  0  0  0  0  3  0  0  0  0  0  0
    0.6648    0.2751    1.7330 C   0  0  0  0  0  0  0  0  0  0  0  0
    0.3896   -2.1461    1.0443 C   0  0  0  0  0  0  0  0  0  0  0  0
    3.1826   -0.2869   -1.9525 H   0  0  0  0  0  0  0  0  0  0  0  0
   -0.1536    0.1725    2.4477 H   0  0  0  0  0  0  0  0  0  0  0  0
    0.6959    1.3082    1.3870 H   0  0  0  0  0  0  0  0  0  0  0  0
    1.6018    0.0607    2.2499 H   0  0  0  0  0  0  0  0  0  0  0  0
    1.3184   -2.4320    1.5409 H   0  0  0  0  0  0  0  0  0  0  0  0
    0.2257   -2.8284    0.2103 H   0  0  0  0  0  0  0  0  0  0  0  0
   -0.4305   -2.2627    1.7550 H   0  0  0  0  0  0  0  0  0  0  0  0
   -1.6344    0.6182   -1.8339 C   0  0  0  0  0  0  0  0  0  0  0  0
   -1.6344    0.6182   -0.3106 C   0  0  0  0  0  0  0  0  0  0  0  0
   -1.6344    2.0240    0.2761 C   0  0  0  0  0  0  0  0  0  0  0  0
   -0.7530    1.1325   -2.2246 H   0  0  0  0  0  0  0  0  0  0  0  0
   -2.5159    1.1325   -2.2246 H   0  0  0  0  0  0  0  0  0  0  0  0
   -1.6344   -0.3967   -2.2351 H   0  0  0  0  0  0  0  0  0  0  0  0
   -0.5850   -0.0374    0.1262 H   0  0  0  0  0  0  0  0  0  0  0  0
   -2.5090    0.0718    0.0534 H   0  0  0  0  0  0  0  0  0  0  0  0
   -2.5159    2.5826   -0.0480 H   0  0  0  0  0  0  0  0  0  0  0  0
   -1.6344    2.0033    1.3672 H   0  0  0  0  0  0  0  0  0  0  0  0
   -0.7530    2.5826   -0.0480 H   0  0  0  0  0  0  0  0  0  0  0  0
  1  2  3  0
  1  6  1  0
  2  3  1  0
  3  4  1  0
  3  5  1  0
  4  7  1  0
  4  8  1  0
  4  9  1  0
  5 10  1  0
  5 11  1  0
  5 12  1  0
 13 14  1  0
 13 16  1  0
 13 17  1  0
 13 18  1  0
 14 15  1  0
 14 19  1  0
 14 20  1  0
 15 21  1  0
 15 22  1  0
 15 23  1  0
M  RAD  1   3   2
M  END
>  <reaction>  (6) 
rxn_920

>  <mol_properties>  (6) 
{"1": {"label": "*0", "atom_type": "Ct"}, "2": {"label": "*1", "atom_type": "Cs"}, "12": {"label": "*4", "atom_type": "Cs"}, "13": {"label": "*3", "atom_type": "Cs"}, "18": {"label": "*2", "atom_type": "H0"}}

>  <type>  (6) 
unop_2

>  <geom_source>  (6) 
Heuristics

$$$$

     RDKit          3D

 23 21  0  0  0  0  0  0  0  0999 V2000
    1.3574    0.3843    2.4779 C   0  0  0  0  0  0  0  0  0  0  0  0
    1.0434   -0.0824    1.4200 C   0  0  0  0  0  0  0  0  0  0  0  0
    0.6696   -0.6735    0.1339 C   0  0  0  0  0  3  0  0  0  0  0  0
   -0.3050   -1.8385    0.3319 C   0  0  0  0  0  0  0  0  0  0  0  0
    1.9126   -1.1082   -0.6484 C   0  0  0  0  0  0  0  0  0  0  0  0
    1.6360    0.7985    3.4167 H   0  0  0  0  0  0  0  0  0  0  0  0
   -0.6087   -2.2411   -0.6360 H   0  0  0  0  0  0  0  0  0  0  0  0
   -1.1972   -1.5179    0.8697 H   0  0  0  0  0  0  0  0  0  0  0  0
    0.1686   -2.6384    0.9039 H   0  0  0  0  0  0  0  0  0  0  0  0
    2.4516   -1.8865   -0.1054 H   0  0  0  0  0  0  0  0  0  0  0  0
    2.5916   -0.2702   -0.8052 H   0  0  0  0  0  0  0  0  0  0  0  0
    1.6218   -1.5066   -1.6220 H   0  0  0  0  0  0  0  0  0  0  0  0
   -1.4304    0.6384   -2.2635 C   0  0  0  0  0  0  0  0  0  0  0  0
   -1.4304    0.6384   -0.7401 C   0  0  0  0  0  0  0  0  0  0  0  0
   -1.4304    2.0442   -0.1534 C   0  0  0  0  0  0  0  0  0  0  0  0
   -0.5490    1.1526   -2.6541 H   0  0  0  0  0  0  0  0  0  0  0  0
   -2.3119    1.1526   -2.6541 H   0  0  0  0  0  0  0  0  0  0  0  0
   -1.4304   -0.3765   -2.6646 H   0  0  0  0  0  0  0  0  0  0  0  0
   -0.3810   -0.0172   -0.3033 H   0  0  0  0  0  0  0  0  0  0  0  0
   -2.3049    0.0920   -0.3761 H   0  0  0  0  0  0  0  0  0  0  0  0
   -2.3119    2.6028   -0.4776 H   0  0  0  0  0  0  0  0  0  0  0  0
   -1.4304    2.0235    0.9377 H   0  0  0  0  0  0  0  0  0  0  0  0
   -0.5490    2.6028   -0.4776 H   0  0  0  0  0  0  0  0  0  0  0  0
  1  2  3  0
  1  6  1  0
  2  3  1  0
  3  4  1  0
  3  5  1  0
  4  7  1  0
  4  8  1  0
  4  9  1  0
  5 10  1  0
  5 11  1  0
  5 12  1  0
 13 14  1  0
 13 16  1  0
 13 17  1  0
 13 18  1  0
 14 15  1  0
 14 19  1  0
 14 20  1  0
 15 21  1  0
 15 22  1  0
 15 23  1  0
M  RAD  1   3   2
M  END
>  <reaction>  (7) 
rxn_920

>  <mol_properties>  (7) 
{"1": {"label": "*0", "atom_type": "Ct"}, "2": {"label": "*1", "atom_type": "Cs"}, "12": {"label": "*4", "atom_type": "Cs"}, "13": {"label": "*3", "atom_type": "Cs"}, "18": {"label": "*2", "atom_type": "H0"}}

>  <type>  (7) 
unop_3

>  <geom_source>  (7) 
Heuristics

$$$$

     RDKit          3D

 23 21  0  0  0  0  0  0  0  0999 V2000
    0.5931   -2.8323   -0.4922 C   0  0  0  0  0  0  0  0  0  0  0  0
    0.6651   -1.7074   -0.0861 C   0  0  0  0  0  0  0  0  0  0  0  0
    0.7642   -0.3409    0.4297 C   0  0  0  0  0  3  0  0  0  0  0  0
    2.2292    0.0757    0.5923 C   0  0  0  0  0  0  0  0  0  0  0  0
   -0.0096   -0.1965    1.7437 C   0  0  0  0  0  0  0  0  0  0  0  0
    0.5291   -3.8307   -0.8525 H   0  0  0  0  0  0  0  0  0  0  0  0
    2.2883    1.1100    0.9356 H   0  0  0  0  0  0  0  0  0  0  0  0
    2.7689   -0.0081   -0.3509 H   0  0  0  0  0  0  0  0  0  0  0  0
    2.7267   -0.5596    1.3271 H   0  0  0  0  0  0  0  0  0  0  0  0
    0.4218   -0.8399    2.5125 H   0  0  0  0  0  0  0  0  0  0  0  0
   -1.0561   -0.4733    1.6163 H   0  0  0  0  0  0  0  0  0  0  0  0
    0.0365    0.8362    2.0937 H   0  0  0  0  0  0  0  0  0  0  0  0
   -1.3357    0.9710   -1.9677 C   0  0  0  0  0  0  0  0  0  0  0  0
   -1.3357    0.9710   -0.4443 C   0  0  0  0  0  0  0  0  0  0  0  0
   -1.3357    2.3768    0.1424 C   0  0  0  0  0  0  0  0  0  0  0  0
   -0.4543    1.4853   -2.3583 H   0  0  0  0  0  0  0  0  0  0  0  0
   -2.2172    1.4853   -2.3583 H   0  0  0  0  0  0  0  0  0  0  0  0
   -1.3357   -0.0439   -2.3688 H   0  0  0  0  0  0  0  0  0  0  0  0
   -0.2863    0.3154   -0.0075 H   0  0  0  0  0  0  0  0  0  0  0  0
   -2.2103    0.4247   -0.0803 H   0  0  0  0  0  0  0  0  0  0  0  0
   -2.2172    2.9354   -0.1818 H   0  0  0  0  0  0  0  0  0  0  0  0
   -1.3357    2.3561    1.2335 H   0  0  0  0  0  0  0  0  0  0  0  0
   -0.4543    2.9354   -0.1818 H   0  0  0  0  0  0  0  0  0  0  0  0
  1  2  3  0
  1  6  1  0
  2  3  1  0
  3  4  1  0
  3  5  1  0
  4  7  1  0
  4  8  1  0
  4  9  1  0
  5 10  1  0
  5 11  1  0
  5 12  1  0
 13 14  1  0
 13 16  1  0
 13 17  1  0
 13 18  1  0
 14 15  1  0
 14 19  1  0
 14 20  1  0
 15 21  1  0
 15 22  1  0
 15 23  1  0
M  RAD  1   3   2
M  END
>  <reaction>  (8) 
rxn_920

>  <mol_properties>  (8) 
{"1": {"label": "*0", "atom_type": "Ct"}, "2": {"label": "*1", "atom_type": "Cs"}, "12": {"label": "*4", "atom_type": "Cs"}, "13": {"label": "*3", "atom_type": "Cs"}, "18": {"label": "*2", "atom_type": "H0"}}

>  <type>  (8) 
unop_4

>  <geom_source>  (8) 
Heuristics

$$$$

     RDKit          3D

 23 21  0  0  0  0  0  0  0  0999 V2000
    0.6056   -0.5686    2.8015 C   0  0  0  0  0  0  0  0  0  0  0  0
    0.6296   -0.5836    1.6037 C   0  0  0  0  0  0  0  0  0  0  0  0
    0.6792   -0.6146    0.1409 C   0  0  0  0  0  3  0  0  0  0  0  0
    0.5926   -2.0534   -0.3773 C   0  0  0  0  0  0  0  0  0  0  0  0
    1.9343    0.0942   -0.3773 C   0  0  0  0  0  0  0  0  0  0  0  0
    0.5843   -0.5553    3.8645 H   0  0  0  0  0  0  0  0  0  0  0  0
    0.5869   -2.0584   -1.4687 H   0  0  0  0  0  0  0  0  0  0  0  0
   -0.3133   -2.5451   -0.0233 H   0  0  0  0  0  0  0  0  0  0  0  0
    1.4512   -2.6338   -0.0352 H   0  0  0  0  0  0  0  0  0  0  0  0
    2.8325   -0.4228   -0.0352 H   0  0  0  0  0  0  0  0  0  0  0  0
    1.9789    1.1241   -0.0233 H   0  0  0  0  0  0  0  0  0  0  0  0
    1.9363    0.1016   -1.4687 H   0  0  0  0  0  0  0  0  0  0  0  0
   -1.4207    0.6973   -2.2565 C   0  0  0  0  0  0  0  0  0  0  0  0
   -1.4207    0.6973   -0.7332 C   0  0  0  0  0  0  0  0  0  0  0  0
   -1.4207    2.1032   -0.1464 C   0  0  0  0  0  0  0  0  0  0  0  0
   -0.5393    1.2116   -2.6471 H   0  0  0  0  0  0  0  0  0  0  0  0
   -2.3022    1.2116   -2.6471 H   0  0  0  0  0  0  0  0  0  0  0  0
   -1.4207   -0.3176   -2.6576 H   0  0  0  0  0  0  0  0  0  0  0  0
   -0.3713    0.0417   -0.2963 H   0  0  0  0  0  0  0  0  0  0  0  0
   -2.2953    0.1510   -0.3691 H   0  0  0  0  0  0  0  0  0  0  0  0
   -2.3022    2.6617   -0.4706 H   0  0  0  0  0  0  0  0  0  0  0  0
   -1.4207    2.0825    0.9447 H   0  0  0  0  0  0  0  0  0  0  0  0
   -0.5393    2.6617   -0.4706 H   0  0  0  0  0  0  0  0  0  0  0  0
  1  2  3  0
  1  6  1  0
  2  3  1  0
  3  4  1  0
  3  5  1  0
  4  7  1  0
  4  8  1  0
  4  9  1  0
  5 10  1  0
  5 11  1  0
  5 12  1  0
 13 14  1  0
 13 16  1  0
 13 17  1  0
 13 18  1  0
 14 15  1  0
 14 19  1  0
 14 20  1  0
 15 21  1  0
 15 22  1  0
 15 23  1  0
M  RAD  1   3   2
M  END
>  <reaction>  (9) 
rxn_920

>  <mol_properties>  (9) 
{"1": {"label": "*0", "atom_type": "Ct"}, "2": {"label": "*1", "atom_type": "Cs"}, "12": {"label": "*4", "atom_type": "Cs"}, "13": {"label": "*3", "atom_type": "Cs"}, "18": {"label": "*2", "atom_type": "H0"}}

>  <type>  (9) 
unop_5

>  <geom_source>  (9) 
Heuristics

$$$$

     RDKit          3D

 23 21  0  0  0  0  0  0  0  0999 V2000
    0.1051   -2.9365    0.5578 C   0  0  0  0  0  0  0  0  0  0  0  0
    0.4184   -1.7879    0.4238 C   0  0  0  0  0  0  0  0  0  0  0  0
    0.8143   -0.3858    0.2801 C   0  0  0  0  0  3  0  0  0  0  0  0
    2.3306   -0.2628    0.1020 C   0  0  0  0  0  0  0  0  0  0  0  0
    0.3192    0.4452    1.4678 C   0  0  0  0  0  0  0  0  0  0  0  0
   -0.1729   -3.9559    0.6767 H   0  0  0  0  0  0  0  0  0  0  0  0
    2.6064    0.7827   -0.0473 H   0  0  0  0  0  0  0  0  0  0  0  0
    2.6737   -0.8383   -0.7576 H   0  0  0  0  0  0  0  0  0  0  0  0
    2.8495   -0.6321    0.9884 H   0  0  0  0  0  0  0  0  0  0  0  0
    0.7787    0.0967    2.3944 H   0  0  0  0  0  0  0  0  0  0  0  0
   -0.7628    0.3712    1.5757 H   0  0  0  0  0  0  0  0  0  0  0  0
    0.5833    1.4947    1.3263 H   0  0  0  0  0  0  0  0  0  0  0  0
   -1.2857    0.9261   -2.1173 C   0  0  0  0  0  0  0  0  0  0  0  0
   -1.2857    0.9261   -0.5940 C   0  0  0  0  0  0  0  0  0  0  0  0
   -1.2857    2.3319   -0.0073 C   0  0  0  0  0  0  0  0  0  0  0  0
   -0.4042    1.4404   -2.5080 H   0  0  0  0  0  0  0  0  0  0  0  0
   -2.1671    1.4404   -2.5080 H   0  0  0  0  0  0  0  0  0  0  0  0
   -1.2857   -0.0888   -2.5185 H   0  0  0  0  0  0  0  0  0  0  0  0
   -0.2362    0.2705   -0.1572 H   0  0  0  0  0  0  0  0  0  0  0  0
   -2.1602    0.3798   -0.2300 H   0  0  0  0  0  0  0  0  0  0  0  0
   -2.1671    2.8905   -0.3314 H   0  0  0  0  0  0  0  0  0  0  0  0
   -1.2857    2.3113    1.0838 H   0  0  0  0  0  0  0  0  0  0  0  0
   -0.4042    2.8905   -0.3314 H   0  0  0  0  0  0  0  0  0  0  0  0
  1  2  3  0
  1  6  1  0
  2  3  1  0
  3  4  1  0
  3  5  1  0
  4  7  1  0
  4  8  1  0
  4  9  1  0
  5 10  1  0
  5 11  1  0
  5 12  1  0
 13 14  1  0
 13 16  1  0
 13 17  1  0
 13 18  1  0
 14 15  1  0
 14 19  1  0
 14 20  1  0
 15 21  1  0
 15 22  1  0
 15 23  1  0
M  RAD  1   3   2
M  END
>  <reaction>  (10) 
rxn_920

>  <mol_properties>  (10) 
{"1": {"label": "*0", "atom_type": "Ct"}, "2": {"label": "*1", "atom_type": "Cs"}, "12": {"label": "*4", "atom_type": "Cs"}, "13": {"label": "*3", "atom_type": "Cs"}, "18": {"label": "*2", "atom_type": "H0"}}

>  <type>  (10) 
unop_6

>  <geom_source>  (10) 
Heuristics

$$$$

     RDKit          3D

 23 21  0  0  0  0  0  0  0  0999 V2000
   -0.0879   -2.5198    1.6441 C   0  0  0  0  0  0  0  0  0  0  0  0
    0.3016   -1.6060    0.9742 C   0  0  0  0  0  0  0  0  0  0  0  0
    0.7957   -0.4862    0.1709 C   0  0  0  0  0  3  0  0  0  0  0  0
    2.1966   -0.7817   -0.3733 C   0  0  0  0  0  0  0  0  0  0  0  0
    0.7695    0.8162    0.9766 C   0  0  0  0  0  0  0  0  0  0  0  0
   -0.4335   -3.3308    2.2387 H   0  0  0  0  0  0  0  0  0  0  0  0
    2.5342    0.0418   -1.0051 H   0  0  0  0  0  0  0  0  0  0  0  0
    2.2040   -1.6977   -0.9640 H   0  0  0  0  0  0  0  0  0  0  0  0
    2.9069   -0.8995    0.4469 H   0  0  0  0  0  0  0  0  0  0  0  0
    1.4377    0.7456    1.8367 H   0  0  0  0  0  0  0  0  0  0  0  0
   -0.2342    1.0324    1.3424 H   0  0  0  0  0  0  0  0  0  0  0  0
    1.0988    1.6490    0.3527 H   0  0  0  0  0  0  0  0  0  0  0  0
   -1.3043    0.8257   -2.2265 C   0  0  0  0  0  0  0  0  0  0  0  0
   -1.3043    0.8257   -0.7031 C   0  0  0  0  0  0  0  0  0  0  0  0
   -1.3043    2.2315   -0.1164 C   0  0  0  0  0  0  0  0  0  0  0  0
   -0.4229    1.3400   -2.6171 H   0  0  0  0  0  0  0  0  0  0  0  0
   -2.1858    1.3400   -2.6171 H   0  0  0  0  0  0  0  0  0  0  0  0
   -1.3043   -0.1892   -2.6276 H   0  0  0  0  0  0  0  0  0  0  0  0
   -0.2549    0.1701   -0.2663 H   0  0  0  0  0  0  0  0  0  0  0  0
   -2.1788    0.2793   -0.3391 H   0  0  0  0  0  0  0  0  0  0  0  0
   -2.1858    2.7901   -0.4406 H   0  0  0  0  0  0  0  0  0  0  0  0
   -1.3043    2.2108    0.9747 H   0  0  0  0  0  0  0  0  0  0  0  0
   -0.4229    2.7901   -0.4406 H   0  0  0  0  0  0  0  0  0  0  0  0
  1  2  3  0
  1  6  1  0
  2  3  1  0
  3  4  1  0
  3  5  1  0
  4  7  1  0
  4  8  1  0
  4  9  1  0
  5 10  1  0
  5 11  1  0
  5 12  1  0
 13 14  1  0
 13 16  1  0
 13 17  1  0
 13 18  1  0
 14 15  1  0
 14 19  1  0
 14 20  1  0
 15 21  1  0
 15 22  1  0
 15 23  1  0
M  RAD  1   3   2
M  END
>  <reaction>  (11) 
rxn_920

>  <mol_properties>  (11) 
{"1": {"label": "*0", "atom_type": "Ct"}, "2": {"label": "*1", "atom_type": "Cs"}, "12": {"label": "*4", "atom_type": "Cs"}, "13": {"label": "*3", "atom_type": "Cs"}, "18": {"label": "*2", "atom_type": "H0"}}

>  <type>  (11) 
unop_7

>  <geom_source>  (11) 
Heuristics

$$$$

     RDKit          3D

 23 21  0  0  0  0  0  0  0  0999 V2000
    2.5142    0.9197    0.5578 C   0  0  0  0  0  0  0  0  0  0  0  0
    1.6193    0.1344    0.4238 C   0  0  0  0  0  0  0  0  0  0  0  0
    0.5328   -0.8363    0.2801 C   0  0  0  0  0  3  0  0  0  0  0  0
   -0.4311   -0.7557    1.4678 C   0  0  0  0  0  0  0  0  0  0  0  0
    1.0873   -2.2530    0.1020 C   0  0  0  0  0  0  0  0  0  0  0  0
    3.3084    1.6166    0.6767 H   0  0  0  0  0  0  0  0  0  0  0  0
   -1.2584   -1.4533    1.3263 H   0  0  0  0  0  0  0  0  0  0  0  0
   -0.8391    0.2491    1.5757 H   0  0  0  0  0  0  0  0  0  0  0  0
    0.0836   -1.0159    2.3944 H   0  0  0  0  0  0  0  0  0  0  0  0
    1.6467   -2.5573    0.9884 H   0  0  0  0  0  0  0  0  0  0  0  0
    1.7550   -2.3089   -0.7576 H   0  0  0  0  0  0  0  0  0  0  0  0
    0.2687   -2.9593   -0.0473 H   0  0  0  0  0  0  0  0  0  0  0  0
   -1.5671    0.4756   -2.1173 C   0  0  0  0  0  0  0  0  0  0  0  0
   -1.5671    0.4756   -0.5940 C   0  0  0  0  0  0  0  0  0  0  0  0
   -1.5671    1.8815   -0.0073 C   0  0  0  0  0  0  0  0  0  0  0  0
   -0.6857    0.9899   -2.5080 H   0  0  0  0  0  0  0  0  0  0  0  0
   -2.4486    0.9899   -2.5080 H   0  0  0  0  0  0  0  0  0  0  0  0
   -1.5671   -0.5392   -2.5185 H   0  0  0  0  0  0  0  0  0  0  0  0
   -0.5177   -0.1800   -0.1572 H   0  0  0  0  0  0  0  0  0  0  0  0
   -2.4417   -0.0707   -0.2300 H   0  0  0  0  0  0  0  0  0  0  0  0
   -2.4486    2.4400   -0.3314 H   0  0  0  0  0  0  0  0  0  0  0  0
   -1.5671    1.8608    1.0838 H   0  0  0  0  0  0  0  0  0  0  0  0
   -0.6857    2.4400   -0.3314 H   0  0  0  0  0  0  0  0  0  0  0  0
  1  2  3  0
  1  6  1  0
  2  3  1  0
  3  4  1  0
  3  5  1  0
  4  7  1  0
  4  8  1  0
  4  9  1  0
  5 10  1  0
  5 11  1  0
  5 12  1  0
 13 14  1  0
 13 16  1  0
 13 17  1  0
 13 18  1  0
 14 15  1  0
 14 19  1  0
 14 20  1  0
 15 21  1  0
 15 22  1  0
 15 23  1  0
M  RAD  1   3   2
M  END
>  <reaction>  (12) 
rxn_920

>  <mol_properties>  (12) 
{"1": {"label": "*0", "atom_type": "Ct"}, "2": {"label": "*1", "atom_type": "Cs"}, "12": {"label": "*4", "atom_type": "Cs"}, "13": {"label": "*3", "atom_type": "Cs"}, "18": {"label": "*2", "atom_type": "H0"}}

>  <type>  (12) 
unop_8

>  <geom_source>  (12) 
Heuristics

$$$$

     RDKit          3D

 23 21  0  0  0  0  0  0  0  0999 V2000
    1.2432   -2.2568   -1.2391 C   0  0  0  0  0  0  0  0  0  0  0  0
    0.9734   -1.4104   -0.4352 C   0  0  0  0  0  0  0  0  0  0  0  0
    0.6567   -0.3878    0.5635 C   0  0  0  0  0  3  0  0  0  0  0  0
    1.9286    0.3173    1.0443 C   0  0  0  0  0  0  0  0  0  0  0  0
   -0.1267   -0.9918    1.7330 C   0  0  0  0  0  0  0  0  0  0  0  0
    1.4826   -3.0080   -1.9525 H   0  0  0  0  0  0  0  0  0  0  0  0
    1.6737    1.1055    1.7550 H   0  0  0  0  0  0  0  0  0  0  0  0
    2.4699    0.7639    0.2103 H   0  0  0  0  0  0  0  0  0  0  0  0
    2.5929   -0.3920    1.5409 H   0  0  0  0  0  0  0  0  0  0  0  0
    0.4770   -1.7398    2.2499 H   0  0  0  0  0  0  0  0  0  0  0  0
   -1.0415   -1.4728    1.3870 H   0  0  0  0  0  0  0  0  0  0  0  0
   -0.3934   -0.2113    2.4477 H   0  0  0  0  0  0  0  0  0  0  0  0
   -1.4433    0.9241   -1.8339 C   0  0  0  0  0  0  0  0  0  0  0  0
   -1.4433    0.9241   -0.3106 C   0  0  0  0  0  0  0  0  0  0  0  0
   -1.4433    2.3299    0.2761 C   0  0  0  0  0  0  0  0  0  0  0  0
   -0.5619    1.4384   -2.2246 H   0  0  0  0  0  0  0  0  0  0  0  0
   -2.3248    1.4384   -2.2246 H   0  0  0  0  0  0  0  0  0  0  0  0
   -1.4433   -0.0908   -2.2351 H   0  0  0  0  0  0  0  0  0  0  0  0
   -0.3939    0.2685    0.1262 H   0  0  0  0  0  0  0  0  0  0  0  0
   -2.3178    0.3778    0.0534 H   0  0  0  0  0  0  0  0  0  0  0  0
   -2.3248    2.8885   -0.0480 H   0  0  0  0  0  0  0  0  0  0  0  0
   -1.4433    2.3092    1.3672 H   0  0  0  0  0  0  0  0  0  0  0  0
   -0.5618    2.8885   -0.0480 H   0  0  0  0  0  0  0  0  0  0  0  0
  1  2  3  0
  1  6  1  0
  2  3  1  0
  3  4  1  0
  3  5  1  0
  4  7  1  0
  4  8  1  0
  4  9  1  0
  5 10  1  0
  5 11  1  0
  5 12  1  0
 13 14  1  0
 13 16  1  0
 13 17  1  0
 13 18  1  0
 14 15  1  0
 14 19  1  0
 14 20  1  0
 15 21  1  0
 15 22  1  0
 15 23  1  0
M  RAD  1   3   2
M  END
>  <reaction>  (13) 
rxn_920

>  <mol_properties>  (13) 
{"1": {"label": "*0", "atom_type": "Ct"}, "2": {"label": "*1", "atom_type": "Cs"}, "12": {"label": "*4", "atom_type": "Cs"}, "13": {"label": "*3", "atom_type": "Cs"}, "18": {"label": "*2", "atom_type": "H0"}}

>  <type>  (13) 
unop_9

>  <geom_source>  (13) 
Heuristics

$$$$

     RDKit          3D

 23 21  0  0  0  0  0  0  0  0999 V2000
    2.6345    0.4355   -0.4922 C   0  0  0  0  0  0  0  0  0  0  0  0
    1.6552   -0.1226   -0.0861 C   0  0  0  0  0  0  0  0  0  0  0  0
    0.4706   -0.8110    0.4297 C   0  0  0  0  0  3  0  0  0  0  0  0
    0.0014   -0.1788    1.7437 C   0  0  0  0  0  0  0  0  0  0  0  0
    0.7386   -2.3103    0.5923 C   0  0  0  0  0  0  0  0  0  0  0  0
    3.5037    0.9307   -0.8525 H   0  0  0  0  0  0  0  0  0  0  0  0
   -0.9065   -0.6732    2.0937 H   0  0  0  0  0  0  0  0  0  0  0  0
   -0.2088    0.8830    1.6163 H   0  0  0  0  0  0  0  0  0  0  0  0
    0.7688   -0.2844    2.5125 H   0  0  0  0  0  0  0  0  0  0  0  0
    1.5277   -2.4787    1.3271 H   0  0  0  0  0  0  0  0  0  0  0  0
    1.0507   -2.7586   -0.3509 H   0  0  0  0  0  0  0  0  0  0  0  0
   -0.1650   -2.8170    0.9356 H   0  0  0  0  0  0  0  0  0  0  0  0
   -1.6294    0.5010   -1.9677 C   0  0  0  0  0  0  0  0  0  0  0  0
   -1.6294    0.5010   -0.4443 C   0  0  0  0  0  0  0  0  0  0  0  0
   -1.6294    1.9068    0.1424 C   0  0  0  0  0  0  0  0  0  0  0  0
   -0.7479    1.0152   -2.3583 H   0  0  0  0  0  0  0  0  0  0  0  0
   -2.5108    1.0152   -2.3583 H   0  0  0  0  0  0  0  0  0  0  0  0
   -1.6294   -0.5139   -2.3688 H   0  0  0  0  0  0  0  0  0  0  0  0
   -0.5800   -0.1547   -0.0075 H   0  0  0  0  0  0  0  0  0  0  0  0
   -2.5039   -0.0454   -0.0803 H   0  0  0  0  0  0  0  0  0  0  0  0
   -2.5108    2.4653   -0.1818 H   0  0  0  0  0  0  0  0  0  0  0  0
   -1.6294    1.8861    1.2335 H   0  0  0  0  0  0  0  0  0  0  0  0
   -0.7479    2.4653   -0.1818 H   0  0  0  0  0  0  0  0  0  0  0  0
  1  2  3  0
  1  6  1  0
  2  3  1  0
  3  4  1  0
  3  5  1  0
  4  7  1  0
  4  8  1  0
  4  9  1  0
  5 10  1  0
  5 11  1  0
  5 12  1  0
 13 14  1  0
 13 16  1  0
 13 17  1  0
 13 18  1  0
 14 15  1  0
 14 19  1  0
 14 20  1  0
 15 21  1  0
 15 22  1  0
 15 23  1  0
M  RAD  1   3   2
M  END
>  <reaction>  (14) 
rxn_920

>  <mol_properties>  (14) 
{"1": {"label": "*0", "atom_type": "Ct"}, "2": {"label": "*1", "atom_type": "Cs"}, "12": {"label": "*4", "atom_type": "Cs"}, "13": {"label": "*3", "atom_type": "Cs"}, "18": {"label": "*2", "atom_type": "H0"}}

>  <type>  (14) 
unop_10

>  <geom_source>  (14) 
Heuristics

$$$$

     RDKit          3D

 23 21  0  0  0  0  0  0  0  0999 V2000
    0.0790   -1.6621    2.4779 C   0  0  0  0  0  0  0  0  0  0  0  0
    0.3607   -1.1753    1.4200 C   0  0  0  0  0  0  0  0  0  0  0  0
    0.7280   -0.5800    0.1339 C   0  0  0  0  0  3  0  0  0  0  0  0
    1.6638   -1.5065   -0.6484 C   0  0  0  0  0  0  0  0  0  0  0  0
    1.3476    0.8068    0.3319 C   0  0  0  0  0  0  0  0  0  0  0  0
   -0.1711   -2.0941    3.4167 H   0  0  0  0  0  0  0  0  0  0  0  0
    1.8943   -1.0704   -1.6220 H   0  0  0  0  0  0  0  0  0  0  0  0
    1.2084   -2.4843   -0.8052 H   0  0  0  0  0  0  0  0  0  0  0  0
    2.5996   -1.6496   -0.1054 H   0  0  0  0  0  0  0  0  0  0  0  0
    2.2741    0.7319    0.9039 H   0  0  0  0  0  0  0  0  0  0  0  0
    0.6682    1.4679    0.8697 H   0  0  0  0  0  0  0  0  0  0  0  0
    1.5762    1.2562   -0.6360 H   0  0  0  0  0  0  0  0  0  0  0  0
   -1.3720    0.7319   -2.2635 C   0  0  0  0  0  0  0  0  0  0  0  0
   -1.3720    0.7319   -0.7401 C   0  0  0  0  0  0  0  0  0  0  0  0
   -1.3720    2.1377   -0.1534 C   0  0  0  0  0  0  0  0  0  0  0  0
   -0.4905    1.2462   -2.6541 H   0  0  0  0  0  0  0  0  0  0  0  0
   -2.2534    1.2462   -2.6541 H   0  0  0  0  0  0  0  0  0  0  0  0
   -1.3720   -0.2830   -2.6646 H   0  0  0  0  0  0  0  0  0  0  0  0
   -0.3225    0.0763   -0.3033 H   0  0  0  0  0  0  0  0  0  0  0  0
   -2.2465    0.1856   -0.3761 H   0  0  0  0  0  0  0  0  0  0  0  0
   -2.2534    2.6963   -0.4776 H   0  0  0  0  0  0  0  0  0  0  0  0
   -1.3720    2.1170    0.9377 H   0  0  0  0  0  0  0  0  0  0  0  0
   -0.4905    2.6963   -0.4776 H   0  0  0  0  0  0  0  0  0  0  0  0
  1  2  3  0
  1  6  1  0
  2  3  1  0
  3  4  1  0
  3  5  1  0
  4  7  1  0
  4  8  1  0
  4  9  1  0
  5 10  1  0
  5 11  1  0
  5 12  1  0
 13 14  1  0
 13 16  1  0
 13 17  1  0
 13 18  1  0
 14 15  1  0
 14 19  1  0
 14 20  1  0
 15 21  1  0
 15 22  1  0
 15 23  1  0
M  RAD  1   3   2
M  END
>  <reaction>  (15) 
rxn_920

>  <mol_properties>  (15) 
{"1": {"label": "*0", "atom_type": "Ct"}, "2": {"label": "*1", "atom_type": "Cs"}, "12": {"label": "*4", "atom_type": "Cs"}, "13": {"label": "*3", "atom_type": "Cs"}, "18": {"label": "*2", "atom_type": "H0"}}

>  <type>  (15) 
unop_11

>  <geom_source>  (15) 
Heuristics

$$$$

     RDKit          3D

 23 21  0  0  0  0  0  0  0  0999 V2000
    1.8955   -1.3744   -1.5070 C   0  0  0  0  0  0  0  0  0  0  0  0
    1.2765   -0.9877   -0.5569 C   0  0  0  0  0  0  0  0  0  0  0  0
    0.5363   -0.5252    0.6185 C   0  0  0  0  0  3  0  0  0  0  0  0
    1.3859    0.4368    1.4543 C   0  0  0  0  0  0  0  0  0  0  0  0
    0.0443   -1.7108    1.4543 C   0  0  0  0  0  0  0  0  0  0  0  0
    2.4449   -1.7176   -2.3502 H   0  0  0  0  0  0  0  0  0  0  0  0
    0.8073    0.8070    2.3025 H   0  0  0  0  0  0  0  0  0  0  0  0
    1.7145    1.2893    0.8600 H   0  0  0  0  0  0  0  0  0  0  0  0
    2.2716   -0.0724    1.8383 H   0  0  0  0  0  0  0  0  0  0  0  0
    0.8903   -2.2834    1.8383 H   0  0  0  0  0  0  0  0  0  0  0  0
   -0.5778   -2.3799    0.8600 H   0  0  0  0  0  0  0  0  0  0  0  0
   -0.5422   -1.3531    2.3025 H   0  0  0  0  0  0  0  0  0  0  0  0
   -1.5637    0.7867   -1.7789 C   0  0  0  0  0  0  0  0  0  0  0  0
   -1.5637    0.7867   -0.2556 C   0  0  0  0  0  0  0  0  0  0  0  0
   -1.5637    2.1925    0.3311 C   0  0  0  0  0  0  0  0  0  0  0  0
   -0.6823    1.3009   -2.1695 H   0  0  0  0  0  0  0  0  0  0  0  0
   -2.4452    1.3009   -2.1695 H   0  0  0  0  0  0  0  0  0  0  0  0
   -1.5637   -0.2282   -2.1801 H   0  0  0  0  0  0  0  0  0  0  0  0
   -0.5143    0.1311    0.1812 H   0  0  0  0  0  0  0  0  0  0  0  0
   -2.4382    0.2403    0.1084 H   0  0  0  0  0  0  0  0  0  0  0  0
   -2.4452    2.7511    0.0070 H   0  0  0  0  0  0  0  0  0  0  0  0
   -1.5637    2.1718    1.4223 H   0  0  0  0  0  0  0  0  0  0  0  0
   -0.6823    2.7511    0.0070 H   0  0  0  0  0  0  0  0  0  0  0  0
  1  2  3  0
  1  6  1  0
  2  3  1  0
  3  4  1  0
  3  5  1  0
  4  7  1  0
  4  8  1  0
  4  9  1  0
  5 10  1  0
  5 11  1  0
  5 12  1  0
 13 14  1  0
 13 16  1  0
 13 17  1  0
 13 18  1  0
 14 15  1  0
 14 19  1  0
 14 20  1  0
 15 21  1  0
 15 22  1  0
 15 23  1  0
M  RAD  1   3   2
M  END
>  <reaction>  (16) 
rxn_920

>  <mol_properties>  (16) 
{"1": {"label": "*0", "atom_type": "Ct"}, "2": {"label": "*1", "atom_type": "Cs"}, "12": {"label": "*4", "atom_type": "Cs"}, "13": {"label": "*3", "atom_type": "Cs"}, "18": {"label": "*2", "atom_type": "H0"}}

>  <type>  (16) 
unop_12

>  <geom_source>  (16) 
Heuristics

$$$$

     RDKit          3D

 23 21  0  0  0  0  0  0  0  0999 V2000
   -1.1271   -0.2013    0.0088 C   0  0  0  0  0  3  0  0  0  0  0  0
   -1.2734   -0.3456   -1.5064 C   0  0  0  0  0  0  0  0  0  0  0  0
   -1.7415   -1.3980    0.7359 C   0  0  0  0  0  0  0  0  0  0  0  0
    1.7861    0.5596    1.2893 C   0  0  0  0  0  0  0  0  0  0  0  0
    2.3114    0.1757   -1.1465 C   0  0  0  0  0  0  0  0  0  0  0  0
    1.4635   -0.2561    0.0435 C   0  0  0  0  0  0  0  0  0  0  0  0
   -1.7633    1.0453    0.4611 C   0  0  0  0  0  0  0  0  0  0  0  0
   -2.2838    2.0677    0.8322 C   0  0  0  0  0  0  0  0  0  0  0  0
    0.1911   -0.1428    0.3115 H   0  0  0  0  0  0  0  0  0  0  0  0
   -2.3453   -0.3948   -1.7974 H   0  0  0  0  0  0  0  0  0  0  0  0
   -0.7995    0.5191   -2.0185 H   0  0  0  0  0  0  0  0  0  0  0  0
   -0.7643   -1.2710   -1.8499 H   0  0  0  0  0  0  0  0  0  0  0  0
   -2.8280   -1.4799    0.5147 H   0  0  0  0  0  0  0  0  0  0  0  0
   -1.6035   -1.2885    1.8329 H   0  0  0  0  0  0  0  0  0  0  0  0
   -1.2375   -2.3348    0.4168 H   0  0  0  0  0  0  0  0  0  0  0  0
    1.1368    0.2251    2.1250 H   0  0  0  0  0  0  0  0  0  0  0  0
    1.5946    1.6371    1.1011 H   0  0  0  0  0  0  0  0  0  0  0  0
    2.8486    0.4172    1.5805 H   0  0  0  0  0  0  0  0  0  0  0  0
    3.3899    0.0217   -0.9292 H   0  0  0  0  0  0  0  0  0  0  0  0
    2.1292    1.2465   -1.3774 H   0  0  0  0  0  0  0  0  0  0  0  0
    2.0338   -0.4303   -2.0338 H   0  0  0  0  0  0  0  0  0  0  0  0
    1.6225   -1.3368    0.2481 H   0  0  0  0  0  0  0  0  0  0  0  0
   -2.7408    2.9649    1.1579 H   0  0  0  0  0  0  0  0  0  0  0  0
  1  2  1  0
  1  3  1  0
  1  7  1  0
  2 10  1  0
  2 11  1  0
  2 12  1  0
  3 13  1  0
  3 14  1  0
  3 15  1  0
  4  6  1  0
  4 16  1  0
  4 17  1  0
  4 18  1  0
  5  6  1  0
  5 19  1  0
  5 20  1  0
  5 21  1  0
  6  9  1  0
  6 22  1  0
  7  8  3  0
  8 23  1  0
M  RAD  1   1   2
M  END
>  <reaction>  (17) 
rxn_920

>  <mol_properties>  (17) 
{"1": {"label": "*0", "atom_type": "Ct"}, "2": {"label": "*1", "atom_type": "Cs"}, "12": {"label": "*4", "atom_type": "Cs"}, "13": {"label": "*3", "atom_type": "Cs"}, "18": {"label": "*2", "atom_type": "H0"}}

>  <type>  (17) 
unop_13

>  <geom_source>  (17) 
AutoTST

$$$$
