
     RDKit          3D

  9  8  0  0  0  0  0  0  0  0999 V2000
    1.1303   -0.2933   -0.7510 C   0  0  0  0  0  0  0  0  0  0  0  0
    0.2866    0.4560   -0.0588 C   0  0  0  0  0  0  0  0  0  0  0  0
   -0.9719   -0.0331    0.5823 C   0  0  0  0  0  0  0  0  0  0  0  0
    2.0274    0.1230   -1.1916 H   0  0  0  0  0  0  0  0  0  0  0  0
    0.9532   -1.3530   -0.9023 H   0  0  0  0  0  0  0  0  0  0  0  0
    0.5065    1.5132    0.0659 H   0  0  0  0  0  0  0  0  0  0  0  0
   -0.9526    0.1426    1.6610 H   0  0  0  0  0  0  0  0  0  0  0  0
   -1.1182   -1.1002    0.4106 H   0  0  0  0  0  0  0  0  0  0  0  0
   -1.8412    0.5010    0.1901 H   0  0  0  0  0  0  0  0  0  0  0  0
  1  2  2  3
  1  4  1  0
  1  5  1  0
  2  3  1  0
  2  6  1  0
  3  7  1  0
  3  8  1  0
  3  9  1  0
M  END
>  <reaction>  (1) 
rxn_996

>  <mol_properties>  (1) 
{"2": {"label": "donator", "atom_type": "Cs"}, "6": {"label": "d_hydrogen", "atom_type": "H0"}}

>  <type>  (1) 
r1h

$$$$

     RDKit          3D

  4  3  0  0  0  0  0  0  0  0999 V2000
    0.0000    0.0000    0.0000 C   0  0  0  0  0  3  0  0  0  0  0  0
    1.0638   -0.1747    0.0540 H   0  0  0  0  0  0  0  0  0  0  0  0
   -0.6833   -0.8351   -0.0280 H   0  0  0  0  0  0  0  0  0  0  0  0
   -0.3805    1.0098   -0.0260 H   0  0  0  0  0  0  0  0  0  0  0  0
  1  2  1  0
  1  3  1  0
  1  4  1  0
M  RAD  1   1   2
M  END
>  <reaction>  (2) 
rxn_996

>  <mol_properties>  (2) 
{"0": {"label": "acceptor", "atom_type": "Cs"}}

>  <type>  (2) 
r2

$$$$

     RDKit          3D

  5  4  0  0  0  0  0  0  0  0999 V2000
    0.0000    0.0000    0.0000 C   0  0  0  0  0  0  0  0  0  0  0  0
   -0.6486   -0.7720   -0.4113 H   0  0  0  0  0  0  0  0  0  0  0  0
   -0.3482    0.9787   -0.3267 H   0  0  0  0  0  0  0  0  0  0  0  0
   -0.0223   -0.0487    1.0876 H   0  0  0  0  0  0  0  0  0  0  0  0
    1.0191   -0.1580   -0.3496 H   0  0  0  0  0  0  0  0  0  0  0  0
  1  2  1  0
  1  3  1  0
  1  4  1  0
  1  5  1  0
M  END
>  <reaction>  (3) 
rxn_996

>  <mol_properties>  (3) 
{"0": {"label": "acceptor", "atom_type": "Cs"}, "4": {"label": "a_hydrogen", "atom_type": "H0"}}

>  <type>  (3) 
r2h

$$$$

     RDKit          3D

 13 11  0  0  0  0  0  0  0  0999 V2000
   -1.5185    0.6919    1.7942 C   0  0  0  0  0  3  0  0  0  0  0  0
   -1.4563   -0.1244    2.5064 H   0  0  0  0  0  0  0  0  0  0  0  0
   -2.2711    0.5645    1.0233 H   0  0  0  0  0  0  0  0  0  0  0  0
   -1.4793    1.6825    2.2349 H   0  0  0  0  0  0  0  0  0  0  0  0
    0.3193   -0.6191   -1.8066 C   0  0  0  0  0  0  0  0  0  0  0  0
    0.6693   -0.6573   -0.5225 C   0  0  0  0  0  0  0  0  0  0  0  0
    0.7697    0.5111    0.3569 C   0  0  0  0  0  0  0  0  0  0  0  0
    0.2300   -1.5226   -2.3959 H   0  0  0  0  0  0  0  0  0  0  0  0
    0.1200    0.3209   -2.3098 H   0  0  0  0  0  0  0  0  0  0  0  0
    0.8586   -1.6245   -0.0646 H   0  0  0  0  0  0  0  0  0  0  0  0
   -0.2922    0.5801    1.0474 H   0  0  0  0  0  0  0  0  0  0  0  0
    0.7961    1.4665   -0.1652 H   0  0  0  0  0  0  0  0  0  0  0  0
    1.5463    0.4451    1.1169 H   0  0  0  0  0  0  0  0  0  0  0  0
  1  2  1  0
  1  3  1  0
  1  4  1  0
  5  6  2  3
  5  8  1  0
  5  9  1  0
  6  7  1  0
  6 10  1  0
  7 11  1  0
  7 12  1  0
  7 13  1  0
M  RAD  1   1   2
M  END
>  <reaction>  (4) 
rxn_996

>  <mol_properties>  (4) 
{"0": {"label": "*3", "atom_type": "Cs"}, "1": {"label": "*4", "atom_type": "H0"}, "5": {"label": "*0", "atom_type": "Cd"}, "6": {"label": "*1", "atom_type": "Cs"}, "10": {"label": "*2", "atom_type": "H0"}}

>  <type>  (4) 
ts

$$$$

     RDKit          3D

 13 11  0  0  0  0  0  0  0  0999 V2000
   -1.5352    0.5964    1.8647 C   0  0  0  0  0  0  0  0  0  0  0  0
   -1.2148    0.6083    2.9054 H   0  0  0  0  0  0  0  0  0  0  0  0
   -2.5619    0.2385    1.8051 H   0  0  0  0  0  0  0  0  0  0  0  0
   -1.4390    1.6555    1.6307 H   0  0  0  0  0  0  0  0  0  0  0  0
    0.5674   -0.6668   -1.8795 C   0  0  0  0  0  0  0  0  0  0  0  0
    0.5674   -0.6668   -0.5557 C   0  0  0  0  0  0  0  0  0  0  0  0
    0.5674    0.5554    0.3048 C   0  0  0  0  0  3  0  0  0  0  0  0
    0.5674   -1.5896   -2.4460 H   0  0  0  0  0  0  0  0  0  0  0  0
    0.5674    0.2588   -2.4455 H   0  0  0  0  0  0  0  0  0  0  0  0
    0.5674   -1.6195   -0.0322 H   0  0  0  0  0  0  0  0  0  0  0  0
   -0.4859    0.5759    1.0862 H   0  0  0  0  0  0  0  0  0  0  0  0
    0.5674    1.4658   -0.2958 H   0  0  0  0  0  0  0  0  0  0  0  0
    1.4451    0.5725    0.9560 H   0  0  0  0  0  0  0  0  0  0  0  0
  1  2  1  0
  1  3  1  0
  1  4  1  0
  1 11  1  0
  5  6  2  3
  5  8  1  0
  5  9  1  0
  6  7  1  0
  6 10  1  0
  7 12  1  0
  7 13  1  0
M  RAD  1   7   2
M  END
>  <reaction>  (5) 
rxn_996

>  <mol_properties>  (5) 
{"0": {"label": "*3", "atom_type": "Cs"}, "1": {"label": "*4", "atom_type": "H0"}, "5": {"label": "*0", "atom_type": "Cd"}, "6": {"label": "*1", "atom_type": "Cs"}, "10": {"label": "*2", "atom_type": "H0"}}

>  <type>  (5) 
unop_1

>  <geom_source>  (5) 
Heuristics

$$$$

     RDKit          3D

 13 11  0  0  0  0  0  0  0  0999 V2000
   -1.5374    0.6034    1.8703 C   0  0  0  0  0  0  0  0  0  0  0  0
   -1.8381   -0.4174    2.1012 H   0  0  0  0  0  0  0  0  0  0  0  0
   -2.4221    1.2059    1.6701 H   0  0  0  0  0  0  0  0  0  0  0  0
   -0.8366    1.3339    2.2717 H   0  0  0  0  0  0  0  0  0  0  0  0
    0.5651   -0.6597   -1.8739 C   0  0  0  0  0  0  0  0  0  0  0  0
    0.5651   -0.6597   -0.5502 C   0  0  0  0  0  0  0  0  0  0  0  0
    0.5651    0.5624    0.3103 C   0  0  0  0  0  3  0  0  0  0  0  0
    0.5651   -1.5825   -2.4404 H   0  0  0  0  0  0  0  0  0  0  0  0
    0.5651    0.2659   -2.4399 H   0  0  0  0  0  0  0  0  0  0  0  0
    0.5651   -1.6124   -0.0267 H   0  0  0  0  0  0  0  0  0  0  0  0
   -0.4881    0.5830    1.0918 H   0  0  0  0  0  0  0  0  0  0  0  0
    0.5651    1.4729   -0.2903 H   0  0  0  0  0  0  0  0  0  0  0  0
    1.4428    0.5796    0.9615 H   0  0  0  0  0  0  0  0  0  0  0  0
  1  2  1  0
  1  3  1  0
  1  4  1  0
  1 11  1  0
  5  6  2  3
  5  8  1  0
  5  9  1  0
  6  7  1  0
  6 10  1  0
  7 12  1  0
  7 13  1  0
M  RAD  1   7   2
M  END
>  <reaction>  (6) 
rxn_996

>  <mol_properties>  (6) 
{"0": {"label": "*3", "atom_type": "Cs"}, "1": {"label": "*4", "atom_type": "H0"}, "5": {"label": "*0", "atom_type": "Cd"}, "6": {"label": "*1", "atom_type": "Cs"}, "10": {"label": "*2", "atom_type": "H0"}}

>  <type>  (6) 
unop_2

>  <geom_source>  (6) 
Heuristics

$$$$

     RDKit          3D

 13 11  0  0  0  0  0  0  0  0999 V2000
   -1.5307    0.5971    1.8656 C   0  0  0  0  0  0  0  0  0  0  0  0
   -1.2878    1.1214    2.7885 H   0  0  0  0  0  0  0  0  0  0  0  0
   -2.2630   -0.1818    2.0726 H   0  0  0  0  0  0  0  0  0  0  0  0
   -1.9046    1.5239    1.4331 H   0  0  0  0  0  0  0  0  0  0  0  0
    0.5718   -0.6661   -1.8786 C   0  0  0  0  0  0  0  0  0  0  0  0
    0.5718   -0.6661   -0.5549 C   0  0  0  0  0  0  0  0  0  0  0  0
    0.5718    0.5561    0.3056 C   0  0  0  0  0  3  0  0  0  0  0  0
    0.5718   -1.5888   -2.4451 H   0  0  0  0  0  0  0  0  0  0  0  0
    0.5718    0.2595   -2.4446 H   0  0  0  0  0  0  0  0  0  0  0  0
    0.5718   -1.6187   -0.0313 H   0  0  0  0  0  0  0  0  0  0  0  0
   -0.4814    0.5766    1.0871 H   0  0  0  0  0  0  0  0  0  0  0  0
    0.5718    1.4665   -0.2950 H   0  0  0  0  0  0  0  0  0  0  0  0
    1.4495    0.5732    0.9569 H   0  0  0  0  0  0  0  0  0  0  0  0
  1  2  1  0
  1  3  1  0
  1  4  1  0
  1 11  1  0
  5  6  2  3
  5  8  1  0
  5  9  1  0
  6  7  1  0
  6 10  1  0
  7 12  1  0
  7 13  1  0
M  RAD  1   7   2
M  END
>  <reaction>  (7) 
rxn_996

>  <mol_properties>  (7) 
{"0": {"label": "*3", "atom_type": "Cs"}, "1": {"label": "*4", "atom_type": "H0"}, "5": {"label": "*0", "atom_type": "Cd"}, "6": {"label": "*1", "atom_type": "Cs"}, "10": {"label": "*2", "atom_type": "H0"}}

>  <type>  (7) 
unop_3

>  <geom_source>  (7) 
Heuristics

$$$$

     RDKit          3D

 13 11  0  0  0  0  0  0  0  0999 V2000
   -1.5381    0.5995    1.8688 C   0  0  0  0  0  0  0  0  0  0  0  0
   -2.4413    0.5989    1.2606 H   0  0  0  0  0  0  0  0  0  0  0  0
   -1.2101    1.6251    2.0307 H   0  0  0  0  0  0  0  0  0  0  0  0
   -1.4091    0.1118    2.8338 H   0  0  0  0  0  0  0  0  0  0  0  0
    0.5645   -0.6637   -1.8755 C   0  0  0  0  0  0  0  0  0  0  0  0
    0.5645   -0.6637   -0.5517 C   0  0  0  0  0  0  0  0  0  0  0  0
    0.5645    0.5585    0.3088 C   0  0  0  0  0  3  0  0  0  0  0  0
    0.5645   -1.5864   -2.4419 H   0  0  0  0  0  0  0  0  0  0  0  0
    0.5645    0.2619   -2.4415 H   0  0  0  0  0  0  0  0  0  0  0  0
    0.5645   -1.6163   -0.0282 H   0  0  0  0  0  0  0  0  0  0  0  0
   -0.4888    0.5790    1.0903 H   0  0  0  0  0  0  0  0  0  0  0  0
    0.5645    1.4689   -0.2918 H   0  0  0  0  0  0  0  0  0  0  0  0
    1.4422    0.5756    0.9600 H   0  0  0  0  0  0  0  0  0  0  0  0
  1  2  1  0
  1  3  1  0
  1  4  1  0
  1 11  1  0
  5  6  2  3
  5  8  1  0
  5  9  1  0
  6  7  1  0
  6 10  1  0
  7 12  1  0
  7 13  1  0
M  RAD  1   7   2
M  END
>  <reaction>  (8) 
rxn_996

>  <mol_properties>  (8) 
{"0": {"label": "*3", "atom_type": "Cs"}, "1": {"label": "*4", "atom_type": "H0"}, "5": {"label": "*0", "atom_type": "Cd"}, "6": {"label": "*1", "atom_type": "Cs"}, "10": {"label": "*2", "atom_type": "H0"}}

>  <type>  (8) 
unop_4

>  <geom_source>  (8) 
Heuristics

$$$$

     RDKit          3D

 13 11  0  0  0  0  0  0  0  0999 V2000
   -1.5296    0.6022    1.8624 C   0  0  0  0  0  0  0  0  0  0  0  0
   -1.5072    1.5000    2.4782 H   0  0  0  0  0  0  0  0  0  0  0  0
   -1.5231   -0.2780    2.5035 H   0  0  0  0  0  0  0  0  0  0  0  0
   -2.4848    0.9670    1.4877 H   0  0  0  0  0  0  0  0  0  0  0  0
    0.5729   -0.6610   -1.8819 C   0  0  0  0  0  0  0  0  0  0  0  0
    0.5729   -0.6610   -0.5581 C   0  0  0  0  0  0  0  0  0  0  0  0
    0.5729    0.5612    0.3024 C   0  0  0  0  0  3  0  0  0  0  0  0
    0.5729   -1.5837   -2.4484 H   0  0  0  0  0  0  0  0  0  0  0  0
    0.5729    0.2646   -2.4479 H   0  0  0  0  0  0  0  0  0  0  0  0
    0.5729   -1.6136   -0.0346 H   0  0  0  0  0  0  0  0  0  0  0  0
   -0.4803    0.5817    1.0838 H   0  0  0  0  0  0  0  0  0  0  0  0
    0.5729    1.4716   -0.2982 H   0  0  0  0  0  0  0  0  0  0  0  0
    1.4506    0.5783    0.9536 H   0  0  0  0  0  0  0  0  0  0  0  0
  1  2  1  0
  1  3  1  0
  1  4  1  0
  1 11  1  0
  5  6  2  3
  5  8  1  0
  5  9  1  0
  6  7  1  0
  6 10  1  0
  7 12  1  0
  7 13  1  0
M  RAD  1   7   2
M  END
>  <reaction>  (9) 
rxn_996

>  <mol_properties>  (9) 
{"0": {"label": "*3", "atom_type": "Cs"}, "1": {"label": "*4", "atom_type": "H0"}, "5": {"label": "*0", "atom_type": "Cd"}, "6": {"label": "*1", "atom_type": "Cs"}, "10": {"label": "*2", "atom_type": "H0"}}

>  <type>  (9) 
unop_5

>  <geom_source>  (9) 
Heuristics

$$$$

     RDKit          3D

 13 11  0  0  0  0  0  0  0  0999 V2000
   -1.5374    0.5986    1.8652 C   0  0  0  0  0  0  0  0  0  0  0  0
   -2.3541    1.1121    1.3602 H   0  0  0  0  0  0  0  0  0  0  0  0
   -0.8603    1.3327    2.2993 H   0  0  0  0  0  0  0  0  0  0  0  0
   -1.8845   -0.0617    2.6585 H   0  0  0  0  0  0  0  0  0  0  0  0
    0.5652   -0.6646   -1.8791 C   0  0  0  0  0  0  0  0  0  0  0  0
    0.5652   -0.6646   -0.5553 C   0  0  0  0  0  0  0  0  0  0  0  0
    0.5652    0.5576    0.3052 C   0  0  0  0  0  3  0  0  0  0  0  0
    0.5652   -1.5873   -2.4455 H   0  0  0  0  0  0  0  0  0  0  0  0
    0.5652    0.2610   -2.4451 H   0  0  0  0  0  0  0  0  0  0  0  0
    0.5652   -1.6172   -0.0318 H   0  0  0  0  0  0  0  0  0  0  0  0
   -0.4881    0.5781    1.0867 H   0  0  0  0  0  0  0  0  0  0  0  0
    0.5652    1.4680   -0.2954 H   0  0  0  0  0  0  0  0  0  0  0  0
    1.4429    0.5747    0.9564 H   0  0  0  0  0  0  0  0  0  0  0  0
  1  2  1  0
  1  3  1  0
  1  4  1  0
  1 11  1  0
  5  6  2  3
  5  8  1  0
  5  9  1  0
  6  7  1  0
  6 10  1  0
  7 12  1  0
  7 13  1  0
M  RAD  1   7   2
M  END
>  <reaction>  (10) 
rxn_996

>  <mol_properties>  (10) 
{"0": {"label": "*3", "atom_type": "Cs"}, "1": {"label": "*4", "atom_type": "H0"}, "5": {"label": "*0", "atom_type": "Cd"}, "6": {"label": "*1", "atom_type": "Cs"}, "10": {"label": "*2", "atom_type": "H0"}}

>  <type>  (10) 
unop_6

>  <geom_source>  (10) 
Heuristics

$$$$

     RDKit          3D

 13 11  0  0  0  0  0  0  0  0999 V2000
   -1.5369    0.5994    1.8614 C   0  0  0  0  0  0  0  0  0  0  0  0
   -2.1263    1.4909    1.6528 H   0  0  0  0  0  0  0  0  0  0  0  0
   -0.7054    0.8587    2.5149 H   0  0  0  0  0  0  0  0  0  0  0  0
   -2.2929   -0.0093    2.3551 H   0  0  0  0  0  0  0  0  0  0  0  0
    0.5657   -0.6638   -1.8829 C   0  0  0  0  0  0  0  0  0  0  0  0
    0.5657   -0.6638   -0.5591 C   0  0  0  0  0  0  0  0  0  0  0  0
    0.5657    0.5584    0.3014 C   0  0  0  0  0  3  0  0  0  0  0  0
    0.5657   -1.5865   -2.4494 H   0  0  0  0  0  0  0  0  0  0  0  0
    0.5657    0.2618   -2.4489 H   0  0  0  0  0  0  0  0  0  0  0  0
    0.5657   -1.6164   -0.0356 H   0  0  0  0  0  0  0  0  0  0  0  0
   -0.4876    0.5789    1.0828 H   0  0  0  0  0  0  0  0  0  0  0  0
    0.5657    1.4688   -0.2992 H   0  0  0  0  0  0  0  0  0  0  0  0
    1.4434    0.5755    0.9526 H   0  0  0  0  0  0  0  0  0  0  0  0
  1  2  1  0
  1  3  1  0
  1  4  1  0
  1 11  1  0
  5  6  2  3
  5  8  1  0
  5  9  1  0
  6  7  1  0
  6 10  1  0
  7 12  1  0
  7 13  1  0
M  RAD  1   7   2
M  END
>  <reaction>  (11) 
rxn_996

>  <mol_properties>  (11) 
{"0": {"label": "*3", "atom_type": "Cs"}, "1": {"label": "*4", "atom_type": "H0"}, "5": {"label": "*0", "atom_type": "Cd"}, "6": {"label": "*1", "atom_type": "Cs"}, "10": {"label": "*2", "atom_type": "H0"}}

>  <type>  (11) 
unop_7

>  <geom_source>  (11) 
Heuristics

$$$$

     RDKit          3D

 13 11  0  0  0  0  0  0  0  0999 V2000
   -1.5376    0.5994    1.8644 C   0  0  0  0  0  0  0  0  0  0  0  0
   -1.3038    0.0972    2.8020 H   0  0  0  0  0  0  0  0  0  0  0  0
   -2.6171    0.6203    1.7232 H   0  0  0  0  0  0  0  0  0  0  0  0
   -1.1660    1.6225    1.8332 H   0  0  0  0  0  0  0  0  0  0  0  0
    0.5650   -0.6638   -1.8798 C   0  0  0  0  0  0  0  0  0  0  0  0
    0.5650   -0.6638   -0.5561 C   0  0  0  0  0  0  0  0  0  0  0  0
    0.5650    0.5584    0.3045 C   0  0  0  0  0  3  0  0  0  0  0  0
    0.5650   -1.5865   -2.4463 H   0  0  0  0  0  0  0  0  0  0  0  0
    0.5650    0.2618   -2.4458 H   0  0  0  0  0  0  0  0  0  0  0  0
    0.5650   -1.6164   -0.0325 H   0  0  0  0  0  0  0  0  0  0  0  0
   -0.4883    0.5789    1.0859 H   0  0  0  0  0  0  0  0  0  0  0  0
    0.5650    1.4688   -0.2961 H   0  0  0  0  0  0  0  0  0  0  0  0
    1.4427    0.5755    0.9557 H   0  0  0  0  0  0  0  0  0  0  0  0
  1  2  1  0
  1  3  1  0
  1  4  1  0
  1 11  1  0
  5  6  2  3
  5  8  1  0
  5  9  1  0
  6  7  1  0
  6 10  1  0
  7 12  1  0
  7 13  1  0
M  RAD  1   7   2
M  END
>  <reaction>  (12) 
rxn_996

>  <mol_properties>  (12) 
{"0": {"label": "*3", "atom_type": "Cs"}, "1": {"label": "*4", "atom_type": "H0"}, "5": {"label": "*0", "atom_type": "Cd"}, "6": {"label": "*1", "atom_type": "Cs"}, "10": {"label": "*2", "atom_type": "H0"}}

>  <type>  (12) 
unop_8

>  <geom_source>  (12) 
Heuristics

$$$$

     RDKit          3D

 13 11  0  0  0  0  0  0  0  0999 V2000
   -1.5386    0.6007    1.8716 C   0  0  0  0  0  0  0  0  0  0  0  0
   -2.3645    0.0877    1.3812 H   0  0  0  0  0  0  0  0  0  0  0  0
   -1.6775    1.6773    1.7853 H   0  0  0  0  0  0  0  0  0  0  0  0
   -0.9884    0.5049    2.8064 H   0  0  0  0  0  0  0  0  0  0  0  0
    0.5639   -0.6625   -1.8726 C   0  0  0  0  0  0  0  0  0  0  0  0
    0.5639   -0.6625   -0.5489 C   0  0  0  0  0  0  0  0  0  0  0  0
    0.5639    0.5597    0.3116 C   0  0  0  0  0  3  0  0  0  0  0  0
    0.5639   -1.5852   -2.4391 H   0  0  0  0  0  0  0  0  0  0  0  0
    0.5639    0.2631   -2.4386 H   0  0  0  0  0  0  0  0  0  0  0  0
    0.5639   -1.6151   -0.0254 H   0  0  0  0  0  0  0  0  0  0  0  0
   -0.4893    0.5802    1.0931 H   0  0  0  0  0  0  0  0  0  0  0  0
    0.5639    1.4701   -0.2890 H   0  0  0  0  0  0  0  0  0  0  0  0
    1.4416    0.5768    0.9629 H   0  0  0  0  0  0  0  0  0  0  0  0
  1  2  1  0
  1  3  1  0
  1  4  1  0
  1 11  1  0
  5  6  2  3
  5  8  1  0
  5  9  1  0
  6  7  1  0
  6 10  1  0
  7 12  1  0
  7 13  1  0
M  RAD  1   7   2
M  END
>  <reaction>  (13) 
rxn_996

>  <mol_properties>  (13) 
{"0": {"label": "*3", "atom_type": "Cs"}, "1": {"label": "*4", "atom_type": "H0"}, "5": {"label": "*0", "atom_type": "Cd"}, "6": {"label": "*1", "atom_type": "Cs"}, "10": {"label": "*2", "atom_type": "H0"}}

>  <type>  (13) 
unop_9

>  <geom_source>  (13) 
Heuristics

$$$$

     RDKit          3D

 13 11  0  0  0  0  0  0  0  0999 V2000
   -1.5377    0.6025    1.8666 C   0  0  0  0  0  0  0  0  0  0  0  0
   -1.5313   -0.2776    2.5078 H   0  0  0  0  0  0  0  0  0  0  0  0
   -2.5650    0.9241    1.7019 H   0  0  0  0  0  0  0  0  0  0  0  0
   -0.9817    1.5245    2.0300 H   0  0  0  0  0  0  0  0  0  0  0  0
    0.5648   -0.6606   -1.8776 C   0  0  0  0  0  0  0  0  0  0  0  0
    0.5648   -0.6606   -0.5538 C   0  0  0  0  0  0  0  0  0  0  0  0
    0.5648    0.5615    0.3067 C   0  0  0  0  0  3  0  0  0  0  0  0
    0.5648   -1.5834   -2.4441 H   0  0  0  0  0  0  0  0  0  0  0  0
    0.5648    0.2650   -2.4436 H   0  0  0  0  0  0  0  0  0  0  0  0
    0.5648   -1.6133   -0.0303 H   0  0  0  0  0  0  0  0  0  0  0  0
   -0.4885    0.5821    1.0881 H   0  0  0  0  0  0  0  0  0  0  0  0
    0.5648    1.4720   -0.2939 H   0  0  0  0  0  0  0  0  0  0  0  0
    1.4425    0.5787    0.9579 H   0  0  0  0  0  0  0  0  0  0  0  0
  1  2  1  0
  1  3  1  0
  1  4  1  0
  1 11  1  0
  5  6  2  3
  5  8  1  0
  5  9  1  0
  6  7  1  0
  6 10  1  0
  7 12  1  0
  7 13  1  0
M  RAD  1   7   2
M  END
>  <reaction>  (14) 
rxn_996

>  <mol_properties>  (14) 
{"0": {"label": "*3", "atom_type": "Cs"}, "1": {"label": "*4", "atom_type": "H0"}, "5": {"label": "*0", "atom_type": "Cd"}, "6": {"label": "*1", "atom_type": "Cs"}, "10": {"label": "*2", "atom_type": "H0"}}

>  <type>  (14) 
unop_10

>  <geom_source>  (14) 
Heuristics

$$$$

     RDKit          3D

 13 11  0  0  0  0  0  0  0  0999 V2000
   -1.5345    0.6023    1.8592 C   0  0  0  0  0  0  0  0  0  0  0  0
   -1.8168    1.6345    2.0609 H   0  0  0  0  0  0  0  0  0  0  0  0
   -0.8573    0.2526    2.6370 H   0  0  0  0  0  0  0  0  0  0  0  0
   -2.5770    0.2977    1.9389 H   0  0  0  0  0  0  0  0  0  0  0  0
    0.5680   -0.6609   -1.8850 C   0  0  0  0  0  0  0  0  0  0  0  0
    0.5680   -0.6609   -0.5613 C   0  0  0  0  0  0  0  0  0  0  0  0
    0.5680    0.5613    0.2993 C   0  0  0  0  0  3  0  0  0  0  0  0
    0.5680   -1.5836   -2.4515 H   0  0  0  0  0  0  0  0  0  0  0  0
    0.5680    0.2647   -2.4510 H   0  0  0  0  0  0  0  0  0  0  0  0
    0.5680   -1.6135   -0.0377 H   0  0  0  0  0  0  0  0  0  0  0  0
   -0.4852    0.5818    1.0807 H   0  0  0  0  0  0  0  0  0  0  0  0
    0.5680    1.4717   -0.3013 H   0  0  0  0  0  0  0  0  0  0  0  0
    1.4457    0.5784    0.9505 H   0  0  0  0  0  0  0  0  0  0  0  0
  1  2  1  0
  1  3  1  0
  1  4  1  0
  1 11  1  0
  5  6  2  3
  5  8  1  0
  5  9  1  0
  6  7  1  0
  6 10  1  0
  7 12  1  0
  7 13  1  0
M  RAD  1   7   2
M  END
>  <reaction>  (15) 
rxn_996

>  <mol_properties>  (15) 
{"0": {"label": "*3", "atom_type": "Cs"}, "1": {"label": "*4", "atom_type": "H0"}, "5": {"label": "*0", "atom_type": "Cd"}, "6": {"label": "*1", "atom_type": "Cs"}, "10": {"label": "*2", "atom_type": "H0"}}

>  <type>  (15) 
unop_11

>  <geom_source>  (15) 
Heuristics

$$$$

     RDKit          3D

 13 11  0  0  0  0  0  0  0  0999 V2000
   -1.5380    0.6022    1.8725 C   0  0  0  0  0  0  0  0  0  0  0  0
   -2.1433   -0.2842    1.6892 H   0  0  0  0  0  0  0  0  0  0  0  0
   -2.1274    1.4937    1.6639 H   0  0  0  0  0  0  0  0  0  0  0  0
   -0.7928    0.9796    2.5711 H   0  0  0  0  0  0  0  0  0  0  0  0
    0.5645   -0.6610   -1.8717 C   0  0  0  0  0  0  0  0  0  0  0  0
    0.5645   -0.6610   -0.5480 C   0  0  0  0  0  0  0  0  0  0  0  0
    0.5645    0.5612    0.3125 C   0  0  0  0  0  3  0  0  0  0  0  0
    0.5645   -1.5837   -2.4382 H   0  0  0  0  0  0  0  0  0  0  0  0
    0.5645    0.2646   -2.4377 H   0  0  0  0  0  0  0  0  0  0  0  0
    0.5645   -1.6136   -0.0244 H   0  0  0  0  0  0  0  0  0  0  0  0
   -0.4887    0.5817    1.0940 H   0  0  0  0  0  0  0  0  0  0  0  0
    0.5645    1.4716   -0.2880 H   0  0  0  0  0  0  0  0  0  0  0  0
    1.4422    0.5783    0.9638 H   0  0  0  0  0  0  0  0  0  0  0  0
  1  2  1  0
  1  3  1  0
  1  4  1  0
  1 11  1  0
  5  6  2  3
  5  8  1  0
  5  9  1  0
  6  7  1  0
  6 10  1  0
  7 12  1  0
  7 13  1  0
M  RAD  1   7   2
M  END
>  <reaction>  (16) 
rxn_996

>  <mol_properties>  (16) 
{"0": {"label": "*3", "atom_type": "Cs"}, "1": {"label": "*4", "atom_type": "H0"}, "5": {"label": "*0", "atom_type": "Cd"}, "6": {"label": "*1", "atom_type": "Cs"}, "10": {"label": "*2", "atom_type": "H0"}}

>  <type>  (16) 
unop_12

>  <geom_source>  (16) 
Heuristics

$$$$

     RDKit          3D

 13 11  0  0  0  0  0  0  0  0999 V2000
    2.0146   -0.0003    0.2939 C   0  0  0  0  0  0  0  0  0  0  0  0
   -1.2376   -0.4466   -0.0617 C   0  0  0  0  0  0  0  0  0  0  0  0
   -0.2640    0.2173   -0.9817 C   0  0  0  0  0  0  0  0  0  0  0  0
   -2.0110    0.2750    0.7509 C   0  0  0  0  0  3  0  0  0  0  0  0
    2.4820   -0.8154   -0.2960 H   0  0  0  0  0  0  0  0  0  0  0  0
    1.7256   -0.3859    1.2932 H   0  0  0  0  0  0  0  0  0  0  0  0
    2.7388    0.8315    0.4138 H   0  0  0  0  0  0  0  0  0  0  0  0
    1.0028    0.4131   -0.2994 H   0  0  0  0  0  0  0  0  0  0  0  0
   -1.3066   -1.5303   -0.0462 H   0  0  0  0  0  0  0  0  0  0  0  0
   -1.9548    1.3596    0.7576 H   0  0  0  0  0  0  0  0  0  0  0  0
   -2.7090   -0.2205    1.4179 H   0  0  0  0  0  0  0  0  0  0  0  0
   -0.8058    0.8515   -1.7148 H   0  0  0  0  0  0  0  0  0  0  0  0
    0.3250   -0.5490   -1.5276 H   0  0  0  0  0  0  0  0  0  0  0  0
  1  5  1  0
  1  6  1  0
  1  7  1  0
  1  8  1  0
  2  3  2  3
  2  4  1  0
  2  9  1  0
  3 12  1  0
  3 13  1  0
  4 10  1  0
  4 11  1  0
M  RAD  1   4   2
M  END
>  <reaction>  (17) 
rxn_996

>  <mol_properties>  (17) 
{"0": {"label": "*3", "atom_type": "Cs"}, "1": {"label": "*4", "atom_type": "H0"}, "5": {"label": "*0", "atom_type": "Cd"}, "6": {"label": "*1", "atom_type": "Cs"}, "10": {"label": "*2", "atom_type": "H0"}}

>  <type>  (17) 
unop_13

>  <geom_source>  (17) 
AutoTST

$$$$
