
     RDKit          3D

 10  9  0  0  0  0  0  0  0  0999 V2000
   -1.1508    0.0666    0.2839 C   0  0  0  0  0  0  0  0  0  0  0  0
    0.1022   -0.3749   -0.4771 C   0  0  0  0  0  0  0  0  0  0  0  0
    1.3428    0.1620    0.1542 C   0  0  0  0  0  0  0  0  0  0  0  0
    2.5613   -0.6971    0.7526 S   0  0  0  0  0  0  0  0  0  0  0  0
   -1.2137    1.1546    0.3481 H   0  0  0  0  0  0  0  0  0  0  0  0
   -2.0472   -0.2935   -0.2212 H   0  0  0  0  0  0  0  0  0  0  0  0
   -1.1467   -0.3334    1.2987 H   0  0  0  0  0  0  0  0  0  0  0  0
    0.1602   -1.4616   -0.5369 H   0  0  0  0  0  0  0  0  0  0  0  0
    0.0536    0.0174   -1.4997 H   0  0  0  0  0  0  0  0  0  0  0  0
    1.3824    1.2528    0.2110 H   0  0  0  0  0  0  0  0  0  0  0  0
  1  2  1  0
  1  5  1  0
  1  6  1  0
  1  7  1  0
  2  3  1  0
  2  8  1  0
  2  9  1  0
  3  4  2  0
  3 10  1  0
M  END
>  <reaction>  (1) 
rxn_1997

>  <mol_properties>  (1) 
{"1": {"label": "donator", "atom_type": "Cs"}, "7": {"label": "d_hydrogen", "atom_type": "H0"}}

>  <type>  (1) 
r1h

$$$$

     RDKit          3D

 10  9  0  0  0  0  0  0  0  0999 V2000
    1.2930    0.1441    0.3288 C   0  0  0  0  0  0  0  0  0  0  0  0
   -0.0374   -0.1647    0.9100 C   0  0  0  0  0  3  0  0  0  0  0  0
   -1.2664    0.4569    0.3567 C   0  0  0  0  0  0  0  0  0  0  0  0
    1.4384    1.2242    0.2174 H   0  0  0  0  0  0  0  0  0  0  0  0
    2.1077   -0.2477    0.9385 H   0  0  0  0  0  0  0  0  0  0  0  0
    1.4057   -0.2836   -0.6789 H   0  0  0  0  0  0  0  0  0  0  0  0
   -0.1309   -0.9912    1.6030 H   0  0  0  0  0  0  0  0  0  0  0  0
   -1.5005    0.0716   -0.6471 H   0  0  0  0  0  0  0  0  0  0  0  0
   -2.1382    0.2713    0.9849 H   0  0  0  0  0  0  0  0  0  0  0  0
   -1.1497    1.5406    0.2456 H   0  0  0  0  0  0  0  0  0  0  0  0
  1  2  1  0
  1  4  1  0
  1  5  1  0
  1  6  1  0
  2  3  1  0
  2  7  1  0
  3  8  1  0
  3  9  1  0
  3 10  1  0
M  RAD  1   2   2
M  END
>  <reaction>  (2) 
rxn_1997

>  <mol_properties>  (2) 
{"1": {"label": "acceptor", "atom_type": "Cs"}}

>  <type>  (2) 
r2

$$$$

     RDKit          3D

 11 10  0  0  0  0  0  0  0  0999 V2000
   -1.2710    0.1907   -0.2084 C   0  0  0  0  0  0  0  0  0  0  0  0
    0.0202   -0.6130   -0.2928 C   0  0  0  0  0  0  0  0  0  0  0  0
    0.1086   -1.6953    0.7756 C   0  0  0  0  0  0  0  0  0  0  0  0
   -1.3607    0.6851    0.7620 H   0  0  0  0  0  0  0  0  0  0  0  0
   -2.1429   -0.4567   -0.3299 H   0  0  0  0  0  0  0  0  0  0  0  0
   -1.3158    0.9602   -0.9809 H   0  0  0  0  0  0  0  0  0  0  0  0
    0.8757    0.0616   -0.1992 H   0  0  0  0  0  0  0  0  0  0  0  0
    0.0997   -1.0712   -1.2825 H   0  0  0  0  0  0  0  0  0  0  0  0
   -0.7198   -2.4022    0.6850 H   0  0  0  0  0  0  0  0  0  0  0  0
    1.0395   -2.2596    0.6989 H   0  0  0  0  0  0  0  0  0  0  0  0
    0.0624   -1.2603    1.7770 H   0  0  0  0  0  0  0  0  0  0  0  0
  1  2  1  0
  1  4  1  0
  1  5  1  0
  1  6  1  0
  2  3  1  0
  2  7  1  0
  2  8  1  0
  3  9  1  0
  3 10  1  0
  3 11  1  0
M  END
>  <reaction>  (3) 
rxn_1997

>  <mol_properties>  (3) 
{"0": {"label": "a_hydrogen", "atom_type": "H0"}, "2": {"label": "acceptor", "atom_type": "Cs"}}

>  <type>  (3) 
r2h

$$$$

     RDKit          3D

 20 18  0  0  0  0  0  0  0  0999 V2000
    0.4615   -0.0793   -2.3587 C   0  0  0  0  0  0  0  0  0  0  0  0
    1.1826   -0.2906   -1.0483 C   0  0  0  0  0  0  0  0  0  0  0  0
    1.4496    0.8469   -0.1897 C   0  0  0  0  0  0  0  0  0  0  0  0
    0.6961    2.2920   -0.2106 S   0  0  0  0  0  0  0  0  0  0  0  0
    1.0878    0.4782   -3.0582 H   0  0  0  0  0  0  0  0  0  0  0  0
    0.2086   -1.0380   -2.8138 H   0  0  0  0  0  0  0  0  0  0  0  0
   -0.4533    0.4939   -2.2128 H   0  0  0  0  0  0  0  0  0  0  0  0
    0.4132   -0.9909   -0.3633 H   0  0  0  0  0  0  0  0  0  0  0  0
    2.0460   -0.9542   -1.1239 H   0  0  0  0  0  0  0  0  0  0  0  0
    2.2037    0.6673    0.5776 H   0  0  0  0  0  0  0  0  0  0  0  0
   -1.8880   -1.0122   -0.0034 C   0  0  0  0  0  0  0  0  0  0  0  0
   -0.6329   -1.7095    0.4176 C   0  0  0  0  0  3  0  0  0  0  0  0
   -0.1366   -1.4669    1.8077 C   0  0  0  0  0  0  0  0  0  0  0  0
   -1.7990    0.0680    0.1388 H   0  0  0  0  0  0  0  0  0  0  0  0
   -2.1267   -1.2022   -1.0499 H   0  0  0  0  0  0  0  0  0  0  0  0
   -2.7397   -1.3508    0.5994 H   0  0  0  0  0  0  0  0  0  0  0  0
   -0.5058   -2.7225    0.0419 H   0  0  0  0  0  0  0  0  0  0  0  0
   -0.8444   -1.8586    2.5476 H   0  0  0  0  0  0  0  0  0  0  0  0
    0.8268   -1.9469    1.9852 H   0  0  0  0  0  0  0  0  0  0  0  0
   -0.0312   -0.3956    2.0013 H   0  0  0  0  0  0  0  0  0  0  0  0
  1  2  1  0
  1  5  1  0
  1  6  1  0
  1  7  1  0
  2  3  1  0
  2  8  1  0
  2  9  1  0
  3  4  2  0
  3 10  1  0
 11 12  1  0
 11 14  1  0
 11 15  1  0
 11 16  1  0
 12 13  1  0
 12 17  1  0
 13 18  1  0
 13 19  1  0
 13 20  1  0
M  RAD  1  12   2
M  END
>  <reaction>  (4) 
rxn_1997

>  <mol_properties>  (4) 
{"1": {"label": "*1", "atom_type": "Cs"}, "2": {"label": "*0", "atom_type": "CS"}, "7": {"label": "*2", "atom_type": "H0"}, "10": {"label": "*4", "atom_type": "Cs"}, "11": {"label": "*3", "atom_type": "Cs"}}

>  <type>  (4) 
ts

$$$$

     RDKit          3D

 20 18  0  0  0  0  0  0  0  0999 V2000
    1.1845   -0.0491   -2.2014 C   0  0  0  0  0  0  0  0  0  0  0  0
    1.1845   -0.0491   -0.6704 C   0  0  0  0  0  0  0  0  0  0  0  0
    1.1845    1.3391   -0.1237 C   0  0  0  0  0  0  0  0  0  0  0  0
    0.0650    1.9948    0.8238 S   0  0  0  0  0  0  0  0  0  0  0  0
    2.0397    0.5011   -2.5986 H   0  0  0  0  0  0  0  0  0  0  0  0
    1.2353   -1.0700   -2.5801 H   0  0  0  0  0  0  0  0  0  0  0  0
    0.2750    0.4133   -2.5871 H   0  0  0  0  0  0  0  0  0  0  0  0
    0.1568   -0.7085   -0.2017 H   0  0  0  0  0  0  0  0  0  0  0  0
    2.0949   -0.5458   -0.3149 H   0  0  0  0  0  0  0  0  0  0  0  0
    2.0400    1.9444   -0.4340 H   0  0  0  0  0  0  0  0  0  0  0  0
   -0.3843   -2.5337    1.1207 C   0  0  0  0  0  0  0  0  0  0  0  0
   -0.8743   -1.3700    0.2685 C   0  0  0  0  0  3  0  0  0  0  0  0
   -2.3171   -1.5439   -0.1881 C   0  0  0  0  0  0  0  0  0  0  0  0
   -0.4378   -3.4737    0.5662 H   0  0  0  0  0  0  0  0  0  0  0  0
    0.6501   -2.3911    1.4378 H   0  0  0  0  0  0  0  0  0  0  0  0
   -0.9971   -2.6456    2.0185 H   0  0  0  0  0  0  0  0  0  0  0  0
   -0.7814   -0.4394    0.8352 H   0  0  0  0  0  0  0  0  0  0  0  0
   -2.9909   -1.6246    0.6684 H   0  0  0  0  0  0  0  0  0  0  0  0
   -2.6496   -0.7012   -0.7966 H   0  0  0  0  0  0  0  0  0  0  0  0
   -2.4315   -2.4527   -0.7839 H   0  0  0  0  0  0  0  0  0  0  0  0
  1  2  1  0
  1  5  1  0
  1  6  1  0
  1  7  1  0
  2  3  1  0
  2  8  1  0
  2  9  1  0
  3  4  2  0
  3 10  1  0
 11 12  1  0
 11 14  1  0
 11 15  1  0
 11 16  1  0
 12 13  1  0
 12 17  1  0
 13 18  1  0
 13 19  1  0
 13 20  1  0
M  RAD  1  12   2
M  END
>  <reaction>  (5) 
rxn_1997

>  <mol_properties>  (5) 
{"1": {"label": "*1", "atom_type": "Cs"}, "2": {"label": "*0", "atom_type": "CS"}, "7": {"label": "*2", "atom_type": "H0"}, "10": {"label": "*4", "atom_type": "Cs"}, "11": {"label": "*3", "atom_type": "Cs"}}

>  <type>  (5) 
unop_1

>  <geom_source>  (5) 
Heuristics

$$$$

     RDKit          3D

 20 18  0  0  0  0  0  0  0  0999 V2000
    1.2670   -0.1629   -2.1003 C   0  0  0  0  0  0  0  0  0  0  0  0
    1.2670   -0.1629   -0.5692 C   0  0  0  0  0  0  0  0  0  0  0  0
    1.2670    1.2253   -0.0225 C   0  0  0  0  0  0  0  0  0  0  0  0
    0.1475    1.8810    0.9250 S   0  0  0  0  0  0  0  0  0  0  0  0
    2.1222    0.3873   -2.4974 H   0  0  0  0  0  0  0  0  0  0  0  0
    1.3179   -1.1838   -2.4789 H   0  0  0  0  0  0  0  0  0  0  0  0
    0.3575    0.2995   -2.4859 H   0  0  0  0  0  0  0  0  0  0  0  0
    0.2394   -0.8223   -0.1005 H   0  0  0  0  0  0  0  0  0  0  0  0
    2.1774   -0.6596   -0.2138 H   0  0  0  0  0  0  0  0  0  0  0  0
    2.1225    1.8305   -0.3328 H   0  0  0  0  0  0  0  0  0  0  0  0
   -1.1775   -2.5847   -0.6100 C   0  0  0  0  0  0  0  0  0  0  0  0
   -0.7917   -1.4839    0.3697 C   0  0  0  0  0  3  0  0  0  0  0  0
   -2.0031   -0.7919    0.9815 C   0  0  0  0  0  0  0  0  0  0  0  0
   -1.7721   -2.1834   -1.4342 H   0  0  0  0  0  0  0  0  0  0  0  0
   -0.2973   -3.0680   -1.0373 H   0  0  0  0  0  0  0  0  0  0  0  0
   -1.7757   -3.3547   -0.1167 H   0  0  0  0  0  0  0  0  0  0  0  0
   -0.1728   -1.9060    1.1663 H   0  0  0  0  0  0  0  0  0  0  0  0
   -2.6274   -1.5054    1.5250 H   0  0  0  0  0  0  0  0  0  0  0  0
   -1.7068   -0.0074    1.6798 H   0  0  0  0  0  0  0  0  0  0  0  0
   -2.6238   -0.3341    0.2074 H   0  0  0  0  0  0  0  0  0  0  0  0
  1  2  1  0
  1  5  1  0
  1  6  1  0
  1  7  1  0
  2  3  1  0
  2  8  1  0
  2  9  1  0
  3  4  2  0
  3 10  1  0
 11 12  1  0
 11 14  1  0
 11 15  1  0
 11 16  1  0
 12 13  1  0
 12 17  1  0
 13 18  1  0
 13 19  1  0
 13 20  1  0
M  RAD  1  12   2
M  END
>  <reaction>  (6) 
rxn_1997

>  <mol_properties>  (6) 
{"1": {"label": "*1", "atom_type": "Cs"}, "2": {"label": "*0", "atom_type": "CS"}, "7": {"label": "*2", "atom_type": "H0"}, "10": {"label": "*4", "atom_type": "Cs"}, "11": {"label": "*3", "atom_type": "Cs"}}

>  <type>  (6) 
unop_2

>  <geom_source>  (6) 
Heuristics

$$$$

     RDKit          3D

 20 18  0  0  0  0  0  0  0  0999 V2000
    1.1499   -0.0359   -2.2227 C   0  0  0  0  0  0  0  0  0  0  0  0
    1.1499   -0.0359   -0.6916 C   0  0  0  0  0  0  0  0  0  0  0  0
    1.1499    1.3523   -0.1449 C   0  0  0  0  0  0  0  0  0  0  0  0
    0.0304    2.0080    0.8026 S   0  0  0  0  0  0  0  0  0  0  0  0
    2.0051    0.5143   -2.6198 H   0  0  0  0  0  0  0  0  0  0  0  0
    1.2007   -1.0568   -2.6014 H   0  0  0  0  0  0  0  0  0  0  0  0
    0.2404    0.4265   -2.6083 H   0  0  0  0  0  0  0  0  0  0  0  0
    0.1222   -0.6953   -0.2230 H   0  0  0  0  0  0  0  0  0  0  0  0
    2.0602   -0.5326   -0.3362 H   0  0  0  0  0  0  0  0  0  0  0  0
    2.0053    1.9575   -0.4553 H   0  0  0  0  0  0  0  0  0  0  0  0
   -0.5443   -1.9763    1.5904 C   0  0  0  0  0  0  0  0  0  0  0  0
   -0.9089   -1.3568    0.2473 C   0  0  0  0  0  3  0  0  0  0  0  0
   -1.9399   -2.1777   -0.5169 C   0  0  0  0  0  0  0  0  0  0  0  0
   -0.1280   -2.9779    1.4584 H   0  0  0  0  0  0  0  0  0  0  0  0
    0.1947   -1.3746    2.1222 H   0  0  0  0  0  0  0  0  0  0  0  0
   -1.4251   -2.0673    2.2305 H   0  0  0  0  0  0  0  0  0  0  0  0
   -1.2934   -0.3454    0.4052 H   0  0  0  0  0  0  0  0  0  0  0  0
   -2.8647   -2.2751    0.0569 H   0  0  0  0  0  0  0  0  0  0  0  0
   -2.1879   -1.7184   -1.4752 H   0  0  0  0  0  0  0  0  0  0  0  0
   -1.5676   -3.1857   -0.7152 H   0  0  0  0  0  0  0  0  0  0  0  0
  1  2  1  0
  1  5  1  0
  1  6  1  0
  1  7  1  0
  2  3  1  0
  2  8  1  0
  2  9  1  0
  3  4  2  0
  3 10  1  0
 11 12  1  0
 11 14  1  0
 11 15  1  0
 11 16  1  0
 12 13  1  0
 12 17  1  0
 13 18  1  0
 13 19  1  0
 13 20  1  0
M  RAD  1  12   2
M  END
>  <reaction>  (7) 
rxn_1997

>  <mol_properties>  (7) 
{"1": {"label": "*1", "atom_type": "Cs"}, "2": {"label": "*0", "atom_type": "CS"}, "7": {"label": "*2", "atom_type": "H0"}, "10": {"label": "*4", "atom_type": "Cs"}, "11": {"label": "*3", "atom_type": "Cs"}}

>  <type>  (7) 
unop_3

>  <geom_source>  (7) 
Heuristics

$$$$

     RDKit          3D

 20 18  0  0  0  0  0  0  0  0999 V2000
    1.1670   -0.3778   -2.2575 C   0  0  0  0  0  0  0  0  0  0  0  0
    1.1670   -0.3778   -0.7264 C   0  0  0  0  0  0  0  0  0  0  0  0
    1.1670    1.0104   -0.1797 C   0  0  0  0  0  0  0  0  0  0  0  0
    0.0475    1.6661    0.7678 S   0  0  0  0  0  0  0  0  0  0  0  0
    2.0222    0.1724   -2.6546 H   0  0  0  0  0  0  0  0  0  0  0  0
    1.2179   -1.3987   -2.6361 H   0  0  0  0  0  0  0  0  0  0  0  0
    0.2575    0.0846   -2.6431 H   0  0  0  0  0  0  0  0  0  0  0  0
    0.1394   -1.0371   -0.2577 H   0  0  0  0  0  0  0  0  0  0  0  0
    2.0774   -0.8745   -0.3710 H   0  0  0  0  0  0  0  0  0  0  0  0
    2.0225    1.6157   -0.4900 H   0  0  0  0  0  0  0  0  0  0  0  0
   -2.1786   -1.0463   -0.2763 C   0  0  0  0  0  0  0  0  0  0  0  0
   -0.8917   -1.6987    0.2125 C   0  0  0  0  0  3  0  0  0  0  0  0
   -0.4128   -1.1282    1.5413 C   0  0  0  0  0  0  0  0  0  0  0  0
   -2.0431    0.0290   -0.4153 H   0  0  0  0  0  0  0  0  0  0  0  0
   -2.5054   -1.4677   -1.2285 H   0  0  0  0  0  0  0  0  0  0  0  0
   -2.9863   -1.1859    0.4463 H   0  0  0  0  0  0  0  0  0  0  0  0
   -1.0457   -2.7766    0.3134 H   0  0  0  0  0  0  0  0  0  0  0  0
   -1.1648   -1.2704    2.3212 H   0  0  0  0  0  0  0  0  0  0  0  0
    0.5092   -1.6076    1.8746 H   0  0  0  0  0  0  0  0  0  0  0  0
   -0.2216   -0.0555    1.4597 H   0  0  0  0  0  0  0  0  0  0  0  0
  1  2  1  0
  1  5  1  0
  1  6  1  0
  1  7  1  0
  2  3  1  0
  2  8  1  0
  2  9  1  0
  3  4  2  0
  3 10  1  0
 11 12  1  0
 11 14  1  0
 11 15  1  0
 11 16  1  0
 12 13  1  0
 12 17  1  0
 13 18  1  0
 13 19  1  0
 13 20  1  0
M  RAD  1  12   2
M  END
>  <reaction>  (8) 
rxn_1997

>  <mol_properties>  (8) 
{"1": {"label": "*1", "atom_type": "Cs"}, "2": {"label": "*0", "atom_type": "CS"}, "7": {"label": "*2", "atom_type": "H0"}, "10": {"label": "*4", "atom_type": "Cs"}, "11": {"label": "*3", "atom_type": "Cs"}}

>  <type>  (8) 
unop_4

>  <geom_source>  (8) 
Heuristics

$$$$

     RDKit          3D

 20 18  0  0  0  0  0  0  0  0999 V2000
    1.0590   -0.0383   -2.2693 C   0  0  0  0  0  0  0  0  0  0  0  0
    1.0590   -0.0383   -0.7382 C   0  0  0  0  0  0  0  0  0  0  0  0
    1.0590    1.3499   -0.1916 C   0  0  0  0  0  0  0  0  0  0  0  0
   -0.0606    2.0056    0.7560 S   0  0  0  0  0  0  0  0  0  0  0  0
    1.9142    0.5119   -2.6664 H   0  0  0  0  0  0  0  0  0  0  0  0
    1.1098   -1.0592   -2.6480 H   0  0  0  0  0  0  0  0  0  0  0  0
    0.1495    0.4241   -2.6550 H   0  0  0  0  0  0  0  0  0  0  0  0
    0.0313   -0.6977   -0.2696 H   0  0  0  0  0  0  0  0  0  0  0  0
    1.9693   -0.5350   -0.3828 H   0  0  0  0  0  0  0  0  0  0  0  0
    1.9144    1.9551   -0.5019 H   0  0  0  0  0  0  0  0  0  0  0  0
   -0.9650   -1.3369    1.7234 C   0  0  0  0  0  0  0  0  0  0  0  0
   -0.9998   -1.3592    0.2006 C   0  0  0  0  0  3  0  0  0  0  0  0
   -0.9960   -2.7734   -0.3657 C   0  0  0  0  0  0  0  0  0  0  0  0
   -0.0686   -1.8349    2.1010 H   0  0  0  0  0  0  0  0  0  0  0  0
   -0.9682   -0.3163    2.1098 H   0  0  0  0  0  0  0  0  0  0  0  0
   -1.8309   -1.8558    2.1416 H   0  0  0  0  0  0  0  0  0  0  0  0
   -1.8890   -0.8287   -0.1510 H   0  0  0  0  0  0  0  0  0  0  0  0
   -1.8629   -3.3376   -0.0133 H   0  0  0  0  0  0  0  0  0  0  0  0
   -1.0212   -2.7687   -1.4567 H   0  0  0  0  0  0  0  0  0  0  0  0
   -0.1006   -3.3166   -0.0539 H   0  0  0  0  0  0  0  0  0  0  0  0
  1  2  1  0
  1  5  1  0
  1  6  1  0
  1  7  1  0
  2  3  1  0
  2  8  1  0
  2  9  1  0
  3  4  2  0
  3 10  1  0
 11 12  1  0
 11 14  1  0
 11 15  1  0
 11 16  1  0
 12 13  1  0
 12 17  1  0
 13 18  1  0
 13 19  1  0
 13 20  1  0
M  RAD  1  12   2
M  END
>  <reaction>  (9) 
rxn_1997

>  <mol_properties>  (9) 
{"1": {"label": "*1", "atom_type": "Cs"}, "2": {"label": "*0", "atom_type": "CS"}, "7": {"label": "*2", "atom_type": "H0"}, "10": {"label": "*4", "atom_type": "Cs"}, "11": {"label": "*3", "atom_type": "Cs"}}

>  <type>  (9) 
unop_5

>  <geom_source>  (9) 
Heuristics

$$$$

     RDKit          3D

 20 18  0  0  0  0  0  0  0  0999 V2000
    1.0876   -0.3461   -2.3253 C   0  0  0  0  0  0  0  0  0  0  0  0
    1.0876   -0.3461   -0.7942 C   0  0  0  0  0  0  0  0  0  0  0  0
    1.0876    1.0421   -0.2476 C   0  0  0  0  0  0  0  0  0  0  0  0
   -0.0320    1.6978    0.7000 S   0  0  0  0  0  0  0  0  0  0  0  0
    1.9428    0.2041   -2.7224 H   0  0  0  0  0  0  0  0  0  0  0  0
    1.1384   -1.3670   -2.7040 H   0  0  0  0  0  0  0  0  0  0  0  0
    0.1781    0.1163   -2.7110 H   0  0  0  0  0  0  0  0  0  0  0  0
    0.0599   -1.0055   -0.3256 H   0  0  0  0  0  0  0  0  0  0  0  0
    1.9979   -0.8428   -0.4388 H   0  0  0  0  0  0  0  0  0  0  0  0
    1.9430    1.6473   -0.5579 H   0  0  0  0  0  0  0  0  0  0  0  0
   -2.1454   -0.7137    0.3263 C   0  0  0  0  0  0  0  0  0  0  0  0
   -0.9712   -1.6670    0.1446 C   0  0  0  0  0  3  0  0  0  0  0  0
   -0.0027   -1.6357    1.3200 C   0  0  0  0  0  0  0  0  0  0  0  0
   -1.7987    0.3171    0.4333 H   0  0  0  0  0  0  0  0  0  0  0  0
   -2.8273   -0.7503   -0.5249 H   0  0  0  0  0  0  0  0  0  0  0  0
   -2.7165   -0.9639    1.2237 H   0  0  0  0  0  0  0  0  0  0  0  0
   -1.3466   -2.6852    0.0094 H   0  0  0  0  0  0  0  0  0  0  0  0
   -0.5062   -1.9149    2.2487 H   0  0  0  0  0  0  0  0  0  0  0  0
    0.8307   -2.3244    1.1715 H   0  0  0  0  0  0  0  0  0  0  0  0
    0.4115   -0.6340    1.4583 H   0  0  0  0  0  0  0  0  0  0  0  0
  1  2  1  0
  1  5  1  0
  1  6  1  0
  1  7  1  0
  2  3  1  0
  2  8  1  0
  2  9  1  0
  3  4  2  0
  3 10  1  0
 11 12  1  0
 11 14  1  0
 11 15  1  0
 11 16  1  0
 12 13  1  0
 12 17  1  0
 13 18  1  0
 13 19  1  0
 13 20  1  0
M  RAD  1  12   2
M  END
>  <reaction>  (10) 
rxn_1997

>  <mol_properties>  (10) 
{"1": {"label": "*1", "atom_type": "Cs"}, "2": {"label": "*0", "atom_type": "CS"}, "7": {"label": "*2", "atom_type": "H0"}, "10": {"label": "*4", "atom_type": "Cs"}, "11": {"label": "*3", "atom_type": "Cs"}}

>  <type>  (10) 
unop_6

>  <geom_source>  (10) 
Heuristics

$$$$

     RDKit          3D

 20 18  0  0  0  0  0  0  0  0999 V2000
    1.0180   -0.2616   -2.3588 C   0  0  0  0  0  0  0  0  0  0  0  0
    1.0180   -0.2616   -0.8278 C   0  0  0  0  0  0  0  0  0  0  0  0
    1.0180    1.1265   -0.2811 C   0  0  0  0  0  0  0  0  0  0  0  0
   -0.1015    1.7822    0.6665 S   0  0  0  0  0  0  0  0  0  0  0  0
    1.8732    0.2885   -2.7559 H   0  0  0  0  0  0  0  0  0  0  0  0
    1.0688   -1.2826   -2.7375 H   0  0  0  0  0  0  0  0  0  0  0  0
    0.1085    0.2007   -2.7445 H   0  0  0  0  0  0  0  0  0  0  0  0
   -0.0097   -0.9210   -0.3591 H   0  0  0  0  0  0  0  0  0  0  0  0
    1.9284   -0.7583   -0.4723 H   0  0  0  0  0  0  0  0  0  0  0  0
    1.8735    1.7318   -0.5914 H   0  0  0  0  0  0  0  0  0  0  0  0
   -1.8944   -0.6522    0.9634 C   0  0  0  0  0  0  0  0  0  0  0  0
   -1.0408   -1.5826    0.1111 C   0  0  0  0  0  3  0  0  0  0  0  0
    0.1376   -2.1664    0.8800 C   0  0  0  0  0  0  0  0  0  0  0  0
   -1.3032    0.1874    1.3371 H   0  0  0  0  0  0  0  0  0  0  0  0
   -2.7325   -0.2444    0.3958 H   0  0  0  0  0  0  0  0  0  0  0  0
   -2.3017   -1.1796    1.8294 H   0  0  0  0  0  0  0  0  0  0  0  0
   -1.6623   -2.3954   -0.2747 H   0  0  0  0  0  0  0  0  0  0  0  0
   -0.2057   -2.7415    1.7434 H   0  0  0  0  0  0  0  0  0  0  0  0
    0.7365   -2.8295    0.2534 H   0  0  0  0  0  0  0  0  0  0  0  0
    0.7928   -1.3745    1.2511 H   0  0  0  0  0  0  0  0  0  0  0  0
  1  2  1  0
  1  5  1  0
  1  6  1  0
  1  7  1  0
  2  3  1  0
  2  8  1  0
  2  9  1  0
  3  4  2  0
  3 10  1  0
 11 12  1  0
 11 14  1  0
 11 15  1  0
 11 16  1  0
 12 13  1  0
 12 17  1  0
 13 18  1  0
 13 19  1  0
 13 20  1  0
M  RAD  1  12   2
M  END
>  <reaction>  (11) 
rxn_1997

>  <mol_properties>  (11) 
{"1": {"label": "*1", "atom_type": "Cs"}, "2": {"label": "*0", "atom_type": "CS"}, "7": {"label": "*2", "atom_type": "H0"}, "10": {"label": "*4", "atom_type": "Cs"}, "11": {"label": "*3", "atom_type": "Cs"}}

>  <type>  (11) 
unop_7

>  <geom_source>  (11) 
Heuristics

$$$$

     RDKit          3D

 20 18  0  0  0  0  0  0  0  0999 V2000
    1.2055   -0.0581   -2.1680 C   0  0  0  0  0  0  0  0  0  0  0  0
    1.2055   -0.0581   -0.6369 C   0  0  0  0  0  0  0  0  0  0  0  0
    1.2055    1.3300   -0.0902 C   0  0  0  0  0  0  0  0  0  0  0  0
    0.0860    1.9857    0.8573 S   0  0  0  0  0  0  0  0  0  0  0  0
    2.0608    0.4920   -2.5651 H   0  0  0  0  0  0  0  0  0  0  0  0
    1.2564   -1.0791   -2.5466 H   0  0  0  0  0  0  0  0  0  0  0  0
    0.2961    0.4042   -2.5536 H   0  0  0  0  0  0  0  0  0  0  0  0
    0.1779   -0.7175   -0.1683 H   0  0  0  0  0  0  0  0  0  0  0  0
    2.1159   -0.5548   -0.2815 H   0  0  0  0  0  0  0  0  0  0  0  0
    2.0610    1.9353   -0.4006 H   0  0  0  0  0  0  0  0  0  0  0  0
   -0.4759   -2.8437    0.4837 C   0  0  0  0  0  0  0  0  0  0  0  0
   -0.8532   -1.3791    0.3020 C   0  0  0  0  0  3  0  0  0  0  0  0
   -2.3604   -1.1632    0.2523 C   0  0  0  0  0  0  0  0  0  0  0  0
   -0.8636   -3.4517   -0.3374 H   0  0  0  0  0  0  0  0  0  0  0  0
    0.6066   -2.9780    0.5168 H   0  0  0  0  0  0  0  0  0  0  0  0
   -0.8912   -3.2417    1.4128 H   0  0  0  0  0  0  0  0  0  0  0  0
   -0.4278   -0.7896    1.1188 H   0  0  0  0  0  0  0  0  0  0  0  0
   -2.8350   -1.5083    1.1741 H   0  0  0  0  0  0  0  0  0  0  0  0
   -2.6106   -0.1090    0.1219 H   0  0  0  0  0  0  0  0  0  0  0  0
   -2.8074   -1.7183   -0.5760 H   0  0  0  0  0  0  0  0  0  0  0  0
  1  2  1  0
  1  5  1  0
  1  6  1  0
  1  7  1  0
  2  3  1  0
  2  8  1  0
  2  9  1  0
  3  4  2  0
  3 10  1  0
 11 12  1  0
 11 14  1  0
 11 15  1  0
 11 16  1  0
 12 13  1  0
 12 17  1  0
 13 18  1  0
 13 19  1  0
 13 20  1  0
M  RAD  1  12   2
M  END
>  <reaction>  (12) 
rxn_1997

>  <mol_properties>  (12) 
{"1": {"label": "*1", "atom_type": "Cs"}, "2": {"label": "*0", "atom_type": "CS"}, "7": {"label": "*2", "atom_type": "H0"}, "10": {"label": "*4", "atom_type": "Cs"}, "11": {"label": "*3", "atom_type": "Cs"}}

>  <type>  (12) 
unop_8

>  <geom_source>  (12) 
Heuristics

$$$$

     RDKit          3D

 20 18  0  0  0  0  0  0  0  0999 V2000
    1.2362   -0.3487   -2.1782 C   0  0  0  0  0  0  0  0  0  0  0  0
    1.2362   -0.3487   -0.6471 C   0  0  0  0  0  0  0  0  0  0  0  0
    1.2362    1.0395   -0.1004 C   0  0  0  0  0  0  0  0  0  0  0  0
    0.1167    1.6952    0.8471 S   0  0  0  0  0  0  0  0  0  0  0  0
    2.0914    0.2015   -2.5753 H   0  0  0  0  0  0  0  0  0  0  0  0
    1.2870   -1.3696   -2.5569 H   0  0  0  0  0  0  0  0  0  0  0  0
    0.3267    0.1137   -2.5639 H   0  0  0  0  0  0  0  0  0  0  0  0
    0.2085   -1.0080   -0.1785 H   0  0  0  0  0  0  0  0  0  0  0  0
    2.1466   -0.8454   -0.2917 H   0  0  0  0  0  0  0  0  0  0  0  0
    2.0917    1.6448   -0.4108 H   0  0  0  0  0  0  0  0  0  0  0  0
   -1.9840   -1.5615   -0.6879 C   0  0  0  0  0  0  0  0  0  0  0  0
   -0.8226   -1.6696    0.2918 C   0  0  0  0  0  3  0  0  0  0  0  0
   -0.9975   -0.7726    1.5105 C   0  0  0  0  0  0  0  0  0  0  0  0
   -2.0936   -0.5372   -1.0524 H   0  0  0  0  0  0  0  0  0  0  0  0
   -1.8406   -2.2106   -1.5534 H   0  0  0  0  0  0  0  0  0  0  0  0
   -2.9255   -1.8436   -0.2103 H   0  0  0  0  0  0  0  0  0  0  0  0
   -0.7158   -2.7083    0.6166 H   0  0  0  0  0  0  0  0  0  0  0  0
   -1.9079   -1.0299    2.0574 H   0  0  0  0  0  0  0  0  0  0  0  0
   -0.1565   -0.8639    2.1998 H   0  0  0  0  0  0  0  0  0  0  0  0
   -1.0760    0.2765    1.2153 H   0  0  0  0  0  0  0  0  0  0  0  0
  1  2  1  0
  1  5  1  0
  1  6  1  0
  1  7  1  0
  2  3  1  0
  2  8  1  0
  2  9  1  0
  3  4  2  0
  3 10  1  0
 11 12  1  0
 11 14  1  0
 11 15  1  0
 11 16  1  0
 12 13  1  0
 12 17  1  0
 13 18  1  0
 13 19  1  0
 13 20  1  0
M  RAD  1  12   2
M  END
>  <reaction>  (13) 
rxn_1997

>  <mol_properties>  (13) 
{"1": {"label": "*1", "atom_type": "Cs"}, "2": {"label": "*0", "atom_type": "CS"}, "7": {"label": "*2", "atom_type": "H0"}, "10": {"label": "*4", "atom_type": "Cs"}, "11": {"label": "*3", "atom_type": "Cs"}}

>  <type>  (13) 
unop_9

>  <geom_source>  (13) 
Heuristics

$$$$

     RDKit          3D

 20 18  0  0  0  0  0  0  0  0999 V2000
    1.2354   -0.0901   -2.1261 C   0  0  0  0  0  0  0  0  0  0  0  0
    1.2354   -0.0901   -0.5950 C   0  0  0  0  0  0  0  0  0  0  0  0
    1.2354    1.2980   -0.0483 C   0  0  0  0  0  0  0  0  0  0  0  0
    0.1158    1.9537    0.8992 S   0  0  0  0  0  0  0  0  0  0  0  0
    2.0906    0.4600   -2.5232 H   0  0  0  0  0  0  0  0  0  0  0  0
    1.2862   -1.1111   -2.5047 H   0  0  0  0  0  0  0  0  0  0  0  0
    0.3259    0.3722   -2.5117 H   0  0  0  0  0  0  0  0  0  0  0  0
    0.2077   -0.7495   -0.1263 H   0  0  0  0  0  0  0  0  0  0  0  0
    2.1457   -0.5868   -0.2396 H   0  0  0  0  0  0  0  0  0  0  0  0
    2.0908    1.9033   -0.3586 H   0  0  0  0  0  0  0  0  0  0  0  0
   -0.7667   -2.8527   -0.1449 C   0  0  0  0  0  0  0  0  0  0  0  0
   -0.8234   -1.4111    0.3439 C   0  0  0  0  0  3  0  0  0  0  0  0
   -2.2429   -0.9506    0.6494 C   0  0  0  0  0  0  0  0  0  0  0  0
   -1.3521   -2.9786   -1.0590 H   0  0  0  0  0  0  0  0  0  0  0  0
    0.2573   -3.1640   -0.3583 H   0  0  0  0  0  0  0  0  0  0  0  0
   -1.1748   -3.5356    0.6042 H   0  0  0  0  0  0  0  0  0  0  0  0
   -0.2058   -1.3061    1.2402 H   0  0  0  0  0  0  0  0  0  0  0  0
   -2.6976   -1.5735    1.4236 H   0  0  0  0  0  0  0  0  0  0  0  0
   -2.2630    0.0834    0.9978 H   0  0  0  0  0  0  0  0  0  0  0  0
   -2.8749   -1.0165   -0.2396 H   0  0  0  0  0  0  0  0  0  0  0  0
  1  2  1  0
  1  5  1  0
  1  6  1  0
  1  7  1  0
  2  3  1  0
  2  8  1  0
  2  9  1  0
  3  4  2  0
  3 10  1  0
 11 12  1  0
 11 14  1  0
 11 15  1  0
 11 16  1  0
 12 13  1  0
 12 17  1  0
 13 18  1  0
 13 19  1  0
 13 20  1  0
M  RAD  1  12   2
M  END
>  <reaction>  (14) 
rxn_1997

>  <mol_properties>  (14) 
{"1": {"label": "*1", "atom_type": "Cs"}, "2": {"label": "*0", "atom_type": "CS"}, "7": {"label": "*2", "atom_type": "H0"}, "10": {"label": "*4", "atom_type": "Cs"}, "11": {"label": "*3", "atom_type": "Cs"}}

>  <type>  (14) 
unop_10

>  <geom_source>  (14) 
Heuristics

$$$$

     RDKit          3D

 20 18  0  0  0  0  0  0  0  0999 V2000
    0.9915   -0.1390   -2.3394 C   0  0  0  0  0  0  0  0  0  0  0  0
    0.9915   -0.1390   -0.8083 C   0  0  0  0  0  0  0  0  0  0  0  0
    0.9915    1.2492   -0.2616 C   0  0  0  0  0  0  0  0  0  0  0  0
   -0.1280    1.9049    0.6859 S   0  0  0  0  0  0  0  0  0  0  0  0
    1.8467    0.4112   -2.7365 H   0  0  0  0  0  0  0  0  0  0  0  0
    1.0423   -1.1599   -2.7180 H   0  0  0  0  0  0  0  0  0  0  0  0
    0.0820    0.3234   -2.7250 H   0  0  0  0  0  0  0  0  0  0  0  0
   -0.0361   -0.7983   -0.3396 H   0  0  0  0  0  0  0  0  0  0  0  0
    1.9019   -0.6357   -0.4529 H   0  0  0  0  0  0  0  0  0  0  0  0
    1.8470    1.8545   -0.5719 H   0  0  0  0  0  0  0  0  0  0  0  0
   -1.4784   -0.8703    1.4737 C   0  0  0  0  0  0  0  0  0  0  0  0
   -1.0672   -1.4599    0.1306 C   0  0  0  0  0  3  0  0  0  0  0  0
   -0.1181   -2.6426    0.2749 C   0  0  0  0  0  0  0  0  0  0  0  0
   -0.6056   -0.5195    2.0299 H   0  0  0  0  0  0  0  0  0  0  0  0
   -2.1576   -0.0252    1.3498 H   0  0  0  0  0  0  0  0  0  0  0  0
   -1.9833   -1.6178    2.0903 H   0  0  0  0  0  0  0  0  0  0  0  0
   -1.9598   -1.7742   -0.4175 H   0  0  0  0  0  0  0  0  0  0  0  0
   -0.5801   -3.4460    0.8537 H   0  0  0  0  0  0  0  0  0  0  0  0
    0.1648   -3.0508   -0.6969 H   0  0  0  0  0  0  0  0  0  0  0  0
    0.7975   -2.3477    0.7933 H   0  0  0  0  0  0  0  0  0  0  0  0
  1  2  1  0
  1  5  1  0
  1  6  1  0
  1  7  1  0
  2  3  1  0
  2  8  1  0
  2  9  1  0
  3  4  2  0
  3 10  1  0
 11 12  1  0
 11 14  1  0
 11 15  1  0
 11 16  1  0
 12 13  1  0
 12 17  1  0
 13 18  1  0
 13 19  1  0
 13 20  1  0
M  RAD  1  12   2
M  END
>  <reaction>  (15) 
rxn_1997

>  <mol_properties>  (15) 
{"1": {"label": "*1", "atom_type": "Cs"}, "2": {"label": "*0", "atom_type": "CS"}, "7": {"label": "*2", "atom_type": "H0"}, "10": {"label": "*4", "atom_type": "Cs"}, "11": {"label": "*3", "atom_type": "Cs"}}

>  <type>  (15) 
unop_11

>  <geom_source>  (15) 
Heuristics

$$$$

     RDKit          3D

 20 18  0  0  0  0  0  0  0  0999 V2000
    1.2736   -0.2645   -2.1170 C   0  0  0  0  0  0  0  0  0  0  0  0
    1.2736   -0.2645   -0.5859 C   0  0  0  0  0  0  0  0  0  0  0  0
    1.2736    1.1237   -0.0392 C   0  0  0  0  0  0  0  0  0  0  0  0
    0.1540    1.7794    0.9083 S   0  0  0  0  0  0  0  0  0  0  0  0
    2.1288    0.2857   -2.5141 H   0  0  0  0  0  0  0  0  0  0  0  0
    1.3244   -1.2854   -2.4956 H   0  0  0  0  0  0  0  0  0  0  0  0
    0.3641    0.1979   -2.5026 H   0  0  0  0  0  0  0  0  0  0  0  0
    0.2459   -0.9239   -0.1173 H   0  0  0  0  0  0  0  0  0  0  0  0
    2.1839   -0.7612   -0.2305 H   0  0  0  0  0  0  0  0  0  0  0  0
    2.1290    1.7290   -0.3496 H   0  0  0  0  0  0  0  0  0  0  0  0
   -1.6169   -2.1190   -0.8064 C   0  0  0  0  0  0  0  0  0  0  0  0
   -0.7852   -1.5854    0.3530 C   0  0  0  0  0  3  0  0  0  0  0  0
   -1.5858   -0.6825    1.2827 C   0  0  0  0  0  0  0  0  0  0  0  0
   -2.0135   -1.3005   -1.4119 H   0  0  0  0  0  0  0  0  0  0  0  0
   -1.0266   -2.7630   -1.4605 H   0  0  0  0  0  0  0  0  0  0  0  0
   -2.4668   -2.7011   -0.4420 H   0  0  0  0  0  0  0  0  0  0  0  0
   -0.3757   -2.4237    0.9233 H   0  0  0  0  0  0  0  0  0  0  0  0
   -2.4348   -1.2193    1.7129 H   0  0  0  0  0  0  0  0  0  0  0  0
   -0.9736   -0.3106    2.1060 H   0  0  0  0  0  0  0  0  0  0  0  0
   -1.9815    0.1813    0.7430 H   0  0  0  0  0  0  0  0  0  0  0  0
  1  2  1  0
  1  5  1  0
  1  6  1  0
  1  7  1  0
  2  3  1  0
  2  8  1  0
  2  9  1  0
  3  4  2  0
  3 10  1  0
 11 12  1  0
 11 14  1  0
 11 15  1  0
 11 16  1  0
 12 13  1  0
 12 17  1  0
 13 18  1  0
 13 19  1  0
 13 20  1  0
M  RAD  1  12   2
M  END
>  <reaction>  (16) 
rxn_1997

>  <mol_properties>  (16) 
{"1": {"label": "*1", "atom_type": "Cs"}, "2": {"label": "*0", "atom_type": "CS"}, "7": {"label": "*2", "atom_type": "H0"}, "10": {"label": "*4", "atom_type": "Cs"}, "11": {"label": "*3", "atom_type": "Cs"}}

>  <type>  (16) 
unop_12

>  <geom_source>  (16) 
Heuristics

$$$$

     RDKit          3D

 20 18  0  0  0  0  0  0  0  0999 V2000
   -1.3581    2.1447    0.9608 S   0  0  0  0  0  1  0  0  0  0  0  0
    1.2049   -0.0782   -0.2641 C   0  0  0  0  0  0  0  0  0  0  0  0
    2.0857    1.1564   -0.4214 C   0  0  0  0  0  0  0  0  0  0  0  0
    1.5566   -0.8537    1.0009 C   0  0  0  0  0  0  0  0  0  0  0  0
   -2.0314   -1.2618   -0.1915 C   0  0  0  0  0  0  0  0  0  0  0  0
   -1.3845    0.0793   -0.5077 C   0  0  0  0  0  0  0  0  0  0  0  0
   -2.0993    1.1957    0.1831 C   0  0  0  0  0  0  0  0  0  0  0  0
    1.3354   -0.7384   -1.1486 H   0  0  0  0  0  0  0  0  0  0  0  0
   -0.0284    0.2880   -0.2053 H   0  0  0  0  0  0  0  0  0  0  0  0
    1.9487    1.8389    0.4441 H   0  0  0  0  0  0  0  0  0  0  0  0
    1.8013    1.6973   -1.3482 H   0  0  0  0  0  0  0  0  0  0  0  0
    3.1545    0.8623   -0.4935 H   0  0  0  0  0  0  0  0  0  0  0  0
    2.6126   -1.1965    0.9632 H   0  0  0  0  0  0  0  0  0  0  0  0
    1.4082   -0.2146    1.8970 H   0  0  0  0  0  0  0  0  0  0  0  0
    0.8960   -1.7419    1.0851 H   0  0  0  0  0  0  0  0  0  0  0  0
   -1.4663   -2.0704   -0.6999 H   0  0  0  0  0  0  0  0  0  0  0  0
   -3.0832   -1.2785   -0.5493 H   0  0  0  0  0  0  0  0  0  0  0  0
   -2.0093   -1.4472    0.9034 H   0  0  0  0  0  0  0  0  0  0  0  0
   -1.3883    0.2550   -1.6046 H   0  0  0  0  0  0  0  0  0  0  0  0
   -3.1552    1.3638   -0.0036 H   0  0  0  0  0  0  0  0  0  0  0  0
  1  7  1  0
  2  3  1  0
  2  4  1  0
  2  8  1  0
  2  9  1  0
  3 10  1  0
  3 11  1  0
  3 12  1  0
  4 13  1  0
  4 14  1  0
  4 15  1  0
  5  6  1  0
  5 16  1  0
  5 17  1  0
  5 18  1  0
  6  7  2  3
  6 19  1  0
  7 20  1  0
M  RAD  1   1   2
M  END
>  <reaction>  (17) 
rxn_1997

>  <mol_properties>  (17) 
{"1": {"label": "*1", "atom_type": "Cs"}, "2": {"label": "*0", "atom_type": "CS"}, "7": {"label": "*2", "atom_type": "H0"}, "10": {"label": "*4", "atom_type": "Cs"}, "11": {"label": "*3", "atom_type": "Cs"}}

>  <type>  (17) 
unop_13

>  <geom_source>  (17) 
AutoTST

$$$$
