
     RDKit          3D

  7  6  0  0  0  0  0  0  0  0999 V2000
    1.6964   -0.0938    0.0583 C   0  0  0  0  0  0  0  0  0  0  0  0
    0.5019   -0.0278    0.0173 C   0  0  0  0  0  0  0  0  0  0  0  0
   -0.9505    0.0525   -0.0327 C   0  0  0  0  0  0  0  0  0  0  0  0
    2.7574   -0.1524    0.0947 H   0  0  0  0  0  0  0  0  0  0  0  0
   -1.2692    0.9972   -0.4754 H   0  0  0  0  0  0  0  0  0  0  0  0
   -1.3749   -0.0147    0.9700 H   0  0  0  0  0  0  0  0  0  0  0  0
   -1.3610   -0.7611   -0.6323 H   0  0  0  0  0  0  0  0  0  0  0  0
  1  2  3  0
  1  4  1  0
  2  3  1  0
  3  5  1  0
  3  6  1  0
  3  7  1  0
M  END
>  <reaction>  (1) 
rxn_1237

>  <mol_properties>  (1) 
{"2": {"label": "donator", "atom_type": "Cs"}, "4": {"label": "d_hydrogen", "atom_type": "H0"}}

>  <type>  (1) 
r1h

$$$$

     RDKit          3D

 11 10  0  0  0  0  0  0  0  0999 V2000
    1.0781   -1.0166   -0.1159 C   0  0  0  0  0  0  0  0  0  0  0  0
    0.2180    0.1942   -0.2297 C   0  0  0  0  0  3  0  0  0  0  0  0
    0.9343    1.7769   -0.3011 S   0  0  0  0  0  0  0  0  0  0  0  0
   -1.1949    0.1490    0.2439 C   0  0  0  0  0  0  0  0  0  0  0  0
    1.4718   -1.1461    0.9024 H   0  0  0  0  0  0  0  0  0  0  0  0
    1.9367   -0.9751   -0.7902 H   0  0  0  0  0  0  0  0  0  0  0  0
    0.5033   -1.9136   -0.3576 H   0  0  0  0  0  0  0  0  0  0  0  0
    2.1166    1.4195   -0.8209 H   0  0  0  0  0  0  0  0  0  0  0  0
   -1.2620    0.0939    1.3399 H   0  0  0  0  0  0  0  0  0  0  0  0
   -1.7600    1.0270   -0.0739 H   0  0  0  0  0  0  0  0  0  0  0  0
   -1.6972   -0.7380   -0.1506 H   0  0  0  0  0  0  0  0  0  0  0  0
  1  2  1  0
  1  5  1  0
  1  6  1  0
  1  7  1  0
  2  4  1  0
  2  3  1  0
  3  8  1  0
  4  9  1  0
  4 10  1  0
  4 11  1  0
M  RAD  1   2   2
M  END
>  <reaction>  (2) 
rxn_1237

>  <mol_properties>  (2) 
{"1": {"label": "acceptor", "atom_type": "Cs"}}

>  <type>  (2) 
r2

$$$$

     RDKit          3D

 12 11  0  0  0  0  0  0  0  0999 V2000
    1.2394   -0.3763   -0.3020 C   0  0  0  0  0  0  0  0  0  0  0  0
    0.1007    0.3024    0.4464 C   0  0  0  0  0  0  0  0  0  0  0  0
   -0.1187    2.0399   -0.0725 S   0  0  0  0  0  0  0  0  0  0  0  0
   -1.1974   -0.4877    0.3552 C   0  0  0  0  0  0  0  0  0  0  0  0
    2.1681    0.1850   -0.2048 H   0  0  0  0  0  0  0  0  0  0  0  0
    1.0030   -0.4604   -1.3656 H   0  0  0  0  0  0  0  0  0  0  0  0
    1.3993   -1.3856    0.0859 H   0  0  0  0  0  0  0  0  0  0  0  0
    0.3797    0.4050    1.4982 H   0  0  0  0  0  0  0  0  0  0  0  0
   -0.4500    1.7774   -1.3452 H   0  0  0  0  0  0  0  0  0  0  0  0
   -1.0545   -1.4977    0.7478 H   0  0  0  0  0  0  0  0  0  0  0  0
   -1.5206   -0.5758   -0.6849 H   0  0  0  0  0  0  0  0  0  0  0  0
   -1.9957   -0.0054    0.9183 H   0  0  0  0  0  0  0  0  0  0  0  0
  1  2  1  0
  1  5  1  0
  1  6  1  0
  1  7  1  0
  2  4  1  0
  2  3  1  0
  2  8  1  0
  3  9  1  0
  4 10  1  0
  4 11  1  0
  4 12  1  0
M  END
>  <reaction>  (3) 
rxn_1237

>  <mol_properties>  (3) 
{"0": {"label": "a_hydrogen", "atom_type": "H0"}, "2": {"label": "acceptor", "atom_type": "Cs"}}

>  <type>  (3) 
r2h

$$$$

     RDKit          3D

 18 16  0  0  0  0  0  0  0  0999 V2000
    1.2988   -1.8133   -1.9885 C   0  0  0  0  0  0  0  0  0  0  0  0
    0.2268   -1.7939   -1.4397 C   0  0  0  0  0  0  0  0  0  0  0  0
   -1.0062   -1.6953   -0.7451 C   0  0  0  0  0  3  0  0  0  0  0  0
    2.2325   -1.8629   -2.4946 H   0  0  0  0  0  0  0  0  0  0  0  0
   -0.8726   -0.6077    0.0680 H   0  0  0  0  0  0  0  0  0  0  0  0
   -1.2178   -2.5134   -0.0613 H   0  0  0  0  0  0  0  0  0  0  0  0
   -1.8591   -1.4150   -1.3580 H   0  0  0  0  0  0  0  0  0  0  0  0
   -1.8651    0.6898    1.6352 C   0  0  0  0  0  0  0  0  0  0  0  0
   -0.6073    0.4361    0.8408 C   0  0  0  0  0  0  0  0  0  0  0  0
   -0.2875    1.7659   -0.3074 S   0  0  0  0  0  0  0  0  0  0  0  0
    0.5817   -0.0290    1.6437 C   0  0  0  0  0  0  0  0  0  0  0  0
   -2.7063    0.9385    0.9867 H   0  0  0  0  0  0  0  0  0  0  0  0
   -1.7265    1.5131    2.3433 H   0  0  0  0  0  0  0  0  0  0  0  0
   -2.1257   -0.2012    2.2099 H   0  0  0  0  0  0  0  0  0  0  0  0
    0.7878    1.2121   -0.8859 H   0  0  0  0  0  0  0  0  0  0  0  0
    0.3054   -0.8909    2.2562 H   0  0  0  0  0  0  0  0  0  0  0  0
    1.4045   -0.3275    0.9921 H   0  0  0  0  0  0  0  0  0  0  0  0
    0.9397    0.7630    2.3077 H   0  0  0  0  0  0  0  0  0  0  0  0
  1  2  3  0
  1  4  1  0
  2  3  1  0
  3  6  1  0
  3  7  1  0
  5  9  1  0
  8  9  1  0
  8 12  1  0
  8 13  1  0
  8 14  1  0
  9 11  1  0
  9 10  1  0
 10 15  1  0
 11 16  1  0
 11 17  1  0
 11 18  1  0
M  RAD  1   3   2
M  END
>  <reaction>  (4) 
rxn_1237

>  <mol_properties>  (4) 
{"1": {"label": "*4", "atom_type": "Ct"}, "2": {"label": "*3", "atom_type": "Cs"}, "4": {"label": "*2", "atom_type": "H0"}, "8": {"label": "*1", "atom_type": "Cs"}, "9": {"label": "*0", "atom_type": "S2s"}}

>  <type>  (4) 
ts

$$$$

     RDKit          3D

 18 16  0  0  0  0  0  0  0  0999 V2000
   -0.3273   -1.9636   -2.8186 C   0  0  0  0  0  0  0  0  0  0  0  0
   -0.3273   -1.9636   -1.6215 C   0  0  0  0  0  0  0  0  0  0  0  0
   -0.3273   -1.9636   -0.1661 C   0  0  0  0  0  0  0  0  0  0  0  0
   -0.3273   -1.9636   -3.8818 H   0  0  0  0  0  0  0  0  0  0  0  0
   -0.2158   -0.7440    0.2963 H   0  0  0  0  0  0  0  0  0  0  0  0
    0.5064   -2.5522    0.2193 H   0  0  0  0  0  0  0  0  0  0  0  0
   -1.2539   -2.3913    0.2193 H   0  0  0  0  0  0  0  0  0  0  0  0
   -1.3274    0.7977    1.6076 C   0  0  0  0  0  0  0  0  0  0  0  0
   -0.1042    0.4779    0.7597 C   0  0  0  0  0  3  0  0  0  0  0  0
    0.6049    1.9753   -0.0094 S   0  0  0  0  0  0  0  0  0  0  0  0
    0.9402   -0.3137    1.5343 C   0  0  0  0  0  0  0  0  0  0  0  0
   -2.0779    1.3393    1.0329 H   0  0  0  0  0  0  0  0  0  0  0  0
   -1.0484    1.4124    2.4669 H   0  0  0  0  0  0  0  0  0  0  0  0
   -1.7765   -0.1237    1.9873 H   0  0  0  0  0  0  0  0  0  0  0  0
    0.9422    2.5881    1.1347 H   0  0  0  0  0  0  0  0  0  0  0  0
    0.5069   -1.2429    1.9135 H   0  0  0  0  0  0  0  0  0  0  0  0
    1.7968   -0.5597    0.9077 H   0  0  0  0  0  0  0  0  0  0  0  0
    1.2999    0.2615    2.3910 H   0  0  0  0  0  0  0  0  0  0  0  0
  1  2  3  0
  1  4  1  0
  2  3  1  0
  3  5  1  0
  3  6  1  0
  3  7  1  0
  8  9  1  0
  8 12  1  0
  8 13  1  0
  8 14  1  0
  9 11  1  0
  9 10  1  0
 10 15  1  0
 11 16  1  0
 11 17  1  0
 11 18  1  0
M  RAD  1   9   2
M  END
>  <reaction>  (5) 
rxn_1237

>  <mol_properties>  (5) 
{"1": {"label": "*4", "atom_type": "Ct"}, "2": {"label": "*3", "atom_type": "Cs"}, "4": {"label": "*2", "atom_type": "H0"}, "8": {"label": "*1", "atom_type": "Cs"}, "9": {"label": "*0", "atom_type": "S2s"}}

>  <type>  (5) 
unop_1

>  <geom_source>  (5) 
Heuristics

$$$$

     RDKit          3D

 18 16  0  0  0  0  0  0  0  0999 V2000
   -0.4102   -1.8549   -2.9841 C   0  0  0  0  0  0  0  0  0  0  0  0
   -0.4102   -1.8549   -1.7871 C   0  0  0  0  0  0  0  0  0  0  0  0
   -0.4102   -1.8549   -0.3317 C   0  0  0  0  0  0  0  0  0  0  0  0
   -0.4102   -1.8549   -4.0474 H   0  0  0  0  0  0  0  0  0  0  0  0
   -0.2988   -0.6353    0.1307 H   0  0  0  0  0  0  0  0  0  0  0  0
    0.4235   -2.4435    0.0537 H   0  0  0  0  0  0  0  0  0  0  0  0
   -1.3368   -2.2826    0.0537 H   0  0  0  0  0  0  0  0  0  0  0  0
   -0.8221    1.5505   -0.3985 C   0  0  0  0  0  0  0  0  0  0  0  0
   -0.1871    0.5866    0.5941 C   0  0  0  0  0  3  0  0  0  0  0  0
    1.4833    1.1269    1.0984 S   0  0  0  0  0  0  0  0  0  0  0  0
   -1.0867    0.3224    1.7934 C   0  0  0  0  0  0  0  0  0  0  0  0
   -0.1801    1.7083   -1.2644 H   0  0  0  0  0  0  0  0  0  0  0  0
   -1.0036    2.5204    0.0711 H   0  0  0  0  0  0  0  0  0  0  0  0
   -1.7833    1.1607   -0.7432 H   0  0  0  0  0  0  0  0  0  0  0  0
    1.1013    2.2674    1.6913 H   0  0  0  0  0  0  0  0  0  0  0  0
   -2.0498   -0.0760    1.4641 H   0  0  0  0  0  0  0  0  0  0  0  0
   -0.6322   -0.3901    2.4809 H   0  0  0  0  0  0  0  0  0  0  0  0
   -1.2777    1.2486    2.3410 H   0  0  0  0  0  0  0  0  0  0  0  0
  1  2  3  0
  1  4  1  0
  2  3  1  0
  3  5  1  0
  3  6  1  0
  3  7  1  0
  8  9  1  0
  8 12  1  0
  8 13  1  0
  8 14  1  0
  9 11  1  0
  9 10  1  0
 10 15  1  0
 11 16  1  0
 11 17  1  0
 11 18  1  0
M  RAD  1   9   2
M  END
>  <reaction>  (6) 
rxn_1237

>  <mol_properties>  (6) 
{"1": {"label": "*4", "atom_type": "Ct"}, "2": {"label": "*3", "atom_type": "Cs"}, "4": {"label": "*2", "atom_type": "H0"}, "8": {"label": "*1", "atom_type": "Cs"}, "9": {"label": "*0", "atom_type": "S2s"}}

>  <type>  (6) 
unop_2

>  <geom_source>  (6) 
Heuristics

$$$$

     RDKit          3D

 18 16  0  0  0  0  0  0  0  0999 V2000
   -0.1776   -1.9972   -2.7274 C   0  0  0  0  0  0  0  0  0  0  0  0
   -0.1776   -1.9972   -1.5304 C   0  0  0  0  0  0  0  0  0  0  0  0
   -0.1776   -1.9972   -0.0750 C   0  0  0  0  0  0  0  0  0  0  0  0
   -0.1776   -1.9972   -3.7907 H   0  0  0  0  0  0  0  0  0  0  0  0
   -0.0661   -0.7776    0.3874 H   0  0  0  0  0  0  0  0  0  0  0  0
    0.6562   -2.5858    0.3104 H   0  0  0  0  0  0  0  0  0  0  0  0
   -1.1042   -2.4249    0.3104 H   0  0  0  0  0  0  0  0  0  0  0  0
   -0.6696    0.5306    2.1919 C   0  0  0  0  0  0  0  0  0  0  0  0
    0.0456    0.4443    0.8508 C   0  0  0  0  0  3  0  0  0  0  0  0
   -0.2286    1.9358   -0.1674 S   0  0  0  0  0  0  0  0  0  0  0  0
    1.5260    0.1269    1.0092 C   0  0  0  0  0  0  0  0  0  0  0  0
   -1.7328    0.7301    2.0623 H   0  0  0  0  0  0  0  0  0  0  0  0
   -0.2454    1.3319    2.8019 H   0  0  0  0  0  0  0  0  0  0  0  0
   -0.5550   -0.4061    2.7434 H   0  0  0  0  0  0  0  0  0  0  0  0
    0.3766    2.7987    0.6616 H   0  0  0  0  0  0  0  0  0  0  0  0
    1.6560   -0.8127    1.5524 H   0  0  0  0  0  0  0  0  0  0  0  0
    2.0189    0.0403    0.0415 H   0  0  0  0  0  0  0  0  0  0  0  0
    2.0284    0.9138    1.5772 H   0  0  0  0  0  0  0  0  0  0  0  0
  1  2  3  0
  1  4  1  0
  2  3  1  0
  3  5  1  0
  3  6  1  0
  3  7  1  0
  8  9  1  0
  8 12  1  0
  8 13  1  0
  8 14  1  0
  9 11  1  0
  9 10  1  0
 10 15  1  0
 11 16  1  0
 11 17  1  0
 11 18  1  0
M  RAD  1   9   2
M  END
>  <reaction>  (7) 
rxn_1237

>  <mol_properties>  (7) 
{"1": {"label": "*4", "atom_type": "Ct"}, "2": {"label": "*3", "atom_type": "Cs"}, "4": {"label": "*2", "atom_type": "H0"}, "8": {"label": "*1", "atom_type": "Cs"}, "9": {"label": "*0", "atom_type": "S2s"}}

>  <type>  (7) 
unop_3

>  <geom_source>  (7) 
Heuristics

$$$$

     RDKit          3D

 18 16  0  0  0  0  0  0  0  0999 V2000
   -0.2571   -1.5201   -3.1959 C   0  0  0  0  0  0  0  0  0  0  0  0
   -0.2571   -1.5201   -1.9988 C   0  0  0  0  0  0  0  0  0  0  0  0
   -0.2571   -1.5201   -0.5434 C   0  0  0  0  0  0  0  0  0  0  0  0
   -0.2571   -1.5201   -4.2591 H   0  0  0  0  0  0  0  0  0  0  0  0
   -0.1456   -0.3006   -0.0810 H   0  0  0  0  0  0  0  0  0  0  0  0
    0.5766   -2.1087   -0.1580 H   0  0  0  0  0  0  0  0  0  0  0  0
   -1.1837   -1.9478   -0.1580 H   0  0  0  0  0  0  0  0  0  0  0  0
    1.2733    1.5208   -0.1171 C   0  0  0  0  0  0  0  0  0  0  0  0
   -0.0340    0.9214    0.3823 C   0  0  0  0  0  3  0  0  0  0  0  0
    0.2203   -0.1627    1.8303 S   0  0  0  0  0  0  0  0  0  0  0  0
   -1.0897    1.9859    0.6461 C   0  0  0  0  0  0  0  0  0  0  0  0
    2.0096    0.7462   -0.3284 H   0  0  0  0  0  0  0  0  0  0  0  0
    1.6958    2.1964    0.6306 H   0  0  0  0  0  0  0  0  0  0  0  0
    1.1015    2.0973   -1.0297 H   0  0  0  0  0  0  0  0  0  0  0  0
    0.6747    0.7911    2.6560 H   0  0  0  0  0  0  0  0  0  0  0  0
   -1.2781    2.5657   -0.2612 H   0  0  0  0  0  0  0  0  0  0  0  0
   -2.0280    1.5410    0.9756 H   0  0  0  0  0  0  0  0  0  0  0  0
   -0.7513    2.6781    1.4210 H   0  0  0  0  0  0  0  0  0  0  0  0
  1  2  3  0
  1  4  1  0
  2  3  1  0
  3  5  1  0
  3  6  1  0
  3  7  1  0
  8  9  1  0
  8 12  1  0
  8 13  1  0
  8 14  1  0
  9 11  1  0
  9 10  1  0
 10 15  1  0
 11 16  1  0
 11 17  1  0
 11 18  1  0
M  RAD  1   9   2
M  END
>  <reaction>  (8) 
rxn_1237

>  <mol_properties>  (8) 
{"1": {"label": "*4", "atom_type": "Ct"}, "2": {"label": "*3", "atom_type": "Cs"}, "4": {"label": "*2", "atom_type": "H0"}, "8": {"label": "*1", "atom_type": "Cs"}, "9": {"label": "*0", "atom_type": "S2s"}}

>  <type>  (8) 
unop_4

>  <geom_source>  (8) 
Heuristics

$$$$

     RDKit          3D

 18 16  0  0  0  0  0  0  0  0999 V2000
    0.1068   -1.9154   -2.7539 C   0  0  0  0  0  0  0  0  0  0  0  0
    0.1068   -1.9154   -1.5569 C   0  0  0  0  0  0  0  0  0  0  0  0
    0.1068   -1.9154   -0.1014 C   0  0  0  0  0  0  0  0  0  0  0  0
    0.1068   -1.9154   -3.8172 H   0  0  0  0  0  0  0  0  0  0  0  0
    0.2183   -0.6959    0.3610 H   0  0  0  0  0  0  0  0  0  0  0  0
    0.9405   -2.5040    0.2839 H   0  0  0  0  0  0  0  0  0  0  0  0
   -0.8198   -2.3431    0.2839 H   0  0  0  0  0  0  0  0  0  0  0  0
    0.3256    0.4790    2.3459 C   0  0  0  0  0  0  0  0  0  0  0  0
    0.3299    0.5261    0.8243 C   0  0  0  0  0  3  0  0  0  0  0  0
   -1.1673    1.3353    0.1612 S   0  0  0  0  0  0  0  0  0  0  0  0
    1.6053    1.1481    0.2729 C   0  0  0  0  0  0  0  0  0  0  0  0
   -0.5795    0.0063    2.7256 H   0  0  0  0  0  0  0  0  0  0  0  0
    0.3817    1.4883    2.7611 H   0  0  0  0  0  0  0  0  0  0  0  0
    1.1909   -0.0810    2.7101 H   0  0  0  0  0  0  0  0  0  0  0  0
   -0.9354    2.5437    0.6944 H   0  0  0  0  0  0  0  0  0  0  0  0
    2.4795    0.5928    0.6226 H   0  0  0  0  0  0  0  0  0  0  0  0
    1.6071    1.1495   -0.8165 H   0  0  0  0  0  0  0  0  0  0  0  0
    1.7069    2.1812    0.6143 H   0  0  0  0  0  0  0  0  0  0  0  0
  1  2  3  0
  1  4  1  0
  2  3  1  0
  3  5  1  0
  3  6  1  0
  3  7  1  0
  8  9  1  0
  8 12  1  0
  8 13  1  0
  8 14  1  0
  9 11  1  0
  9 10  1  0
 10 15  1  0
 11 16  1  0
 11 17  1  0
 11 18  1  0
M  RAD  1   9   2
M  END
>  <reaction>  (9) 
rxn_1237

>  <mol_properties>  (9) 
{"1": {"label": "*4", "atom_type": "Ct"}, "2": {"label": "*3", "atom_type": "Cs"}, "4": {"label": "*2", "atom_type": "H0"}, "8": {"label": "*1", "atom_type": "Cs"}, "9": {"label": "*0", "atom_type": "S2s"}}

>  <type>  (9) 
unop_5

>  <geom_source>  (9) 
Heuristics

$$$$

     RDKit          3D

 18 16  0  0  0  0  0  0  0  0999 V2000
   -0.0602   -1.4877   -3.1949 C   0  0  0  0  0  0  0  0  0  0  0  0
   -0.0602   -1.4877   -1.9979 C   0  0  0  0  0  0  0  0  0  0  0  0
   -0.0602   -1.4877   -0.5425 C   0  0  0  0  0  0  0  0  0  0  0  0
   -0.0602   -1.4877   -4.2582 H   0  0  0  0  0  0  0  0  0  0  0  0
    0.0513   -0.2681   -0.0800 H   0  0  0  0  0  0  0  0  0  0  0  0
    0.7735   -2.0762   -0.1571 H   0  0  0  0  0  0  0  0  0  0  0  0
   -0.9868   -1.9154   -0.1571 H   0  0  0  0  0  0  0  0  0  0  0  0
    1.6392    1.2823    0.5575 C   0  0  0  0  0  0  0  0  0  0  0  0
    0.1629    0.9539    0.3833 C   0  0  0  0  0  3  0  0  0  0  0  0
   -0.4367   -0.1997    1.6663 S   0  0  0  0  0  0  0  0  0  0  0  0
   -0.6975    2.2067    0.2965 C   0  0  0  0  0  0  0  0  0  0  0  0
    2.2457    0.3779    0.5898 H   0  0  0  0  0  0  0  0  0  0  0  0
    1.8023    1.8342    1.4865 H   0  0  0  0  0  0  0  0  0  0  0  0
    1.9883    1.9074   -0.2684 H   0  0  0  0  0  0  0  0  0  0  0  0
   -0.2311    0.6153    2.7111 H   0  0  0  0  0  0  0  0  0  0  0  0
   -0.3648    2.8382   -0.5313 H   0  0  0  0  0  0  0  0  0  0  0  0
   -1.7470    1.9573    0.1437 H   0  0  0  0  0  0  0  0  0  0  0  0
   -0.6176    2.7914    1.2162 H   0  0  0  0  0  0  0  0  0  0  0  0
  1  2  3  0
  1  4  1  0
  2  3  1  0
  3  5  1  0
  3  6  1  0
  3  7  1  0
  8  9  1  0
  8 12  1  0
  8 13  1  0
  8 14  1  0
  9 11  1  0
  9 10  1  0
 10 15  1  0
 11 16  1  0
 11 17  1  0
 11 18  1  0
M  RAD  1   9   2
M  END
>  <reaction>  (10) 
rxn_1237

>  <mol_properties>  (10) 
{"1": {"label": "*4", "atom_type": "Ct"}, "2": {"label": "*3", "atom_type": "Cs"}, "4": {"label": "*2", "atom_type": "H0"}, "8": {"label": "*1", "atom_type": "Cs"}, "9": {"label": "*0", "atom_type": "S2s"}}

>  <type>  (10) 
unop_6

>  <geom_source>  (10) 
Heuristics

$$$$

     RDKit          3D

 18 16  0  0  0  0  0  0  0  0999 V2000
    0.1280   -1.5382   -3.1091 C   0  0  0  0  0  0  0  0  0  0  0  0
    0.1280   -1.5382   -1.9120 C   0  0  0  0  0  0  0  0  0  0  0  0
    0.1280   -1.5382   -0.4566 C   0  0  0  0  0  0  0  0  0  0  0  0
    0.1280   -1.5382   -4.1723 H   0  0  0  0  0  0  0  0  0  0  0  0
    0.2395   -0.3186    0.0058 H   0  0  0  0  0  0  0  0  0  0  0  0
    0.9617   -2.1268   -0.0712 H   0  0  0  0  0  0  0  0  0  0  0  0
   -0.7986   -1.9659   -0.0712 H   0  0  0  0  0  0  0  0  0  0  0  0
    1.6121    0.9960    1.3171 C   0  0  0  0  0  0  0  0  0  0  0  0
    0.3512    0.9033    0.4691 C   0  0  0  0  0  3  0  0  0  0  0  0
   -0.9783   -0.0163    1.3195 S   0  0  0  0  0  0  0  0  0  0  0  0
   -0.1186    2.2690   -0.0121 C   0  0  0  0  0  0  0  0  0  0  0  0
    1.9526    0.0099    1.6307 H   0  0  0  0  0  0  0  0  0  0  0  0
    1.4284    1.5931    2.2137 H   0  0  0  0  0  0  0  0  0  0  0  0
    2.4138    1.4788    0.7523 H   0  0  0  0  0  0  0  0  0  0  0  0
   -1.1291    0.8424    2.3383 H   0  0  0  0  0  0  0  0  0  0  0  0
    0.6710    2.7607   -0.5862 H   0  0  0  0  0  0  0  0  0  0  0  0
   -1.0047    2.1850   -0.6404 H   0  0  0  0  0  0  0  0  0  0  0  0
   -0.3640    2.9114    0.8372 H   0  0  0  0  0  0  0  0  0  0  0  0
  1  2  3  0
  1  4  1  0
  2  3  1  0
  3  5  1  0
  3  6  1  0
  3  7  1  0
  8  9  1  0
  8 12  1  0
  8 13  1  0
  8 14  1  0
  9 11  1  0
  9 10  1  0
 10 15  1  0
 11 16  1  0
 11 17  1  0
 11 18  1  0
M  RAD  1   9   2
M  END
>  <reaction>  (11) 
rxn_1237

>  <mol_properties>  (11) 
{"1": {"label": "*4", "atom_type": "Ct"}, "2": {"label": "*3", "atom_type": "Cs"}, "4": {"label": "*2", "atom_type": "H0"}, "8": {"label": "*1", "atom_type": "Cs"}, "9": {"label": "*0", "atom_type": "S2s"}}

>  <type>  (11) 
unop_7

>  <geom_source>  (11) 
Heuristics

$$$$

     RDKit          3D

 18 16  0  0  0  0  0  0  0  0999 V2000
   -0.3666   -1.9278   -2.9037 C   0  0  0  0  0  0  0  0  0  0  0  0
   -0.3666   -1.9278   -1.7067 C   0  0  0  0  0  0  0  0  0  0  0  0
   -0.3666   -1.9278   -0.2513 C   0  0  0  0  0  0  0  0  0  0  0  0
   -0.3666   -1.9278   -3.9670 H   0  0  0  0  0  0  0  0  0  0  0  0
   -0.2551   -0.7082    0.2112 H   0  0  0  0  0  0  0  0  0  0  0  0
    0.4671   -2.5164    0.1341 H   0  0  0  0  0  0  0  0  0  0  0  0
   -1.2932   -2.3555    0.1341 H   0  0  0  0  0  0  0  0  0  0  0  0
   -1.5357    1.1044    0.8487 C   0  0  0  0  0  0  0  0  0  0  0  0
   -0.1434    0.5137    0.6745 C   0  0  0  0  0  3  0  0  0  0  0  0
    1.1074    1.8006    0.3342 S   0  0  0  0  0  0  0  0  0  0  0  0
    0.2550   -0.3723    1.8466 C   0  0  0  0  0  0  0  0  0  0  0  0
   -1.8187    1.7128   -0.0095 H   0  0  0  0  0  0  0  0  0  0  0  0
   -1.5760    1.7349    1.7404 H   0  0  0  0  0  0  0  0  0  0  0  0
   -2.2732    0.3067    0.9695 H   0  0  0  0  0  0  0  0  0  0  0  0
    0.9856    2.4437    1.5046 H   0  0  0  0  0  0  0  0  0  0  0  0
   -0.4700   -1.1802    1.9743 H   0  0  0  0  0  0  0  0  0  0  0  0
    1.2410   -0.8103    1.6955 H   0  0  0  0  0  0  0  0  0  0  0  0
    0.2784    0.2057    2.7737 H   0  0  0  0  0  0  0  0  0  0  0  0
  1  2  3  0
  1  4  1  0
  2  3  1  0
  3  5  1  0
  3  6  1  0
  3  7  1  0
  8  9  1  0
  8 12  1  0
  8 13  1  0
  8 14  1  0
  9 11  1  0
  9 10  1  0
 10 15  1  0
 11 16  1  0
 11 17  1  0
 11 18  1  0
M  RAD  1   9   2
M  END
>  <reaction>  (12) 
rxn_1237

>  <mol_properties>  (12) 
{"1": {"label": "*4", "atom_type": "Ct"}, "2": {"label": "*3", "atom_type": "Cs"}, "4": {"label": "*2", "atom_type": "H0"}, "8": {"label": "*1", "atom_type": "Cs"}, "9": {"label": "*0", "atom_type": "S2s"}}

>  <type>  (12) 
unop_8

>  <geom_source>  (12) 
Heuristics

$$$$

     RDKit          3D

 18 16  0  0  0  0  0  0  0  0999 V2000
   -0.3999   -1.6229   -3.1290 C   0  0  0  0  0  0  0  0  0  0  0  0
   -0.3999   -1.6229   -1.9320 C   0  0  0  0  0  0  0  0  0  0  0  0
   -0.3999   -1.6229   -0.4766 C   0  0  0  0  0  0  0  0  0  0  0  0
   -0.3999   -1.6229   -4.1923 H   0  0  0  0  0  0  0  0  0  0  0  0
   -0.2885   -0.4033   -0.0141 H   0  0  0  0  0  0  0  0  0  0  0  0
    0.4338   -2.2115   -0.0912 H   0  0  0  0  0  0  0  0  0  0  0  0
   -1.3265   -2.0506   -0.0912 H   0  0  0  0  0  0  0  0  0  0  0  0
    0.6224    1.6514   -0.5434 C   0  0  0  0  0  0  0  0  0  0  0  0
   -0.1768    0.8186    0.4492 C   0  0  0  0  0  3  0  0  0  0  0  0
    0.8824    0.1163    1.7612 S   0  0  0  0  0  0  0  0  0  0  0  0
   -1.3594    1.5872    1.0222 C   0  0  0  0  0  0  0  0  0  0  0  0
    1.4481    1.0802   -0.9663 H   0  0  0  0  0  0  0  0  0  0  0  0
    1.0367    2.5369   -0.0551 H   0  0  0  0  0  0  0  0  0  0  0  0
   -0.0217    1.9898   -1.3591 H   0  0  0  0  0  0  0  0  0  0  0  0
    1.2634    1.2875    2.2916 H   0  0  0  0  0  0  0  0  0  0  0  0
   -2.0174    1.9252    0.2174 H   0  0  0  0  0  0  0  0  0  0  0  0
   -1.9382    0.9704    1.7088 H   0  0  0  0  0  0  0  0  0  0  0  0
   -1.0156    2.4704    1.5661 H   0  0  0  0  0  0  0  0  0  0  0  0
  1  2  3  0
  1  4  1  0
  2  3  1  0
  3  5  1  0
  3  6  1  0
  3  7  1  0
  8  9  1  0
  8 12  1  0
  8 13  1  0
  8 14  1  0
  9 11  1  0
  9 10  1  0
 10 15  1  0
 11 16  1  0
 11 17  1  0
 11 18  1  0
M  RAD  1   9   2
M  END
>  <reaction>  (13) 
rxn_1237

>  <mol_properties>  (13) 
{"1": {"label": "*4", "atom_type": "Ct"}, "2": {"label": "*3", "atom_type": "Cs"}, "4": {"label": "*2", "atom_type": "H0"}, "8": {"label": "*1", "atom_type": "Cs"}, "9": {"label": "*0", "atom_type": "S2s"}}

>  <type>  (13) 
unop_9

>  <geom_source>  (13) 
Heuristics

$$$$

     RDKit          3D

 18 16  0  0  0  0  0  0  0  0999 V2000
   -0.3785   -1.9009   -2.9521 C   0  0  0  0  0  0  0  0  0  0  0  0
   -0.3785   -1.9009   -1.7551 C   0  0  0  0  0  0  0  0  0  0  0  0
   -0.3785   -1.9009   -0.2996 C   0  0  0  0  0  0  0  0  0  0  0  0
   -0.3785   -1.9009   -4.0154 H   0  0  0  0  0  0  0  0  0  0  0  0
   -0.2671   -0.6814    0.1628 H   0  0  0  0  0  0  0  0  0  0  0  0
    0.4552   -2.4895    0.0857 H   0  0  0  0  0  0  0  0  0  0  0  0
   -1.3051   -2.3286    0.0857 H   0  0  0  0  0  0  0  0  0  0  0  0
   -1.3323    1.3670    0.1267 C   0  0  0  0  0  0  0  0  0  0  0  0
   -0.1554    0.5406    0.6261 C   0  0  0  0  0  3  0  0  0  0  0  0
    1.3814    1.5238    0.7152 S   0  0  0  0  0  0  0  0  0  0  0  0
   -0.4622   -0.1575    1.9437 C   0  0  0  0  0  0  0  0  0  0  0  0
   -1.1089    1.8377   -0.8301 H   0  0  0  0  0  0  0  0  0  0  0  0
   -1.5797    2.1542    0.8431 H   0  0  0  0  0  0  0  0  0  0  0  0
   -2.2156    0.7344    0.0066 H   0  0  0  0  0  0  0  0  0  0  0  0
    0.9540    2.3893    1.6460 H   0  0  0  0  0  0  0  0  0  0  0  0
   -1.3394   -0.8007    1.8364 H   0  0  0  0  0  0  0  0  0  0  0  0
    0.3778   -0.7672    2.2746 H   0  0  0  0  0  0  0  0  0  0  0  0
   -0.6787    0.5755    2.7248 H   0  0  0  0  0  0  0  0  0  0  0  0
  1  2  3  0
  1  4  1  0
  2  3  1  0
  3  5  1  0
  3  6  1  0
  3  7  1  0
  8  9  1  0
  8 12  1  0
  8 13  1  0
  8 14  1  0
  9 11  1  0
  9 10  1  0
 10 15  1  0
 11 16  1  0
 11 17  1  0
 11 18  1  0
M  RAD  1   9   2
M  END
>  <reaction>  (14) 
rxn_1237

>  <mol_properties>  (14) 
{"1": {"label": "*4", "atom_type": "Ct"}, "2": {"label": "*3", "atom_type": "Cs"}, "4": {"label": "*2", "atom_type": "H0"}, "8": {"label": "*1", "atom_type": "Cs"}, "9": {"label": "*0", "atom_type": "S2s"}}

>  <type>  (14) 
unop_10

>  <geom_source>  (14) 
Heuristics

$$$$

     RDKit          3D

 18 16  0  0  0  0  0  0  0  0999 V2000
    0.2314   -1.6900   -2.9418 C   0  0  0  0  0  0  0  0  0  0  0  0
    0.2314   -1.6900   -1.7447 C   0  0  0  0  0  0  0  0  0  0  0  0
    0.2314   -1.6900   -0.2893 C   0  0  0  0  0  0  0  0  0  0  0  0
    0.2314   -1.6900   -4.0051 H   0  0  0  0  0  0  0  0  0  0  0  0
    0.3429   -0.4705    0.1731 H   0  0  0  0  0  0  0  0  0  0  0  0
    1.0651   -2.2786    0.0960 H   0  0  0  0  0  0  0  0  0  0  0  0
   -0.6952   -2.1177    0.0960 H   0  0  0  0  0  0  0  0  0  0  0  0
    1.1736    0.7067    1.9775 C   0  0  0  0  0  0  0  0  0  0  0  0
    0.4545    0.7515    0.6364 C   0  0  0  0  0  3  0  0  0  0  0  0
   -1.3402    0.4612    0.8130 S   0  0  0  0  0  0  0  0  0  0  0  0
    0.7517    2.0318   -0.1317 C   0  0  0  0  0  0  0  0  0  0  0  0
    0.9745   -0.2264    2.5034 H   0  0  0  0  0  0  0  0  0  0  0  0
    0.8478    1.5323    2.6151 H   0  0  0  0  0  0  0  0  0  0  0  0
    2.2527    0.8021    1.8322 H   0  0  0  0  0  0  0  0  0  0  0  0
   -1.5984    1.5516    1.5496 H   0  0  0  0  0  0  0  0  0  0  0  0
    1.8279    2.1364   -0.2918 H   0  0  0  0  0  0  0  0  0  0  0  0
    0.2537    2.0377   -1.1007 H   0  0  0  0  0  0  0  0  0  0  0  0
    0.4110    2.9045    0.4308 H   0  0  0  0  0  0  0  0  0  0  0  0
  1  2  3  0
  1  4  1  0
  2  3  1  0
  3  5  1  0
  3  6  1  0
  3  7  1  0
  8  9  1  0
  8 12  1  0
  8 13  1  0
  8 14  1  0
  9 11  1  0
  9 10  1  0
 10 15  1  0
 11 16  1  0
 11 17  1  0
 11 18  1  0
M  RAD  1   9   2
M  END
>  <reaction>  (15) 
rxn_1237

>  <mol_properties>  (15) 
{"1": {"label": "*4", "atom_type": "Ct"}, "2": {"label": "*3", "atom_type": "Cs"}, "4": {"label": "*2", "atom_type": "H0"}, "8": {"label": "*1", "atom_type": "Cs"}, "9": {"label": "*0", "atom_type": "S2s"}}

>  <type>  (15) 
unop_11

>  <geom_source>  (15) 
Heuristics

$$$$

     RDKit          3D

 18 16  0  0  0  0  0  0  0  0999 V2000
   -0.4424   -1.7562   -3.0415 C   0  0  0  0  0  0  0  0  0  0  0  0
   -0.4424   -1.7562   -1.8445 C   0  0  0  0  0  0  0  0  0  0  0  0
   -0.4424   -1.7562   -0.3891 C   0  0  0  0  0  0  0  0  0  0  0  0
   -0.4424   -1.7562   -4.1048 H   0  0  0  0  0  0  0  0  0  0  0  0
   -0.3309   -0.5366    0.0734 H   0  0  0  0  0  0  0  0  0  0  0  0
    0.3913   -2.3448   -0.0037 H   0  0  0  0  0  0  0  0  0  0  0  0
   -1.3690   -2.1839   -0.0037 H   0  0  0  0  0  0  0  0  0  0  0  0
   -0.1309    1.6515   -0.6364 C   0  0  0  0  0  0  0  0  0  0  0  0
   -0.2192    0.6853    0.5367 C   0  0  0  0  0  3  0  0  0  0  0  0
    1.3448    0.6069    1.4769 S   0  0  0  0  0  0  0  0  0  0  0  0
   -1.4106    0.9824    1.4366 C   0  0  0  0  0  0  0  0  0  0  0  0
    0.7089    1.4100   -1.2869 H   0  0  0  0  0  0  0  0  0  0  0  0
   -0.0011    2.6764   -0.2802 H   0  0  0  0  0  0  0  0  0  0  0  0
   -1.0506    1.6164   -1.2262 H   0  0  0  0  0  0  0  0  0  0  0  0
    1.3400    1.8839    1.8861 H   0  0  0  0  0  0  0  0  0  0  0  0
   -2.3392    0.9427    0.8613 H   0  0  0  0  0  0  0  0  0  0  0  0
   -1.4776    0.2667    2.2552 H   0  0  0  0  0  0  0  0  0  0  0  0
   -1.3263    1.9835    1.8666 H   0  0  0  0  0  0  0  0  0  0  0  0
  1  2  3  0
  1  4  1  0
  2  3  1  0
  3  5  1  0
  3  6  1  0
  3  7  1  0
  8  9  1  0
  8 12  1  0
  8 13  1  0
  8 14  1  0
  9 11  1  0
  9 10  1  0
 10 15  1  0
 11 16  1  0
 11 17  1  0
 11 18  1  0
M  RAD  1   9   2
M  END
>  <reaction>  (16) 
rxn_1237

>  <mol_properties>  (16) 
{"1": {"label": "*4", "atom_type": "Ct"}, "2": {"label": "*3", "atom_type": "Cs"}, "4": {"label": "*2", "atom_type": "H0"}, "8": {"label": "*1", "atom_type": "Cs"}, "9": {"label": "*0", "atom_type": "S2s"}}

>  <type>  (16) 
unop_12

>  <geom_source>  (16) 
Heuristics

$$$$

     RDKit          3D

 18 16  0  0  0  0  0  0  0  0999 V2000
   -1.7852   -0.7582   -1.4209 S   0  0  0  0  0  0  0  0  0  0  0  0
   -0.8112   -0.0979   -0.0256 C   0  0  0  0  0  3  0  0  0  0  0  0
   -1.2168   -0.7867    1.2763 C   0  0  0  0  0  0  0  0  0  0  0  0
   -0.9847    1.4169    0.0714 C   0  0  0  0  0  0  0  0  0  0  0  0
    1.4555   -0.9098   -1.0276 C   0  0  0  0  0  0  0  0  0  0  0  0
    2.4466    0.0177   -0.4815 C   0  0  0  0  0  0  0  0  0  0  0  0
    3.2629    0.7819   -0.0315 C   0  0  0  0  0  0  0  0  0  0  0  0
    0.4982   -0.3654   -0.2626 H   0  0  0  0  0  0  0  0  0  0  0  0
   -1.0700   -1.8832    1.1826 H   0  0  0  0  0  0  0  0  0  0  0  0
   -0.5840   -0.4207    2.1123 H   0  0  0  0  0  0  0  0  0  0  0  0
   -2.2829   -0.5839    1.5142 H   0  0  0  0  0  0  0  0  0  0  0  0
   -2.0444    1.6801    0.2762 H   0  0  0  0  0  0  0  0  0  0  0  0
   -0.3479    1.8202    0.8870 H   0  0  0  0  0  0  0  0  0  0  0  0
   -0.6722    1.8924   -0.8820 H   0  0  0  0  0  0  0  0  0  0  0  0
    1.6121   -1.0177   -2.1207 H   0  0  0  0  0  0  0  0  0  0  0  0
    1.5659   -1.8997   -0.5388 H   0  0  0  0  0  0  0  0  0  0  0  0
   -3.0216   -0.3390   -0.8924 H   0  0  0  0  0  0  0  0  0  0  0  0
    3.9796    1.4529    0.3636 H   0  0  0  0  0  0  0  0  0  0  0  0
  1  2  1  0
  1 17  1  0
  2  3  1  0
  2  4  1  0
  3  9  1  0
  3 10  1  0
  3 11  1  0
  4 12  1  0
  4 13  1  0
  4 14  1  0
  5  6  1  0
  5  8  1  0
  5 15  1  0
  5 16  1  0
  6  7  3  0
  7 18  1  0
M  RAD  1   2   2
M  END
>  <reaction>  (17) 
rxn_1237

>  <mol_properties>  (17) 
{"1": {"label": "*4", "atom_type": "Ct"}, "2": {"label": "*3", "atom_type": "Cs"}, "4": {"label": "*2", "atom_type": "H0"}, "8": {"label": "*1", "atom_type": "Cs"}, "9": {"label": "*0", "atom_type": "S2s"}}

>  <type>  (17) 
unop_13

>  <geom_source>  (17) 
AutoTST

$$$$
