
     RDKit          3D

  9  8  0  0  0  0  0  0  0  0999 V2000
   -2.1022   -0.6873    0.3932 C   0  0  0  0  0  0  0  0  0  0  0  0
   -1.2072   -0.1086   -0.1482 C   0  0  0  0  0  0  0  0  0  0  0  0
   -0.1242    0.6105   -0.8193 C   0  0  0  0  0  0  0  0  0  0  0  0
    1.2067    0.1106   -0.4741 C   0  0  0  0  0  0  0  0  0  0  0  0
    2.3005   -0.2875   -0.2012 C   0  0  0  0  0  0  0  0  0  0  0  0
   -2.8942   -1.2059    0.8778 H   0  0  0  0  0  0  0  0  0  0  0  0
   -0.1862    1.6723   -0.5649 H   0  0  0  0  0  0  0  0  0  0  0  0
   -0.2641    0.5418   -1.9017 H   0  0  0  0  0  0  0  0  0  0  0  0
    3.2709   -0.6459    0.0455 H   0  0  0  0  0  0  0  0  0  0  0  0
  1  2  3  0
  1  6  1  0
  2  3  1  0
  3  4  1  0
  3  7  1  0
  3  8  1  0
  4  5  3  0
  5  9  1  0
M  END
>  <reaction>  (1) 
rxn_1369

>  <mol_properties>  (1) 
{"2": {"label": "donator", "atom_type": "Cs"}, "6": {"label": "d_hydrogen", "atom_type": "H0"}}

>  <type>  (1) 
r1h

$$$$

     RDKit          3D

 11 10  0  0  0  0  0  0  0  0999 V2000
    1.0781   -1.0166   -0.1159 C   0  0  0  0  0  0  0  0  0  0  0  0
    0.2180    0.1942   -0.2297 C   0  0  0  0  0  3  0  0  0  0  0  0
    0.9343    1.7769   -0.3011 S   0  0  0  0  0  0  0  0  0  0  0  0
   -1.1949    0.1490    0.2439 C   0  0  0  0  0  0  0  0  0  0  0  0
    1.4718   -1.1461    0.9024 H   0  0  0  0  0  0  0  0  0  0  0  0
    1.9367   -0.9751   -0.7902 H   0  0  0  0  0  0  0  0  0  0  0  0
    0.5033   -1.9136   -0.3576 H   0  0  0  0  0  0  0  0  0  0  0  0
    2.1166    1.4195   -0.8209 H   0  0  0  0  0  0  0  0  0  0  0  0
   -1.2620    0.0939    1.3399 H   0  0  0  0  0  0  0  0  0  0  0  0
   -1.7600    1.0270   -0.0739 H   0  0  0  0  0  0  0  0  0  0  0  0
   -1.6972   -0.7380   -0.1506 H   0  0  0  0  0  0  0  0  0  0  0  0
  1  2  1  0
  1  5  1  0
  1  6  1  0
  1  7  1  0
  2  4  1  0
  2  3  1  0
  3  8  1  0
  4  9  1  0
  4 10  1  0
  4 11  1  0
M  RAD  1   2   2
M  END
>  <reaction>  (2) 
rxn_1369

>  <mol_properties>  (2) 
{"1": {"label": "acceptor", "atom_type": "Cs"}}

>  <type>  (2) 
r2

$$$$

     RDKit          3D

 12 11  0  0  0  0  0  0  0  0999 V2000
    1.2394   -0.3763   -0.3020 C   0  0  0  0  0  0  0  0  0  0  0  0
    0.1007    0.3024    0.4464 C   0  0  0  0  0  0  0  0  0  0  0  0
   -0.1187    2.0399   -0.0725 S   0  0  0  0  0  0  0  0  0  0  0  0
   -1.1974   -0.4877    0.3552 C   0  0  0  0  0  0  0  0  0  0  0  0
    2.1681    0.1850   -0.2048 H   0  0  0  0  0  0  0  0  0  0  0  0
    1.0030   -0.4604   -1.3656 H   0  0  0  0  0  0  0  0  0  0  0  0
    1.3993   -1.3856    0.0859 H   0  0  0  0  0  0  0  0  0  0  0  0
    0.3797    0.4050    1.4982 H   0  0  0  0  0  0  0  0  0  0  0  0
   -0.4500    1.7774   -1.3452 H   0  0  0  0  0  0  0  0  0  0  0  0
   -1.0545   -1.4977    0.7478 H   0  0  0  0  0  0  0  0  0  0  0  0
   -1.5206   -0.5758   -0.6849 H   0  0  0  0  0  0  0  0  0  0  0  0
   -1.9957   -0.0054    0.9183 H   0  0  0  0  0  0  0  0  0  0  0  0
  1  2  1  0
  1  5  1  0
  1  6  1  0
  1  7  1  0
  2  4  1  0
  2  3  1  0
  2  8  1  0
  3  9  1  0
  4 10  1  0
  4 11  1  0
  4 12  1  0
M  END
>  <reaction>  (3) 
rxn_1369

>  <mol_properties>  (3) 
{"0": {"label": "a_hydrogen", "atom_type": "H0"}, "2": {"label": "acceptor", "atom_type": "Cs"}}

>  <type>  (3) 
r2h

$$$$

     RDKit          3D

 20 18  0  0  0  0  0  0  0  0999 V2000
   -2.3384    0.6496   -1.9638 C   0  0  0  0  0  0  0  0  0  0  0  0
   -1.6309   -0.1570   -1.4255 C   0  0  0  0  0  0  0  0  0  0  0  0
   -0.7387   -1.0570   -0.7539 C   0  0  0  0  0  0  0  0  0  0  0  0
   -1.3152   -1.9839    0.1760 C   0  0  0  0  0  0  0  0  0  0  0  0
   -1.7508   -2.7325    1.0074 C   0  0  0  0  0  0  0  0  0  0  0  0
   -2.9809    1.3414   -2.4530 H   0  0  0  0  0  0  0  0  0  0  0  0
    0.0344   -0.2935   -0.0032 H   0  0  0  0  0  0  0  0  0  0  0  0
   -0.0012   -1.5126   -1.4142 H   0  0  0  0  0  0  0  0  0  0  0  0
   -2.1571   -3.4119    1.7174 H   0  0  0  0  0  0  0  0  0  0  0  0
    1.3589    1.5434   -0.0833 C   0  0  0  0  0  0  0  0  0  0  0  0
    0.7213    0.5431    0.8456 C   0  0  0  0  0  3  0  0  0  0  0  0
    1.9224   -0.5010    1.6325 S   0  0  0  0  0  0  0  0  0  0  0  0
   -0.3918    1.0679    1.7127 C   0  0  0  0  0  0  0  0  0  0  0  0
    2.1064    1.0777   -0.7271 H   0  0  0  0  0  0  0  0  0  0  0  0
    1.8457    2.3478    0.4778 H   0  0  0  0  0  0  0  0  0  0  0  0
    0.5916    1.9925   -0.7171 H   0  0  0  0  0  0  0  0  0  0  0  0
    1.0556   -1.2293    2.3498 H   0  0  0  0  0  0  0  0  0  0  0  0
   -1.1318    1.5795    1.0932 H   0  0  0  0  0  0  0  0  0  0  0  0
   -0.8978    0.2598    2.2432 H   0  0  0  0  0  0  0  0  0  0  0  0
   -0.0084    1.7780    2.4517 H   0  0  0  0  0  0  0  0  0  0  0  0
  1  2  3  0
  1  6  1  0
  2  3  1  0
  3  4  1  0
  3  7  1  0
  3  8  1  0
  4  5  3  0
  5  9  1  0
 10 11  1  0
 10 14  1  0
 10 15  1  0
 10 16  1  0
 11 13  1  0
 11 12  1  0
 12 17  1  0
 13 18  1  0
 13 19  1  0
 13 20  1  0
M  RAD  1  11   2
M  END
>  <reaction>  (4) 
rxn_1369

>  <mol_properties>  (4) 
{"1": {"label": "*0", "atom_type": "Ct"}, "2": {"label": "*1", "atom_type": "Cs"}, "6": {"label": "*2", "atom_type": "H0"}, "10": {"label": "*3", "atom_type": "Cs"}, "11": {"label": "*4", "atom_type": "S2s"}}

>  <type>  (4) 
ts

$$$$

     RDKit          3D

 20 18  0  0  0  0  0  0  0  0999 V2000
   -0.8993   -1.1819   -2.9006 C   0  0  0  0  0  0  0  0  0  0  0  0
   -0.8993   -1.1819   -1.7051 C   0  0  0  0  0  0  0  0  0  0  0  0
   -0.8993   -1.1819   -0.2421 C   0  0  0  0  0  3  0  0  0  0  0  0
   -2.2133   -0.9063    0.3390 C   0  0  0  0  0  0  0  0  0  0  0  0
   -3.2871   -0.6811    0.8139 C   0  0  0  0  0  0  0  0  0  0  0  0
   -0.8993   -1.1819   -3.9641 H   0  0  0  0  0  0  0  0  0  0  0  0
   -0.0412   -0.2875    0.1889 H   0  0  0  0  0  0  0  0  0  0  0  0
   -0.5439   -2.1518    0.1171 H   0  0  0  0  0  0  0  0  0  0  0  0
   -4.2423   -0.4807    1.2364 H   0  0  0  0  0  0  0  0  0  0  0  0
    0.0753    1.6354    1.4619 C   0  0  0  0  0  0  0  0  0  0  0  0
    0.8165    0.6064    0.6197 C   0  0  0  0  0  0  0  0  0  0  0  0
    2.2904    1.3195   -0.1901 S   0  0  0  0  0  0  0  0  0  0  0  0
    1.1533   -0.6489    1.4124 C   0  0  0  0  0  0  0  0  0  0  0  0
   -0.1840    2.5159    0.8750 H   0  0  0  0  0  0  0  0  0  0  0  0
    0.6924    1.9581    2.3041 H   0  0  0  0  0  0  0  0  0  0  0  0
   -0.8433    1.2029    1.8667 H   0  0  0  0  0  0  0  0  0  0  0  0
    2.9570    1.6097    0.9367 H   0  0  0  0  0  0  0  0  0  0  0  0
    0.2423   -1.0974    1.8169 H   0  0  0  0  0  0  0  0  0  0  0  0
    1.6580   -1.3873    0.7904 H   0  0  0  0  0  0  0  0  0  0  0  0
    1.8088   -0.4075    2.2528 H   0  0  0  0  0  0  0  0  0  0  0  0
  1  2  3  0
  1  6  1  0
  2  3  1  0
  3  4  1  0
  3  8  1  0
  4  5  3  0
  5  9  1  0
  7 11  1  0
 10 11  1  0
 10 14  1  0
 10 15  1  0
 10 16  1  0
 11 13  1  0
 11 12  1  0
 12 17  1  0
 13 18  1  0
 13 19  1  0
 13 20  1  0
M  RAD  1   3   2
M  END
>  <reaction>  (5) 
rxn_1369

>  <mol_properties>  (5) 
{"1": {"label": "*0", "atom_type": "Ct"}, "2": {"label": "*1", "atom_type": "Cs"}, "6": {"label": "*2", "atom_type": "H0"}, "10": {"label": "*3", "atom_type": "Cs"}, "11": {"label": "*4", "atom_type": "S2s"}}

>  <type>  (5) 
unop_1

>  <geom_source>  (5) 
Heuristics

$$$$

     RDKit          3D

 20 18  0  0  0  0  0  0  0  0999 V2000
   -0.8993   -1.0714   -3.0398 C   0  0  0  0  0  0  0  0  0  0  0  0
   -0.8993   -1.0714   -1.8443 C   0  0  0  0  0  0  0  0  0  0  0  0
   -0.8993   -1.0714   -0.3813 C   0  0  0  0  0  3  0  0  0  0  0  0
   -2.2133   -0.7958    0.1999 C   0  0  0  0  0  0  0  0  0  0  0  0
   -3.2871   -0.5706    0.6748 C   0  0  0  0  0  0  0  0  0  0  0  0
   -0.8993   -1.0714   -4.1033 H   0  0  0  0  0  0  0  0  0  0  0  0
   -0.0412   -0.1770    0.0498 H   0  0  0  0  0  0  0  0  0  0  0  0
   -0.5439   -2.0413   -0.0221 H   0  0  0  0  0  0  0  0  0  0  0  0
   -4.2423   -0.3703    1.0972 H   0  0  0  0  0  0  0  0  0  0  0  0
    0.9031    1.8473   -0.5355 C   0  0  0  0  0  0  0  0  0  0  0  0
    0.8165    0.7169    0.4806 C   0  0  0  0  0  0  0  0  0  0  0  0
    2.4681    0.1066    0.9665 S   0  0  0  0  0  0  0  0  0  0  0  0
   -0.0295    1.0945    1.6886 C   0  0  0  0  0  0  0  0  0  0  0  0
    1.4874    1.5536   -1.4068 H   0  0  0  0  0  0  0  0  0  0  0  0
    1.3745    2.7272   -0.0910 H   0  0  0  0  0  0  0  0  0  0  0  0
   -0.0976    2.1357   -0.8675 H   0  0  0  0  0  0  0  0  0  0  0  0
    2.8915    1.2474    1.5302 H   0  0  0  0  0  0  0  0  0  0  0  0
   -1.0367    1.3777    1.3721 H   0  0  0  0  0  0  0  0  0  0  0  0
   -0.1060    0.2673    2.3934 H   0  0  0  0  0  0  0  0  0  0  0  0
    0.4087    1.9477    2.2122 H   0  0  0  0  0  0  0  0  0  0  0  0
  1  2  3  0
  1  6  1  0
  2  3  1  0
  3  4  1  0
  3  8  1  0
  4  5  3  0
  5  9  1  0
  7 11  1  0
 10 11  1  0
 10 14  1  0
 10 15  1  0
 10 16  1  0
 11 13  1  0
 11 12  1  0
 12 17  1  0
 13 18  1  0
 13 19  1  0
 13 20  1  0
M  RAD  1   3   2
M  END
>  <reaction>  (6) 
rxn_1369

>  <mol_properties>  (6) 
{"1": {"label": "*0", "atom_type": "Ct"}, "2": {"label": "*1", "atom_type": "Cs"}, "6": {"label": "*2", "atom_type": "H0"}, "10": {"label": "*3", "atom_type": "Cs"}, "11": {"label": "*4", "atom_type": "S2s"}}

>  <type>  (6) 
unop_2

>  <geom_source>  (6) 
Heuristics

$$$$

     RDKit          3D

 20 18  0  0  0  0  0  0  0  0999 V2000
   -0.8184   -1.2795   -2.8248 C   0  0  0  0  0  0  0  0  0  0  0  0
   -0.8184   -1.2795   -1.6293 C   0  0  0  0  0  0  0  0  0  0  0  0
   -0.8184   -1.2795   -0.1663 C   0  0  0  0  0  3  0  0  0  0  0  0
   -2.1324   -1.0039    0.4148 C   0  0  0  0  0  0  0  0  0  0  0  0
   -3.2062   -0.7787    0.8897 C   0  0  0  0  0  0  0  0  0  0  0  0
   -0.8184   -1.2795   -3.8883 H   0  0  0  0  0  0  0  0  0  0  0  0
    0.0397   -0.3851    0.2647 H   0  0  0  0  0  0  0  0  0  0  0  0
   -0.4630   -2.2493    0.1929 H   0  0  0  0  0  0  0  0  0  0  0  0
   -4.1614   -0.5783    1.3122 H   0  0  0  0  0  0  0  0  0  0  0  0
    0.4167    1.0480    2.0356 C   0  0  0  0  0  0  0  0  0  0  0  0
    0.8974    0.5088    0.6955 C   0  0  0  0  0  0  0  0  0  0  0  0
    1.5945    1.8259   -0.3608 S   0  0  0  0  0  0  0  0  0  0  0  0
    1.8594   -0.6597    0.8586 C   0  0  0  0  0  0  0  0  0  0  0  0
   -0.2922    1.8646    1.9034 H   0  0  0  0  0  0  0  0  0  0  0  0
    1.2590    1.4210    2.6234 H   0  0  0  0  0  0  0  0  0  0  0  0
   -0.0677    0.2550    2.6112 H   0  0  0  0  0  0  0  0  0  0  0  0
    2.6208    2.1384    0.4438 H   0  0  0  0  0  0  0  0  0  0  0  0
    1.3851   -1.4645    1.4261 H   0  0  0  0  0  0  0  0  0  0  0  0
    2.1730   -1.0532   -0.1076 H   0  0  0  0  0  0  0  0  0  0  0  0
    2.7531   -0.3474    1.4046 H   0  0  0  0  0  0  0  0  0  0  0  0
  1  2  3  0
  1  6  1  0
  2  3  1  0
  3  4  1  0
  3  8  1  0
  4  5  3  0
  5  9  1  0
  7 11  1  0
 10 11  1  0
 10 14  1  0
 10 15  1  0
 10 16  1  0
 11 13  1  0
 11 12  1  0
 12 17  1  0
 13 18  1  0
 13 19  1  0
 13 20  1  0
M  RAD  1   3   2
M  END
>  <reaction>  (7) 
rxn_1369

>  <mol_properties>  (7) 
{"1": {"label": "*0", "atom_type": "Ct"}, "2": {"label": "*1", "atom_type": "Cs"}, "6": {"label": "*2", "atom_type": "H0"}, "10": {"label": "*3", "atom_type": "Cs"}, "11": {"label": "*4", "atom_type": "S2s"}}

>  <type>  (7) 
unop_3

>  <geom_source>  (7) 
Heuristics

$$$$

     RDKit          3D

 20 18  0  0  0  0  0  0  0  0999 V2000
   -0.6308   -0.9374   -3.2225 C   0  0  0  0  0  0  0  0  0  0  0  0
   -0.6308   -0.9374   -2.0270 C   0  0  0  0  0  0  0  0  0  0  0  0
   -0.6308   -0.9374   -0.5640 C   0  0  0  0  0  3  0  0  0  0  0  0
   -1.9448   -0.6618    0.0172 C   0  0  0  0  0  0  0  0  0  0  0  0
   -3.0186   -0.4366    0.4921 C   0  0  0  0  0  0  0  0  0  0  0  0
   -0.6308   -0.9374   -4.2860 H   0  0  0  0  0  0  0  0  0  0  0  0
    0.2273   -0.0430   -0.1329 H   0  0  0  0  0  0  0  0  0  0  0  0
   -0.2754   -1.9072   -0.2048 H   0  0  0  0  0  0  0  0  0  0  0  0
   -3.9738   -0.2362    0.9145 H   0  0  0  0  0  0  0  0  0  0  0  0
    2.4713    0.4943   -0.2203 C   0  0  0  0  0  0  0  0  0  0  0  0
    1.0850    0.8509    0.2979 C   0  0  0  0  0  0  0  0  0  0  0  0
    0.6342   -0.1272    1.7732 S   0  0  0  0  0  0  0  0  0  0  0  0
    0.9285    2.3464    0.5361 C   0  0  0  0  0  0  0  0  0  0  0  0
    2.5600   -0.5743   -0.4129 H   0  0  0  0  0  0  0  0  0  0  0  0
    3.2366    0.7729    0.5084 H   0  0  0  0  0  0  0  0  0  0  0  0
    2.6799    1.0346   -1.1473 H   0  0  0  0  0  0  0  0  0  0  0  0
    1.5992    0.3504    2.5724 H   0  0  0  0  0  0  0  0  0  0  0  0
    1.1262    2.8996   -0.3857 H   0  0  0  0  0  0  0  0  0  0  0  0
   -0.0763    2.5903    0.8794 H   0  0  0  0  0  0  0  0  0  0  0  0
    1.6388    2.6908    1.2917 H   0  0  0  0  0  0  0  0  0  0  0  0
  1  2  3  0
  1  6  1  0
  2  3  1  0
  3  4  1  0
  3  8  1  0
  4  5  3  0
  5  9  1  0
  7 11  1  0
 10 11  1  0
 10 14  1  0
 10 15  1  0
 10 16  1  0
 11 13  1  0
 11 12  1  0
 12 17  1  0
 13 18  1  0
 13 19  1  0
 13 20  1  0
M  RAD  1   3   2
M  END
>  <reaction>  (8) 
rxn_1369

>  <mol_properties>  (8) 
{"1": {"label": "*0", "atom_type": "Ct"}, "2": {"label": "*1", "atom_type": "Cs"}, "6": {"label": "*2", "atom_type": "H0"}, "10": {"label": "*3", "atom_type": "Cs"}, "11": {"label": "*4", "atom_type": "S2s"}}

>  <type>  (8) 
unop_4

>  <geom_source>  (8) 
Heuristics

$$$$

     RDKit          3D

 20 18  0  0  0  0  0  0  0  0999 V2000
   -0.5927   -1.3738   -2.8490 C   0  0  0  0  0  0  0  0  0  0  0  0
   -0.5927   -1.3738   -1.6535 C   0  0  0  0  0  0  0  0  0  0  0  0
   -0.5927   -1.3738   -0.1905 C   0  0  0  0  0  3  0  0  0  0  0  0
   -1.9067   -1.0982    0.3906 C   0  0  0  0  0  0  0  0  0  0  0  0
   -2.9805   -0.8730    0.8655 C   0  0  0  0  0  0  0  0  0  0  0  0
   -0.5927   -1.3738   -3.9125 H   0  0  0  0  0  0  0  0  0  0  0  0
    0.2654   -0.4794    0.2405 H   0  0  0  0  0  0  0  0  0  0  0  0
   -0.2374   -2.3437    0.1687 H   0  0  0  0  0  0  0  0  0  0  0  0
   -3.9357   -0.6726    1.2880 H   0  0  0  0  0  0  0  0  0  0  0  0
    1.1181    0.4094    2.1936 C   0  0  0  0  0  0  0  0  0  0  0  0
    1.1231    0.4145    0.6713 C   0  0  0  0  0  0  0  0  0  0  0  0
    0.4453    1.9682   -0.0092 S   0  0  0  0  0  0  0  0  0  0  0  0
    2.4977    0.0944    0.1007 C   0  0  0  0  0  0  0  0  0  0  0  0
    0.1229    0.6119    2.5878 H   0  0  0  0  0  0  0  0  0  0  0  0
    1.7989    1.1709    2.5820 H   0  0  0  0  0  0  0  0  0  0  0  0
    1.4519   -0.5610    2.5703 H   0  0  0  0  0  0  0  0  0  0  0  0
    1.3898    2.7778    0.4915 H   0  0  0  0  0  0  0  0  0  0  0  0
    2.8411   -0.8781    0.4627 H   0  0  0  0  0  0  0  0  0  0  0  0
    2.4800    0.0737   -0.9884 H   0  0  0  0  0  0  0  0  0  0  0  0
    3.2275    0.8448    0.4146 H   0  0  0  0  0  0  0  0  0  0  0  0
  1  2  3  0
  1  6  1  0
  2  3  1  0
  3  4  1  0
  3  8  1  0
  4  5  3  0
  5  9  1  0
  7 11  1  0
 10 11  1  0
 10 14  1  0
 10 15  1  0
 10 16  1  0
 11 13  1  0
 11 12  1  0
 12 17  1  0
 13 18  1  0
 13 19  1  0
 13 20  1  0
M  RAD  1   3   2
M  END
>  <reaction>  (9) 
rxn_1369

>  <mol_properties>  (9) 
{"1": {"label": "*0", "atom_type": "Ct"}, "2": {"label": "*1", "atom_type": "Cs"}, "6": {"label": "*2", "atom_type": "H0"}, "10": {"label": "*3", "atom_type": "Cs"}, "11": {"label": "*4", "atom_type": "S2s"}}

>  <type>  (9) 
unop_5

>  <geom_source>  (9) 
Heuristics

$$$$

     RDKit          3D

 20 18  0  0  0  0  0  0  0  0999 V2000
   -0.4867   -1.0180   -3.2228 C   0  0  0  0  0  0  0  0  0  0  0  0
   -0.4867   -1.0180   -2.0273 C   0  0  0  0  0  0  0  0  0  0  0  0
   -0.4867   -1.0180   -0.5643 C   0  0  0  0  0  3  0  0  0  0  0  0
   -1.8007   -0.7424    0.0169 C   0  0  0  0  0  0  0  0  0  0  0  0
   -2.8745   -0.5172    0.4918 C   0  0  0  0  0  0  0  0  0  0  0  0
   -0.4867   -1.0180   -4.2863 H   0  0  0  0  0  0  0  0  0  0  0  0
    0.3714   -0.1236   -0.1333 H   0  0  0  0  0  0  0  0  0  0  0  0
   -0.1313   -1.9878   -0.2051 H   0  0  0  0  0  0  0  0  0  0  0  0
   -3.8297   -0.3168    0.9142 H   0  0  0  0  0  0  0  0  0  0  0  0
    2.5909    0.1094    0.4596 C   0  0  0  0  0  0  0  0  0  0  0  0
    1.2291    0.7703    0.2975 C   0  0  0  0  0  0  0  0  0  0  0  0
    0.0646    0.2675    1.6119 S   0  0  0  0  0  0  0  0  0  0  0  0
    1.3362    2.2843    0.1799 C   0  0  0  0  0  0  0  0  0  0  0  0
    2.5016   -0.9750    0.5141 H   0  0  0  0  0  0  0  0  0  0  0  0
    3.0794    0.4565    1.3734 H   0  0  0  0  0  0  0  0  0  0  0  0
    3.2384    0.3644   -0.3834 H   0  0  0  0  0  0  0  0  0  0  0  0
    0.7526    0.7959    2.6344 H   0  0  0  0  0  0  0  0  0  0  0  0
    1.9750    2.5545   -0.6650 H   0  0  0  0  0  0  0  0  0  0  0  0
    0.3577    2.7413    0.0363 H   0  0  0  0  0  0  0  0  0  0  0  0
    1.7801    2.7088    1.0838 H   0  0  0  0  0  0  0  0  0  0  0  0
  1  2  3  0
  1  6  1  0
  2  3  1  0
  3  4  1  0
  3  8  1  0
  4  5  3  0
  5  9  1  0
  7 11  1  0
 10 11  1  0
 10 14  1  0
 10 15  1  0
 10 16  1  0
 11 13  1  0
 11 12  1  0
 12 17  1  0
 13 18  1  0
 13 19  1  0
 13 20  1  0
M  RAD  1   3   2
M  END
>  <reaction>  (10) 
rxn_1369

>  <mol_properties>  (10) 
{"1": {"label": "*0", "atom_type": "Ct"}, "2": {"label": "*1", "atom_type": "Cs"}, "6": {"label": "*2", "atom_type": "H0"}, "10": {"label": "*3", "atom_type": "Cs"}, "11": {"label": "*4", "atom_type": "S2s"}}

>  <type>  (10) 
unop_6

>  <geom_source>  (10) 
Heuristics

$$$$

     RDKit          3D

 20 18  0  0  0  0  0  0  0  0999 V2000
   -0.3897   -1.1465   -3.1510 C   0  0  0  0  0  0  0  0  0  0  0  0
   -0.3897   -1.1465   -1.9555 C   0  0  0  0  0  0  0  0  0  0  0  0
   -0.3897   -1.1465   -0.4925 C   0  0  0  0  0  3  0  0  0  0  0  0
   -1.7038   -0.8709    0.0886 C   0  0  0  0  0  0  0  0  0  0  0  0
   -2.7775   -0.6457    0.5635 C   0  0  0  0  0  0  0  0  0  0  0  0
   -0.3897   -1.1465   -4.2145 H   0  0  0  0  0  0  0  0  0  0  0  0
    0.4684   -0.2521   -0.0615 H   0  0  0  0  0  0  0  0  0  0  0  0
   -0.0344   -2.1163   -0.1334 H   0  0  0  0  0  0  0  0  0  0  0  0
   -3.7327   -0.4453    0.9860 H   0  0  0  0  0  0  0  0  0  0  0  0
    2.3849   -0.0561    1.2115 C   0  0  0  0  0  0  0  0  0  0  0  0
    1.3261    0.6418    0.3693 C   0  0  0  0  0  0  0  0  0  0  0  0
   -0.2710    0.7688    1.2467 S   0  0  0  0  0  0  0  0  0  0  0  0
    1.8017    1.9929   -0.1465 C   0  0  0  0  0  0  0  0  0  0  0  0
    2.0418   -1.0331    1.5501 H   0  0  0  0  0  0  0  0  0  0  0  0
    2.6300    0.5421    2.0925 H   0  0  0  0  0  0  0  0  0  0  0  0
    3.3022   -0.1898    0.6322 H   0  0  0  0  0  0  0  0  0  0  0  0
    0.1653    1.5532    2.2430 H   0  0  0  0  0  0  0  0  0  0  0  0
    2.7149    1.8735   -0.7352 H   0  0  0  0  0  0  0  0  0  0  0  0
    1.0453    2.4680   -0.7703 H   0  0  0  0  0  0  0  0  0  0  0  0
    2.0260    2.6640    0.6862 H   0  0  0  0  0  0  0  0  0  0  0  0
  1  2  3  0
  1  6  1  0
  2  3  1  0
  3  4  1  0
  3  8  1  0
  4  5  3  0
  5  9  1  0
  7 11  1  0
 10 11  1  0
 10 14  1  0
 10 15  1  0
 10 16  1  0
 11 13  1  0
 11 12  1  0
 12 17  1  0
 13 18  1  0
 13 19  1  0
 13 20  1  0
M  RAD  1   3   2
M  END
>  <reaction>  (11) 
rxn_1369

>  <mol_properties>  (11) 
{"1": {"label": "*0", "atom_type": "Ct"}, "2": {"label": "*1", "atom_type": "Cs"}, "6": {"label": "*2", "atom_type": "H0"}, "10": {"label": "*3", "atom_type": "Cs"}, "11": {"label": "*4", "atom_type": "S2s"}}

>  <type>  (11) 
unop_7

>  <geom_source>  (11) 
Heuristics

$$$$

     RDKit          3D

 20 18  0  0  0  0  0  0  0  0999 V2000
   -0.9075   -1.1398   -2.9718 C   0  0  0  0  0  0  0  0  0  0  0  0
   -0.9075   -1.1398   -1.7763 C   0  0  0  0  0  0  0  0  0  0  0  0
   -0.9075   -1.1398   -0.3133 C   0  0  0  0  0  3  0  0  0  0  0  0
   -2.2215   -0.8642    0.2679 C   0  0  0  0  0  0  0  0  0  0  0  0
   -3.2953   -0.6390    0.7428 C   0  0  0  0  0  0  0  0  0  0  0  0
   -0.9075   -1.1398   -4.0352 H   0  0  0  0  0  0  0  0  0  0  0  0
   -0.0494   -0.2454    0.1178 H   0  0  0  0  0  0  0  0  0  0  0  0
   -0.5521   -2.1097    0.0459 H   0  0  0  0  0  0  0  0  0  0  0  0
   -4.2505   -0.4387    1.1653 H   0  0  0  0  0  0  0  0  0  0  0  0
    0.0917    1.9818    0.7106 C   0  0  0  0  0  0  0  0  0  0  0  0
    0.8083    0.6485    0.5486 C   0  0  0  0  0  0  0  0  0  0  0  0
    2.5822    0.8673    0.1716 S   0  0  0  0  0  0  0  0  0  0  0  0
    0.5887   -0.2700    1.7426 C   0  0  0  0  0  0  0  0  0  0  0  0
    0.2341    2.6174   -0.1627 H   0  0  0  0  0  0  0  0  0  0  0  0
    0.4695    2.5166    1.5854 H   0  0  0  0  0  0  0  0  0  0  0  0
   -0.9799    1.8209    0.8541 H   0  0  0  0  0  0  0  0  0  0  0  0
    2.9093    1.4681    1.3250 H   0  0  0  0  0  0  0  0  0  0  0  0
   -0.4794   -0.4466    1.8933 H   0  0  0  0  0  0  0  0  0  0  0  0
    1.0834   -1.2302    1.6007 H   0  0  0  0  0  0  0  0  0  0  0  0
    0.9843    0.1846    2.6541 H   0  0  0  0  0  0  0  0  0  0  0  0
  1  2  3  0
  1  6  1  0
  2  3  1  0
  3  4  1  0
  3  8  1  0
  4  5  3  0
  5  9  1  0
  7 11  1  0
 10 11  1  0
 10 14  1  0
 10 15  1  0
 10 16  1  0
 11 13  1  0
 11 12  1  0
 12 17  1  0
 13 18  1  0
 13 19  1  0
 13 20  1  0
M  RAD  1   3   2
M  END
>  <reaction>  (12) 
rxn_1369

>  <mol_properties>  (12) 
{"1": {"label": "*0", "atom_type": "Ct"}, "2": {"label": "*1", "atom_type": "Cs"}, "6": {"label": "*2", "atom_type": "H0"}, "10": {"label": "*3", "atom_type": "Cs"}, "11": {"label": "*4", "atom_type": "S2s"}}

>  <type>  (12) 
unop_8

>  <geom_source>  (12) 
Heuristics

$$$$

     RDKit          3D

 20 18  0  0  0  0  0  0  0  0999 V2000
   -0.7752   -0.9290   -3.1647 C   0  0  0  0  0  0  0  0  0  0  0  0
   -0.7752   -0.9290   -1.9692 C   0  0  0  0  0  0  0  0  0  0  0  0
   -0.7752   -0.9290   -0.5062 C   0  0  0  0  0  3  0  0  0  0  0  0
   -2.0892   -0.6534    0.0750 C   0  0  0  0  0  0  0  0  0  0  0  0
   -3.1630   -0.4282    0.5499 C   0  0  0  0  0  0  0  0  0  0  0  0
   -0.7752   -0.9290   -4.2282 H   0  0  0  0  0  0  0  0  0  0  0  0
    0.0830   -0.0346   -0.0751 H   0  0  0  0  0  0  0  0  0  0  0  0
   -0.4198   -1.8989   -0.1470 H   0  0  0  0  0  0  0  0  0  0  0  0
   -4.1182   -0.2279    0.9723 H   0  0  0  0  0  0  0  0  0  0  0  0
    2.0664    0.9926   -0.6604 C   0  0  0  0  0  0  0  0  0  0  0  0
    0.9406    0.8593    0.3557 C   0  0  0  0  0  0  0  0  0  0  0  0
    1.3545   -0.3252    1.6831 S   0  0  0  0  0  0  0  0  0  0  0  0
    0.5060    2.2084    0.9111 C   0  0  0  0  0  0  0  0  0  0  0  0
    2.3478    0.0231   -1.0701 H   0  0  0  0  0  0  0  0  0  0  0  0
    2.9513    1.4353   -0.1965 H   0  0  0  0  0  0  0  0  0  0  0  0
    1.7592    1.6432   -1.4831 H   0  0  0  0  0  0  0  0  0  0  0  0
    2.3923    0.3623    2.1817 H   0  0  0  0  0  0  0  0  0  0  0  0
    0.1878    2.8676    0.0993 H   0  0  0  0  0  0  0  0  0  0  0  0
   -0.3184    2.1006    1.6151 H   0  0  0  0  0  0  0  0  0  0  0  0
    1.3354    2.6944    1.4308 H   0  0  0  0  0  0  0  0  0  0  0  0
  1  2  3  0
  1  6  1  0
  2  3  1  0
  3  4  1  0
  3  8  1  0
  4  5  3  0
  5  9  1  0
  7 11  1  0
 10 11  1  0
 10 14  1  0
 10 15  1  0
 10 16  1  0
 11 13  1  0
 11 12  1  0
 12 17  1  0
 13 18  1  0
 13 19  1  0
 13 20  1  0
M  RAD  1   3   2
M  END
>  <reaction>  (13) 
rxn_1369

>  <mol_properties>  (13) 
{"1": {"label": "*0", "atom_type": "Ct"}, "2": {"label": "*1", "atom_type": "Cs"}, "6": {"label": "*2", "atom_type": "H0"}, "10": {"label": "*3", "atom_type": "Cs"}, "11": {"label": "*4", "atom_type": "S2s"}}

>  <type>  (13) 
unop_9

>  <geom_source>  (13) 
Heuristics

$$$$

     RDKit          3D

 20 18  0  0  0  0  0  0  0  0999 V2000
   -0.9021   -1.1170   -3.0123 C   0  0  0  0  0  0  0  0  0  0  0  0
   -0.9021   -1.1170   -1.8168 C   0  0  0  0  0  0  0  0  0  0  0  0
   -0.9021   -1.1170   -0.3538 C   0  0  0  0  0  3  0  0  0  0  0  0
   -2.2161   -0.8414    0.2273 C   0  0  0  0  0  0  0  0  0  0  0  0
   -3.2899   -0.6162    0.7022 C   0  0  0  0  0  0  0  0  0  0  0  0
   -0.9021   -1.1170   -4.0758 H   0  0  0  0  0  0  0  0  0  0  0  0
   -0.0440   -0.2227    0.0772 H   0  0  0  0  0  0  0  0  0  0  0  0
   -0.5467   -2.0869    0.0054 H   0  0  0  0  0  0  0  0  0  0  0  0
   -4.2451   -0.4159    1.1247 H   0  0  0  0  0  0  0  0  0  0  0  0
    0.4000    2.0416   -0.0101 C   0  0  0  0  0  0  0  0  0  0  0  0
    0.8137    0.6713    0.5080 C   0  0  0  0  0  0  0  0  0  0  0  0
    2.6296    0.4826    0.5675 S   0  0  0  0  0  0  0  0  0  0  0  0
    0.1627    0.3423    1.8442 C   0  0  0  0  0  0  0  0  0  0  0  0
    0.8507    2.2518   -0.9795 H   0  0  0  0  0  0  0  0  0  0  0  0
    0.7106    2.8247    0.6860 H   0  0  0  0  0  0  0  0  0  0  0  0
   -0.6870    2.0961   -0.1114 H   0  0  0  0  0  0  0  0  0  0  0  0
    2.8522    1.4432    1.4763 H   0  0  0  0  0  0  0  0  0  0  0  0
   -0.9260    0.3849    1.7559 H   0  0  0  0  0  0  0  0  0  0  0  0
    0.4451   -0.6518    2.1890 H   0  0  0  0  0  0  0  0  0  0  0  0
    0.4648    1.0649    2.6063 H   0  0  0  0  0  0  0  0  0  0  0  0
  1  2  3  0
  1  6  1  0
  2  3  1  0
  3  4  1  0
  3  8  1  0
  4  5  3  0
  5  9  1  0
  7 11  1  0
 10 11  1  0
 10 14  1  0
 10 15  1  0
 10 16  1  0
 11 13  1  0
 11 12  1  0
 12 17  1  0
 13 18  1  0
 13 19  1  0
 13 20  1  0
M  RAD  1   3   2
M  END
>  <reaction>  (14) 
rxn_1369

>  <mol_properties>  (14) 
{"1": {"label": "*0", "atom_type": "Ct"}, "2": {"label": "*1", "atom_type": "Cs"}, "6": {"label": "*2", "atom_type": "H0"}, "10": {"label": "*3", "atom_type": "Cs"}, "11": {"label": "*4", "atom_type": "S2s"}}

>  <type>  (14) 
unop_10

>  <geom_source>  (14) 
Heuristics

$$$$

     RDKit          3D

 20 18  0  0  0  0  0  0  0  0999 V2000
   -0.3987   -1.2953   -3.0096 C   0  0  0  0  0  0  0  0  0  0  0  0
   -0.3987   -1.2953   -1.8141 C   0  0  0  0  0  0  0  0  0  0  0  0
   -0.3987   -1.2953   -0.3511 C   0  0  0  0  0  3  0  0  0  0  0  0
   -1.7127   -1.0197    0.2301 C   0  0  0  0  0  0  0  0  0  0  0  0
   -2.7865   -0.7945    0.7050 C   0  0  0  0  0  0  0  0  0  0  0  0
   -0.3987   -1.2953   -4.0731 H   0  0  0  0  0  0  0  0  0  0  0  0
    0.4594   -0.4009    0.0799 H   0  0  0  0  0  0  0  0  0  0  0  0
   -0.0433   -2.2652    0.0081 H   0  0  0  0  0  0  0  0  0  0  0  0
   -3.7417   -0.5942    1.1274 H   0  0  0  0  0  0  0  0  0  0  0  0
    1.8757    0.0350    1.8508 C   0  0  0  0  0  0  0  0  0  0  0  0
    1.3171    0.4930    0.5107 C   0  0  0  0  0  0  0  0  0  0  0  0
   -0.2634    1.3891    0.6992 S   0  0  0  0  0  0  0  0  0  0  0  0
    2.3337    1.2933   -0.2915 C   0  0  0  0  0  0  0  0  0  0  0  0
    1.1479   -0.5599    2.4015 H   0  0  0  0  0  0  0  0  0  0  0  0
    2.1475    0.8954    2.4673 H   0  0  0  0  0  0  0  0  0  0  0  0
    2.7759   -0.5664    1.7004 H   0  0  0  0  0  0  0  0  0  0  0  0
    0.2282    2.4162    1.4076 H   0  0  0  0  0  0  0  0  0  0  0  0
    3.2371    0.7007   -0.4569 H   0  0  0  0  0  0  0  0  0  0  0  0
    1.9304    1.5902   -1.2591 H   0  0  0  0  0  0  0  0  0  0  0  0
    2.6218    2.1985    0.2487 H   0  0  0  0  0  0  0  0  0  0  0  0
  1  2  3  0
  1  6  1  0
  2  3  1  0
  3  4  1  0
  3  8  1  0
  4  5  3  0
  5  9  1  0
  7 11  1  0
 10 11  1  0
 10 14  1  0
 10 15  1  0
 10 16  1  0
 11 13  1  0
 11 12  1  0
 12 17  1  0
 13 18  1  0
 13 19  1  0
 13 20  1  0
M  RAD  1   3   2
M  END
>  <reaction>  (15) 
rxn_1369

>  <mol_properties>  (15) 
{"1": {"label": "*0", "atom_type": "Ct"}, "2": {"label": "*1", "atom_type": "Cs"}, "6": {"label": "*2", "atom_type": "H0"}, "10": {"label": "*3", "atom_type": "Cs"}, "11": {"label": "*4", "atom_type": "S2s"}}

>  <type>  (15) 
unop_11

>  <geom_source>  (15) 
Heuristics

$$$$

     RDKit          3D

 20 18  0  0  0  0  0  0  0  0999 V2000
   -0.8701   -0.9919   -3.0893 C   0  0  0  0  0  0  0  0  0  0  0  0
   -0.8701   -0.9919   -1.8938 C   0  0  0  0  0  0  0  0  0  0  0  0
   -0.8701   -0.9919   -0.4308 C   0  0  0  0  0  3  0  0  0  0  0  0
   -2.1841   -0.7163    0.1504 C   0  0  0  0  0  0  0  0  0  0  0  0
   -3.2578   -0.4911    0.6253 C   0  0  0  0  0  0  0  0  0  0  0  0
   -0.8701   -0.9919   -4.1528 H   0  0  0  0  0  0  0  0  0  0  0  0
   -0.0119   -0.0975    0.0002 H   0  0  0  0  0  0  0  0  0  0  0  0
   -0.5147   -1.9618   -0.0716 H   0  0  0  0  0  0  0  0  0  0  0  0
   -4.2130   -0.2908    1.0477 H   0  0  0  0  0  0  0  0  0  0  0  0
    1.4958    1.4739   -0.7672 C   0  0  0  0  0  0  0  0  0  0  0  0
    0.8457    0.7964    0.4310 C   0  0  0  0  0  0  0  0  0  0  0  0
    2.0365   -0.2227    1.3692 S   0  0  0  0  0  0  0  0  0  0  0  0
    0.1163    1.7889    1.3257 C   0  0  0  0  0  0  0  0  0  0  0  0
    1.9897    0.7489   -1.4132 H   0  0  0  0  0  0  0  0  0  0  0  0
    2.2429    2.2005   -0.4384 H   0  0  0  0  0  0  0  0  0  0  0  0
    0.7444    2.0089   -1.3537 H   0  0  0  0  0  0  0  0  0  0  0  0
    2.8364    0.7859    1.7447 H   0  0  0  0  0  0  0  0  0  0  0  0
   -0.6448    2.3261    0.7539 H   0  0  0  0  0  0  0  0  0  0  0  0
   -0.3674    1.2870    2.1630 H   0  0  0  0  0  0  0  0  0  0  0  0
    0.8143    2.5267    1.7290 H   0  0  0  0  0  0  0  0  0  0  0  0
  1  2  3  0
  1  6  1  0
  2  3  1  0
  3  4  1  0
  3  8  1  0
  4  5  3  0
  5  9  1  0
  7 11  1  0
 10 11  1  0
 10 14  1  0
 10 15  1  0
 10 16  1  0
 11 13  1  0
 11 12  1  0
 12 17  1  0
 13 18  1  0
 13 19  1  0
 13 20  1  0
M  RAD  1   3   2
M  END
>  <reaction>  (16) 
rxn_1369

>  <mol_properties>  (16) 
{"1": {"label": "*0", "atom_type": "Ct"}, "2": {"label": "*1", "atom_type": "Cs"}, "6": {"label": "*2", "atom_type": "H0"}, "10": {"label": "*3", "atom_type": "Cs"}, "11": {"label": "*4", "atom_type": "S2s"}}

>  <type>  (16) 
unop_12

>  <geom_source>  (16) 
Heuristics

$$$$

     RDKit          3D

 20 18  0  0  0  0  0  0  0  0999 V2000
   -1.7060    1.7057   -0.1306 S   0  0  0  0  0  0  0  0  0  0  0  0
   -1.1430   -0.0163    0.0726 C   0  0  0  0  0  0  0  0  0  0  0  0
   -1.5056   -0.8361   -1.1648 C   0  0  0  0  0  0  0  0  0  0  0  0
   -1.7693   -0.6167    1.3292 C   0  0  0  0  0  0  0  0  0  0  0  0
    1.3396    0.5383    0.6923 C   0  0  0  0  0  3  0  0  0  0  0  0
    2.0280   -0.7334    0.4620 C   0  0  0  0  0  0  0  0  0  0  0  0
    1.8380    1.5475   -0.2441 C   0  0  0  0  0  0  0  0  0  0  0  0
    2.5937   -1.7814    0.2738 C   0  0  0  0  0  0  0  0  0  0  0  0
    2.2470    2.3799   -1.0146 C   0  0  0  0  0  0  0  0  0  0  0  0
    0.1657   -0.0165    0.2143 H   0  0  0  0  0  0  0  0  0  0  0  0
   -1.1491   -1.8814   -1.0473 H   0  0  0  0  0  0  0  0  0  0  0  0
   -2.6057   -0.8431   -1.3210 H   0  0  0  0  0  0  0  0  0  0  0  0
   -1.0169   -0.4022   -2.0623 H   0  0  0  0  0  0  0  0  0  0  0  0
   -1.4068   -1.6562    1.4764 H   0  0  0  0  0  0  0  0  0  0  0  0
   -1.4777   -0.0176    2.2175 H   0  0  0  0  0  0  0  0  0  0  0  0
   -2.8775   -0.6265    1.2484 H   0  0  0  0  0  0  0  0  0  0  0  0
    1.5237    0.8758    1.7331 H   0  0  0  0  0  0  0  0  0  0  0  0
   -0.7746    1.9710   -1.1525 H   0  0  0  0  0  0  0  0  0  0  0  0
    3.0903   -2.7012    0.1084 H   0  0  0  0  0  0  0  0  0  0  0  0
    2.6062    3.1104   -1.6909 H   0  0  0  0  0  0  0  0  0  0  0  0
  1  2  1  0
  1 18  1  0
  2  3  1  0
  2  4  1  0
  2 10  1  0
  3 11  1  0
  3 12  1  0
  3 13  1  0
  4 14  1  0
  4 15  1  0
  4 16  1  0
  5  6  1  0
  5  7  1  0
  5 17  1  0
  6  8  3  0
  7  9  3  0
  8 19  1  0
  9 20  1  0
M  RAD  1   5   2
M  END
>  <reaction>  (17) 
rxn_1369

>  <mol_properties>  (17) 
{"1": {"label": "*0", "atom_type": "Ct"}, "2": {"label": "*1", "atom_type": "Cs"}, "6": {"label": "*2", "atom_type": "H0"}, "10": {"label": "*3", "atom_type": "Cs"}, "11": {"label": "*4", "atom_type": "S2s"}}

>  <type>  (17) 
unop_13

>  <geom_source>  (17) 
AutoTST

$$$$
