
     RDKit          3D

 11 10  0  0  0  0  0  0  0  0999 V2000
   -1.2710    0.1907   -0.2084 C   0  0  0  0  0  0  0  0  0  0  0  0
    0.0202   -0.6130   -0.2928 C   0  0  0  0  0  0  0  0  0  0  0  0
    0.1086   -1.6953    0.7756 C   0  0  0  0  0  0  0  0  0  0  0  0
   -1.3607    0.6851    0.7620 H   0  0  0  0  0  0  0  0  0  0  0  0
   -2.1429   -0.4567   -0.3299 H   0  0  0  0  0  0  0  0  0  0  0  0
   -1.3158    0.9602   -0.9809 H   0  0  0  0  0  0  0  0  0  0  0  0
    0.8757    0.0616   -0.1992 H   0  0  0  0  0  0  0  0  0  0  0  0
    0.0997   -1.0712   -1.2825 H   0  0  0  0  0  0  0  0  0  0  0  0
   -0.7198   -2.4022    0.6850 H   0  0  0  0  0  0  0  0  0  0  0  0
    1.0395   -2.2596    0.6989 H   0  0  0  0  0  0  0  0  0  0  0  0
    0.0624   -1.2603    1.7770 H   0  0  0  0  0  0  0  0  0  0  0  0
  1  2  1  0
  1  4  1  0
  1  5  1  0
  1  6  1  0
  2  3  1  0
  2  7  1  0
  2  8  1  0
  3  9  1  0
  3 10  1  0
  3 11  1  0
M  END
>  <reaction>  (1) 
rxn_935

>  <mol_properties>  (1) 
{"1": {"label": "donator", "atom_type": "Cs"}, "6": {"label": "d_hydrogen", "atom_type": "H0"}}

>  <type>  (1) 
r1h

$$$$

     RDKit          3D

  9  8  0  0  0  0  0  0  0  0999 V2000
   -1.2704   -0.1236    0.1096 C   0  0  0  0  0  0  0  0  0  0  0  0
    0.0713   -0.5323    0.5887 C   0  0  0  0  0  0  0  0  0  0  0  0
    0.9521   -1.3639   -0.0464 C   0  0  0  0  0  0  0  0  0  0  0  0
    0.6900   -2.1109   -1.5335 S   0  0  0  0  0  1  0  0  0  0  0  0
   -1.3201    0.9657    0.0241 H   0  0  0  0  0  0  0  0  0  0  0  0
   -1.5103   -0.5706   -0.8526 H   0  0  0  0  0  0  0  0  0  0  0  0
   -2.0312   -0.4112    0.8411 H   0  0  0  0  0  0  0  0  0  0  0  0
    0.3863   -0.1265    1.5468 H   0  0  0  0  0  0  0  0  0  0  0  0
    1.8971   -1.5543    0.4552 H   0  0  0  0  0  0  0  0  0  0  0  0
  1  2  1  0
  1  5  1  0
  1  6  1  0
  1  7  1  0
  2  3  2  3
  2  8  1  0
  3  4  1  0
  3  9  1  0
M  RAD  1   4   2
M  END
>  <reaction>  (2) 
rxn_935

>  <mol_properties>  (2) 
{"1": {"label": "acceptor", "atom_type": "Cs"}}

>  <type>  (2) 
r2

$$$$

     RDKit          3D

 10  9  0  0  0  0  0  0  0  0999 V2000
   -1.1508    0.0666    0.2839 C   0  0  0  0  0  0  0  0  0  0  0  0
    0.1022   -0.3749   -0.4771 C   0  0  0  0  0  0  0  0  0  0  0  0
    1.3428    0.1620    0.1542 C   0  0  0  0  0  0  0  0  0  0  0  0
    2.5613   -0.6971    0.7526 S   0  0  0  0  0  0  0  0  0  0  0  0
   -1.2137    1.1546    0.3481 H   0  0  0  0  0  0  0  0  0  0  0  0
   -2.0472   -0.2935   -0.2212 H   0  0  0  0  0  0  0  0  0  0  0  0
   -1.1467   -0.3334    1.2987 H   0  0  0  0  0  0  0  0  0  0  0  0
    0.1602   -1.4616   -0.5369 H   0  0  0  0  0  0  0  0  0  0  0  0
    0.0536    0.0174   -1.4997 H   0  0  0  0  0  0  0  0  0  0  0  0
    1.3824    1.2528    0.2110 H   0  0  0  0  0  0  0  0  0  0  0  0
  1  2  1  0
  1  5  1  0
  1  6  1  0
  1  7  1  0
  2  3  1  0
  2  8  1  0
  2  9  1  0
  3  4  2  0
  3 10  1  0
M  END
>  <reaction>  (3) 
rxn_935

>  <mol_properties>  (3) 
{"1": {"label": "acceptor", "atom_type": "Cs"}, "9": {"label": "a_hydrogen", "atom_type": "H0"}}

>  <type>  (3) 
r2h

$$$$

     RDKit          3D

 20 18  0  0  0  0  0  0  0  0999 V2000
    1.0307   -2.0596   -0.9935 C   0  0  0  0  0  0  0  0  0  0  0  0
    0.5173   -1.2724    0.1891 C   0  0  0  0  0  0  0  0  0  0  0  0
    1.2724   -0.1310    0.6680 C   0  0  0  0  0  0  0  0  0  0  0  0
    2.3919    0.7217   -0.1544 S   0  0  0  0  0  0  0  0  0  0  0  0
    1.2690   -1.4004   -1.8274 H   0  0  0  0  0  0  0  0  0  0  0  0
    1.9441   -2.5978   -0.7317 H   0  0  0  0  0  0  0  0  0  0  0  0
    0.2858   -2.7868   -1.3200 H   0  0  0  0  0  0  0  0  0  0  0  0
    0.1593   -1.8962    1.0102 H   0  0  0  0  0  0  0  0  0  0  0  0
    1.0012    0.2024    1.6705 H   0  0  0  0  0  0  0  0  0  0  0  0
   -1.2581    0.2428   -2.1758 C   0  0  0  0  0  0  0  0  0  0  0  0
   -1.7409   -0.0990   -0.8014 C   0  0  0  0  0  3  0  0  0  0  0  0
   -1.9325    1.0251    0.1667 C   0  0  0  0  0  0  0  0  0  0  0  0
   -0.3252    0.8108   -2.1300 H   0  0  0  0  0  0  0  0  0  0  0  0
   -1.9930    0.8658   -2.7004 H   0  0  0  0  0  0  0  0  0  0  0  0
   -1.0882   -0.6484   -2.7800 H   0  0  0  0  0  0  0  0  0  0  0  0
   -0.5524   -0.7650   -0.1980 H   0  0  0  0  0  0  0  0  0  0  0  0
   -2.4736   -0.9010   -0.7434 H   0  0  0  0  0  0  0  0  0  0  0  0
   -2.7325    1.6955   -0.1685 H   0  0  0  0  0  0  0  0  0  0  0  0
   -2.1985    0.6644    1.1613 H   0  0  0  0  0  0  0  0  0  0  0  0
   -1.0231    1.6272    0.2480 H   0  0  0  0  0  0  0  0  0  0  0  0
  1  2  1  0
  1  5  1  0
  1  6  1  0
  1  7  1  0
  2  3  1  0
  2  8  1  0
  2 16  1  0
  3  4  2  0
  3  9  1  0
 10 11  1  0
 10 13  1  0
 10 14  1  0
 10 15  1  0
 11 12  1  0
 11 17  1  0
 12 18  1  0
 12 19  1  0
 12 20  1  0
M  RAD  1  11   2
M  END
>  <reaction>  (4) 
rxn_935

>  <mol_properties>  (4) 
{"1": {"label": "*1", "atom_type": "Cs"}, "2": {"label": "*0", "atom_type": "CS"}, "9": {"label": "*4", "atom_type": "Cs"}, "10": {"label": "*3", "atom_type": "Cs"}, "15": {"label": "*2", "atom_type": "H0"}}

>  <type>  (4) 
ts

$$$$

     RDKit          3D

 20 18  0  0  0  0  0  0  0  0999 V2000
    2.4135    0.2805    0.9558 C   0  0  0  0  0  0  0  0  0  0  0  0
    1.5206   -0.6213    0.0992 C   0  0  0  0  0  0  0  0  0  0  0  0
    0.3922   -1.1874    0.8943 C   0  0  0  0  0  0  0  0  0  0  0  0
   -1.1759   -0.9777    0.6144 S   0  0  0  0  0  0  0  0  0  0  0  0
    1.8545    1.1437    1.3191 H   0  0  0  0  0  0  0  0  0  0  0  0
    2.8078   -0.2569    1.8204 H   0  0  0  0  0  0  0  0  0  0  0  0
    3.2585    0.6429    0.3703 H   0  0  0  0  0  0  0  0  0  0  0  0
    2.1178   -1.4614   -0.2741 H   0  0  0  0  0  0  0  0  0  0  0  0
    0.7039   -1.7858    1.7541 H   0  0  0  0  0  0  0  0  0  0  0  0
   -0.5747    0.6877   -2.2962 C   0  0  0  0  0  0  0  0  0  0  0  0
   -0.5747    0.6877   -0.7729 C   0  0  0  0  0  3  0  0  0  0  0  0
   -0.5747    2.0935   -0.1862 C   0  0  0  0  0  0  0  0  0  0  0  0
    0.3067    1.2020   -2.6869 H   0  0  0  0  0  0  0  0  0  0  0  0
   -1.4562    1.2020   -2.6869 H   0  0  0  0  0  0  0  0  0  0  0  0
   -0.5747   -0.3272   -2.6974 H   0  0  0  0  0  0  0  0  0  0  0  0
    0.4747    0.0321   -0.3361 H   0  0  0  0  0  0  0  0  0  0  0  0
   -1.4493    0.1414   -0.4089 H   0  0  0  0  0  0  0  0  0  0  0  0
   -1.4562    2.6521   -0.5103 H   0  0  0  0  0  0  0  0  0  0  0  0
   -0.5747    2.0729    0.9049 H   0  0  0  0  0  0  0  0  0  0  0  0
    0.3067    2.6521   -0.5103 H   0  0  0  0  0  0  0  0  0  0  0  0
  1  2  1  0
  1  5  1  0
  1  6  1  0
  1  7  1  0
  2  3  1  0
  2  8  1  0
  2 16  1  0
  3  4  2  0
  3  9  1  0
 10 11  1  0
 10 13  1  0
 10 14  1  0
 10 15  1  0
 11 12  1  0
 11 17  1  0
 12 18  1  0
 12 19  1  0
 12 20  1  0
M  RAD  1  11   2
M  END
>  <reaction>  (5) 
rxn_935

>  <mol_properties>  (5) 
{"1": {"label": "*1", "atom_type": "Cs"}, "2": {"label": "*0", "atom_type": "CS"}, "9": {"label": "*4", "atom_type": "Cs"}, "10": {"label": "*3", "atom_type": "Cs"}, "15": {"label": "*2", "atom_type": "H0"}}

>  <type>  (5) 
unop_1

>  <geom_source>  (5) 
Heuristics

$$$$

     RDKit          3D

 20 18  0  0  0  0  0  0  0  0999 V2000
    1.9689   -1.2243   -1.0045 C   0  0  0  0  0  0  0  0  0  0  0  0
    0.8020   -1.3380   -0.0199 C   0  0  0  0  0  0  0  0  0  0  0  0
    1.0095   -0.4708    1.1763 C   0  0  0  0  0  0  0  0  0  0  0  0
    0.0607    0.7305    1.6639 S   0  0  0  0  0  0  0  0  0  0  0  0
    2.0471   -0.2086   -1.3942 H   0  0  0  0  0  0  0  0  0  0  0  0
    2.9172   -1.4789   -0.5275 H   0  0  0  0  0  0  0  0  0  0  0  0
    1.8221   -1.9021   -1.8455 H   0  0  0  0  0  0  0  0  0  0  0  0
    0.7318   -2.3746    0.3299 H   0  0  0  0  0  0  0  0  0  0  0  0
    1.9166   -0.6959    1.7427 H   0  0  0  0  0  0  0  0  0  0  0  0
   -1.2934   -0.0290   -2.4153 C   0  0  0  0  0  0  0  0  0  0  0  0
   -1.2934   -0.0290   -0.8920 C   0  0  0  0  0  3  0  0  0  0  0  0
   -1.2934    1.3769   -0.3053 C   0  0  0  0  0  0  0  0  0  0  0  0
   -0.4120    0.4853   -2.8060 H   0  0  0  0  0  0  0  0  0  0  0  0
   -2.1749    0.4853   -2.8060 H   0  0  0  0  0  0  0  0  0  0  0  0
   -1.2934   -1.0439   -2.8165 H   0  0  0  0  0  0  0  0  0  0  0  0
   -0.2440   -0.6846   -0.4552 H   0  0  0  0  0  0  0  0  0  0  0  0
   -2.1679   -0.5753   -0.5280 H   0  0  0  0  0  0  0  0  0  0  0  0
   -2.1749    1.9354   -0.6294 H   0  0  0  0  0  0  0  0  0  0  0  0
   -1.2934    1.3562    0.7858 H   0  0  0  0  0  0  0  0  0  0  0  0
   -0.4120    1.9354   -0.6294 H   0  0  0  0  0  0  0  0  0  0  0  0
  1  2  1  0
  1  5  1  0
  1  6  1  0
  1  7  1  0
  2  3  1  0
  2  8  1  0
  2 16  1  0
  3  4  2  0
  3  9  1  0
 10 11  1  0
 10 13  1  0
 10 14  1  0
 10 15  1  0
 11 12  1  0
 11 17  1  0
 12 18  1  0
 12 19  1  0
 12 20  1  0
M  RAD  1  11   2
M  END
>  <reaction>  (6) 
rxn_935

>  <mol_properties>  (6) 
{"1": {"label": "*1", "atom_type": "Cs"}, "2": {"label": "*0", "atom_type": "CS"}, "9": {"label": "*4", "atom_type": "Cs"}, "10": {"label": "*3", "atom_type": "Cs"}, "15": {"label": "*2", "atom_type": "H0"}}

>  <type>  (6) 
unop_2

>  <geom_source>  (6) 
Heuristics

$$$$

     RDKit          3D

 20 18  0  0  0  0  0  0  0  0999 V2000
    1.9526    0.2829    1.6890 C   0  0  0  0  0  0  0  0  0  0  0  0
    1.4846   -0.2675    0.3391 C   0  0  0  0  0  0  0  0  0  0  0  0
    0.5566   -1.4229    0.5117 C   0  0  0  0  0  0  0  0  0  0  0  0
   -0.9640   -1.5140    0.0014 S   0  0  0  0  0  0  0  0  0  0  0  0
    1.1089    0.6727    2.2599 H   0  0  0  0  0  0  0  0  0  0  0  0
    2.4382   -0.4910    2.2865 H   0  0  0  0  0  0  0  0  0  0  0  0
    2.6675    1.0923    1.5406 H   0  0  0  0  0  0  0  0  0  0  0  0
    2.3570   -0.6233   -0.2214 H   0  0  0  0  0  0  0  0  0  0  0  0
    0.9857   -2.2661    1.0587 H   0  0  0  0  0  0  0  0  0  0  0  0
   -0.6108    1.0416   -2.0564 C   0  0  0  0  0  0  0  0  0  0  0  0
   -0.6108    1.0416   -0.5331 C   0  0  0  0  0  3  0  0  0  0  0  0
   -0.6108    2.4474    0.0536 C   0  0  0  0  0  0  0  0  0  0  0  0
    0.2707    1.5558   -2.4471 H   0  0  0  0  0  0  0  0  0  0  0  0
   -1.4922    1.5558   -2.4471 H   0  0  0  0  0  0  0  0  0  0  0  0
   -0.6108    0.0267   -2.4576 H   0  0  0  0  0  0  0  0  0  0  0  0
    0.4387    0.3860   -0.0963 H   0  0  0  0  0  0  0  0  0  0  0  0
   -1.4853    0.4952   -0.1691 H   0  0  0  0  0  0  0  0  0  0  0  0
   -1.4922    3.0060   -0.2705 H   0  0  0  0  0  0  0  0  0  0  0  0
   -0.6108    2.4267    1.1447 H   0  0  0  0  0  0  0  0  0  0  0  0
    0.2707    3.0060   -0.2705 H   0  0  0  0  0  0  0  0  0  0  0  0
  1  2  1  0
  1  5  1  0
  1  6  1  0
  1  7  1  0
  2  3  1  0
  2  8  1  0
  2 16  1  0
  3  4  2  0
  3  9  1  0
 10 11  1  0
 10 13  1  0
 10 14  1  0
 10 15  1  0
 11 12  1  0
 11 17  1  0
 12 18  1  0
 12 19  1  0
 12 20  1  0
M  RAD  1  11   2
M  END
>  <reaction>  (7) 
rxn_935

>  <mol_properties>  (7) 
{"1": {"label": "*1", "atom_type": "Cs"}, "2": {"label": "*0", "atom_type": "CS"}, "9": {"label": "*4", "atom_type": "Cs"}, "10": {"label": "*3", "atom_type": "Cs"}, "15": {"label": "*2", "atom_type": "H0"}}

>  <type>  (7) 
unop_3

>  <geom_source>  (7) 
Heuristics

$$$$

     RDKit          3D

 20 18  0  0  0  0  0  0  0  0999 V2000
    0.0331   -2.4369    0.0894 C   0  0  0  0  0  0  0  0  0  0  0  0
    0.0485   -0.9869    0.5807 C   0  0  0  0  0  0  0  0  0  0  0  0
    1.4367   -0.5214    0.8673 C   0  0  0  0  0  0  0  0  0  0  0  0
    2.1978    0.7082    0.1674 S   0  0  0  0  0  0  0  0  0  0  0  0
    0.5698   -2.5296   -0.8557 H   0  0  0  0  0  0  0  0  0  0  0  0
    0.5019   -3.1064    0.8131 H   0  0  0  0  0  0  0  0  0  0  0  0
   -0.9921   -2.7732   -0.0660 H   0  0  0  0  0  0  0  0  0  0  0  0
   -0.5228   -0.9218    1.5140 H   0  0  0  0  0  0  0  0  0  0  0  0
    1.9612   -1.1109    1.6236 H   0  0  0  0  0  0  0  0  0  0  0  0
   -2.0469    0.3222   -1.8148 C   0  0  0  0  0  0  0  0  0  0  0  0
   -2.0469    0.3222   -0.2915 C   0  0  0  0  0  3  0  0  0  0  0  0
   -2.0469    1.7280    0.2952 C   0  0  0  0  0  0  0  0  0  0  0  0
   -1.1655    0.8365   -2.2055 H   0  0  0  0  0  0  0  0  0  0  0  0
   -2.9284    0.8365   -2.2055 H   0  0  0  0  0  0  0  0  0  0  0  0
   -2.0469   -0.6927   -2.2160 H   0  0  0  0  0  0  0  0  0  0  0  0
   -0.9975   -0.3334    0.1453 H   0  0  0  0  0  0  0  0  0  0  0  0
   -2.9215   -0.2242    0.0725 H   0  0  0  0  0  0  0  0  0  0  0  0
   -2.9284    2.2866   -0.0289 H   0  0  0  0  0  0  0  0  0  0  0  0
   -2.0469    1.7073    1.3863 H   0  0  0  0  0  0  0  0  0  0  0  0
   -1.1655    2.2866   -0.0289 H   0  0  0  0  0  0  0  0  0  0  0  0
  1  2  1  0
  1  5  1  0
  1  6  1  0
  1  7  1  0
  2  3  1  0
  2  8  1  0
  2 16  1  0
  3  4  2  0
  3  9  1  0
 10 11  1  0
 10 13  1  0
 10 14  1  0
 10 15  1  0
 11 12  1  0
 11 17  1  0
 12 18  1  0
 12 19  1  0
 12 20  1  0
M  RAD  1  11   2
M  END
>  <reaction>  (8) 
rxn_935

>  <mol_properties>  (8) 
{"1": {"label": "*1", "atom_type": "Cs"}, "2": {"label": "*0", "atom_type": "CS"}, "9": {"label": "*4", "atom_type": "Cs"}, "10": {"label": "*3", "atom_type": "Cs"}, "15": {"label": "*2", "atom_type": "H0"}}

>  <type>  (8) 
unop_4

>  <geom_source>  (8) 
Heuristics

$$$$

     RDKit          3D

 20 18  0  0  0  0  0  0  0  0999 V2000
    1.1104    0.0186    2.2449 C   0  0  0  0  0  0  0  0  0  0  0  0
    1.0752    0.0406    0.7143 C   0  0  0  0  0  0  0  0  0  0  0  0
    1.0791   -1.3395    0.1475 C   0  0  0  0  0  0  0  0  0  0  0  0
   -0.0541   -1.9951   -0.7837 S   0  0  0  0  0  0  0  0  0  0  0  0
    0.2156   -0.4603    2.6444 H   0  0  0  0  0  0  0  0  0  0  0  0
    1.9810   -0.5267    2.6142 H   0  0  0  0  0  0  0  0  0  0  0  0
    1.1578    1.0345    2.6372 H   0  0  0  0  0  0  0  0  0  0  0  0
    1.9711    0.5535    0.3455 H   0  0  0  0  0  0  0  0  0  0  0  0
    1.9486   -1.9386    0.4293 H   0  0  0  0  0  0  0  0  0  0  0  0
   -1.0202    1.3497   -1.6811 C   0  0  0  0  0  0  0  0  0  0  0  0
   -1.0202    1.3497   -0.1578 C   0  0  0  0  0  3  0  0  0  0  0  0
   -1.0202    2.7555    0.4289 C   0  0  0  0  0  0  0  0  0  0  0  0
   -0.1388    1.8639   -2.0718 H   0  0  0  0  0  0  0  0  0  0  0  0
   -1.9017    1.8639   -2.0718 H   0  0  0  0  0  0  0  0  0  0  0  0
   -1.0202    0.3348   -2.0823 H   0  0  0  0  0  0  0  0  0  0  0  0
    0.0292    0.6941    0.2790 H   0  0  0  0  0  0  0  0  0  0  0  0
   -1.8947    0.8033    0.2062 H   0  0  0  0  0  0  0  0  0  0  0  0
   -1.9017    3.3141    0.1048 H   0  0  0  0  0  0  0  0  0  0  0  0
   -1.0202    2.7348    1.5200 H   0  0  0  0  0  0  0  0  0  0  0  0
   -0.1388    3.3141    0.1048 H   0  0  0  0  0  0  0  0  0  0  0  0
  1  2  1  0
  1  5  1  0
  1  6  1  0
  1  7  1  0
  2  3  1  0
  2  8  1  0
  2 16  1  0
  3  4  2  0
  3  9  1  0
 10 11  1  0
 10 13  1  0
 10 14  1  0
 10 15  1  0
 11 12  1  0
 11 17  1  0
 12 18  1  0
 12 19  1  0
 12 20  1  0
M  RAD  1  11   2
M  END
>  <reaction>  (9) 
rxn_935

>  <mol_properties>  (9) 
{"1": {"label": "*1", "atom_type": "Cs"}, "2": {"label": "*0", "atom_type": "CS"}, "9": {"label": "*4", "atom_type": "Cs"}, "10": {"label": "*3", "atom_type": "Cs"}, "15": {"label": "*2", "atom_type": "H0"}}

>  <type>  (9) 
unop_5

>  <geom_source>  (9) 
Heuristics

$$$$

     RDKit          3D

 20 18  0  0  0  0  0  0  0  0999 V2000
   -0.2776   -2.2305    0.9474 C   0  0  0  0  0  0  0  0  0  0  0  0
    0.0410   -0.7441    0.7647 C   0  0  0  0  0  0  0  0  0  0  0  0
    1.5123   -0.5036    0.7054 C   0  0  0  0  0  0  0  0  0  0  0  0
    2.3273    0.1477   -0.5164 S   0  0  0  0  0  0  0  0  0  0  0  0
    0.0754   -2.8084    0.0923 H   0  0  0  0  0  0  0  0  0  0  0  0
    0.1957   -2.6305    1.8461 H   0  0  0  0  0  0  0  0  0  0  0  0
   -1.3536   -2.3786    1.0387 H   0  0  0  0  0  0  0  0  0  0  0  0
   -0.3518   -0.1882    1.6241 H   0  0  0  0  0  0  0  0  0  0  0  0
    2.0574   -0.8309    1.5943 H   0  0  0  0  0  0  0  0  0  0  0  0
   -2.0544    0.5650   -1.6307 C   0  0  0  0  0  0  0  0  0  0  0  0
   -2.0544    0.5650   -0.1074 C   0  0  0  0  0  3  0  0  0  0  0  0
   -2.0544    1.9708    0.4793 C   0  0  0  0  0  0  0  0  0  0  0  0
   -1.1729    1.0793   -2.0214 H   0  0  0  0  0  0  0  0  0  0  0  0
   -2.9358    1.0792   -2.0214 H   0  0  0  0  0  0  0  0  0  0  0  0
   -2.0544   -0.4499   -2.0319 H   0  0  0  0  0  0  0  0  0  0  0  0
   -1.0049   -0.0906    0.3294 H   0  0  0  0  0  0  0  0  0  0  0  0
   -2.9289    0.0186    0.2566 H   0  0  0  0  0  0  0  0  0  0  0  0
   -2.9358    2.5294    0.1552 H   0  0  0  0  0  0  0  0  0  0  0  0
   -2.0544    1.9501    1.5704 H   0  0  0  0  0  0  0  0  0  0  0  0
   -1.1729    2.5294    0.1552 H   0  0  0  0  0  0  0  0  0  0  0  0
  1  2  1  0
  1  5  1  0
  1  6  1  0
  1  7  1  0
  2  3  1  0
  2  8  1  0
  2 16  1  0
  3  4  2  0
  3  9  1  0
 10 11  1  0
 10 13  1  0
 10 14  1  0
 10 15  1  0
 11 12  1  0
 11 17  1  0
 12 18  1  0
 12 19  1  0
 12 20  1  0
M  RAD  1  11   2
M  END
>  <reaction>  (10) 
rxn_935

>  <mol_properties>  (10) 
{"1": {"label": "*1", "atom_type": "Cs"}, "2": {"label": "*0", "atom_type": "CS"}, "9": {"label": "*4", "atom_type": "Cs"}, "10": {"label": "*3", "atom_type": "Cs"}, "15": {"label": "*2", "atom_type": "H0"}}

>  <type>  (10) 
unop_6

>  <geom_source>  (10) 
Heuristics

$$$$

     RDKit          3D

 20 18  0  0  0  0  0  0  0  0999 V2000
   -0.2630   -1.6527    1.7696 C   0  0  0  0  0  0  0  0  0  0  0  0
    0.1558   -0.4547    0.9130 C   0  0  0  0  0  0  0  0  0  0  0  0
    1.5694   -0.5796    0.4525 C   0  0  0  0  0  0  0  0  0  0  0  0
    2.0787   -0.6355   -1.0702 S   0  0  0  0  0  0  0  0  0  0  0  0
   -0.2294   -2.5740    1.1868 H   0  0  0  0  0  0  0  0  0  0  0  0
    0.3943   -1.7728    2.6329 H   0  0  0  0  0  0  0  0  0  0  0  0
   -1.2805   -1.5182    2.1370 H   0  0  0  0  0  0  0  0  0  0  0  0
    0.0829    0.4571    1.5173 H   0  0  0  0  0  0  0  0  0  0  0  0
    2.3008   -0.6537    1.2612 H   0  0  0  0  0  0  0  0  0  0  0  0
   -1.9395    0.8543   -1.4824 C   0  0  0  0  0  0  0  0  0  0  0  0
   -1.9395    0.8543    0.0409 C   0  0  0  0  0  3  0  0  0  0  0  0
   -1.9395    2.2601    0.6276 C   0  0  0  0  0  0  0  0  0  0  0  0
   -1.0581    1.3686   -1.8731 H   0  0  0  0  0  0  0  0  0  0  0  0
   -2.8210    1.3686   -1.8731 H   0  0  0  0  0  0  0  0  0  0  0  0
   -1.9395   -0.1606   -1.8836 H   0  0  0  0  0  0  0  0  0  0  0  0
   -0.8901    0.1987    0.4777 H   0  0  0  0  0  0  0  0  0  0  0  0
   -2.8141    0.3080    0.4049 H   0  0  0  0  0  0  0  0  0  0  0  0
   -2.8210    2.8187    0.3035 H   0  0  0  0  0  0  0  0  0  0  0  0
   -1.9395    2.2394    1.7187 H   0  0  0  0  0  0  0  0  0  0  0  0
   -1.0581    2.8187    0.3035 H   0  0  0  0  0  0  0  0  0  0  0  0
  1  2  1  0
  1  5  1  0
  1  6  1  0
  1  7  1  0
  2  3  1  0
  2  8  1  0
  2 16  1  0
  3  4  2  0
  3  9  1  0
 10 11  1  0
 10 13  1  0
 10 14  1  0
 10 15  1  0
 11 12  1  0
 11 17  1  0
 12 18  1  0
 12 19  1  0
 12 20  1  0
M  RAD  1  11   2
M  END
>  <reaction>  (11) 
rxn_935

>  <mol_properties>  (11) 
{"1": {"label": "*1", "atom_type": "Cs"}, "2": {"label": "*0", "atom_type": "CS"}, "9": {"label": "*4", "atom_type": "Cs"}, "10": {"label": "*3", "atom_type": "Cs"}, "15": {"label": "*2", "atom_type": "H0"}}

>  <type>  (11) 
unop_7

>  <geom_source>  (11) 
Heuristics

$$$$

     RDKit          3D

 20 18  0  0  0  0  0  0  0  0999 V2000
    2.5856    0.0220    0.1407 C   0  0  0  0  0  0  0  0  0  0  0  0
    1.3895   -0.9162   -0.0419 C   0  0  0  0  0  0  0  0  0  0  0  0
    0.4838   -0.8844    1.1433 C   0  0  0  0  0  0  0  0  0  0  0  0
   -1.0651   -0.4580    1.1534 S   0  0  0  0  0  0  0  0  0  0  0  0
    2.2541    1.0579    0.2234 H   0  0  0  0  0  0  0  0  0  0  0  0
    3.1512   -0.2263    1.0408 H   0  0  0  0  0  0  0  0  0  0  0  0
    3.2598   -0.0535   -0.7125 H   0  0  0  0  0  0  0  0  0  0  0  0
    1.7568   -1.9432   -0.1515 H   0  0  0  0  0  0  0  0  0  0  0  0
    0.9628   -1.1715    2.0828 H   0  0  0  0  0  0  0  0  0  0  0  0
   -0.7059    0.3929   -2.4374 C   0  0  0  0  0  0  0  0  0  0  0  0
   -0.7059    0.3929   -0.9140 C   0  0  0  0  0  3  0  0  0  0  0  0
   -0.7059    1.7987   -0.3273 C   0  0  0  0  0  0  0  0  0  0  0  0
    0.1755    0.9072   -2.8280 H   0  0  0  0  0  0  0  0  0  0  0  0
   -1.5874    0.9072   -2.8280 H   0  0  0  0  0  0  0  0  0  0  0  0
   -0.7059   -0.6220   -2.8385 H   0  0  0  0  0  0  0  0  0  0  0  0
    0.3435   -0.2627   -0.4772 H   0  0  0  0  0  0  0  0  0  0  0  0
   -1.5804   -0.1535   -0.5500 H   0  0  0  0  0  0  0  0  0  0  0  0
   -1.5874    2.3573   -0.6515 H   0  0  0  0  0  0  0  0  0  0  0  0
   -0.7059    1.7780    0.7638 H   0  0  0  0  0  0  0  0  0  0  0  0
    0.1755    2.3573   -0.6515 H   0  0  0  0  0  0  0  0  0  0  0  0
  1  2  1  0
  1  5  1  0
  1  6  1  0
  1  7  1  0
  2  3  1  0
  2  8  1  0
  2 16  1  0
  3  4  2  0
  3  9  1  0
 10 11  1  0
 10 13  1  0
 10 14  1  0
 10 15  1  0
 11 12  1  0
 11 17  1  0
 12 18  1  0
 12 19  1  0
 12 20  1  0
M  RAD  1  11   2
M  END
>  <reaction>  (12) 
rxn_935

>  <mol_properties>  (12) 
{"1": {"label": "*1", "atom_type": "Cs"}, "2": {"label": "*0", "atom_type": "CS"}, "9": {"label": "*4", "atom_type": "Cs"}, "10": {"label": "*3", "atom_type": "Cs"}, "15": {"label": "*2", "atom_type": "H0"}}

>  <type>  (12) 
unop_8

>  <geom_source>  (12) 
Heuristics

$$$$

     RDKit          3D

 20 18  0  0  0  0  0  0  0  0999 V2000
    0.5833   -2.3006   -0.6094 C   0  0  0  0  0  0  0  0  0  0  0  0
    0.1737   -1.2020    0.3753 C   0  0  0  0  0  0  0  0  0  0  0  0
    1.3649   -0.5217    0.9617 C   0  0  0  0  0  0  0  0  0  0  0  0
    1.7297    1.0387    0.8459 S   0  0  0  0  0  0  0  0  0  0  0  0
    1.1209   -1.8766   -1.4584 H   0  0  0  0  0  0  0  0  0  0  0  0
    1.2299   -3.0400   -0.1330 H   0  0  0  0  0  0  0  0  0  0  0  0
   -0.2985   -2.8180   -0.9877 H   0  0  0  0  0  0  0  0  0  0  0  0
   -0.3889   -1.6554    1.1997 H   0  0  0  0  0  0  0  0  0  0  0  0
    2.0415   -1.1875    1.5034 H   0  0  0  0  0  0  0  0  0  0  0  0
   -1.9217    0.1070   -2.0202 C   0  0  0  0  0  0  0  0  0  0  0  0
   -1.9217    0.1070   -0.4969 C   0  0  0  0  0  3  0  0  0  0  0  0
   -1.9217    1.5128    0.0898 C   0  0  0  0  0  0  0  0  0  0  0  0
   -1.0402    0.6213   -2.4108 H   0  0  0  0  0  0  0  0  0  0  0  0
   -2.8031    0.6213   -2.4108 H   0  0  0  0  0  0  0  0  0  0  0  0
   -1.9217   -0.9079   -2.4214 H   0  0  0  0  0  0  0  0  0  0  0  0
   -0.8722   -0.5486   -0.0601 H   0  0  0  0  0  0  0  0  0  0  0  0
   -2.7962   -0.4393   -0.1329 H   0  0  0  0  0  0  0  0  0  0  0  0
   -2.8031    2.0714   -0.2343 H   0  0  0  0  0  0  0  0  0  0  0  0
   -1.9217    1.4921    1.1810 H   0  0  0  0  0  0  0  0  0  0  0  0
   -1.0402    2.0714   -0.2343 H   0  0  0  0  0  0  0  0  0  0  0  0
  1  2  1  0
  1  5  1  0
  1  6  1  0
  1  7  1  0
  2  3  1  0
  2  8  1  0
  2 16  1  0
  3  4  2  0
  3  9  1  0
 10 11  1  0
 10 13  1  0
 10 14  1  0
 10 15  1  0
 11 12  1  0
 11 17  1  0
 12 18  1  0
 12 19  1  0
 12 20  1  0
M  RAD  1  11   2
M  END
>  <reaction>  (13) 
rxn_935

>  <mol_properties>  (13) 
{"1": {"label": "*1", "atom_type": "Cs"}, "2": {"label": "*0", "atom_type": "CS"}, "9": {"label": "*4", "atom_type": "Cs"}, "10": {"label": "*3", "atom_type": "Cs"}, "15": {"label": "*2", "atom_type": "H0"}}

>  <type>  (13) 
unop_9

>  <geom_source>  (13) 
Heuristics

$$$$

     RDKit          3D

 20 18  0  0  0  0  0  0  0  0999 V2000
    2.4395   -0.5198   -0.5803 C   0  0  0  0  0  0  0  0  0  0  0  0
    1.1431   -1.1695   -0.0890 C   0  0  0  0  0  0  0  0  0  0  0  0
    0.7208   -0.6169    1.2309 C   0  0  0  0  0  0  0  0  0  0  0  0
   -0.6571    0.1436    1.5537 S   0  0  0  0  0  0  0  0  0  0  0  0
    2.2964    0.5486   -0.7468 H   0  0  0  0  0  0  0  0  0  0  0  0
    3.2461   -0.6454    0.1445 H   0  0  0  0  0  0  0  0  0  0  0  0
    2.7573   -0.9721   -1.5198 H   0  0  0  0  0  0  0  0  0  0  0  0
    1.3112   -2.2451    0.0399 H   0  0  0  0  0  0  0  0  0  0  0  0
    1.4556   -0.7484    2.0291 H   0  0  0  0  0  0  0  0  0  0  0  0
   -0.9523    0.1396   -2.4845 C   0  0  0  0  0  0  0  0  0  0  0  0
   -0.9523    0.1396   -0.9612 C   0  0  0  0  0  3  0  0  0  0  0  0
   -0.9523    1.5454   -0.3744 C   0  0  0  0  0  0  0  0  0  0  0  0
   -0.0708    0.6538   -2.8751 H   0  0  0  0  0  0  0  0  0  0  0  0
   -1.8337    0.6538   -2.8751 H   0  0  0  0  0  0  0  0  0  0  0  0
   -0.9523   -0.8753   -2.8856 H   0  0  0  0  0  0  0  0  0  0  0  0
    0.0971   -0.5161   -0.5244 H   0  0  0  0  0  0  0  0  0  0  0  0
   -1.8268   -0.4068   -0.5972 H   0  0  0  0  0  0  0  0  0  0  0  0
   -1.8337    2.1039   -0.6986 H   0  0  0  0  0  0  0  0  0  0  0  0
   -0.9523    1.5247    0.7167 H   0  0  0  0  0  0  0  0  0  0  0  0
   -0.0708    2.1039   -0.6986 H   0  0  0  0  0  0  0  0  0  0  0  0
  1  2  1  0
  1  5  1  0
  1  6  1  0
  1  7  1  0
  2  3  1  0
  2  8  1  0
  2 16  1  0
  3  4  2  0
  3  9  1  0
 10 11  1  0
 10 13  1  0
 10 14  1  0
 10 15  1  0
 11 12  1  0
 11 17  1  0
 12 18  1  0
 12 19  1  0
 12 20  1  0
M  RAD  1  11   2
M  END
>  <reaction>  (14) 
rxn_935

>  <mol_properties>  (14) 
{"1": {"label": "*1", "atom_type": "Cs"}, "2": {"label": "*0", "atom_type": "CS"}, "9": {"label": "*4", "atom_type": "Cs"}, "10": {"label": "*3", "atom_type": "Cs"}, "15": {"label": "*2", "atom_type": "H0"}}

>  <type>  (14) 
unop_10

>  <geom_source>  (14) 
Heuristics

$$$$

     RDKit          3D

 20 18  0  0  0  0  0  0  0  0999 V2000
    0.1843   -0.7773    2.3017 C   0  0  0  0  0  0  0  0  0  0  0  0
    0.4737   -0.1154    0.9518 C   0  0  0  0  0  0  0  0  0  0  0  0
    1.4993   -0.8750    0.1791 C   0  0  0  0  0  0  0  0  0  0  0  0
    1.3045   -1.5473   -1.2670 S   0  0  0  0  0  0  0  0  0  0  0  0
   -0.2390   -1.7726    2.1603 H   0  0  0  0  0  0  0  0  0  0  0  0
    1.0932   -0.8766    2.8982 H   0  0  0  0  0  0  0  0  0  0  0  0
   -0.5288   -0.1808    2.8708 H   0  0  0  0  0  0  0  0  0  0  0  0
    0.8691    0.8918    1.1273 H   0  0  0  0  0  0  0  0  0  0  0  0
    2.4614   -0.9762    0.6877 H   0  0  0  0  0  0  0  0  0  0  0  0
   -1.6217    1.1936   -1.4437 C   0  0  0  0  0  0  0  0  0  0  0  0
   -1.6217    1.1936    0.0796 C   0  0  0  0  0  3  0  0  0  0  0  0
   -1.6217    2.5994    0.6663 C   0  0  0  0  0  0  0  0  0  0  0  0
   -0.7402    1.7079   -1.8344 H   0  0  0  0  0  0  0  0  0  0  0  0
   -2.5031    1.7079   -1.8344 H   0  0  0  0  0  0  0  0  0  0  0  0
   -1.6217    0.1787   -1.8449 H   0  0  0  0  0  0  0  0  0  0  0  0
   -0.5722    0.5380    0.5164 H   0  0  0  0  0  0  0  0  0  0  0  0
   -2.4962    0.6473    0.4436 H   0  0  0  0  0  0  0  0  0  0  0  0
   -2.5031    3.1580    0.3422 H   0  0  0  0  0  0  0  0  0  0  0  0
   -1.6217    2.5788    1.7574 H   0  0  0  0  0  0  0  0  0  0  0  0
   -0.7402    3.1580    0.3422 H   0  0  0  0  0  0  0  0  0  0  0  0
  1  2  1  0
  1  5  1  0
  1  6  1  0
  1  7  1  0
  2  3  1  0
  2  8  1  0
  2 16  1  0
  3  4  2  0
  3  9  1  0
 10 11  1  0
 10 13  1  0
 10 14  1  0
 10 15  1  0
 11 12  1  0
 11 17  1  0
 12 18  1  0
 12 19  1  0
 12 20  1  0
M  RAD  1  11   2
M  END
>  <reaction>  (15) 
rxn_935

>  <mol_properties>  (15) 
{"1": {"label": "*1", "atom_type": "Cs"}, "2": {"label": "*0", "atom_type": "CS"}, "9": {"label": "*4", "atom_type": "Cs"}, "10": {"label": "*3", "atom_type": "Cs"}, "15": {"label": "*2", "atom_type": "H0"}}

>  <type>  (15) 
unop_11

>  <geom_source>  (15) 
Heuristics

$$$$

     RDKit          3D

 20 18  0  0  0  0  0  0  0  0999 V2000
    1.2820   -1.8743   -1.0085 C   0  0  0  0  0  0  0  0  0  0  0  0
    0.4397   -1.3481    0.1567 C   0  0  0  0  0  0  0  0  0  0  0  0
    1.2418   -0.4716    1.0591 C   0  0  0  0  0  0  0  0  0  0  0  0
    0.9536    1.0720    1.3987 S   0  0  0  0  0  0  0  0  0  0  0  0
    1.6276   -1.0523   -1.6366 H   0  0  0  0  0  0  0  0  0  0  0  0
    2.1575   -2.4198   -0.6511 H   0  0  0  0  0  0  0  0  0  0  0  0
    0.6922   -2.5514   -1.6266 H   0  0  0  0  0  0  0  0  0  0  0  0
    0.0836   -2.1982    0.7503 H   0  0  0  0  0  0  0  0  0  0  0  0
    2.1134   -0.9601    1.5020 H   0  0  0  0  0  0  0  0  0  0  0  0
   -1.6557   -0.0390   -2.2387 C   0  0  0  0  0  0  0  0  0  0  0  0
   -1.6557   -0.0390   -0.7154 C   0  0  0  0  0  3  0  0  0  0  0  0
   -1.6557    1.3668   -0.1287 C   0  0  0  0  0  0  0  0  0  0  0  0
   -0.7742    0.4752   -2.6294 H   0  0  0  0  0  0  0  0  0  0  0  0
   -2.5372    0.4752   -2.6294 H   0  0  0  0  0  0  0  0  0  0  0  0
   -1.6557   -1.0539   -2.6399 H   0  0  0  0  0  0  0  0  0  0  0  0
   -0.6063   -0.6947   -0.2786 H   0  0  0  0  0  0  0  0  0  0  0  0
   -2.5302   -0.5854   -0.3514 H   0  0  0  0  0  0  0  0  0  0  0  0
   -2.5372    1.9253   -0.4528 H   0  0  0  0  0  0  0  0  0  0  0  0
   -1.6557    1.3461    0.9624 H   0  0  0  0  0  0  0  0  0  0  0  0
   -0.7742    1.9253   -0.4528 H   0  0  0  0  0  0  0  0  0  0  0  0
  1  2  1  0
  1  5  1  0
  1  6  1  0
  1  7  1  0
  2  3  1  0
  2  8  1  0
  2 16  1  0
  3  4  2  0
  3  9  1  0
 10 11  1  0
 10 13  1  0
 10 14  1  0
 10 15  1  0
 11 12  1  0
 11 17  1  0
 12 18  1  0
 12 19  1  0
 12 20  1  0
M  RAD  1  11   2
M  END
>  <reaction>  (16) 
rxn_935

>  <mol_properties>  (16) 
{"1": {"label": "*1", "atom_type": "Cs"}, "2": {"label": "*0", "atom_type": "CS"}, "9": {"label": "*4", "atom_type": "Cs"}, "10": {"label": "*3", "atom_type": "Cs"}, "15": {"label": "*2", "atom_type": "H0"}}

>  <type>  (16) 
unop_12

>  <geom_source>  (16) 
Heuristics

$$$$

     RDKit          3D

 20 18  0  0  0  0  0  0  0  0999 V2000
    1.3749    0.8597    2.4984 S   0  0  0  0  0  1  0  0  0  0  0  0
    1.3210   -0.3304    0.2468 C   0  0  0  0  0  0  0  0  0  0  0  0
    2.1034   -0.4083   -1.0589 C   0  0  0  0  0  0  0  0  0  0  0  0
   -1.8746    1.2755   -0.4221 C   0  0  0  0  0  0  0  0  0  0  0  0
   -1.7462   -1.0229    0.6062 C   0  0  0  0  0  0  0  0  0  0  0  0
   -1.1835   -0.0821   -0.4520 C   0  0  0  0  0  0  0  0  0  0  0  0
    1.9814    0.6000    1.2238 C   0  0  0  0  0  0  0  0  0  0  0  0
    1.2513   -1.3490    0.6879 H   0  0  0  0  0  0  0  0  0  0  0  0
    0.0376    0.1246   -0.0295 H   0  0  0  0  0  0  0  0  0  0  0  0
    3.1297   -0.7911   -0.8725 H   0  0  0  0  0  0  0  0  0  0  0  0
    1.5861   -1.0980   -1.7581 H   0  0  0  0  0  0  0  0  0  0  0  0
    2.1629    0.5959   -1.5299 H   0  0  0  0  0  0  0  0  0  0  0  0
   -1.7389    1.7519    0.5717 H   0  0  0  0  0  0  0  0  0  0  0  0
   -1.4248    1.9331   -1.1948 H   0  0  0  0  0  0  0  0  0  0  0  0
   -2.9592    1.1621   -0.6338 H   0  0  0  0  0  0  0  0  0  0  0  0
   -1.2055   -1.9910    0.5610 H   0  0  0  0  0  0  0  0  0  0  0  0
   -1.6082   -0.5866    1.6180 H   0  0  0  0  0  0  0  0  0  0  0  0
   -2.8269   -1.2059    0.4257 H   0  0  0  0  0  0  0  0  0  0  0  0
   -1.2917   -0.5388   -1.4593 H   0  0  0  0  0  0  0  0  0  0  0  0
    2.9112    1.1015    0.9714 H   0  0  0  0  0  0  0  0  0  0  0  0
  1  7  1  0
  2  3  1  0
  2  7  2  3
  2  8  1  0
  3 10  1  0
  3 11  1  0
  3 12  1  0
  4  6  1  0
  4 13  1  0
  4 14  1  0
  4 15  1  0
  5  6  1  0
  5 16  1  0
  5 17  1  0
  5 18  1  0
  6  9  1  0
  6 19  1  0
  7 20  1  0
M  RAD  1   1   2
M  END
>  <reaction>  (17) 
rxn_935

>  <mol_properties>  (17) 
{"1": {"label": "*1", "atom_type": "Cs"}, "2": {"label": "*0", "atom_type": "CS"}, "9": {"label": "*4", "atom_type": "Cs"}, "10": {"label": "*3", "atom_type": "Cs"}, "15": {"label": "*2", "atom_type": "H0"}}

>  <type>  (17) 
unop_13

>  <geom_source>  (17) 
AutoTST

$$$$

     RDKit          3D

 20 18  0  0  0  0  0  0  0  0999 V2000
    1.9689   -1.2243   -1.0045 C   0  0  0  0  0  0  0  0  0  0  0  0
    0.8020   -1.3380   -0.0199 C   0  0  0  0  0  0  0  0  0  0  0  0
    1.0095   -0.4708    1.1763 C   0  0  0  0  0  0  0  0  0  0  0  0
    0.0607    0.7306    1.6639 S   0  0  0  0  0  0  0  0  0  0  0  0
    2.0471   -0.2086   -1.3942 H   0  0  0  0  0  0  0  0  0  0  0  0
    2.9173   -1.4789   -0.5275 H   0  0  0  0  0  0  0  0  0  0  0  0
    1.8221   -1.9021   -1.8455 H   0  0  0  0  0  0  0  0  0  0  0  0
    0.7318   -2.3746    0.3299 H   0  0  0  0  0  0  0  0  0  0  0  0
    1.9166   -0.6959    1.7427 H   0  0  0  0  0  0  0  0  0  0  0  0
   -1.2934   -0.0290   -2.4153 C   0  0  0  0  0  0  0  0  0  0  0  0
   -1.2934   -0.0290   -0.8920 C   0  0  0  0  0  3  0  0  0  0  0  0
   -1.2934    1.3769   -0.3053 C   0  0  0  0  0  0  0  0  0  0  0  0
   -0.4119    0.4853   -2.8060 H   0  0  0  0  0  0  0  0  0  0  0  0
   -2.1749    0.4853   -2.8060 H   0  0  0  0  0  0  0  0  0  0  0  0
   -1.2934   -1.0438   -2.8165 H   0  0  0  0  0  0  0  0  0  0  0  0
   -0.2440   -0.6846   -0.4552 H   0  0  0  0  0  0  0  0  0  0  0  0
   -2.1679   -0.5753   -0.5280 H   0  0  0  0  0  0  0  0  0  0  0  0
   -2.1749    1.9354   -0.6294 H   0  0  0  0  0  0  0  0  0  0  0  0
   -1.2934    1.3562    0.7858 H   0  0  0  0  0  0  0  0  0  0  0  0
   -0.4119    1.9354   -0.6294 H   0  0  0  0  0  0  0  0  0  0  0  0
  1  2  1  0
  1  5  1  0
  1  6  1  0
  1  7  1  0
  2  3  1  0
  2  8  1  0
  2 16  1  0
  3  4  2  0
  3  9  1  0
 10 11  1  0
 10 13  1  0
 10 14  1  0
 10 15  1  0
 11 12  1  0
 11 17  1  0
 12 18  1  0
 12 19  1  0
 12 20  1  0
M  RAD  1  11   2
M  END
>  <reaction>  (18) 
rxn_935

>  <mol_properties>  (18) 
{"1": {"label": "*1", "atom_type": "Cs"}, "2": {"label": "*0", "atom_type": "CS"}, "9": {"label": "*4", "atom_type": "Cs"}, "10": {"label": "*3", "atom_type": "Cs"}, "15": {"label": "*2", "atom_type": "H0"}}

>  <type>  (18) 
unop_14

>  <geom_source>  (18) 
gaussian_log

$$$$
