
     RDKit          3D

  9  8  0  0  0  0  0  0  0  0999 V2000
   -0.8818   -0.3578    0.1297 C   0  0  0  0  0  0  0  0  0  0  0  0
    0.6153   -0.3021   -0.1188 C   0  0  0  0  0  0  0  0  0  0  0  0
    1.5354   -1.7170    0.5545 S   0  0  0  0  0  0  0  0  0  0  0  0
   -1.1018   -0.3317    1.1984 H   0  0  0  0  0  0  0  0  0  0  0  0
   -1.3114   -1.2723   -0.2799 H   0  0  0  0  0  0  0  0  0  0  0  0
   -1.3767    0.4976   -0.3363 H   0  0  0  0  0  0  0  0  0  0  0  0
    1.0467    0.6194    0.2718 H   0  0  0  0  0  0  0  0  0  0  0  0
    0.8295   -0.3275   -1.1882 H   0  0  0  0  0  0  0  0  0  0  0  0
    1.2306   -1.5077    1.8423 H   0  0  0  0  0  0  0  0  0  0  0  0
  1  2  1  0
  1  4  1  0
  1  5  1  0
  1  6  1  0
  2  3  1  0
  2  7  1  0
  2  8  1  0
  3  9  1  0
M  END
>  <reaction>  (1) 
rxn_1894

>  <mol_properties>  (1) 
{"1": {"label": "donator", "atom_type": "Cs"}, "6": {"label": "d_hydrogen", "atom_type": "H0"}}

>  <type>  (1) 
r1h

$$$$

     RDKit          3D

 12 11  0  0  0  0  0  0  0  0999 V2000
   -0.9951    0.1196   -0.8321 C   0  0  0  0  0  0  0  0  0  0  0  0
   -0.3760    0.2571    0.5231 C   0  0  0  0  0  3  0  0  0  0  0  0
    0.9330   -0.1537    0.7810 C   0  0  0  0  0  0  0  0  0  0  0  0
    1.5987   -0.1880    1.9734 C   0  0  0  0  0  0  0  0  0  0  0  0
   -1.4483    0.9449    1.7152 S   0  0  0  0  0  0  0  0  0  0  0  0
   -1.9164   -0.4696   -0.7936 H   0  0  0  0  0  0  0  0  0  0  0  0
   -1.2565    1.0958   -1.2506 H   0  0  0  0  0  0  0  0  0  0  0  0
   -0.3088   -0.3780   -1.5170 H   0  0  0  0  0  0  0  0  0  0  0  0
    1.4783   -0.4898   -0.0971 H   0  0  0  0  0  0  0  0  0  0  0  0
    2.6278   -0.5153    2.0142 H   0  0  0  0  0  0  0  0  0  0  0  0
    1.1316    0.0690    2.9151 H   0  0  0  0  0  0  0  0  0  0  0  0
   -0.5306    1.3052    2.6211 H   0  0  0  0  0  0  0  0  0  0  0  0
  1  2  1  0
  1  6  1  0
  1  7  1  0
  1  8  1  0
  2  3  1  0
  2  5  1  0
  3  4  2  3
  3  9  1  0
  4 10  1  0
  4 11  1  0
  5 12  1  0
M  RAD  1   2   2
M  END
>  <reaction>  (2) 
rxn_1894

>  <mol_properties>  (2) 
{"1": {"label": "acceptor", "atom_type": "Cs"}}

>  <type>  (2) 
r2

$$$$

     RDKit          3D

 13 12  0  0  0  0  0  0  0  0999 V2000
   -1.1828    0.8269   -0.1645 C   0  0  0  0  0  0  0  0  0  0  0  0
   -0.4827   -0.4584   -0.5736 C   0  0  1  0  0  0  0  0  0  0  0  0
   -0.9759   -1.7030    0.1030 C   0  0  0  0  0  0  0  0  0  0  0  0
   -2.0084   -1.7831    0.9287 C   0  0  0  0  0  0  0  0  0  0  0  0
   -0.4908   -0.7025   -2.3913 S   0  0  0  0  0  0  0  0  0  0  0  0
   -1.0941    0.9860    0.9125 H   0  0  0  0  0  0  0  0  0  0  0  0
   -0.7405    1.6784   -0.6793 H   0  0  0  0  0  0  0  0  0  0  0  0
   -2.2437    0.7943   -0.4195 H   0  0  0  0  0  0  0  0  0  0  0  0
    0.5870   -0.3637   -0.3637 H   0  0  0  0  0  0  0  0  0  0  0  0
   -0.4209   -2.6026   -0.1443 H   0  0  0  0  0  0  0  0  0  0  0  0
   -2.2982   -2.7315    1.3623 H   0  0  0  0  0  0  0  0  0  0  0  0
   -2.5999   -0.9190    1.2055 H   0  0  0  0  0  0  0  0  0  0  0  0
   -1.8040   -0.9489   -2.4971 H   0  0  0  0  0  0  0  0  0  0  0  0
  1  2  1  0
  1  6  1  0
  1  7  1  0
  1  8  1  0
  2  3  1  0
  2  5  1  0
  2  9  1  1
  3  4  2  3
  3 10  1  0
  4 11  1  0
  4 12  1  0
  5 13  1  0
M  END
>  <reaction>  (3) 
rxn_1894

>  <mol_properties>  (3) 
{"1": {"label": "acceptor", "atom_type": "Cs"}, "12": {"label": "a_hydrogen", "atom_type": "H0"}}

>  <type>  (3) 
r2h

$$$$

     RDKit          3D

 21 19  0  0  0  0  0  0  0  0999 V2000
    1.9229    0.3432    0.7187 C   0  0  0  0  0  0  0  0  0  0  0  0
    0.7588   -0.5931    0.5022 C   0  0  1  0  0  0  0  0  0  0  0  0
    0.9948   -1.8054   -0.2915 C   0  0  0  0  0  0  0  0  0  0  0  0
    2.0799   -2.0614   -1.0242 C   0  0  0  0  0  0  0  0  0  0  0  0
   -0.2920   -0.8529    1.9443 S   0  0  0  0  0  0  0  0  0  0  0  0
    2.7169   -0.1437    1.2929 H   0  0  0  0  0  0  0  0  0  0  0  0
    2.3404    0.6656   -0.2377 H   0  0  0  0  0  0  0  0  0  0  0  0
    1.6021    1.2291    1.2651 H   0  0  0  0  0  0  0  0  0  0  0  0
    0.1823   -2.5258   -0.2875 H   0  0  0  0  0  0  0  0  0  0  0  0
    2.1526   -2.9722   -1.6042 H   0  0  0  0  0  0  0  0  0  0  0  0
    2.9268   -1.3875   -1.0601 H   0  0  0  0  0  0  0  0  0  0  0  0
    0.5428   -1.6434    2.6379 H   0  0  0  0  0  0  0  0  0  0  0  0
   -1.9781   -0.1552   -1.4212 C   0  0  0  0  0  0  0  0  0  0  0  0
   -0.8541    0.8067   -1.1513 C   0  0  0  0  0  3  0  0  0  0  0  0
    0.1957    1.2614   -2.4976 S   0  0  0  0  0  0  0  0  0  0  0  0
   -1.5947   -1.0885   -1.8405 H   0  0  0  0  0  0  0  0  0  0  0  0
   -2.6986    0.2598   -2.1309 H   0  0  0  0  0  0  0  0  0  0  0  0
   -2.5028   -0.3939   -0.4942 H   0  0  0  0  0  0  0  0  0  0  0  0
   -0.0526    0.1166   -0.2516 H   0  0  0  0  0  0  0  0  0  0  0  0
   -1.1336    1.7051   -0.6043 H   0  0  0  0  0  0  0  0  0  0  0  0
    0.4234    0.0169   -2.9439 H   0  0  0  0  0  0  0  0  0  0  0  0
  1  2  1  0
  1  6  1  0
  1  7  1  0
  1  8  1  0
  2  3  1  0
  2  5  1  0
  2 19  1  6
  3  4  2  3
  3  9  1  0
  4 10  1  0
  4 11  1  0
  5 12  1  0
 13 14  1  0
 13 16  1  0
 13 17  1  0
 13 18  1  0
 14 15  1  0
 14 20  1  0
 15 21  1  0
M  RAD  1  14   2
M  END
>  <reaction>  (4) 
rxn_1894

>  <mol_properties>  (4) 
{"1": {"label": "*1", "atom_type": "Cs"}, "4": {"label": "*0", "atom_type": "S2s"}, "13": {"label": "*3", "atom_type": "Cs"}, "14": {"label": "*4", "atom_type": "S2s"}, "18": {"label": "*2", "atom_type": "H0"}}

>  <type>  (4) 
ts

$$$$

     RDKit          3D

 21 19  0  0  0  0  0  0  0  0999 V2000
    1.7081    0.2683    1.0174 C   0  0  0  0  0  0  0  0  0  0  0  0
    0.8479   -0.6529    0.1684 C   0  0  0  0  0  3  0  0  0  0  0  0
    1.5257   -1.9001   -0.3167 C   0  0  0  0  0  0  0  0  0  0  0  0
    2.7458   -2.2997    0.0087 C   0  0  0  0  0  0  0  0  0  0  0  0
   -0.7257   -1.0929    1.0015 S   0  0  0  0  0  0  0  0  0  0  0  0
    2.0279   -0.2286    1.9351 H   0  0  0  0  0  0  0  0  0  0  0  0
    2.5995    0.5766    0.4662 H   0  0  0  0  0  0  0  0  0  0  0  0
    1.1467    1.1586    1.2964 H   0  0  0  0  0  0  0  0  0  0  0  0
    0.9236   -2.5134   -0.9798 H   0  0  0  0  0  0  0  0  0  0  0  0
    3.1486   -3.2244   -0.3840 H   0  0  0  0  0  0  0  0  0  0  0  0
    3.3872   -1.7299    0.6698 H   0  0  0  0  0  0  0  0  0  0  0  0
   -0.1759   -1.8691    1.9458 H   0  0  0  0  0  0  0  0  0  0  0  0
   -1.1800    0.7085   -2.3005 C   0  0  0  0  0  0  0  0  0  0  0  0
   -1.1800    0.7085   -0.7818 C   0  0  0  0  0  0  0  0  0  0  0  0
   -1.1800    2.3659   -0.0368 S   0  0  0  0  0  0  0  0  0  0  0  0
   -0.2734    1.1740   -2.6912 H   0  0  0  0  0  0  0  0  0  0  0  0
   -2.0360    1.2597   -2.6906 H   0  0  0  0  0  0  0  0  0  0  0  0
   -1.2231   -0.3148   -2.6807 H   0  0  0  0  0  0  0  0  0  0  0  0
   -0.1681    0.0292   -0.3077 H   0  0  0  0  0  0  0  0  0  0  0  0
   -2.0876    0.2415   -0.3967 H   0  0  0  0  0  0  0  0  0  0  0  0
   -0.0052    2.7676   -0.5403 H   0  0  0  0  0  0  0  0  0  0  0  0
  1  2  1  0
  1  6  1  0
  1  7  1  0
  1  8  1  0
  2  3  1  0
  2  5  1  0
  3  4  2  3
  3  9  1  0
  4 10  1  0
  4 11  1  0
  5 12  1  0
 13 14  1  0
 13 16  1  0
 13 17  1  0
 13 18  1  0
 14 15  1  0
 14 19  1  0
 14 20  1  0
 15 21  1  0
M  RAD  1   2   2
M  END
>  <reaction>  (5) 
rxn_1894

>  <mol_properties>  (5) 
{"1": {"label": "*1", "atom_type": "Cs"}, "4": {"label": "*0", "atom_type": "S2s"}, "13": {"label": "*3", "atom_type": "Cs"}, "14": {"label": "*4", "atom_type": "S2s"}, "18": {"label": "*2", "atom_type": "H0"}}

>  <type>  (5) 
unop_1

>  <geom_source>  (5) 
Heuristics

$$$$

     RDKit          3D

 21 19  0  0  0  0  0  0  0  0999 V2000
    1.8066   -0.7802   -0.8849 C   0  0  0  0  0  0  0  0  0  0  0  0
    0.6487   -0.8682    0.0954 C   0  0  0  0  0  3  0  0  0  0  0  0
    0.4415   -2.2127    0.7274 C   0  0  0  0  0  0  0  0  0  0  0  0
    1.2243   -3.2709    0.5803 C   0  0  0  0  0  0  0  0  0  0  0  0
    0.7483    0.4160    1.4011 S   0  0  0  0  0  0  0  0  0  0  0  0
    2.7572   -0.9846   -0.3888 H   0  0  0  0  0  0  0  0  0  0  0  0
    1.6799   -1.5032   -1.6939 H   0  0  0  0  0  0  0  0  0  0  0  0
    1.8614    0.2181   -1.3162 H   0  0  0  0  0  0  0  0  0  0  0  0
   -0.4307   -2.2809    1.3701 H   0  0  0  0  0  0  0  0  0  0  0  0
    0.9997   -4.2005    1.0871 H   0  0  0  0  0  0  0  0  0  0  0  0
    2.1093   -3.2570   -0.0441 H   0  0  0  0  0  0  0  0  0  0  0  0
    1.8077   -0.1058    2.0350 H   0  0  0  0  0  0  0  0  0  0  0  0
   -1.3793    0.4933   -2.3735 C   0  0  0  0  0  0  0  0  0  0  0  0
   -1.3793    0.4933   -0.8548 C   0  0  0  0  0  0  0  0  0  0  0  0
   -1.3793    2.1506   -0.1098 S   0  0  0  0  0  0  0  0  0  0  0  0
   -0.4726    0.9587   -2.7642 H   0  0  0  0  0  0  0  0  0  0  0  0
   -2.2352    1.0445   -2.7636 H   0  0  0  0  0  0  0  0  0  0  0  0
   -1.4224   -0.5301   -2.7538 H   0  0  0  0  0  0  0  0  0  0  0  0
   -0.3674   -0.1861   -0.3807 H   0  0  0  0  0  0  0  0  0  0  0  0
   -2.2869    0.0262   -0.4697 H   0  0  0  0  0  0  0  0  0  0  0  0
   -0.2045    2.5523   -0.6134 H   0  0  0  0  0  0  0  0  0  0  0  0
  1  2  1  0
  1  6  1  0
  1  7  1  0
  1  8  1  0
  2  3  1  0
  2  5  1  0
  3  4  2  3
  3  9  1  0
  4 10  1  0
  4 11  1  0
  5 12  1  0
 13 14  1  0
 13 16  1  0
 13 17  1  0
 13 18  1  0
 14 15  1  0
 14 19  1  0
 14 20  1  0
 15 21  1  0
M  RAD  1   2   2
M  END
>  <reaction>  (6) 
rxn_1894

>  <mol_properties>  (6) 
{"1": {"label": "*1", "atom_type": "Cs"}, "4": {"label": "*0", "atom_type": "S2s"}, "13": {"label": "*3", "atom_type": "Cs"}, "14": {"label": "*4", "atom_type": "S2s"}, "18": {"label": "*2", "atom_type": "H0"}}

>  <type>  (6) 
unop_2

>  <geom_source>  (6) 
Heuristics

$$$$

     RDKit          3D

 21 19  0  0  0  0  0  0  0  0999 V2000
    1.1752    0.0016    1.6573 C   0  0  0  0  0  0  0  0  0  0  0  0
    0.7664   -0.5892    0.3182 C   0  0  0  0  0  3  0  0  0  0  0  0
    1.8780   -1.2024   -0.4808 C   0  0  0  0  0  0  0  0  0  0  0  0
    3.1315   -1.3549   -0.0810 C   0  0  0  0  0  0  0  0  0  0  0  0
   -0.6079   -1.7925    0.4833 S   0  0  0  0  0  0  0  0  0  0  0  0
    1.5786   -0.7672    2.3188 H   0  0  0  0  0  0  0  0  0  0  0  0
    1.9388    0.7706    1.5201 H   0  0  0  0  0  0  0  0  0  0  0  0
    0.3145    0.4504    2.1507 H   0  0  0  0  0  0  0  0  0  0  0  0
    1.5862   -1.5564   -1.4646 H   0  0  0  0  0  0  0  0  0  0  0  0
    3.8654   -1.8210   -0.7257 H   0  0  0  0  0  0  0  0  0  0  0  0
    3.4757   -1.0252    0.8916 H   0  0  0  0  0  0  0  0  0  0  0  0
    0.1068   -2.7426    1.1021 H   0  0  0  0  0  0  0  0  0  0  0  0
   -1.2615    0.7722   -2.1507 C   0  0  0  0  0  0  0  0  0  0  0  0
   -1.2615    0.7722   -0.6320 C   0  0  0  0  0  0  0  0  0  0  0  0
   -1.2615    2.4296    0.1130 S   0  0  0  0  0  0  0  0  0  0  0  0
   -0.3549    1.2376   -2.5414 H   0  0  0  0  0  0  0  0  0  0  0  0
   -2.1175    1.3234   -2.5408 H   0  0  0  0  0  0  0  0  0  0  0  0
   -1.3046   -0.2512   -2.5310 H   0  0  0  0  0  0  0  0  0  0  0  0
   -0.2496    0.0929   -0.1579 H   0  0  0  0  0  0  0  0  0  0  0  0
   -2.1691    0.3052   -0.2469 H   0  0  0  0  0  0  0  0  0  0  0  0
   -0.0867    2.8312   -0.3906 H   0  0  0  0  0  0  0  0  0  0  0  0
  1  2  1  0
  1  6  1  0
  1  7  1  0
  1  8  1  0
  2  3  1  0
  2  5  1  0
  3  4  2  3
  3  9  1  0
  4 10  1  0
  4 11  1  0
  5 12  1  0
 13 14  1  0
 13 16  1  0
 13 17  1  0
 13 18  1  0
 14 15  1  0
 14 19  1  0
 14 20  1  0
 15 21  1  0
M  RAD  1   2   2
M  END
>  <reaction>  (7) 
rxn_1894

>  <mol_properties>  (7) 
{"1": {"label": "*1", "atom_type": "Cs"}, "4": {"label": "*0", "atom_type": "S2s"}, "13": {"label": "*3", "atom_type": "Cs"}, "14": {"label": "*4", "atom_type": "S2s"}, "18": {"label": "*2", "atom_type": "H0"}}

>  <type>  (7) 
unop_3

>  <geom_source>  (7) 
Heuristics

$$$$

     RDKit          3D

 21 19  0  0  0  0  0  0  0  0999 V2000
    0.5486   -2.3055   -0.3915 C   0  0  0  0  0  0  0  0  0  0  0  0
    0.6430   -0.8702    0.0987 C   0  0  0  0  0  3  0  0  0  0  0  0
   -0.0509   -0.5870    1.3980 C   0  0  0  0  0  0  0  0  0  0  0  0
   -0.6365   -1.4823    2.1789 C   0  0  0  0  0  0  0  0  0  0  0  0
    2.3780   -0.2820    0.1876 S   0  0  0  0  0  0  0  0  0  0  0  0
    1.0221   -2.9926    0.3123 H   0  0  0  0  0  0  0  0  0  0  0  0
   -0.4960   -2.6024   -0.5099 H   0  0  0  0  0  0  0  0  0  0  0  0
    1.0509   -2.4106   -1.3518 H   0  0  0  0  0  0  0  0  0  0  0  0
   -0.0367    0.4554    1.7007 H   0  0  0  0  0  0  0  0  0  0  0  0
   -1.1045   -1.1845    3.1083 H   0  0  0  0  0  0  0  0  0  0  0  0
   -0.6755   -2.5353    1.9284 H   0  0  0  0  0  0  0  0  0  0  0  0
    2.7367   -1.0499    1.2259 H   0  0  0  0  0  0  0  0  0  0  0  0
   -1.3849    0.4913   -2.3702 C   0  0  0  0  0  0  0  0  0  0  0  0
   -1.3849    0.4913   -0.8515 C   0  0  0  0  0  0  0  0  0  0  0  0
   -1.3849    2.1487   -0.1066 S   0  0  0  0  0  0  0  0  0  0  0  0
   -0.4783    0.9567   -2.7610 H   0  0  0  0  0  0  0  0  0  0  0  0
   -2.2409    1.0425   -2.7603 H   0  0  0  0  0  0  0  0  0  0  0  0
   -1.4280   -0.5321   -2.7505 H   0  0  0  0  0  0  0  0  0  0  0  0
   -0.3730   -0.1880   -0.3774 H   0  0  0  0  0  0  0  0  0  0  0  0
   -2.2925    0.0242   -0.4664 H   0  0  0  0  0  0  0  0  0  0  0  0
   -0.2101    2.5503   -0.6101 H   0  0  0  0  0  0  0  0  0  0  0  0
  1  2  1  0
  1  6  1  0
  1  7  1  0
  1  8  1  0
  2  3  1  0
  2  5  1  0
  3  4  2  3
  3  9  1  0
  4 10  1  0
  4 11  1  0
  5 12  1  0
 13 14  1  0
 13 16  1  0
 13 17  1  0
 13 18  1  0
 14 15  1  0
 14 19  1  0
 14 20  1  0
 15 21  1  0
M  RAD  1   2   2
M  END
>  <reaction>  (8) 
rxn_1894

>  <mol_properties>  (8) 
{"1": {"label": "*1", "atom_type": "Cs"}, "4": {"label": "*0", "atom_type": "S2s"}, "13": {"label": "*3", "atom_type": "Cs"}, "14": {"label": "*4", "atom_type": "S2s"}, "18": {"label": "*2", "atom_type": "H0"}}

>  <type>  (8) 
unop_4

>  <geom_source>  (8) 
Heuristics

$$$$

     RDKit          3D

 21 19  0  0  0  0  0  0  0  0999 V2000
    0.5207   -0.6644    1.9447 C   0  0  0  0  0  0  0  0  0  0  0  0
    0.5703   -0.6977    0.4262 C   0  0  0  0  0  3  0  0  0  0  0  0
    1.8227   -0.1470   -0.1888 C   0  0  0  0  0  0  0  0  0  0  0  0
    2.8980    0.2614    0.4680 C   0  0  0  0  0  0  0  0  0  0  0  0
    0.2445   -2.3751   -0.2402 S   0  0  0  0  0  0  0  0  0  0  0  0
    1.3145   -1.2765    2.3769 H   0  0  0  0  0  0  0  0  0  0  0  0
    0.6393    0.3582    2.3100 H   0  0  0  0  0  0  0  0  0  0  0  0
   -0.4326   -1.0522    2.3002 H   0  0  0  0  0  0  0  0  0  0  0  0
    1.8159   -0.1109   -1.2737 H   0  0  0  0  0  0  0  0  0  0  0  0
    3.7631    0.6352   -0.0643 H   0  0  0  0  0  0  0  0  0  0  0  0
    2.9609    0.2425    1.5491 H   0  0  0  0  0  0  0  0  0  0  0  0
    1.3948   -2.9215    0.1778 H   0  0  0  0  0  0  0  0  0  0  0  0
   -1.4576    0.6638   -2.0426 C   0  0  0  0  0  0  0  0  0  0  0  0
   -1.4576    0.6638   -0.5240 C   0  0  0  0  0  0  0  0  0  0  0  0
   -1.4576    2.3211    0.2210 S   0  0  0  0  0  0  0  0  0  0  0  0
   -0.5510    1.1292   -2.4334 H   0  0  0  0  0  0  0  0  0  0  0  0
   -2.3136    1.2150   -2.4327 H   0  0  0  0  0  0  0  0  0  0  0  0
   -1.5007   -0.3596   -2.4229 H   0  0  0  0  0  0  0  0  0  0  0  0
   -0.4457   -0.0156   -0.0498 H   0  0  0  0  0  0  0  0  0  0  0  0
   -2.3652    0.1967   -0.1388 H   0  0  0  0  0  0  0  0  0  0  0  0
   -0.2828    2.7228   -0.2825 H   0  0  0  0  0  0  0  0  0  0  0  0
  1  2  1  0
  1  6  1  0
  1  7  1  0
  1  8  1  0
  2  3  1  0
  2  5  1  0
  3  4  2  3
  3  9  1  0
  4 10  1  0
  4 11  1  0
  5 12  1  0
 13 14  1  0
 13 16  1  0
 13 17  1  0
 13 18  1  0
 14 15  1  0
 14 19  1  0
 14 20  1  0
 15 21  1  0
M  RAD  1   2   2
M  END
>  <reaction>  (9) 
rxn_1894

>  <mol_properties>  (9) 
{"1": {"label": "*1", "atom_type": "Cs"}, "4": {"label": "*0", "atom_type": "S2s"}, "13": {"label": "*3", "atom_type": "Cs"}, "14": {"label": "*4", "atom_type": "S2s"}, "18": {"label": "*2", "atom_type": "H0"}}

>  <type>  (9) 
unop_5

>  <geom_source>  (9) 
Heuristics

$$$$

     RDKit          3D

 21 19  0  0  0  0  0  0  0  0999 V2000
    0.1869   -2.3980    0.3017 C   0  0  0  0  0  0  0  0  0  0  0  0
    0.6048   -0.9480    0.1223 C   0  0  0  0  0  3  0  0  0  0  0  0
    0.2191   -0.0244    1.2394 C   0  0  0  0  0  0  0  0  0  0  0  0
   -0.3510   -0.3791    2.3810 C   0  0  0  0  0  0  0  0  0  0  0  0
    2.3990   -0.7824   -0.2205 S   0  0  0  0  0  0  0  0  0  0  0  0
    0.6628   -2.8380    1.1800 H   0  0  0  0  0  0  0  0  0  0  0  0
   -0.8959   -2.4726    0.4253 H   0  0  0  0  0  0  0  0  0  0  0  0
    0.4788   -2.9857   -0.5673 H   0  0  0  0  0  0  0  0  0  0  0  0
    0.4602    1.0199    1.0667 H   0  0  0  0  0  0  0  0  0  0  0  0
   -0.5838    0.3599    3.1367 H   0  0  0  0  0  0  0  0  0  0  0  0
   -0.6082   -1.4066    2.6078 H   0  0  0  0  0  0  0  0  0  0  0  0
    2.8123   -1.1358    1.0045 H   0  0  0  0  0  0  0  0  0  0  0  0
   -1.4231    0.4134   -2.3466 C   0  0  0  0  0  0  0  0  0  0  0  0
   -1.4231    0.4134   -0.8279 C   0  0  0  0  0  0  0  0  0  0  0  0
   -1.4231    2.0708   -0.0829 S   0  0  0  0  0  0  0  0  0  0  0  0
   -0.5165    0.8788   -2.7373 H   0  0  0  0  0  0  0  0  0  0  0  0
   -2.2791    0.9646   -2.7367 H   0  0  0  0  0  0  0  0  0  0  0  0
   -1.4662   -0.6100   -2.7269 H   0  0  0  0  0  0  0  0  0  0  0  0
   -0.4112   -0.2659   -0.3538 H   0  0  0  0  0  0  0  0  0  0  0  0
   -2.3307   -0.0536   -0.4428 H   0  0  0  0  0  0  0  0  0  0  0  0
   -0.2483    2.4725   -0.5865 H   0  0  0  0  0  0  0  0  0  0  0  0
  1  2  1  0
  1  6  1  0
  1  7  1  0
  1  8  1  0
  2  3  1  0
  2  5  1  0
  3  4  2  3
  3  9  1  0
  4 10  1  0
  4 11  1  0
  5 12  1  0
 13 14  1  0
 13 16  1  0
 13 17  1  0
 13 18  1  0
 14 15  1  0
 14 19  1  0
 14 20  1  0
 15 21  1  0
M  RAD  1   2   2
M  END
>  <reaction>  (10) 
rxn_1894

>  <mol_properties>  (10) 
{"1": {"label": "*1", "atom_type": "Cs"}, "4": {"label": "*0", "atom_type": "S2s"}, "13": {"label": "*3", "atom_type": "Cs"}, "14": {"label": "*4", "atom_type": "S2s"}, "18": {"label": "*2", "atom_type": "H0"}}

>  <type>  (10) 
unop_6

>  <geom_source>  (10) 
Heuristics

$$$$

     RDKit          3D

 21 19  0  0  0  0  0  0  0  0999 V2000
    0.0082   -2.1331    1.0620 C   0  0  0  0  0  0  0  0  0  0  0  0
    0.5351   -0.9881    0.2130 C   0  0  0  0  0  3  0  0  0  0  0  0
    0.6220    0.3395    0.9058 C   0  0  0  0  0  0  0  0  0  0  0  0
    0.3784    0.5659    2.1879 C   0  0  0  0  0  0  0  0  0  0  0  0
    2.1507   -1.3854   -0.5589 S   0  0  0  0  0  0  0  0  0  0  0  0
    0.6645   -2.3253    1.9127 H   0  0  0  0  0  0  0  0  0  0  0  0
   -0.9885   -1.9003    1.4438 H   0  0  0  0  0  0  0  0  0  0  0  0
   -0.0503   -3.0458    0.4710 H   0  0  0  0  0  0  0  0  0  0  0  0
    0.9317    1.1625    0.2693 H   0  0  0  0  0  0  0  0  0  0  0  0
    0.4784    1.5603    2.6032 H   0  0  0  0  0  0  0  0  0  0  0  0
    0.0717   -0.2187    2.8687 H   0  0  0  0  0  0  0  0  0  0  0  0
    2.8624   -1.3597    0.5766 H   0  0  0  0  0  0  0  0  0  0  0  0
   -1.4928    0.3734   -2.2559 C   0  0  0  0  0  0  0  0  0  0  0  0
   -1.4928    0.3734   -0.7372 C   0  0  0  0  0  0  0  0  0  0  0  0
   -1.4928    2.0307    0.0078 S   0  0  0  0  0  0  0  0  0  0  0  0
   -0.5862    0.8388   -2.6466 H   0  0  0  0  0  0  0  0  0  0  0  0
   -2.3488    0.9246   -2.6460 H   0  0  0  0  0  0  0  0  0  0  0  0
   -1.5359   -0.6500   -2.6362 H   0  0  0  0  0  0  0  0  0  0  0  0
   -0.4809   -0.3060   -0.2631 H   0  0  0  0  0  0  0  0  0  0  0  0
   -2.4004   -0.0937   -0.3521 H   0  0  0  0  0  0  0  0  0  0  0  0
   -0.3180    2.4324   -0.4957 H   0  0  0  0  0  0  0  0  0  0  0  0
  1  2  1  0
  1  6  1  0
  1  7  1  0
  1  8  1  0
  2  3  1  0
  2  5  1  0
  3  4  2  3
  3  9  1  0
  4 10  1  0
  4 11  1  0
  5 12  1  0
 13 14  1  0
 13 16  1  0
 13 17  1  0
 13 18  1  0
 14 15  1  0
 14 19  1  0
 14 20  1  0
 15 21  1  0
M  RAD  1   2   2
M  END
>  <reaction>  (11) 
rxn_1894

>  <mol_properties>  (11) 
{"1": {"label": "*1", "atom_type": "Cs"}, "4": {"label": "*0", "atom_type": "S2s"}, "13": {"label": "*3", "atom_type": "Cs"}, "14": {"label": "*4", "atom_type": "S2s"}, "18": {"label": "*2", "atom_type": "H0"}}

>  <type>  (11) 
unop_7

>  <geom_source>  (11) 
Heuristics

$$$$

     RDKit          3D

 21 19  0  0  0  0  0  0  0  0999 V2000
    2.0008    0.1729    0.2570 C   0  0  0  0  0  0  0  0  0  0  0  0
    0.8170   -0.7630    0.0776 C   0  0  0  0  0  3  0  0  0  0  0  0
    1.1550   -2.2231    0.0145 C   0  0  0  0  0  0  0  0  0  0  0  0
    2.3550   -2.7529    0.1975 C   0  0  0  0  0  0  0  0  0  0  0  0
   -0.4815   -0.4868    1.3430 S   0  0  0  0  0  0  0  0  0  0  0  0
    2.5120   -0.0176    1.2025 H   0  0  0  0  0  0  0  0  0  0  0  0
    2.7204    0.0410   -0.5542 H   0  0  0  0  0  0  0  0  0  0  0  0
    1.6662    1.2091    0.2598 H   0  0  0  0  0  0  0  0  0  0  0  0
    0.3101   -2.8748   -0.1849 H   0  0  0  0  0  0  0  0  0  0  0  0
    2.5015   -3.8239    0.1436 H   0  0  0  0  0  0  0  0  0  0  0  0
    3.2311   -2.1505    0.4045 H   0  0  0  0  0  0  0  0  0  0  0  0
    0.2194   -0.9737    2.3765 H   0  0  0  0  0  0  0  0  0  0  0  0
   -1.2109    0.5984   -2.3913 C   0  0  0  0  0  0  0  0  0  0  0  0
   -1.2109    0.5984   -0.8726 C   0  0  0  0  0  0  0  0  0  0  0  0
   -1.2109    2.2558   -0.1276 S   0  0  0  0  0  0  0  0  0  0  0  0
   -0.3043    1.0638   -2.7820 H   0  0  0  0  0  0  0  0  0  0  0  0
   -2.0669    1.1496   -2.7814 H   0  0  0  0  0  0  0  0  0  0  0  0
   -1.2540   -0.4249   -2.7716 H   0  0  0  0  0  0  0  0  0  0  0  0
   -0.1990   -0.0809   -0.3985 H   0  0  0  0  0  0  0  0  0  0  0  0
   -2.1185    0.1314   -0.4875 H   0  0  0  0  0  0  0  0  0  0  0  0
   -0.0361    2.6575   -0.6312 H   0  0  0  0  0  0  0  0  0  0  0  0
  1  2  1  0
  1  6  1  0
  1  7  1  0
  1  8  1  0
  2  3  1  0
  2  5  1  0
  3  4  2  3
  3  9  1  0
  4 10  1  0
  4 11  1  0
  5 12  1  0
 13 14  1  0
 13 16  1  0
 13 17  1  0
 13 18  1  0
 14 15  1  0
 14 19  1  0
 14 20  1  0
 15 21  1  0
M  RAD  1   2   2
M  END
>  <reaction>  (12) 
rxn_1894

>  <mol_properties>  (12) 
{"1": {"label": "*1", "atom_type": "Cs"}, "4": {"label": "*0", "atom_type": "S2s"}, "13": {"label": "*3", "atom_type": "Cs"}, "14": {"label": "*4", "atom_type": "S2s"}, "18": {"label": "*2", "atom_type": "H0"}}

>  <type>  (12) 
unop_8

>  <geom_source>  (12) 
Heuristics

$$$$

     RDKit          3D

 21 19  0  0  0  0  0  0  0  0999 V2000
    0.9933   -1.9265   -0.8627 C   0  0  0  0  0  0  0  0  0  0  0  0
    0.6363   -0.8215    0.1176 C   0  0  0  0  0  3  0  0  0  0  0  0
   -0.1192   -1.2619    1.3363 C   0  0  0  0  0  0  0  0  0  0  0  0
   -0.4041   -2.5128    1.6657 C   0  0  0  0  0  0  0  0  0  0  0  0
    2.1038    0.1553    0.6239 S   0  0  0  0  0  0  0  0  0  0  0  0
    1.6517   -2.6640   -0.4000 H   0  0  0  0  0  0  0  0  0  0  0  0
    0.0925   -2.4395   -1.2070 H   0  0  0  0  0  0  0  0  0  0  0  0
    1.5095   -1.5122   -1.7273 H   0  0  0  0  0  0  0  0  0  0  0  0
   -0.4299   -0.4547    1.9923 H   0  0  0  0  0  0  0  0  0  0  0  0
   -0.9470   -2.7359    2.5750 H   0  0  0  0  0  0  0  0  0  0  0  0
   -0.1141   -3.3562    1.0511 H   0  0  0  0  0  0  0  0  0  0  0  0
    2.6760   -0.8130    1.3530 H   0  0  0  0  0  0  0  0  0  0  0  0
   -1.3917    0.5400   -2.3513 C   0  0  0  0  0  0  0  0  0  0  0  0
   -1.3917    0.5400   -0.8326 C   0  0  0  0  0  0  0  0  0  0  0  0
   -1.3917    2.1973   -0.0876 S   0  0  0  0  0  0  0  0  0  0  0  0
   -0.4850    1.0054   -2.7420 H   0  0  0  0  0  0  0  0  0  0  0  0
   -2.2476    1.0912   -2.7414 H   0  0  0  0  0  0  0  0  0  0  0  0
   -1.4347   -0.4834   -2.7315 H   0  0  0  0  0  0  0  0  0  0  0  0
   -0.3797   -0.1394   -0.3585 H   0  0  0  0  0  0  0  0  0  0  0  0
   -2.2993    0.0729   -0.4475 H   0  0  0  0  0  0  0  0  0  0  0  0
   -0.2168    2.5990   -0.5911 H   0  0  0  0  0  0  0  0  0  0  0  0
  1  2  1  0
  1  6  1  0
  1  7  1  0
  1  8  1  0
  2  3  1  0
  2  5  1  0
  3  4  2  3
  3  9  1  0
  4 10  1  0
  4 11  1  0
  5 12  1  0
 13 14  1  0
 13 16  1  0
 13 17  1  0
 13 18  1  0
 14 15  1  0
 14 19  1  0
 14 20  1  0
 15 21  1  0
M  RAD  1   2   2
M  END
>  <reaction>  (13) 
rxn_1894

>  <mol_properties>  (13) 
{"1": {"label": "*1", "atom_type": "Cs"}, "4": {"label": "*0", "atom_type": "S2s"}, "13": {"label": "*3", "atom_type": "Cs"}, "14": {"label": "*4", "atom_type": "S2s"}, "18": {"label": "*2", "atom_type": "H0"}}

>  <type>  (13) 
unop_9

>  <geom_source>  (13) 
Heuristics

$$$$

     RDKit          3D

 21 19  0  0  0  0  0  0  0  0999 V2000
    2.0242   -0.2171   -0.4289 C   0  0  0  0  0  0  0  0  0  0  0  0
    0.7315   -0.8480    0.0613 C   0  0  0  0  0  3  0  0  0  0  0  0
    0.8085   -2.3132    0.3730 C   0  0  0  0  0  0  0  0  0  0  0  0
    1.9042   -3.0570    0.3518 C   0  0  0  0  0  0  0  0  0  0  0  0
    0.0240    0.0493    1.4959 S   0  0  0  0  0  0  0  0  0  0  0  0
    2.8052   -0.2815    0.3311 H   0  0  0  0  0  0  0  0  0  0  0  0
    2.3802   -0.7224   -1.3295 H   0  0  0  0  0  0  0  0  0  0  0  0
    1.8672    0.8353   -0.6597 H   0  0  0  0  0  0  0  0  0  0  0  0
   -0.1373   -2.7664    0.6534 H   0  0  0  0  0  0  0  0  0  0  0  0
    1.8642   -4.1089    0.6037 H   0  0  0  0  0  0  0  0  0  0  0  0
    2.8741   -2.6558    0.0848 H   0  0  0  0  0  0  0  0  0  0  0  0
    0.9683   -0.3167    2.3739 H   0  0  0  0  0  0  0  0  0  0  0  0
   -1.2965    0.5134   -2.4076 C   0  0  0  0  0  0  0  0  0  0  0  0
   -1.2965    0.5134   -0.8889 C   0  0  0  0  0  0  0  0  0  0  0  0
   -1.2965    2.1708   -0.1439 S   0  0  0  0  0  0  0  0  0  0  0  0
   -0.3898    0.9788   -2.7983 H   0  0  0  0  0  0  0  0  0  0  0  0
   -2.1524    1.0646   -2.7977 H   0  0  0  0  0  0  0  0  0  0  0  0
   -1.3395   -0.5099   -2.7879 H   0  0  0  0  0  0  0  0  0  0  0  0
   -0.2845   -0.1659   -0.4148 H   0  0  0  0  0  0  0  0  0  0  0  0
   -2.2041    0.0464   -0.5038 H   0  0  0  0  0  0  0  0  0  0  0  0
   -0.1216    2.5725   -0.6475 H   0  0  0  0  0  0  0  0  0  0  0  0
  1  2  1  0
  1  6  1  0
  1  7  1  0
  1  8  1  0
  2  3  1  0
  2  5  1  0
  3  4  2  3
  3  9  1  0
  4 10  1  0
  4 11  1  0
  5 12  1  0
 13 14  1  0
 13 16  1  0
 13 17  1  0
 13 18  1  0
 14 15  1  0
 14 19  1  0
 14 20  1  0
 15 21  1  0
M  RAD  1   2   2
M  END
>  <reaction>  (14) 
rxn_1894

>  <mol_properties>  (14) 
{"1": {"label": "*1", "atom_type": "Cs"}, "4": {"label": "*0", "atom_type": "S2s"}, "13": {"label": "*3", "atom_type": "Cs"}, "14": {"label": "*4", "atom_type": "S2s"}, "18": {"label": "*2", "atom_type": "H0"}}

>  <type>  (14) 
unop_10

>  <geom_source>  (14) 
Heuristics

$$$$

     RDKit          3D

 21 19  0  0  0  0  0  0  0  0999 V2000
    0.0924   -1.5146    1.6902 C   0  0  0  0  0  0  0  0  0  0  0  0
    0.4845   -0.9125    0.3511 C   0  0  0  0  0  3  0  0  0  0  0  0
    1.1850    0.4120    0.4216 C   0  0  0  0  0  0  0  0  0  0  0  0
    1.5669    1.0326    1.5276 C   0  0  0  0  0  0  0  0  0  0  0  0
    1.4702   -2.0756   -0.6686 S   0  0  0  0  0  0  0  0  0  0  0  0
    0.9732   -1.7175    2.3023 H   0  0  0  0  0  0  0  0  0  0  0  0
   -0.5583   -0.8323    2.2417 H   0  0  0  0  0  0  0  0  0  0  0  0
   -0.4361   -2.4549    1.5414 H   0  0  0  0  0  0  0  0  0  0  0  0
    1.3956    0.8642   -0.5425 H   0  0  0  0  0  0  0  0  0  0  0  0
    2.0786    1.9852    1.4793 H   0  0  0  0  0  0  0  0  0  0  0  0
    1.3872    0.6248    2.5147 H   0  0  0  0  0  0  0  0  0  0  0  0
    2.5735   -2.0330    0.0914 H   0  0  0  0  0  0  0  0  0  0  0  0
   -1.5434    0.4489   -2.1178 C   0  0  0  0  0  0  0  0  0  0  0  0
   -1.5434    0.4489   -0.5991 C   0  0  0  0  0  0  0  0  0  0  0  0
   -1.5434    2.1063    0.1459 S   0  0  0  0  0  0  0  0  0  0  0  0
   -0.6368    0.9143   -2.5085 H   0  0  0  0  0  0  0  0  0  0  0  0
   -2.3994    1.0001   -2.5079 H   0  0  0  0  0  0  0  0  0  0  0  0
   -1.5865   -0.5745   -2.4981 H   0  0  0  0  0  0  0  0  0  0  0  0
   -0.5315   -0.2304   -0.1250 H   0  0  0  0  0  0  0  0  0  0  0  0
   -2.4510   -0.0181   -0.2140 H   0  0  0  0  0  0  0  0  0  0  0  0
   -0.3686    2.5079   -0.3577 H   0  0  0  0  0  0  0  0  0  0  0  0
  1  2  1  0
  1  6  1  0
  1  7  1  0
  1  8  1  0
  2  3  1  0
  2  5  1  0
  3  4  2  3
  3  9  1  0
  4 10  1  0
  4 11  1  0
  5 12  1  0
 13 14  1  0
 13 16  1  0
 13 17  1  0
 13 18  1  0
 14 15  1  0
 14 19  1  0
 14 20  1  0
 15 21  1  0
M  RAD  1   2   2
M  END
>  <reaction>  (15) 
rxn_1894

>  <mol_properties>  (15) 
{"1": {"label": "*1", "atom_type": "Cs"}, "4": {"label": "*0", "atom_type": "S2s"}, "13": {"label": "*3", "atom_type": "Cs"}, "14": {"label": "*4", "atom_type": "S2s"}, "18": {"label": "*2", "atom_type": "H0"}}

>  <type>  (15) 
unop_11

>  <geom_source>  (15) 
Heuristics

$$$$

     RDKit          3D

 21 19  0  0  0  0  0  0  0  0999 V2000
    1.4338   -1.3828   -1.0334 C   0  0  0  0  0  0  0  0  0  0  0  0
    0.6184   -0.8354    0.1263 C   0  0  0  0  0  3  0  0  0  0  0  0
    0.0779   -1.8640    1.0749 C   0  0  0  0  0  0  0  0  0  0  0  0
    0.3304   -3.1637    1.0402 C   0  0  0  0  0  0  0  0  0  0  0  0
    1.5286    0.4497    1.0665 S   0  0  0  0  0  0  0  0  0  0  0  0
    2.3251   -1.9019   -0.6760 H   0  0  0  0  0  0  0  0  0  0  0  0
    0.8401   -2.0864   -1.6213 H   0  0  0  0  0  0  0  0  0  0  0  0
    1.7568   -0.5717   -1.6842 H   0  0  0  0  0  0  0  0  0  0  0  0
   -0.5611   -1.4665    1.8572 H   0  0  0  0  0  0  0  0  0  0  0  0
   -0.0979   -3.8307    1.7771 H   0  0  0  0  0  0  0  0  0  0  0  0
    0.9646   -3.6128    0.2857 H   0  0  0  0  0  0  0  0  0  0  0  0
    2.4295   -0.3809    1.6096 H   0  0  0  0  0  0  0  0  0  0  0  0
   -1.4095    0.5261   -2.3426 C   0  0  0  0  0  0  0  0  0  0  0  0
   -1.4095    0.5261   -0.8239 C   0  0  0  0  0  0  0  0  0  0  0  0
   -1.4095    2.1834   -0.0789 S   0  0  0  0  0  0  0  0  0  0  0  0
   -0.5029    0.9915   -2.7333 H   0  0  0  0  0  0  0  0  0  0  0  0
   -2.2655    1.0773   -2.7327 H   0  0  0  0  0  0  0  0  0  0  0  0
   -1.4526   -0.4973   -2.7228 H   0  0  0  0  0  0  0  0  0  0  0  0
   -0.3976   -0.1533   -0.3498 H   0  0  0  0  0  0  0  0  0  0  0  0
   -2.3171    0.0590   -0.4388 H   0  0  0  0  0  0  0  0  0  0  0  0
   -0.2347    2.5851   -0.5824 H   0  0  0  0  0  0  0  0  0  0  0  0
  1  2  1  0
  1  6  1  0
  1  7  1  0
  1  8  1  0
  2  3  1  0
  2  5  1  0
  3  4  2  3
  3  9  1  0
  4 10  1  0
  4 11  1  0
  5 12  1  0
 13 14  1  0
 13 16  1  0
 13 17  1  0
 13 18  1  0
 14 15  1  0
 14 19  1  0
 14 20  1  0
 15 21  1  0
M  RAD  1   2   2
M  END
>  <reaction>  (16) 
rxn_1894

>  <mol_properties>  (16) 
{"1": {"label": "*1", "atom_type": "Cs"}, "4": {"label": "*0", "atom_type": "S2s"}, "13": {"label": "*3", "atom_type": "Cs"}, "14": {"label": "*4", "atom_type": "S2s"}, "18": {"label": "*2", "atom_type": "H0"}}

>  <type>  (16) 
unop_12

>  <geom_source>  (16) 
Heuristics

$$$$

     RDKit          3D

 21 20  0  0  0  0  0  0  0  0999 V2000
   -1.1577   -1.8618    0.7855 S   0  0  0  0  0  3  0  0  0  0  0  0
    1.2169   -1.4716    0.9665 S   0  0  0  0  0  4  0  0  0  0  0  0
   -0.9648   -0.3253   -0.1781 C   0  0  0  0  0  0  0  0  0  0  0  0
   -1.9028   -0.3491   -1.3838 C   0  0  0  0  0  0  0  0  0  0  0  0
    2.2277    0.7649   -0.2761 C   0  0  0  0  0  0  0  0  0  0  0  0
   -1.2486    0.8653    0.6994 C   0  0  0  0  0  0  0  0  0  0  0  0
    1.6017   -0.5879   -0.5757 C   0  0  0  0  0  0  0  0  0  0  0  0
   -0.4153    1.2135    1.6835 C   0  0  0  0  0  0  0  0  0  0  0  0
    0.2786   -0.2486   -0.6187 H   0  0  0  0  0  0  0  0  0  0  0  0
   -2.9609   -0.4372   -1.0554 H   0  0  0  0  0  0  0  0  0  0  0  0
   -1.6557   -1.2113   -2.0382 H   0  0  0  0  0  0  0  0  0  0  0  0
   -1.7826    0.5824   -1.9770 H   0  0  0  0  0  0  0  0  0  0  0  0
    2.4576    1.2832   -1.2301 H   0  0  0  0  0  0  0  0  0  0  0  0
    3.1684    0.6338    0.2997 H   0  0  0  0  0  0  0  0  0  0  0  0
    1.5202    1.3905    0.3073 H   0  0  0  0  0  0  0  0  0  0  0  0
   -2.1295    1.4765    0.5204 H   0  0  0  0  0  0  0  0  0  0  0  0
    2.3019   -1.1993   -1.1830 H   0  0  0  0  0  0  0  0  0  0  0  0
    0.4835    0.6382    1.8843 H   0  0  0  0  0  0  0  0  0  0  0  0
   -0.6311    2.0829    2.2960 H   0  0  0  0  0  0  0  0  0  0  0  0
   -0.5862   -2.6583   -0.2251 H   0  0  0  0  0  0  0  0  0  0  0  0
    0.1786   -0.5808    1.2988 H   0  0  0  0  0  0  0  0  0  0  0  0
  1  3  1  0
  1  2  1  0
  1 20  1  0
  2  7  2  3
  2 21  1  0
  3  4  1  0
  3  6  1  0
  3  9  1  0
  4 10  1  0
  4 11  1  0
  4 12  1  0
  5  7  1  0
  5 13  1  0
  5 14  1  0
  5 15  1  0
  6  8  2  3
  6 16  1  0
  7 17  1  0
  8 18  1  0
  8 19  1  0
M  RAD  1   1   2
M  END
>  <reaction>  (17) 
rxn_1894

>  <mol_properties>  (17) 
{"1": {"label": "*1", "atom_type": "Cs"}, "4": {"label": "*0", "atom_type": "S2s"}, "13": {"label": "*3", "atom_type": "Cs"}, "14": {"label": "*4", "atom_type": "S2s"}, "18": {"label": "*2", "atom_type": "H0"}}

>  <type>  (17) 
unop_13

>  <geom_source>  (17) 
AutoTST

$$$$
