
     RDKit          3D

 12 12  0  0  0  0  0  0  0  0999 V2000
   -1.2385    0.6248   -0.0199 C   0  0  0  0  0  0  0  0  0  0  0  0
   -0.0779    1.3848   -0.0298 C   0  0  0  0  0  0  0  0  0  0  0  0
    1.1605    0.7600   -0.0100 C   0  0  0  0  0  0  0  0  0  0  0  0
    1.2385   -0.6248    0.0199 C   0  0  0  0  0  0  0  0  0  0  0  0
    0.0779   -1.3848    0.0298 C   0  0  0  0  0  0  0  0  0  0  0  0
   -1.1606   -0.7600    0.0100 C   0  0  0  0  0  0  0  0  0  0  0  0
   -2.2052    1.1125   -0.0354 H   0  0  0  0  0  0  0  0  0  0  0  0
   -0.1387    2.4657   -0.0531 H   0  0  0  0  0  0  0  0  0  0  0  0
    2.0664    1.3532   -0.0177 H   0  0  0  0  0  0  0  0  0  0  0  0
    2.2052   -1.1125    0.0354 H   0  0  0  0  0  0  0  0  0  0  0  0
    0.1387   -2.4657    0.0531 H   0  0  0  0  0  0  0  0  0  0  0  0
   -2.0664   -1.3532    0.0177 H   0  0  0  0  0  0  0  0  0  0  0  0
  1  2  2  0
  1  6  1  0
  1  7  1  0
  2  3  1  0
  2  8  1  0
  3  4  2  0
  3  9  1  0
  4  5  1  0
  4 10  1  0
  5  6  2  0
  5 11  1  0
  6 12  1  0
M  END
>  <reaction>  (1) 
rxn_275

>  <mol_properties>  (1) 
{"0": {"label": "donator", "atom_type": "Cd"}, "6": {"label": "d_hydrogen", "atom_type": "H0"}}

>  <type>  (1) 
r1h

$$$$

     RDKit          3D

  1  0  0  0  0  0  0  0  0  0999 V2000
    0.0000    0.0000    0.0000 H   0  0  0  0  0 15  0  0  0  0  0  0
M  END
>  <reaction>  (2) 
rxn_275

>  <mol_properties>  (2) 
{"0": {"label": "acceptor", "atom_type": "H0"}}

>  <type>  (2) 
r2

$$$$

     RDKit          3D

  2  1  0  0  0  0  0  0  0  0999 V2000
    0.0000    0.0000    0.3721 H   0  0  0  0  0  0  0  0  0  0  0  0
    0.0000    0.0000   -0.3721 H   0  0  0  0  0  0  0  0  0  0  0  0
  1  2  1  0
M  END
>  <reaction>  (3) 
rxn_275

>  <mol_properties>  (3) 
{"0": {"label": "a_hydrogen", "atom_type": "H0"}, "1": {"label": "acceptor", "atom_type": "H0"}}

>  <type>  (3) 
r2h

$$$$

     RDKit          3D

 13 12  0  0  0  0  0  0  0  0999 V2000
    0.9578    0.0038   -0.3962 C   0  0  0  0  0  0  0  0  0  0  0  0
    0.3529    1.2149   -0.1615 C   0  0  0  0  0  0  0  0  0  0  0  0
   -0.9328    1.2016    0.3704 C   0  0  0  0  0  0  0  0  0  0  0  0
   -1.5596   -0.0062    0.6450 C   0  0  0  0  0  0  0  0  0  0  0  0
   -0.9137   -1.2089    0.3933 C   0  0  0  0  0  0  0  0  0  0  0  0
    0.3722   -1.2120   -0.1384 C   0  0  0  0  0  0  0  0  0  0  0  0
    2.2957    0.0092   -0.9495 H   0  0  0  0  0  0  0  0  0  0  0  0
    0.8558    2.1486   -0.3814 H   0  0  0  0  0  0  0  0  0  0  0  0
   -1.4434    2.1358    0.5696 H   0  0  0  0  0  0  0  0  0  0  0  0
   -2.5599   -0.0102    1.0588 H   0  0  0  0  0  0  0  0  0  0  0  0
   -1.4095   -2.1472    0.6104 H   0  0  0  0  0  0  0  0  0  0  0  0
    0.8898   -2.1416   -0.3406 H   0  0  0  0  0  0  0  0  0  0  0  0
    3.0946    0.0124   -1.2799 H   0  0  0  0  0 15  0  0  0  0  0  0
  1  2  2  0
  1  6  1  0
  1  7  1  0
  2  3  1  0
  2  8  1  0
  3  4  2  0
  3  9  1  0
  4  5  1  0
  4 10  1  0
  5  6  2  0
  5 11  1  0
  6 12  1  0
M  END
>  <reaction>  (4) 
rxn_275

>  <mol_properties>  (4) 
{"0": {"label": "*3", "atom_type": "Cd"}, "1": {"label": "*4", "atom_type": "Cd"}, "6": {"label": "*2", "atom_type": "H0"}, "12": {"label": "*1", "atom_type": "H0"}}

>  <type>  (4) 
ts

$$$$

     RDKit          3D

 13 12  0  0  0  0  0  0  0  0999 V2000
   -0.0000   -1.2014   -0.7420 C   0  0  0  0  0  0  0  0  0  0  0  0
   -0.0000   -1.2014    0.6453 C   0  0  0  0  0  0  0  0  0  0  0  0
    0.0000    0.0000    1.3389 C   0  0  0  0  0  0  0  0  0  0  0  0
    0.0000    1.2015    0.6452 C   0  0  0  0  0  0  0  0  0  0  0  0
    0.0000    1.2014   -0.7421 C   0  0  0  0  0  0  0  0  0  0  0  0
   -0.0000   -0.0000   -1.4357 C   0  0  0  0  0  0  0  0  0  0  0  0
   -0.0000   -2.1392   -1.2834 H   0  0  0  0  0  0  0  0  0  0  0  0
   -0.0000   -2.1392    1.1867 H   0  0  0  0  0  0  0  0  0  0  0  0
    0.0000    0.0000    2.6383 H   0  0  0  0  0  0  0  0  0  0  0  0
    0.0000    2.1392    1.1867 H   0  0  0  0  0  0  0  0  0  0  0  0
    0.0000    2.1392   -1.2835 H   0  0  0  0  0  0  0  0  0  0  0  0
   -0.0000   -0.0000   -2.5186 H   0  0  0  0  0  0  0  0  0  0  0  0
    0.0000    0.0001    3.5313 H   0  0  0  0  0 15  0  0  0  0  0  0
  1  2  2  0
  1  6  1  0
  1  7  1  0
  2  3  1  0
  2  8  1  0
  3  4  2  0
  3  9  1  0
  4  5  1  0
  4 10  1  0
  5  6  2  0
  5 11  1  0
  6 12  1  0
M  END
>  <reaction>  (5) 
rxn_275

>  <mol_properties>  (5) 
{"0": {"label": "*3", "atom_type": "Cd"}, "1": {"label": "*4", "atom_type": "Cd"}, "6": {"label": "*2", "atom_type": "H0"}, "12": {"label": "*1", "atom_type": "H0"}}

>  <type>  (5) 
unop_1

>  <geom_source>  (5) 
Heuristics

$$$$

     RDKit          3D

 13 10  0  0  0  0  0  0  0  0999 V2000
    1.1217    1.0108   -0.2239 C   0  0  0  0  0  0  0  0  0  0  0  0
   -0.1648    1.5537   -0.1331 C   0  0  0  0  0  0  0  0  0  0  0  0
    1.2937   -0.3771   -0.2663 C   0  0  0  0  0  3  0  0  0  0  0  0
   -1.2785    0.7083   -0.0849 C   0  0  0  0  0  0  0  0  0  0  0  0
    0.1791   -1.2215   -0.2181 C   0  0  0  0  0  1  0  0  0  0  0  0
   -1.1060   -0.6785   -0.1274 C   0  0  0  0  0  2  0  0  0  0  0  0
   -0.2983    2.6273   -0.1002 H   0  0  0  0  0  0  0  0  0  0  0  0
    1.9836    1.6644   -0.2611 H   0  0  0  0  0  0  0  0  0  0  0  0
    2.2886   -0.7974   -0.3365 H   0  0  0  0  0  0  0  0  0  0  0  0
   -2.2746    1.1246   -0.0148 H   0  0  0  0  0  0  0  0  0  0  0  0
    0.3084   -2.2951   -0.2507 H   0  0  0  0  0  0  0  0  0  0  0  0
   -1.2377   -2.0965    1.5008 H   0  0  0  0  0 15  0  0  0  0  0  0
   -0.8153   -1.2230    0.5164 H   0  0  0  0  0  0  0  0  0  0  0  0
  1  3  2  3
  1  2  1  0
  1  8  1  0
  2  4  2  3
  2  7  1  0
  3  9  1  0
  4  6  1  0
  4 10  1  0
  5 11  1  0
  6 13  1  0
M  CHG  2   3  -1   6   1
M  RAD  2   5   2   6   2
M  END
>  <reaction>  (6) 
rxn_275

>  <mol_properties>  (6) 
{"0": {"label": "*3", "atom_type": "Cd"}, "1": {"label": "*4", "atom_type": "Cd"}, "6": {"label": "*2", "atom_type": "H0"}, "12": {"label": "*1", "atom_type": "H0"}}

>  <type>  (6) 
unop_2

>  <geom_source>  (6) 
AutoTST

$$$$
