
     RDKit          3D

  5  4  0  0  0  0  0  0  0  0999 V2000
    0.0000    0.0000    0.0000 C   0  0  0  0  0  0  0  0  0  0  0  0
   -0.6486   -0.7720   -0.4113 H   0  0  0  0  0  0  0  0  0  0  0  0
   -0.3482    0.9787   -0.3267 H   0  0  0  0  0  0  0  0  0  0  0  0
   -0.0223   -0.0487    1.0876 H   0  0  0  0  0  0  0  0  0  0  0  0
    1.0191   -0.1580   -0.3496 H   0  0  0  0  0  0  0  0  0  0  0  0
  1  2  1  0
  1  3  1  0
  1  4  1  0
  1  5  1  0
M  END
>  <reaction>  (1) 
rxn_867

>  <mol_properties>  (1) 
{"0": {"label": "donator", "atom_type": "Cs"}, "1": {"label": "d_hydrogen", "atom_type": "H0"}}

>  <type>  (1) 
r1h

$$$$

     RDKit          3D

  5  4  0  0  0  0  0  0  0  0999 V2000
    2.6313   -0.6927   -0.0580 S   0  0  0  0  0  0  0  0  0  0  0  0
    1.1355   -0.3280    0.0800 C   0  0  0  0  0  3  0  0  0  0  0  0
   -0.1319    0.0264    0.1833 C   0  0  0  0  0  0  0  0  0  0  0  0
   -1.3116    0.3364    0.2853 C   0  0  0  0  0  0  0  0  0  0  0  0
   -2.3233    0.6579    0.3561 H   0  0  0  0  0  0  0  0  0  0  0  0
  1  2  2  0
  2  3  1  0
  3  4  3  0
  4  5  1  0
M  RAD  1   2   2
M  END
>  <reaction>  (2) 
rxn_867

>  <mol_properties>  (2) 
{"1": {"label": "acceptor", "atom_type": "CS"}}

>  <type>  (2) 
r2

$$$$

     RDKit          3D

  6  5  0  0  0  0  0  0  0  0999 V2000
   -1.9761    1.0978   -0.6585 S   0  0  0  0  0  0  0  0  0  0  0  0
   -1.0502    0.0275    0.1158 C   0  0  0  0  0  0  0  0  0  0  0  0
    0.3587   -0.0566   -0.0000 C   0  0  0  0  0  0  0  0  0  0  0  0
    1.5530   -0.1477   -0.0815 C   0  0  0  0  0  0  0  0  0  0  0  0
   -1.4972   -0.7045    0.7881 H   0  0  0  0  0  0  0  0  0  0  0  0
    2.6118   -0.2165   -0.1639 H   0  0  0  0  0  0  0  0  0  0  0  0
  1  2  2  0
  2  3  1  0
  2  5  1  0
  3  4  3  0
  4  6  1  0
M  END
>  <reaction>  (3) 
rxn_867

>  <mol_properties>  (3) 
{"1": {"label": "acceptor", "atom_type": "CS"}, "5": {"label": "a_hydrogen", "atom_type": "H0"}}

>  <type>  (3) 
r2h

$$$$

     RDKit          3D

 10  8  0  0  0  0  0  0  0  0999 V2000
   -1.3496    0.6098    0.5921 S   0  0  0  0  0  0  0  0  0  0  0  0
   -0.0090   -0.0506    0.0263 C   0  0  0  0  0  0  0  0  0  0  0  0
    1.3079    0.4265    0.0809 C   0  0  0  0  0  0  0  0  0  0  0  0
    2.4640    0.7588    0.0818 C   0  0  0  0  0  0  0  0  0  0  0  0
    3.4795    1.0767    0.0968 H   0  0  0  0  0  0  0  0  0  0  0  0
   -0.2137   -2.4424   -1.2386 C   0  0  0  0  0  3  0  0  0  0  0  0
   -0.0821   -1.1615   -0.5646 H   0  0  0  0  0  0  0  0  0  0  0  0
    0.4030   -3.1068   -0.6431 H   0  0  0  0  0  0  0  0  0  0  0  0
   -1.2833   -2.6042   -1.1604 H   0  0  0  0  0  0  0  0  0  0  0  0
    0.1556   -2.2419   -2.2385 H   0  0  0  0  0  0  0  0  0  0  0  0
  1  2  2  0
  2  3  1  0
  2  7  1  0
  3  4  3  0
  4  5  1  0
  6  8  1  0
  6  9  1  0
  6 10  1  0
M  RAD  1   6   2
M  END
>  <reaction>  (4) 
rxn_867

>  <mol_properties>  (4) 
{"0": {"label": "*0", "atom_type": "S2d"}, "1": {"label": "*1", "atom_type": "CS"}, "5": {"label": "*3", "atom_type": "Cs"}, "6": {"label": "*2", "atom_type": "H0"}, "7": {"label": "*4", "atom_type": "H0"}}

>  <type>  (4) 
ts

$$$$

     RDKit          3D

 10  8  0  0  0  0  0  0  0  0999 V2000
   -1.3478    0.6987    0.6409 S   0  0  0  0  0  0  0  0  0  0  0  0
   -0.1431    0.1604   -0.2871 C   0  0  0  0  0  3  0  0  0  0  0  0
    1.2322    0.3956   -0.0443 C   0  0  0  0  0  0  0  0  0  0  0  0
    2.4038    0.5814    0.1402 C   0  0  0  0  0  0  0  0  0  0  0  0
    3.4424    0.7461    0.3037 H   0  0  0  0  0  0  0  0  0  0  0  0
   -0.1431   -2.3046   -1.1586 C   0  0  0  0  0  0  0  0  0  0  0  0
   -0.1431   -1.0726   -0.7231 H   0  0  0  0  0  0  0  0  0  0  0  0
    0.7460   -2.8179   -0.7957 H   0  0  0  0  0  0  0  0  0  0  0  0
   -1.0322   -2.8179   -0.7957 H   0  0  0  0  0  0  0  0  0  0  0  0
   -0.1431   -2.3046   -2.2476 H   0  0  0  0  0  0  0  0  0  0  0  0
  1  2  2  0
  2  3  1  0
  3  4  3  0
  4  5  1  0
  6  7  1  0
  6  8  1  0
  6  9  1  0
  6 10  1  0
M  RAD  1   2   2
M  END
>  <reaction>  (5) 
rxn_867

>  <mol_properties>  (5) 
{"0": {"label": "*0", "atom_type": "S2d"}, "1": {"label": "*1", "atom_type": "CS"}, "5": {"label": "*3", "atom_type": "Cs"}, "6": {"label": "*2", "atom_type": "H0"}, "7": {"label": "*4", "atom_type": "H0"}}

>  <type>  (5) 
unop_1

>  <geom_source>  (5) 
Heuristics

$$$$

     RDKit          3D

 10  8  0  0  0  0  0  0  0  0999 V2000
   -0.5753    1.1576   -0.9705 S   0  0  0  0  0  0  0  0  0  0  0  0
    0.1203   -0.0141   -0.1071 C   0  0  0  0  0  3  0  0  0  0  0  0
    0.4432    0.0779    1.2688 C   0  0  0  0  0  0  0  0  0  0  0  0
    0.7265    0.1317    2.4341 C   0  0  0  0  0  0  0  0  0  0  0  0
    0.9775    0.1795    3.4673 H   0  0  0  0  0  0  0  0  0  0  0  0
    0.1203   -2.4791   -0.9786 C   0  0  0  0  0  0  0  0  0  0  0  0
    0.1203   -1.2471   -0.5430 H   0  0  0  0  0  0  0  0  0  0  0  0
    1.0094   -2.9925   -0.6156 H   0  0  0  0  0  0  0  0  0  0  0  0
   -0.7689   -2.9925   -0.6156 H   0  0  0  0  0  0  0  0  0  0  0  0
    0.1203   -2.4791   -2.0675 H   0  0  0  0  0  0  0  0  0  0  0  0
  1  2  2  0
  2  3  1  0
  3  4  3  0
  4  5  1  0
  6  7  1  0
  6  8  1  0
  6  9  1  0
  6 10  1  0
M  RAD  1   2   2
M  END
>  <reaction>  (6) 
rxn_867

>  <mol_properties>  (6) 
{"0": {"label": "*0", "atom_type": "S2d"}, "1": {"label": "*1", "atom_type": "CS"}, "5": {"label": "*3", "atom_type": "Cs"}, "6": {"label": "*2", "atom_type": "H0"}, "7": {"label": "*4", "atom_type": "H0"}}

>  <type>  (6) 
unop_2

>  <geom_source>  (6) 
Heuristics

$$$$

     RDKit          3D

 10  8  0  0  0  0  0  0  0  0999 V2000
   -0.9436    0.4335    1.2631 S   0  0  0  0  0  0  0  0  0  0  0  0
   -0.2481    0.0649   -0.1450 C   0  0  0  0  0  3  0  0  0  0  0  0
    0.9301    0.6688   -0.6478 C   0  0  0  0  0  0  0  0  0  0  0  0
    1.9272    1.1657   -1.0951 C   0  0  0  0  0  0  0  0  0  0  0  0
    2.8112    1.6062   -1.4916 H   0  0  0  0  0  0  0  0  0  0  0  0
   -0.2481   -2.4001   -1.0165 C   0  0  0  0  0  0  0  0  0  0  0  0
   -0.2481   -1.1681   -0.5810 H   0  0  0  0  0  0  0  0  0  0  0  0
    0.6410   -2.9135   -0.6536 H   0  0  0  0  0  0  0  0  0  0  0  0
   -1.1372   -2.9135   -0.6536 H   0  0  0  0  0  0  0  0  0  0  0  0
   -0.2481   -2.4001   -2.1055 H   0  0  0  0  0  0  0  0  0  0  0  0
  1  2  2  0
  2  3  1  0
  3  4  3  0
  4  5  1  0
  6  7  1  0
  6  8  1  0
  6  9  1  0
  6 10  1  0
M  RAD  1   2   2
M  END
>  <reaction>  (7) 
rxn_867

>  <mol_properties>  (7) 
{"0": {"label": "*0", "atom_type": "S2d"}, "1": {"label": "*1", "atom_type": "CS"}, "5": {"label": "*3", "atom_type": "Cs"}, "6": {"label": "*2", "atom_type": "H0"}, "7": {"label": "*4", "atom_type": "H0"}}

>  <type>  (7) 
unop_3

>  <geom_source>  (7) 
Heuristics

$$$$

     RDKit          3D

 10  8  0  0  0  0  0  0  0  0999 V2000
    1.0686    1.0749   -0.6001 S   0  0  0  0  0  0  0  0  0  0  0  0
   -0.1361    0.0729   -0.2167 C   0  0  0  0  0  3  0  0  0  0  0  0
   -0.8632    0.1097    0.9981 C   0  0  0  0  0  0  0  0  0  0  0  0
   -1.4937    0.1209    2.0196 C   0  0  0  0  0  0  0  0  0  0  0  0
   -2.0527    0.1307    2.9252 H   0  0  0  0  0  0  0  0  0  0  0  0
   -0.1361   -2.3921   -1.0882 C   0  0  0  0  0  0  0  0  0  0  0  0
   -0.1361   -1.1601   -0.6526 H   0  0  0  0  0  0  0  0  0  0  0  0
    0.7530   -2.9054   -0.7252 H   0  0  0  0  0  0  0  0  0  0  0  0
   -1.0252   -2.9054   -0.7252 H   0  0  0  0  0  0  0  0  0  0  0  0
   -0.1361   -2.3921   -2.1771 H   0  0  0  0  0  0  0  0  0  0  0  0
  1  2  2  0
  2  3  1  0
  3  4  3  0
  4  5  1  0
  6  7  1  0
  6  8  1  0
  6  9  1  0
  6 10  1  0
M  RAD  1   2   2
M  END
>  <reaction>  (8) 
rxn_867

>  <mol_properties>  (8) 
{"0": {"label": "*0", "atom_type": "S2d"}, "1": {"label": "*1", "atom_type": "CS"}, "5": {"label": "*3", "atom_type": "Cs"}, "6": {"label": "*2", "atom_type": "H0"}, "7": {"label": "*4", "atom_type": "H0"}}

>  <type>  (8) 
unop_4

>  <geom_source>  (8) 
Heuristics

$$$$

     RDKit          3D

 10  8  0  0  0  0  0  0  0  0999 V2000
    0.0000    0.2293    1.5938 S   0  0  0  0  0  0  0  0  0  0  0  0
    0.0000   -0.0772    0.0100 C   0  0  0  0  0  3  0  0  0  0  0  0
   -0.0000    0.9104   -1.0050 C   0  0  0  0  0  0  0  0  0  0  0  0
   -0.0000    1.7289   -1.8832 C   0  0  0  0  0  0  0  0  0  0  0  0
   -0.0000    2.4544   -2.6618 H   0  0  0  0  0  0  0  0  0  0  0  0
    0.0000   -2.5422   -0.8615 C   0  0  0  0  0  0  0  0  0  0  0  0
    0.0000   -1.3102   -0.4259 H   0  0  0  0  0  0  0  0  0  0  0  0
    0.8891   -3.0555   -0.4985 H   0  0  0  0  0  0  0  0  0  0  0  0
   -0.8891   -3.0555   -0.4985 H   0  0  0  0  0  0  0  0  0  0  0  0
    0.0000   -2.5422   -1.9504 H   0  0  0  0  0  0  0  0  0  0  0  0
  1  2  2  0
  2  3  1  0
  3  4  3  0
  4  5  1  0
  6  7  1  0
  6  8  1  0
  6  9  1  0
  6 10  1  0
M  RAD  1   2   2
M  END
>  <reaction>  (9) 
rxn_867

>  <mol_properties>  (9) 
{"0": {"label": "*0", "atom_type": "S2d"}, "1": {"label": "*1", "atom_type": "CS"}, "5": {"label": "*3", "atom_type": "Cs"}, "6": {"label": "*2", "atom_type": "H0"}, "7": {"label": "*4", "atom_type": "H0"}}

>  <type>  (9) 
unop_5

>  <geom_source>  (9) 
Heuristics

$$$$

     RDKit          3D

 10  8  0  0  0  0  0  0  0  0999 V2000
    1.3624    0.9179   -0.0278 S   0  0  0  0  0  0  0  0  0  0  0  0
   -0.0286    0.1477   -0.3001 C   0  0  0  0  0  3  0  0  0  0  0  0
   -1.1666    0.2116    0.5405 C   0  0  0  0  0  0  0  0  0  0  0  0
   -2.1437    0.2498    1.2370 C   0  0  0  0  0  0  0  0  0  0  0  0
   -3.0099    0.2837    1.8543 H   0  0  0  0  0  0  0  0  0  0  0  0
   -0.0286   -2.3173   -1.1716 C   0  0  0  0  0  0  0  0  0  0  0  0
   -0.0286   -1.0853   -0.7360 H   0  0  0  0  0  0  0  0  0  0  0  0
    0.8605   -2.8306   -0.8086 H   0  0  0  0  0  0  0  0  0  0  0  0
   -0.9177   -2.8306   -0.8086 H   0  0  0  0  0  0  0  0  0  0  0  0
   -0.0286   -2.3173   -2.2605 H   0  0  0  0  0  0  0  0  0  0  0  0
  1  2  2  0
  2  3  1  0
  3  4  3  0
  4  5  1  0
  6  7  1  0
  6  8  1  0
  6  9  1  0
  6 10  1  0
M  RAD  1   2   2
M  END
>  <reaction>  (10) 
rxn_867

>  <mol_properties>  (10) 
{"0": {"label": "*0", "atom_type": "S2d"}, "1": {"label": "*1", "atom_type": "CS"}, "5": {"label": "*3", "atom_type": "Cs"}, "6": {"label": "*2", "atom_type": "H0"}, "7": {"label": "*4", "atom_type": "H0"}}

>  <type>  (10) 
unop_6

>  <geom_source>  (10) 
Heuristics

$$$$

     RDKit          3D

 10  8  0  0  0  0  0  0  0  0999 V2000
    1.3478    0.6987    0.6409 S   0  0  0  0  0  0  0  0  0  0  0  0
    0.1431    0.1604   -0.2871 C   0  0  0  0  0  3  0  0  0  0  0  0
   -1.2322    0.3956   -0.0443 C   0  0  0  0  0  0  0  0  0  0  0  0
   -2.4038    0.5814    0.1402 C   0  0  0  0  0  0  0  0  0  0  0  0
   -3.4424    0.7461    0.3037 H   0  0  0  0  0  0  0  0  0  0  0  0
    0.1431   -2.3046   -1.1586 C   0  0  0  0  0  0  0  0  0  0  0  0
    0.1431   -1.0726   -0.7231 H   0  0  0  0  0  0  0  0  0  0  0  0
    1.0322   -2.8179   -0.7957 H   0  0  0  0  0  0  0  0  0  0  0  0
   -0.7460   -2.8179   -0.7957 H   0  0  0  0  0  0  0  0  0  0  0  0
    0.1431   -2.3046   -2.2476 H   0  0  0  0  0  0  0  0  0  0  0  0
  1  2  2  0
  2  3  1  0
  3  4  3  0
  4  5  1  0
  6  7  1  0
  6  8  1  0
  6  9  1  0
  6 10  1  0
M  RAD  1   2   2
M  END
>  <reaction>  (11) 
rxn_867

>  <mol_properties>  (11) 
{"0": {"label": "*0", "atom_type": "S2d"}, "1": {"label": "*1", "atom_type": "CS"}, "5": {"label": "*3", "atom_type": "Cs"}, "6": {"label": "*2", "atom_type": "H0"}, "7": {"label": "*4", "atom_type": "H0"}}

>  <type>  (11) 
unop_7

>  <geom_source>  (11) 
Heuristics

$$$$

     RDKit          3D

 10  8  0  0  0  0  0  0  0  0999 V2000
   -1.3624    0.9179   -0.0278 S   0  0  0  0  0  0  0  0  0  0  0  0
    0.0286    0.1477   -0.3001 C   0  0  0  0  0  3  0  0  0  0  0  0
    1.1666    0.2116    0.5405 C   0  0  0  0  0  0  0  0  0  0  0  0
    2.1437    0.2498    1.2370 C   0  0  0  0  0  0  0  0  0  0  0  0
    3.0099    0.2837    1.8543 H   0  0  0  0  0  0  0  0  0  0  0  0
    0.0286   -2.3173   -1.1716 C   0  0  0  0  0  0  0  0  0  0  0  0
    0.0286   -1.0853   -0.7360 H   0  0  0  0  0  0  0  0  0  0  0  0
    0.9177   -2.8306   -0.8086 H   0  0  0  0  0  0  0  0  0  0  0  0
   -0.8605   -2.8306   -0.8086 H   0  0  0  0  0  0  0  0  0  0  0  0
    0.0286   -2.3173   -2.2605 H   0  0  0  0  0  0  0  0  0  0  0  0
  1  2  2  0
  2  3  1  0
  3  4  3  0
  4  5  1  0
  6  7  1  0
  6  8  1  0
  6  9  1  0
  6 10  1  0
M  RAD  1   2   2
M  END
>  <reaction>  (12) 
rxn_867

>  <mol_properties>  (12) 
{"0": {"label": "*0", "atom_type": "S2d"}, "1": {"label": "*1", "atom_type": "CS"}, "5": {"label": "*3", "atom_type": "Cs"}, "6": {"label": "*2", "atom_type": "H0"}, "7": {"label": "*4", "atom_type": "H0"}}

>  <type>  (12) 
unop_8

>  <geom_source>  (12) 
Heuristics

$$$$

     RDKit          3D

 10  8  0  0  0  0  0  0  0  0999 V2000
    0.5753    1.1576   -0.9705 S   0  0  0  0  0  0  0  0  0  0  0  0
   -0.1203   -0.0141   -0.1071 C   0  0  0  0  0  3  0  0  0  0  0  0
   -0.4432    0.0779    1.2688 C   0  0  0  0  0  0  0  0  0  0  0  0
   -0.7265    0.1317    2.4341 C   0  0  0  0  0  0  0  0  0  0  0  0
   -0.9775    0.1795    3.4673 H   0  0  0  0  0  0  0  0  0  0  0  0
   -0.1203   -2.4791   -0.9786 C   0  0  0  0  0  0  0  0  0  0  0  0
   -0.1203   -1.2471   -0.5430 H   0  0  0  0  0  0  0  0  0  0  0  0
    0.7689   -2.9925   -0.6156 H   0  0  0  0  0  0  0  0  0  0  0  0
   -1.0094   -2.9925   -0.6156 H   0  0  0  0  0  0  0  0  0  0  0  0
   -0.1203   -2.4791   -2.0675 H   0  0  0  0  0  0  0  0  0  0  0  0
  1  2  2  0
  2  3  1  0
  3  4  3  0
  4  5  1  0
  6  7  1  0
  6  8  1  0
  6  9  1  0
  6 10  1  0
M  RAD  1   2   2
M  END
>  <reaction>  (13) 
rxn_867

>  <mol_properties>  (13) 
{"0": {"label": "*0", "atom_type": "S2d"}, "1": {"label": "*1", "atom_type": "CS"}, "5": {"label": "*3", "atom_type": "Cs"}, "6": {"label": "*2", "atom_type": "H0"}, "7": {"label": "*4", "atom_type": "H0"}}

>  <type>  (13) 
unop_9

>  <geom_source>  (13) 
Heuristics

$$$$

     RDKit          3D

 10  8  0  0  0  0  0  0  0  0999 V2000
   -1.0686    1.0749   -0.6001 S   0  0  0  0  0  0  0  0  0  0  0  0
    0.1361    0.0729   -0.2167 C   0  0  0  0  0  3  0  0  0  0  0  0
    0.8632    0.1097    0.9981 C   0  0  0  0  0  0  0  0  0  0  0  0
    1.4937    0.1209    2.0196 C   0  0  0  0  0  0  0  0  0  0  0  0
    2.0527    0.1307    2.9252 H   0  0  0  0  0  0  0  0  0  0  0  0
    0.1361   -2.3921   -1.0882 C   0  0  0  0  0  0  0  0  0  0  0  0
    0.1361   -1.1601   -0.6526 H   0  0  0  0  0  0  0  0  0  0  0  0
    1.0252   -2.9054   -0.7252 H   0  0  0  0  0  0  0  0  0  0  0  0
   -0.7530   -2.9054   -0.7252 H   0  0  0  0  0  0  0  0  0  0  0  0
    0.1361   -2.3921   -2.1771 H   0  0  0  0  0  0  0  0  0  0  0  0
  1  2  2  0
  2  3  1  0
  3  4  3  0
  4  5  1  0
  6  7  1  0
  6  8  1  0
  6  9  1  0
  6 10  1  0
M  RAD  1   2   2
M  END
>  <reaction>  (14) 
rxn_867

>  <mol_properties>  (14) 
{"0": {"label": "*0", "atom_type": "S2d"}, "1": {"label": "*1", "atom_type": "CS"}, "5": {"label": "*3", "atom_type": "Cs"}, "6": {"label": "*2", "atom_type": "H0"}, "7": {"label": "*4", "atom_type": "H0"}}

>  <type>  (14) 
unop_10

>  <geom_source>  (14) 
Heuristics

$$$$

     RDKit          3D

 10  8  0  0  0  0  0  0  0  0999 V2000
    0.9436    0.4335    1.2631 S   0  0  0  0  0  0  0  0  0  0  0  0
    0.2481    0.0649   -0.1450 C   0  0  0  0  0  3  0  0  0  0  0  0
   -0.9301    0.6688   -0.6478 C   0  0  0  0  0  0  0  0  0  0  0  0
   -1.9272    1.1657   -1.0951 C   0  0  0  0  0  0  0  0  0  0  0  0
   -2.8112    1.6062   -1.4916 H   0  0  0  0  0  0  0  0  0  0  0  0
    0.2481   -2.4001   -1.0165 C   0  0  0  0  0  0  0  0  0  0  0  0
    0.2481   -1.1681   -0.5810 H   0  0  0  0  0  0  0  0  0  0  0  0
    1.1372   -2.9135   -0.6536 H   0  0  0  0  0  0  0  0  0  0  0  0
   -0.6410   -2.9135   -0.6536 H   0  0  0  0  0  0  0  0  0  0  0  0
    0.2481   -2.4001   -2.1055 H   0  0  0  0  0  0  0  0  0  0  0  0
  1  2  2  0
  2  3  1  0
  3  4  3  0
  4  5  1  0
  6  7  1  0
  6  8  1  0
  6  9  1  0
  6 10  1  0
M  RAD  1   2   2
M  END
>  <reaction>  (15) 
rxn_867

>  <mol_properties>  (15) 
{"0": {"label": "*0", "atom_type": "S2d"}, "1": {"label": "*1", "atom_type": "CS"}, "5": {"label": "*3", "atom_type": "Cs"}, "6": {"label": "*2", "atom_type": "H0"}, "7": {"label": "*4", "atom_type": "H0"}}

>  <type>  (15) 
unop_11

>  <geom_source>  (15) 
Heuristics

$$$$

     RDKit          3D

 10  8  0  0  0  0  0  0  0  0999 V2000
   -0.0000    1.1801   -1.0955 S   0  0  0  0  0  0  0  0  0  0  0  0
   -0.0000   -0.0538   -0.0563 C   0  0  0  0  0  3  0  0  0  0  0  0
    0.0000    0.0764    1.3539 C   0  0  0  0  0  0  0  0  0  0  0  0
    0.0000    0.1610    2.5514 C   0  0  0  0  0  0  0  0  0  0  0  0
    0.0000    0.2359    3.6130 H   0  0  0  0  0  0  0  0  0  0  0  0
   -0.0000   -2.5187   -0.9279 C   0  0  0  0  0  0  0  0  0  0  0  0
   -0.0000   -1.2868   -0.4923 H   0  0  0  0  0  0  0  0  0  0  0  0
    0.8891   -3.0321   -0.5649 H   0  0  0  0  0  0  0  0  0  0  0  0
   -0.8891   -3.0321   -0.5649 H   0  0  0  0  0  0  0  0  0  0  0  0
   -0.0000   -2.5187   -2.0168 H   0  0  0  0  0  0  0  0  0  0  0  0
  1  2  2  0
  2  3  1  0
  3  4  3  0
  4  5  1  0
  6  7  1  0
  6  8  1  0
  6  9  1  0
  6 10  1  0
M  RAD  1   2   2
M  END
>  <reaction>  (16) 
rxn_867

>  <mol_properties>  (16) 
{"0": {"label": "*0", "atom_type": "S2d"}, "1": {"label": "*1", "atom_type": "CS"}, "5": {"label": "*3", "atom_type": "Cs"}, "6": {"label": "*2", "atom_type": "H0"}, "7": {"label": "*4", "atom_type": "H0"}}

>  <type>  (16) 
unop_12

>  <geom_source>  (16) 
Heuristics

$$$$

     RDKit          3D

 10  8  0  0  0  0  0  0  0  0999 V2000
    0.8004    2.4319   -0.0297 S   0  0  0  0  0  0  0  0  0  0  0  0
    0.5795    0.8162   -0.1051 C   0  0  0  0  0  3  0  0  0  0  0  0
   -1.7682   -0.2530   -0.4247 C   0  0  0  0  0  0  0  0  0  0  0  0
    1.6154   -0.0724    0.3385 C   0  0  0  0  0  0  0  0  0  0  0  0
    2.4849   -0.8197    0.7109 C   0  0  0  0  0  0  0  0  0  0  0  0
   -0.6150    0.2995   -0.6002 H   0  0  0  0  0  0  0  0  0  0  0  0
   -2.3215    0.7085   -0.4361 H   0  0  0  0  0  0  0  0  0  0  0  0
   -2.2704   -0.9766   -1.0992 H   0  0  0  0  0  0  0  0  0  0  0  0
   -1.7534   -0.6588    0.6077 H   0  0  0  0  0  0  0  0  0  0  0  0
    3.2483   -1.4757    1.0378 H   0  0  0  0  0  0  0  0  0  0  0  0
  1  2  2  0
  2  4  1  0
  3  6  1  0
  3  7  1  0
  3  8  1  0
  3  9  1  0
  4  5  3  0
  5 10  1  0
M  RAD  1   2   2
M  END
>  <reaction>  (17) 
rxn_867

>  <mol_properties>  (17) 
{"0": {"label": "*0", "atom_type": "S2d"}, "1": {"label": "*1", "atom_type": "CS"}, "5": {"label": "*3", "atom_type": "Cs"}, "6": {"label": "*2", "atom_type": "H0"}, "7": {"label": "*4", "atom_type": "H0"}}

>  <type>  (17) 
unop_13

>  <geom_source>  (17) 
AutoTST

$$$$
