
     RDKit          3D

  9  8  0  0  0  0  0  0  0  0999 V2000
    1.1303   -0.2933   -0.7510 C   0  0  0  0  0  0  0  0  0  0  0  0
    0.2866    0.4560   -0.0588 C   0  0  0  0  0  0  0  0  0  0  0  0
   -0.9719   -0.0331    0.5823 C   0  0  0  0  0  0  0  0  0  0  0  0
    2.0274    0.1230   -1.1916 H   0  0  0  0  0  0  0  0  0  0  0  0
    0.9532   -1.3530   -0.9023 H   0  0  0  0  0  0  0  0  0  0  0  0
    0.5065    1.5132    0.0659 H   0  0  0  0  0  0  0  0  0  0  0  0
   -0.9526    0.1426    1.6610 H   0  0  0  0  0  0  0  0  0  0  0  0
   -1.1182   -1.1002    0.4106 H   0  0  0  0  0  0  0  0  0  0  0  0
   -1.8412    0.5010    0.1901 H   0  0  0  0  0  0  0  0  0  0  0  0
  1  2  2  3
  1  4  1  0
  1  5  1  0
  2  3  1  0
  2  6  1  0
  3  7  1  0
  3  8  1  0
  3  9  1  0
M  END
>  <reaction>  (1) 
rxn_739

>  <mol_properties>  (1) 
{"2": {"label": "donator", "atom_type": "Cs"}, "6": {"label": "d_hydrogen", "atom_type": "H0"}}

>  <type>  (1) 
r1h

$$$$

     RDKit          3D

 24 25  0  0  0  0  0  0  0  0999 V2000
   -1.3137    1.2076    0.0526 C   0  0  0  0  0  3  0  0  0  0  0  0
   -2.3065    0.1196    0.2833 C   0  0  0  0  0  0  0  0  0  0  0  0
   -1.7836   -1.0394   -0.5898 C   0  0  0  0  0  0  0  0  0  0  0  0
   -0.2749   -0.7855   -0.6984 C   0  0  0  0  0  0  0  0  0  0  0  0
    0.4655   -1.2917    0.5434 C   0  0  0  0  0  0  0  0  0  0  0  0
    1.8694   -0.7131    0.6745 C   0  0  0  0  0  0  0  0  0  0  0  0
    1.8184    0.8105    0.7119 C   0  0  0  0  0  0  0  0  0  0  0  0
    1.1779    1.3572   -0.5588 C   0  0  0  0  0  0  0  0  0  0  0  0
   -0.2011    0.7528   -0.8316 C   0  0  0  0  0  0  0  0  0  0  0  0
   -1.4277    2.2231    0.4082 H   0  0  0  0  0  0  0  0  0  0  0  0
   -2.3438   -0.1691    1.3425 H   0  0  0  0  0  0  0  0  0  0  0  0
   -3.3295    0.4088    0.0212 H   0  0  0  0  0  0  0  0  0  0  0  0
   -2.2393   -0.9859   -1.5815 H   0  0  0  0  0  0  0  0  0  0  0  0
   -2.0144   -2.0220   -0.1744 H   0  0  0  0  0  0  0  0  0  0  0  0
    0.1520   -1.2674   -1.5825 H   0  0  0  0  0  0  0  0  0  0  0  0
   -0.1033   -1.0202    1.4396 H   0  0  0  0  0  0  0  0  0  0  0  0
    0.4983   -2.3841    0.5177 H   0  0  0  0  0  0  0  0  0  0  0  0
    2.4827   -1.0338   -0.1757 H   0  0  0  0  0  0  0  0  0  0  0  0
    2.3514   -1.1019    1.5744 H   0  0  0  0  0  0  0  0  0  0  0  0
    1.2359    1.1286    1.5834 H   0  0  0  0  0  0  0  0  0  0  0  0
    2.8216    1.2258    0.8314 H   0  0  0  0  0  0  0  0  0  0  0  0
    1.0952    2.4462   -0.5109 H   0  0  0  0  0  0  0  0  0  0  0  0
    1.8331    1.1314   -1.4069 H   0  0  0  0  0  0  0  0  0  0  0  0
   -0.4636    1.0027   -1.8738 H   0  0  0  0  0  0  0  0  0  0  0  0
  1  2  1  0
  1  9  1  0
  1 10  1  0
  2  3  1  0
  2 11  1  0
  2 12  1  0
  3  4  1  0
  3 13  1  0
  3 14  1  0
  4  5  1  0
  4  9  1  0
  4 15  1  0
  5  6  1  0
  5 16  1  0
  5 17  1  0
  6  7  1  0
  6 18  1  0
  6 19  1  0
  7  8  1  0
  7 20  1  0
  7 21  1  0
  8  9  1  0
  8 22  1  0
  8 23  1  0
  9 24  1  0
M  RAD  1   1   2
M  END
>  <reaction>  (2) 
rxn_739

>  <mol_properties>  (2) 
{"0": {"label": "acceptor", "atom_type": "Cs"}}

>  <type>  (2) 
r2

$$$$

     RDKit          3D

 25 26  0  0  0  0  0  0  0  0999 V2000
    2.0298   -1.1515    0.0571 C   0  0  0  0  0  0  0  0  0  0  0  0
    2.2278    0.2445    0.6528 C   0  0  0  0  0  0  0  0  0  0  0  0
    1.2292    1.2625    0.0947 C   0  0  0  0  0  0  0  0  0  0  0  0
   -0.1869    0.7454    0.2762 C   0  0  0  0  0  0  0  0  0  0  0  0
   -1.3415    1.5501   -0.3122 C   0  0  0  0  0  0  0  0  0  0  0  0
   -2.5060    0.5338   -0.4178 C   0  0  0  0  0  0  0  0  0  0  0  0
   -1.8709   -0.8658   -0.2234 C   0  0  0  0  0  0  0  0  0  0  0  0
   -0.3715   -0.6265   -0.3693 C   0  0  0  0  0  0  0  0  0  0  0  0
    0.5898   -1.6500    0.2086 C   0  0  0  0  0  0  0  0  0  0  0  0
    2.2820   -1.1226   -1.0088 H   0  0  0  0  0  0  0  0  0  0  0  0
    2.7243   -1.8549    0.5221 H   0  0  0  0  0  0  0  0  0  0  0  0
    2.1030    0.1885    1.7400 H   0  0  0  0  0  0  0  0  0  0  0  0
    3.2514    0.5819    0.4743 H   0  0  0  0  0  0  0  0  0  0  0  0
    1.3611    2.2304    0.5855 H   0  0  0  0  0  0  0  0  0  0  0  0
    1.4198    1.4194   -0.9737 H   0  0  0  0  0  0  0  0  0  0  0  0
   -0.3675    0.6209    1.3539 H   0  0  0  0  0  0  0  0  0  0  0  0
   -1.5992    2.4249    0.2862 H   0  0  0  0  0  0  0  0  0  0  0  0
   -1.0595    1.9116   -1.3055 H   0  0  0  0  0  0  0  0  0  0  0  0
   -3.2666    0.7244    0.3399 H   0  0  0  0  0  0  0  0  0  0  0  0
   -3.0030    0.6112   -1.3853 H   0  0  0  0  0  0  0  0  0  0  0  0
   -2.2549   -1.6039   -0.9288 H   0  0  0  0  0  0  0  0  0  0  0  0
   -2.0796   -1.2429    0.7821 H   0  0  0  0  0  0  0  0  0  0  0  0
   -0.1432   -0.5121   -1.4391 H   0  0  0  0  0  0  0  0  0  0  0  0
    0.4720   -2.6209   -0.2799 H   0  0  0  0  0  0  0  0  0  0  0  0
    0.3601   -1.7986    1.2704 H   0  0  0  0  0  0  0  0  0  0  0  0
  1  2  1  0
  1  9  1  0
  1 10  1  0
  1 11  1  0
  2  3  1  0
  2 12  1  0
  2 13  1  0
  3  4  1  0
  3 14  1  0
  3 15  1  0
  4  5  1  0
  4  8  1  0
  4 16  1  0
  5  6  1  0
  5 17  1  0
  5 18  1  0
  6  7  1  0
  6 19  1  0
  6 20  1  0
  7  8  1  0
  7 21  1  0
  7 22  1  0
  8  9  1  0
  8 23  1  0
  9 24  1  0
  9 25  1  0
M  END
>  <reaction>  (3) 
rxn_739

>  <mol_properties>  (3) 
{"0": {"label": "a_hydrogen", "atom_type": "H0"}, "1": {"label": "acceptor", "atom_type": "Cs"}}

>  <type>  (3) 
r2h

$$$$

     RDKit          3D

 33 33  0  0  0  0  0  0  0  0999 V2000
    2.2686    1.2712   -2.4471 C   0  0  0  0  0  0  0  0  0  0  0  0
    2.3734    0.3963   -1.4442 C   0  0  0  0  0  0  0  0  0  0  0  0
    2.6996    0.7295   -0.0628 C   0  0  0  0  0  0  0  0  0  0  0  0
    1.9812    0.9593   -3.4426 H   0  0  0  0  0  0  0  0  0  0  0  0
    2.4787    2.3252   -2.3000 H   0  0  0  0  0  0  0  0  0  0  0  0
    2.1515   -0.6484   -1.6489 H   0  0  0  0  0  0  0  0  0  0  0  0
    1.5810    0.8663    0.6045 H   0  0  0  0  0  0  0  0  0  0  0  0
    3.1638    1.7048    0.0750 H   0  0  0  0  0  0  0  0  0  0  0  0
    3.2087   -0.0518    0.4968 H   0  0  0  0  0  0  0  0  0  0  0  0
    0.3984    1.1435    1.2797 C   0  0  0  0  0  3  0  0  0  0  0  0
   -0.2644    2.2563    0.4765 C   0  0  0  0  0  0  0  0  0  0  0  0
   -1.4669    1.5896   -0.2285 C   0  0  0  0  0  0  0  0  0  0  0  0
   -1.1040    0.1089   -0.2394 C   0  0  2  0  0  0  0  0  0  0  0  0
   -2.1908   -0.9202   -0.4899 C   0  0  0  0  0  0  0  0  0  0  0  0
   -1.6048   -2.3284   -0.3476 C   0  0  0  0  0  0  0  0  0  0  0  0
   -0.8965   -2.5354    0.9939 C   0  0  0  0  0  0  0  0  0  0  0  0
    0.1678   -1.4679    1.2631 C   0  0  0  0  0  0  0  0  0  0  0  0
   -0.4594   -0.0884    1.1339 C   0  0  1  0  0  0  0  0  0  0  0  0
    0.7667    1.3885    2.2738 H   0  0  0  0  0  0  0  0  0  0  0  0
   -0.5689    3.0941    1.1069 H   0  0  0  0  0  0  0  0  0  0  0  0
    0.4332    2.6612   -0.2637 H   0  0  0  0  0  0  0  0  0  0  0  0
   -1.6468    1.9939   -1.2252 H   0  0  0  0  0  0  0  0  0  0  0  0
   -2.3797    1.7372    0.3571 H   0  0  0  0  0  0  0  0  0  0  0  0
   -0.3166   -0.0360   -0.9905 H   0  0  0  0  0  0  0  0  0  0  0  0
   -2.9985   -0.7794    0.2383 H   0  0  0  0  0  0  0  0  0  0  0  0
   -2.6318   -0.7935   -1.4820 H   0  0  0  0  0  0  0  0  0  0  0  0
   -0.8857   -2.4919   -1.1581 H   0  0  0  0  0  0  0  0  0  0  0  0
   -2.3887   -3.0790   -0.4712 H   0  0  0  0  0  0  0  0  0  0  0  0
   -1.6401   -2.5015    1.7980 H   0  0  0  0  0  0  0  0  0  0  0  0
   -0.4487   -3.5312    1.0260 H   0  0  0  0  0  0  0  0  0  0  0  0
    0.6075   -1.6103    2.2536 H   0  0  0  0  0  0  0  0  0  0  0  0
    0.9811   -1.5656    0.5360 H   0  0  0  0  0  0  0  0  0  0  0  0
   -1.2680   -0.0256    1.8824 H   0  0  0  0  0  0  0  0  0  0  0  0
  1  2  2  3
  1  4  1  0
  1  5  1  0
  2  3  1  0
  2  6  1  0
  3  7  1  0
  3  8  1  0
  3  9  1  0
 10 11  1  0
 10 18  1  0
 10 19  1  0
 11 12  1  0
 11 20  1  0
 11 21  1  0
 12 13  1  0
 12 22  1  0
 12 23  1  0
 13 14  1  0
 13 18  1  0
 13 24  1  6
 14 15  1  0
 14 25  1  0
 14 26  1  0
 15 16  1  0
 15 27  1  0
 15 28  1  0
 16 17  1  0
 16 29  1  0
 16 30  1  0
 17 18  1  0
 17 31  1  0
 17 32  1  0
 18 33  1  1
M  RAD  1  10   2
M  END
>  <reaction>  (4) 
rxn_739

>  <mol_properties>  (4) 
{"1": {"label": "*0", "atom_type": "Cd"}, "2": {"label": "*1", "atom_type": "Cs"}, "6": {"label": "*2", "atom_type": "H0"}, "9": {"label": "*3", "atom_type": "Cs"}, "17": {"label": "*4", "atom_type": "Cs"}}

>  <type>  (4) 
ts

$$$$

     RDKit          3D

 33 33  0  0  0  0  0  0  0  0999 V2000
    1.3365   -0.5901   -4.5572 C   0  0  0  0  0  0  0  0  0  0  0  0
    1.3365   -0.5901   -3.2335 C   0  0  0  0  0  0  0  0  0  0  0  0
    1.3365    0.6320   -2.3730 C   0  0  0  0  0  0  0  0  0  0  0  0
    1.3365   -1.5129   -5.1237 H   0  0  0  0  0  0  0  0  0  0  0  0
    1.3365    0.3355   -5.1232 H   0  0  0  0  0  0  0  0  0  0  0  0
    1.3365   -1.5428   -2.7100 H   0  0  0  0  0  0  0  0  0  0  0  0
    0.2833    0.6526   -1.5915 H   0  0  0  0  0  0  0  0  0  0  0  0
    1.3365    1.5425   -2.9736 H   0  0  0  0  0  0  0  0  0  0  0  0
    2.2142    0.6492   -1.7218 H   0  0  0  0  0  0  0  0  0  0  0  0
   -0.7709    0.6731   -0.8094 C   0  0  0  0  0  3  0  0  0  0  0  0
   -2.2091    0.0995   -0.7581 C   0  0  0  0  0  0  0  0  0  0  0  0
   -2.3767   -0.5084    0.6569 C   0  0  0  0  0  0  0  0  0  0  0  0
   -0.9576   -0.5757    1.2124 C   0  0  0  0  0  0  0  0  0  0  0  0
   -0.7668   -0.6749    2.7154 C   0  0  0  0  0  0  0  0  0  0  0  0
    0.7251   -0.6066    3.0539 C   0  0  0  0  0  0  0  0  0  0  0  0
    1.4015    0.6289    2.4548 C   0  0  0  0  0  0  0  0  0  0  0  0
    1.1717    0.7437    0.9452 C   0  0  0  0  0  0  0  0  0  0  0  0
   -0.3161    0.6898    0.6466 C   0  0  0  0  0  0  0  0  0  0  0  0
   -0.7262    1.6559   -1.2806 H   0  0  0  0  0  0  0  0  0  0  0  0
   -2.9514    0.8778   -0.9374 H   0  0  0  0  0  0  0  0  0  0  0  0
   -2.3546   -0.6548   -1.5320 H   0  0  0  0  0  0  0  0  0  0  0  0
   -2.8745   -1.4789    0.6419 H   0  0  0  0  0  0  0  0  0  0  0  0
   -2.9793    0.1524    1.2870 H   0  0  0  0  0  0  0  0  0  0  0  0
   -0.4459   -1.4312    0.7478 H   0  0  0  0  0  0  0  0  0  0  0  0
   -1.2939    0.1558    3.1997 H   0  0  0  0  0  0  0  0  0  0  0  0
   -1.2021   -1.5978    3.1077 H   0  0  0  0  0  0  0  0  0  0  0  0
    1.2160   -1.5053    2.6641 H   0  0  0  0  0  0  0  0  0  0  0  0
    0.8681   -0.6190    4.1368 H   0  0  0  0  0  0  0  0  0  0  0  0
    1.0005    1.5252    2.9411 H   0  0  0  0  0  0  0  0  0  0  0  0
    2.4715    0.6085    2.6739 H   0  0  0  0  0  0  0  0  0  0  0  0
    1.6169    1.6663    0.5636 H   0  0  0  0  0  0  0  0  0  0  0  0
    1.6711   -0.0863    0.4312 H   0  0  0  0  0  0  0  0  0  0  0  0
   -0.7942    1.5444    1.1472 H   0  0  0  0  0  0  0  0  0  0  0  0
  1  2  2  3
  1  4  1  0
  1  5  1  0
  2  3  1  0
  2  6  1  0
  3  7  1  0
  3  8  1  0
  3  9  1  0
 10 11  1  0
 10 18  1  0
 10 19  1  0
 11 12  1  0
 11 20  1  0
 11 21  1  0
 12 13  1  0
 12 22  1  0
 12 23  1  0
 13 14  1  0
 13 18  1  0
 13 24  1  0
 14 15  1  0
 14 25  1  0
 14 26  1  0
 15 16  1  0
 15 27  1  0
 15 28  1  0
 16 17  1  0
 16 29  1  0
 16 30  1  0
 17 18  1  0
 17 31  1  0
 17 32  1  0
 18 33  1  0
M  RAD  1  10   2
M  END
>  <reaction>  (5) 
rxn_739

>  <mol_properties>  (5) 
{"1": {"label": "*0", "atom_type": "Cd"}, "2": {"label": "*1", "atom_type": "Cs"}, "6": {"label": "*2", "atom_type": "H0"}, "9": {"label": "*3", "atom_type": "Cs"}, "17": {"label": "*4", "atom_type": "Cs"}}

>  <type>  (5) 
unop_1

>  <geom_source>  (5) 
Heuristics

$$$$

     RDKit          3D

 33 33  0  0  0  0  0  0  0  0999 V2000
    2.2970    0.3120   -2.9959 C   0  0  0  0  0  0  0  0  0  0  0  0
    2.2970    0.3120   -1.6721 C   0  0  0  0  0  0  0  0  0  0  0  0
    2.2970    1.5342   -0.8116 C   0  0  0  0  0  0  0  0  0  0  0  0
    2.2970   -0.6107   -3.5623 H   0  0  0  0  0  0  0  0  0  0  0  0
    2.2970    1.2376   -3.5619 H   0  0  0  0  0  0  0  0  0  0  0  0
    2.2970   -0.6406   -1.1486 H   0  0  0  0  0  0  0  0  0  0  0  0
    1.2437    1.5547   -0.0301 H   0  0  0  0  0  0  0  0  0  0  0  0
    2.2970    2.4446   -1.4122 H   0  0  0  0  0  0  0  0  0  0  0  0
    3.1747    1.5513   -0.1604 H   0  0  0  0  0  0  0  0  0  0  0  0
    0.1895    1.5753    0.7520 C   0  0  0  0  0  3  0  0  0  0  0  0
   -1.1418    2.3045    0.4427 C   0  0  0  0  0  0  0  0  0  0  0  0
   -2.2042    1.1929    0.2535 C   0  0  0  0  0  0  0  0  0  0  0  0
   -1.3911   -0.0898    0.1110 C   0  0  0  0  0  0  0  0  0  0  0  0
   -2.0751   -1.4197    0.3737 C   0  0  0  0  0  0  0  0  0  0  0  0
   -1.0499   -2.5543    0.2931 C   0  0  0  0  0  0  0  0  0  0  0  0
    0.1519   -2.3188    1.2114 C   0  0  0  0  0  0  0  0  0  0  0  0
    0.8126   -0.9589    0.9679 C   0  0  0  0  0  0  0  0  0  0  0  0
   -0.2268    0.1431    1.0718 C   0  0  0  0  0  0  0  0  0  0  0  0
    0.7496    2.0465    1.5608 H   0  0  0  0  0  0  0  0  0  0  0  0
   -1.4222    2.9762    1.2545 H   0  0  0  0  0  0  0  0  0  0  0  0
   -1.0494    2.9192   -0.4532 H   0  0  0  0  0  0  0  0  0  0  0  0
   -2.8602    1.3781   -0.5981 H   0  0  0  0  0  0  0  0  0  0  0  0
   -2.8410    1.1192    1.1400 H   0  0  0  0  0  0  0  0  0  0  0  0
   -0.9693   -0.1195   -0.9043 H   0  0  0  0  0  0  0  0  0  0  0  0
   -2.5265   -1.3999    1.3728 H   0  0  0  0  0  0  0  0  0  0  0  0
   -2.8873   -1.5922   -0.3374 H   0  0  0  0  0  0  0  0  0  0  0  0
   -0.6969   -2.6371   -0.7409 H   0  0  0  0  0  0  0  0  0  0  0  0
   -1.5220   -3.5086    0.5379 H   0  0  0  0  0  0  0  0  0  0  0  0
   -0.1821   -2.3663    2.2539 H   0  0  0  0  0  0  0  0  0  0  0  0
    0.8808   -3.1220    1.0814 H   0  0  0  0  0  0  0  0  0  0  0  0
    1.6269   -0.8008    1.6800 H   0  0  0  0  0  0  0  0  0  0  0  0
    1.2581   -0.9387   -0.0338 H   0  0  0  0  0  0  0  0  0  0  0  0
   -0.6414    0.1240    2.0903 H   0  0  0  0  0  0  0  0  0  0  0  0
  1  2  2  3
  1  4  1  0
  1  5  1  0
  2  3  1  0
  2  6  1  0
  3  7  1  0
  3  8  1  0
  3  9  1  0
 10 11  1  0
 10 18  1  0
 10 19  1  0
 11 12  1  0
 11 20  1  0
 11 21  1  0
 12 13  1  0
 12 22  1  0
 12 23  1  0
 13 14  1  0
 13 18  1  0
 13 24  1  0
 14 15  1  0
 14 25  1  0
 14 26  1  0
 15 16  1  0
 15 27  1  0
 15 28  1  0
 16 17  1  0
 16 29  1  0
 16 30  1  0
 17 18  1  0
 17 31  1  0
 17 32  1  0
 18 33  1  0
M  RAD  1  10   2
M  END
>  <reaction>  (6) 
rxn_739

>  <mol_properties>  (6) 
{"1": {"label": "*0", "atom_type": "Cd"}, "2": {"label": "*1", "atom_type": "Cs"}, "6": {"label": "*2", "atom_type": "H0"}, "9": {"label": "*3", "atom_type": "Cs"}, "17": {"label": "*4", "atom_type": "Cs"}}

>  <type>  (6) 
unop_2

>  <geom_source>  (6) 
Heuristics

$$$$

     RDKit          3D

 33 33  0  0  0  0  0  0  0  0999 V2000
    1.1918   -1.2980   -4.5793 C   0  0  0  0  0  0  0  0  0  0  0  0
    1.1918   -1.2980   -3.2555 C   0  0  0  0  0  0  0  0  0  0  0  0
    1.1918   -0.0758   -2.3950 C   0  0  0  0  0  0  0  0  0  0  0  0
    1.1918   -2.2207   -5.1458 H   0  0  0  0  0  0  0  0  0  0  0  0
    1.1918   -0.3724   -5.1453 H   0  0  0  0  0  0  0  0  0  0  0  0
    1.1918   -2.2506   -2.7320 H   0  0  0  0  0  0  0  0  0  0  0  0
    0.1385   -0.0553   -1.6136 H   0  0  0  0  0  0  0  0  0  0  0  0
    1.1918    0.8346   -2.9956 H   0  0  0  0  0  0  0  0  0  0  0  0
    2.0695   -0.0587   -1.7438 H   0  0  0  0  0  0  0  0  0  0  0  0
   -0.9157   -0.0347   -0.8314 C   0  0  0  0  0  3  0  0  0  0  0  0
   -1.9112   -1.1374   -0.3923 C   0  0  0  0  0  0  0  0  0  0  0  0
   -1.8156   -1.2094    1.1522 C   0  0  0  0  0  0  0  0  0  0  0  0
   -0.5524   -0.4246    1.4919 C   0  0  0  0  0  0  0  0  0  0  0  0
   -0.3851    0.1132    2.9020 C   0  0  0  0  0  0  0  0  0  0  0  0
    0.8848    0.9650    2.9842 C   0  0  0  0  0  0  0  0  0  0  0  0
    0.9138    2.0698    1.9254 C   0  0  0  0  0  0  0  0  0  0  0  0
    0.7050    1.5248    0.5097 C   0  0  0  0  0  0  0  0  0  0  0  0
   -0.5694    0.7008    0.4593 C   0  0  0  0  0  0  0  0  0  0  0  0
   -1.3269    0.6225   -1.5988 H   0  0  0  0  0  0  0  0  0  0  0  0
   -2.9276   -0.9006   -0.7083 H   0  0  0  0  0  0  0  0  0  0  0  0
   -1.6575   -2.0946   -0.8489 H   0  0  0  0  0  0  0  0  0  0  0  0
   -1.7934   -2.2341    1.5253 H   0  0  0  0  0  0  0  0  0  0  0  0
   -2.6790   -0.7186    1.6111 H   0  0  0  0  0  0  0  0  0  0  0  0
    0.3180   -1.0572    1.2641 H   0  0  0  0  0  0  0  0  0  0  0  0
   -1.2579    0.7255    3.1584 H   0  0  0  0  0  0  0  0  0  0  0  0
   -0.3434   -0.7000    3.6314 H   0  0  0  0  0  0  0  0  0  0  0  0
    1.7550    0.3141    2.8434 H   0  0  0  0  0  0  0  0  0  0  0  0
    0.9822    1.4032    3.9801 H   0  0  0  0  0  0  0  0  0  0  0  0
    0.1209    2.7936    2.1444 H   0  0  0  0  0  0  0  0  0  0  0  0
    1.8583    2.6156    1.9849 H   0  0  0  0  0  0  0  0  0  0  0  0
    0.6718    2.3461   -0.2111 H   0  0  0  0  0  0  0  0  0  0  0  0
    1.5540    0.8900    0.2292 H   0  0  0  0  0  0  0  0  0  0  0  0
   -1.4109    1.3606    0.7163 H   0  0  0  0  0  0  0  0  0  0  0  0
  1  2  2  3
  1  4  1  0
  1  5  1  0
  2  3  1  0
  2  6  1  0
  3  7  1  0
  3  8  1  0
  3  9  1  0
 10 11  1  0
 10 18  1  0
 10 19  1  0
 11 12  1  0
 11 20  1  0
 11 21  1  0
 12 13  1  0
 12 22  1  0
 12 23  1  0
 13 14  1  0
 13 18  1  0
 13 24  1  0
 14 15  1  0
 14 25  1  0
 14 26  1  0
 15 16  1  0
 15 27  1  0
 15 28  1  0
 16 17  1  0
 16 29  1  0
 16 30  1  0
 17 18  1  0
 17 31  1  0
 17 32  1  0
 18 33  1  0
M  RAD  1  10   2
M  END
>  <reaction>  (7) 
rxn_739

>  <mol_properties>  (7) 
{"1": {"label": "*0", "atom_type": "Cd"}, "2": {"label": "*1", "atom_type": "Cs"}, "6": {"label": "*2", "atom_type": "H0"}, "9": {"label": "*3", "atom_type": "Cs"}, "17": {"label": "*4", "atom_type": "Cs"}}

>  <type>  (7) 
unop_3

>  <geom_source>  (7) 
Heuristics

$$$$

     RDKit          3D

 33 33  0  0  0  0  0  0  0  0999 V2000
    2.5581   -1.3984   -1.9548 C   0  0  0  0  0  0  0  0  0  0  0  0
    2.5581   -1.3984   -0.6310 C   0  0  0  0  0  0  0  0  0  0  0  0
    2.5581   -0.1762    0.2295 C   0  0  0  0  0  0  0  0  0  0  0  0
    2.5581   -2.3211   -2.5213 H   0  0  0  0  0  0  0  0  0  0  0  0
    2.5581   -0.4728   -2.5208 H   0  0  0  0  0  0  0  0  0  0  0  0
    2.5581   -2.3510   -0.1075 H   0  0  0  0  0  0  0  0  0  0  0  0
    1.5048   -0.1557    1.0109 H   0  0  0  0  0  0  0  0  0  0  0  0
    2.5581    0.7342   -0.3711 H   0  0  0  0  0  0  0  0  0  0  0  0
    3.4358   -0.1591    0.8807 H   0  0  0  0  0  0  0  0  0  0  0  0
    0.4506   -0.1351    1.7931 C   0  0  0  0  0  3  0  0  0  0  0  0
    0.8358    1.3607    1.9117 C   0  0  0  0  0  0  0  0  0  0  0  0
   -0.0019    2.1040    0.8413 C   0  0  0  0  0  0  0  0  0  0  0  0
   -0.5436    0.9951   -0.0551 C   0  0  0  0  0  0  0  0  0  0  0  0
   -1.7605    1.2828   -0.9165 C   0  0  0  0  0  0  0  0  0  0  0  0
   -2.2006    0.0042   -1.6350 C   0  0  0  0  0  0  0  0  0  0  0  0
   -2.4268   -1.1590   -0.6663 C   0  0  0  0  0  0  0  0  0  0  0  0
   -1.2098   -1.4180    0.2265 C   0  0  0  0  0  0  0  0  0  0  0  0
   -0.8111   -0.1360    0.9359 C   0  0  0  0  0  0  0  0  0  0  0  0
    0.3061   -0.6109    2.7640 H   0  0  0  0  0  0  0  0  0  0  0  0
    0.6220    1.7458    2.9092 H   0  0  0  0  0  0  0  0  0  0  0  0
    1.9041    1.5015    1.7452 H   0  0  0  0  0  0  0  0  0  0  0  0
    0.5787    2.8481    0.2944 H   0  0  0  0  0  0  0  0  0  0  0  0
   -0.8390    2.6300    1.3097 H   0  0  0  0  0  0  0  0  0  0  0  0
    0.2685    0.6585   -0.7160 H   0  0  0  0  0  0  0  0  0  0  0  0
   -2.5743    1.6465   -0.2779 H   0  0  0  0  0  0  0  0  0  0  0  0
   -1.5510    2.0724   -1.6431 H   0  0  0  0  0  0  0  0  0  0  0  0
   -1.4257   -0.2788   -2.3563 H   0  0  0  0  0  0  0  0  0  0  0  0
   -3.1099    0.1884   -2.2118 H   0  0  0  0  0  0  0  0  0  0  0  0
   -3.2882   -0.9293   -0.0292 H   0  0  0  0  0  0  0  0  0  0  0  0
   -2.6849   -2.0618   -1.2247 H   0  0  0  0  0  0  0  0  0  0  0  0
   -1.4288   -2.2134    0.9437 H   0  0  0  0  0  0  0  0  0  0  0  0
   -0.3693   -1.7653   -0.3863 H   0  0  0  0  0  0  0  0  0  0  0  0
   -1.6556    0.1806    1.5653 H   0  0  0  0  0  0  0  0  0  0  0  0
  1  2  2  3
  1  4  1  0
  1  5  1  0
  2  3  1  0
  2  6  1  0
  3  7  1  0
  3  8  1  0
  3  9  1  0
 10 11  1  0
 10 18  1  0
 10 19  1  0
 11 12  1  0
 11 20  1  0
 11 21  1  0
 12 13  1  0
 12 22  1  0
 12 23  1  0
 13 14  1  0
 13 18  1  0
 13 24  1  0
 14 15  1  0
 14 25  1  0
 14 26  1  0
 15 16  1  0
 15 27  1  0
 15 28  1  0
 16 17  1  0
 16 29  1  0
 16 30  1  0
 17 18  1  0
 17 31  1  0
 17 32  1  0
 18 33  1  0
M  RAD  1  10   2
M  END
>  <reaction>  (8) 
rxn_739

>  <mol_properties>  (8) 
{"1": {"label": "*0", "atom_type": "Cd"}, "2": {"label": "*1", "atom_type": "Cs"}, "6": {"label": "*2", "atom_type": "H0"}, "9": {"label": "*3", "atom_type": "Cs"}, "17": {"label": "*4", "atom_type": "Cs"}}

>  <type>  (8) 
unop_4

>  <geom_source>  (8) 
Heuristics

$$$$

     RDKit          3D

 33 33  0  0  0  0  0  0  0  0999 V2000
    1.1567   -2.0466   -4.2111 C   0  0  0  0  0  0  0  0  0  0  0  0
    1.1567   -2.0466   -2.8873 C   0  0  0  0  0  0  0  0  0  0  0  0
    1.1567   -0.8244   -2.0268 C   0  0  0  0  0  0  0  0  0  0  0  0
    1.1567   -2.9693   -4.7776 H   0  0  0  0  0  0  0  0  0  0  0  0
    1.1567   -1.1210   -4.7771 H   0  0  0  0  0  0  0  0  0  0  0  0
    1.1567   -2.9992   -2.3638 H   0  0  0  0  0  0  0  0  0  0  0  0
    0.1035   -0.8038   -1.2454 H   0  0  0  0  0  0  0  0  0  0  0  0
    1.1567    0.0861   -2.6274 H   0  0  0  0  0  0  0  0  0  0  0  0
    2.0344   -0.8073   -1.3756 H   0  0  0  0  0  0  0  0  0  0  0  0
   -0.9507   -0.7833   -0.4632 C   0  0  0  0  0  3  0  0  0  0  0  0
   -0.8899   -1.9485    0.5558 C   0  0  0  0  0  0  0  0  0  0  0  0
   -0.4683   -1.3149    1.9052 C   0  0  0  0  0  0  0  0  0  0  0  0
    0.0270    0.0789    1.5324 C   0  0  0  0  0  0  0  0  0  0  0  0
    0.0824    1.1458    2.6113 C   0  0  0  0  0  0  0  0  0  0  0  0
    0.4888    2.4867    1.9935 C   0  0  0  0  0  0  0  0  0  0  0  0
   -0.4100    2.8825    0.8196 C   0  0  0  0  0  0  0  0  0  0  0  0
   -0.4926    1.7857   -0.2459 C   0  0  0  0  0  0  0  0  0  0  0  0
   -0.9139    0.4761    0.3967 C   0  0  0  0  0  0  0  0  0  0  0  0
   -1.8292   -0.8332   -1.1078 H   0  0  0  0  0  0  0  0  0  0  0  0
   -1.8560   -2.4462    0.6450 H   0  0  0  0  0  0  0  0  0  0  0  0
   -0.1760   -2.7080    0.2358 H   0  0  0  0  0  0  0  0  0  0  0  0
    0.2816   -1.9065    2.4320 H   0  0  0  0  0  0  0  0  0  0  0  0
   -1.3321   -1.2244    2.5704 H   0  0  0  0  0  0  0  0  0  0  0  0
    1.0329   -0.0176    1.0981 H   0  0  0  0  0  0  0  0  0  0  0  0
   -0.9065    1.2378    3.0761 H   0  0  0  0  0  0  0  0  0  0  0  0
    0.7808    0.8675    3.4051 H   0  0  0  0  0  0  0  0  0  0  0  0
    1.5234    2.4124    1.6403 H   0  0  0  0  0  0  0  0  0  0  0  0
    0.4750    3.2724    2.7524 H   0  0  0  0  0  0  0  0  0  0  0  0
   -1.4191    3.0842    1.1961 H   0  0  0  0  0  0  0  0  0  0  0  0
   -0.0517    3.8143    0.3760 H   0  0  0  0  0  0  0  0  0  0  0  0
   -1.1881    2.0781   -1.0370 H   0  0  0  0  0  0  0  0  0  0  0  0
    0.4885    1.6546   -0.7179 H   0  0  0  0  0  0  0  0  0  0  0  0
   -1.9102    0.6202    0.8397 H   0  0  0  0  0  0  0  0  0  0  0  0
  1  2  2  3
  1  4  1  0
  1  5  1  0
  2  3  1  0
  2  6  1  0
  3  7  1  0
  3  8  1  0
  3  9  1  0
 10 11  1  0
 10 18  1  0
 10 19  1  0
 11 12  1  0
 11 20  1  0
 11 21  1  0
 12 13  1  0
 12 22  1  0
 12 23  1  0
 13 14  1  0
 13 18  1  0
 13 24  1  0
 14 15  1  0
 14 25  1  0
 14 26  1  0
 15 16  1  0
 15 27  1  0
 15 28  1  0
 16 17  1  0
 16 29  1  0
 16 30  1  0
 17 18  1  0
 17 31  1  0
 17 32  1  0
 18 33  1  0
M  RAD  1  10   2
M  END
>  <reaction>  (9) 
rxn_739

>  <mol_properties>  (9) 
{"1": {"label": "*0", "atom_type": "Cd"}, "2": {"label": "*1", "atom_type": "Cs"}, "6": {"label": "*2", "atom_type": "H0"}, "9": {"label": "*3", "atom_type": "Cs"}, "17": {"label": "*4", "atom_type": "Cs"}}

>  <type>  (9) 
unop_5

>  <geom_source>  (9) 
Heuristics

$$$$

     RDKit          3D

 33 33  0  0  0  0  0  0  0  0999 V2000
    2.3178   -2.0666   -2.1954 C   0  0  0  0  0  0  0  0  0  0  0  0
    2.3178   -2.0666   -0.8717 C   0  0  0  0  0  0  0  0  0  0  0  0
    2.3178   -0.8444   -0.0111 C   0  0  0  0  0  0  0  0  0  0  0  0
    2.3178   -2.9893   -2.7619 H   0  0  0  0  0  0  0  0  0  0  0  0
    2.3179   -1.1410   -2.7614 H   0  0  0  0  0  0  0  0  0  0  0  0
    2.3178   -3.0192   -0.3481 H   0  0  0  0  0  0  0  0  0  0  0  0
    1.2646   -0.8239    0.7703 H   0  0  0  0  0  0  0  0  0  0  0  0
    2.3179    0.0660   -0.6117 H   0  0  0  0  0  0  0  0  0  0  0  0
    3.1956   -0.8273    0.6401 H   0  0  0  0  0  0  0  0  0  0  0  0
    0.2104   -0.8033    1.5524 C   0  0  0  0  0  3  0  0  0  0  0  0
    1.1153    0.3366    2.0833 C   0  0  0  0  0  0  0  0  0  0  0  0
    0.6512    1.6241    1.3574 C   0  0  0  0  0  0  0  0  0  0  0  0
   -0.2275    1.1214    0.2163 C   0  0  0  0  0  0  0  0  0  0  0  0
   -1.2195    2.0807   -0.4171 C   0  0  0  0  0  0  0  0  0  0  0  0
   -2.0730    1.3371   -1.4484 C   0  0  0  0  0  0  0  0  0  0  0  0
   -2.7480    0.0963   -0.8588 C   0  0  0  0  0  0  0  0  0  0  0  0
   -1.7464   -0.8473   -0.1870 C   0  0  0  0  0  0  0  0  0  0  0  0
   -0.9299   -0.0830    0.8399 C   0  0  0  0  0  0  0  0  0  0  0  0
   -0.1354   -1.4695    2.3439 H   0  0  0  0  0  0  0  0  0  0  0  0
    1.0216    0.4444    3.1643 H   0  0  0  0  0  0  0  0  0  0  0  0
    2.1657    0.1256    1.8806 H   0  0  0  0  0  0  0  0  0  0  0  0
    1.4852    2.2376    1.0141 H   0  0  0  0  0  0  0  0  0  0  0  0
    0.0502    2.2447    2.0285 H   0  0  0  0  0  0  0  0  0  0  0  0
    0.4273    0.7359   -0.5788 H   0  0  0  0  0  0  0  0  0  0  0  0
   -1.8651    2.4976    0.3651 H   0  0  0  0  0  0  0  0  0  0  0  0
   -0.7068    2.9239   -0.8874 H   0  0  0  0  0  0  0  0  0  0  0  0
   -1.4308    1.0308   -2.2817 H   0  0  0  0  0  0  0  0  0  0  0  0
   -2.8281    2.0061   -1.8673 H   0  0  0  0  0  0  0  0  0  0  0  0
   -3.4871    0.4130   -0.1145 H   0  0  0  0  0  0  0  0  0  0  0  0
   -3.2999   -0.4319   -1.6398 H   0  0  0  0  0  0  0  0  0  0  0  0
   -2.2699   -1.6894    0.2734 H   0  0  0  0  0  0  0  0  0  0  0  0
   -1.0711   -1.2674   -0.9419 H   0  0  0  0  0  0  0  0  0  0  0  0
   -1.6209    0.3064    1.6018 H   0  0  0  0  0  0  0  0  0  0  0  0
  1  2  2  3
  1  4  1  0
  1  5  1  0
  2  3  1  0
  2  6  1  0
  3  7  1  0
  3  8  1  0
  3  9  1  0
 10 11  1  0
 10 18  1  0
 10 19  1  0
 11 12  1  0
 11 20  1  0
 11 21  1  0
 12 13  1  0
 12 22  1  0
 12 23  1  0
 13 14  1  0
 13 18  1  0
 13 24  1  0
 14 15  1  0
 14 25  1  0
 14 26  1  0
 15 16  1  0
 15 27  1  0
 15 28  1  0
 16 17  1  0
 16 29  1  0
 16 30  1  0
 17 18  1  0
 17 31  1  0
 17 32  1  0
 18 33  1  0
M  RAD  1  10   2
M  END
>  <reaction>  (10) 
rxn_739

>  <mol_properties>  (10) 
{"1": {"label": "*0", "atom_type": "Cd"}, "2": {"label": "*1", "atom_type": "Cs"}, "6": {"label": "*2", "atom_type": "H0"}, "9": {"label": "*3", "atom_type": "Cs"}, "17": {"label": "*4", "atom_type": "Cs"}}

>  <type>  (10) 
unop_6

>  <geom_source>  (10) 
Heuristics

$$$$

     RDKit          3D

 33 33  0  0  0  0  0  0  0  0999 V2000
    1.9171   -2.5156   -2.7240 C   0  0  0  0  0  0  0  0  0  0  0  0
    1.9171   -2.5156   -1.4002 C   0  0  0  0  0  0  0  0  0  0  0  0
    1.9171   -1.2935   -0.5397 C   0  0  0  0  0  0  0  0  0  0  0  0
    1.9171   -3.4384   -3.2905 H   0  0  0  0  0  0  0  0  0  0  0  0
    1.9171   -1.5900   -3.2900 H   0  0  0  0  0  0  0  0  0  0  0  0
    1.9171   -3.4683   -0.8767 H   0  0  0  0  0  0  0  0  0  0  0  0
    0.8639   -1.2729    0.2417 H   0  0  0  0  0  0  0  0  0  0  0  0
    1.9171   -0.3830   -1.1403 H   0  0  0  0  0  0  0  0  0  0  0  0
    2.7948   -1.2763    0.1115 H   0  0  0  0  0  0  0  0  0  0  0  0
   -0.1903   -1.2524    1.0239 C   0  0  0  0  0  3  0  0  0  0  0  0
    0.9704   -0.7488    1.9178 C   0  0  0  0  0  0  0  0  0  0  0  0
    0.9619    0.7958    1.7998 C   0  0  0  0  0  0  0  0  0  0  0  0
    0.0588    1.0808    0.6039 C   0  0  0  0  0  0  0  0  0  0  0  0
   -0.5564    2.4622    0.4676 C   0  0  0  0  0  0  0  0  0  0  0  0
   -1.5148    2.4869   -0.7266 C   0  0  0  0  0  0  0  0  0  0  0  0
   -2.5675    1.3784   -0.6506 C   0  0  0  0  0  0  0  0  0  0  0  0
   -1.9413   -0.0077   -0.4734 C   0  0  0  0  0  0  0  0  0  0  0  0
   -1.0118   -0.0017    0.7272 C   0  0  0  0  0  0  0  0  0  0  0  0
   -0.7740   -2.0427    1.4975 H   0  0  0  0  0  0  0  0  0  0  0  0
    0.8349   -1.0604    2.9539 H   0  0  0  0  0  0  0  0  0  0  0  0
    1.9232   -1.1649    1.5889 H   0  0  0  0  0  0  0  0  0  0  0  0
    1.9626    1.2149    1.6870 H   0  0  0  0  0  0  0  0  0  0  0  0
    0.5246    1.2444    2.6966 H   0  0  0  0  0  0  0  0  0  0  0  0
    0.6259    0.8693   -0.3144 H   0  0  0  0  0  0  0  0  0  0  0  0
   -1.1045    2.7032    1.3862 H   0  0  0  0  0  0  0  0  0  0  0  0
    0.2155    3.2273    0.3493 H   0  0  0  0  0  0  0  0  0  0  0  0
   -0.9335    2.3632   -1.6471 H   0  0  0  0  0  0  0  0  0  0  0  0
   -2.0057    3.4602   -0.7973 H   0  0  0  0  0  0  0  0  0  0  0  0
   -3.2316    1.5759    0.1983 H   0  0  0  0  0  0  0  0  0  0  0  0
   -3.1929    1.3991   -1.5460 H   0  0  0  0  0  0  0  0  0  0  0  0
   -2.7224   -0.7646   -0.3631 H   0  0  0  0  0  0  0  0  0  0  0  0
   -1.3678   -0.2714   -1.3700 H   0  0  0  0  0  0  0  0  0  0  0  0
   -1.6098    0.2373    1.6187 H   0  0  0  0  0  0  0  0  0  0  0  0
  1  2  2  3
  1  4  1  0
  1  5  1  0
  2  3  1  0
  2  6  1  0
  3  7  1  0
  3  8  1  0
  3  9  1  0
 10 11  1  0
 10 18  1  0
 10 19  1  0
 11 12  1  0
 11 20  1  0
 11 21  1  0
 12 13  1  0
 12 22  1  0
 12 23  1  0
 13 14  1  0
 13 18  1  0
 13 24  1  0
 14 15  1  0
 14 25  1  0
 14 26  1  0
 15 16  1  0
 15 27  1  0
 15 28  1  0
 16 17  1  0
 16 29  1  0
 16 30  1  0
 17 18  1  0
 17 31  1  0
 17 32  1  0
 18 33  1  0
M  RAD  1  10   2
M  END
>  <reaction>  (11) 
rxn_739

>  <mol_properties>  (11) 
{"1": {"label": "*0", "atom_type": "Cd"}, "2": {"label": "*1", "atom_type": "Cs"}, "6": {"label": "*2", "atom_type": "H0"}, "9": {"label": "*3", "atom_type": "Cs"}, "17": {"label": "*4", "atom_type": "Cs"}}

>  <type>  (11) 
unop_7

>  <geom_source>  (11) 
Heuristics

$$$$

     RDKit          3D

 33 33  0  0  0  0  0  0  0  0999 V2000
    1.5900    0.0023   -4.2317 C   0  0  0  0  0  0  0  0  0  0  0  0
    1.5900    0.0023   -2.9079 C   0  0  0  0  0  0  0  0  0  0  0  0
    1.5900    1.2245   -2.0474 C   0  0  0  0  0  0  0  0  0  0  0  0
    1.5900   -0.9204   -4.7982 H   0  0  0  0  0  0  0  0  0  0  0  0
    1.5900    0.9279   -4.7977 H   0  0  0  0  0  0  0  0  0  0  0  0
    1.5900   -0.9503   -2.3844 H   0  0  0  0  0  0  0  0  0  0  0  0
    0.5367    1.2450   -1.2660 H   0  0  0  0  0  0  0  0  0  0  0  0
    1.5900    2.1349   -2.6480 H   0  0  0  0  0  0  0  0  0  0  0  0
    2.4677    1.2416   -1.3962 H   0  0  0  0  0  0  0  0  0  0  0  0
   -0.5175    1.2656   -0.4838 C   0  0  0  0  0  3  0  0  0  0  0  0
   -2.0608    1.1799   -0.5866 C   0  0  0  0  0  0  0  0  0  0  0  0
   -2.5026    0.1377    0.4710 C   0  0  0  0  0  0  0  0  0  0  0  0
   -1.2112   -0.5687    0.8712 C   0  0  0  0  0  0  0  0  0  0  0  0
   -1.1670   -1.3132    2.1938 C   0  0  0  0  0  0  0  0  0  0  0  0
    0.2496   -1.8372    2.4462 C   0  0  0  0  0  0  0  0  0  0  0  0
    1.3034   -0.7306    2.3579 C   0  0  0  0  0  0  0  0  0  0  0  0
    1.2271    0.0418    1.0379 C   0  0  0  0  0  0  0  0  0  0  0  0
   -0.1841    0.5610    0.8274 C   0  0  0  0  0  0  0  0  0  0  0  0
   -0.1494    2.2917   -0.5213 H   0  0  0  0  0  0  0  0  0  0  0  0
   -2.5239    2.1484   -0.3952 H   0  0  0  0  0  0  0  0  0  0  0  0
   -2.3677    0.8800   -1.5891 H   0  0  0  0  0  0  0  0  0  0  0  0
   -3.2635   -0.5473    0.0947 H   0  0  0  0  0  0  0  0  0  0  0  0
   -2.9256    0.6387    1.3467 H   0  0  0  0  0  0  0  0  0  0  0  0
   -0.9444   -1.2772    0.0734 H   0  0  0  0  0  0  0  0  0  0  0  0
   -1.4572   -0.6294    3.0004 H   0  0  0  0  0  0  0  0  0  0  0  0
   -1.8836   -2.1387    2.2053 H   0  0  0  0  0  0  0  0  0  0  0  0
    0.4783   -2.6068    1.7006 H   0  0  0  0  0  0  0  0  0  0  0  0
    0.3042   -2.3241    3.4226 H   0  0  0  0  0  0  0  0  0  0  0  0
    1.1527   -0.0287    3.1857 H   0  0  0  0  0  0  0  0  0  0  0  0
    2.3006   -1.1570    2.4895 H   0  0  0  0  0  0  0  0  0  0  0  0
    1.9524    0.8598    1.0355 H   0  0  0  0  0  0  0  0  0  0  0  0
    1.4933   -0.6212    0.2060 H   0  0  0  0  0  0  0  0  0  0  0  0
   -0.4217    1.2442    1.6559 H   0  0  0  0  0  0  0  0  0  0  0  0
  1  2  2  3
  1  4  1  0
  1  5  1  0
  2  3  1  0
  2  6  1  0
  3  7  1  0
  3  8  1  0
  3  9  1  0
 10 11  1  0
 10 18  1  0
 10 19  1  0
 11 12  1  0
 11 20  1  0
 11 21  1  0
 12 13  1  0
 12 22  1  0
 12 23  1  0
 13 14  1  0
 13 18  1  0
 13 24  1  0
 14 15  1  0
 14 25  1  0
 14 26  1  0
 15 16  1  0
 15 27  1  0
 15 28  1  0
 16 17  1  0
 16 29  1  0
 16 30  1  0
 17 18  1  0
 17 31  1  0
 17 32  1  0
 18 33  1  0
M  RAD  1  10   2
M  END
>  <reaction>  (12) 
rxn_739

>  <mol_properties>  (12) 
{"1": {"label": "*0", "atom_type": "Cd"}, "2": {"label": "*1", "atom_type": "Cs"}, "6": {"label": "*2", "atom_type": "H0"}, "9": {"label": "*3", "atom_type": "Cs"}, "17": {"label": "*4", "atom_type": "Cs"}}

>  <type>  (12) 
unop_8

>  <geom_source>  (12) 
Heuristics

$$$$

     RDKit          3D

 33 33  0  0  0  0  0  0  0  0999 V2000
    2.6283   -0.6858   -2.0264 C   0  0  0  0  0  0  0  0  0  0  0  0
    2.6283   -0.6858   -0.7027 C   0  0  0  0  0  0  0  0  0  0  0  0
    2.6283    0.5364    0.1578 C   0  0  0  0  0  0  0  0  0  0  0  0
    2.6283   -1.6085   -2.5929 H   0  0  0  0  0  0  0  0  0  0  0  0
    2.6283    0.2398   -2.5924 H   0  0  0  0  0  0  0  0  0  0  0  0
    2.6283   -1.6384   -0.1792 H   0  0  0  0  0  0  0  0  0  0  0  0
    1.5750    0.5569    0.9393 H   0  0  0  0  0  0  0  0  0  0  0  0
    2.6283    1.4468   -0.4428 H   0  0  0  0  0  0  0  0  0  0  0  0
    3.5060    0.5535    0.8090 H   0  0  0  0  0  0  0  0  0  0  0  0
    0.5209    0.5775    1.7214 C   0  0  0  0  0  3  0  0  0  0  0  0
    0.2319    2.0817    1.4896 C   0  0  0  0  0  0  0  0  0  0  0  0
   -0.8591    2.1432    0.3914 C   0  0  0  0  0  0  0  0  0  0  0  0
   -0.8886    0.7350   -0.1944 C   0  0  0  0  0  0  0  0  0  0  0  0
   -2.1246    0.2872   -0.9542 C   0  0  0  0  0  0  0  0  0  0  0  0
   -1.9871   -1.1874   -1.3438 C   0  0  0  0  0  0  0  0  0  0  0  0
   -1.6801   -2.0811   -0.1398 C   0  0  0  0  0  0  0  0  0  0  0  0
   -0.4559   -1.6005    0.6446 C   0  0  0  0  0  0  0  0  0  0  0  0
   -0.6324   -0.1423    1.0294 C   0  0  0  0  0  0  0  0  0  0  0  0
    0.6080    0.3236    2.7787 H   0  0  0  0  0  0  0  0  0  0  0  0
   -0.1109    2.5639    2.4056 H   0  0  0  0  0  0  0  0  0  0  0  0
    1.1351    2.6078    1.1791 H   0  0  0  0  0  0  0  0  0  0  0  0
   -0.6603    2.9115   -0.3569 H   0  0  0  0  0  0  0  0  0  0  0  0
   -1.8335    2.3699    0.8341 H   0  0  0  0  0  0  0  0  0  0  0  0
   -0.0206    0.6204   -0.8600 H   0  0  0  0  0  0  0  0  0  0  0  0
   -3.0061    0.4199   -0.3156 H   0  0  0  0  0  0  0  0  0  0  0  0
   -2.2834    0.9009   -1.8448 H   0  0  0  0  0  0  0  0  0  0  0  0
   -1.1766   -1.2842   -2.0748 H   0  0  0  0  0  0  0  0  0  0  0  0
   -2.8965   -1.5336   -1.8402 H   0  0  0  0  0  0  0  0  0  0  0  0
   -2.5474   -2.0863    0.5299 H   0  0  0  0  0  0  0  0  0  0  0  0
   -1.5363   -3.1122   -0.4705 H   0  0  0  0  0  0  0  0  0  0  0  0
   -0.3033   -2.2255    1.5285 H   0  0  0  0  0  0  0  0  0  0  0  0
    0.4431   -1.7018    0.0249 H   0  0  0  0  0  0  0  0  0  0  0  0
   -1.5216   -0.0658    1.6721 H   0  0  0  0  0  0  0  0  0  0  0  0
  1  2  2  3
  1  4  1  0
  1  5  1  0
  2  3  1  0
  2  6  1  0
  3  7  1  0
  3  8  1  0
  3  9  1  0
 10 11  1  0
 10 18  1  0
 10 19  1  0
 11 12  1  0
 11 20  1  0
 11 21  1  0
 12 13  1  0
 12 22  1  0
 12 23  1  0
 13 14  1  0
 13 18  1  0
 13 24  1  0
 14 15  1  0
 14 25  1  0
 14 26  1  0
 15 16  1  0
 15 27  1  0
 15 28  1  0
 16 17  1  0
 16 29  1  0
 16 30  1  0
 17 18  1  0
 17 31  1  0
 17 32  1  0
 18 33  1  0
M  RAD  1  10   2
M  END
>  <reaction>  (13) 
rxn_739

>  <mol_properties>  (13) 
{"1": {"label": "*0", "atom_type": "Cd"}, "2": {"label": "*1", "atom_type": "Cs"}, "6": {"label": "*2", "atom_type": "H0"}, "9": {"label": "*3", "atom_type": "Cs"}, "17": {"label": "*4", "atom_type": "Cs"}}

>  <type>  (13) 
unop_9

>  <geom_source>  (13) 
Heuristics

$$$$

     RDKit          3D

 33 33  0  0  0  0  0  0  0  0999 V2000
    1.9415    0.3390   -3.6682 C   0  0  0  0  0  0  0  0  0  0  0  0
    1.9415    0.3390   -2.3444 C   0  0  0  0  0  0  0  0  0  0  0  0
    1.9415    1.5612   -1.4839 C   0  0  0  0  0  0  0  0  0  0  0  0
    1.9415   -0.5837   -4.2346 H   0  0  0  0  0  0  0  0  0  0  0  0
    1.9415    1.2646   -4.2342 H   0  0  0  0  0  0  0  0  0  0  0  0
    1.9415   -0.6136   -1.8209 H   0  0  0  0  0  0  0  0  0  0  0  0
    0.8882    1.5817   -0.7024 H   0  0  0  0  0  0  0  0  0  0  0  0
    1.9415    2.4716   -2.0845 H   0  0  0  0  0  0  0  0  0  0  0  0
    2.8192    1.5783   -0.8327 H   0  0  0  0  0  0  0  0  0  0  0  0
   -0.1659    1.6023    0.0797 C   0  0  0  0  0  3  0  0  0  0  0  0
   -1.6695    1.9208   -0.1145 C   0  0  0  0  0  0  0  0  0  0  0  0
   -2.4386    0.6681    0.3748 C   0  0  0  0  0  0  0  0  0  0  0  0
   -1.3697   -0.4143    0.4874 C   0  0  0  0  0  0  0  0  0  0  0  0
   -1.6455   -1.6232    1.3638 C   0  0  0  0  0  0  0  0  0  0  0  0
   -0.4005   -2.5126    1.4264 C   0  0  0  0  0  0  0  0  0  0  0  0
    0.8453   -1.7392    1.8651 C   0  0  0  0  0  0  0  0  0  0  0  0
    1.0949   -0.4995    1.0016 C   0  0  0  0  0  0  0  0  0  0  0  0
   -0.1514    0.3674    0.9751 C   0  0  0  0  0  0  0  0  0  0  0  0
    0.3909    2.4403    0.5011 H   0  0  0  0  0  0  0  0  0  0  0  0
   -1.9630    2.8038    0.4540 H   0  0  0  0  0  0  0  0  0  0  0  0
   -1.8895    2.1358   -1.1606 H   0  0  0  0  0  0  0  0  0  0  0  0
   -3.2573    0.3904   -0.2903 H   0  0  0  0  0  0  0  0  0  0  0  0
   -2.8735    0.8491    1.3621 H   0  0  0  0  0  0  0  0  0  0  0  0
   -1.1363   -0.7749   -0.5251 H   0  0  0  0  0  0  0  0  0  0  0  0
   -1.9075   -1.2827    2.3727 H   0  0  0  0  0  0  0  0  0  0  0  0
   -2.5000   -2.1938    0.9903 H   0  0  0  0  0  0  0  0  0  0  0  0
   -0.2228   -2.9398    0.4331 H   0  0  0  0  0  0  0  0  0  0  0  0
   -0.5709   -3.3546    2.1011 H   0  0  0  0  0  0  0  0  0  0  0  0
    0.7196   -1.4232    2.9068 H   0  0  0  0  0  0  0  0  0  0  0  0
    1.7171   -2.3972    1.8429 H   0  0  0  0  0  0  0  0  0  0  0  0
    1.9551    0.0588    1.3805 H   0  0  0  0  0  0  0  0  0  0  0  0
    1.3408   -0.8057   -0.0222 H   0  0  0  0  0  0  0  0  0  0  0  0
   -0.3653    0.6864    2.0057 H   0  0  0  0  0  0  0  0  0  0  0  0
  1  2  2  3
  1  4  1  0
  1  5  1  0
  2  3  1  0
  2  6  1  0
  3  7  1  0
  3  8  1  0
  3  9  1  0
 10 11  1  0
 10 18  1  0
 10 19  1  0
 11 12  1  0
 11 20  1  0
 11 21  1  0
 12 13  1  0
 12 22  1  0
 12 23  1  0
 13 14  1  0
 13 18  1  0
 13 24  1  0
 14 15  1  0
 14 25  1  0
 14 26  1  0
 15 16  1  0
 15 27  1  0
 15 28  1  0
 16 17  1  0
 16 29  1  0
 16 30  1  0
 17 18  1  0
 17 31  1  0
 17 32  1  0
 18 33  1  0
M  RAD  1  10   2
M  END
>  <reaction>  (14) 
rxn_739

>  <mol_properties>  (14) 
{"1": {"label": "*0", "atom_type": "Cd"}, "2": {"label": "*1", "atom_type": "Cs"}, "6": {"label": "*2", "atom_type": "H0"}, "9": {"label": "*3", "atom_type": "Cs"}, "17": {"label": "*4", "atom_type": "Cs"}}

>  <type>  (14) 
unop_10

>  <geom_source>  (14) 
Heuristics

$$$$

     RDKit          3D

 33 33  0  0  0  0  0  0  0  0999 V2000
    1.4454   -2.5523   -3.4648 C   0  0  0  0  0  0  0  0  0  0  0  0
    1.4454   -2.5523   -2.1410 C   0  0  0  0  0  0  0  0  0  0  0  0
    1.4454   -1.3301   -1.2805 C   0  0  0  0  0  0  0  0  0  0  0  0
    1.4454   -3.4750   -4.0312 H   0  0  0  0  0  0  0  0  0  0  0  0
    1.4454   -1.6267   -4.0308 H   0  0  0  0  0  0  0  0  0  0  0  0
    1.4454   -3.5049   -1.6175 H   0  0  0  0  0  0  0  0  0  0  0  0
    0.3921   -1.3095   -0.4990 H   0  0  0  0  0  0  0  0  0  0  0  0
    1.4454   -0.4196   -1.8811 H   0  0  0  0  0  0  0  0  0  0  0  0
    2.3231   -1.3130   -0.6293 H   0  0  0  0  0  0  0  0  0  0  0  0
   -0.6621   -1.2890    0.2831 C   0  0  0  0  0  3  0  0  0  0  0  0
    0.3219   -1.6500    1.4239 C   0  0  0  0  0  0  0  0  0  0  0  0
    0.7190   -0.3074    2.0869 C   0  0  0  0  0  0  0  0  0  0  0  0
    0.2442    0.7574    1.1033 C   0  0  0  0  0  0  0  0  0  0  0  0
    0.0381    2.1751    1.6066 C   0  0  0  0  0  0  0  0  0  0  0  0
   -0.5521    3.0406    0.4898 C   0  0  0  0  0  0  0  0  0  0  0  0
   -1.8267    2.4353   -0.1033 C   0  0  0  0  0  0  0  0  0  0  0  0
   -1.6218    0.9921   -0.5727 C   0  0  0  0  0  0  0  0  0  0  0  0
   -1.0527    0.1590    0.5620 C   0  0  0  0  0  0  0  0  0  0  0  0
   -1.5204   -1.9606    0.2392 H   0  0  0  0  0  0  0  0  0  0  0  0
   -0.1422   -2.3194    2.1489 H   0  0  0  0  0  0  0  0  0  0  0  0
    1.1961   -2.1714    1.0329 H   0  0  0  0  0  0  0  0  0  0  0  0
    1.7867   -0.2433    2.3012 H   0  0  0  0  0  0  0  0  0  0  0  0
    0.1921   -0.1808    3.0372 H   0  0  0  0  0  0  0  0  0  0  0  0
    0.9558    0.7945    0.2654 H   0  0  0  0  0  0  0  0  0  0  0  0
   -0.6485    2.1561    2.4614 H   0  0  0  0  0  0  0  0  0  0  0  0
    0.9769    2.6066    1.9640 H   0  0  0  0  0  0  0  0  0  0  0  0
    0.1946    3.1471   -0.3050 H   0  0  0  0  0  0  0  0  0  0  0  0
   -0.7576    4.0475    0.8603 H   0  0  0  0  0  0  0  0  0  0  0  0
   -2.6149    2.4494    0.6577 H   0  0  0  0  0  0  0  0  0  0  0  0
   -2.1815    3.0550   -0.9301 H   0  0  0  0  0  0  0  0  0  0  0  0
   -2.5651    0.5740   -0.9337 H   0  0  0  0  0  0  0  0  0  0  0  0
   -0.9224    0.9740   -1.4170 H   0  0  0  0  0  0  0  0  0  0  0  0
   -1.7797    0.1670    1.3871 H   0  0  0  0  0  0  0  0  0  0  0  0
  1  2  2  3
  1  4  1  0
  1  5  1  0
  2  3  1  0
  2  6  1  0
  3  7  1  0
  3  8  1  0
  3  9  1  0
 10 11  1  0
 10 18  1  0
 10 19  1  0
 11 12  1  0
 11 20  1  0
 11 21  1  0
 12 13  1  0
 12 22  1  0
 12 23  1  0
 13 14  1  0
 13 18  1  0
 13 24  1  0
 14 15  1  0
 14 25  1  0
 14 26  1  0
 15 16  1  0
 15 27  1  0
 15 28  1  0
 16 17  1  0
 16 29  1  0
 16 30  1  0
 17 18  1  0
 17 31  1  0
 17 32  1  0
 18 33  1  0
M  RAD  1  10   2
M  END
>  <reaction>  (15) 
rxn_739

>  <mol_properties>  (15) 
{"1": {"label": "*0", "atom_type": "Cd"}, "2": {"label": "*1", "atom_type": "Cs"}, "6": {"label": "*2", "atom_type": "H0"}, "9": {"label": "*3", "atom_type": "Cs"}, "17": {"label": "*4", "atom_type": "Cs"}}

>  <type>  (15) 
unop_11

>  <geom_source>  (15) 
Heuristics

$$$$

     RDKit          3D

 33 33  0  0  0  0  0  0  0  0999 V2000
    2.5417   -0.0699   -2.3964 C   0  0  0  0  0  0  0  0  0  0  0  0
    2.5417   -0.0699   -1.0726 C   0  0  0  0  0  0  0  0  0  0  0  0
    2.5417    1.1522   -0.2121 C   0  0  0  0  0  0  0  0  0  0  0  0
    2.5417   -0.9927   -2.9628 H   0  0  0  0  0  0  0  0  0  0  0  0
    2.5417    0.8557   -2.9624 H   0  0  0  0  0  0  0  0  0  0  0  0
    2.5417   -1.0226   -0.5491 H   0  0  0  0  0  0  0  0  0  0  0  0
    1.4884    1.1728    0.5694 H   0  0  0  0  0  0  0  0  0  0  0  0
    2.5417    2.0627   -0.8127 H   0  0  0  0  0  0  0  0  0  0  0  0
    3.4194    1.1694    0.4391 H   0  0  0  0  0  0  0  0  0  0  0  0
    0.4343    1.1933    1.3515 C   0  0  0  0  0  3  0  0  0  0  0  0
   -0.4938    2.3755    0.9760 C   0  0  0  0  0  0  0  0  0  0  0  0
   -1.6788    1.7568    0.1930 C   0  0  0  0  0  0  0  0  0  0  0  0
   -1.2137    0.3443   -0.1468 C   0  0  0  0  0  0  0  0  0  0  0  0
   -2.2568   -0.7034   -0.4929 C   0  0  0  0  0  0  0  0  0  0  0  0
   -1.5817   -2.0654   -0.6775 C   0  0  0  0  0  0  0  0  0  0  0  0
   -0.7287   -2.4603    0.5305 C   0  0  0  0  0  0  0  0  0  0  0  0
    0.2944   -1.3819    0.8980 C   0  0  0  0  0  0  0  0  0  0  0  0
   -0.4095   -0.0503    1.0903 C   0  0  0  0  0  0  0  0  0  0  0  0
    0.7979    1.2533    2.3782 H   0  0  0  0  0  0  0  0  0  0  0  0
   -0.8464    2.8989    1.8652 H   0  0  0  0  0  0  0  0  0  0  0  0
    0.0382    3.1107    0.3715 H   0  0  0  0  0  0  0  0  0  0  0  0
   -1.9508    2.3390   -0.6884 H   0  0  0  0  0  0  0  0  0  0  0  0
   -2.5677    1.7004    0.8281 H   0  0  0  0  0  0  0  0  0  0  0  0
   -0.5044    0.4073   -0.9851 H   0  0  0  0  0  0  0  0  0  0  0  0
   -2.9903   -0.7618    0.3202 H   0  0  0  0  0  0  0  0  0  0  0  0
   -2.8070   -0.4280   -1.3966 H   0  0  0  0  0  0  0  0  0  0  0  0
   -0.9423   -2.0237   -1.5664 H   0  0  0  0  0  0  0  0  0  0  0  0
   -2.3316   -2.8362   -0.8697 H   0  0  0  0  0  0  0  0  0  0  0  0
   -1.3863   -2.6295    1.3905 H   0  0  0  0  0  0  0  0  0  0  0  0
   -0.2240   -3.4090    0.3336 H   0  0  0  0  0  0  0  0  0  0  0  0
    0.8426   -1.6713    1.7985 H   0  0  0  0  0  0  0  0  0  0  0  0
    1.0334   -1.2843    0.0938 H   0  0  0  0  0  0  0  0  0  0  0  0
   -1.1256   -0.1610    1.9177 H   0  0  0  0  0  0  0  0  0  0  0  0
  1  2  2  3
  1  4  1  0
  1  5  1  0
  2  3  1  0
  2  6  1  0
  3  7  1  0
  3  8  1  0
  3  9  1  0
 10 11  1  0
 10 18  1  0
 10 19  1  0
 11 12  1  0
 11 20  1  0
 11 21  1  0
 12 13  1  0
 12 22  1  0
 12 23  1  0
 13 14  1  0
 13 18  1  0
 13 24  1  0
 14 15  1  0
 14 25  1  0
 14 26  1  0
 15 16  1  0
 15 27  1  0
 15 28  1  0
 16 17  1  0
 16 29  1  0
 16 30  1  0
 17 18  1  0
 17 31  1  0
 17 32  1  0
 18 33  1  0
M  RAD  1  10   2
M  END
>  <reaction>  (16) 
rxn_739

>  <mol_properties>  (16) 
{"1": {"label": "*0", "atom_type": "Cd"}, "2": {"label": "*1", "atom_type": "Cs"}, "6": {"label": "*2", "atom_type": "H0"}, "9": {"label": "*3", "atom_type": "Cs"}, "17": {"label": "*4", "atom_type": "Cs"}}

>  <type>  (16) 
unop_12

>  <geom_source>  (16) 
Heuristics

$$$$

     RDKit          3D

 33 33  0  0  0  0  0  0  0  0999 V2000
   -0.9191   -0.2436   -0.7825 C   0  0  0  0  0  0  0  0  0  0  0  0
   -1.6403   -1.0054    0.3583 C   0  0  0  0  0  0  0  0  0  0  0  0
    0.3294   -1.0605   -1.1356 C   0  0  0  0  0  0  0  0  0  0  0  0
   -0.5582    1.2107   -0.4149 C   0  0  0  0  0  0  0  0  0  0  0  0
   -0.8741   -2.3179    0.5370 C   0  0  0  0  0  0  0  0  0  0  0  0
   -1.6935   -0.2050    1.6766 C   0  0  0  0  0  0  0  0  0  0  0  0
    0.5174   -2.0587   -0.0082 C   0  0  0  0  0  0  0  0  0  0  0  0
   -1.7612    1.9208    0.2160 C   0  0  0  0  0  0  0  0  0  0  0  0
   -2.3066    1.1882    1.4625 C   0  0  0  0  0  0  0  0  0  0  0  0
    2.6352    0.5650   -0.3384 C   0  0  0  0  0  0  0  0  0  0  0  0
    2.7349   -0.2187   -1.6079 C   0  0  0  0  0  0  0  0  0  0  0  0
    3.3473    1.6789   -0.1545 C   0  0  0  0  0  3  0  0  0  0  0  0
   -1.5889   -0.2146   -1.6721 H   0  0  0  0  0  0  0  0  0  0  0  0
   -2.6864   -1.2329    0.0511 H   0  0  0  0  0  0  0  0  0  0  0  0
    0.1554   -1.6129   -2.0858 H   0  0  0  0  0  0  0  0  0  0  0  0
    1.3906   -0.3285   -1.2785 H   0  0  0  0  0  0  0  0  0  0  0  0
    1.1509   -1.6041    0.7847 H   0  0  0  0  0  0  0  0  0  0  0  0
    0.9942   -2.9957   -0.3689 H   0  0  0  0  0  0  0  0  0  0  0  0
    0.2947    1.2340    0.2994 H   0  0  0  0  0  0  0  0  0  0  0  0
   -0.2471    1.7586   -1.3308 H   0  0  0  0  0  0  0  0  0  0  0  0
   -1.3591   -3.1138   -0.0710 H   0  0  0  0  0  0  0  0  0  0  0  0
   -0.8342   -2.6594    1.5947 H   0  0  0  0  0  0  0  0  0  0  0  0
   -2.3010   -0.7578    2.4260 H   0  0  0  0  0  0  0  0  0  0  0  0
   -0.6685   -0.0921    2.0950 H   0  0  0  0  0  0  0  0  0  0  0  0
   -2.5679    1.9993   -0.5459 H   0  0  0  0  0  0  0  0  0  0  0  0
   -1.4673    2.9568    0.4917 H   0  0  0  0  0  0  0  0  0  0  0  0
   -3.4100    1.0859    1.3685 H   0  0  0  0  0  0  0  0  0  0  0  0
   -2.1111    1.8023    2.3684 H   0  0  0  0  0  0  0  0  0  0  0  0
    1.9695    0.2163    0.4444 H   0  0  0  0  0  0  0  0  0  0  0  0
    2.4211    0.4053   -2.4713 H   0  0  0  0  0  0  0  0  0  0  0  0
    3.7749   -0.5780   -1.7580 H   0  0  0  0  0  0  0  0  0  0  0  0
    4.0193    2.0451   -0.9250 H   0  0  0  0  0  0  0  0  0  0  0  0
    3.2596    2.2323    0.7748 H   0  0  0  0  0  0  0  0  0  0  0  0
  1  4  1  0
  1  3  1  0
  1  2  1  0
  1 13  1  0
  2  6  1  0
  2  5  1  0
  2 14  1  0
  3  7  1  0
  3 15  1  0
  3 16  1  0
  4  8  1  0
  4 19  1  0
  4 20  1  0
  5  7  1  0
  5 21  1  0
  5 22  1  0
  6  9  1  0
  6 23  1  0
  6 24  1  0
  7 17  1  0
  7 18  1  0
  8  9  1  0
  8 25  1  0
  8 26  1  0
  9 27  1  0
  9 28  1  0
 10 11  2  3
 10 12  1  0
 10 29  1  0
 11 30  1  0
 11 31  1  0
 12 32  1  0
 12 33  1  0
M  RAD  1  12   2
M  END
>  <reaction>  (17) 
rxn_739

>  <mol_properties>  (17) 
{"1": {"label": "*0", "atom_type": "Cd"}, "2": {"label": "*1", "atom_type": "Cs"}, "6": {"label": "*2", "atom_type": "H0"}, "9": {"label": "*3", "atom_type": "Cs"}, "17": {"label": "*4", "atom_type": "Cs"}}

>  <type>  (17) 
unop_13

>  <geom_source>  (17) 
AutoTST

$$$$
